EPH_relaxed_0001_pdb2pqr_Repair_228_r2_0001_out
     RDKit          3D

 82 86  0  0  0  0  0  0  0  0999 V2000
   -1.5910    8.5670   -1.8080 C   0  0  0  0  0  0  0  0  0  0  0  0
   -2.0020    9.1460   -0.4510 C   0  0  2  0  0  0  0  0  0  0  0  0
   -3.4920    9.5420   -0.4170 C   0  0  0  0  0  0  0  0  0  0  0  0
   -4.4440    8.3490   -0.2940 C   0  0  0  0  0  0  0  0  0  0  0  0
   -5.0780    8.0080   -1.6090 C   0  0  2  0  0  0  0  0  0  0  0  0
   -6.3390    8.6460   -1.8480 O   0  0  0  0  0  0  0  0  0  0  0  0
   -6.3640    7.2140   -1.7360 C   0  0  0  0  0  0  0  0  0  0  0  0
   -7.0930    6.7100   -0.5300 C   0  0  0  0  0  0  0  0  0  0  0  0
   -6.6470    6.5130   -3.0290 C   0  0  0  0  0  0  0  0  0  0  0  0
   -1.1340   10.3530   -0.1160 C   0  0  1  0  0  0  0  0  0  0  0  0
   -0.0630   10.0380    0.9620 C   0  0  0  0  0  0  0  0  0  0  0  0
    1.1920   10.8730    0.6030 C   0  0  0  0  0  0  0  0  0  0  0  0
    0.6990   11.8810   -0.4610 C   0  0  1  0  0  0  0  0  0  0  0  0
    0.0170   13.0240    0.3540 C   0  0  0  0  0  0  0  0  0  0  0  0
    1.7830   12.4380   -1.4400 C   0  0  2  0  0  0  0  0  0  0  0  0
    2.9080   13.2490   -0.7750 C   0  0  0  0  0  0  0  0  0  0  0  0
    2.6570   14.7170   -0.6650 C   0  0  0  0  0  0  0  0  0  0  0  0
    1.7080   15.4000   -1.3320 C   0  0  0  0  0  0  0  0  0  0  0  0
    0.8280   14.7060   -2.3800 C   0  0  1  0  0  0  0  0  0  0  0  0
    0.7530   15.5840   -3.6560 C   0  0  0  0  0  0  0  0  0  0  0  0
    0.2960   17.0090   -3.3610 C   0  0  0  0  0  0  0  0  0  0  0  0
    1.2290   17.6850   -2.3600 C   0  0  2  0  0  0  0  0  0  0  0  0
    2.5100   17.8650   -2.9720 O   0  0  0  0  0  0  0  0  0  0  0  0
    1.3900   16.8860   -1.0360 C   0  0  0  0  0  0  0  0  0  0  0  0
    0.0720   16.9500   -0.2260 C   0  0  0  0  0  0  0  0  0  0  0  0
    2.4640   17.6030   -0.1740 C   0  0  0  0  0  0  0  0  0  0  0  0
    1.1930   13.1930   -2.7000 C   0  0  1  0  0  0  0  0  0  0  0  0
    2.2880   13.1330   -3.8080 C   0  0  0  0  0  0  0  0  0  0  0  0
   -0.0760   12.4720   -3.2890 C   0  0  0  0  0  0  0  0  0  0  0  0
   -1.0480   11.8370   -2.2760 C   0  0  0  0  0  0  0  0  0  0  0  0
   -0.2960   10.9670   -1.2650 C   0  0  2  0  0  0  0  0  0  0  0  0
    0.3820    9.7950   -2.0540 C   0  0  0  0  0  0  0  0  0  0  0  0
   -0.9607    7.6791   -1.6521 H   0  0  0  0  0  0  0  0  0  0  0  0
   -2.4909    8.2832   -2.3733 H   0  0  0  0  0  0  0  0  0  0  0  0
   -1.0262    9.3229   -2.3733 H   0  0  0  0  0  0  0  0  0  0  0  0
   -1.8517    8.3601    0.3038 H   0  0  0  0  0  0  0  0  0  0  0  0
   -3.6550   10.2065    0.4443 H   0  0  0  0  0  0  0  0  0  0  0  0
   -3.7156   10.0338   -1.3752 H   0  0  0  0  0  0  0  0  0  0  0  0
   -3.8782    7.4770    0.0658 H   0  0  0  0  0  0  0  0  0  0  0  0
   -5.2429    8.6191    0.4122 H   0  0  0  0  0  0  0  0  0  0  0  0
   -4.0917    7.8953   -2.0827 H   0  0  0  0  0  0  0  0  0  0  0  0
   -6.5842    7.0618    0.3796 H   0  0  0  0  0  0  0  0  0  0  0  0
   -8.1261    7.0877   -0.5416 H   0  0  0  0  0  0  0  0  0  0  0  0
   -7.1045    5.6101   -0.5416 H   0  0  0  0  0  0  0  0  0  0  0  0
   -7.0514    5.5112   -2.8221 H   0  0  0  0  0  0  0  0  0  0  0  0
   -7.3815    7.0927   -3.6073 H   0  0  0  0  0  0  0  0  0  0  0  0
   -5.7159    6.4203   -3.6073 H   0  0  0  0  0  0  0  0  0  0  0  0
   -1.9154   11.0601    0.1993 H   0  0  0  0  0  0  0  0  0  0  0  0
   -0.4338   10.3208    1.9583 H   0  0  0  0  0  0  0  0  0  0  0  0
    0.1708    8.9634    0.9842 H   0  0  0  0  0  0  0  0  0  0  0  0
    1.5743   11.4001    1.4896 H   0  0  0  0  0  0  0  0  0  0  0  0
    2.0177   10.2471    0.2335 H   0  0  0  0  0  0  0  0  0  0  0  0
    0.1343   12.8275    1.4299 H   0  0  0  0  0  0  0  0  0  0  0  0
    0.4893   13.9853    0.1032 H   0  0  0  0  0  0  0  0  0  0  0  0
   -1.0533   13.0649    0.1032 H   0  0  0  0  0  0  0  0  0  0  0  0
    2.2580   11.5185   -1.8127 H   0  0  0  0  0  0  0  0  0  0  0  0
    3.0581   12.8529    0.2402 H   0  0  0  0  0  0  0  0  0  0  0  0
    3.7880   13.1387   -1.4257 H   0  0  0  0  0  0  0  0  0  0  0  0
    3.3020   15.2884    0.0187 H   0  0  0  0  0  0  0  0  0  0  0  0
   -0.1712   14.6182   -1.9283 H   0  0  0  0  0  0  0  0  0  0  0  0
    1.7512   15.6223   -4.1165 H   0  0  0  0  0  0  0  0  0  0  0  0
    0.0124   15.1293   -4.3304 H   0  0  0  0  0  0  0  0  0  0  0  0
    0.2925   17.5869   -4.2969 H   0  0  0  0  0  0  0  0  0  0  0  0
   -0.7147   16.9711   -2.9286 H   0  0  0  0  0  0  0  0  0  0  0  0
    0.7784   18.6515   -2.0902 H   0  0  0  0  0  0  0  0  0  0  0  0
    2.4140   18.5470   -3.6590 H   0  0  0  0  0  0  0  0  0  0  0  0
    0.3018   16.9388    0.8497 H   0  0  0  0  0  0  0  0  0  0  0  0
   -0.4675   17.8754   -0.4761 H   0  0  0  0  0  0  0  0  0  0  0  0
   -0.5546   16.0812   -0.4761 H   0  0  0  0  0  0  0  0  0  0  0  0
    2.2388   17.4526    0.8921 H   0  0  0  0  0  0  0  0  0  0  0  0
    3.4558   17.1852   -0.4017 H   0  0  0  0  0  0  0  0  0  0  0  0
    2.4584   18.6792   -0.4017 H   0  0  0  0  0  0  0  0  0  0  0  0
    3.2815   13.0786   -3.3391 H   0  0  0  0  0  0  0  0  0  0  0  0
    2.1284   12.2423   -4.4334 H   0  0  0  0  0  0  0  0  0  0  0  0
    2.2267   14.0359   -4.4334 H   0  0  0  0  0  0  0  0  0  0  0  0
   -0.6407   13.2153   -3.8709 H   0  0  0  0  0  0  0  0  0  0  0  0
    0.3186   11.6294   -3.8759 H   0  0  0  0  0  0  0  0  0  0  0  0
   -1.5794   12.6359   -1.7380 H   0  0  0  0  0  0  0  0  0  0  0  0
   -1.7596   11.2019   -2.8239 H   0  0  0  0  0  0  0  0  0  0  0  0
    0.8021    9.0688   -1.3426 H   0  0  0  0  0  0  0  0  0  0  0  0
   -0.3675    9.2970   -2.6866 H   0  0  0  0  0  0  0  0  0  0  0  0
    1.1873   10.1965   -2.6866 H   0  0  0  0  0  0  0  0  0  0  0  0
  1  2  1  0
  2  3  1  0
  3  4  1  0
  4  5  1  0
  5  6  1  0
  6  7  1  0
  7  8  1  0
  7  9  1  0
  2 10  1  0
 10 11  1  0
 11 12  1  0
 12 13  1  0
 13 14  1  1
 13 15  1  0
 15 16  1  0
 16 17  1  0
 17 18  2  0
 18 19  1  0
 19 20  1  0
 20 21  1  0
 21 22  1  0
 22 23  1  0
 22 24  1  0
 24 25  1  0
 24 26  1  0
 19 27  1  0
 27 28  1  6
 27 29  1  0
 29 30  1  0
 30 31  1  0
 31 32  1  6
  7  5  1  0
 31 10  1  0
 31 13  1  0
 27 15  1  0
 24 18  1  0
  1 33  1  0
  1 34  1  0
  1 35  1  0
  2 36  1  1
  3 37  1  0
  3 38  1  0
  4 39  1  0
  4 40  1  0
  5 41  1  6
  8 42  1  0
  8 43  1  0
  8 44  1  0
  9 45  1  0
  9 46  1  0
  9 47  1  0
 10 48  1  1
 11 49  1  0
 11 50  1  0
 12 51  1  0
 12 52  1  0
 14 53  1  0
 14 54  1  0
 14 55  1  0
 15 56  1  6
 16 57  1  0
 16 58  1  0
 17 59  1  0
 19 60  1  1
 20 61  1  0
 20 62  1  0
 21 63  1  0
 21 64  1  0
 22 65  1  1
 23 66  1  0
 25 67  1  0
 25 68  1  0
 25 69  1  0
 26 70  1  0
 26 71  1  0
 26 72  1  0
 28 73  1  0
 28 74  1  0
 28 75  1  0
 29 76  1  0
 29 77  1  0
 30 78  1  0
 30 79  1  0
 32 80  1  0
 32 81  1  0
 32 82  1  0
M  END
>  <meeko>  (1) 
{"is_sidechain": [false], "intermolecular_energy": 2.731, "internal_energy": -0.839}

$$$$
EPH_relaxed_0001_pdb2pqr_Repair_228_r2_0001_out
     RDKit          3D

 82 86  0  0  0  0  0  0  0  0999 V2000
    4.1150   17.5890    0.2120 C   0  0  0  0  0  0  0  0  0  0  0  0
    2.7360   18.1680   -0.1160 C   0  0  2  0  0  0  0  0  0  0  0  0
    2.2970   19.2360    0.9060 C   0  0  0  0  0  0  0  0  0  0  0  0
    3.4640   19.9910    1.5480 C   0  0  0  0  0  0  0  0  0  0  0  0
    3.9500   19.3080    2.7900 C   0  0  2  0  0  0  0  0  0  0  0  0
    4.3240   20.1940    3.8540 O   0  0  0  0  0  0  0  0  0  0  0  0
    5.3800   19.3980    3.2900 C   0  0  0  0  0  0  0  0  0  0  0  0
    6.4140   20.1930    2.5560 C   0  0  0  0  0  0  0  0  0  0  0  0
    5.8850   18.3300    4.2090 C   0  0  0  0  0  0  0  0  0  0  0  0
    1.7030   17.0490   -0.1760 C   0  0  1  0  0  0  0  0  0  0  0  0
    0.2960   17.5560   -0.5900 C   0  0  0  0  0  0  0  0  0  0  0  0
   -0.3520   16.4320   -1.4390 C   0  0  0  0  0  0  0  0  0  0  0  0
    0.5530   15.1990   -1.2110 C   0  0  1  0  0  0  0  0  0  0  0  0
    0.0870   14.6080    0.1560 C   0  0  0  0  0  0  0  0  0  0  0  0
    0.5460   14.1180   -2.3400 C   0  0  2  0  0  0  0  0  0  0  0  0
   -0.8120   13.4370   -2.5830 C   0  0  0  0  0  0  0  0  0  0  0  0
   -1.0570   12.2000   -1.7840 C   0  0  0  0  0  0  0  0  0  0  0  0
   -0.1190   11.4980   -1.1220 C   0  0  0  0  0  0  0  0  0  0  0  0
    1.3640   11.8790   -1.2180 C   0  0  1  0  0  0  0  0  0  0  0  0
    2.2110   10.6050   -1.4710 C   0  0  0  0  0  0  0  0  0  0  0  0
    1.9550    9.5160   -0.4340 C   0  0  0  0  0  0  0  0  0  0  0  0
    0.4800    9.1220   -0.4100 C   0  0  2  0  0  0  0  0  0  0  0  0
    0.1510    8.4880   -1.6500 O   0  0  0  0  0  0  0  0  0  0  0  0
   -0.4720   10.3280   -0.1710 C   0  0  0  0  0  0  0  0  0  0  0  0
   -0.3250   10.8260    1.2880 C   0  0  0  0  0  0  0  0  0  0  0  0
   -1.9320    9.8180   -0.3110 C   0  0  0  0  0  0  0  0  0  0  0  0
    1.7140   13.0550   -2.2280 C   0  0  1  0  0  0  0  0  0  0  0  0
    1.9310   12.4800   -3.6600 C   0  0  0  0  0  0  0  0  0  0  0  0
    3.0800   13.7110   -1.8000 C   0  0  0  0  0  0  0  0  0  0  0  0
    3.0100   14.8540   -0.7700 C   0  0  0  0  0  0  0  0  0  0  0  0
    1.9630   15.8950   -1.1770 C   0  0  2  0  0  0  0  0  0  0  0  0
    2.4160   16.5240   -2.5390 C   0  0  0  0  0  0  0  0  0  0  0  0
    4.2404   17.5364    1.3036 H   0  0  0  0  0  0  0  0  0  0  0  0
    4.2000   16.5792   -0.2160 H   0  0  0  0  0  0  0  0  0  0  0  0
    4.8953   18.2355   -0.2160 H   0  0  0  0  0  0  0  0  0  0  0  0
    2.8085   18.6598   -1.0973 H   0  0  0  0  0  0  0  0  0  0  0  0
    1.6531   19.9646    0.3917 H   0  0  0  0  0  0  0  0  0  0  0  0
    1.7713   18.7087    1.7157 H   0  0  0  0  0  0  0  0  0  0  0  0
    4.2917   20.0486    0.8258 H   0  0  0  0  0  0  0  0  0  0  0  0
    3.1116   20.9956    1.8248 H   0  0  0  0  0  0  0  0  0  0  0  0
    3.2853   18.4510    2.6066 H   0  0  0  0  0  0  0  0  0  0  0  0
    7.0705   20.6978    3.2800 H   0  0  0  0  0  0  0  0  0  0  0  0
    7.0132   19.5207    1.9243 H   0  0  0  0  0  0  0  0  0  0  0  0
    5.9183   20.9448    1.9243 H   0  0  0  0  0  0  0  0  0  0  0  0
    5.7365   18.6440    5.2527 H   0  0  0  0  0  0  0  0  0  0  0  0
    5.3329   17.3966    4.0248 H   0  0  0  0  0  0  0  0  0  0  0  0
    6.9568   18.1645    4.0248 H   0  0  0  0  0  0  0  0  0  0  0  0
    1.7752   16.6753    0.8561 H   0  0  0  0  0  0  0  0  0  0  0  0
   -0.3133   17.7547    0.3040 H   0  0  0  0  0  0  0  0  0  0  0  0
    0.3661   18.4929   -1.1622 H   0  0  0  0  0  0  0  0  0  0  0  0
   -1.3776   16.2294   -1.0969 H   0  0  0  0  0  0  0  0  0  0  0  0
   -0.4268   16.7033   -2.5024 H   0  0  0  0  0  0  0  0  0  0  0  0
    0.5400   15.1825    0.9774 H   0  0  0  0  0  0  0  0  0  0  0  0
   -1.0090   14.6685    0.2271 H   0  0  0  0  0  0  0  0  0  0  0  0
    0.4015   13.5563    0.2271 H   0  0  0  0  0  0  0  0  0  0  0  0
    0.7452   14.7172   -3.2407 H   0  0  0  0  0  0  0  0  0  0  0  0
   -1.6037   14.1610   -2.3399 H   0  0  0  0  0  0  0  0  0  0  0  0
   -0.8107   13.1231   -3.6373 H   0  0  0  0  0  0  0  0  0  0  0  0
   -2.0920   11.8311   -1.7320 H   0  0  0  0  0  0  0  0  0  0  0  0
    1.6289   12.3157   -0.2438 H   0  0  0  0  0  0  0  0  0  0  0  0
    1.9630   10.2088   -2.4667 H   0  0  0  0  0  0  0  0  0  0  0  0
    3.2711   10.8899   -1.4008 H   0  0  0  0  0  0  0  0  0  0  0  0
    2.5599    8.6318   -0.6835 H   0  0  0  0  0  0  0  0  0  0  0  0
    2.2314    9.9033    0.5578 H   0  0  0  0  0  0  0  0  0  0  0  0
    0.3360    8.4353    0.4371 H   0  0  0  0  0  0  0  0  0  0  0  0
   -0.2160    9.1680   -2.2400 H   0  0  0  0  0  0  0  0  0  0  0  0
   -0.5668   10.0068    1.9812 H   0  0  0  0  0  0  0  0  0  0  0  0
    0.7095   11.1582    1.4596 H   0  0  0  0  0  0  0  0  0  0  0  0
   -1.0133   11.6667    1.4596 H   0  0  0  0  0  0  0  0  0  0  0  0
   -2.3650    9.6667    0.6888 H   0  0  0  0  0  0  0  0  0  0  0  0
   -2.5288   10.5609   -0.8605 H   0  0  0  0  0  0  0  0  0  0  0  0
   -1.9364    8.8651   -0.8605 H   0  0  0  0  0  0  0  0  0  0  0  0
    2.3186   11.4531   -3.5879 H   0  0  0  0  0  0  0  0  0  0  0  0
    0.9735   12.4734   -4.2015 H   0  0  0  0  0  0  0  0  0  0  0  0
    2.6541   13.1076   -4.2015 H   0  0  0  0  0  0  0  0  0  0  0  0
    3.7110   12.9172   -1.3736 H   0  0  0  0  0  0  0  0  0  0  0  0
    3.4762   14.1735   -2.7160 H   0  0  0  0  0  0  0  0  0  0  0  0
    2.7407   14.4376    0.2119 H   0  0  0  0  0  0  0  0  0  0  0  0
    3.9932   15.3450   -0.7234 H   0  0  0  0  0  0  0  0  0  0  0  0
    3.0487   17.4026   -2.3447 H   0  0  0  0  0  0  0  0  0  0  0  0
    2.9874   15.7806   -3.1142 H   0  0  0  0  0  0  0  0  0  0  0  0
    1.5298   16.8304   -3.1142 H   0  0  0  0  0  0  0  0  0  0  0  0
  1  2  1  0
  2  3  1  0
  3  4  1  0
  4  5  1  0
  5  6  1  0
  6  7  1  0
  7  8  1  0
  7  9  1  0
  2 10  1  0
 10 11  1  0
 11 12  1  0
 12 13  1  0
 13 14  1  1
 13 15  1  0
 15 16  1  0
 16 17  1  0
 17 18  2  0
 18 19  1  0
 19 20  1  0
 20 21  1  0
 21 22  1  0
 22 23  1  0
 22 24  1  0
 24 25  1  0
 24 26  1  0
 19 27  1  0
 27 28  1  6
 27 29  1  0
 29 30  1  0
 30 31  1  0
 31 32  1  6
  7  5  1  0
 31 10  1  0
 31 13  1  0
 27 15  1  0
 24 18  1  0
  1 33  1  0
  1 34  1  0
  1 35  1  0
  2 36  1  6
  3 37  1  0
  3 38  1  0
  4 39  1  0
  4 40  1  0
  5 41  1  1
  8 42  1  0
  8 43  1  0
  8 44  1  0
  9 45  1  0
  9 46  1  0
  9 47  1  0
 10 48  1  1
 11 49  1  0
 11 50  1  0
 12 51  1  0
 12 52  1  0
 14 53  1  0
 14 54  1  0
 14 55  1  0
 15 56  1  6
 16 57  1  0
 16 58  1  0
 17 59  1  0
 19 60  1  1
 20 61  1  0
 20 62  1  0
 21 63  1  0
 21 64  1  0
 22 65  1  1
 23 66  1  0
 25 67  1  0
 25 68  1  0
 25 69  1  0
 26 70  1  0
 26 71  1  0
 26 72  1  0
 28 73  1  0
 28 74  1  0
 28 75  1  0
 29 76  1  0
 29 77  1  0
 30 78  1  0
 30 79  1  0
 32 80  1  0
 32 81  1  0
 32 82  1  0
M  END
>  <meeko>  (2) 
{"is_sidechain": [false], "intermolecular_energy": 2.731, "internal_energy": -0.839}

$$$$
EPH_relaxed_0001_pdb2pqr_Repair_228_r2_0001_out
     RDKit          3D

 82 86  0  0  0  0  0  0  0  0999 V2000
    2.4010   18.0630   -2.7350 C   0  0  0  0  0  0  0  0  0  0  0  0
    1.1410   17.6690   -1.9590 C   0  0  2  0  0  0  0  0  0  0  0  0
    1.3640   17.7040   -0.4330 C   0  0  0  0  0  0  0  0  0  0  0  0
    1.0760   19.0690    0.1990 C   0  0  0  0  0  0  0  0  0  0  0  0
   -0.3360   19.1650    0.6910 C   0  0  2  0  0  0  0  0  0  0  0  0
   -1.2560   18.2720    0.0490 O   0  0  0  0  0  0  0  0  0  0  0  0
   -1.4850   19.6750   -0.1600 C   0  0  0  0  0  0  0  0  0  0  0  0
   -1.2720   20.1220   -1.5710 C   0  0  0  0  0  0  0  0  0  0  0  0
   -2.7090   20.1940    0.5280 C   0  0  0  0  0  0  0  0  0  0  0  0
    0.6800   16.2810   -2.3860 C   0  0  1  0  0  0  0  0  0  0  0  0
    0.7580   16.0720   -3.9220 C   0  0  0  0  0  0  0  0  0  0  0  0
    1.1480   14.5890   -4.1520 C   0  0  0  0  0  0  0  0  0  0  0  0
    0.9570   13.9170   -2.7730 C   0  0  1  0  0  0  0  0  0  0  0  0
   -0.5740   13.6300   -2.6750 C   0  0  0  0  0  0  0  0  0  0  0  0
    1.8030   12.6290   -2.5090 C   0  0  2  0  0  0  0  0  0  0  0  0
    1.5040   11.4480   -3.4480 C   0  0  0  0  0  0  0  0  0  0  0  0
    0.4440   10.5090   -2.9750 C   0  0  0  0  0  0  0  0  0  0  0  0
   -0.0400   10.4440   -1.7210 C   0  0  0  0  0  0  0  0  0  0  0  0
    0.5540   11.3080   -0.6020 C   0  0  1  0  0  0  0  0  0  0  0  0
    0.7900   10.4340    0.6580 C   0  0  0  0  0  0  0  0  0  0  0  0
   -0.4680    9.6920    1.0990 C   0  0  0  0  0  0  0  0  0  0  0  0
   -0.9950    8.7990   -0.0220 C   0  0  2  0  0  0  0  0  0  0  0  0
   -0.0520    7.7490   -0.2570 O   0  0  0  0  0  0  0  0  0  0  0  0
   -1.2610    9.5690   -1.3450 C   0  0  0  0  0  0  0  0  0  0  0  0
   -2.4890   10.4960   -1.1700 C   0  0  0  0  0  0  0  0  0  0  0  0
   -1.6530    8.5300   -2.4310 C   0  0  0  0  0  0  0  0  0  0  0  0
    1.8300   12.1700   -0.9940 C   0  0  1  0  0  0  0  0  0  0  0  0
    3.1240   11.3190   -0.8100 C   0  0  0  0  0  0  0  0  0  0  0  0
    1.9540   13.3870   -0.0030 C   0  0  0  0  0  0  0  0  0  0  0  0
    1.1900   14.6710   -0.3800 C   0  0  0  0  0  0  0  0  0  0  0  0
    1.4690   15.0680   -1.8330 C   0  0  2  0  0  0  0  0  0  0  0  0
    2.9990   15.3840   -1.9570 C   0  0  0  0  0  0  0  0  0  0  0  0
    3.2043   18.3142   -2.0267 H   0  0  0  0  0  0  0  0  0  0  0  0
    2.7200   17.2217   -3.3678 H   0  0  0  0  0  0  0  0  0  0  0  0
    2.1839   18.9361   -3.3678 H   0  0  0  0  0  0  0  0  0  0  0  0
    0.3619   18.4085   -2.1960 H   0  0  0  0  0  0  0  0  0  0  0  0
    0.7017   16.9590    0.0321 H   0  0  0  0  0  0  0  0  0  0  0  0
    2.4279   17.4862   -0.2580 H   0  0  0  0  0  0  0  0  0  0  0  0
    1.7601   19.2207    1.0470 H   0  0  0  0  0  0  0  0  0  0  0  0
    1.2244   19.8412   -0.5702 H   0  0  0  0  0  0  0  0  0  0  0  0
    0.0088   19.4302    1.7013 H   0  0  0  0  0  0  0  0  0  0  0  0
   -0.7988   21.1150   -1.5736 H   0  0  0  0  0  0  0  0  0  0  0  0
   -0.6195   19.4035   -2.0887 H   0  0  0  0  0  0  0  0  0  0  0  0
   -2.2410   20.1763   -2.0887 H   0  0  0  0  0  0  0  0  0  0  0  0
   -2.5700   20.1351    1.6176 H   0  0  0  0  0  0  0  0  0  0  0  0
   -2.8776   21.2410    0.2360 H   0  0  0  0  0  0  0  0  0  0  0  0
   -3.5788   19.5873    0.2360 H   0  0  0  0  0  0  0  0  0  0  0  0
   -0.3382   16.2889   -1.9698 H   0  0  0  0  0  0  0  0  0  0  0  0
   -0.2182   16.2829   -4.3831 H   0  0  0  0  0  0  0  0  0  0  0  0
    1.4960   16.7496   -4.3760 H   0  0  0  0  0  0  0  0  0  0  0  0
    0.4910   14.1268   -4.9035 H   0  0  0  0  0  0  0  0  0  0  0  0
    2.1756   14.4817   -4.5295 H   0  0  0  0  0  0  0  0  0  0  0  0
   -0.8697   13.5746   -1.6169 H   0  0  0  0  0  0  0  0  0  0  0  0
   -1.1312   14.4393   -3.1695 H   0  0  0  0  0  0  0  0  0  0  0  0
   -0.8002   12.6738   -3.1695 H   0  0  0  0  0  0  0  0  0  0  0  0
    2.8212   12.9605   -2.7607 H   0  0  0  0  0  0  0  0  0  0  0  0
    1.1869   11.8574   -4.4185 H   0  0  0  0  0  0  0  0  0  0  0  0
    2.4313   10.8585   -3.4999 H   0  0  0  0  0  0  0  0  0  0  0  0
    0.0231    9.8113   -3.7140 H   0  0  0  0  0  0  0  0  0  0  0  0
   -0.1975   12.0813   -0.3845 H   0  0  0  0  0  0  0  0  0  0  0  0
    1.5742    9.6961    0.4335 H   0  0  0  0  0  0  0  0  0  0  0  0
    1.0875   11.1039    1.4782 H   0  0  0  0  0  0  0  0  0  0  0  0
   -0.2307    9.0692    1.9741 H   0  0  0  0  0  0  0  0  0  0  0  0
   -1.2418   10.4317    1.3523 H   0  0  0  0  0  0  0  0  0  0  0  0
   -1.9645    8.3957    0.3058 H   0  0  0  0  0  0  0  0  0  0  0  0
   -0.1120    7.5040   -1.1950 H   0  0  0  0  0  0  0  0  0  0  0  0
   -2.6862   10.6449   -0.0981 H   0  0  0  0  0  0  0  0  0  0  0  0
   -2.2854   11.4676   -1.6438 H   0  0  0  0  0  0  0  0  0  0  0  0
   -3.3677   10.0340   -1.6438 H   0  0  0  0  0  0  0  0  0  0  0  0
   -2.0015    7.6063   -1.9459 H   0  0  0  0  0  0  0  0  0  0  0  0
   -2.4579    8.9410   -3.0581 H   0  0  0  0  0  0  0  0  0  0  0  0
   -0.7772    8.3069   -3.0581 H   0  0  0  0  0  0  0  0  0  0  0  0
    3.3260   11.1862    0.2631 H   0  0  0  0  0  0  0  0  0  0  0  0
    2.9858   10.3349   -1.2817 H   0  0  0  0  0  0  0  0  0  0  0  0
    3.9728   11.8357   -1.2817 H   0  0  0  0  0  0  0  0  0  0  0  0
    1.5841   13.0558    0.9786 H   0  0  0  0  0  0  0  0  0  0  0  0
    3.0173   13.6681   -0.0243 H   0  0  0  0  0  0  0  0  0  0  0  0
    0.1110   14.4975   -0.2551 H   0  0  0  0  0  0  0  0  0  0  0  0
    1.5274   15.4859    0.2774 H   0  0  0  0  0  0  0  0  0  0  0  0
    3.4373   15.4745   -0.9522 H   0  0  0  0  0  0  0  0  0  0  0  0
    3.4984   14.5701   -2.5029 H   0  0  0  0  0  0  0  0  0  0  0  0
    3.1351   16.3292   -2.5029 H   0  0  0  0  0  0  0  0  0  0  0  0
  1  2  1  0
  2  3  1  0
  3  4  1  0
  4  5  1  0
  5  6  1  0
  6  7  1  0
  7  8  1  0
  7  9  1  0
  2 10  1  0
 10 11  1  0
 11 12  1  0
 12 13  1  0
 13 14  1  1
 13 15  1  0
 15 16  1  0
 16 17  1  0
 17 18  2  0
 18 19  1  0
 19 20  1  0
 20 21  1  0
 21 22  1  0
 22 23  1  0
 22 24  1  0
 24 25  1  0
 24 26  1  0
 19 27  1  0
 27 28  1  6
 27 29  1  0
 29 30  1  0
 30 31  1  0
 31 32  1  1
  7  5  1  0
 31 10  1  0
 31 13  1  0
 27 15  1  0
 24 18  1  0
  1 33  1  0
  1 34  1  0
  1 35  1  0
  2 36  1  1
  3 37  1  0
  3 38  1  0
  4 39  1  0
  4 40  1  0
  5 41  1  1
  8 42  1  0
  8 43  1  0
  8 44  1  0
  9 45  1  0
  9 46  1  0
  9 47  1  0
 10 48  1  1
 11 49  1  0
 11 50  1  0
 12 51  1  0
 12 52  1  0
 14 53  1  0
 14 54  1  0
 14 55  1  0
 15 56  1  6
 16 57  1  0
 16 58  1  0
 17 59  1  0
 19 60  1  1
 20 61  1  0
 20 62  1  0
 21 63  1  0
 21 64  1  0
 22 65  1  1
 23 66  1  0
 25 67  1  0
 25 68  1  0
 25 69  1  0
 26 70  1  0
 26 71  1  0
 26 72  1  0
 28 73  1  0
 28 74  1  0
 28 75  1  0
 29 76  1  0
 29 77  1  0
 30 78  1  0
 30 79  1  0
 32 80  1  0
 32 81  1  0
 32 82  1  0
M  END
>  <meeko>  (3) 
{"is_sidechain": [false], "intermolecular_energy": 2.731, "internal_energy": -0.839}

$$$$
EPH_relaxed_0001_pdb2pqr_Repair_228_r2_0001_out
     RDKit          3D

 82 86  0  0  0  0  0  0  0  0999 V2000
    0.4000   18.4750   -0.0210 C   0  0  0  0  0  0  0  0  0  0  0  0
    1.4890   17.4180   -0.2290 C   0  0  2  0  0  0  0  0  0  0  0  0
    2.7110   17.9840   -0.9800 C   0  0  0  0  0  0  0  0  0  0  0  0
    3.9410   18.1840   -0.0900 C   0  0  0  0  0  0  0  0  0  0  0  0
    3.5640   18.6680    1.2770 C   0  0  2  0  0  0  0  0  0  0  0  0
    3.8160   20.0590    1.5110 O   0  0  0  0  0  0  0  0  0  0  0  0
    4.5750   19.1350    2.3080 C   0  0  0  0  0  0  0  0  0  0  0  0
    6.0420   19.1410    2.0140 C   0  0  0  0  0  0  0  0  0  0  0  0
    4.1830   19.1210    3.7520 C   0  0  0  0  0  0  0  0  0  0  0  0
    0.9180   16.2260   -0.9860 C   0  0  1  0  0  0  0  0  0  0  0  0
    0.7680   16.5000   -2.5070 C   0  0  0  0  0  0  0  0  0  0  0  0
    1.0620   15.1620   -3.2330 C   0  0  0  0  0  0  0  0  0  0  0  0
    1.0430   14.0970   -2.1120 C   0  0  1  0  0  0  0  0  0  0  0  0
   -0.4690   13.7850   -1.8810 C   0  0  0  0  0  0  0  0  0  0  0  0
    1.8670   12.7950   -2.3810 C   0  0  2  0  0  0  0  0  0  0  0  0
    1.3910   11.9590   -3.5820 C   0  0  0  0  0  0  0  0  0  0  0  0
    0.3730   10.9130   -3.2670 C   0  0  0  0  0  0  0  0  0  0  0  0
    0.0690   10.4630   -2.0350 C   0  0  0  0  0  0  0  0  0  0  0  0
    0.8500   10.9450   -0.8060 C   0  0  1  0  0  0  0  0  0  0  0  0
    1.2280    9.7270    0.0780 C   0  0  0  0  0  0  0  0  0  0  0  0
    0.0170    8.8770    0.4520 C   0  0  0  0  0  0  0  0  0  0  0  0
   -0.6990    8.3690   -0.7970 C   0  0  2  0  0  0  0  0  0  0  0  0
    0.1600    7.4480   -1.4770 O   0  0  0  0  0  0  0  0  0  0  0  0
   -1.1190    9.5070   -1.7690 C   0  0  0  0  0  0  0  0  0  0  0  0
   -2.2720   10.3280   -1.1400 C   0  0  0  0  0  0  0  0  0  0  0  0
   -1.7020    8.8500   -3.0490 C   0  0  0  0  0  0  0  0  0  0  0  0
    2.0900   11.8930   -1.1000 C   0  0  1  0  0  0  0  0  0  0  0  0
    3.3630   11.0350   -1.3770 C   0  0  0  0  0  0  0  0  0  0  0  0
    2.4020   12.7470    0.1860 C   0  0  0  0  0  0  0  0  0  0  0  0
    1.6440   14.0800    0.3350 C   0  0  0  0  0  0  0  0  0  0  0  0
    1.7290   14.9060   -0.9520 C   0  0  2  0  0  0  0  0  0  0  0  0
    3.2370   15.2550   -1.1980 C   0  0  0  0  0  0  0  0  0  0  0  0
    0.2404   18.6299    1.0563 H   0  0  0  0  0  0  0  0  0  0  0  0
    0.7143   19.4215   -0.4850 H   0  0  0  0  0  0  0  0  0  0  0  0
   -0.5367   18.1326   -0.4850 H   0  0  0  0  0  0  0  0  0  0  0  0
    1.8328   17.0963    0.7651 H   0  0  0  0  0  0  0  0  0  0  0  0
    2.9764   17.2860   -1.7877 H   0  0  0  0  0  0  0  0  0  0  0  0
    2.4242   18.9756   -1.3602 H   0  0  0  0  0  0  0  0  0  0  0  0
    4.4716   17.2252    0.0052 H   0  0  0  0  0  0  0  0  0  0  0  0
    4.5825   18.9452   -0.5581 H   0  0  0  0  0  0  0  0  0  0  0  0
    2.7366   17.9451    1.3297 H   0  0  0  0  0  0  0  0  0  0  0  0
    6.6053   19.1433    2.9588 H   0  0  0  0  0  0  0  0  0  0  0  0
    6.3033   18.2439    1.4335 H   0  0  0  0  0  0  0  0  0  0  0  0
    6.2959   20.0402    1.4335 H   0  0  0  0  0  0  0  0  0  0  0  0
    5.0871   19.1533    4.3777 H   0  0  0  0  0  0  0  0  0  0  0  0
    3.5548   19.9973    3.9699 H   0  0  0  0  0  0  0  0  0  0  0  0
    3.6189   18.2021    3.9699 H   0  0  0  0  0  0  0  0  0  0  0  0
   -0.0294   16.0993   -0.4416 H   0  0  0  0  0  0  0  0  0  0  0  0
   -0.2547   16.8366   -2.7323 H   0  0  0  0  0  0  0  0  0  0  0  0
    1.4601   17.2889   -2.8366 H   0  0  0  0  0  0  0  0  0  0  0  0
    0.2868   14.9492   -3.9839 H   0  0  0  0  0  0  0  0  0  0  0  0
    2.0203   15.1823   -3.7727 H   0  0  0  0  0  0  0  0  0  0  0  0
   -0.6738   13.7427   -0.8011 H   0  0  0  0  0  0  0  0  0  0  0  0
   -1.0808   14.5758   -2.3396 H   0  0  0  0  0  0  0  0  0  0  0  0
   -0.7178   12.8166   -2.3396 H   0  0  0  0  0  0  0  0  0  0  0  0
    2.8521   13.1930   -2.6658 H   0  0  0  0  0  0  0  0  0  0  0  0
    0.9551   12.6455   -4.3227 H   0  0  0  0  0  0  0  0  0  0  0  0
    2.2774   11.4206   -3.9487 H   0  0  0  0  0  0  0  0  0  0  0  0
   -0.1750   10.4728   -4.1132 H   0  0  0  0  0  0  0  0  0  0  0  0
    0.1685   11.6096   -0.2547 H   0  0  0  0  0  0  0  0  0  0  0  0
    1.9427    9.0989   -0.4740 H   0  0  0  0  0  0  0  0  0  0  0  0
    1.6650   10.1140    1.0103 H   0  0  0  0  0  0  0  0  0  0  0  0
    0.3518    8.0167    1.0501 H   0  0  0  0  0  0  0  0  0  0  0  0
   -0.6831    9.4980    1.0302 H   0  0  0  0  0  0  0  0  0  0  0  0
   -1.6277    7.8792   -0.4689 H   0  0  0  0  0  0  0  0  0  0  0  0
    0.7220    7.9610   -2.0810 H   0  0  0  0  0  0  0  0  0  0  0  0
   -2.2019   10.2781   -0.0434 H   0  0  0  0  0  0  0  0  0  0  0  0
   -2.1955   11.3761   -1.4650 H   0  0  0  0  0  0  0  0  0  0  0  0
   -3.2374    9.9129   -1.4650 H   0  0  0  0  0  0  0  0  0  0  0  0
   -2.4073    8.0552   -2.7645 H   0  0  0  0  0  0  0  0  0  0  0  0
   -2.2277    9.6107   -3.6447 H   0  0  0  0  0  0  0  0  0  0  0  0
   -0.8841    8.4185   -3.6447 H   0  0  0  0  0  0  0  0  0  0  0  0
    3.8149   10.7304   -0.4215 H   0  0  0  0  0  0  0  0  0  0  0  0
    3.0839   10.1400   -1.9524 H   0  0  0  0  0  0  0  0  0  0  0  0
    4.0878   11.6296   -1.9524 H   0  0  0  0  0  0  0  0  0  0  0  0
    2.1621   12.1279    1.0630 H   0  0  0  0  0  0  0  0  0  0  0  0
    3.4619   13.0270    0.0956 H   0  0  0  0  0  0  0  0  0  0  0  0
    0.5876   13.8702    0.5588 H   0  0  0  0  0  0  0  0  0  0  0  0
    2.1038   14.6554    1.1520 H   0  0  0  0  0  0  0  0  0  0  0  0
    3.7484   15.3734   -0.2313 H   0  0  0  0  0  0  0  0  0  0  0  0
    3.7130   14.4433   -1.7677 H   0  0  0  0  0  0  0  0  0  0  0  0
    3.3080   16.1933   -1.7677 H   0  0  0  0  0  0  0  0  0  0  0  0
  1  2  1  0
  2  3  1  0
  3  4  1  0
  4  5  1  0
  5  6  1  0
  6  7  1  0
  7  8  1  0
  7  9  1  0
  2 10  1  0
 10 11  1  0
 11 12  1  0
 12 13  1  0
 13 14  1  1
 13 15  1  0
 15 16  1  0
 16 17  1  0
 17 18  2  0
 18 19  1  0
 19 20  1  0
 20 21  1  0
 21 22  1  0
 22 23  1  0
 22 24  1  0
 24 25  1  0
 24 26  1  0
 19 27  1  0
 27 28  1  6
 27 29  1  0
 29 30  1  0
 30 31  1  0
 31 32  1  6
  7  5  1  0
 31 10  1  0
 31 13  1  0
 27 15  1  0
 24 18  1  0
  1 33  1  0
  1 34  1  0
  1 35  1  0
  2 36  1  1
  3 37  1  0
  3 38  1  0
  4 39  1  0
  4 40  1  0
  5 41  1  1
  8 42  1  0
  8 43  1  0
  8 44  1  0
  9 45  1  0
  9 46  1  0
  9 47  1  0
 10 48  1  1
 11 49  1  0
 11 50  1  0
 12 51  1  0
 12 52  1  0
 14 53  1  0
 14 54  1  0
 14 55  1  0
 15 56  1  6
 16 57  1  0
 16 58  1  0
 17 59  1  0
 19 60  1  1
 20 61  1  0
 20 62  1  0
 21 63  1  0
 21 64  1  0
 22 65  1  1
 23 66  1  0
 25 67  1  0
 25 68  1  0
 25 69  1  0
 26 70  1  0
 26 71  1  0
 26 72  1  0
 28 73  1  0
 28 74  1  0
 28 75  1  0
 29 76  1  0
 29 77  1  0
 30 78  1  0
 30 79  1  0
 32 80  1  0
 32 81  1  0
 32 82  1  0
M  END
>  <meeko>  (4) 
{"is_sidechain": [false], "intermolecular_energy": 2.731, "internal_energy": -0.839}

$$$$
EPH_relaxed_0001_pdb2pqr_Repair_228_r2_0001_out
     RDKit          3D

 82 86  0  0  0  0  0  0  0  0999 V2000
    3.6960   17.9670    0.7350 C   0  0  0  0  0  0  0  0  0  0  0  0
    2.6740   18.3830   -0.3260 C   0  0  2  0  0  0  0  0  0  0  0  0
    1.9290   19.6770    0.0590 C   0  0  0  0  0  0  0  0  0  0  0  0
    0.7320   19.4450    0.9850 C   0  0  0  0  0  0  0  0  0  0  0  0
   -0.5160   20.0770    0.4470 C   0  0  2  0  0  0  0  0  0  0  0  0
   -1.5850   20.1930    1.3940 O   0  0  0  0  0  0  0  0  0  0  0  0
   -1.8240   19.3280    0.2720 C   0  0  0  0  0  0  0  0  0  0  0  0
   -1.9490   17.8810    0.6340 C   0  0  0  0  0  0  0  0  0  0  0  0
   -2.8310   19.8630   -0.6980 C   0  0  0  0  0  0  0  0  0  0  0  0
    1.6740   17.2550   -0.5550 C   0  0  1  0  0  0  0  0  0  0  0  0
    0.4670   17.6940   -1.4250 C   0  0  0  0  0  0  0  0  0  0  0  0
    0.0670   16.4690   -2.2870 C   0  0  0  0  0  0  0  0  0  0  0  0
    0.8300   15.2820   -1.6550 C   0  0  1  0  0  0  0  0  0  0  0  0
   -0.0350   14.8580   -0.4260 C   0  0  0  0  0  0  0  0  0  0  0  0
    1.1260   14.0700   -2.5970 C   0  0  2  0  0  0  0  0  0  0  0  0
   -0.1180   13.3520   -3.1480 C   0  0  0  0  0  0  0  0  0  0  0  0
   -0.6220   12.2200   -2.3150 C   0  0  0  0  0  0  0  0  0  0  0  0
    0.0590   11.6130   -1.3260 C   0  0  0  0  0  0  0  0  0  0  0  0
    1.5140   11.9940   -1.0230 C   0  0  1  0  0  0  0  0  0  0  0  0
    2.3630   10.7050   -0.8590 C   0  0  0  0  0  0  0  0  0  0  0  0
    1.7810    9.7500    0.1780 C   0  0  0  0  0  0  0  0  0  0  0  0
    0.3550    9.3490   -0.1880 C   0  0  2  0  0  0  0  0  0  0  0  0
    0.3900    8.5640   -1.3850 O   0  0  0  0  0  0  0  0  0  0  0  0
   -0.5910   10.5660   -0.3890 C   0  0  0  0  0  0  0  0  0  0  0  0
   -0.8680   11.2410    0.9770 C   0  0  0  0  0  0  0  0  0  0  0  0
   -1.9580   10.0290   -0.8930 C   0  0  0  0  0  0  0  0  0  0  0  0
    2.1790   13.0400   -2.0170 C   0  0  1  0  0  0  0  0  0  0  0  0
    2.7930   12.2950   -3.2410 C   0  0  0  0  0  0  0  0  0  0  0  0
    3.3760   13.7550   -1.2860 C   0  0  0  0  0  0  0  0  0  0  0  0
    3.0370   15.0160   -0.4680 C   0  0  0  0  0  0  0  0  0  0  0  0
    2.1850   15.9900   -1.2890 C   0  0  2  0  0  0  0  0  0  0  0  0
    3.0380   16.4500   -2.5200 C   0  0  0  0  0  0  0  0  0  0  0  0
    3.2750   18.1384    1.7367 H   0  0  0  0  0  0  0  0  0  0  0  0
    3.9351   16.9000    0.6154 H   0  0  0  0  0  0  0  0  0  0  0  0
    4.6123   18.5637    0.6154 H   0  0  0  0  0  0  0  0  0  0  0  0
    3.2267   18.5851   -1.2554 H   0  0  0  0  0  0  0  0  0  0  0  0
    2.6372   20.3473    0.5681 H   0  0  0  0  0  0  0  0  0  0  0  0
    1.5360   20.1112   -0.8722 H   0  0  0  0  0  0  0  0  0  0  0  0
    0.5668   18.3625    1.0896 H   0  0  0  0  0  0  0  0  0  0  0  0
    0.9572   19.9054    1.9583 H   0  0  0  0  0  0  0  0  0  0  0  0
    0.0704   20.7080   -0.2371 H   0  0  0  0  0  0  0  0  0  0  0  0
   -1.9580   17.7764    1.7290 H   0  0  0  0  0  0  0  0  0  0  0  0
   -2.8852   17.4789    0.2195 H   0  0  0  0  0  0  0  0  0  0  0  0
   -1.0956   17.3243    0.2195 H   0  0  0  0  0  0  0  0  0  0  0  0
   -3.6711   20.3093   -0.1456 H   0  0  0  0  0  0  0  0  0  0  0  0
   -2.3595   20.6296   -1.3306 H   0  0  0  0  0  0  0  0  0  0  0  0
   -3.2023   19.0432   -1.3306 H   0  0  0  0  0  0  0  0  0  0  0  0
    1.4288   17.0115    0.4893 H   0  0  0  0  0  0  0  0  0  0  0  0
   -0.3733   17.9954   -0.7823 H   0  0  0  0  0  0  0  0  0  0  0  0
    0.7294   18.5539   -2.0589 H   0  0  0  0  0  0  0  0  0  0  0  0
   -1.0191   16.3006   -2.2422 H   0  0  0  0  0  0  0  0  0  0  0  0
    0.3163   16.6071   -3.3495 H   0  0  0  0  0  0  0  0  0  0  0  0
    0.4948   15.1177    0.5024 H   0  0  0  0  0  0  0  0  0  0  0  0
   -0.9999   15.3853   -0.4573 H   0  0  0  0  0  0  0  0  0  0  0  0
   -0.2093   13.7723   -0.4573 H   0  0  0  0  0  0  0  0  0  0  0  0
    1.5983   14.5554   -3.4638 H   0  0  0  0  0  0  0  0  0  0  0  0
   -0.9258   14.0931   -3.2390 H   0  0  0  0  0  0  0  0  0  0  0  0
    0.1856   12.9112   -4.1090 H   0  0  0  0  0  0  0  0  0  0  0  0
   -1.6361   11.8510   -2.5279 H   0  0  0  0  0  0  0  0  0  0  0  0
    1.4913   12.5500   -0.0742 H   0  0  0  0  0  0  0  0  0  0  0  0
    2.4092   10.1874   -1.8285 H   0  0  0  0  0  0  0  0  0  0  0  0
    3.3629   11.0053   -0.5126 H   0  0  0  0  0  0  0  0  0  0  0  0
    2.4073    8.8470    0.2271 H   0  0  0  0  0  0  0  0  0  0  0  0
    1.7627   10.2596    1.1527 H   0  0  0  0  0  0  0  0  0  0  0  0
   -0.0521    8.7711    0.6548 H   0  0  0  0  0  0  0  0  0  0  0  0
   -0.5150    8.5280   -1.7390 H   0  0  0  0  0  0  0  0  0  0  0  0
   -0.5863   10.5545    1.7890 H   0  0  0  0  0  0  0  0  0  0  0  0
   -0.2763   12.1649    1.0561 H   0  0  0  0  0  0  0  0  0  0  0  0
   -1.9381   11.4830    1.0561 H   0  0  0  0  0  0  0  0  0  0  0  0
   -2.5941    9.7791   -0.0311 H   0  0  0  0  0  0  0  0  0  0  0  0
   -2.4525   10.7997   -1.5025 H   0  0  0  0  0  0  0  0  0  0  0  0
   -1.7958    9.1278   -1.5025 H   0  0  0  0  0  0  0  0  0  0  0  0
    3.4553   11.4914   -2.8866 H   0  0  0  0  0  0  0  0  0  0  0  0
    1.9854   11.8627   -3.8500 H   0  0  0  0  0  0  0  0  0  0  0  0
    3.3716   13.0052   -3.8500 H   0  0  0  0  0  0  0  0  0  0  0  0
    3.8304   13.0253   -0.5996 H   0  0  0  0  0  0  0  0  0  0  0  0
    4.0382   14.1042   -2.0920 H   0  0  0  0  0  0  0  0  0  0  0  0
    2.4790   14.7212    0.4330 H   0  0  0  0  0  0  0  0  0  0  0  0
    3.9761   15.5181   -0.1923 H   0  0  0  0  0  0  0  0  0  0  0  0
    3.9549   16.9444   -2.1666 H   0  0  0  0  0  0  0  0  0  0  0  0
    3.3053   15.5737   -3.1289 H   0  0  0  0  0  0  0  0  0  0  0  0
    2.4527   17.1548   -3.1289 H   0  0  0  0  0  0  0  0  0  0  0  0
  1  2  1  0
  2  3  1  0
  3  4  1  0
  4  5  1  0
  5  6  1  0
  6  7  1  0
  7  8  1  0
  7  9  1  0
  2 10  1  0
 10 11  1  0
 11 12  1  0
 12 13  1  0
 13 14  1  1
 13 15  1  0
 15 16  1  0
 16 17  1  0
 17 18  2  0
 18 19  1  0
 19 20  1  0
 20 21  1  0
 21 22  1  0
 22 23  1  0
 22 24  1  0
 24 25  1  0
 24 26  1  0
 19 27  1  0
 27 28  1  6
 27 29  1  0
 29 30  1  0
 30 31  1  0
 31 32  1  6
  7  5  1  0
 31 10  1  0
 31 13  1  0
 27 15  1  0
 24 18  1  0
  1 33  1  0
  1 34  1  0
  1 35  1  0
  2 36  1  6
  3 37  1  0
  3 38  1  0
  4 39  1  0
  4 40  1  0
  5 41  1  6
  8 42  1  0
  8 43  1  0
  8 44  1  0
  9 45  1  0
  9 46  1  0
  9 47  1  0
 10 48  1  1
 11 49  1  0
 11 50  1  0
 12 51  1  0
 12 52  1  0
 14 53  1  0
 14 54  1  0
 14 55  1  0
 15 56  1  6
 16 57  1  0
 16 58  1  0
 17 59  1  0
 19 60  1  1
 20 61  1  0
 20 62  1  0
 21 63  1  0
 21 64  1  0
 22 65  1  1
 23 66  1  0
 25 67  1  0
 25 68  1  0
 25 69  1  0
 26 70  1  0
 26 71  1  0
 26 72  1  0
 28 73  1  0
 28 74  1  0
 28 75  1  0
 29 76  1  0
 29 77  1  0
 30 78  1  0
 30 79  1  0
 32 80  1  0
 32 81  1  0
 32 82  1  0
M  END
>  <meeko>  (5) 
{"is_sidechain": [false], "intermolecular_energy": 2.731, "internal_energy": -0.839}

$$$$
EPH_relaxed_0001_pdb2pqr_Repair_228_r2_0001_out
     RDKit          3D

 82 86  0  0  0  0  0  0  0  0999 V2000
   -5.2420    5.8190   -1.7000 C   0  0  0  0  0  0  0  0  0  0  0  0
   -5.4940    7.3190   -1.8730 C   0  0  2  0  0  0  0  0  0  0  0  0
   -5.2060    8.1100   -0.5810 C   0  0  0  0  0  0  0  0  0  0  0  0
   -4.2290    9.2720   -0.7760 C   0  0  0  0  0  0  0  0  0  0  0  0
   -2.8310    8.8910   -0.3950 C   0  0  2  0  0  0  0  0  0  0  0  0
   -2.2740    9.6550    0.6830 O   0  0  0  0  0  0  0  0  0  0  0  0
   -1.6320    9.7990   -0.5940 C   0  0  0  0  0  0  0  0  0  0  0  0
   -1.7770   11.1610   -1.1970 C   0  0  0  0  0  0  0  0  0  0  0  0
   -0.2700    9.1830   -0.6560 C   0  0  0  0  0  0  0  0  0  0  0  0
   -6.9320    7.5560   -2.3190 C   0  0  1  0  0  0  0  0  0  0  0  0
   -7.2620    6.8610   -3.6670 C   0  0  0  0  0  0  0  0  0  0  0  0
   -8.7390    6.4000   -3.5830 C   0  0  0  0  0  0  0  0  0  0  0  0
   -9.3050    7.1280   -2.3420 C   0  0  1  0  0  0  0  0  0  0  0  0
   -9.6510    8.5650   -2.8420 C   0  0  0  0  0  0  0  0  0  0  0  0
  -10.5280    6.4510   -1.6410 C   0  0  2  0  0  0  0  0  0  0  0  0
  -11.7940    6.3340   -2.5080 C   0  0  0  0  0  0  0  0  0  0  0  0
  -12.7380    7.4870   -2.4170 C   0  0  0  0  0  0  0  0  0  0  0  0
  -12.7220    8.4370   -1.4640 C   0  0  0  0  0  0  0  0  0  0  0  0
  -11.7440    8.3540   -0.2860 C   0  0  1  0  0  0  0  0  0  0  0  0
  -12.5010    8.6420    1.0370 C   0  0  0  0  0  0  0  0  0  0  0  0
  -13.2610    9.9640    1.0010 C   0  0  0  0  0  0  0  0  0  0  0  0
  -14.2650    9.9860   -0.1480 C   0  0  2  0  0  0  0  0  0  0  0  0
  -15.2870    9.0190    0.1140 O   0  0  0  0  0  0  0  0  0  0  0  0
  -13.6180    9.6990   -1.5320 C   0  0  0  0  0  0  0  0  0  0  0  0
  -12.7350   10.9000   -1.9530 C   0  0  0  0  0  0  0  0  0  0  0  0
  -14.7570    9.6090   -2.5830 C   0  0  0  0  0  0  0  0  0  0  0  0
  -10.8610    7.0350   -0.2090 C   0  0  1  0  0  0  0  0  0  0  0  0
  -11.6350    5.9200    0.5590 C   0  0  0  0  0  0  0  0  0  0  0  0
   -9.5630    7.3340    0.6310 C   0  0  0  0  0  0  0  0  0  0  0  0
   -8.3490    7.8890   -0.1380 C   0  0  0  0  0  0  0  0  0  0  0  0
   -8.0600    7.0490   -1.3860 C   0  0  2  0  0  0  0  0  0  0  0  0
   -7.6870    5.6030   -0.9120 C   0  0  0  0  0  0  0  0  0  0  0  0
   -5.2011    5.5753   -0.6281 H   0  0  0  0  0  0  0  0  0  0  0  0
   -6.0577    5.2531   -2.1738 H   0  0  0  0  0  0  0  0  0  0  0  0
   -4.2862    5.5507   -2.1738 H   0  0  0  0  0  0  0  0  0  0  0  0
   -4.8000    7.6840   -2.6445 H   0  0  0  0  0  0  0  0  0  0  0  0
   -6.1562    8.5149   -0.2026 H   0  0  0  0  0  0  0  0  0  0  0  0
   -4.7366    7.4105    0.1264 H   0  0  0  0  0  0  0  0  0  0  0  0
   -4.2405    9.5736   -1.8338 H   0  0  0  0  0  0  0  0  0  0  0  0
   -4.5476   10.1004   -0.1262 H   0  0  0  0  0  0  0  0  0  0  0  0
   -3.0168    7.8428   -0.6721 H   0  0  0  0  0  0  0  0  0  0  0  0
   -1.8568   11.9102   -0.3956 H   0  0  0  0  0  0  0  0  0  0  0  0
   -0.8973   11.3820   -1.8193 H   0  0  0  0  0  0  0  0  0  0  0  0
   -2.6835   11.1919   -1.8193 H   0  0  0  0  0  0  0  0  0  0  0  0
    0.1030    9.0143    0.3650 H   0  0  0  0  0  0  0  0  0  0  0  0
   -0.3259    8.2225   -1.1893 H   0  0  0  0  0  0  0  0  0  0  0  0
    0.4143    9.8592   -1.1893 H   0  0  0  0  0  0  0  0  0  0  0  0
   -6.9353    8.6556   -2.3502 H   0  0  0  0  0  0  0  0  0  0  0  0
   -7.1328    7.5684   -4.4994 H   0  0  0  0  0  0  0  0  0  0  0  0
   -6.5916    6.0074   -3.8456 H   0  0  0  0  0  0  0  0  0  0  0  0
   -9.2893    6.6927   -4.4894 H   0  0  0  0  0  0  0  0  0  0  0  0
   -8.8308    5.3067   -3.5032 H   0  0  0  0  0  0  0  0  0  0  0  0
   -9.8101    9.2258   -1.9771 H   0  0  0  0  0  0  0  0  0  0  0  0
   -8.8202    8.9514   -3.4507 H   0  0  0  0  0  0  0  0  0  0  0  0
  -10.5666    8.5309   -3.4507 H   0  0  0  0  0  0  0  0  0  0  0  0
  -10.1719    5.4213   -1.4900 H   0  0  0  0  0  0  0  0  0  0  0  0
  -11.4793    6.2343   -3.5573 H   0  0  0  0  0  0  0  0  0  0  0  0
  -12.3434    5.4601   -2.1279 H   0  0  0  0  0  0  0  0  0  0  0  0
  -13.5120    7.5667   -3.1946 H   0  0  0  0  0  0  0  0  0  0  0  0
  -10.9896    9.1349   -0.4620 H   0  0  0  0  0  0  0  0  0  0  0  0
  -13.2184    7.8278    1.2170 H   0  0  0  0  0  0  0  0  0  0  0  0
  -11.7535    8.7087    1.8413 H   0  0  0  0  0  0  0  0  0  0  0  0
  -13.7989   10.0958    1.9514 H   0  0  0  0  0  0  0  0  0  0  0  0
  -12.5385   10.7798    0.8510 H   0  0  0  0  0  0  0  0  0  0  0  0
  -14.6832   11.0020   -0.2011 H   0  0  0  0  0  0  0  0  0  0  0  0
  -15.4470    8.5280   -0.7090 H   0  0  0  0  0  0  0  0  0  0  0  0
  -12.3590   11.4114   -1.0546 H   0  0  0  0  0  0  0  0  0  0  0  0
  -11.8858   10.5387   -2.5517 H   0  0  0  0  0  0  0  0  0  0  0  0
  -13.3331   11.6028   -2.5517 H   0  0  0  0  0  0  0  0  0  0  0  0
  -15.7260    9.5324   -2.0680 H   0  0  0  0  0  0  0  0  0  0  0  0
  -14.7468   10.5108   -3.2129 H   0  0  0  0  0  0  0  0  0  0  0  0
  -14.6053    8.7200   -3.2129 H   0  0  0  0  0  0  0  0  0  0  0  0
  -11.5257    6.0774    1.6422 H   0  0  0  0  0  0  0  0  0  0  0  0
  -12.7004    5.9602    0.2883 H   0  0  0  0  0  0  0  0  0  0  0  0
  -11.2248    4.9359    0.2883 H   0  0  0  0  0  0  0  0  0  0  0  0
   -9.8299    8.0680    1.4056 H   0  0  0  0  0  0  0  0  0  0  0  0
   -9.2374    6.3558    1.0145 H   0  0  0  0  0  0  0  0  0  0  0  0
   -8.5587    8.9251   -0.4422 H   0  0  0  0  0  0  0  0  0  0  0  0
   -7.4693    7.8519    0.5213 H   0  0  0  0  0  0  0  0  0  0  0  0
   -7.6781    5.5684    0.1874 H   0  0  0  0  0  0  0  0  0  0  0  0
   -8.4302    4.8883   -1.2953 H   0  0  0  0  0  0  0  0  0  0  0  0
   -6.6908    5.3370   -1.2953 H   0  0  0  0  0  0  0  0  0  0  0  0
  1  2  1  0
  2  3  1  0
  3  4  1  0
  4  5  1  0
  5  6  1  0
  6  7  1  0
  7  8  1  0
  7  9  1  0
  2 10  1  0
 10 11  1  0
 11 12  1  0
 12 13  1  0
 13 14  1  6
 13 15  1  0
 15 16  1  0
 16 17  1  0
 17 18  2  0
 18 19  1  0
 19 20  1  0
 20 21  1  0
 21 22  1  0
 22 23  1  0
 22 24  1  0
 24 25  1  0
 24 26  1  0
 19 27  1  0
 27 28  1  1
 27 29  1  0
 29 30  1  0
 30 31  1  0
 31 32  1  1
  7  5  1  0
 31 10  1  0
 31 13  1  0
 27 15  1  0
 24 18  1  0
  1 33  1  0
  1 34  1  0
  1 35  1  0
  2 36  1  6
  3 37  1  0
  3 38  1  0
  4 39  1  0
  4 40  1  0
  5 41  1  1
  8 42  1  0
  8 43  1  0
  8 44  1  0
  9 45  1  0
  9 46  1  0
  9 47  1  0
 10 48  1  6
 11 49  1  0
 11 50  1  0
 12 51  1  0
 12 52  1  0
 14 53  1  0
 14 54  1  0
 14 55  1  0
 15 56  1  1
 16 57  1  0
 16 58  1  0
 17 59  1  0
 19 60  1  6
 20 61  1  0
 20 62  1  0
 21 63  1  0
 21 64  1  0
 22 65  1  6
 23 66  1  0
 25 67  1  0
 25 68  1  0
 25 69  1  0
 26 70  1  0
 26 71  1  0
 26 72  1  0
 28 73  1  0
 28 74  1  0
 28 75  1  0
 29 76  1  0
 29 77  1  0
 30 78  1  0
 30 79  1  0
 32 80  1  0
 32 81  1  0
 32 82  1  0
M  END
>  <meeko>  (6) 
{"is_sidechain": [false], "intermolecular_energy": 2.731, "internal_energy": -0.839}

$$$$
EPH_relaxed_0001_pdb2pqr_Repair_228_r2_0001_out
     RDKit          3D

 82 86  0  0  0  0  0  0  0  0999 V2000
    0.4140    8.8590   -2.5320 C   0  0  0  0  0  0  0  0  0  0  0  0
    1.1780   10.0200   -3.1760 C   0  0  2  0  0  0  0  0  0  0  0  0
    2.6700   10.0190   -2.7890 C   0  0  0  0  0  0  0  0  0  0  0  0
    3.5840   10.6220   -3.8590 C   0  0  0  0  0  0  0  0  0  0  0  0
    4.9770   10.8300   -3.3460 C   0  0  2  0  0  0  0  0  0  0  0  0
    5.5940   12.0530   -3.7680 O   0  0  0  0  0  0  0  0  0  0  0  0
    6.2040   10.8390   -4.2390 C   0  0  0  0  0  0  0  0  0  0  0  0
    6.0950   10.6370   -5.7170 C   0  0  0  0  0  0  0  0  0  0  0  0
    7.5390   10.5570   -3.6220 C   0  0  0  0  0  0  0  0  0  0  0  0
    0.5380   11.3460   -2.7810 C   0  0  1  0  0  0  0  0  0  0  0  0
   -0.8380   11.1610   -2.0860 C   0  0  0  0  0  0  0  0  0  0  0  0
   -0.9530   12.2790   -1.0180 C   0  0  0  0  0  0  0  0  0  0  0  0
    0.1950   13.2590   -1.3540 C   0  0  1  0  0  0  0  0  0  0  0  0
   -0.3570   14.1410   -2.5180 C   0  0  0  0  0  0  0  0  0  0  0  0
    0.7260   14.1330   -0.1710 C   0  0  2  0  0  0  0  0  0  0  0  0
   -0.3040   15.0960    0.4430 C   0  0  0  0  0  0  0  0  0  0  0  0
   -0.3500   16.4560   -0.1710 C   0  0  0  0  0  0  0  0  0  0  0  0
    0.5900   16.9830   -0.9770 C   0  0  0  0  0  0  0  0  0  0  0  0
    1.8910   16.2250   -1.2690 C   0  0  1  0  0  0  0  0  0  0  0  0
    3.0970   17.1900   -1.1210 C   0  0  0  0  0  0  0  0  0  0  0  0
    2.9490   18.4460   -1.9750 C   0  0  0  0  0  0  0  0  0  0  0  0
    1.6730   19.2030   -1.6150 C   0  0  2  0  0  0  0  0  0  0  0  0
    1.8000   19.7150   -0.2850 O   0  0  0  0  0  0  0  0  0  0  0  0
    0.3920   18.3280   -1.7180 C   0  0  0  0  0  0  0  0  0  0  0  0
    0.0880   18.0240   -3.2060 C   0  0  0  0  0  0  0  0  0  0  0  0
   -0.8040   19.1690   -1.1940 C   0  0  0  0  0  0  0  0  0  0  0  0
    2.0960   14.8660   -0.4710 C   0  0  1  0  0  0  0  0  0  0  0  0
    2.7580   15.1550    0.9110 C   0  0  0  0  0  0  0  0  0  0  0  0
    3.1040   13.9510   -1.2630 C   0  0  0  0  0  0  0  0  0  0  0  0
    2.5030   13.0240   -2.3370 C   0  0  0  0  0  0  0  0  0  0  0  0
    1.3120   12.2380   -1.7790 C   0  0  2  0  0  0  0  0  0  0  0  0
    1.8420   11.3260   -0.6210 C   0  0  0  0  0  0  0  0  0  0  0  0
    0.4708    8.9453   -1.4369 H   0  0  0  0  0  0  0  0  0  0  0  0
   -0.6390    8.8927   -2.8483 H   0  0  0  0  0  0  0  0  0  0  0  0
    0.8615    7.9053   -2.8483 H   0  0  0  0  0  0  0  0  0  0  0  0
    1.1201    9.8896   -4.2667 H   0  0  0  0  0  0  0  0  0  0  0  0
    2.7889   10.6005   -1.8629 H   0  0  0  0  0  0  0  0  0  0  0  0
    2.9694    8.9677   -2.6659 H   0  0  0  0  0  0  0  0  0  0  0  0
    3.6200    9.9408   -4.7220 H   0  0  0  0  0  0  0  0  0  0  0  0
    3.1749   11.6018   -4.1466 H   0  0  0  0  0  0  0  0  0  0  0  0
    4.7428   10.2852   -2.4195 H   0  0  0  0  0  0  0  0  0  0  0  0
    5.5816    9.6856   -5.9202 H   0  0  0  0  0  0  0  0  0  0  0  0
    5.5212   11.4649   -6.1589 H   0  0  0  0  0  0  0  0  0  0  0  0
    7.1020   10.6119   -6.1589 H   0  0  0  0  0  0  0  0  0  0  0  0
    7.4478   10.5763   -2.5260 H   0  0  0  0  0  0  0  0  0  0  0  0
    7.8893    9.5650   -3.9434 H   0  0  0  0  0  0  0  0  0  0  0  0
    8.2606   11.3225   -3.9434 H   0  0  0  0  0  0  0  0  0  0  0  0
    0.4987   11.8332   -3.7664 H   0  0  0  0  0  0  0  0  0  0  0  0
   -1.6500   11.2552   -2.8221 H   0  0  0  0  0  0  0  0  0  0  0  0
   -0.9175   10.1651   -1.6257 H   0  0  0  0  0  0  0  0  0  0  0  0
   -1.9277   12.7841   -1.0879 H   0  0  0  0  0  0  0  0  0  0  0  0
   -0.8795   11.8861    0.0068 H   0  0  0  0  0  0  0  0  0  0  0  0
   -0.8968   15.0036   -2.1002 H   0  0  0  0  0  0  0  0  0  0  0  0
    0.4798   14.4969   -3.1370 H   0  0  0  0  0  0  0  0  0  0  0  0
   -1.0429   13.5439   -3.1370 H   0  0  0  0  0  0  0  0  0  0  0  0
    0.9297   13.3804    0.6049 H   0  0  0  0  0  0  0  0  0  0  0  0
   -1.3000   14.6413    0.3370 H   0  0  0  0  0  0  0  0  0  0  0  0
    0.0033   15.2443    1.4887 H   0  0  0  0  0  0  0  0  0  0  0  0
   -1.2270   17.0805    0.0546 H   0  0  0  0  0  0  0  0  0  0  0  0
    1.8143   15.8799   -2.3107 H   0  0  0  0  0  0  0  0  0  0  0  0
    3.1821   17.4889   -0.0658 H   0  0  0  0  0  0  0  0  0  0  0  0
    3.9958   16.6566   -1.4641 H   0  0  0  0  0  0  0  0  0  0  0  0
    3.8163   19.1010   -1.8053 H   0  0  0  0  0  0  0  0  0  0  0  0
    2.8938   18.1474   -3.0322 H   0  0  0  0  0  0  0  0  0  0  0  0
    1.5560   20.0178   -2.3446 H   0  0  0  0  0  0  0  0  0  0  0  0
    2.6700   20.1440   -0.2170 H   0  0  0  0  0  0  0  0  0  0  0  0
   -0.6885   17.2475   -3.2704 H   0  0  0  0  0  0  0  0  0  0  0  0
   -0.2668   18.9394   -3.7022 H   0  0  0  0  0  0  0  0  0  0  0  0
    1.0034   17.6692   -3.7022 H   0  0  0  0  0  0  0  0  0  0  0  0
   -0.8001   19.1663   -0.0940 H   0  0  0  0  0  0  0  0  0  0  0  0
   -0.7128   20.2029   -1.5584 H   0  0  0  0  0  0  0  0  0  0  0  0
   -1.7461   18.7335   -1.5584 H   0  0  0  0  0  0  0  0  0  0  0  0
    2.0713   14.8552    1.7164 H   0  0  0  0  0  0  0  0  0  0  0  0
    3.6942   14.5837    0.9958 H   0  0  0  0  0  0  0  0  0  0  0  0
    2.9755   16.2299    0.9958 H   0  0  0  0  0  0  0  0  0  0  0  0
    3.8310   14.6096   -1.7607 H   0  0  0  0  0  0  0  0  0  0  0  0
    3.5348   13.2764   -0.5084 H   0  0  0  0  0  0  0  0  0  0  0  0
    2.1653   13.6321   -3.1891 H   0  0  0  0  0  0  0  0  0  0  0  0
    3.2761   12.3096   -2.6561 H   0  0  0  0  0  0  0  0  0  0  0  0
    1.5808   11.7754    0.3484 H   0  0  0  0  0  0  0  0  0  0  0  0
    1.3821   10.3298   -0.6991 H   0  0  0  0  0  0  0  0  0  0  0  0
    2.9352   11.2324   -0.6991 H   0  0  0  0  0  0  0  0  0  0  0  0
  1  2  1  0
  2  3  1  0
  3  4  1  0
  4  5  1  0
  5  6  1  0
  6  7  1  0
  7  8  1  0
  7  9  1  0
  2 10  1  0
 10 11  1  0
 11 12  1  0
 12 13  1  0
 13 14  1  6
 13 15  1  0
 15 16  1  0
 16 17  1  0
 17 18  2  0
 18 19  1  0
 19 20  1  0
 20 21  1  0
 21 22  1  0
 22 23  1  0
 22 24  1  0
 24 25  1  0
 24 26  1  0
 19 27  1  0
 27 28  1  1
 27 29  1  0
 29 30  1  0
 30 31  1  0
 31 32  1  1
  7  5  1  0
 31 10  1  0
 31 13  1  0
 27 15  1  0
 24 18  1  0
  1 33  1  0
  1 34  1  0
  1 35  1  0
  2 36  1  6
  3 37  1  0
  3 38  1  0
  4 39  1  0
  4 40  1  0
  5 41  1  1
  8 42  1  0
  8 43  1  0
  8 44  1  0
  9 45  1  0
  9 46  1  0
  9 47  1  0
 10 48  1  6
 11 49  1  0
 11 50  1  0
 12 51  1  0
 12 52  1  0
 14 53  1  0
 14 54  1  0
 14 55  1  0
 15 56  1  1
 16 57  1  0
 16 58  1  0
 17 59  1  0
 19 60  1  6
 20 61  1  0
 20 62  1  0
 21 63  1  0
 21 64  1  0
 22 65  1  6
 23 66  1  0
 25 67  1  0
 25 68  1  0
 25 69  1  0
 26 70  1  0
 26 71  1  0
 26 72  1  0
 28 73  1  0
 28 74  1  0
 28 75  1  0
 29 76  1  0
 29 77  1  0
 30 78  1  0
 30 79  1  0
 32 80  1  0
 32 81  1  0
 32 82  1  0
M  END
>  <meeko>  (7) 
{"is_sidechain": [false], "intermolecular_energy": 2.731, "internal_energy": -0.839}

$$$$
EPH_relaxed_0001_pdb2pqr_Repair_228_r2_0001_out
     RDKit          3D

 82 86  0  0  0  0  0  0  0  0999 V2000
   -0.3200   10.5640   -4.1090 C   0  0  0  0  0  0  0  0  0  0  0  0
    0.8640   10.3700   -3.1580 C   0  0  2  0  0  0  0  0  0  0  0  0
    0.7890    9.0260   -2.4050 C   0  0  0  0  0  0  0  0  0  0  0  0
   -0.6140    8.6830   -1.8970 C   0  0  0  0  0  0  0  0  0  0  0  0
   -0.7890    9.0560   -0.4560 C   0  0  2  0  0  0  0  0  0  0  0  0
   -2.1500    9.1000   -0.0100 O   0  0  0  0  0  0  0  0  0  0  0  0
   -1.4390   10.3480    0.0010 C   0  0  0  0  0  0  0  0  0  0  0  0
   -1.9550   11.3520   -0.9810 C   0  0  0  0  0  0  0  0  0  0  0  0
   -1.1330   10.8560    1.3760 C   0  0  0  0  0  0  0  0  0  0  0  0
    0.9270   11.5220   -2.1630 C   0  0  1  0  0  0  0  0  0  0  0  0
    1.9640   11.2820   -1.0340 C   0  0  0  0  0  0  0  0  0  0  0  0
    2.5740   12.6630   -0.6850 C   0  0  0  0  0  0  0  0  0  0  0  0
    1.6440   13.6870   -1.3780 C   0  0  1  0  0  0  0  0  0  0  0  0
    0.4270   13.8400   -0.4130 C   0  0  0  0  0  0  0  0  0  0  0  0
    2.2800   15.0710   -1.7290 C   0  0  2  0  0  0  0  0  0  0  0  0
    2.7630   15.8930   -0.5220 C   0  0  0  0  0  0  0  0  0  0  0  0
    1.7510   16.8220    0.0630 C   0  0  0  0  0  0  0  0  0  0  0  0
    0.6040   17.2020   -0.5290 C   0  0  0  0  0  0  0  0  0  0  0  0
    0.2740   16.7620   -1.9610 C   0  0  1  0  0  0  0  0  0  0  0  0
   -0.2280   17.9840   -2.7750 C   0  0  0  0  0  0  0  0  0  0  0  0
   -1.3950   18.6980   -2.1000 C   0  0  0  0  0  0  0  0  0  0  0  0
   -1.0100   19.1710   -0.7010 C   0  0  2  0  0  0  0  0  0  0  0  0
   -0.0150   20.1920   -0.8180 O   0  0  0  0  0  0  0  0  0  0  0  0
   -0.4800   18.0270    0.2080 C   0  0  0  0  0  0  0  0  0  0  0  0
   -1.6440   17.0760    0.5810 C   0  0  0  0  0  0  0  0  0  0  0  0
    0.0060   18.6610    1.5400 C   0  0  0  0  0  0  0  0  0  0  0  0
    1.4120   15.9510   -2.7170 C   0  0  1  0  0  0  0  0  0  0  0  0
    2.3960   16.9390   -3.4150 C   0  0  0  0  0  0  0  0  0  0  0  0
    0.7570   15.0940   -3.8640 C   0  0  0  0  0  0  0  0  0  0  0  0
    0.2560   13.6880   -3.4810 C   0  0  0  0  0  0  0  0  0  0  0  0
    1.3300   12.9140   -2.7110 C   0  0  2  0  0  0  0  0  0  0  0  0
    2.5590   12.7250   -3.6640 C   0  0  0  0  0  0  0  0  0  0  0  0
   -1.2393   10.7146   -3.5240 H   0  0  0  0  0  0  0  0  0  0  0  0
   -0.1405   11.4447   -4.7431 H   0  0  0  0  0  0  0  0  0  0  0  0
   -0.4309    9.6721   -4.7431 H   0  0  0  0  0  0  0  0  0  0  0  0
    1.7793   10.3565   -3.7679 H   0  0  0  0  0  0  0  0  0  0  0  0
    1.1165    8.2272   -3.0867 H   0  0  0  0  0  0  0  0  0  0  0  0
    1.4380    9.1158   -1.5214 H   0  0  0  0  0  0  0  0  0  0  0  0
   -1.3546    9.2298   -2.4991 H   0  0  0  0  0  0  0  0  0  0  0  0
   -0.7556    7.5961   -1.9892 H   0  0  0  0  0  0  0  0  0  0  0  0
    0.1653    8.5767   -0.1921 H   0  0  0  0  0  0  0  0  0  0  0  0
   -2.3926   12.2034   -0.4392 H   0  0  0  0  0  0  0  0  0  0  0  0
   -1.1271   11.7059   -1.6129 H   0  0  0  0  0  0  0  0  0  0  0  0
   -2.7247   10.8848   -1.6129 H   0  0  0  0  0  0  0  0  0  0  0  0
   -1.5494   10.1647    2.1234 H   0  0  0  0  0  0  0  0  0  0  0  0
   -0.0430   10.9248    1.5073 H   0  0  0  0  0  0  0  0  0  0  0  0
   -1.5817   11.8517    1.5073 H   0  0  0  0  0  0  0  0  0  0  0  0
   -0.1222   11.5366   -1.8328 H   0  0  0  0  0  0  0  0  0  0  0  0
    1.4692   10.8524   -0.1505 H   0  0  0  0  0  0  0  0  0  0  0  0
    2.7436   10.5767   -1.3577 H   0  0  0  0  0  0  0  0  0  0  0  0
    2.5817   12.8201    0.4037 H   0  0  0  0  0  0  0  0  0  0  0  0
    3.6179   12.7545   -1.0196 H   0  0  0  0  0  0  0  0  0  0  0  0
    0.7773   13.7960    0.6288 H   0  0  0  0  0  0  0  0  0  0  0  0
   -0.0650   14.8071   -0.5938 H   0  0  0  0  0  0  0  0  0  0  0  0
   -0.2891   13.0248   -0.5938 H   0  0  0  0  0  0  0  0  0  0  0  0
    3.1896   14.7801   -2.2749 H   0  0  0  0  0  0  0  0  0  0  0  0
    3.0745   15.1904    0.2650 H   0  0  0  0  0  0  0  0  0  0  0  0
    3.5803   16.5284   -0.8940 H   0  0  0  0  0  0  0  0  0  0  0  0
    1.9609   17.2303    1.0626 H   0  0  0  0  0  0  0  0  0  0  0  0
   -0.5298   16.0163   -1.8725 H   0  0  0  0  0  0  0  0  0  0  0  0
    0.6023   18.6963   -2.8896 H   0  0  0  0  0  0  0  0  0  0  0  0
   -0.5816   17.6138   -3.7486 H   0  0  0  0  0  0  0  0  0  0  0  0
   -1.6842   19.5684   -2.7073 H   0  0  0  0  0  0  0  0  0  0  0  0
   -2.2349   17.9930   -2.0133 H   0  0  0  0  0  0  0  0  0  0  0  0
   -1.9211   19.5569   -0.2205 H   0  0  0  0  0  0  0  0  0  0  0  0
    0.1620   20.5340    0.0750 H   0  0  0  0  0  0  0  0  0  0  0  0
   -1.7262   17.0089    1.6759 H   0  0  0  0  0  0  0  0  0  0  0  0
   -2.5846   17.4673    0.1660 H   0  0  0  0  0  0  0  0  0  0  0  0
   -1.4481   16.0763    0.1660 H   0  0  0  0  0  0  0  0  0  0  0  0
   -0.4204   18.1048    2.3879 H   0  0  0  0  0  0  0  0  0  0  0  0
    1.1041   18.6172    1.5878 H   0  0  0  0  0  0  0  0  0  0  0  0
   -0.3215   19.7100    1.5878 H   0  0  0  0  0  0  0  0  0  0  0  0
    2.9550   17.5002   -2.6517 H   0  0  0  0  0  0  0  0  0  0  0  0
    3.1000   16.3731   -4.0428 H   0  0  0  0  0  0  0  0  0  0  0  0
    1.8272   17.6407   -4.0428 H   0  0  0  0  0  0  0  0  0  0  0  0
   -0.1030   15.6594   -4.2522 H   0  0  0  0  0  0  0  0  0  0  0  0
    1.5634   14.9237   -4.5925 H   0  0  0  0  0  0  0  0  0  0  0  0
   -0.6398   13.7848   -2.8499 H   0  0  0  0  0  0  0  0  0  0  0  0
    0.0198   13.1367   -4.4031 H   0  0  0  0  0  0  0  0  0  0  0  0
    3.4702   12.5849   -3.0639 H   0  0  0  0  0  0  0  0  0  0  0  0
    2.3984   11.8410   -4.2986 H   0  0  0  0  0  0  0  0  0  0  0  0
    2.6714   13.6164   -4.2986 H   0  0  0  0  0  0  0  0  0  0  0  0
  1  2  1  0
  2  3  1  0
  3  4  1  0
  4  5  1  0
  5  6  1  0
  6  7  1  0
  7  8  1  0
  7  9  1  0
  2 10  1  0
 10 11  1  0
 11 12  1  0
 12 13  1  0
 13 14  1  1
 13 15  1  0
 15 16  1  0
 16 17  1  0
 17 18  2  0
 18 19  1  0
 19 20  1  0
 20 21  1  0
 21 22  1  0
 22 23  1  0
 22 24  1  0
 24 25  1  0
 24 26  1  0
 19 27  1  0
 27 28  1  6
 27 29  1  0
 29 30  1  0
 30 31  1  0
 31 32  1  6
  7  5  1  0
 31 10  1  0
 31 13  1  0
 27 15  1  0
 24 18  1  0
  1 33  1  0
  1 34  1  0
  1 35  1  0
  2 36  1  6
  3 37  1  0
  3 38  1  0
  4 39  1  0
  4 40  1  0
  5 41  1  1
  8 42  1  0
  8 43  1  0
  8 44  1  0
  9 45  1  0
  9 46  1  0
  9 47  1  0
 10 48  1  1
 11 49  1  0
 11 50  1  0
 12 51  1  0
 12 52  1  0
 14 53  1  0
 14 54  1  0
 14 55  1  0
 15 56  1  6
 16 57  1  0
 16 58  1  0
 17 59  1  0
 19 60  1  1
 20 61  1  0
 20 62  1  0
 21 63  1  0
 21 64  1  0
 22 65  1  1
 23 66  1  0
 25 67  1  0
 25 68  1  0
 25 69  1  0
 26 70  1  0
 26 71  1  0
 26 72  1  0
 28 73  1  0
 28 74  1  0
 28 75  1  0
 29 76  1  0
 29 77  1  0
 30 78  1  0
 30 79  1  0
 32 80  1  0
 32 81  1  0
 32 82  1  0
M  END
>  <meeko>  (8) 
{"is_sidechain": [false], "intermolecular_energy": 2.731, "internal_energy": -0.839}

$$$$
EPH_relaxed_0001_pdb2pqr_Repair_228_r2_0001_out
     RDKit          3D

 82 86  0  0  0  0  0  0  0  0999 V2000
    2.9010   18.2150   -3.4100 C   0  0  0  0  0  0  0  0  0  0  0  0
    2.0640   17.9740   -2.1510 C   0  0  2  0  0  0  0  0  0  0  0  0
    2.3410   19.0270   -1.0590 C   0  0  0  0  0  0  0  0  0  0  0  0
    1.3500   20.1940   -1.0650 C   0  0  0  0  0  0  0  0  0  0  0  0
    0.2870   20.0240   -0.0220 C   0  0  2  0  0  0  0  0  0  0  0  0
   -0.3500   18.7400   -0.0200 O   0  0  0  0  0  0  0  0  0  0  0  0
   -1.1860   19.8610   -0.3490 C   0  0  0  0  0  0  0  0  0  0  0  0
   -1.6770   19.8610   -1.7620 C   0  0  0  0  0  0  0  0  0  0  0  0
   -2.1940   20.1910    0.7080 C   0  0  0  0  0  0  0  0  0  0  0  0
    2.3340   16.5760   -1.6070 C   0  0  1  0  0  0  0  0  0  0  0  0
    3.0140   16.5990   -0.2110 C   0  0  0  0  0  0  0  0  0  0  0  0
    2.4610   15.3830    0.5760 C   0  0  0  0  0  0  0  0  0  0  0  0
    1.7460   14.5210   -0.4910 C   0  0  1  0  0  0  0  0  0  0  0  0
    2.8870   13.7130   -1.1840 C   0  0  0  0  0  0  0  0  0  0  0  0
    0.6080   13.5830    0.0290 C   0  0  2  0  0  0  0  0  0  0  0  0
    1.0590   12.4980    1.0220 C   0  0  0  0  0  0  0  0  0  0  0  0
    1.4640   11.1990    0.4060 C   0  0  0  0  0  0  0  0  0  0  0  0
    1.2000   10.8160   -0.8560 C   0  0  0  0  0  0  0  0  0  0  0  0
    0.3380   11.6860   -1.7800 C   0  0  1  0  0  0  0  0  0  0  0  0
   -0.7140   10.7980   -2.4950 C   0  0  0  0  0  0  0  0  0  0  0  0
   -0.0820    9.6180   -3.2280 C   0  0  0  0  0  0  0  0  0  0  0  0
    0.7180    8.7440   -2.2660 C   0  0  2  0  0  0  0  0  0  0  0  0
   -0.1860    8.1230   -1.3460 O   0  0  0  0  0  0  0  0  0  0  0  0
    1.8030    9.5330   -1.4800 C   0  0  0  0  0  0  0  0  0  0  0  0
    2.9430    9.9490   -2.4420 C   0  0  0  0  0  0  0  0  0  0  0  0
    2.4400    8.5660   -0.4450 C   0  0  0  0  0  0  0  0  0  0  0  0
   -0.3050   12.9780   -1.1140 C   0  0  1  0  0  0  0  0  0  0  0  0
   -1.6670   12.6110   -0.4480 C   0  0  0  0  0  0  0  0  0  0  0  0
   -0.6300   14.0290   -2.2400 C   0  0  0  0  0  0  0  0  0  0  0  0
    0.4970   15.0060   -2.6250 C   0  0  0  0  0  0  0  0  0  0  0  0
    1.1120   15.6520   -1.3790 C   0  0  2  0  0  0  0  0  0  0  0  0
   -0.0080   16.4900   -0.6730 C   0  0  0  0  0  0  0  0  0  0  0  0
    3.9210   18.5087   -3.1215 H   0  0  0  0  0  0  0  0  0  0  0  0
    2.9402   17.2916   -4.0066 H   0  0  0  0  0  0  0  0  0  0  0  0
    2.4432   19.0178   -4.0066 H   0  0  0  0  0  0  0  0  0  0  0  0
    1.0052   18.0641   -2.4354 H   0  0  0  0  0  0  0  0  0  0  0  0
    2.2890   18.5321   -0.0780 H   0  0  0  0  0  0  0  0  0  0  0  0
    3.3361   19.4488   -1.2637 H   0  0  0  0  0  0  0  0  0  0  0  0
    1.8973   21.1275   -0.8673 H   0  0  0  0  0  0  0  0  0  0  0  0
    0.8619   20.2243   -2.0503 H   0  0  0  0  0  0  0  0  0  0  0  0
    0.8205   20.6966    0.6658 H   0  0  0  0  0  0  0  0  0  0  0  0
   -1.7974   18.8239   -2.1083 H   0  0  0  0  0  0  0  0  0  0  0  0
   -2.6457   20.3795   -1.8136 H   0  0  0  0  0  0  0  0  0  0  0  0
   -0.9490   20.3795   -2.4032 H   0  0  0  0  0  0  0  0  0  0  0  0
   -1.7451   20.0440    1.7014 H   0  0  0  0  0  0  0  0  0  0  0  0
   -2.5093   21.2393    0.5995 H   0  0  0  0  0  0  0  0  0  0  0  0
   -3.0681   19.5321    0.5995 H   0  0  0  0  0  0  0  0  0  0  0  0
    2.9582   16.1796   -2.4214 H   0  0  0  0  0  0  0  0  0  0  0  0
    4.1054   16.5152   -0.3198 H   0  0  0  0  0  0  0  0  0  0  0  0
    2.8014   17.5406    0.3164 H   0  0  0  0  0  0  0  0  0  0  0  0
    3.2804   14.8191    1.0457 H   0  0  0  0  0  0  0  0  0  0  0  0
    1.7855   15.6848    1.3900 H   0  0  0  0  0  0  0  0  0  0  0  0
    3.5310   13.2570   -0.4176 H   0  0  0  0  0  0  0  0  0  0  0  0
    2.4481   12.9233   -1.8114 H   0  0  0  0  0  0  0  0  0  0  0  0
    3.4862   14.3892   -1.8114 H   0  0  0  0  0  0  0  0  0  0  0  0
   -0.0215   14.2741    0.6088 H   0  0  0  0  0  0  0  0  0  0  0  0
    1.9184   12.8894    1.5861 H   0  0  0  0  0  0  0  0  0  0  0  0
    0.1836   12.2773    1.6504 H   0  0  0  0  0  0  0  0  0  0  0  0
    2.0260   10.4958    1.0382 H   0  0  0  0  0  0  0  0  0  0  0  0
    1.0267   12.1179   -2.5210 H   0  0  0  0  0  0  0  0  0  0  0  0
   -1.4177   10.4105   -1.7436 H   0  0  0  0  0  0  0  0  0  0  0  0
   -1.2244   11.4218   -3.2436 H   0  0  0  0  0  0  0  0  0  0  0  0
   -0.8767    9.0126   -3.6884 H   0  0  0  0  0  0  0  0  0  0  0  0
    0.5997   10.0074   -3.9984 H   0  0  0  0  0  0  0  0  0  0  0  0
    1.2502    7.9927   -2.8680 H   0  0  0  0  0  0  0  0  0  0  0  0
   -0.7650    8.8170   -0.9890 H   0  0  0  0  0  0  0  0  0  0  0  0
    3.8181   10.2684   -1.8571 H   0  0  0  0  0  0  0  0  0  0  0  0
    3.2182    9.0933   -3.0761 H   0  0  0  0  0  0  0  0  0  0  0  0
    2.6024   10.7808   -3.0761 H   0  0  0  0  0  0  0  0  0  0  0  0
    2.2102    8.9149    0.5726 H   0  0  0  0  0  0  0  0  0  0  0  0
    2.0305    7.5550   -0.5873 H   0  0  0  0  0  0  0  0  0  0  0  0
    3.5305    8.5432   -0.5873 H   0  0  0  0  0  0  0  0  0  0  0  0
   -1.5596   12.6399    0.6464 H   0  0  0  0  0  0  0  0  0  0  0  0
   -2.4346   13.3343   -0.7604 H   0  0  0  0  0  0  0  0  0  0  0  0
   -1.9672   11.5999   -0.7604 H   0  0  0  0  0  0  0  0  0  0  0  0
   -0.9100   13.4707   -3.1455 H   0  0  0  0  0  0  0  0  0  0  0  0
   -1.4279   14.6605   -1.8223 H   0  0  0  0  0  0  0  0  0  0  0  0
    1.2795   14.4565   -3.1689 H   0  0  0  0  0  0  0  0  0  0  0  0
    0.0727   15.7991   -3.2582 H   0  0  0  0  0  0  0  0  0  0  0  0
    0.1041   16.4062    0.4181 H   0  0  0  0  0  0  0  0  0  0  0  0
    0.0809   17.5452   -0.9707 H   0  0  0  0  0  0  0  0  0  0  0  0
   -0.9952   16.1069   -0.9707 H   0  0  0  0  0  0  0  0  0  0  0  0
  1  2  1  0
  2  3  1  0
  3  4  1  0
  4  5  1  0
  5  6  1  0
  6  7  1  0
  7  8  1  0
  7  9  1  0
  2 10  1  0
 10 11  1  0
 11 12  1  0
 12 13  1  0
 13 14  1  6
 13 15  1  0
 15 16  1  0
 16 17  1  0
 17 18  2  0
 18 19  1  0
 19 20  1  0
 20 21  1  0
 21 22  1  0
 22 23  1  0
 22 24  1  0
 24 25  1  0
 24 26  1  0
 19 27  1  0
 27 28  1  1
 27 29  1  0
 29 30  1  0
 30 31  1  0
 31 32  1  1
  7  5  1  0
 31 10  1  0
 31 13  1  0
 27 15  1  0
 24 18  1  0
  1 33  1  0
  1 34  1  0
  1 35  1  0
  2 36  1  6
  3 37  1  0
  3 38  1  0
  4 39  1  0
  4 40  1  0
  5 41  1  1
  8 42  1  0
  8 43  1  0
  8 44  1  0
  9 45  1  0
  9 46  1  0
  9 47  1  0
 10 48  1  6
 11 49  1  0
 11 50  1  0
 12 51  1  0
 12 52  1  0
 14 53  1  0
 14 54  1  0
 14 55  1  0
 15 56  1  1
 16 57  1  0
 16 58  1  0
 17 59  1  0
 19 60  1  6
 20 61  1  0
 20 62  1  0
 21 63  1  0
 21 64  1  0
 22 65  1  6
 23 66  1  0
 25 67  1  0
 25 68  1  0
 25 69  1  0
 26 70  1  0
 26 71  1  0
 26 72  1  0
 28 73  1  0
 28 74  1  0
 28 75  1  0
 29 76  1  0
 29 77  1  0
 30 78  1  0
 30 79  1  0
 32 80  1  0
 32 81  1  0
 32 82  1  0
M  END
>  <meeko>  (9) 
{"is_sidechain": [false], "intermolecular_energy": 2.731, "internal_energy": -0.839}

$$$$
EPH_relaxed_0001_pdb2pqr_Repair_228_r2_0001_out
     RDKit          3D

 82 86  0  0  0  0  0  0  0  0999 V2000
    0.0910    9.3590   -2.4450 C   0  0  0  0  0  0  0  0  0  0  0  0
    1.1380   10.3880   -2.8820 C   0  0  2  0  0  0  0  0  0  0  0  0
    2.5490    9.7750   -2.9800 C   0  0  0  0  0  0  0  0  0  0  0  0
    3.4800   10.5240   -3.9380 C   0  0  0  0  0  0  0  0  0  0  0  0
    4.8560   10.6790   -3.3660 C   0  0  2  0  0  0  0  0  0  0  0  0
    5.4920   11.9280   -3.6670 O   0  0  0  0  0  0  0  0  0  0  0  0
    6.1120   10.7530   -4.2150 C   0  0  0  0  0  0  0  0  0  0  0  0
    6.0500   10.6720   -5.7080 C   0  0  0  0  0  0  0  0  0  0  0  0
    7.4250   10.4130   -3.5810 C   0  0  0  0  0  0  0  0  0  0  0  0
    1.1470   11.5640   -1.9110 C   0  0  1  0  0  0  0  0  0  0  0  0
    2.2100   11.4060   -0.7920 C   0  0  0  0  0  0  0  0  0  0  0  0
    2.7450   12.8270   -0.4800 C   0  0  0  0  0  0  0  0  0  0  0  0
    1.7510   13.7810   -1.1810 C   0  0  1  0  0  0  0  0  0  0  0  0
    0.5380   13.8870   -0.2040 C   0  0  0  0  0  0  0  0  0  0  0  0
    2.3030   15.1920   -1.5700 C   0  0  2  0  0  0  0  0  0  0  0  0
    2.7530   16.0650   -0.3860 C   0  0  0  0  0  0  0  0  0  0  0  0
    1.6980   16.9480    0.1930 C   0  0  0  0  0  0  0  0  0  0  0  0
    0.5240   17.2500   -0.3920 C   0  0  0  0  0  0  0  0  0  0  0  0
    0.2020   16.7620   -1.8100 C   0  0  1  0  0  0  0  0  0  0  0  0
   -0.3780   17.9360   -2.6430 C   0  0  0  0  0  0  0  0  0  0  0  0
   -1.5750   18.5970   -1.9670 C   0  0  0  0  0  0  0  0  0  0  0  0
   -1.2000   19.1210   -0.5830 C   0  0  2  0  0  0  0  0  0  0  0  0
   -0.2660   20.1940   -0.7350 O   0  0  0  0  0  0  0  0  0  0  0  0
   -0.5960   18.0290    0.3420 C   0  0  0  0  0  0  0  0  0  0  0  0
   -1.7000   17.0220    0.7500 C   0  0  0  0  0  0  0  0  0  0  0  0
   -0.1310   18.7180    1.6540 C   0  0  0  0  0  0  0  0  0  0  0  0
    1.3750   16.0000   -2.5640 C   0  0  1  0  0  0  0  0  0  0  0  0
    2.2930   17.0270   -3.2950 C   0  0  0  0  0  0  0  0  0  0  0  0
    0.7560   15.0830   -3.6840 C   0  0  0  0  0  0  0  0  0  0  0  0
    0.3390   13.6600   -3.2650 C   0  0  0  0  0  0  0  0  0  0  0  0
    1.4650   12.9640   -2.4940 C   0  0  2  0  0  0  0  0  0  0  0  0
    2.6910   12.8240   -3.4590 C   0  0  0  0  0  0  0  0  0  0  0  0
    0.0514    9.3201   -1.3464 H   0  0  0  0  0  0  0  0  0  0  0  0
   -0.8947    9.6495   -2.8374 H   0  0  0  0  0  0  0  0  0  0  0  0
    0.3644    8.3684   -2.8374 H   0  0  0  0  0  0  0  0  0  0  0  0
    0.8597   10.7374   -3.8872 H   0  0  0  0  0  0  0  0  0  0  0  0
    3.0019    9.7838   -1.9776 H   0  0  0  0  0  0  0  0  0  0  0  0
    2.4302    8.7563   -3.3777 H   0  0  0  0  0  0  0  0  0  0  0  0
    3.5474    9.9624   -4.8814 H   0  0  0  0  0  0  0  0  0  0  0  0
    3.0634   11.5282   -4.1057 H   0  0  0  0  0  0  0  0  0  0  0  0
    4.5893   10.0616   -2.4956 H   0  0  0  0  0  0  0  0  0  0  0  0
    5.4059    9.8305   -6.0031 H   0  0  0  0  0  0  0  0  0  0  0  0
    5.6361   11.6089   -6.1092 H   0  0  0  0  0  0  0  0  0  0  0  0
    7.0625   10.5171   -6.1092 H   0  0  0  0  0  0  0  0  0  0  0  0
    7.3214   10.4398   -2.4862 H   0  0  0  0  0  0  0  0  0  0  0  0
    7.7340    9.4052   -3.8955 H   0  0  0  0  0  0  0  0  0  0  0  0
    8.1843   11.1442   -3.8955 H   0  0  0  0  0  0  0  0  0  0  0  0
    0.1029   11.5279   -1.5667 H   0  0  0  0  0  0  0  0  0  0  0  0
    1.7516   10.9680    0.1069 H   0  0  0  0  0  0  0  0  0  0  0  0
    3.0240   10.7387   -1.1117 H   0  0  0  0  0  0  0  0  0  0  0  0
    2.7571   13.0077    0.6050 H   0  0  0  0  0  0  0  0  0  0  0  0
    3.7778   12.9700   -0.8305 H   0  0  0  0  0  0  0  0  0  0  0  0
    0.8997   13.8554    0.8344 H   0  0  0  0  0  0  0  0  0  0  0  0
    0.0080   14.8349   -0.3790 H   0  0  0  0  0  0  0  0  0  0  0  0
   -0.1484   13.0454   -0.3790 H   0  0  0  0  0  0  0  0  0  0  0  0
    3.2205   14.9420   -2.1229 H   0  0  0  0  0  0  0  0  0  0  0  0
    3.1125   15.3975    0.4110 H   0  0  0  0  0  0  0  0  0  0  0  0
    3.5288   16.7372   -0.7814 H   0  0  0  0  0  0  0  0  0  0  0  0
    1.8967   17.3890    1.1809 H   0  0  0  0  0  0  0  0  0  0  0  0
   -0.5578   15.9748   -1.6953 H   0  0  0  0  0  0  0  0  0  0  0  0
    0.4092   18.6914   -2.7836 H   0  0  0  0  0  0  0  0  0  0  0  0
   -0.7216   17.5259   -3.6041 H   0  0  0  0  0  0  0  0  0  0  0  0
   -1.9208   19.4364   -2.5881 H   0  0  0  0  0  0  0  0  0  0  0  0
   -2.3723   17.8476   -1.8543 H   0  0  0  0  0  0  0  0  0  0  0  0
   -2.1253   19.4653   -0.0979 H   0  0  0  0  0  0  0  0  0  0  0  0
    0.6220   19.8040   -0.8020 H   0  0  0  0  0  0  0  0  0  0  0  0
   -1.7595   16.9677    1.8470 H   0  0  0  0  0  0  0  0  0  0  0  0
   -2.6675   17.3551    0.3463 H   0  0  0  0  0  0  0  0  0  0  0  0
   -1.4570   16.0280    0.3463 H   0  0  0  0  0  0  0  0  0  0  0  0
   -0.5113   18.1545    2.5188 H   0  0  0  0  0  0  0  0  0  0  0  0
    0.9683   18.7413    1.6862 H   0  0  0  0  0  0  0  0  0  0  0  0
   -0.5206   19.7462    1.6862 H   0  0  0  0  0  0  0  0  0  0  0  0
    2.8328   17.6309   -2.5508 H   0  0  0  0  0  0  0  0  0  0  0  0
    3.0165   16.4887   -3.9249 H   0  0  0  0  0  0  0  0  0  0  0  0
    1.6772   17.6858   -3.9249 H   0  0  0  0  0  0  0  0  0  0  0  0
   -0.1387   15.5910   -4.0732 H   0  0  0  0  0  0  0  0  0  0  0  0
    1.5623   14.9420   -4.4188 H   0  0  0  0  0  0  0  0  0  0  0  0
   -0.5526   13.7204   -2.6236 H   0  0  0  0  0  0  0  0  0  0  0  0
    0.1218   13.0765   -4.1719 H   0  0  0  0  0  0  0  0  0  0  0  0
    3.6127   12.7187   -2.8679 H   0  0  0  0  0  0  0  0  0  0  0  0
    2.5587   11.9351   -4.0933 H   0  0  0  0  0  0  0  0  0  0  0  0
    2.7625   13.7198   -4.0933 H   0  0  0  0  0  0  0  0  0  0  0  0
  1  2  1  0
  2  3  1  0
  3  4  1  0
  4  5  1  0
  5  6  1  0
  6  7  1  0
  7  8  1  0
  7  9  1  0
  2 10  1  0
 10 11  1  0
 11 12  1  0
 12 13  1  0
 13 14  1  1
 13 15  1  0
 15 16  1  0
 16 17  1  0
 17 18  2  0
 18 19  1  0
 19 20  1  0
 20 21  1  0
 21 22  1  0
 22 23  1  0
 22 24  1  0
 24 25  1  0
 24 26  1  0
 19 27  1  0
 27 28  1  6
 27 29  1  0
 29 30  1  0
 30 31  1  0
 31 32  1  6
  7  5  1  0
 31 10  1  0
 31 13  1  0
 27 15  1  0
 24 18  1  0
  1 33  1  0
  1 34  1  0
  1 35  1  0
  2 36  1  6
  3 37  1  0
  3 38  1  0
  4 39  1  0
  4 40  1  0
  5 41  1  1
  8 42  1  0
  8 43  1  0
  8 44  1  0
  9 45  1  0
  9 46  1  0
  9 47  1  0
 10 48  1  1
 11 49  1  0
 11 50  1  0
 12 51  1  0
 12 52  1  0
 14 53  1  0
 14 54  1  0
 14 55  1  0
 15 56  1  6
 16 57  1  0
 16 58  1  0
 17 59  1  0
 19 60  1  1
 20 61  1  0
 20 62  1  0
 21 63  1  0
 21 64  1  0
 22 65  1  1
 23 66  1  0
 25 67  1  0
 25 68  1  0
 25 69  1  0
 26 70  1  0
 26 71  1  0
 26 72  1  0
 28 73  1  0
 28 74  1  0
 28 75  1  0
 29 76  1  0
 29 77  1  0
 30 78  1  0
 30 79  1  0
 32 80  1  0
 32 81  1  0
 32 82  1  0
M  END
>  <meeko>  (10) 
{"is_sidechain": [false], "intermolecular_energy": 2.731, "internal_energy": -0.839}

$$$$
EPH_relaxed_0001_pdb2pqr_Repair_228_r2_0001_out
     RDKit          3D

 82 86  0  0  0  0  0  0  0  0999 V2000
   -0.9190   16.3920   -5.8580 C   0  0  0  0  0  0  0  0  0  0  0  0
    0.1720   15.6940   -6.6740 C   0  0  2  0  0  0  0  0  0  0  0  0
   -0.2370   15.5060   -8.1490 C   0  0  0  0  0  0  0  0  0  0  0  0
    0.4200   16.5070   -9.1020 C   0  0  0  0  0  0  0  0  0  0  0  0
    1.8290   16.1150   -9.4320 C   0  0  2  0  0  0  0  0  0  0  0  0
    2.3390   16.6810  -10.6470 O   0  0  0  0  0  0  0  0  0  0  0  0
    2.2000   15.2510  -10.6230 C   0  0  0  0  0  0  0  0  0  0  0  0
    1.1580   14.7240  -11.5600 C   0  0  0  0  0  0  0  0  0  0  0  0
    3.5060   14.5190  -10.5960 C   0  0  0  0  0  0  0  0  0  0  0  0
    0.5040   14.3440   -6.0500 C   0  0  1  0  0  0  0  0  0  0  0  0
    1.7310   13.6640   -6.7140 C   0  0  0  0  0  0  0  0  0  0  0  0
    2.4830   12.9030   -5.5920 C   0  0  0  0  0  0  0  0  0  0  0  0
    1.4970   12.8920   -4.4000 C   0  0  1  0  0  0  0  0  0  0  0  0
    0.5110   11.7210   -4.7060 C   0  0  0  0  0  0  0  0  0  0  0  0
    2.1330   12.7540   -2.9780 C   0  0  2  0  0  0  0  0  0  0  0  0
    2.8990   11.4430   -2.7310 C   0  0  0  0  0  0  0  0  0  0  0  0
    2.0860   10.3250   -2.1670 C   0  0  0  0  0  0  0  0  0  0  0  0
    0.8680   10.4490   -1.6070 C   0  0  0  0  0  0  0  0  0  0  0  0
    0.2290   11.8300   -1.4090 C   0  0  1  0  0  0  0  0  0  0  0  0
   -0.3500   11.9320    0.0260 C   0  0  0  0  0  0  0  0  0  0  0  0
   -1.3110   10.7920    0.3510 C   0  0  0  0  0  0  0  0  0  0  0  0
   -0.6230    9.4380    0.1990 C   0  0  2  0  0  0  0  0  0  0  0  0
    0.3890    9.3200    1.2040 O   0  0  0  0  0  0  0  0  0  0  0  0
    0.0080    9.2260   -1.2050 C   0  0  0  0  0  0  0  0  0  0  0  0
   -1.1140    9.0520   -2.2590 C   0  0  0  0  0  0  0  0  0  0  0  0
    0.7900    7.8850   -1.1790 C   0  0  0  0  0  0  0  0  0  0  0  0
    1.1400   13.0760   -1.7900 C   0  0  1  0  0  0  0  0  0  0  0  0
    2.0220   13.4830   -0.5700 C   0  0  0  0  0  0  0  0  0  0  0  0
    0.2150   14.3120   -2.1010 C   0  0  0  0  0  0  0  0  0  0  0  0
   -0.2840   14.4590   -3.5510 C   0  0  0  0  0  0  0  0  0  0  0  0
    0.8740   14.3280   -4.5450 C   0  0  2  0  0  0  0  0  0  0  0  0
    1.8720   15.5060   -4.2760 C   0  0  0  0  0  0  0  0  0  0  0  0
   -0.7146   16.2613   -4.7851 H   0  0  0  0  0  0  0  0  0  0  0  0
   -0.9291   17.4647   -6.1013 H   0  0  0  0  0  0  0  0  0  0  0  0
   -1.8972   15.9516   -6.1013 H   0  0  0  0  0  0  0  0  0  0  0  0
    1.0620   16.3402   -6.6577 H   0  0  0  0  0  0  0  0  0  0  0  0
    0.0478   14.4905   -8.4616 H   0  0  0  0  0  0  0  0  0  0  0  0
   -1.3227   15.6735   -8.2054 H   0  0  0  0  0  0  0  0  0  0  0  0
   -0.1652   16.5505  -10.0324 H   0  0  0  0  0  0  0  0  0  0  0  0
    0.4442   17.4883   -8.6056 H   0  0  0  0  0  0  0  0  0  0  0  0
    2.0858   16.0494   -8.3644 H   0  0  0  0  0  0  0  0  0  0  0  0
    0.3236   14.3020  -10.9806 H   0  0  0  0  0  0  0  0  0  0  0  0
    0.7871   15.5429  -12.1939 H   0  0  0  0  0  0  0  0  0  0  0  0
    1.5978   13.9399  -12.1939 H   0  0  0  0  0  0  0  0  0  0  0  0
    3.8095   14.3489   -9.5525 H   0  0  0  0  0  0  0  0  0  0  0  0
    3.3948   13.5517  -11.1078 H   0  0  0  0  0  0  0  0  0  0  0  0
    4.2731   15.1187  -11.1078 H   0  0  0  0  0  0  0  0  0  0  0  0
   -0.4542   13.8274   -6.2079 H   0  0  0  0  0  0  0  0  0  0  0  0
    1.3992   12.9606   -7.4919 H   0  0  0  0  0  0  0  0  0  0  0  0
    2.3843   14.4088   -7.1921 H   0  0  0  0  0  0  0  0  0  0  0  0
    2.7195   11.8768   -5.9099 H   0  0  0  0  0  0  0  0  0  0  0  0
    3.4418   13.3776   -5.3361 H   0  0  0  0  0  0  0  0  0  0  0  0
    0.1485   11.2905   -3.7609 H   0  0  0  0  0  0  0  0  0  0  0  0
   -0.3422   12.1022   -5.2864 H   0  0  0  0  0  0  0  0  0  0  0  0
    1.0319   10.9452   -5.2864 H   0  0  0  0  0  0  0  0  0  0  0  0
    2.8938   13.5484   -2.9815 H   0  0  0  0  0  0  0  0  0  0  0  0
    3.3174   11.1079   -3.6915 H   0  0  0  0  0  0  0  0  0  0  0  0
    3.6628   11.6752   -1.9742 H   0  0  0  0  0  0  0  0  0  0  0  0
    2.5187    9.3147   -2.2129 H   0  0  0  0  0  0  0  0  0  0  0  0
   -0.5857   11.8967   -2.1451 H   0  0  0  0  0  0  0  0  0  0  0  0
    0.4823   11.9074    0.7448 H   0  0  0  0  0  0  0  0  0  0  0  0
   -0.9142   12.8739    0.0925 H   0  0  0  0  0  0  0  0  0  0  0  0
   -1.6632   10.9025    1.3872 H   0  0  0  0  0  0  0  0  0  0  0  0
   -2.1576   10.8361   -0.3499 H   0  0  0  0  0  0  0  0  0  0  0  0
   -1.3930    8.6614    0.3173 H   0  0  0  0  0  0  0  0  0  0  0  0
    0.0670    9.7740    2.0010 H   0  0  0  0  0  0  0  0  0  0  0  0
   -2.0768    8.9027   -1.7484 H   0  0  0  0  0  0  0  0  0  0  0  0
   -1.1686    9.9524   -2.8885 H   0  0  0  0  0  0  0  0  0  0  0  0
   -0.8933    8.1773   -2.8885 H   0  0  0  0  0  0  0  0  0  0  0  0
    0.9659    7.5833   -0.1359 H   0  0  0  0  0  0  0  0  0  0  0  0
    0.2032    7.1084   -1.6913 H   0  0  0  0  0  0  0  0  0  0  0  0
    1.7549    8.0132   -1.6913 H   0  0  0  0  0  0  0  0  0  0  0  0
    1.4927   13.2388    0.3628 H   0  0  0  0  0  0  0  0  0  0  0  0
    2.9740   12.9332   -0.6061 H   0  0  0  0  0  0  0  0  0  0  0  0
    2.2214   14.5642   -0.6061 H   0  0  0  0  0  0  0  0  0  0  0  0
   -0.6691   14.2379   -1.4508 H   0  0  0  0  0  0  0  0  0  0  0  0
    0.8457   15.1954   -1.9228 H   0  0  0  0  0  0  0  0  0  0  0  0
   -1.0261   13.6738   -3.7575 H   0  0  0  0  0  0  0  0  0  0  0  0
   -0.7353   15.4554   -3.6674 H   0  0  0  0  0  0  0  0  0  0  0  0
    1.9904   15.6458   -3.1914 H   0  0  0  0  0  0  0  0  0  0  0  0
    2.8483   15.2690   -4.7239 H   0  0  0  0  0  0  0  0  0  0  0  0
    1.4778   16.4301   -4.7239 H   0  0  0  0  0  0  0  0  0  0  0  0
  1  2  1  0
  2  3  1  0
  3  4  1  0
  4  5  1  0
  5  6  1  0
  6  7  1  0
  7  8  1  0
  7  9  1  0
  2 10  1  0
 10 11  1  0
 11 12  1  0
 12 13  1  0
 13 14  1  6
 13 15  1  0
 15 16  1  0
 16 17  1  0
 17 18  2  0
 18 19  1  0
 19 20  1  0
 20 21  1  0
 21 22  1  0
 22 23  1  0
 22 24  1  0
 24 25  1  0
 24 26  1  0
 19 27  1  0
 27 28  1  1
 27 29  1  0
 29 30  1  0
 30 31  1  0
 31 32  1  6
  7  5  1  0
 31 10  1  0
 31 13  1  0
 27 15  1  0
 24 18  1  0
  1 33  1  0
  1 34  1  0
  1 35  1  0
  2 36  1  6
  3 37  1  0
  3 38  1  0
  4 39  1  0
  4 40  1  0
  5 41  1  1
  8 42  1  0
  8 43  1  0
  8 44  1  0
  9 45  1  0
  9 46  1  0
  9 47  1  0
 10 48  1  1
 11 49  1  0
 11 50  1  0
 12 51  1  0
 12 52  1  0
 14 53  1  0
 14 54  1  0
 14 55  1  0
 15 56  1  6
 16 57  1  0
 16 58  1  0
 17 59  1  0
 19 60  1  6
 20 61  1  0
 20 62  1  0
 21 63  1  0
 21 64  1  0
 22 65  1  1
 23 66  1  0
 25 67  1  0
 25 68  1  0
 25 69  1  0
 26 70  1  0
 26 71  1  0
 26 72  1  0
 28 73  1  0
 28 74  1  0
 28 75  1  0
 29 76  1  0
 29 77  1  0
 30 78  1  0
 30 79  1  0
 32 80  1  0
 32 81  1  0
 32 82  1  0
M  END
>  <meeko>  (11) 
{"is_sidechain": [false], "intermolecular_energy": 2.731, "internal_energy": -0.839}

$$$$
EPH_relaxed_0001_pdb2pqr_Repair_228_r2_0001_out
     RDKit          3D

 82 86  0  0  0  0  0  0  0  0999 V2000
   -3.7200    7.2040   -3.4700 C   0  0  0  0  0  0  0  0  0  0  0  0
   -3.7440    7.2820   -1.9410 C   0  0  2  0  0  0  0  0  0  0  0  0
   -5.1580    7.0520   -1.3710 C   0  0  0  0  0  0  0  0  0  0  0  0
   -6.2790    7.2970   -2.3850 C   0  0  0  0  0  0  0  0  0  0  0  0
   -7.6020    7.4980   -1.7120 C   0  0  2  0  0  0  0  0  0  0  0  0
   -8.1690    6.3130   -1.1380 O   0  0  0  0  0  0  0  0  0  0  0  0
   -8.9010    6.9030   -2.2240 C   0  0  0  0  0  0  0  0  0  0  0  0
   -8.9390    6.0620   -3.4620 C   0  0  0  0  0  0  0  0  0  0  0  0
  -10.1910    7.5370   -1.8070 C   0  0  0  0  0  0  0  0  0  0  0  0
   -3.2110    8.6340   -1.4810 C   0  0  1  0  0  0  0  0  0  0  0  0
   -3.8460    9.1040   -0.1460 C   0  0  0  0  0  0  0  0  0  0  0  0
   -2.7420    9.8670    0.6300 C   0  0  0  0  0  0  0  0  0  0  0  0
   -1.6220   10.0990   -0.4110 C   0  0  1  0  0  0  0  0  0  0  0  0
   -2.0870   11.3460   -1.2280 C   0  0  0  0  0  0  0  0  0  0  0  0
   -0.1780   10.2870    0.1570 C   0  0  2  0  0  0  0  0  0  0  0  0
    0.0130   11.5160    1.0630 C   0  0  0  0  0  0  0  0  0  0  0  0
    0.4290   12.7660    0.3610 C   0  0  0  0  0  0  0  0  0  0  0  0
    0.9160   12.8360   -0.8910 C   0  0  0  0  0  0  0  0  0  0  0  0
    1.1830   11.5620   -1.7040 C   0  0  1  0  0  0  0  0  0  0  0  0
    2.5800   11.6560   -2.3700 C   0  0  0  0  0  0  0  0  0  0  0  0
    2.7480   12.9250   -3.2010 C   0  0  0  0  0  0  0  0  0  0  0  0
    2.5320   14.1700   -2.3450 C   0  0  2  0  0  0  0  0  0  0  0  0
    3.5890   14.2570   -1.3840 O   0  0  0  0  0  0  0  0  0  0  0  0
    1.1600   14.1820   -1.6160 C   0  0  0  0  0  0  0  0  0  0  0  0
    0.0240   14.3920   -2.6480 C   0  0  0  0  0  0  0  0  0  0  0  0
    1.1280   15.4190   -0.6780 C   0  0  0  0  0  0  0  0  0  0  0  0
    0.9650   10.1890   -0.9330 C   0  0  1  0  0  0  0  0  0  0  0  0
    2.2690    9.7920   -0.1770 C   0  0  0  0  0  0  0  0  0  0  0  0
    0.6950    9.0480   -1.9830 C   0  0  0  0  0  0  0  0  0  0  0  0
   -0.7680    8.8330   -2.4150 C   0  0  0  0  0  0  0  0  0  0  0  0
   -1.6910    8.7390   -1.1960 C   0  0  2  0  0  0  0  0  0  0  0  0
   -1.2630    7.4810   -0.3670 C   0  0  0  0  0  0  0  0  0  0  0  0
   -3.4097    6.1955   -3.7809 H   0  0  0  0  0  0  0  0  0  0  0  0
   -4.7250    7.4161   -3.8638 H   0  0  0  0  0  0  0  0  0  0  0  0
   -3.0081    7.9444   -3.8638 H   0  0  0  0  0  0  0  0  0  0  0  0
   -3.0982    6.4781   -1.5581 H   0  0  0  0  0  0  0  0  0  0  0  0
   -5.2266    6.0109   -1.0225 H   0  0  0  0  0  0  0  0  0  0  0  0
   -5.2977    7.7779   -0.5564 H   0  0  0  0  0  0  0  0  0  0  0  0
   -6.0380    8.1952   -2.9725 H   0  0  0  0  0  0  0  0  0  0  0  0
   -6.3551    6.4108   -3.0321 H   0  0  0  0  0  0  0  0  0  0  0  0
   -7.3235    8.5213   -1.4198 H   0  0  0  0  0  0  0  0  0  0  0  0
   -8.9870    4.9993   -3.1820 H   0  0  0  0  0  0  0  0  0  0  0  0
   -9.8262    6.3249   -4.0568 H   0  0  0  0  0  0  0  0  0  0  0  0
   -8.0317    6.2438   -4.0568 H   0  0  0  0  0  0  0  0  0  0  0  0
  -10.2477    7.5649   -0.7088 H   0  0  0  0  0  0  0  0  0  0  0  0
  -10.2406    8.5621   -2.2028 H   0  0  0  0  0  0  0  0  0  0  0  0
  -11.0329    6.9500   -2.2028 H   0  0  0  0  0  0  0  0  0  0  0  0
   -3.4728    9.2438   -2.3583 H   0  0  0  0  0  0  0  0  0  0  0  0
   -4.6981    9.7704   -0.3457 H   0  0  0  0  0  0  0  0  0  0  0  0
   -4.2191    8.2488    0.4366 H   0  0  0  0  0  0  0  0  0  0  0  0
   -3.1255   10.8262    1.0080 H   0  0  0  0  0  0  0  0  0  0  0  0
   -2.3862    9.3070    1.5074 H   0  0  0  0  0  0  0  0  0  0  0  0
   -2.3858   12.1472   -0.5360 H   0  0  0  0  0  0  0  0  0  0  0  0
   -1.2599   11.6984   -1.8617 H   0  0  0  0  0  0  0  0  0  0  0  0
   -2.9429   11.0708   -1.8617 H   0  0  0  0  0  0  0  0  0  0  0  0
   -0.0681    9.4121    0.8146 H   0  0  0  0  0  0  0  0  0  0  0  0
   -0.9412   11.7140    1.5732 H   0  0  0  0  0  0  0  0  0  0  0  0
    0.8349   11.2639    1.7492 H   0  0  0  0  0  0  0  0  0  0  0  0
    0.3287   13.7110    0.9150 H   0  0  0  0  0  0  0  0  0  0  0  0
    0.4025   11.5262   -2.4783 H   0  0  0  0  0  0  0  0  0  0  0  0
    3.3476   11.6462   -1.5822 H   0  0  0  0  0  0  0  0  0  0  0  0
    2.6850   10.7964   -3.0483 H   0  0  0  0  0  0  0  0  0  0  0  0
    3.7645   12.9486   -3.6207 H   0  0  0  0  0  0  0  0  0  0  0  0
    1.9993   12.9187   -4.0069 H   0  0  0  0  0  0  0  0  0  0  0  0
    2.5355   15.0390   -3.0193 H   0  0  0  0  0  0  0  0  0  0  0  0
    3.2370   13.9510   -0.5310 H   0  0  0  0  0  0  0  0  0  0  0  0
   -0.9243   14.5673   -2.1188 H   0  0  0  0  0  0  0  0  0  0  0  0
    0.2581   15.2621   -3.2790 H   0  0  0  0  0  0  0  0  0  0  0  0
   -0.0685   13.4957   -3.2790 H   0  0  0  0  0  0  0  0  0  0  0  0
    1.1366   15.0848    0.3700 H   0  0  0  0  0  0  0  0  0  0  0  0
    2.0102   16.0475   -0.8697 H   0  0  0  0  0  0  0  0  0  0  0  0
    0.2145   16.0010   -0.8697 H   0  0  0  0  0  0  0  0  0  0  0  0
    2.0945    9.8451    0.9078 H   0  0  0  0  0  0  0  0  0  0  0  0
    2.5548    8.7662   -0.4526 H   0  0  0  0  0  0  0  0  0  0  0  0
    3.0779   10.4846   -0.4526 H   0  0  0  0  0  0  0  0  0  0  0  0
    1.2776    9.2823   -2.8862 H   0  0  0  0  0  0  0  0  0  0  0  0
    0.9851    8.1160   -1.4759 H   0  0  0  0  0  0  0  0  0  0  0  0
   -1.0859    9.6785   -3.0428 H   0  0  0  0  0  0  0  0  0  0  0  0
   -0.8328    7.8901   -2.9778 H   0  0  0  0  0  0  0  0  0  0  0  0
   -1.3396    7.7062    0.7070 H   0  0  0  0  0  0  0  0  0  0  0  0
   -1.9247    6.6374   -0.6129 H   0  0  0  0  0  0  0  0  0  0  0  0
   -0.2241    7.2159   -0.6129 H   0  0  0  0  0  0  0  0  0  0  0  0
  1  2  1  0
  2  3  1  0
  3  4  1  0
  4  5  1  0
  5  6  1  0
  6  7  1  0
  7  8  1  0
  7  9  1  0
  2 10  1  0
 10 11  1  0
 11 12  1  0
 12 13  1  0
 13 14  1  6
 13 15  1  0
 15 16  1  0
 16 17  1  0
 17 18  2  0
 18 19  1  0
 19 20  1  0
 20 21  1  0
 21 22  1  0
 22 23  1  0
 22 24  1  0
 24 25  1  0
 24 26  1  0
 19 27  1  0
 27 28  1  1
 27 29  1  0
 29 30  1  0
 30 31  1  0
 31 32  1  1
  7  5  1  0
 31 10  1  0
 31 13  1  0
 27 15  1  0
 24 18  1  0
  1 33  1  0
  1 34  1  0
  1 35  1  0
  2 36  1  1
  3 37  1  0
  3 38  1  0
  4 39  1  0
  4 40  1  0
  5 41  1  1
  8 42  1  0
  8 43  1  0
  8 44  1  0
  9 45  1  0
  9 46  1  0
  9 47  1  0
 10 48  1  6
 11 49  1  0
 11 50  1  0
 12 51  1  0
 12 52  1  0
 14 53  1  0
 14 54  1  0
 14 55  1  0
 15 56  1  1
 16 57  1  0
 16 58  1  0
 17 59  1  0
 19 60  1  6
 20 61  1  0
 20 62  1  0
 21 63  1  0
 21 64  1  0
 22 65  1  6
 23 66  1  0
 25 67  1  0
 25 68  1  0
 25 69  1  0
 26 70  1  0
 26 71  1  0
 26 72  1  0
 28 73  1  0
 28 74  1  0
 28 75  1  0
 29 76  1  0
 29 77  1  0
 30 78  1  0
 30 79  1  0
 32 80  1  0
 32 81  1  0
 32 82  1  0
M  END
>  <meeko>  (12) 
{"is_sidechain": [false], "intermolecular_energy": 2.731, "internal_energy": -0.839}

$$$$
EPH_relaxed_0001_pdb2pqr_Repair_228_r2_0001_out
     RDKit          3D

 82 86  0  0  0  0  0  0  0  0999 V2000
   -2.0490    7.7880   -2.1550 C   0  0  0  0  0  0  0  0  0  0  0  0
   -2.2440    8.4790   -0.8030 C   0  0  2  0  0  0  0  0  0  0  0  0
   -3.7250    8.5080   -0.3730 C   0  0  0  0  0  0  0  0  0  0  0  0
   -4.6790    7.9150   -1.4130 C   0  0  0  0  0  0  0  0  0  0  0  0
   -5.8420    7.2230   -0.7680 C   0  0  2  0  0  0  0  0  0  0  0  0
   -5.9820    5.8390   -1.1130 O   0  0  0  0  0  0  0  0  0  0  0  0
   -7.0430    6.7090   -1.5400 C   0  0  0  0  0  0  0  0  0  0  0  0
   -7.1410    6.8660   -3.0250 C   0  0  0  0  0  0  0  0  0  0  0  0
   -8.3290    6.4970   -0.8040 C   0  0  0  0  0  0  0  0  0  0  0  0
   -1.6900    9.8980   -0.8590 C   0  0  1  0  0  0  0  0  0  0  0  0
   -1.2070   10.4060    0.5250 C   0  0  0  0  0  0  0  0  0  0  0  0
    0.0260   11.3090    0.2650 C   0  0  0  0  0  0  0  0  0  0  0  0
    0.0120   11.5580   -1.2610 C   0  0  1  0  0  0  0  0  0  0  0  0
   -1.0270   12.7030   -1.4710 C   0  0  0  0  0  0  0  0  0  0  0  0
    1.3890   11.9000   -1.9180 C   0  0  2  0  0  0  0  0  0  0  0  0
    2.0440   13.2000   -1.4200 C   0  0  0  0  0  0  0  0  0  0  0  0
    1.6890   14.4290   -2.1900 C   0  0  0  0  0  0  0  0  0  0  0  0
    1.1080   14.4500   -3.4040 C   0  0  0  0  0  0  0  0  0  0  0  0
    0.8370   13.1500   -4.1710 C   0  0  1  0  0  0  0  0  0  0  0  0
    1.2990   13.3100   -5.6430 C   0  0  0  0  0  0  0  0  0  0  0  0
    0.6780   14.5270   -6.3220 C   0  0  0  0  0  0  0  0  0  0  0  0
    1.0180   15.8070   -5.5630 C   0  0  2  0  0  0  0  0  0  0  0  0
    2.4250   16.0460   -5.6690 O   0  0  0  0  0  0  0  0  0  0  0  0
    0.6080   15.7590   -4.0650 C   0  0  0  0  0  0  0  0  0  0  0  0
   -0.9360   15.8040   -3.9460 C   0  0  0  0  0  0  0  0  0  0  0  0
    1.1340   17.0510   -3.3840 C   0  0  0  0  0  0  0  0  0  0  0  0
    1.3910   11.8200   -3.4990 C   0  0  1  0  0  0  0  0  0  0  0  0
    2.8700   11.5830   -3.9310 C   0  0  0  0  0  0  0  0  0  0  0  0
    0.5680   10.5900   -4.0370 C   0  0  0  0  0  0  0  0  0  0  0  0
   -0.7200   10.2290   -3.2730 C   0  0  0  0  0  0  0  0  0  0  0  0
   -0.4590   10.1450   -1.7660 C   0  0  2  0  0  0  0  0  0  0  0  0
    0.5670    8.9860   -1.5220 C   0  0  0  0  0  0  0  0  0  0  0  0
   -1.7535    6.7410   -1.9924 H   0  0  0  0  0  0  0  0  0  0  0  0
   -2.9911    7.8193   -2.7220 H   0  0  0  0  0  0  0  0  0  0  0  0
   -1.2623    8.3072   -2.7220 H   0  0  0  0  0  0  0  0  0  0  0  0
   -1.6935    7.8946   -0.0510 H   0  0  0  0  0  0  0  0  0  0  0  0
   -3.8272    7.9337    0.5596 H   0  0  0  0  0  0  0  0  0  0  0  0
   -4.0028    9.5649   -0.2473 H   0  0  0  0  0  0  0  0  0  0  0  0
   -5.0570    8.7257   -2.0532 H   0  0  0  0  0  0  0  0  0  0  0  0
   -4.1231    7.1724   -2.0041 H   0  0  0  0  0  0  0  0  0  0  0  0
   -5.7562    7.8605    0.1243 H   0  0  0  0  0  0  0  0  0  0  0  0
   -7.7099    7.7775   -3.2606 H   0  0  0  0  0  0  0  0  0  0  0  0
   -6.1306    6.9435   -3.4530 H   0  0  0  0  0  0  0  0  0  0  0  0
   -7.6544    5.9924   -3.4530 H   0  0  0  0  0  0  0  0  0  0  0  0
   -8.1409    6.5280    0.2793 H   0  0  0  0  0  0  0  0  0  0  0  0
   -9.0417    7.2898   -1.0752 H   0  0  0  0  0  0  0  0  0  0  0  0
   -8.7495    5.5174   -1.0752 H   0  0  0  0  0  0  0  0  0  0  0  0
   -2.5676   10.4226   -1.2646 H   0  0  0  0  0  0  0  0  0  0  0  0
   -2.0037   10.9848    1.0151 H   0  0  0  0  0  0  0  0  0  0  0  0
   -0.9485    9.5655    1.1859 H   0  0  0  0  0  0  0  0  0  0  0  0
   -0.0648   12.2578    0.8142 H   0  0  0  0  0  0  0  0  0  0  0  0
    0.9632   10.8429    0.6031 H   0  0  0  0  0  0  0  0  0  0  0  0
   -1.3650   13.0754   -0.4927 H   0  0  0  0  0  0  0  0  0  0  0  0
   -0.5591   13.5239   -2.0342 H   0  0  0  0  0  0  0  0  0  0  0  0
   -1.8894   12.3168   -2.0342 H   0  0  0  0  0  0  0  0  0  0  0  0
    2.0321   11.0839   -1.5568 H   0  0  0  0  0  0  0  0  0  0  0  0
    1.7402   13.3546   -0.3742 H   0  0  0  0  0  0  0  0  0  0  0  0
    3.1279   13.0631   -1.5485 H   0  0  0  0  0  0  0  0  0  0  0  0
    1.9219   15.3989   -1.7261 H   0  0  0  0  0  0  0  0  0  0  0  0
   -0.2520   12.9988   -4.1364 H   0  0  0  0  0  0  0  0  0  0  0  0
    2.3936   13.4174   -5.6593 H   0  0  0  0  0  0  0  0  0  0  0  0
    0.9716   12.4165   -6.1947 H   0  0  0  0  0  0  0  0  0  0  0  0
    1.0655   14.6034   -7.3487 H   0  0  0  0  0  0  0  0  0  0  0  0
   -0.4151   14.4042   -6.3320 H   0  0  0  0  0  0  0  0  0  0  0  0
    0.4404   16.6241   -6.0199 H   0  0  0  0  0  0  0  0  0  0  0  0
    2.5470   16.9670   -5.9550 H   0  0  0  0  0  0  0  0  0  0  0  0
   -1.2218   15.8123   -2.8838 H   0  0  0  0  0  0  0  0  0  0  0  0
   -1.3151   16.7136   -4.4348 H   0  0  0  0  0  0  0  0  0  0  0  0
   -1.3674   14.9180   -4.4348 H   0  0  0  0  0  0  0  0  0  0  0  0
    1.0867   16.9348   -2.2912 H   0  0  0  0  0  0  0  0  0  0  0  0
    2.1759   17.2282   -3.6891 H   0  0  0  0  0  0  0  0  0  0  0  0
    0.5122   17.9055   -3.6891 H   0  0  0  0  0  0  0  0  0  0  0  0
    3.5016   11.4818   -3.0361 H   0  0  0  0  0  0  0  0  0  0  0  0
    2.9339   10.6632   -4.5308 H   0  0  0  0  0  0  0  0  0  0  0  0
    3.2181   12.4368   -4.5308 H   0  0  0  0  0  0  0  0  0  0  0  0
    0.2876   10.8069   -5.0783 H   0  0  0  0  0  0  0  0  0  0  0  0
    1.2313    9.7218   -3.9098 H   0  0  0  0  0  0  0  0  0  0  0  0
   -1.4799   11.0010   -3.4640 H   0  0  0  0  0  0  0  0  0  0  0  0
   -1.0716    9.2473   -3.6230 H   0  0  0  0  0  0  0  0  0  0  0  0
    0.7000    8.8357   -0.4405 H   0  0  0  0  0  0  0  0  0  0  0  0
    0.1881    8.0590   -1.9771 H   0  0  0  0  0  0  0  0  0  0  0  0
    1.5331    9.2497   -1.9771 H   0  0  0  0  0  0  0  0  0  0  0  0
  1  2  1  0
  2  3  1  0
  3  4  1  0
  4  5  1  0
  5  6  1  0
  6  7  1  0
  7  8  1  0
  7  9  1  0
  2 10  1  0
 10 11  1  0
 11 12  1  0
 12 13  1  0
 13 14  1  1
 13 15  1  0
 15 16  1  0
 16 17  1  0
 17 18  2  0
 18 19  1  0
 19 20  1  0
 20 21  1  0
 21 22  1  0
 22 23  1  0
 22 24  1  0
 24 25  1  0
 24 26  1  0
 19 27  1  0
 27 28  1  6
 27 29  1  0
 29 30  1  0
 30 31  1  0
 31 32  1  6
  7  5  1  0
 31 10  1  0
 31 13  1  0
 27 15  1  0
 24 18  1  0
  1 33  1  0
  1 34  1  0
  1 35  1  0
  2 36  1  1
  3 37  1  0
  3 38  1  0
  4 39  1  0
  4 40  1  0
  5 41  1  1
  8 42  1  0
  8 43  1  0
  8 44  1  0
  9 45  1  0
  9 46  1  0
  9 47  1  0
 10 48  1  6
 11 49  1  0
 11 50  1  0
 12 51  1  0
 12 52  1  0
 14 53  1  0
 14 54  1  0
 14 55  1  0
 15 56  1  1
 16 57  1  0
 16 58  1  0
 17 59  1  0
 19 60  1  6
 20 61  1  0
 20 62  1  0
 21 63  1  0
 21 64  1  0
 22 65  1  6
 23 66  1  0
 25 67  1  0
 25 68  1  0
 25 69  1  0
 26 70  1  0
 26 71  1  0
 26 72  1  0
 28 73  1  0
 28 74  1  0
 28 75  1  0
 29 76  1  0
 29 77  1  0
 30 78  1  0
 30 79  1  0
 32 80  1  0
 32 81  1  0
 32 82  1  0
M  END
>  <meeko>  (13) 
{"is_sidechain": [false], "intermolecular_energy": 2.731, "internal_energy": -0.839}

$$$$
EPH_relaxed_0001_pdb2pqr_Repair_228_r2_0001_out
     RDKit          3D

 82 86  0  0  0  0  0  0  0  0999 V2000
    2.8070   11.3710   -5.3840 C   0  0  0  0  0  0  0  0  0  0  0  0
    1.8390   11.0660   -4.2380 C   0  0  2  0  0  0  0  0  0  0  0  0
    0.7210   10.0940   -4.6670 C   0  0  0  0  0  0  0  0  0  0  0  0
   -0.3480    9.8740   -3.5930 C   0  0  0  0  0  0  0  0  0  0  0  0
    0.1540    9.0050   -2.4800 C   0  0  2  0  0  0  0  0  0  0  0  0
   -0.7350    7.9470   -2.0980 O   0  0  0  0  0  0  0  0  0  0  0  0
   -0.4840    8.9550   -1.1040 C   0  0  0  0  0  0  0  0  0  0  0  0
   -1.6810    9.7890   -0.7690 C   0  0  0  0  0  0  0  0  0  0  0  0
    0.3380    8.4720    0.0490 C   0  0  0  0  0  0  0  0  0  0  0  0
    1.2300   12.3600   -3.7130 C   0  0  1  0  0  0  0  0  0  0  0  0
   -0.3090   12.2680   -3.5350 C   0  0  0  0  0  0  0  0  0  0  0  0
   -0.6680   13.1230   -2.2920 C   0  0  0  0  0  0  0  0  0  0  0  0
    0.6130   13.9390   -1.9980 C   0  0  1  0  0  0  0  0  0  0  0  0
    0.5620   15.1390   -2.9940 C   0  0  0  0  0  0  0  0  0  0  0  0
    0.8000   14.4210   -0.5220 C   0  0  2  0  0  0  0  0  0  0  0  0
   -0.2820   15.3880   -0.0090 C   0  0  0  0  0  0  0  0  0  0  0  0
    0.0050   16.8370   -0.2230 C   0  0  0  0  0  0  0  0  0  0  0  0
    1.2040   17.3590   -0.5430 C   0  0  0  0  0  0  0  0  0  0  0  0
    2.4520   16.4710   -0.6250 C   0  0  1  0  0  0  0  0  0  0  0  0
    3.6240   17.1550    0.1260 C   0  0  0  0  0  0  0  0  0  0  0  0
    3.8850   18.5750   -0.3660 C   0  0  0  0  0  0  0  0  0  0  0  0
    2.6380   19.4420   -0.2140 C   0  0  2  0  0  0  0  0  0  0  0  0
    2.3640   19.6160    1.1800 O   0  0  0  0  0  0  0  0  0  0  0  0
    1.3890   18.8480   -0.9230 C   0  0  0  0  0  0  0  0  0  0  0  0
    1.5680   18.9400   -2.4580 C   0  0  0  0  0  0  0  0  0  0  0  0
    0.1700   19.7460   -0.5740 C   0  0  0  0  0  0  0  0  0  0  0  0
    2.2540   14.9540   -0.1940 C   0  0  1  0  0  0  0  0  0  0  0  0
    2.4440   14.8090    1.3470 C   0  0  0  0  0  0  0  0  0  0  0  0
    3.3770   14.0780   -0.8640 C   0  0  0  0  0  0  0  0  0  0  0  0
    3.0840   13.5310   -2.2740 C   0  0  0  0  0  0  0  0  0  0  0  0
    1.7080   12.8600   -2.3270 C   0  0  2  0  0  0  0  0  0  0  0  0
    1.7360   11.6350   -1.3500 C   0  0  0  0  0  0  0  0  0  0  0  0
    3.7794   11.6774   -4.9709 H   0  0  0  0  0  0  0  0  0  0  0  0
    2.9385   10.4708   -6.0023 H   0  0  0  0  0  0  0  0  0  0  0  0
    2.3987   12.1840   -6.0023 H   0  0  0  0  0  0  0  0  0  0  0  0
    2.4154   10.5761   -3.4393 H   0  0  0  0  0  0  0  0  0  0  0  0
    0.2328   10.5006   -5.5650 H   0  0  0  0  0  0  0  0  0  0  0  0
    1.1958    9.1193   -4.8528 H   0  0  0  0  0  0  0  0  0  0  0  0
   -0.6426   10.8494   -3.1784 H   0  0  0  0  0  0  0  0  0  0  0  0
   -1.2056    9.3691   -4.0616 H   0  0  0  0  0  0  0  0  0  0  0  0
    1.1947    9.1495   -2.8057 H   0  0  0  0  0  0  0  0  0  0  0  0
   -1.7838    9.8606    0.3238 H   0  0  0  0  0  0  0  0  0  0  0  0
   -1.5560   10.7966   -1.1923 H   0  0  0  0  0  0  0  0  0  0  0  0
   -2.5829    9.3227   -1.1923 H   0  0  0  0  0  0  0  0  0  0  0  0
   -0.1496    8.7585    0.9925 H   0  0  0  0  0  0  0  0  0  0  0  0
    0.4290    7.3768    0.0011 H   0  0  0  0  0  0  0  0  0  0  0  0
    1.3390    8.9255    0.0011 H   0  0  0  0  0  0  0  0  0  0  0  0
    1.5650   13.0527   -4.4991 H   0  0  0  0  0  0  0  0  0  0  0  0
   -0.8177   12.6636   -4.4265 H   0  0  0  0  0  0  0  0  0  0  0  0
   -0.6293   11.2241   -3.4020 H   0  0  0  0  0  0  0  0  0  0  0  0
   -1.5130   13.7921   -2.5116 H   0  0  0  0  0  0  0  0  0  0  0  0
   -0.9757   12.5056   -1.4352 H   0  0  0  0  0  0  0  0  0  0  0  0
    0.5219   16.0824   -2.4297 H   0  0  0  0  0  0  0  0  0  0  0  0
    1.4614   15.1284   -3.6272 H   0  0  0  0  0  0  0  0  0  0  0  0
   -0.3333   15.0522   -3.6272 H   0  0  0  0  0  0  0  0  0  0  0  0
    0.6641   13.4908    0.0492 H   0  0  0  0  0  0  0  0  0  0  0  0
   -1.2240   15.1483   -0.5241 H   0  0  0  0  0  0  0  0  0  0  0  0
   -0.3269   15.2442    1.0806 H   0  0  0  0  0  0  0  0  0  0  0  0
   -0.8349   17.5383   -0.1096 H   0  0  0  0  0  0  0  0  0  0  0  0
    2.6934   16.3844   -1.6947 H   0  0  0  0  0  0  0  0  0  0  0  0
    3.3816   17.1924    1.1983 H   0  0  0  0  0  0  0  0  0  0  0  0
    4.5321   16.5639   -0.0636 H   0  0  0  0  0  0  0  0  0  0  0  0
    4.7036   19.0152    0.2223 H   0  0  0  0  0  0  0  0  0  0  0  0
    4.1565   18.5335   -1.4312 H   0  0  0  0  0  0  0  0  0  0  0  0
    2.8453   20.4064   -0.7007 H   0  0  0  0  0  0  0  0  0  0  0  0
    2.8170   20.4250    1.4700 H   0  0  0  0  0  0  0  0  0  0  0  0
    2.5250   19.4318   -2.6867 H   0  0  0  0  0  0  0  0  0  0  0  0
    1.5637   17.9279   -2.8890 H   0  0  0  0  0  0  0  0  0  0  0  0
    0.7425   19.5256   -2.8890 H   0  0  0  0  0  0  0  0  0  0  0  0
    0.0699   19.8198    0.5189 H   0  0  0  0  0  0  0  0  0  0  0  0
    0.3213   20.7501   -0.9969 H   0  0  0  0  0  0  0  0  0  0  0  0
   -0.7441   19.3039   -0.9969 H   0  0  0  0  0  0  0  0  0  0  0  0
    1.6740   15.3966    1.8683 H   0  0  0  0  0  0  0  0  0  0  0  0
    2.3511   13.7501    1.6299 H   0  0  0  0  0  0  0  0  0  0  0  0
    3.4409   15.1780    1.6299 H   0  0  0  0  0  0  0  0  0  0  0  0
    4.2856   14.6947   -0.9287 H   0  0  0  0  0  0  0  0  0  0  0  0
    3.4677   13.1882   -0.2237 H   0  0  0  0  0  0  0  0  0  0  0  0
    3.1070   14.3621   -2.9943 H   0  0  0  0  0  0  0  0  0  0  0  0
    3.8493   12.7820   -2.5256 H   0  0  0  0  0  0  0  0  0  0  0  0
    1.7278   11.9948   -0.3105 H   0  0  0  0  0  0  0  0  0  0  0  0
    0.8520   11.0047   -1.5268 H   0  0  0  0  0  0  0  0  0  0  0  0
    2.6478   11.0457   -1.5268 H   0  0  0  0  0  0  0  0  0  0  0  0
  1  2  1  0
  2  3  1  0
  3  4  1  0
  4  5  1  0
  5  6  1  0
  6  7  1  0
  7  8  1  0
  7  9  1  0
  2 10  1  0
 10 11  1  0
 11 12  1  0
 12 13  1  0
 13 14  1  6
 13 15  1  0
 15 16  1  0
 16 17  1  0
 17 18  2  0
 18 19  1  0
 19 20  1  0
 20 21  1  0
 21 22  1  0
 22 23  1  0
 22 24  1  0
 24 25  1  0
 24 26  1  0
 19 27  1  0
 27 28  1  1
 27 29  1  0
 29 30  1  0
 30 31  1  0
 31 32  1  1
  7  5  1  0
 31 10  1  0
 31 13  1  0
 27 15  1  0
 24 18  1  0
  1 33  1  0
  1 34  1  0
  1 35  1  0
  2 36  1  1
  3 37  1  0
  3 38  1  0
  4 39  1  0
  4 40  1  0
  5 41  1  1
  8 42  1  0
  8 43  1  0
  8 44  1  0
  9 45  1  0
  9 46  1  0
  9 47  1  0
 10 48  1  6
 11 49  1  0
 11 50  1  0
 12 51  1  0
 12 52  1  0
 14 53  1  0
 14 54  1  0
 14 55  1  0
 15 56  1  1
 16 57  1  0
 16 58  1  0
 17 59  1  0
 19 60  1  6
 20 61  1  0
 20 62  1  0
 21 63  1  0
 21 64  1  0
 22 65  1  6
 23 66  1  0
 25 67  1  0
 25 68  1  0
 25 69  1  0
 26 70  1  0
 26 71  1  0
 26 72  1  0
 28 73  1  0
 28 74  1  0
 28 75  1  0
 29 76  1  0
 29 77  1  0
 30 78  1  0
 30 79  1  0
 32 80  1  0
 32 81  1  0
 32 82  1  0
M  END
>  <meeko>  (14) 
{"is_sidechain": [false], "intermolecular_energy": 2.731, "internal_energy": -0.839}

$$$$
EPH_relaxed_0001_pdb2pqr_Repair_228_r2_0001_out
     RDKit          3D

 82 86  0  0  0  0  0  0  0  0999 V2000
    0.2470   17.9530   -2.5420 C   0  0  0  0  0  0  0  0  0  0  0  0
   -0.1770   16.9270   -1.4870 C   0  0  2  0  0  0  0  0  0  0  0  0
   -0.4440   17.5800   -0.1170 C   0  0  0  0  0  0  0  0  0  0  0  0
    0.2340   18.9420    0.0590 C   0  0  0  0  0  0  0  0  0  0  0  0
    1.2710   18.9090    1.1400 C   0  0  2  0  0  0  0  0  0  0  0  0
    1.6000   20.1910    1.6930 O   0  0  0  0  0  0  0  0  0  0  0  0
    2.6550   19.5130    0.9910 C   0  0  0  0  0  0  0  0  0  0  0  0
    3.0770   20.1920   -0.2750 C   0  0  0  0  0  0  0  0  0  0  0  0
    3.7510   19.0190    1.8810 C   0  0  0  0  0  0  0  0  0  0  0  0
    0.8910   15.8490   -1.3520 C   0  0  1  0  0  0  0  0  0  0  0  0
    1.0100   15.3040    0.0970 C   0  0  0  0  0  0  0  0  0  0  0  0
    1.3550   13.7970   -0.0190 C   0  0  0  0  0  0  0  0  0  0  0  0
    1.7490   13.6000   -1.5010 C   0  0  1  0  0  0  0  0  0  0  0  0
    3.2330   14.0760   -1.5890 C   0  0  0  0  0  0  0  0  0  0  0  0
    1.5700   12.1580   -2.0780 C   0  0  2  0  0  0  0  0  0  0  0  0
    2.4320   11.0750   -1.4040 C   0  0  0  0  0  0  0  0  0  0  0  0
    3.7730   10.8520   -2.0210 C   0  0  0  0  0  0  0  0  0  0  0  0
    4.1570   11.2860   -3.2360 C   0  0  0  0  0  0  0  0  0  0  0  0
    3.1670   11.9990   -4.1670 C   0  0  1  0  0  0  0  0  0  0  0  0
    3.2810   11.4060   -5.5960 C   0  0  0  0  0  0  0  0  0  0  0  0
    4.7100   11.4370   -6.1290 C   0  0  0  0  0  0  0  0  0  0  0  0
    5.6530   10.6680   -5.2070 C   0  0  2  0  0  0  0  0  0  0  0  0
    5.3100    9.2800   -5.2500 O   0  0  0  0  0  0  0  0  0  0  0  0
    5.6170   11.1710   -3.7370 C   0  0  0  0  0  0  0  0  0  0  0  0
    6.2730   12.5720   -3.6500 C   0  0  0  0  0  0  0  0  0  0  0  0
    6.5050   10.2230   -2.8860 C   0  0  0  0  0  0  0  0  0  0  0  0
    1.6650   12.0740   -3.6550 C   0  0  1  0  0  0  0  0  0  0  0  0
    0.8940   10.7860   -4.0790 C   0  0  0  0  0  0  0  0  0  0  0  0
    0.9390   13.2790   -4.3630 C   0  0  0  0  0  0  0  0  0  0  0  0
    1.0530   14.6550   -3.6810 C   0  0  0  0  0  0  0  0  0  0  0  0
    0.7120   14.5590   -2.1910 C   0  0  2  0  0  0  0  0  0  0  0  0
   -0.7830   14.1040   -2.0710 C   0  0  0  0  0  0  0  0  0  0  0  0
    0.6214   18.8589   -2.0428 H   0  0  0  0  0  0  0  0  0  0  0  0
    1.0421   17.5255   -3.1705 H   0  0  0  0  0  0  0  0  0  0  0  0
   -0.6180   18.2115   -3.1705 H   0  0  0  0  0  0  0  0  0  0  0  0
   -1.1206   16.4742   -1.8257 H   0  0  0  0  0  0  0  0  0  0  0  0
   -1.5296   17.7152   -0.0025 H   0  0  0  0  0  0  0  0  0  0  0  0
   -0.0215   16.9098    0.6461 H   0  0  0  0  0  0  0  0  0  0  0  0
    0.7155   19.2256   -0.8885 H   0  0  0  0  0  0  0  0  0  0  0  0
   -0.5358   19.6741    0.3444 H   0  0  0  0  0  0  0  0  0  0  0  0
    0.9312   17.9156    1.4683 H   0  0  0  0  0  0  0  0  0  0  0  0
    3.6432   21.1030   -0.0313 H   0  0  0  0  0  0  0  0  0  0  0  0
    3.7117   19.5118   -0.8619 H   0  0  0  0  0  0  0  0  0  0  0  0
    2.1861   20.4600   -0.8619 H   0  0  0  0  0  0  0  0  0  0  0  0
    3.4571   19.1515    2.9327 H   0  0  0  0  0  0  0  0  0  0  0  0
    3.9319   17.9523    1.6824 H   0  0  0  0  0  0  0  0  0  0  0  0
    4.6700   19.5899    1.6824 H   0  0  0  0  0  0  0  0  0  0  0  0
    1.7656   16.4118   -1.7102 H   0  0  0  0  0  0  0  0  0  0  0  0
    1.8079   15.8348    0.6370 H   0  0  0  0  0  0  0  0  0  0  0  0
    0.0728   15.4530    0.6533 H   0  0  0  0  0  0  0  0  0  0  0  0
    2.1942   13.5386    0.6436 H   0  0  0  0  0  0  0  0  0  0  0  0
    0.5146   13.1526    0.2784 H   0  0  0  0  0  0  0  0  0  0  0  0
    3.6373   14.2057   -0.5742 H   0  0  0  0  0  0  0  0  0  0  0  0
    3.8281   13.3237   -2.1274 H   0  0  0  0  0  0  0  0  0  0  0  0
    3.2794   15.0341   -2.1274 H   0  0  0  0  0  0  0  0  0  0  0  0
    0.5296   11.9232   -1.8089 H   0  0  0  0  0  0  0  0  0  0  0  0
    2.5850   11.3667   -0.3545 H   0  0  0  0  0  0  0  0  0  0  0  0
    1.8814   10.1302   -1.5228 H   0  0  0  0  0  0  0  0  0  0  0  0
    4.5097   10.2850   -1.4330 H   0  0  0  0  0  0  0  0  0  0  0  0
    3.4673   13.0572   -4.1773 H   0  0  0  0  0  0  0  0  0  0  0  0
    2.9355   10.3619   -5.5733 H   0  0  0  0  0  0  0  0  0  0  0  0
    2.6616   12.0224   -6.2641 H   0  0  0  0  0  0  0  0  0  0  0  0
    4.7313   10.9790   -7.1289 H   0  0  0  0  0  0  0  0  0  0  0  0
    5.0437   12.4840   -6.1784 H   0  0  0  0  0  0  0  0  0  0  0  0
    6.6780   10.8344   -5.5700 H   0  0  0  0  0  0  0  0  0  0  0  0
    4.3740    9.2010   -4.9990 H   0  0  0  0  0  0  0  0  0  0  0  0
    6.4035   12.8508   -2.5940 H   0  0  0  0  0  0  0  0  0  0  0  0
    7.2540   12.5491   -4.1471 H   0  0  0  0  0  0  0  0  0  0  0  0
    5.6272   13.3108   -4.1471 H   0  0  0  0  0  0  0  0  0  0  0  0
    6.3261   10.4139   -1.8176 H   0  0  0  0  0  0  0  0  0  0  0  0
    6.2535    9.1778   -3.1188 H   0  0  0  0  0  0  0  0  0  0  0  0
    7.5644   10.4058   -3.1188 H   0  0  0  0  0  0  0  0  0  0  0  0
    0.5680   10.2414   -3.1806 H   0  0  0  0  0  0  0  0  0  0  0  0
    0.0145   11.0655   -4.6777 H   0  0  0  0  0  0  0  0  0  0  0  0
    1.5558   10.1429   -4.6777 H   0  0  0  0  0  0  0  0  0  0  0  0
    1.3599   13.3731   -5.3749 H   0  0  0  0  0  0  0  0  0  0  0  0
   -0.1318   13.0293   -4.3309 H   0  0  0  0  0  0  0  0  0  0  0  0
    2.0823   15.0269   -3.7912 H   0  0  0  0  0  0  0  0  0  0  0  0
    0.3411   15.3435   -4.1598 H   0  0  0  0  0  0  0  0  0  0  0  0
   -1.0568   14.0207   -1.0089 H   0  0  0  0  0  0  0  0  0  0  0  0
   -1.4322   14.8452   -2.5599 H   0  0  0  0  0  0  0  0  0  0  0  0
   -0.9092   13.1268   -2.5599 H   0  0  0  0  0  0  0  0  0  0  0  0
  1  2  1  0
  2  3  1  0
  3  4  1  0
  4  5  1  0
  5  6  1  0
  6  7  1  0
  7  8  1  0
  7  9  1  0
  2 10  1  0
 10 11  1  0
 11 12  1  0
 12 13  1  0
 13 14  1  1
 13 15  1  0
 15 16  1  0
 16 17  1  0
 17 18  2  0
 18 19  1  0
 19 20  1  0
 20 21  1  0
 21 22  1  0
 22 23  1  0
 22 24  1  0
 24 25  1  0
 24 26  1  0
 19 27  1  0
 27 28  1  6
 27 29  1  0
 29 30  1  0
 30 31  1  0
 31 32  1  6
  7  5  1  0
 31 10  1  0
 31 13  1  0
 27 15  1  0
 24 18  1  0
  1 33  1  0
  1 34  1  0
  1 35  1  0
  2 36  1  6
  3 37  1  0
  3 38  1  0
  4 39  1  0
  4 40  1  0
  5 41  1  1
  8 42  1  0
  8 43  1  0
  8 44  1  0
  9 45  1  0
  9 46  1  0
  9 47  1  0
 10 48  1  6
 11 49  1  0
 11 50  1  0
 12 51  1  0
 12 52  1  0
 14 53  1  0
 14 54  1  0
 14 55  1  0
 15 56  1  6
 16 57  1  0
 16 58  1  0
 17 59  1  0
 19 60  1  6
 20 61  1  0
 20 62  1  0
 21 63  1  0
 21 64  1  0
 22 65  1  6
 23 66  1  0
 25 67  1  0
 25 68  1  0
 25 69  1  0
 26 70  1  0
 26 71  1  0
 26 72  1  0
 28 73  1  0
 28 74  1  0
 28 75  1  0
 29 76  1  0
 29 77  1  0
 30 78  1  0
 30 79  1  0
 32 80  1  0
 32 81  1  0
 32 82  1  0
M  END
>  <meeko>  (15) 
{"is_sidechain": [false], "intermolecular_energy": 2.731, "internal_energy": -0.839}

$$$$
EPH_relaxed_0001_pdb2pqr_Repair_228_r2_0001_out
     RDKit          3D

 82 86  0  0  0  0  0  0  0  0999 V2000
   -0.0500    9.2970   -4.1260 C   0  0  0  0  0  0  0  0  0  0  0  0
    0.0930    9.5170   -2.6170 C   0  0  2  0  0  0  0  0  0  0  0  0
   -0.7170    8.4900   -1.8010 C   0  0  0  0  0  0  0  0  0  0  0  0
   -2.2280    8.5730   -2.0330 C   0  0  0  0  0  0  0  0  0  0  0  0
   -2.7630    7.3170   -2.6520 C   0  0  2  0  0  0  0  0  0  0  0  0
   -3.7930    7.5230   -3.6270 O   0  0  0  0  0  0  0  0  0  0  0  0
   -4.1790    6.8160   -2.4370 C   0  0  0  0  0  0  0  0  0  0  0  0
   -5.1480    7.5620   -1.5740 C   0  0  0  0  0  0  0  0  0  0  0  0
   -4.4670    5.3650   -2.6640 C   0  0  0  0  0  0  0  0  0  0  0  0
   -0.3430   10.9320   -2.2540 C   0  0  1  0  0  0  0  0  0  0  0  0
   -1.5600   10.9530   -1.2920 C   0  0  0  0  0  0  0  0  0  0  0  0
   -1.3660   12.1700   -0.3510 C   0  0  0  0  0  0  0  0  0  0  0  0
   -0.2330   12.9930   -1.0080 C   0  0  1  0  0  0  0  0  0  0  0  0
   -0.9360   13.8150   -2.1340 C   0  0  0  0  0  0  0  0  0  0  0  0
    0.5960   13.9130   -0.0540 C   0  0  2  0  0  0  0  0  0  0  0  0
   -0.2070   15.0290    0.6370 C   0  0  0  0  0  0  0  0  0  0  0  0
   -0.2660   16.3240   -0.1020 C   0  0  0  0  0  0  0  0  0  0  0  0
    0.5320   16.6760   -1.1280 C   0  0  0  0  0  0  0  0  0  0  0  0
    1.6810   15.7660   -1.5800 C   0  0  1  0  0  0  0  0  0  0  0  0
    2.9660   16.6130   -1.7750 C   0  0  0  0  0  0  0  0  0  0  0  0
    2.7510   17.7940   -2.7170 C   0  0  0  0  0  0  0  0  0  0  0  0
    1.6400   18.7060   -2.2040 C   0  0  2  0  0  0  0  0  0  0  0  0
    2.0750   19.3230   -0.9880 O   0  0  0  0  0  0  0  0  0  0  0  0
    0.2980   17.9610   -1.9610 C   0  0  0  0  0  0  0  0  0  0  0  0
   -0.3240   17.5530   -3.3190 C   0  0  0  0  0  0  0  0  0  0  0  0
   -0.6940   18.9630   -1.3110 C   0  0  0  0  0  0  0  0  0  0  0  0
    1.9320   14.4730   -0.6910 C   0  0  1  0  0  0  0  0  0  0  0  0
    2.8810   14.8190    0.4960 C   0  0  0  0  0  0  0  0  0  0  0  0
    2.6800   13.3910   -1.5570 C   0  0  0  0  0  0  0  0  0  0  0  0
    1.8020   12.4350   -2.3860 C   0  0  0  0  0  0  0  0  0  0  0  0
    0.6880   11.8290   -1.5260 C   0  0  2  0  0  0  0  0  0  0  0  0
    1.3650   10.9780   -0.3980 C   0  0  0  0  0  0  0  0  0  0  0  0
   -0.6411    8.3876   -4.3096 H   0  0  0  0  0  0  0  0  0  0  0  0
   -0.5589   10.1622   -4.5761 H   0  0  0  0  0  0  0  0  0  0  0  0
    0.9472    9.1832   -4.5761 H   0  0  0  0  0  0  0  0  0  0  0  0
    1.1539    9.3782   -2.3616 H   0  0  0  0  0  0  0  0  0  0  0  0
   -0.3780    7.4810   -2.0785 H   0  0  0  0  0  0  0  0  0  0  0  0
   -0.5423    8.7142   -0.7384 H   0  0  0  0  0  0  0  0  0  0  0  0
   -2.7287    8.7359   -1.0672 H   0  0  0  0  0  0  0  0  0  0  0  0
   -2.4239    9.4064   -2.7237 H   0  0  0  0  0  0  0  0  0  0  0  0
   -1.7840    6.8245   -2.5570 H   0  0  0  0  0  0  0  0  0  0  0  0
   -4.9116    7.3800   -0.5152 H   0  0  0  0  0  0  0  0  0  0  0  0
   -5.0744    8.6388   -1.7863 H   0  0  0  0  0  0  0  0  0  0  0  0
   -6.1702    7.2155   -1.7863 H   0  0  0  0  0  0  0  0  0  0  0  0
   -4.5682    4.8552   -1.6945 H   0  0  0  0  0  0  0  0  0  0  0  0
   -5.4032    5.2615   -3.2322 H   0  0  0  0  0  0  0  0  0  0  0  0
   -3.6413    4.9118   -3.2322 H   0  0  0  0  0  0  0  0  0  0  0  0
   -0.5408   11.3282   -3.2609 H   0  0  0  0  0  0  0  0  0  0  0  0
   -2.4932   11.0616   -1.8642 H   0  0  0  0  0  0  0  0  0  0  0  0
   -1.6258   10.0168   -0.7182 H   0  0  0  0  0  0  0  0  0  0  0  0
   -2.2902   12.7630   -0.2872 H   0  0  0  0  0  0  0  0  0  0  0  0
   -1.1200   11.8675    0.6776 H   0  0  0  0  0  0  0  0  0  0  0  0
   -1.5872   14.5764   -1.6800 H   0  0  0  0  0  0  0  0  0  0  0  0
   -0.1755   14.3076   -2.7577 H   0  0  0  0  0  0  0  0  0  0  0  0
   -1.5406   13.1401   -2.7577 H   0  0  0  0  0  0  0  0  0  0  0  0
    0.8908   13.2173    0.7454 H   0  0  0  0  0  0  0  0  0  0  0  0
   -1.2374   14.6699    0.7760 H   0  0  0  0  0  0  0  0  0  0  0  0
    0.3172   15.2411    1.5805 H   0  0  0  0  0  0  0  0  0  0  0  0
   -1.0254   17.0525    0.2183 H   0  0  0  0  0  0  0  0  0  0  0  0
    1.3676   15.3357   -2.5426 H   0  0  0  0  0  0  0  0  0  0  0  0
    3.2871   16.9971   -0.7955 H   0  0  0  0  0  0  0  0  0  0  0  0
    3.7300   15.9619   -2.2248 H   0  0  0  0  0  0  0  0  0  0  0  0
    3.6849   18.3706   -2.7903 H   0  0  0  0  0  0  0  0  0  0  0  0
    2.4593   17.4068   -3.7044 H   0  0  0  0  0  0  0  0  0  0  0  0
    1.4442   19.4573   -2.9832 H   0  0  0  0  0  0  0  0  0  0  0  0
    1.3250   19.3170   -0.3700 H   0  0  0  0  0  0  0  0  0  0  0  0
   -1.2318   16.9575   -3.1423 H   0  0  0  0  0  0  0  0  0  0  0  0
   -0.5836   18.4568   -3.8897 H   0  0  0  0  0  0  0  0  0  0  0  0
    0.4016   16.9548   -3.8897 H   0  0  0  0  0  0  0  0  0  0  0  0
   -0.6228   18.8911   -0.2157 H   0  0  0  0  0  0  0  0  0  0  0  0
   -0.4427   19.9858   -1.6284 H   0  0  0  0  0  0  0  0  0  0  0  0
   -1.7193   18.7220   -1.6284 H   0  0  0  0  0  0  0  0  0  0  0  0
    2.3622   14.6299    1.4474 H   0  0  0  0  0  0  0  0  0  0  0  0
    3.7829   14.1919    0.4392 H   0  0  0  0  0  0  0  0  0  0  0  0
    3.1676   15.8795    0.4392 H   0  0  0  0  0  0  0  0  0  0  0  0
    3.3424   13.9237   -2.2551 H   0  0  0  0  0  0  0  0  0  0  0  0
    3.1971   12.7481   -0.8295 H   0  0  0  0  0  0  0  0  0  0  0  0
    1.3501   12.9929   -3.2194 H   0  0  0  0  0  0  0  0  0  0  0  0
    2.4343   11.6194   -2.7668 H   0  0  0  0  0  0  0  0  0  0  0  0
    1.0586   11.3631    0.5858 H   0  0  0  0  0  0  0  0  0  0  0  0
    1.0530    9.9275   -0.4939 H   0  0  0  0  0  0  0  0  0  0  0  0
    2.4587   11.0459   -0.4939 H   0  0  0  0  0  0  0  0  0  0  0  0
  1  2  1  0
  2  3  1  0
  3  4  1  0
  4  5  1  0
  5  6  1  0
  6  7  1  0
  7  8  1  0
  7  9  1  0
  2 10  1  0
 10 11  1  0
 11 12  1  0
 12 13  1  0
 13 14  1  6
 13 15  1  0
 15 16  1  0
 16 17  1  0
 17 18  2  0
 18 19  1  0
 19 20  1  0
 20 21  1  0
 21 22  1  0
 22 23  1  0
 22 24  1  0
 24 25  1  0
 24 26  1  0
 19 27  1  0
 27 28  1  1
 27 29  1  0
 29 30  1  0
 30 31  1  0
 31 32  1  1
  7  5  1  0
 31 10  1  0
 31 13  1  0
 27 15  1  0
 24 18  1  0
  1 33  1  0
  1 34  1  0
  1 35  1  0
  2 36  1  1
  3 37  1  0
  3 38  1  0
  4 39  1  0
  4 40  1  0
  5 41  1  6
  8 42  1  0
  8 43  1  0
  8 44  1  0
  9 45  1  0
  9 46  1  0
  9 47  1  0
 10 48  1  6
 11 49  1  0
 11 50  1  0
 12 51  1  0
 12 52  1  0
 14 53  1  0
 14 54  1  0
 14 55  1  0
 15 56  1  1
 16 57  1  0
 16 58  1  0
 17 59  1  0
 19 60  1  6
 20 61  1  0
 20 62  1  0
 21 63  1  0
 21 64  1  0
 22 65  1  6
 23 66  1  0
 25 67  1  0
 25 68  1  0
 25 69  1  0
 26 70  1  0
 26 71  1  0
 26 72  1  0
 28 73  1  0
 28 74  1  0
 28 75  1  0
 29 76  1  0
 29 77  1  0
 30 78  1  0
 30 79  1  0
 32 80  1  0
 32 81  1  0
 32 82  1  0
M  END
>  <meeko>  (16) 
{"is_sidechain": [false], "intermolecular_energy": 2.731, "internal_energy": -0.839}

$$$$
EPH_relaxed_0001_pdb2pqr_Repair_228_r2_0001_out
     RDKit          3D

 82 86  0  0  0  0  0  0  0  0999 V2000
    0.9630   14.9630   -2.6930 C   0  0  0  0  0  0  0  0  0  0  0  0
    1.2050   14.2840   -4.0440 C   0  0  2  0  0  0  0  0  0  0  0  0
    0.4730   15.0030   -5.1950 C   0  0  0  0  0  0  0  0  0  0  0  0
    0.9810   14.6140   -6.5860 C   0  0  0  0  0  0  0  0  0  0  0  0
    0.8050   15.7290   -7.5720 C   0  0  2  0  0  0  0  0  0  0  0  0
    0.4160   15.3090   -8.8860 O   0  0  0  0  0  0  0  0  0  0  0  0
    1.7060   15.9310   -8.7760 C   0  0  0  0  0  0  0  0  0  0  0  0
    2.8520   15.0100   -9.0560 C   0  0  0  0  0  0  0  0  0  0  0  0
    1.7750   17.2910   -9.3970 C   0  0  0  0  0  0  0  0  0  0  0  0
    0.7670   12.8250   -3.9790 C   0  0  1  0  0  0  0  0  0  0  0  0
    1.9030   11.8420   -4.3670 C   0  0  0  0  0  0  0  0  0  0  0  0
    1.7230   10.5790   -3.4860 C   0  0  0  0  0  0  0  0  0  0  0  0
    0.3140   10.7350   -2.8660 C   0  0  1  0  0  0  0  0  0  0  0  0
   -0.6690   10.2520   -3.9780 C   0  0  0  0  0  0  0  0  0  0  0  0
    0.0680    9.9880   -1.5140 C   0  0  2  0  0  0  0  0  0  0  0  0
    0.1840    8.4550   -1.5850 C   0  0  0  0  0  0  0  0  0  0  0  0
   -1.0860    7.7330   -1.8920 C   0  0  0  0  0  0  0  0  0  0  0  0
   -2.3220    8.2600   -1.8230 C   0  0  0  0  0  0  0  0  0  0  0  0
   -2.5410    9.6880   -1.3070 C   0  0  1  0  0  0  0  0  0  0  0  0
   -3.7110    9.6970   -0.2880 C   0  0  0  0  0  0  0  0  0  0  0  0
   -4.9860    9.0790   -0.8560 C   0  0  0  0  0  0  0  0  0  0  0  0
   -4.7420    7.6410   -1.3040 C   0  0  2  0  0  0  0  0  0  0  0  0
   -4.4660    6.8390   -0.1510 O   0  0  0  0  0  0  0  0  0  0  0  0
   -3.5780    7.5060   -2.3250 C   0  0  0  0  0  0  0  0  0  0  0  0
   -4.0030    8.1200   -3.6820 C   0  0  0  0  0  0  0  0  0  0  0  0
   -3.3450    5.9940   -2.5870 C   0  0  0  0  0  0  0  0  0  0  0  0
   -1.2490   10.4330   -0.7580 C   0  0  1  0  0  0  0  0  0  0  0  0
   -1.0360   10.0890    0.7480 C   0  0  0  0  0  0  0  0  0  0  0  0
   -1.4830   11.9890   -0.8300 C   0  0  0  0  0  0  0  0  0  0  0  0
   -1.1090   12.6870   -2.1510 C   0  0  0  0  0  0  0  0  0  0  0  0
    0.2980   12.2850   -2.6040 C   0  0  2  0  0  0  0  0  0  0  0  0
    1.3110   12.7770   -1.5150 C   0  0  0  0  0  0  0  0  0  0  0  0
    1.2122   14.2637   -1.8813 H   0  0  0  0  0  0  0  0  0  0  0  0
    1.5975   15.8581   -2.6136 H   0  0  0  0  0  0  0  0  0  0  0  0
   -0.0946   15.2550   -2.6136 H   0  0  0  0  0  0  0  0  0  0  0  0
    2.2835   14.3393   -4.2532 H   0  0  0  0  0  0  0  0  0  0  0  0
   -0.5970   14.7554   -5.1343 H   0  0  0  0  0  0  0  0  0  0  0  0
    0.6623   16.0797   -5.0733 H   0  0  0  0  0  0  0  0  0  0  0  0
    2.0500   14.3636   -6.5180 H   0  0  0  0  0  0  0  0  0  0  0  0
    0.3956   13.7510   -6.9360 H   0  0  0  0  0  0  0  0  0  0  0  0
    0.4725   16.4122   -6.7765 H   0  0  0  0  0  0  0  0  0  0  0  0
    3.2840   14.6628   -8.1058 H   0  0  0  0  0  0  0  0  0  0  0  0
    2.4945   14.1451   -9.6340 H   0  0  0  0  0  0  0  0  0  0  0  0
    3.6198   15.5452   -9.6340 H   0  0  0  0  0  0  0  0  0  0  0  0
    1.8137   18.0539   -8.6055 H   0  0  0  0  0  0  0  0  0  0  0  0
    2.6780   17.3638  -10.0209 H   0  0  0  0  0  0  0  0  0  0  0  0
    0.8840   17.4548  -10.0209 H   0  0  0  0  0  0  0  0  0  0  0  0
   -0.0794   12.8546   -4.6809 H   0  0  0  0  0  0  0  0  0  0  0  0
    1.8259   11.5753   -5.4314 H   0  0  0  0  0  0  0  0  0  0  0  0
    2.8912   12.2977   -4.2063 H   0  0  0  0  0  0  0  0  0  0  0  0
    1.7793    9.6669   -4.0983 H   0  0  0  0  0  0  0  0  0  0  0  0
    2.5082   10.4879   -2.7211 H   0  0  0  0  0  0  0  0  0  0  0  0
   -1.5631    9.8127   -3.5115 H   0  0  0  0  0  0  0  0  0  0  0  0
   -0.9644   11.1075   -4.6031 H   0  0  0  0  0  0  0  0  0  0  0  0
   -0.1723    9.4954   -4.6031 H   0  0  0  0  0  0  0  0  0  0  0  0
    0.9173   10.3241   -0.9010 H   0  0  0  0  0  0  0  0  0  0  0  0
    0.9148    8.2053   -2.3683 H   0  0  0  0  0  0  0  0  0  0  0  0
    0.4859    8.1258   -0.5798 H   0  0  0  0  0  0  0  0  0  0  0  0
   -1.0043    6.6804   -2.2010 H   0  0  0  0  0  0  0  0  0  0  0  0
   -2.8076   10.2913   -2.1873 H   0  0  0  0  0  0  0  0  0  0  0  0
   -3.4082    9.1256    0.6018 H   0  0  0  0  0  0  0  0  0  0  0  0
   -3.9300   10.7461   -0.0399 H   0  0  0  0  0  0  0  0  0  0  0  0
   -5.7663    9.0871   -0.0808 H   0  0  0  0  0  0  0  0  0  0  0  0
   -5.3041    9.6693   -1.7280 H   0  0  0  0  0  0  0  0  0  0  0  0
   -5.6516    7.2975   -1.8185 H   0  0  0  0  0  0  0  0  0  0  0  0
   -4.8710    5.9670   -0.2960 H   0  0  0  0  0  0  0  0  0  0  0  0
   -4.6207    9.0124   -3.5032 H   0  0  0  0  0  0  0  0  0  0  0  0
   -3.1066    8.4030   -4.2532 H   0  0  0  0  0  0  0  0  0  0  0  0
   -4.5835    7.3806   -4.2532 H   0  0  0  0  0  0  0  0  0  0  0  0
   -3.2633    5.4638   -1.6267 H   0  0  0  0  0  0  0  0  0  0  0  0
   -4.1910    5.5865   -3.1600 H   0  0  0  0  0  0  0  0  0  0  0  0
   -2.4156    5.8601   -3.1600 H   0  0  0  0  0  0  0  0  0  0  0  0
   -1.5132   10.8597    1.3712 H   0  0  0  0  0  0  0  0  0  0  0  0
   -1.4859    9.1095    0.9676 H   0  0  0  0  0  0  0  0  0  0  0  0
    0.0413   10.0552    0.9676 H   0  0  0  0  0  0  0  0  0  0  0  0
   -2.5519   12.1736   -0.6471 H   0  0  0  0  0  0  0  0  0  0  0  0
   -0.8057   12.4171   -0.0764 H   0  0  0  0  0  0  0  0  0  0  0  0
   -1.8330   12.3994   -2.9276 H   0  0  0  0  0  0  0  0  0  0  0  0
   -1.1285   13.7751   -1.9906 H   0  0  0  0  0  0  0  0  0  0  0  0
    0.8996   12.5772   -0.5146 H   0  0  0  0  0  0  0  0  0  0  0  0
    2.2647   12.2417   -1.6329 H   0  0  0  0  0  0  0  0  0  0  0  0
    1.4800   13.8575   -1.6329 H   0  0  0  0  0  0  0  0  0  0  0  0
  1  2  1  0
  2  3  1  0
  3  4  1  0
  4  5  1  0
  5  6  1  0
  6  7  1  0
  7  8  1  0
  7  9  1  0
  2 10  1  0
 10 11  1  0
 11 12  1  0
 12 13  1  0
 13 14  1  6
 13 15  1  0
 15 16  1  0
 16 17  1  0
 17 18  2  0
 18 19  1  0
 19 20  1  0
 20 21  1  0
 21 22  1  0
 22 23  1  0
 22 24  1  0
 24 25  1  0
 24 26  1  0
 19 27  1  0
 27 28  1  1
 27 29  1  0
 29 30  1  0
 30 31  1  0
 31 32  1  1
  7  5  1  0
 31 10  1  0
 31 13  1  0
 27 15  1  0
 24 18  1  0
  1 33  1  0
  1 34  1  0
  1 35  1  0
  2 36  1  6
  3 37  1  0
  3 38  1  0
  4 39  1  0
  4 40  1  0
  5 41  1  1
  8 42  1  0
  8 43  1  0
  8 44  1  0
  9 45  1  0
  9 46  1  0
  9 47  1  0
 10 48  1  6
 11 49  1  0
 11 50  1  0
 12 51  1  0
 12 52  1  0
 14 53  1  0
 14 54  1  0
 14 55  1  0
 15 56  1  1
 16 57  1  0
 16 58  1  0
 17 59  1  0
 19 60  1  6
 20 61  1  0
 20 62  1  0
 21 63  1  0
 21 64  1  0
 22 65  1  6
 23 66  1  0
 25 67  1  0
 25 68  1  0
 25 69  1  0
 26 70  1  0
 26 71  1  0
 26 72  1  0
 28 73  1  0
 28 74  1  0
 28 75  1  0
 29 76  1  0
 29 77  1  0
 30 78  1  0
 30 79  1  0
 32 80  1  0
 32 81  1  0
 32 82  1  0
M  END
>  <meeko>  (17) 
{"is_sidechain": [false], "intermolecular_energy": 2.731, "internal_energy": -0.839}

$$$$
EPH_relaxed_0001_pdb2pqr_Repair_228_r2_0001_out
     RDKit          3D

 82 86  0  0  0  0  0  0  0  0999 V2000
    0.9570   19.1420   -2.3390 C   0  0  0  0  0  0  0  0  0  0  0  0
    0.1750   18.1080   -1.5250 C   0  0  2  0  0  0  0  0  0  0  0  0
    0.3080   18.3430   -0.0070 C   0  0  0  0  0  0  0  0  0  0  0  0
    1.2930   19.4570    0.3600 C   0  0  0  0  0  0  0  0  0  0  0  0
    2.1250   19.0920    1.5520 C   0  0  2  0  0  0  0  0  0  0  0  0
    2.8010   20.1940    2.1700 O   0  0  0  0  0  0  0  0  0  0  0  0
    3.6390   19.1890    1.5770 C   0  0  0  0  0  0  0  0  0  0  0  0
    4.4100   19.6650    0.3860 C   0  0  0  0  0  0  0  0  0  0  0  0
    4.3920   18.3660    2.5750 C   0  0  0  0  0  0  0  0  0  0  0  0
    0.6480   16.7030   -1.8780 C   0  0  1  0  0  0  0  0  0  0  0  0
    2.1010   16.6810   -2.4220 C   0  0  0  0  0  0  0  0  0  0  0  0
    2.7480   15.3640   -1.9200 C   0  0  0  0  0  0  0  0  0  0  0  0
    1.5610   14.5250   -1.3910 C   0  0  1  0  0  0  0  0  0  0  0  0
    0.9300   13.8770   -2.6630 C   0  0  0  0  0  0  0  0  0  0  0  0
    1.9030   13.4520   -0.3060 C   0  0  2  0  0  0  0  0  0  0  0  0
    2.8600   12.3390   -0.7670 C   0  0  0  0  0  0  0  0  0  0  0  0
    2.2020   11.1330   -1.3500 C   0  0  0  0  0  0  0  0  0  0  0  0
    0.8970   10.8240   -1.2390 C   0  0  0  0  0  0  0  0  0  0  0  0
   -0.0460   11.6820   -0.3850 C   0  0  1  0  0  0  0  0  0  0  0  0
   -0.9190   10.7600    0.5070 C   0  0  0  0  0  0  0  0  0  0  0  0
   -1.6630    9.7000   -0.2990 C   0  0  0  0  0  0  0  0  0  0  0  0
   -0.6880    8.8310   -1.0890 C   0  0  2  0  0  0  0  0  0  0  0  0
    0.0950    8.0640   -0.1690 O   0  0  0  0  0  0  0  0  0  0  0  0
    0.2500    9.6510   -2.0170 C   0  0  0  0  0  0  0  0  0  0  0  0
   -0.5660   10.2390   -3.1940 C   0  0  0  0  0  0  0  0  0  0  0  0
    1.2750    8.6700   -2.6470 C   0  0  0  0  0  0  0  0  0  0  0  0
    0.6390   12.8560    0.4370 C   0  0  1  0  0  0  0  0  0  0  0  0
    1.1430   12.3200    1.8120 C   0  0  0  0  0  0  0  0  0  0  0  0
   -0.4400   13.9570    0.7580 C   0  0  0  0  0  0  0  0  0  0  0  0
   -0.6470   15.0570   -0.3000 C   0  0  0  0  0  0  0  0  0  0  0  0
    0.6930   15.6590   -0.7340 C   0  0  2  0  0  0  0  0  0  0  0  0
    1.3410   16.3380    0.5200 C   0  0  0  0  0  0  0  0  0  0  0  0
    1.4770   19.8295   -1.6557 H   0  0  0  0  0  0  0  0  0  0  0  0
    1.6943   18.6280   -2.9731 H   0  0  0  0  0  0  0  0  0  0  0  0
    0.2616   19.7115   -2.9731 H   0  0  0  0  0  0  0  0  0  0  0  0
   -0.8883   18.2182   -1.7841 H   0  0  0  0  0  0  0  0  0  0  0  0
   -0.6821   18.6099    0.3911 H   0  0  0  0  0  0  0  0  0  0  0  0
    0.6989   17.4119    0.4292 H   0  0  0  0  0  0  0  0  0  0  0  0
    1.9586   19.6405   -0.4964 H   0  0  0  0  0  0  0  0  0  0  0  0
    0.7135   20.3580    0.6097 H   0  0  0  0  0  0  0  0  0  0  0  0
    1.4335   18.2779    1.8148 H   0  0  0  0  0  0  0  0  0  0  0  0
    5.3012   20.2152    0.7221 H   0  0  0  0  0  0  0  0  0  0  0  0
    4.7196   18.8006   -0.2198 H   0  0  0  0  0  0  0  0  0  0  0  0
    3.7759   20.3291   -0.2198 H   0  0  0  0  0  0  0  0  0  0  0  0
    4.1097   18.6746    3.5924 H   0  0  0  0  0  0  0  0  0  0  0  0
    4.1472   17.3030    2.4330 H   0  0  0  0  0  0  0  0  0  0  0  0
    5.4725   18.5156    2.4330 H   0  0  0  0  0  0  0  0  0  0  0  0
   -0.1257   16.4267   -2.6095 H   0  0  0  0  0  0  0  0  0  0  0  0
    2.0939   16.7042   -3.5217 H   0  0  0  0  0  0  0  0  0  0  0  0
    2.6667   17.5570   -2.0717 H   0  0  0  0  0  0  0  0  0  0  0  0
    3.2562   14.8419   -2.7441 H   0  0  0  0  0  0  0  0  0  0  0  0
    3.5112   15.5412   -1.1480 H   0  0  0  0  0  0  0  0  0  0  0  0
    0.1921   13.1192   -2.3608 H   0  0  0  0  0  0  0  0  0  0  0  0
    0.4331   14.6541   -3.2623 H   0  0  0  0  0  0  0  0  0  0  0  0
    1.7201   13.4009   -3.2623 H   0  0  0  0  0  0  0  0  0  0  0  0
    2.4634   14.0387    0.4368 H   0  0  0  0  0  0  0  0  0  0  0  0
    3.5310   12.7619   -1.5292 H   0  0  0  0  0  0  0  0  0  0  0  0
    3.3824   11.9932    0.1372 H   0  0  0  0  0  0  0  0  0  0  0  0
    2.8374   10.4380   -1.9185 H   0  0  0  0  0  0  0  0  0  0  0  0
   -0.6849   12.2297   -1.0934 H   0  0  0  0  0  0  0  0  0  0  0  0
   -0.2680   10.2558    1.2364 H   0  0  0  0  0  0  0  0  0  0  0  0
   -1.6711   11.3907    1.0036 H   0  0  0  0  0  0  0  0  0  0  0  0
   -2.2376    9.0623    0.3889 H   0  0  0  0  0  0  0  0  0  0  0  0
   -2.3357   10.2057   -1.0073 H   0  0  0  0  0  0  0  0  0  0  0  0
   -1.2838    8.1783   -1.7440 H   0  0  0  0  0  0  0  0  0  0  0  0
    0.5330    8.6860    0.4350 H   0  0  0  0  0  0  0  0  0  0  0  0
   -1.3989   10.8392   -2.7990 H   0  0  0  0  0  0  0  0  0  0  0  0
    0.0856   10.8765   -3.8096 H   0  0  0  0  0  0  0  0  0  0  0  0
   -0.9645    9.4191   -3.8096 H   0  0  0  0  0  0  0  0  0  0  0  0
    1.8212    8.1473   -1.8480 H   0  0  0  0  0  0  0  0  0  0  0  0
    0.7441    7.9349   -3.2697 H   0  0  0  0  0  0  0  0  0  0  0  0
    1.9861    9.2327   -3.2697 H   0  0  0  0  0  0  0  0  0  0  0  0
    0.6351   12.8601    2.6246 H   0  0  0  0  0  0  0  0  0  0  0  0
    0.9204   11.2456    1.8907 H   0  0  0  0  0  0  0  0  0  0  0  0
    2.2290   12.4761    1.8907 H   0  0  0  0  0  0  0  0  0  0  0  0
   -1.4040   13.4466    0.9001 H   0  0  0  0  0  0  0  0  0  0  0  0
   -0.0600   14.4813    1.6472 H   0  0  0  0  0  0  0  0  0  0  0  0
   -1.1475   14.6224   -1.1779 H   0  0  0  0  0  0  0  0  0  0  0  0
   -1.2641   15.8546    0.1393 H   0  0  0  0  0  0  0  0  0  0  0  0
    0.9195   15.8963    1.4350 H   0  0  0  0  0  0  0  0  0  0  0  0
    2.4290   16.1772    0.5028 H   0  0  0  0  0  0  0  0  0  0  0  0
    1.1296   17.4174    0.5028 H   0  0  0  0  0  0  0  0  0  0  0  0
  1  2  1  0
  2  3  1  0
  3  4  1  0
  4  5  1  0
  5  6  1  0
  6  7  1  0
  7  8  1  0
  7  9  1  0
  2 10  1  0
 10 11  1  0
 11 12  1  0
 12 13  1  0
 13 14  1  6
 13 15  1  0
 15 16  1  0
 16 17  1  0
 17 18  2  0
 18 19  1  0
 19 20  1  0
 20 21  1  0
 21 22  1  0
 22 23  1  0
 22 24  1  0
 24 25  1  0
 24 26  1  0
 19 27  1  0
 27 28  1  1
 27 29  1  0
 29 30  1  0
 30 31  1  0
 31 32  1  1
  7  5  1  0
 31 10  1  0
 31 13  1  0
 27 15  1  0
 24 18  1  0
  1 33  1  0
  1 34  1  0
  1 35  1  0
  2 36  1  6
  3 37  1  0
  3 38  1  0
  4 39  1  0
  4 40  1  0
  5 41  1  1
  8 42  1  0
  8 43  1  0
  8 44  1  0
  9 45  1  0
  9 46  1  0
  9 47  1  0
 10 48  1  6
 11 49  1  0
 11 50  1  0
 12 51  1  0
 12 52  1  0
 14 53  1  0
 14 54  1  0
 14 55  1  0
 15 56  1  1
 16 57  1  0
 16 58  1  0
 17 59  1  0
 19 60  1  6
 20 61  1  0
 20 62  1  0
 21 63  1  0
 21 64  1  0
 22 65  1  6
 23 66  1  0
 25 67  1  0
 25 68  1  0
 25 69  1  0
 26 70  1  0
 26 71  1  0
 26 72  1  0
 28 73  1  0
 28 74  1  0
 28 75  1  0
 29 76  1  0
 29 77  1  0
 30 78  1  0
 30 79  1  0
 32 80  1  0
 32 81  1  0
 32 82  1  0
M  END
>  <meeko>  (18) 
{"is_sidechain": [false], "intermolecular_energy": 2.731, "internal_energy": -0.839}

$$$$
