EPH_relaxed_0001_pdb2pqr_Repair_396_r2_0001_out
     RDKit          3D

 82 86  0  0  0  0  0  0  0  0999 V2000
   -1.8470    8.8170   -1.8240 C   0  0  0  0  0  0  0  0  0  0  0  0
   -1.8450    9.0860   -0.3170 C   0  0  2  0  0  0  0  0  0  0  0  0
   -3.2700    9.2650    0.2440 C   0  0  0  0  0  0  0  0  0  0  0  0
   -4.3620    9.2300   -0.8280 C   0  0  0  0  0  0  0  0  0  0  0  0
   -5.0920    7.9210   -0.8320 C   0  0  2  0  0  0  0  0  0  0  0  0
   -5.3640    7.3920   -2.1360 O   0  0  0  0  0  0  0  0  0  0  0  0
   -6.5090    7.7560   -1.3490 C   0  0  0  0  0  0  0  0  0  0  0  0
   -7.2810    8.9150   -1.8970 C   0  0  0  0  0  0  0  0  0  0  0  0
   -7.3120    6.5840   -0.8740 C   0  0  0  0  0  0  0  0  0  0  0  0
   -1.0050   10.3210   -0.0110 C   0  0  1  0  0  0  0  0  0  0  0  0
    0.0760   10.0560    1.0710 C   0  0  0  0  0  0  0  0  0  0  0  0
    1.3100   10.9140    0.6890 C   0  0  0  0  0  0  0  0  0  0  0  0
    0.7890   11.8850   -0.3950 C   0  0  1  0  0  0  0  0  0  0  0  0
    0.0820   13.0290    0.3970 C   0  0  0  0  0  0  0  0  0  0  0  0
    1.8570   12.4470   -1.3900 C   0  0  2  0  0  0  0  0  0  0  0  0
    2.9640   13.3000   -0.7460 C   0  0  0  0  0  0  0  0  0  0  0  0
    2.6770   14.7630   -0.6680 C   0  0  0  0  0  0  0  0  0  0  0  0
    1.7100   15.4080   -1.3470 C   0  0  0  0  0  0  0  0  0  0  0  0
    0.8440   14.6700   -2.3760 C   0  0  1  0  0  0  0  0  0  0  0  0
    0.7450   15.5170   -3.6720 C   0  0  0  0  0  0  0  0  0  0  0  0
    0.2530   16.9370   -3.4070 C   0  0  0  0  0  0  0  0  0  0  0  0
    1.1720   17.6570   -2.4240 C   0  0  2  0  0  0  0  0  0  0  0  0
    2.4470   17.8550   -3.0440 O   0  0  0  0  0  0  0  0  0  0  0  0
    1.3560   16.8920   -1.0830 C   0  0  0  0  0  0  0  0  0  0  0  0
    0.0390   16.9410   -0.2710 C   0  0  0  0  0  0  0  0  0  0  0  0
    2.4150   17.6540   -0.2400 C   0  0  0  0  0  0  0  0  0  0  0  0
    1.2450   13.1590   -2.6640 C   0  0  1  0  0  0  0  0  0  0  0  0
    2.3390   13.1010   -3.7740 C   0  0  0  0  0  0  0  0  0  0  0  0
   -0.0070   12.3940   -3.2330 C   0  0  0  0  0  0  0  0  0  0  0  0
   -0.9610   11.7590   -2.2030 C   0  0  0  0  0  0  0  0  0  0  0  0
   -0.1850   10.9300   -1.1760 C   0  0  2  0  0  0  0  0  0  0  0  0
    0.5190    9.7580   -1.9410 C   0  0  0  0  0  0  0  0  0  0  0  0
   -1.8551    7.7316   -2.0027 H   0  0  0  0  0  0  0  0  0  0  0  0
   -2.7418    9.2697   -2.2761 H   0  0  0  0  0  0  0  0  0  0  0  0
   -0.9456    9.2564   -2.2761 H   0  0  0  0  0  0  0  0  0  0  0  0
   -1.4057    8.2059    0.1754 H   0  0  0  0  0  0  0  0  0  0  0  0
   -3.4640    8.4562    0.9639 H   0  0  0  0  0  0  0  0  0  0  0  0
   -3.3092   10.2604    0.7105 H   0  0  0  0  0  0  0  0  0  0  0  0
   -5.0811   10.0388   -0.6311 H   0  0  0  0  0  0  0  0  0  0  0  0
   -3.8833    9.3591   -1.8099 H   0  0  0  0  0  0  0  0  0  0  0  0
   -4.6109    7.6221    0.1110 H   0  0  0  0  0  0  0  0  0  0  0  0
   -7.6807    9.5150   -1.0662 H   0  0  0  0  0  0  0  0  0  0  0  0
   -6.6174    9.5388   -2.5138 H   0  0  0  0  0  0  0  0  0  0  0  0
   -8.1124    8.5430   -2.5138 H   0  0  0  0  0  0  0  0  0  0  0  0
   -7.3227    6.5684    0.2258 H   0  0  0  0  0  0  0  0  0  0  0  0
   -8.3424    6.6691   -1.2495 H   0  0  0  0  0  0  0  0  0  0  0  0
   -6.8606    5.6538   -1.2495 H   0  0  0  0  0  0  0  0  0  0  0  0
   -1.8026   11.0157    0.2911 H   0  0  0  0  0  0  0  0  0  0  0  0
   -0.2991   10.3518    2.0619 H   0  0  0  0  0  0  0  0  0  0  0  0
    0.3359    8.9881    1.1168 H   0  0  0  0  0  0  0  0  0  0  0  0
    1.6817   11.4701    1.5623 H   0  0  0  0  0  0  0  0  0  0  0  0
    2.1499   10.3006    0.3309 H   0  0  0  0  0  0  0  0  0  0  0  0
    0.1926   12.8501    1.4767 H   0  0  0  0  0  0  0  0  0  0  0  0
    0.5416   13.9938    0.1363 H   0  0  0  0  0  0  0  0  0  0  0  0
   -0.9865   13.0494    0.1363 H   0  0  0  0  0  0  0  0  0  0  0  0
    2.3538   11.5318   -1.7443 H   0  0  0  0  0  0  0  0  0  0  0  0
    3.1262   12.9303    0.2772 H   0  0  0  0  0  0  0  0  0  0  0  0
    3.8452   13.1968   -1.3963 H   0  0  0  0  0  0  0  0  0  0  0  0
    3.3094   15.3650    0.0011 H   0  0  0  0  0  0  0  0  0  0  0  0
   -0.1514   14.5689   -1.9189 H   0  0  0  0  0  0  0  0  0  0  0  0
    1.7411   15.5697   -4.1357 H   0  0  0  0  0  0  0  0  0  0  0  0
    0.0152   15.0291   -4.3348 H   0  0  0  0  0  0  0  0  0  0  0  0
    0.2328   17.4940   -4.3553 H   0  0  0  0  0  0  0  0  0  0  0  0
   -0.7555   16.8840   -2.9711 H   0  0  0  0  0  0  0  0  0  0  0  0
    0.6984   18.6179   -2.1741 H   0  0  0  0  0  0  0  0  0  0  0  0
    3.0250   17.1240   -2.7660 H   0  0  0  0  0  0  0  0  0  0  0  0
    0.2707   16.9324    0.8043 H   0  0  0  0  0  0  0  0  0  0  0  0
   -0.5114   17.8602   -0.5201 H   0  0  0  0  0  0  0  0  0  0  0  0
   -0.5782   16.0652   -0.5201 H   0  0  0  0  0  0  0  0  0  0  0  0
    2.2081   17.5051    0.8301 H   0  0  0  0  0  0  0  0  0  0  0  0
    3.4180   17.2692   -0.4765 H   0  0  0  0  0  0  0  0  0  0  0  0
    2.3688   18.7273   -0.4765 H   0  0  0  0  0  0  0  0  0  0  0  0
    3.3333   13.0483   -3.3065 H   0  0  0  0  0  0  0  0  0  0  0  0
    2.1801   12.2100   -4.3992 H   0  0  0  0  0  0  0  0  0  0  0  0
    2.2752   14.0038   -4.3992 H   0  0  0  0  0  0  0  0  0  0  0  0
   -0.5910   13.1097   -3.8303 H   0  0  0  0  0  0  0  0  0  0  0  0
    0.4068   11.5481   -3.8015 H   0  0  0  0  0  0  0  0  0  0  0  0
   -1.5097   12.5568   -1.6810 H   0  0  0  0  0  0  0  0  0  0  0  0
   -1.6594   11.0954   -2.7340 H   0  0  0  0  0  0  0  0  0  0  0  0
    0.9445    9.0496   -1.2150 H   0  0  0  0  0  0  0  0  0  0  0  0
   -0.2165    9.2383   -2.5726 H   0  0  0  0  0  0  0  0  0  0  0  0
    1.3233   10.1632   -2.5726 H   0  0  0  0  0  0  0  0  0  0  0  0
  1  2  1  0
  2  3  1  0
  3  4  1  0
  4  5  1  0
  5  6  1  0
  6  7  1  0
  7  8  1  0
  7  9  1  0
  2 10  1  0
 10 11  1  0
 11 12  1  0
 12 13  1  0
 13 14  1  1
 13 15  1  0
 15 16  1  0
 16 17  1  0
 17 18  2  0
 18 19  1  0
 19 20  1  0
 20 21  1  0
 21 22  1  0
 22 23  1  0
 22 24  1  0
 24 25  1  0
 24 26  1  0
 19 27  1  0
 27 28  1  6
 27 29  1  0
 29 30  1  0
 30 31  1  0
 31 32  1  6
  7  5  1  0
 31 10  1  0
 31 13  1  0
 27 15  1  0
 24 18  1  0
  1 33  1  0
  1 34  1  0
  1 35  1  0
  2 36  1  1
  3 37  1  0
  3 38  1  0
  4 39  1  0
  4 40  1  0
  5 41  1  1
  8 42  1  0
  8 43  1  0
  8 44  1  0
  9 45  1  0
  9 46  1  0
  9 47  1  0
 10 48  1  1
 11 49  1  0
 11 50  1  0
 12 51  1  0
 12 52  1  0
 14 53  1  0
 14 54  1  0
 14 55  1  0
 15 56  1  6
 16 57  1  0
 16 58  1  0
 17 59  1  0
 19 60  1  1
 20 61  1  0
 20 62  1  0
 21 63  1  0
 21 64  1  0
 22 65  1  1
 23 66  1  0
 25 67  1  0
 25 68  1  0
 25 69  1  0
 26 70  1  0
 26 71  1  0
 26 72  1  0
 28 73  1  0
 28 74  1  0
 28 75  1  0
 29 76  1  0
 29 77  1  0
 30 78  1  0
 30 79  1  0
 32 80  1  0
 32 81  1  0
 32 82  1  0
M  END
>  <meeko>  (1) 
{"is_sidechain": [false], "intermolecular_energy": 2.731, "internal_energy": -0.839}

$$$$
EPH_relaxed_0001_pdb2pqr_Repair_396_r2_0001_out
     RDKit          3D

 82 86  0  0  0  0  0  0  0  0999 V2000
    4.3070   17.3870   -0.5880 C   0  0  0  0  0  0  0  0  0  0  0  0
    2.9440   17.9940   -0.2440 C   0  0  2  0  0  0  0  0  0  0  0  0
    2.9710   18.7580    1.0950 C   0  0  0  0  0  0  0  0  0  0  0  0
    4.3080   18.6600    1.8330 C   0  0  0  0  0  0  0  0  0  0  0  0
    4.2220   19.2350    3.2150 C   0  0  2  0  0  0  0  0  0  0  0  0
    5.2400   20.1940    3.5290 O   0  0  0  0  0  0  0  0  0  0  0  0
    5.2580   18.9780    4.2940 C   0  0  0  0  0  0  0  0  0  0  0  0
    6.4550   18.1170    4.0370 C   0  0  0  0  0  0  0  0  0  0  0  0
    4.8610   19.1600    5.7250 C   0  0  0  0  0  0  0  0  0  0  0  0
    1.8840   16.9000   -0.1980 C   0  0  1  0  0  0  0  0  0  0  0  0
    0.4500   17.4460   -0.4300 C   0  0  0  0  0  0  0  0  0  0  0  0
   -0.3230   16.3550   -1.2140 C   0  0  0  0  0  0  0  0  0  0  0  0
    0.5720   15.0970   -1.1170 C   0  0  1  0  0  0  0  0  0  0  0  0
    0.2600   14.4890    0.2860 C   0  0  0  0  0  0  0  0  0  0  0  0
    0.4020   14.0390   -2.2560 C   0  0  2  0  0  0  0  0  0  0  0  0
   -0.9920   13.3940   -2.3440 C   0  0  0  0  0  0  0  0  0  0  0  0
   -1.1700   12.1470   -1.5430 C   0  0  0  0  0  0  0  0  0  0  0  0
   -0.1770   11.4110   -1.0110 C   0  0  0  0  0  0  0  0  0  0  0  0
    1.2930   11.7610   -1.2790 C   0  0  1  0  0  0  0  0  0  0  0  0
    2.0720   10.4730   -1.6540 C   0  0  0  0  0  0  0  0  0  0  0  0
    1.9150    9.3690   -0.6130 C   0  0  0  0  0  0  0  0  0  0  0  0
    0.4440    9.0090   -0.4170 C   0  0  2  0  0  0  0  0  0  0  0  0
   -0.0470    8.4070   -1.6190 O   0  0  0  0  0  0  0  0  0  0  0  0
   -0.4410   10.2310   -0.0440 C   0  0  0  0  0  0  0  0  0  0  0  0
   -0.1080   10.6960    1.3940 C   0  0  0  0  0  0  0  0  0  0  0  0
   -1.9200    9.7570   -0.0150 C   0  0  0  0  0  0  0  0  0  0  0  0
    1.5480   12.9490   -2.3030 C   0  0  1  0  0  0  0  0  0  0  0  0
    1.5760   12.3970   -3.7610 C   0  0  0  0  0  0  0  0  0  0  0  0
    2.9710   13.5640   -2.0330 C   0  0  0  0  0  0  0  0  0  0  0  0
    3.0550   14.6880   -0.9830 C   0  0  0  0  0  0  0  0  0  0  0  0
    1.9920   15.7600   -1.2420 C   0  0  2  0  0  0  0  0  0  0  0  0
    2.2940   16.4060   -2.6380 C   0  0  0  0  0  0  0  0  0  0  0  0
    4.8462   17.1469    0.3402 H   0  0  0  0  0  0  0  0  0  0  0  0
    4.1616   16.4686   -1.1757 H   0  0  0  0  0  0  0  0  0  0  0  0
    4.8924   18.1095   -1.1757 H   0  0  0  0  0  0  0  0  0  0  0  0
    2.6956   18.7187   -1.0333 H   0  0  0  0  0  0  0  0  0  0  0  0
    2.7626   19.8191    0.8935 H   0  0  0  0  0  0  0  0  0  0  0  0
    2.2116   18.2966    1.7434 H   0  0  0  0  0  0  0  0  0  0  0  0
    4.5989   17.6016    1.9047 H   0  0  0  0  0  0  0  0  0  0  0  0
    5.0549   19.2366    1.2676 H   0  0  0  0  0  0  0  0  0  0  0  0
    3.1255   19.1471    3.2088 H   0  0  0  0  0  0  0  0  0  0  0  0
    6.8928   17.8021    4.9957 H   0  0  0  0  0  0  0  0  0  0  0  0
    6.1515   17.2289    3.4632 H   0  0  0  0  0  0  0  0  0  0  0  0
    7.2004   18.6872    3.4632 H   0  0  0  0  0  0  0  0  0  0  0  0
    5.6654   18.7912    6.3784 H   0  0  0  0  0  0  0  0  0  0  0  0
    4.6871   20.2277    5.9243 H   0  0  0  0  0  0  0  0  0  0  0  0
    3.9386   18.5948    5.9243 H   0  0  0  0  0  0  0  0  0  0  0  0
    2.0718   16.5050    0.8113 H   0  0  0  0  0  0  0  0  0  0  0  0
   -0.0422   17.6396    0.5345 H   0  0  0  0  0  0  0  0  0  0  0  0
    0.4738   18.3925   -0.9900 H   0  0  0  0  0  0  0  0  0  0  0  0
   -1.3052   16.1692   -0.7548 H   0  0  0  0  0  0  0  0  0  0  0  0
   -0.5179   16.6491   -2.2559 H   0  0  0  0  0  0  0  0  0  0  0  0
    0.6124   15.1757    1.0698 H   0  0  0  0  0  0  0  0  0  0  0  0
   -0.8252   14.3414    0.3886 H   0  0  0  0  0  0  0  0  0  0  0  0
    0.7729   13.5213    0.3886 H   0  0  0  0  0  0  0  0  0  0  0  0
    0.5055   14.6503   -3.1646 H   0  0  0  0  0  0  0  0  0  0  0  0
   -1.7300   14.1308   -1.9941 H   0  0  0  0  0  0  0  0  0  0  0  0
   -1.1257   13.1013   -3.3959 H   0  0  0  0  0  0  0  0  0  0  0  0
   -2.2001   11.8004   -1.3733 H   0  0  0  0  0  0  0  0  0  0  0  0
    1.6839   12.1725   -0.3367 H   0  0  0  0  0  0  0  0  0  0  0  0
    1.6969   10.1028   -2.6195 H   0  0  0  0  0  0  0  0  0  0  0  0
    3.1397   10.7325   -1.7063 H   0  0  0  0  0  0  0  0  0  0  0  0
    2.4623    8.4762   -0.9497 H   0  0  0  0  0  0  0  0  0  0  0  0
    2.3189    9.7293    0.3446 H   0  0  0  0  0  0  0  0  0  0  0  0
    0.3849    8.3096    0.4300 H   0  0  0  0  0  0  0  0  0  0  0  0
    0.7210    8.0900   -2.1240 H   0  0  0  0  0  0  0  0  0  0  0  0
   -0.5902   10.0227    2.1180 H   0  0  0  0  0  0  0  0  0  0  0  0
    0.9817   10.6750    1.5431 H   0  0  0  0  0  0  0  0  0  0  0  0
   -0.4788   11.7208    1.5431 H   0  0  0  0  0  0  0  0  0  0  0  0
   -2.2507    9.6510    1.0288 H   0  0  0  0  0  0  0  0  0  0  0  0
   -2.5524   10.4975   -0.5266 H   0  0  0  0  0  0  0  0  0  0  0  0
   -2.0042    8.7869   -0.5266 H   0  0  0  0  0  0  0  0  0  0  0  0
    1.6317   11.2987   -3.7362 H   0  0  0  0  0  0  0  0  0  0  0  0
    0.6610   12.7059   -4.2877 H   0  0  0  0  0  0  0  0  0  0  0  0
    2.4550   12.7969   -4.2877 H   0  0  0  0  0  0  0  0  0  0  0  0
    3.6284   12.7475   -1.6995 H   0  0  0  0  0  0  0  0  0  0  0  0
    3.2654   14.0350   -2.9825 H   0  0  0  0  0  0  0  0  0  0  0  0
    2.8969   14.2586    0.0173 H   0  0  0  0  0  0  0  0  0  0  0  0
    4.0484   15.1558   -1.0483 H   0  0  0  0  0  0  0  0  0  0  0  0
    2.7558   17.3938   -2.4927 H   0  0  0  0  0  0  0  0  0  0  0  0
    2.9827   15.7584   -3.2004 H   0  0  0  0  0  0  0  0  0  0  0  0
    1.3554   16.5191   -3.2004 H   0  0  0  0  0  0  0  0  0  0  0  0
  1  2  1  0
  2  3  1  0
  3  4  1  0
  4  5  1  0
  5  6  1  0
  6  7  1  0
  7  8  1  0
  7  9  1  0
  2 10  1  0
 10 11  1  0
 11 12  1  0
 12 13  1  0
 13 14  1  1
 13 15  1  0
 15 16  1  0
 16 17  1  0
 17 18  2  0
 18 19  1  0
 19 20  1  0
 20 21  1  0
 21 22  1  0
 22 23  1  0
 22 24  1  0
 24 25  1  0
 24 26  1  0
 19 27  1  0
 27 28  1  6
 27 29  1  0
 29 30  1  0
 30 31  1  0
 31 32  1  6
  7  5  1  0
 31 10  1  0
 31 13  1  0
 27 15  1  0
 24 18  1  0
  1 33  1  0
  1 34  1  0
  1 35  1  0
  2 36  1  6
  3 37  1  0
  3 38  1  0
  4 39  1  0
  4 40  1  0
  5 41  1  1
  8 42  1  0
  8 43  1  0
  8 44  1  0
  9 45  1  0
  9 46  1  0
  9 47  1  0
 10 48  1  1
 11 49  1  0
 11 50  1  0
 12 51  1  0
 12 52  1  0
 14 53  1  0
 14 54  1  0
 14 55  1  0
 15 56  1  6
 16 57  1  0
 16 58  1  0
 17 59  1  0
 19 60  1  1
 20 61  1  0
 20 62  1  0
 21 63  1  0
 21 64  1  0
 22 65  1  1
 23 66  1  0
 25 67  1  0
 25 68  1  0
 25 69  1  0
 26 70  1  0
 26 71  1  0
 26 72  1  0
 28 73  1  0
 28 74  1  0
 28 75  1  0
 29 76  1  0
 29 77  1  0
 30 78  1  0
 30 79  1  0
 32 80  1  0
 32 81  1  0
 32 82  1  0
M  END
>  <meeko>  (2) 
{"is_sidechain": [false], "intermolecular_energy": 2.731, "internal_energy": -0.839}

$$$$
EPH_relaxed_0001_pdb2pqr_Repair_396_r2_0001_out
     RDKit          3D

 82 86  0  0  0  0  0  0  0  0999 V2000
    2.2990   18.1020   -2.6670 C   0  0  0  0  0  0  0  0  0  0  0  0
    1.0130   17.7030   -1.9380 C   0  0  2  0  0  0  0  0  0  0  0  0
    1.1740   17.7510   -0.4060 C   0  0  0  0  0  0  0  0  0  0  0  0
    0.7980   19.1010    0.2100 C   0  0  0  0  0  0  0  0  0  0  0  0
   -0.6640   19.1760    0.5320 C   0  0  2  0  0  0  0  0  0  0  0  0
   -1.4910   18.2910   -0.2350 O   0  0  0  0  0  0  0  0  0  0  0  0
   -1.7080   19.6960   -0.4390 C   0  0  0  0  0  0  0  0  0  0  0  0
   -1.3320   20.1780   -1.8050 C   0  0  0  0  0  0  0  0  0  0  0  0
   -3.0100   20.1910    0.1090 C   0  0  0  0  0  0  0  0  0  0  0  0
    0.5820   16.3070   -2.3730 C   0  0  1  0  0  0  0  0  0  0  0  0
    0.7010   16.0950   -3.9060 C   0  0  0  0  0  0  0  0  0  0  0  0
    1.1160   14.6170   -4.1230 C   0  0  0  0  0  0  0  0  0  0  0  0
    0.9000   13.9460   -2.7460 C   0  0  1  0  0  0  0  0  0  0  0  0
   -0.6300   13.6390   -2.6850 C   0  0  0  0  0  0  0  0  0  0  0  0
    1.7560   12.6700   -2.4570 C   0  0  2  0  0  0  0  0  0  0  0  0
    1.4970   11.4830   -3.4010 C   0  0  0  0  0  0  0  0  0  0  0  0
    0.4380   10.5310   -2.9520 C   0  0  0  0  0  0  0  0  0  0  0  0
   -0.0770   10.4620   -1.7100 C   0  0  0  0  0  0  0  0  0  0  0  0
    0.4780   11.3380   -0.5780 C   0  0  1  0  0  0  0  0  0  0  0  0
    0.6940   10.4700    0.6890 C   0  0  0  0  0  0  0  0  0  0  0  0
   -0.5640    9.7120    1.1010 C   0  0  0  0  0  0  0  0  0  0  0  0
   -1.0510    8.8090   -0.0300 C   0  0  2  0  0  0  0  0  0  0  0  0
   -0.0880    7.7710   -0.2380 O   0  0  0  0  0  0  0  0  0  0  0  0
   -1.2950    9.5720   -1.3620 C   0  0  0  0  0  0  0  0  0  0  0  0
   -2.5390   10.4830   -1.2200 C   0  0  0  0  0  0  0  0  0  0  0  0
   -1.6450    8.5250   -2.4540 C   0  0  0  0  0  0  0  0  0  0  0  0
    1.7520   12.2160   -0.9420 C   0  0  1  0  0  0  0  0  0  0  0  0
    3.0520   11.3830   -0.7230 C   0  0  0  0  0  0  0  0  0  0  0  0
    1.8340   13.4370    0.0490 C   0  0  0  0  0  0  0  0  0  0  0  0
    1.0630   14.7090   -0.3500 C   0  0  0  0  0  0  0  0  0  0  0  0
    1.3730   15.1060   -1.7970 C   0  0  2  0  0  0  0  0  0  0  0  0
    2.9010   15.4420   -1.8840 C   0  0  0  0  0  0  0  0  0  0  0  0
    3.0785   18.3439   -1.9296 H   0  0  0  0  0  0  0  0  0  0  0  0
    2.6373   17.2666   -3.2976 H   0  0  0  0  0  0  0  0  0  0  0  0
    2.1050   18.9822   -3.2976 H   0  0  0  0  0  0  0  0  0  0  0  0
    0.2377   18.4342   -2.2105 H   0  0  0  0  0  0  0  0  0  0  0  0
    0.5298   16.9763    0.0354 H   0  0  0  0  0  0  0  0  0  0  0  0
    2.2395   17.5842   -0.1892 H   0  0  0  0  0  0  0  0  0  0  0  0
    1.3746   19.2432    1.1359 H   0  0  0  0  0  0  0  0  0  0  0  0
    1.0283   19.8882   -0.5230 H   0  0  0  0  0  0  0  0  0  0  0  0
   -0.4454   19.4213    1.5818 H   0  0  0  0  0  0  0  0  0  0  0  0
   -0.6576   21.0425   -1.7160 H   0  0  0  0  0  0  0  0  0  0  0  0
   -0.8228   19.3705   -2.3515 H   0  0  0  0  0  0  0  0  0  0  0  0
   -2.2392   20.4753   -2.3515 H   0  0  0  0  0  0  0  0  0  0  0  0
   -2.9740   20.1773    1.2083 H   0  0  0  0  0  0  0  0  0  0  0  0
   -3.1872   21.2192   -0.2393 H   0  0  0  0  0  0  0  0  0  0  0  0
   -3.8256   19.5402   -0.2393 H   0  0  0  0  0  0  0  0  0  0  0  0
   -0.4463   16.3024   -1.9824 H   0  0  0  0  0  0  0  0  0  0  0  0
   -0.2661   16.2920   -4.3917 H   0  0  0  0  0  0  0  0  0  0  0  0
    1.4415   16.7811   -4.3430 H   0  0  0  0  0  0  0  0  0  0  0  0
    0.4836   14.1444   -4.8890 H   0  0  0  0  0  0  0  0  0  0  0  0
    2.1536   14.5221   -4.4756 H   0  0  0  0  0  0  0  0  0  0  0  0
   -0.9495   13.5749   -1.6344 H   0  0  0  0  0  0  0  0  0  0  0  0
   -1.1858   14.4435   -3.1888 H   0  0  0  0  0  0  0  0  0  0  0  0
   -0.8324   12.6823   -3.1888 H   0  0  0  0  0  0  0  0  0  0  0  0
    2.7759   13.0142   -2.6835 H   0  0  0  0  0  0  0  0  0  0  0  0
    1.1989   11.8860   -4.3801 H   0  0  0  0  0  0  0  0  0  0  0  0
    2.4332   10.9061   -3.4288 H   0  0  0  0  0  0  0  0  0  0  0  0
    0.0452    9.8261   -3.6995 H   0  0  0  0  0  0  0  0  0  0  0  0
   -0.2881   12.1023   -0.3804 H   0  0  0  0  0  0  0  0  0  0  0  0
    1.4933    9.7422    0.4856 H   0  0  0  0  0  0  0  0  0  0  0  0
    0.9618   11.1457    1.5146 H   0  0  0  0  0  0  0  0  0  0  0  0
   -0.3398    9.0948    1.9835 H   0  0  0  0  0  0  0  0  0  0  0  0
   -1.3538   10.4416    1.3331 H   0  0  0  0  0  0  0  0  0  0  0  0
   -2.0229    8.3935    0.2746 H   0  0  0  0  0  0  0  0  0  0  0  0
    0.5370    7.7960    0.5060 H   0  0  0  0  0  0  0  0  0  0  0  0
   -2.7568   10.6425   -0.1537 H   0  0  0  0  0  0  0  0  0  0  0  0
   -2.3413   11.4514   -1.7027 H   0  0  0  0  0  0  0  0  0  0  0  0
   -3.4026   10.0022   -1.7027 H   0  0  0  0  0  0  0  0  0  0  0  0
   -1.9589    7.5861   -1.9745 H   0  0  0  0  0  0  0  0  0  0  0  0
   -2.4638    8.9084   -3.0805 H   0  0  0  0  0  0  0  0  0  0  0  0
   -0.7602    8.3389   -3.0805 H   0  0  0  0  0  0  0  0  0  0  0  0
    3.2350   11.2657    0.3553 H   0  0  0  0  0  0  0  0  0  0  0  0
    2.9344   10.3916   -1.1849 H   0  0  0  0  0  0  0  0  0  0  0  0
    3.9035   11.9041   -1.1849 H   0  0  0  0  0  0  0  0  0  0  0  0
    1.4437   13.1028    1.0216 H   0  0  0  0  0  0  0  0  0  0  0  0
    2.8935   13.7327    0.0539 H   0  0  0  0  0  0  0  0  0  0  0  0
   -0.0164   14.5215   -0.2515 H   0  0  0  0  0  0  0  0  0  0  0  0
    1.3729   15.5299    0.3134 H   0  0  0  0  0  0  0  0  0  0  0  0
    3.3148   15.5330   -0.8689 H   0  0  0  0  0  0  0  0  0  0  0  0
    3.4233   14.6373   -2.4221 H   0  0  0  0  0  0  0  0  0  0  0  0
    3.0376   16.3916   -2.4221 H   0  0  0  0  0  0  0  0  0  0  0  0
  1  2  1  0
  2  3  1  0
  3  4  1  0
  4  5  1  0
  5  6  1  0
  6  7  1  0
  7  8  1  0
  7  9  1  0
  2 10  1  0
 10 11  1  0
 11 12  1  0
 12 13  1  0
 13 14  1  1
 13 15  1  0
 15 16  1  0
 16 17  1  0
 17 18  2  0
 18 19  1  0
 19 20  1  0
 20 21  1  0
 21 22  1  0
 22 23  1  0
 22 24  1  0
 24 25  1  0
 24 26  1  0
 19 27  1  0
 27 28  1  6
 27 29  1  0
 29 30  1  0
 30 31  1  0
 31 32  1  1
  7  5  1  0
 31 10  1  0
 31 13  1  0
 27 15  1  0
 24 18  1  0
  1 33  1  0
  1 34  1  0
  1 35  1  0
  2 36  1  1
  3 37  1  0
  3 38  1  0
  4 39  1  0
  4 40  1  0
  5 41  1  1
  8 42  1  0
  8 43  1  0
  8 44  1  0
  9 45  1  0
  9 46  1  0
  9 47  1  0
 10 48  1  1
 11 49  1  0
 11 50  1  0
 12 51  1  0
 12 52  1  0
 14 53  1  0
 14 54  1  0
 14 55  1  0
 15 56  1  6
 16 57  1  0
 16 58  1  0
 17 59  1  0
 19 60  1  1
 20 61  1  0
 20 62  1  0
 21 63  1  0
 21 64  1  0
 22 65  1  1
 23 66  1  0
 25 67  1  0
 25 68  1  0
 25 69  1  0
 26 70  1  0
 26 71  1  0
 26 72  1  0
 28 73  1  0
 28 74  1  0
 28 75  1  0
 29 76  1  0
 29 77  1  0
 30 78  1  0
 30 79  1  0
 32 80  1  0
 32 81  1  0
 32 82  1  0
M  END
>  <meeko>  (3) 
{"is_sidechain": [false], "intermolecular_energy": 2.731, "internal_energy": -0.839}

$$$$
EPH_relaxed_0001_pdb2pqr_Repair_396_r2_0001_out
     RDKit          3D

 82 86  0  0  0  0  0  0  0  0999 V2000
    0.4050   18.4220   -0.0880 C   0  0  0  0  0  0  0  0  0  0  0  0
    1.4890   17.3590   -0.2780 C   0  0  2  0  0  0  0  0  0  0  0  0
    2.7180   17.9100   -1.0300 C   0  0  0  0  0  0  0  0  0  0  0  0
    3.9480   18.1040   -0.1390 C   0  0  0  0  0  0  0  0  0  0  0  0
    3.5710   18.5800    1.2310 C   0  0  2  0  0  0  0  0  0  0  0  0
    3.7930   19.9780    1.4610 O   0  0  0  0  0  0  0  0  0  0  0  0
    4.5790   19.0720    2.2520 C   0  0  0  0  0  0  0  0  0  0  0  0
    6.0430   19.1120    1.9470 C   0  0  0  0  0  0  0  0  0  0  0  0
    4.1990   19.0510    3.7000 C   0  0  0  0  0  0  0  0  0  0  0  0
    0.9160   16.1600   -1.0250 C   0  0  1  0  0  0  0  0  0  0  0  0
    0.7930   16.4100   -2.5520 C   0  0  0  0  0  0  0  0  0  0  0  0
    1.0830   15.0570   -3.2510 C   0  0  0  0  0  0  0  0  0  0  0  0
    1.0350   14.0110   -2.1130 C   0  0  1  0  0  0  0  0  0  0  0  0
   -0.4840   13.7200   -1.9010 C   0  0  0  0  0  0  0  0  0  0  0  0
    1.8480   12.6960   -2.3480 C   0  0  2  0  0  0  0  0  0  0  0  0
    1.3810   11.8450   -3.5420 C   0  0  0  0  0  0  0  0  0  0  0  0
    0.3460   10.8160   -3.2260 C   0  0  0  0  0  0  0  0  0  0  0  0
    0.0190   10.3900   -1.9920 C   0  0  0  0  0  0  0  0  0  0  0  0
    0.7860   10.8840   -0.7580 C   0  0  1  0  0  0  0  0  0  0  0  0
    1.1370    9.6770    0.1510 C   0  0  0  0  0  0  0  0  0  0  0  0
   -0.0890    8.8470    0.5200 C   0  0  0  0  0  0  0  0  0  0  0  0
   -0.7920    8.3250   -0.7310 C   0  0  2  0  0  0  0  0  0  0  0  0
    0.0670    7.3840   -1.3830 O   0  0  0  0  0  0  0  0  0  0  0  0
   -1.1840    9.4520   -1.7280 C   0  0  0  0  0  0  0  0  0  0  0  0
   -2.3370   10.2960   -1.1310 C   0  0  0  0  0  0  0  0  0  0  0  0
   -1.7550    8.7800   -3.0060 C   0  0  0  0  0  0  0  0  0  0  0  0
    2.0420   11.8140   -1.0490 C   0  0  1  0  0  0  0  0  0  0  0  0
    3.3080   10.9370   -1.2920 C   0  0  0  0  0  0  0  0  0  0  0  0
    2.3430   12.6850    0.2270 C   0  0  0  0  0  0  0  0  0  0  0  0
    1.5980   14.0290    0.3430 C   0  0  0  0  0  0  0  0  0  0  0  0
    1.7120   14.8320   -0.9560 C   0  0  2  0  0  0  0  0  0  0  0  0
    3.2270   15.1600   -1.1850 C   0  0  0  0  0  0  0  0  0  0  0  0
    0.2372   18.5866    0.9866 H   0  0  0  0  0  0  0  0  0  0  0  0
    0.7281   19.3631   -0.5570 H   0  0  0  0  0  0  0  0  0  0  0  0
   -0.5296   18.0806   -0.5570 H   0  0  0  0  0  0  0  0  0  0  0  0
    1.8260   17.0480    0.7219 H   0  0  0  0  0  0  0  0  0  0  0  0
    2.9786   17.2051   -1.8332 H   0  0  0  0  0  0  0  0  0  0  0  0
    2.4408   18.9020   -1.4162 H   0  0  0  0  0  0  0  0  0  0  0  0
    4.4782   17.1444   -0.0495 H   0  0  0  0  0  0  0  0  0  0  0  0
    4.5900   18.8676   -0.6025 H   0  0  0  0  0  0  0  0  0  0  0  0
    2.7613   17.8379    1.2920 H   0  0  0  0  0  0  0  0  0  0  0  0
    6.6132   19.1276    2.8876 H   0  0  0  0  0  0  0  0  0  0  0  0
    6.3207   18.2211    1.3646 H   0  0  0  0  0  0  0  0  0  0  0  0
    6.2716   20.0167    1.3646 H   0  0  0  0  0  0  0  0  0  0  0  0
    5.1074   19.1012    4.3182 H   0  0  0  0  0  0  0  0  0  0  0  0
    3.5556   19.9150    3.9228 H   0  0  0  0  0  0  0  0  0  0  0  0
    3.6547   18.1214    3.9228 H   0  0  0  0  0  0  0  0  0  0  0  0
   -0.0415   16.0528   -0.4942 H   0  0  0  0  0  0  0  0  0  0  0  0
   -0.2222   16.7542   -2.7990 H   0  0  0  0  0  0  0  0  0  0  0  0
    1.4992   17.1855   -2.8836 H   0  0  0  0  0  0  0  0  0  0  0  0
    0.3170   14.8402   -4.0101 H   0  0  0  0  0  0  0  0  0  0  0  0
    2.0496   15.0578   -3.7760 H   0  0  0  0  0  0  0  0  0  0  0  0
   -0.7025   13.6782   -0.8237 H   0  0  0  0  0  0  0  0  0  0  0  0
   -1.0789   14.5205   -2.3649 H   0  0  0  0  0  0  0  0  0  0  0  0
   -0.7410   12.7563   -2.3649 H   0  0  0  0  0  0  0  0  0  0  0  0
    2.8415   13.0783   -2.6251 H   0  0  0  0  0  0  0  0  0  0  0  0
    0.9648   12.5238   -4.3010 H   0  0  0  0  0  0  0  0  0  0  0  0
    2.2667   11.2903   -3.8852 H   0  0  0  0  0  0  0  0  0  0  0  0
   -0.1946   10.3686   -4.0731 H   0  0  0  0  0  0  0  0  0  0  0  0
    0.1034   11.5645   -0.2279 H   0  0  0  0  0  0  0  0  0  0  0  0
    1.8528    9.0321   -0.3798 H   0  0  0  0  0  0  0  0  0  0  0  0
    1.5645   10.0742    1.0834 H   0  0  0  0  0  0  0  0  0  0  0  0
    0.2269    7.9935    1.1379 H   0  0  0  0  0  0  0  0  0  0  0  0
   -0.7908    9.4859    1.0761 H   0  0  0  0  0  0  0  0  0  0  0  0
   -1.7304    7.8500   -0.4089 H   0  0  0  0  0  0  0  0  0  0  0  0
    0.9060    7.8350   -1.5750 H   0  0  0  0  0  0  0  0  0  0  0  0
   -2.2874   10.2597   -0.0327 H   0  0  0  0  0  0  0  0  0  0  0  0
   -2.2408   11.3386   -1.4681 H   0  0  0  0  0  0  0  0  0  0  0  0
   -3.3018    9.8892   -1.4681 H   0  0  0  0  0  0  0  0  0  0  0  0
   -2.4426    7.9708   -2.7188 H   0  0  0  0  0  0  0  0  0  0  0  0
   -2.2979    9.5281   -3.6023 H   0  0  0  0  0  0  0  0  0  0  0  0
   -0.9290    8.3650   -3.6023 H   0  0  0  0  0  0  0  0  0  0  0  0
    3.7386   10.6387   -0.3247 H   0  0  0  0  0  0  0  0  0  0  0  0
    3.0278   10.0385   -1.8614 H   0  0  0  0  0  0  0  0  0  0  0  0
    4.0507   11.5151   -1.8614 H   0  0  0  0  0  0  0  0  0  0  0  0
    2.0823   12.0829    1.1099 H   0  0  0  0  0  0  0  0  0  0  0  0
    3.4072   12.9519    0.1485 H   0  0  0  0  0  0  0  0  0  0  0  0
    0.5361   13.8349    0.5542 H   0  0  0  0  0  0  0  0  0  0  0  0
    2.0517   14.6127    1.1575 H   0  0  0  0  0  0  0  0  0  0  0  0
    3.7296   15.2688   -0.2126 H   0  0  0  0  0  0  0  0  0  0  0  0
    3.6975   14.3429   -1.7516 H   0  0  0  0  0  0  0  0  0  0  0  0
    3.3174   16.0985   -1.7516 H   0  0  0  0  0  0  0  0  0  0  0  0
  1  2  1  0
  2  3  1  0
  3  4  1  0
  4  5  1  0
  5  6  1  0
  6  7  1  0
  7  8  1  0
  7  9  1  0
  2 10  1  0
 10 11  1  0
 11 12  1  0
 12 13  1  0
 13 14  1  1
 13 15  1  0
 15 16  1  0
 16 17  1  0
 17 18  2  0
 18 19  1  0
 19 20  1  0
 20 21  1  0
 21 22  1  0
 22 23  1  0
 22 24  1  0
 24 25  1  0
 24 26  1  0
 19 27  1  0
 27 28  1  6
 27 29  1  0
 29 30  1  0
 30 31  1  0
 31 32  1  6
  7  5  1  0
 31 10  1  0
 31 13  1  0
 27 15  1  0
 24 18  1  0
  1 33  1  0
  1 34  1  0
  1 35  1  0
  2 36  1  1
  3 37  1  0
  3 38  1  0
  4 39  1  0
  4 40  1  0
  5 41  1  1
  8 42  1  0
  8 43  1  0
  8 44  1  0
  9 45  1  0
  9 46  1  0
  9 47  1  0
 10 48  1  1
 11 49  1  0
 11 50  1  0
 12 51  1  0
 12 52  1  0
 14 53  1  0
 14 54  1  0
 14 55  1  0
 15 56  1  6
 16 57  1  0
 16 58  1  0
 17 59  1  0
 19 60  1  1
 20 61  1  0
 20 62  1  0
 21 63  1  0
 21 64  1  0
 22 65  1  1
 23 66  1  0
 25 67  1  0
 25 68  1  0
 25 69  1  0
 26 70  1  0
 26 71  1  0
 26 72  1  0
 28 73  1  0
 28 74  1  0
 28 75  1  0
 29 76  1  0
 29 77  1  0
 30 78  1  0
 30 79  1  0
 32 80  1  0
 32 81  1  0
 32 82  1  0
M  END
>  <meeko>  (4) 
{"is_sidechain": [false], "intermolecular_energy": 2.731, "internal_energy": -0.839}

$$$$
EPH_relaxed_0001_pdb2pqr_Repair_396_r2_0001_out
     RDKit          3D

 82 86  0  0  0  0  0  0  0  0999 V2000
   -3.3790    9.3050    0.5620 C   0  0  0  0  0  0  0  0  0  0  0  0
   -2.5650    9.6780   -0.6800 C   0  0  2  0  0  0  0  0  0  0  0  0
   -1.8970    8.4490   -1.3270 C   0  0  0  0  0  0  0  0  0  0  0  0
   -2.8150    7.6830   -2.2850 C   0  0  0  0  0  0  0  0  0  0  0  0
   -4.2520    7.7800   -1.8720 C   0  0  2  0  0  0  0  0  0  0  0  0
   -4.7910    6.5820   -1.2970 O   0  0  0  0  0  0  0  0  0  0  0  0
   -5.3700    7.0040   -2.5430 C   0  0  0  0  0  0  0  0  0  0  0  0
   -5.0980    6.0750   -3.6850 C   0  0  0  0  0  0  0  0  0  0  0  0
   -6.7710    7.5130   -2.4150 C   0  0  0  0  0  0  0  0  0  0  0  0
   -1.5070   10.7140   -0.3160 C   0  0  1  0  0  0  0  0  0  0  0  0
   -0.4070   10.1420    0.6170 C   0  0  0  0  0  0  0  0  0  0  0  0
    0.9220   10.8350    0.2190 C   0  0  0  0  0  0  0  0  0  0  0  0
    0.4920   12.0100   -0.6890 C   0  0  1  0  0  0  0  0  0  0  0  0
    0.0520   13.1380    0.2960 C   0  0  0  0  0  0  0  0  0  0  0  0
    1.5590   12.5200   -1.7110 C   0  0  2  0  0  0  0  0  0  0  0  0
    2.8410   13.0960   -1.0830 C   0  0  0  0  0  0  0  0  0  0  0  0
    2.8130   14.5630   -0.8070 C   0  0  0  0  0  0  0  0  0  0  0  0
    1.9200   15.4360   -1.3090 C   0  0  0  0  0  0  0  0  0  0  0  0
    0.8650   14.9860   -2.3280 C   0  0  1  0  0  0  0  0  0  0  0  0
    0.8120   16.0000   -3.5010 C   0  0  0  0  0  0  0  0  0  0  0  0
    0.5900   17.4330   -3.0250 C   0  0  0  0  0  0  0  0  0  0  0  0
    1.6910   17.8630   -2.0590 C   0  0  2  0  0  0  0  0  0  0  0  0
    2.9280   17.9360   -2.7740 O   0  0  0  0  0  0  0  0  0  0  0  0
    1.8450   16.9100   -0.8420 C   0  0  0  0  0  0  0  0  0  0  0  0
    0.6210   17.0610    0.0960 C   0  0  0  0  0  0  0  0  0  0  0  0
    3.0780   17.3780   -0.0230 C   0  0  0  0  0  0  0  0  0  0  0  0
    0.9810   13.4810   -2.8270 C   0  0  1  0  0  0  0  0  0  0  0  0
    1.9600   13.3960   -4.0380 C   0  0  0  0  0  0  0  0  0  0  0  0
   -0.4230   13.0060   -3.3570 C   0  0  0  0  0  0  0  0  0  0  0  0
   -1.3890   12.4010   -2.3200 C   0  0  0  0  0  0  0  0  0  0  0  0
   -0.6880   11.3320   -1.4770 C   0  0  2  0  0  0  0  0  0  0  0  0
   -0.2530   10.1730   -2.4380 C   0  0  0  0  0  0  0  0  0  0  0  0
   -2.8091    9.5661    1.4659 H   0  0  0  0  0  0  0  0  0  0  0  0
   -4.3305    9.8570    0.5562 H   0  0  0  0  0  0  0  0  0  0  0  0
   -3.5822    8.2239    0.5562 H   0  0  0  0  0  0  0  0  0  0  0  0
   -3.2624   10.1014   -1.4178 H   0  0  0  0  0  0  0  0  0  0  0  0
   -1.0144    8.7888   -1.8888 H   0  0  0  0  0  0  0  0  0  0  0  0
   -1.6348    7.7587   -0.5117 H   0  0  0  0  0  0  0  0  0  0  0  0
   -2.7055    8.1029   -3.2958 H   0  0  0  0  0  0  0  0  0  0  0  0
   -2.5233    6.6226   -2.2649 H   0  0  0  0  0  0  0  0  0  0  0  0
   -4.1359    8.8473   -1.6324 H   0  0  0  0  0  0  0  0  0  0  0  0
   -4.8091    5.0882   -3.2941 H   0  0  0  0  0  0  0  0  0  0  0  0
   -6.0045    5.9747   -4.3000 H   0  0  0  0  0  0  0  0  0  0  0  0
   -4.2806    6.4795   -4.3000 H   0  0  0  0  0  0  0  0  0  0  0  0
   -7.0310    7.6074   -1.3503 H   0  0  0  0  0  0  0  0  0  0  0  0
   -6.8494    8.4971   -2.9003 H   0  0  0  0  0  0  0  0  0  0  0  0
   -7.4628    6.8087   -2.9003 H   0  0  0  0  0  0  0  0  0  0  0  0
   -2.1494   11.4811    0.1410 H   0  0  0  0  0  0  0  0  0  0  0  0
   -0.6491   10.3619    1.6673 H   0  0  0  0  0  0  0  0  0  0  0  0
   -0.3295    9.0497    0.5128 H   0  0  0  0  0  0  0  0  0  0  0  0
    1.4489   11.2058    1.1106 H   0  0  0  0  0  0  0  0  0  0  0  0
    1.6154   10.1479   -0.2880 H   0  0  0  0  0  0  0  0  0  0  0  0
    0.1865   12.7932    1.3319 H   0  0  0  0  0  0  0  0  0  0  0  0
    0.6665   14.0342    0.1251 H   0  0  0  0  0  0  0  0  0  0  0  0
   -1.0070   13.3815    0.1251 H   0  0  0  0  0  0  0  0  0  0  0  0
    1.8639   11.5915   -2.2160 H   0  0  0  0  0  0  0  0  0  0  0  0
    3.0169   12.5744   -0.1307 H   0  0  0  0  0  0  0  0  0  0  0  0
    3.6388   12.9412   -1.8243 H   0  0  0  0  0  0  0  0  0  0  0  0
    3.5875   14.9642   -0.1368 H   0  0  0  0  0  0  0  0  0  0  0  0
   -0.0953   14.9857   -1.7916 H   0  0  0  0  0  0  0  0  0  0  0  0
    1.7640   15.9542   -4.0502 H   0  0  0  0  0  0  0  0  0  0  0  0
   -0.0384   15.7252   -4.1423 H   0  0  0  0  0  0  0  0  0  0  0  0
    0.5914   18.1058   -3.8952 H   0  0  0  0  0  0  0  0  0  0  0  0
   -0.3762   17.4837   -2.5016 H   0  0  0  0  0  0  0  0  0  0  0  0
    1.4087   18.8455   -1.6527 H   0  0  0  0  0  0  0  0  0  0  0  0
    2.7250   18.1930   -3.6890 H   0  0  0  0  0  0  0  0  0  0  0  0
    0.9545   17.0199    1.1434 H   0  0  0  0  0  0  0  0  0  0  0  0
    0.1298   18.0266   -0.0948 H   0  0  0  0  0  0  0  0  0  0  0  0
   -0.0902   16.2438   -0.0948 H   0  0  0  0  0  0  0  0  0  0  0  0
    2.8577   17.2944    1.0515 H   0  0  0  0  0  0  0  0  0  0  0  0
    3.9437   16.7459   -0.2701 H   0  0  0  0  0  0  0  0  0  0  0  0
    3.3063   18.4253   -0.2701 H   0  0  0  0  0  0  0  0  0  0  0  0
    2.9925   13.3064   -3.6692 H   0  0  0  0  0  0  0  0  0  0  0  0
    1.7113   12.5161   -4.6495 H   0  0  0  0  0  0  0  0  0  0  0  0
    1.8667   14.3056   -4.6495 H   0  0  0  0  0  0  0  0  0  0  0  0
   -0.9210   13.8775   -3.8069 H   0  0  0  0  0  0  0  0  0  0  0  0
   -0.2039   12.1872   -4.0581 H   0  0  0  0  0  0  0  0  0  0  0  0
   -1.7528   13.2004   -1.6577 H   0  0  0  0  0  0  0  0  0  0  0  0
   -2.2285   11.9320   -2.8541 H   0  0  0  0  0  0  0  0  0  0  0  0
    0.0722    9.3064   -1.8436 H   0  0  0  0  0  0  0  0  0  0  0  0
   -1.1038    9.8839   -3.0725 H   0  0  0  0  0  0  0  0  0  0  0  0
    0.5779   10.5151   -3.0725 H   0  0  0  0  0  0  0  0  0  0  0  0
  1  2  1  0
  2  3  1  0
  3  4  1  0
  4  5  1  0
  5  6  1  0
  6  7  1  0
  7  8  1  0
  7  9  1  0
  2 10  1  0
 10 11  1  0
 11 12  1  0
 12 13  1  0
 13 14  1  1
 13 15  1  0
 15 16  1  0
 16 17  1  0
 17 18  2  0
 18 19  1  0
 19 20  1  0
 20 21  1  0
 21 22  1  0
 22 23  1  0
 22 24  1  0
 24 25  1  0
 24 26  1  0
 19 27  1  0
 27 28  1  6
 27 29  1  0
 29 30  1  0
 30 31  1  0
 31 32  1  6
  7  5  1  0
 31 10  1  0
 31 13  1  0
 27 15  1  0
 24 18  1  0
  1 33  1  0
  1 34  1  0
  1 35  1  0
  2 36  1  6
  3 37  1  0
  3 38  1  0
  4 39  1  0
  4 40  1  0
  5 41  1  1
  8 42  1  0
  8 43  1  0
  8 44  1  0
  9 45  1  0
  9 46  1  0
  9 47  1  0
 10 48  1  1
 11 49  1  0
 11 50  1  0
 12 51  1  0
 12 52  1  0
 14 53  1  0
 14 54  1  0
 14 55  1  0
 15 56  1  6
 16 57  1  0
 16 58  1  0
 17 59  1  0
 19 60  1  1
 20 61  1  0
 20 62  1  0
 21 63  1  0
 21 64  1  0
 22 65  1  1
 23 66  1  0
 25 67  1  0
 25 68  1  0
 25 69  1  0
 26 70  1  0
 26 71  1  0
 26 72  1  0
 28 73  1  0
 28 74  1  0
 28 75  1  0
 29 76  1  0
 29 77  1  0
 30 78  1  0
 30 79  1  0
 32 80  1  0
 32 81  1  0
 32 82  1  0
M  END
>  <meeko>  (5) 
{"is_sidechain": [false], "intermolecular_energy": 2.731, "internal_energy": -0.839}

$$$$
EPH_relaxed_0001_pdb2pqr_Repair_396_r2_0001_out
     RDKit          3D

 82 86  0  0  0  0  0  0  0  0999 V2000
   -4.9200    5.9980   -4.7540 C   0  0  0  0  0  0  0  0  0  0  0  0
   -5.1250    6.9170   -3.5460 C   0  0  2  0  0  0  0  0  0  0  0  0
   -3.9850    6.7850   -2.5160 C   0  0  0  0  0  0  0  0  0  0  0  0
   -2.8020    7.7190   -2.7850 C   0  0  0  0  0  0  0  0  0  0  0  0
   -2.1570    8.1770   -1.5120 C   0  0  2  0  0  0  0  0  0  0  0  0
   -2.3150    9.5730   -1.2300 O   0  0  0  0  0  0  0  0  0  0  0  0
   -0.9710    9.1230   -1.4680 C   0  0  0  0  0  0  0  0  0  0  0  0
   -0.3610    9.6680   -2.7220 C   0  0  0  0  0  0  0  0  0  0  0  0
   -0.1070    9.1310   -0.2460 C   0  0  0  0  0  0  0  0  0  0  0  0
   -6.4630    6.6130   -2.8830 C   0  0  1  0  0  0  0  0  0  0  0  0
   -6.3700    5.4570   -1.8520 C   0  0  0  0  0  0  0  0  0  0  0  0
   -7.3590    5.7980   -0.7070 C   0  0  0  0  0  0  0  0  0  0  0  0
   -8.2210    6.9530   -1.2680 C   0  0  1  0  0  0  0  0  0  0  0  0
   -9.2970    6.2550   -2.1580 C   0  0  0  0  0  0  0  0  0  0  0  0
   -8.8740    7.9030   -0.2110 C   0  0  2  0  0  0  0  0  0  0  0  0
   -9.8780    7.2290    0.7400 C   0  0  0  0  0  0  0  0  0  0  0  0
  -11.2970    7.2310    0.2750 C   0  0  0  0  0  0  0  0  0  0  0  0
  -11.7950    7.9950   -0.7150 C   0  0  0  0  0  0  0  0  0  0  0  0
  -10.9210    9.0430   -1.4170 C   0  0  1  0  0  0  0  0  0  0  0  0
  -11.7040   10.3770   -1.5310 C   0  0  0  0  0  0  0  0  0  0  0  0
  -13.0610   10.2030   -2.2060 C   0  0  0  0  0  0  0  0  0  0  0  0
  -13.9230    9.1970   -1.4470 C   0  0  2  0  0  0  0  0  0  0  0  0
  -14.2530    9.7460   -0.1670 O   0  0  0  0  0  0  0  0  0  0  0  0
  -13.2330    7.8170   -1.2610 C   0  0  0  0  0  0  0  0  0  0  0  0
  -13.1480    7.0900   -2.6260 C   0  0  0  0  0  0  0  0  0  0  0  0
  -14.1470    6.9440   -0.3600 C   0  0  0  0  0  0  0  0  0  0  0  0
   -9.4620    9.2410   -0.8190 C   0  0  1  0  0  0  0  0  0  0  0  0
   -9.4990   10.2790    0.3440 C   0  0  0  0  0  0  0  0  0  0  0  0
   -8.5300    9.8530   -1.9310 C   0  0  0  0  0  0  0  0  0  0  0  0
   -7.8190    8.8580   -2.8670 C   0  0  0  0  0  0  0  0  0  0  0  0
   -7.1270    7.7500   -2.0670 C   0  0  2  0  0  0  0  0  0  0  0  0
   -6.0240    8.4200   -1.1780 C   0  0  0  0  0  0  0  0  0  0  0  0
   -4.6928    4.9797   -4.4056 H   0  0  0  0  0  0  0  0  0  0  0  0
   -5.8366    5.9816   -5.3620 H   0  0  0  0  0  0  0  0  0  0  0  0
   -4.0834    6.3727   -5.3620 H   0  0  0  0  0  0  0  0  0  0  0  0
   -5.1193    7.9536   -3.9141 H   0  0  0  0  0  0  0  0  0  0  0  0
   -4.3892    7.0147   -1.5191 H   0  0  0  0  0  0  0  0  0  0  0  0
   -3.6046    5.7553   -2.5873 H   0  0  0  0  0  0  0  0  0  0  0  0
   -2.0556    7.1838   -3.3904 H   0  0  0  0  0  0  0  0  0  0  0  0
   -3.1786    8.6052   -3.3168 H   0  0  0  0  0  0  0  0  0  0  0  0
   -2.3391    7.2000   -1.0405 H   0  0  0  0  0  0  0  0  0  0  0  0
    0.4361   10.3802   -2.4625 H   0  0  0  0  0  0  0  0  0  0  0  0
    0.0629    8.8423   -3.3124 H   0  0  0  0  0  0  0  0  0  0  0  0
   -1.1339   10.1819   -3.3124 H   0  0  0  0  0  0  0  0  0  0  0  0
   -0.7421    9.1251    0.6521 H   0  0  0  0  0  0  0  0  0  0  0  0
    0.5364    8.2388   -0.2460 H   0  0  0  0  0  0  0  0  0  0  0  0
    0.5197   10.0350   -0.2460 H   0  0  0  0  0  0  0  0  0  0  0  0
   -7.0648    6.3902   -3.7764 H   0  0  0  0  0  0  0  0  0  0  0  0
   -6.6515    4.5044   -2.3246 H   0  0  0  0  0  0  0  0  0  0  0  0
   -5.3442    5.3507   -1.4693 H   0  0  0  0  0  0  0  0  0  0  0  0
   -7.9864    4.9279   -0.4636 H   0  0  0  0  0  0  0  0  0  0  0  0
   -6.8412    6.0770    0.2225 H   0  0  0  0  0  0  0  0  0  0  0  0
  -10.0457    5.7693   -1.5150 H   0  0  0  0  0  0  0  0  0  0  0  0
   -9.7905    7.0054   -2.7931 H   0  0  0  0  0  0  0  0  0  0  0  0
   -8.8129    5.4985   -2.7931 H   0  0  0  0  0  0  0  0  0  0  0  0
   -8.0149    8.1866    0.4147 H   0  0  0  0  0  0  0  0  0  0  0  0
   -9.5667    6.1829    0.8771 H   0  0  0  0  0  0  0  0  0  0  0  0
   -9.8611    7.8189    1.6683 H   0  0  0  0  0  0  0  0  0  0  0  0
  -11.9946    6.5503    0.7848 H   0  0  0  0  0  0  0  0  0  0  0  0
  -10.7146    8.6444   -2.4212 H   0  0  0  0  0  0  0  0  0  0  0  0
  -11.8622   10.7805   -0.5200 H   0  0  0  0  0  0  0  0  0  0  0  0
  -11.1078   11.0621   -2.1516 H   0  0  0  0  0  0  0  0  0  0  0  0
  -13.5779   11.1737   -2.2307 H   0  0  0  0  0  0  0  0  0  0  0  0
  -12.8996    9.8271   -3.2271 H   0  0  0  0  0  0  0  0  0  0  0  0
  -14.8270    9.0175   -2.0475 H   0  0  0  0  0  0  0  0  0  0  0  0
  -13.6310    9.3750    0.4820 H   0  0  0  0  0  0  0  0  0  0  0  0
  -13.0217    6.0101   -2.4590 H   0  0  0  0  0  0  0  0  0  0  0  0
  -14.0730    7.2675   -3.1942 H   0  0  0  0  0  0  0  0  0  0  0  0
  -12.2889    7.4761   -3.1942 H   0  0  0  0  0  0  0  0  0  0  0  0
  -13.9276    7.1536    0.6973 H   0  0  0  0  0  0  0  0  0  0  0  0
  -15.2009    7.1794   -0.5694 H   0  0  0  0  0  0  0  0  0  0  0  0
  -13.9602    5.8804   -0.5694 H   0  0  0  0  0  0  0  0  0  0  0  0
   -9.4801    9.7501    1.3083 H   0  0  0  0  0  0  0  0  0  0  0  0
   -8.6239   10.9416    0.2721 H   0  0  0  0  0  0  0  0  0  0  0  0
  -10.4191   10.8776    0.2721 H   0  0  0  0  0  0  0  0  0  0  0  0
   -9.1480   10.5143   -2.5561 H   0  0  0  0  0  0  0  0  0  0  0  0
   -7.7221   10.3592   -1.3824 H   0  0  0  0  0  0  0  0  0  0  0  0
   -8.5610    8.4052   -3.5411 H   0  0  0  0  0  0  0  0  0  0  0  0
   -7.0565    9.4026   -3.4432 H   0  0  0  0  0  0  0  0  0  0  0  0
   -6.2688    8.2713   -0.1159 H   0  0  0  0  0  0  0  0  0  0  0  0
   -5.0482    7.9619   -1.3970 H   0  0  0  0  0  0  0  0  0  0  0  0
   -5.9808    9.4971   -1.3970 H   0  0  0  0  0  0  0  0  0  0  0  0
  1  2  1  0
  2  3  1  0
  3  4  1  0
  4  5  1  0
  5  6  1  0
  6  7  1  0
  7  8  1  0
  7  9  1  0
  2 10  1  0
 10 11  1  0
 11 12  1  0
 12 13  1  0
 13 14  1  6
 13 15  1  0
 15 16  1  0
 16 17  1  0
 17 18  2  0
 18 19  1  0
 19 20  1  0
 20 21  1  0
 21 22  1  0
 22 23  1  0
 22 24  1  0
 24 25  1  0
 24 26  1  0
 19 27  1  0
 27 28  1  1
 27 29  1  0
 29 30  1  0
 30 31  1  0
 31 32  1  1
  7  5  1  0
 31 10  1  0
 31 13  1  0
 27 15  1  0
 24 18  1  0
  1 33  1  0
  1 34  1  0
  1 35  1  0
  2 36  1  6
  3 37  1  0
  3 38  1  0
  4 39  1  0
  4 40  1  0
  5 41  1  1
  8 42  1  0
  8 43  1  0
  8 44  1  0
  9 45  1  0
  9 46  1  0
  9 47  1  0
 10 48  1  6
 11 49  1  0
 11 50  1  0
 12 51  1  0
 12 52  1  0
 14 53  1  0
 14 54  1  0
 14 55  1  0
 15 56  1  1
 16 57  1  0
 16 58  1  0
 17 59  1  0
 19 60  1  6
 20 61  1  0
 20 62  1  0
 21 63  1  0
 21 64  1  0
 22 65  1  6
 23 66  1  0
 25 67  1  0
 25 68  1  0
 25 69  1  0
 26 70  1  0
 26 71  1  0
 26 72  1  0
 28 73  1  0
 28 74  1  0
 28 75  1  0
 29 76  1  0
 29 77  1  0
 30 78  1  0
 30 79  1  0
 32 80  1  0
 32 81  1  0
 32 82  1  0
M  END
>  <meeko>  (6) 
{"is_sidechain": [false], "intermolecular_energy": 2.731, "internal_energy": -0.839}

$$$$
EPH_relaxed_0001_pdb2pqr_Repair_396_r2_0001_out
     RDKit          3D

 82 86  0  0  0  0  0  0  0  0999 V2000
    3.8810   17.4480    0.2460 C   0  0  0  0  0  0  0  0  0  0  0  0
    2.7960   17.8270   -0.7660 C   0  0  2  0  0  0  0  0  0  0  0  0
    2.1600   19.1960   -0.4510 C   0  0  0  0  0  0  0  0  0  0  0  0
    1.1070   19.1440    0.6590 C   0  0  0  0  0  0  0  0  0  0  0  0
   -0.1300   19.9040    0.2860 C   0  0  2  0  0  0  0  0  0  0  0  0
   -1.0090   20.1900    1.3810 O   0  0  0  0  0  0  0  0  0  0  0  0
   -1.5270   19.3170    0.3640 C   0  0  0  0  0  0  0  0  0  0  0  0
   -1.7590   17.9130    0.8280 C   0  0  0  0  0  0  0  0  0  0  0  0
   -2.6090   19.9330   -0.4660 C   0  0  0  0  0  0  0  0  0  0  0  0
    1.7200   16.7480   -0.8030 C   0  0  1  0  0  0  0  0  0  0  0  0
    0.4110   17.2330   -1.4810 C   0  0  0  0  0  0  0  0  0  0  0  0
   -0.1800   16.0140   -2.2350 C   0  0  0  0  0  0  0  0  0  0  0  0
    0.6160   14.8010   -1.7000 C   0  0  1  0  0  0  0  0  0  0  0  0
   -0.0600   14.4460   -0.3390 C   0  0  0  0  0  0  0  0  0  0  0  0
    0.7000   13.5580   -2.6440 C   0  0  2  0  0  0  0  0  0  0  0  0
   -0.6500   12.8950   -2.9710 C   0  0  0  0  0  0  0  0  0  0  0  0
   -1.0680   11.8060   -2.0380 C   0  0  0  0  0  0  0  0  0  0  0  0
   -0.2670   11.1840   -1.1540 C   0  0  0  0  0  0  0  0  0  0  0  0
    1.2340   11.4940   -1.0960 C   0  0  1  0  0  0  0  0  0  0  0  0
    2.0350   10.1670   -1.0350 C   0  0  0  0  0  0  0  0  0  0  0  0
    1.5820    9.2630    0.1070 C   0  0  0  0  0  0  0  0  0  0  0  0
    0.0980    8.9290   -0.0170 C   0  0  2  0  0  0  0  0  0  0  0  0
   -0.0970    8.1210   -1.1820 O   0  0  0  0  0  0  0  0  0  0  0  0
   -0.8080   10.1890   -0.0970 C   0  0  0  0  0  0  0  0  0  0  0  0
   -0.8300   10.9040    1.2770 C   0  0  0  0  0  0  0  0  0  0  0  0
   -2.2630    9.7150   -0.3620 C   0  0  0  0  0  0  0  0  0  0  0  0
    1.7800   12.4860   -2.2120 C   0  0  1  0  0  0  0  0  0  0  0  0
    2.1540   11.6860   -3.4970 C   0  0  0  0  0  0  0  0  0  0  0  0
    3.1120   13.1520   -1.7000 C   0  0  0  0  0  0  0  0  0  0  0  0
    2.9700   14.4440   -0.8730 C   0  0  0  0  0  0  0  0  0  0  0  0
    2.0450   15.4440   -1.5730 C   0  0  2  0  0  0  0  0  0  0  0  0
    2.7110   15.8370   -2.9360 C   0  0  0  0  0  0  0  0  0  0  0  0
    3.4938   17.5833    1.2667 H   0  0  0  0  0  0  0  0  0  0  0  0
    4.1681   16.3963    0.0991 H   0  0  0  0  0  0  0  0  0  0  0  0
    4.7605   18.0921    0.0991 H   0  0  0  0  0  0  0  0  0  0  0  0
    3.2767   17.9063   -1.7522 H   0  0  0  0  0  0  0  0  0  0  0  0
    2.9580   19.8866   -0.1407 H   0  0  0  0  0  0  0  0  0  0  0  0
    1.6476   19.5306   -1.3651 H   0  0  0  0  0  0  0  0  0  0  0  0
    0.8375   18.0940    0.8458 H   0  0  0  0  0  0  0  0  0  0  0  0
    1.5354   19.6074    1.5600 H   0  0  0  0  0  0  0  0  0  0  0  0
    0.4059   20.4288   -0.5186 H   0  0  0  0  0  0  0  0  0  0  0  0
   -1.7634   17.8863    1.9277 H   0  0  0  0  0  0  0  0  0  0  0  0
   -2.7282   17.5569    0.4487 H   0  0  0  0  0  0  0  0  0  0  0  0
   -0.9559   17.2640    0.4487 H   0  0  0  0  0  0  0  0  0  0  0  0
   -3.3740   20.3686    0.1935 H   0  0  0  0  0  0  0  0  0  0  0  0
   -2.1798   20.7222   -1.1008 H   0  0  0  0  0  0  0  0  0  0  0  0
   -3.0685   19.1611   -1.1008 H   0  0  0  0  0  0  0  0  0  0  0  0
    1.6345   16.5369    0.2732 H   0  0  0  0  0  0  0  0  0  0  0  0
   -0.2998   17.5893   -0.7209 H   0  0  0  0  0  0  0  0  0  0  0  0
    0.6088   18.0664   -2.1711 H   0  0  0  0  0  0  0  0  0  0  0  0
   -1.2519   15.9031   -2.0141 H   0  0  0  0  0  0  0  0  0  0  0  0
   -0.0971   16.1186   -3.3269 H   0  0  0  0  0  0  0  0  0  0  0  0
    0.5819   14.7831    0.4882 H   0  0  0  0  0  0  0  0  0  0  0  0
   -1.0368   14.9475   -0.2729 H   0  0  0  0  0  0  0  0  0  0  0  0
   -0.2016   13.3572   -0.2729 H   0  0  0  0  0  0  0  0  0  0  0  0
    1.0519   14.0023   -3.5867 H   0  0  0  0  0  0  0  0  0  0  0  0
   -1.4253   13.6751   -2.9521 H   0  0  0  0  0  0  0  0  0  0  0  0
   -0.5260   12.4212   -3.9560 H   0  0  0  0  0  0  0  0  0  0  0  0
   -2.1196   11.4855   -2.0770 H   0  0  0  0  0  0  0  0  0  0  0  0
    1.3910   12.0671   -0.1703 H   0  0  0  0  0  0  0  0  0  0  0  0
    1.8999    9.6295   -1.9852 H   0  0  0  0  0  0  0  0  0  0  0  0
    3.0908   10.4217   -0.8608 H   0  0  0  0  0  0  0  0  0  0  0  0
    2.1643    8.3302    0.0803 H   0  0  0  0  0  0  0  0  0  0  0  0
    1.7446    9.7910    1.0582 H   0  0  0  0  0  0  0  0  0  0  0  0
   -0.1962    8.3884    0.8947 H   0  0  0  0  0  0  0  0  0  0  0  0
   -0.0830    7.1910   -0.9000 H   0  0  0  0  0  0  0  0  0  0  0  0
   -0.8069   10.1538    2.0811 H   0  0  0  0  0  0  0  0  0  0  0  0
    0.0484   11.5606    1.3628 H   0  0  0  0  0  0  0  0  0  0  0  0
   -1.7471   11.5053    1.3628 H   0  0  0  0  0  0  0  0  0  0  0  0
   -2.7748    9.5483    0.5973 H   0  0  0  0  0  0  0  0  0  0  0  0
   -2.8006   10.4845   -0.9355 H   0  0  0  0  0  0  0  0  0  0  0  0
   -2.2442    8.7765   -0.9355 H   0  0  0  0  0  0  0  0  0  0  0  0
    2.6039   10.7236   -3.2118 H   0  0  0  0  0  0  0  0  0  0  0  0
    1.2473   11.5046   -4.0929 H   0  0  0  0  0  0  0  0  0  0  0  0
    2.8746   12.2654   -4.0929 H   0  0  0  0  0  0  0  0  0  0  0  0
    3.6347   12.4128   -1.0752 H   0  0  0  0  0  0  0  0  0  0  0  0
    3.6523   13.4511   -2.6103 H   0  0  0  0  0  0  0  0  0  0  0  0
    2.5510   14.1957    0.1133 H   0  0  0  0  0  0  0  0  0  0  0  0
    3.9642   14.9022   -0.7647 H   0  0  0  0  0  0  0  0  0  0  0  0
    3.6437   16.3874   -2.7431 H   0  0  0  0  0  0  0  0  0  0  0  0
    2.9348   14.9262   -3.5108 H   0  0  0  0  0  0  0  0  0  0  0  0
    2.0220   16.4733   -3.5108 H   0  0  0  0  0  0  0  0  0  0  0  0
  1  2  1  0
  2  3  1  0
  3  4  1  0
  4  5  1  0
  5  6  1  0
  6  7  1  0
  7  8  1  0
  7  9  1  0
  2 10  1  0
 10 11  1  0
 11 12  1  0
 12 13  1  0
 13 14  1  1
 13 15  1  0
 15 16  1  0
 16 17  1  0
 17 18  2  0
 18 19  1  0
 19 20  1  0
 20 21  1  0
 21 22  1  0
 22 23  1  0
 22 24  1  0
 24 25  1  0
 24 26  1  0
 19 27  1  0
 27 28  1  6
 27 29  1  0
 29 30  1  0
 30 31  1  0
 31 32  1  6
  7  5  1  0
 31 10  1  0
 31 13  1  0
 27 15  1  0
 24 18  1  0
  1 33  1  0
  1 34  1  0
  1 35  1  0
  2 36  1  6
  3 37  1  0
  3 38  1  0
  4 39  1  0
  4 40  1  0
  5 41  1  6
  8 42  1  0
  8 43  1  0
  8 44  1  0
  9 45  1  0
  9 46  1  0
  9 47  1  0
 10 48  1  1
 11 49  1  0
 11 50  1  0
 12 51  1  0
 12 52  1  0
 14 53  1  0
 14 54  1  0
 14 55  1  0
 15 56  1  6
 16 57  1  0
 16 58  1  0
 17 59  1  0
 19 60  1  1
 20 61  1  0
 20 62  1  0
 21 63  1  0
 21 64  1  0
 22 65  1  1
 23 66  1  0
 25 67  1  0
 25 68  1  0
 25 69  1  0
 26 70  1  0
 26 71  1  0
 26 72  1  0
 28 73  1  0
 28 74  1  0
 28 75  1  0
 29 76  1  0
 29 77  1  0
 30 78  1  0
 30 79  1  0
 32 80  1  0
 32 81  1  0
 32 82  1  0
M  END
>  <meeko>  (7) 
{"is_sidechain": [false], "intermolecular_energy": 2.731, "internal_energy": -0.839}

$$$$
EPH_relaxed_0001_pdb2pqr_Repair_396_r2_0001_out
     RDKit          3D

 82 86  0  0  0  0  0  0  0  0999 V2000
   -0.6900    9.6570   -2.5570 C   0  0  0  0  0  0  0  0  0  0  0  0
   -0.9310    9.8280   -1.0550 C   0  0  2  0  0  0  0  0  0  0  0  0
   -2.4320    9.8250   -0.7030 C   0  0  0  0  0  0  0  0  0  0  0  0
   -3.0580    8.4270   -0.6910 C   0  0  0  0  0  0  0  0  0  0  0  0
   -4.5490    8.4890   -0.5480 C   0  0  2  0  0  0  0  0  0  0  0  0
   -5.1520    7.2870   -0.0500 O   0  0  0  0  0  0  0  0  0  0  0  0
   -5.5050    7.6660   -1.3910 C   0  0  0  0  0  0  0  0  0  0  0  0
   -5.0060    6.7230   -2.4400 C   0  0  0  0  0  0  0  0  0  0  0  0
   -6.9190    8.1350   -1.5330 C   0  0  0  0  0  0  0  0  0  0  0  0
   -0.2850   11.1210   -0.5690 C   0  0  1  0  0  0  0  0  0  0  0  0
    0.9490   10.8680    0.3370 C   0  0  0  0  0  0  0  0  0  0  0  0
    1.9610   12.0040    0.0410 C   0  0  0  0  0  0  0  0  0  0  0  0
    1.1530   13.0460   -0.7670 C   0  0  1  0  0  0  0  0  0  0  0  0
    0.3620   13.8590    0.3060 C   0  0  0  0  0  0  0  0  0  0  0  0
    1.9780   13.9830   -1.7080 C   0  0  2  0  0  0  0  0  0  0  0  0
    2.9920   14.8950   -0.9960 C   0  0  0  0  0  0  0  0  0  0  0  0
    2.4690   16.2330   -0.5870 C   0  0  0  0  0  0  0  0  0  0  0  0
    1.3300   16.7960   -1.0310 C   0  0  0  0  0  0  0  0  0  0  0  0
    0.4840   16.1150   -2.1140 C   0  0  1  0  0  0  0  0  0  0  0  0
    0.0830   17.1590   -3.1890 C   0  0  0  0  0  0  0  0  0  0  0  0
   -0.6090   18.3790   -2.5900 C   0  0  0  0  0  0  0  0  0  0  0  0
    0.2860   19.0630   -1.5600 C   0  0  2  0  0  0  0  0  0  0  0  0
    1.4210   19.6170   -2.2310 O   0  0  0  0  0  0  0  0  0  0  0  0
    0.7620   18.1060   -0.4310 C   0  0  0  0  0  0  0  0  0  0  0  0
   -0.4350   17.7430    0.4830 C   0  0  0  0  0  0  0  0  0  0  0  0
    1.7690   18.8820    0.4600 C   0  0  0  0  0  0  0  0  0  0  0  0
    1.1010   14.7940   -2.7470 C   0  0  1  0  0  0  0  0  0  0  0  0
    2.0430   15.1610   -3.9340 C   0  0  0  0  0  0  0  0  0  0  0  0
   -0.0620   13.9240   -3.3560 C   0  0  0  0  0  0  0  0  0  0  0  0
   -0.7590   12.9320   -2.4050 C   0  0  0  0  0  0  0  0  0  0  0  0
    0.2690   12.0880   -1.6450 C   0  0  2  0  0  0  0  0  0  0  0  0
    1.0650   11.2420   -2.6970 C   0  0  0  0  0  0  0  0  0  0  0  0
    0.1976    9.0272   -2.7166 H   0  0  0  0  0  0  0  0  0  0  0  0
   -1.5670    9.1780   -3.0169 H   0  0  0  0  0  0  0  0  0  0  0  0
   -0.5275   10.6430   -3.0169 H   0  0  0  0  0  0  0  0  0  0  0  0
   -0.4712    8.9678   -0.5464 H   0  0  0  0  0  0  0  0  0  0  0  0
   -2.5556   10.2696    0.2955 H   0  0  0  0  0  0  0  0  0  0  0  0
   -2.9472   10.4016   -1.4854 H   0  0  0  0  0  0  0  0  0  0  0  0
   -2.8111    7.9176   -1.6342 H   0  0  0  0  0  0  0  0  0  0  0  0
   -2.6531    7.8771    0.1714 H   0  0  0  0  0  0  0  0  0  0  0  0
   -4.5067    9.5639   -0.3184 H   0  0  0  0  0  0  0  0  0  0  0  0
   -4.5436    5.8492   -1.9576 H   0  0  0  0  0  0  0  0  0  0  0  0
   -5.8476    6.3932   -3.0668 H   0  0  0  0  0  0  0  0  0  0  0  0
   -4.2599    7.2333   -3.0668 H   0  0  0  0  0  0  0  0  0  0  0  0
   -7.3589    8.2809   -0.5354 H   0  0  0  0  0  0  0  0  0  0  0  0
   -6.9360    9.0869   -2.0840 H   0  0  0  0  0  0  0  0  0  0  0  0
   -7.5015    7.3819   -2.0840 H   0  0  0  0  0  0  0  0  0  0  0  0
   -1.1471   11.5782   -0.0614 H   0  0  0  0  0  0  0  0  0  0  0  0
    0.6526   10.8911    1.3961 H   0  0  0  0  0  0  0  0  0  0  0  0
    1.3920    9.8816    0.1349 H   0  0  0  0  0  0  0  0  0  0  0  0
    2.3355   12.4440    0.9770 H   0  0  0  0  0  0  0  0  0  0  0  0
    2.8435   11.6437   -0.5080 H   0  0  0  0  0  0  0  0  0  0  0  0
    0.6732   13.5391    1.3114 H   0  0  0  0  0  0  0  0  0  0  0  0
    0.5715   14.9316    0.1813 H   0  0  0  0  0  0  0  0  0  0  0  0
   -0.7160   13.6790    0.1813 H   0  0  0  0  0  0  0  0  0  0  0  0
    2.5775   13.2655   -2.2875 H   0  0  0  0  0  0  0  0  0  0  0  0
    3.3402   14.3751   -0.0913 H   0  0  0  0  0  0  0  0  0  0  0  0
    3.7908   15.0907   -1.7265 H   0  0  0  0  0  0  0  0  0  0  0  0
    3.0650   16.8065    0.1382 H   0  0  0  0  0  0  0  0  0  0  0  0
   -0.4154   15.7375   -1.6056 H   0  0  0  0  0  0  0  0  0  0  0  0
    0.9908   17.4909   -3.7141 H   0  0  0  0  0  0  0  0  0  0  0  0
   -0.6277   16.6754   -3.8753 H   0  0  0  0  0  0  0  0  0  0  0  0
   -0.8418   19.0920   -3.3946 H   0  0  0  0  0  0  0  0  0  0  0  0
   -1.5314   18.0490   -2.0896 H   0  0  0  0  0  0  0  0  0  0  0  0
   -0.3108   19.8491   -1.0744 H   0  0  0  0  0  0  0  0  0  0  0  0
    2.2150   19.3450   -1.7400 H   0  0  0  0  0  0  0  0  0  0  0  0
   -0.1328   17.8347    1.5367 H   0  0  0  0  0  0  0  0  0  0  0  0
   -1.2717   18.4278    0.2806 H   0  0  0  0  0  0  0  0  0  0  0  0
   -0.7504   16.7088    0.2806 H   0  0  0  0  0  0  0  0  0  0  0  0
    1.5354   18.7020    1.5197 H   0  0  0  0  0  0  0  0  0  0  0  0
    2.7908   18.5355    0.2458 H   0  0  0  0  0  0  0  0  0  0  0  0
    1.6944   19.9584    0.2458 H   0  0  0  0  0  0  0  0  0  0  0  0
    3.0002   15.5339   -3.5407 H   0  0  0  0  0  0  0  0  0  0  0  0
    2.2227   14.2671   -4.5494 H   0  0  0  0  0  0  0  0  0  0  0  0
    1.5706   15.9409   -4.5494 H   0  0  0  0  0  0  0  0  0  0  0  0
   -0.8290   14.6140   -3.7375 H   0  0  0  0  0  0  0  0  0  0  0  0
    0.4180   13.2984   -4.1230 H   0  0  0  0  0  0  0  0  0  0  0  0
   -1.3685   13.4941   -1.6821 H   0  0  0  0  0  0  0  0  0  0  0  0
   -1.3929   12.2597   -3.0019 H   0  0  0  0  0  0  0  0  0  0  0  0
    1.7283   10.5370   -2.1744 H   0  0  0  0  0  0  0  0  0  0  0  0
    0.3586   10.6821   -3.3275 H   0  0  0  0  0  0  0  0  0  0  0  0
    1.6668   11.9130   -3.3275 H   0  0  0  0  0  0  0  0  0  0  0  0
  1  2  1  0
  2  3  1  0
  3  4  1  0
  4  5  1  0
  5  6  1  0
  6  7  1  0
  7  8  1  0
  7  9  1  0
  2 10  1  0
 10 11  1  0
 11 12  1  0
 12 13  1  0
 13 14  1  1
 13 15  1  0
 15 16  1  0
 16 17  1  0
 17 18  2  0
 18 19  1  0
 19 20  1  0
 20 21  1  0
 21 22  1  0
 22 23  1  0
 22 24  1  0
 24 25  1  0
 24 26  1  0
 19 27  1  0
 27 28  1  6
 27 29  1  0
 29 30  1  0
 30 31  1  0
 31 32  1  6
  7  5  1  0
 31 10  1  0
 31 13  1  0
 27 15  1  0
 24 18  1  0
  1 33  1  0
  1 34  1  0
  1 35  1  0
  2 36  1  1
  3 37  1  0
  3 38  1  0
  4 39  1  0
  4 40  1  0
  5 41  1  1
  8 42  1  0
  8 43  1  0
  8 44  1  0
  9 45  1  0
  9 46  1  0
  9 47  1  0
 10 48  1  1
 11 49  1  0
 11 50  1  0
 12 51  1  0
 12 52  1  0
 14 53  1  0
 14 54  1  0
 14 55  1  0
 15 56  1  6
 16 57  1  0
 16 58  1  0
 17 59  1  0
 19 60  1  1
 20 61  1  0
 20 62  1  0
 21 63  1  0
 21 64  1  0
 22 65  1  1
 23 66  1  0
 25 67  1  0
 25 68  1  0
 25 69  1  0
 26 70  1  0
 26 71  1  0
 26 72  1  0
 28 73  1  0
 28 74  1  0
 28 75  1  0
 29 76  1  0
 29 77  1  0
 30 78  1  0
 30 79  1  0
 32 80  1  0
 32 81  1  0
 32 82  1  0
M  END
>  <meeko>  (8) 
{"is_sidechain": [false], "intermolecular_energy": 2.731, "internal_energy": -0.839}

$$$$
EPH_relaxed_0001_pdb2pqr_Repair_396_r2_0001_out
     RDKit          3D

 82 86  0  0  0  0  0  0  0  0999 V2000
    0.4170    8.8710   -2.5870 C   0  0  0  0  0  0  0  0  0  0  0  0
    1.1820   10.0320   -3.2270 C   0  0  2  0  0  0  0  0  0  0  0  0
    2.6750   10.0250   -2.8440 C   0  0  0  0  0  0  0  0  0  0  0  0
    3.5870   10.6400   -3.9090 C   0  0  0  0  0  0  0  0  0  0  0  0
    4.9750   10.8630   -3.3890 C   0  0  2  0  0  0  0  0  0  0  0  0
    5.6060   12.0600   -3.8630 O   0  0  0  0  0  0  0  0  0  0  0  0
    6.2130   10.8210   -4.2650 C   0  0  0  0  0  0  0  0  0  0  0  0
    6.1210   10.5470   -5.7340 C   0  0  0  0  0  0  0  0  0  0  0  0
    7.5380   10.5610   -3.6190 C   0  0  0  0  0  0  0  0  0  0  0  0
    0.5470   11.3580   -2.8230 C   0  0  1  0  0  0  0  0  0  0  0  0
   -0.8410   11.1760   -2.1540 C   0  0  0  0  0  0  0  0  0  0  0  0
   -0.9640   12.2800   -1.0720 C   0  0  0  0  0  0  0  0  0  0  0  0
    0.1980   13.2550   -1.3750 C   0  0  1  0  0  0  0  0  0  0  0  0
   -0.3280   14.1570   -2.5360 C   0  0  0  0  0  0  0  0  0  0  0  0
    0.7170   14.1070   -0.1720 C   0  0  2  0  0  0  0  0  0  0  0  0
   -0.3150   15.0700    0.4390 C   0  0  0  0  0  0  0  0  0  0  0  0
   -0.3400   16.4390   -0.1560 C   0  0  0  0  0  0  0  0  0  0  0  0
    0.6180   16.9690   -0.9400 C   0  0  0  0  0  0  0  0  0  0  0  0
    1.9180   16.2040   -1.2210 C   0  0  1  0  0  0  0  0  0  0  0  0
    3.1280   17.1560   -1.0400 C   0  0  0  0  0  0  0  0  0  0  0  0
    3.0050   18.4250   -1.8790 C   0  0  0  0  0  0  0  0  0  0  0  0
    1.7300   19.1880   -1.5290 C   0  0  2  0  0  0  0  0  0  0  0  0
    1.8400   19.6800   -0.1900 O   0  0  0  0  0  0  0  0  0  0  0  0
    0.4440   18.3260   -1.6650 C   0  0  0  0  0  0  0  0  0  0  0  0
    0.1610   18.0450   -3.1620 C   0  0  0  0  0  0  0  0  0  0  0  0
   -0.7530   19.1700   -1.1480 C   0  0  0  0  0  0  0  0  0  0  0  0
    2.0980   14.8320   -0.4390 C   0  0  1  0  0  0  0  0  0  0  0  0
    2.7400   15.0960    0.9570 C   0  0  0  0  0  0  0  0  0  0  0  0
    3.1100   13.9200   -1.2280 C   0  0  0  0  0  0  0  0  0  0  0  0
    2.5190   13.0130   -2.3240 C   0  0  0  0  0  0  0  0  0  0  0  0
    1.3130   12.2300   -1.7970 C   0  0  2  0  0  0  0  0  0  0  0  0
    1.8150   11.2970   -0.6430 C   0  0  0  0  0  0  0  0  0  0  0  0
    0.4723    8.9550   -1.4916 H   0  0  0  0  0  0  0  0  0  0  0  0
   -0.6355    8.9060   -2.9047 H   0  0  0  0  0  0  0  0  0  0  0  0
    0.8644    7.9177   -2.9047 H   0  0  0  0  0  0  0  0  0  0  0  0
    1.1207    9.9071   -4.3182 H   0  0  0  0  0  0  0  0  0  0  0  0
    2.7968   10.5952   -1.9113 H   0  0  0  0  0  0  0  0  0  0  0  0
    2.9736    8.9720   -2.7345 H   0  0  0  0  0  0  0  0  0  0  0  0
    3.6349    9.9606   -4.7728 H   0  0  0  0  0  0  0  0  0  0  0  0
    3.1681   11.6154   -4.1973 H   0  0  0  0  0  0  0  0  0  0  0  0
    4.7255   10.3653   -2.4403 H   0  0  0  0  0  0  0  0  0  0  0  0
    5.7746    9.5152   -5.8936 H   0  0  0  0  0  0  0  0  0  0  0  0
    5.4090   11.2481   -6.1939 H   0  0  0  0  0  0  0  0  0  0  0  0
    7.1118   10.6763   -6.1939 H   0  0  0  0  0  0  0  0  0  0  0  0
    7.4234   10.5835   -2.5252 H   0  0  0  0  0  0  0  0  0  0  0  0
    7.9092    9.5729   -3.9285 H   0  0  0  0  0  0  0  0  0  0  0  0
    8.2551   11.3356   -3.9285 H   0  0  0  0  0  0  0  0  0  0  0  0
    0.5277   11.8591   -3.8020 H   0  0  0  0  0  0  0  0  0  0  0  0
   -1.6397   11.2880   -2.9020 H   0  0  0  0  0  0  0  0  0  0  0  0
   -0.9369   10.1745   -1.7093 H   0  0  0  0  0  0  0  0  0  0  0  0
   -1.9331   12.7945   -1.1507 H   0  0  0  0  0  0  0  0  0  0  0  0
   -0.9107   11.8719   -0.0519 H   0  0  0  0  0  0  0  0  0  0  0  0
   -0.8400   15.0349   -2.1151 H   0  0  0  0  0  0  0  0  0  0  0  0
    0.5186   14.4882   -3.1554 H   0  0  0  0  0  0  0  0  0  0  0  0
   -1.0332   13.5833   -3.1554 H   0  0  0  0  0  0  0  0  0  0  0  0
    0.9020   13.3418    0.5963 H   0  0  0  0  0  0  0  0  0  0  0  0
   -1.3128   14.6252    0.3104 H   0  0  0  0  0  0  0  0  0  0  0  0
   -0.0234   15.2009    1.4915 H   0  0  0  0  0  0  0  0  0  0  0  0
   -1.2150   17.0680    0.0647 H   0  0  0  0  0  0  0  0  0  0  0  0
    1.8565   15.8740   -2.2685 H   0  0  0  0  0  0  0  0  0  0  0  0
    3.1978   17.4398    0.0205 H   0  0  0  0  0  0  0  0  0  0  0  0
    4.0279   16.6197   -1.3757 H   0  0  0  0  0  0  0  0  0  0  0  0
    3.8750   19.0699   -1.6863 H   0  0  0  0  0  0  0  0  0  0  0  0
    2.9646   18.1416   -2.9411 H   0  0  0  0  0  0  0  0  0  0  0  0
    1.6316   20.0141   -2.2487 H   0  0  0  0  0  0  0  0  0  0  0  0
    0.9840   19.5370    0.2480 H   0  0  0  0  0  0  0  0  0  0  0  0
   -0.6171   17.2724   -3.2493 H   0  0  0  0  0  0  0  0  0  0  0  0
   -0.1832   18.9689   -3.6498 H   0  0  0  0  0  0  0  0  0  0  0  0
    1.0824   17.6942   -3.6498 H   0  0  0  0  0  0  0  0  0  0  0  0
   -0.7534   19.1703   -0.0480 H   0  0  0  0  0  0  0  0  0  0  0  0
   -0.6591   20.2027   -1.5149 H   0  0  0  0  0  0  0  0  0  0  0  0
   -1.6942   18.7347   -1.5149 H   0  0  0  0  0  0  0  0  0  0  0  0
    2.0321   14.8049    1.7471 H   0  0  0  0  0  0  0  0  0  0  0  0
    3.6620   14.5040    1.0544 H   0  0  0  0  0  0  0  0  0  0  0  0
    2.9788   16.1653    1.0544 H   0  0  0  0  0  0  0  0  0  0  0  0
    3.8500   14.5795   -1.7051 H   0  0  0  0  0  0  0  0  0  0  0  0
    3.5230   13.2312   -0.4763 H   0  0  0  0  0  0  0  0  0  0  0  0
    2.2005   13.6356   -3.1731 H   0  0  0  0  0  0  0  0  0  0  0  0
    3.2913   12.2963   -2.6400 H   0  0  0  0  0  0  0  0  0  0  0  0
    1.5705   11.7514    0.3285 H   0  0  0  0  0  0  0  0  0  0  0  0
    1.3226   10.3167   -0.7236 H   0  0  0  0  0  0  0  0  0  0  0  0
    2.9044   11.1678   -0.7236 H   0  0  0  0  0  0  0  0  0  0  0  0
  1  2  1  0
  2  3  1  0
  3  4  1  0
  4  5  1  0
  5  6  1  0
  6  7  1  0
  7  8  1  0
  7  9  1  0
  2 10  1  0
 10 11  1  0
 11 12  1  0
 12 13  1  0
 13 14  1  6
 13 15  1  0
 15 16  1  0
 16 17  1  0
 17 18  2  0
 18 19  1  0
 19 20  1  0
 20 21  1  0
 21 22  1  0
 22 23  1  0
 22 24  1  0
 24 25  1  0
 24 26  1  0
 19 27  1  0
 27 28  1  1
 27 29  1  0
 29 30  1  0
 30 31  1  0
 31 32  1  1
  7  5  1  0
 31 10  1  0
 31 13  1  0
 27 15  1  0
 24 18  1  0
  1 33  1  0
  1 34  1  0
  1 35  1  0
  2 36  1  6
  3 37  1  0
  3 38  1  0
  4 39  1  0
  4 40  1  0
  5 41  1  1
  8 42  1  0
  8 43  1  0
  8 44  1  0
  9 45  1  0
  9 46  1  0
  9 47  1  0
 10 48  1  6
 11 49  1  0
 11 50  1  0
 12 51  1  0
 12 52  1  0
 14 53  1  0
 14 54  1  0
 14 55  1  0
 15 56  1  1
 16 57  1  0
 16 58  1  0
 17 59  1  0
 19 60  1  6
 20 61  1  0
 20 62  1  0
 21 63  1  0
 21 64  1  0
 22 65  1  6
 23 66  1  0
 25 67  1  0
 25 68  1  0
 25 69  1  0
 26 70  1  0
 26 71  1  0
 26 72  1  0
 28 73  1  0
 28 74  1  0
 28 75  1  0
 29 76  1  0
 29 77  1  0
 30 78  1  0
 30 79  1  0
 32 80  1  0
 32 81  1  0
 32 82  1  0
M  END
>  <meeko>  (9) 
{"is_sidechain": [false], "intermolecular_energy": 2.731, "internal_energy": -0.839}

$$$$
EPH_relaxed_0001_pdb2pqr_Repair_396_r2_0001_out
     RDKit          3D

 82 86  0  0  0  0  0  0  0  0999 V2000
  -13.1790    8.4620    1.9030 C   0  0  0  0  0  0  0  0  0  0  0  0
  -13.1910    8.7500    0.3990 C   0  0  2  0  0  0  0  0  0  0  0  0
  -14.5550    8.4280   -0.2430 C   0  0  0  0  0  0  0  0  0  0  0  0
  -15.2860    9.6600   -0.7850 C   0  0  0  0  0  0  0  0  0  0  0  0
  -15.2180    9.7320   -2.2800 C   0  0  2  0  0  0  0  0  0  0  0  0
  -13.9030    9.9460   -2.8100 O   0  0  0  0  0  0  0  0  0  0  0  0
  -14.8580   10.9940   -3.0420 C   0  0  0  0  0  0  0  0  0  0  0  0
  -14.5430   12.2720   -2.3290 C   0  0  0  0  0  0  0  0  0  0  0  0
  -15.2870   11.1150   -4.4710 C   0  0  0  0  0  0  0  0  0  0  0  0
  -12.0890    7.9540   -0.2910 C   0  0  1  0  0  0  0  0  0  0  0  0
  -12.6200    7.1030   -1.4760 C   0  0  0  0  0  0  0  0  0  0  0  0
  -11.5060    7.0940   -2.5540 C   0  0  0  0  0  0  0  0  0  0  0  0
  -10.2570    7.6500   -1.8300 C   0  0  1  0  0  0  0  0  0  0  0  0
   -9.6770    6.4360   -1.0400 C   0  0  0  0  0  0  0  0  0  0  0  0
   -9.1740    8.3200   -2.7360 C   0  0  2  0  0  0  0  0  0  0  0  0
   -8.5160    7.3850   -3.7660 C   0  0  0  0  0  0  0  0  0  0  0  0
   -7.2850    6.6830   -3.2960 C   0  0  0  0  0  0  0  0  0  0  0  0
   -6.5690    7.0090   -2.2040 C   0  0  0  0  0  0  0  0  0  0  0  0
   -6.9240    8.2450   -1.3680 C   0  0  1  0  0  0  0  0  0  0  0  0
   -5.6340    9.0500   -1.0610 C   0  0  0  0  0  0  0  0  0  0  0  0
   -4.5520    8.1960   -0.4080 C   0  0  0  0  0  0  0  0  0  0  0  0
   -4.1850    7.0090   -1.2960 C   0  0  2  0  0  0  0  0  0  0  0  0
   -3.5530    7.5000   -2.4830 O   0  0  0  0  0  0  0  0  0  0  0  0
   -5.4070    6.1290   -1.6790 C   0  0  0  0  0  0  0  0  0  0  0  0
   -5.9060    5.3590   -0.4320 C   0  0  0  0  0  0  0  0  0  0  0  0
   -4.9230    5.0530   -2.6880 C   0  0  0  0  0  0  0  0  0  0  0  0
   -8.0910    9.1580   -1.9420 C   0  0  1  0  0  0  0  0  0  0  0  0
   -7.5090   10.1980   -2.9460 C   0  0  0  0  0  0  0  0  0  0  0  0
   -8.7240    9.9860   -0.7620 C   0  0  0  0  0  0  0  0  0  0  0  0
   -9.8710    9.3170    0.0200 C   0  0  0  0  0  0  0  0  0  0  0  0
  -10.9290    8.7540   -0.9340 C   0  0  2  0  0  0  0  0  0  0  0  0
  -11.5460    9.9560   -1.7270 C   0  0  0  0  0  0  0  0  0  0  0  0
  -13.2185    9.4107    2.4583 H   0  0  0  0  0  0  0  0  0  0  0  0
  -14.0523    7.8468    2.1655 H   0  0  0  0  0  0  0  0  0  0  0  0
  -12.2576    7.9216    2.1655 H   0  0  0  0  0  0  0  0  0  0  0  0
  -13.0104    9.8270    0.2665 H   0  0  0  0  0  0  0  0  0  0  0  0
  -14.3906    7.7276   -1.0751 H   0  0  0  0  0  0  0  0  0  0  0  0
  -15.1892    7.9993    0.5470 H   0  0  0  0  0  0  0  0  0  0  0  0
  -16.3412    9.6120   -0.4781 H   0  0  0  0  0  0  0  0  0  0  0  0
  -14.7967   10.5563   -0.3761 H   0  0  0  0  0  0  0  0  0  0  0  0
  -16.0566    9.0266   -2.3753 H   0  0  0  0  0  0  0  0  0  0  0  0
  -14.5841   12.1054   -1.2425 H   0  0  0  0  0  0  0  0  0  0  0  0
  -13.5347   12.6099   -2.6103 H   0  0  0  0  0  0  0  0  0  0  0  0
  -15.2788   13.0398   -2.6103 H   0  0  0  0  0  0  0  0  0  0  0  0
  -16.3450   11.4134   -4.5122 H   0  0  0  0  0  0  0  0  0  0  0  0
  -14.6718   11.8747   -4.9754 H   0  0  0  0  0  0  0  0  0  0  0  0
  -15.1595   10.1458   -4.9754 H   0  0  0  0  0  0  0  0  0  0  0  0
  -11.7158    7.3746    0.5663 H   0  0  0  0  0  0  0  0  0  0  0  0
  -12.8312    6.0768   -1.1408 H   0  0  0  0  0  0  0  0  0  0  0  0
  -13.5543    7.5231   -1.8768 H   0  0  0  0  0  0  0  0  0  0  0  0
  -11.3226    6.0710   -2.9142 H   0  0  0  0  0  0  0  0  0  0  0  0
  -11.7760    7.6910   -3.4375 H   0  0  0  0  0  0  0  0  0  0  0  0
   -9.7671    6.6245    0.0400 H   0  0  0  0  0  0  0  0  0  0  0  0
  -10.2379    5.5266   -1.3015 H   0  0  0  0  0  0  0  0  0  0  0  0
   -8.6171    6.3010   -1.3015 H   0  0  0  0  0  0  0  0  0  0  0  0
   -9.7678    9.0386   -3.3200 H   0  0  0  0  0  0  0  0  0  0  0  0
   -9.2543    6.6214   -4.0521 H   0  0  0  0  0  0  0  0  0  0  0  0
   -8.1996    8.0272   -4.6011 H   0  0  0  0  0  0  0  0  0  0  0  0
   -6.9339    5.8278   -3.8921 H   0  0  0  0  0  0  0  0  0  0  0  0
   -7.3584    7.8647   -0.4317 H   0  0  0  0  0  0  0  0  0  0  0  0
   -5.2402    9.4576   -2.0038 H   0  0  0  0  0  0  0  0  0  0  0  0
   -5.9001    9.8493   -0.3537 H   0  0  0  0  0  0  0  0  0  0  0  0
   -3.6564    8.8132   -0.2434 H   0  0  0  0  0  0  0  0  0  0  0  0
   -4.9361    7.8135    0.5492 H   0  0  0  0  0  0  0  0  0  0  0  0
   -3.5039    6.3645   -0.7210 H   0  0  0  0  0  0  0  0  0  0  0  0
   -2.6660    7.8110   -2.2370 H   0  0  0  0  0  0  0  0  0  0  0  0
   -5.5699    5.8776    0.4780 H   0  0  0  0  0  0  0  0  0  0  0  0
   -7.0050    5.3146   -0.4440 H   0  0  0  0  0  0  0  0  0  0  0  0
   -5.4976    4.3377   -0.4440 H   0  0  0  0  0  0  0  0  0  0  0  0
   -4.5322    4.1841   -2.1381 H   0  0  0  0  0  0  0  0  0  0  0  0
   -5.7660    4.7378   -3.3204 H   0  0  0  0  0  0  0  0  0  0  0  0
   -4.1278    5.4747   -3.3204 H   0  0  0  0  0  0  0  0  0  0  0  0
   -7.0458   11.0258   -2.3891 H   0  0  0  0  0  0  0  0  0  0  0  0
   -6.7514    9.7126   -3.5788 H   0  0  0  0  0  0  0  0  0  0  0  0
   -8.3190   10.5898   -3.5788 H   0  0  0  0  0  0  0  0  0  0  0  0
   -7.9204   10.2119   -0.0456 H   0  0  0  0  0  0  0  0  0  0  0  0
   -9.1773   10.8671   -1.2398 H   0  0  0  0  0  0  0  0  0  0  0  0
   -9.4616    8.4968    0.6280 H   0  0  0  0  0  0  0  0  0  0  0  0
  -10.3451   10.0731    0.6631 H   0  0  0  0  0  0  0  0  0  0  0  0
  -11.9301   10.7043   -1.0182 H   0  0  0  0  0  0  0  0  0  0  0  0
  -10.7715   10.4140   -2.3598 H   0  0  0  0  0  0  0  0  0  0  0  0
  -12.3696    9.5937   -2.3598 H   0  0  0  0  0  0  0  0  0  0  0  0
  1  2  1  0
  2  3  1  0
  3  4  1  0
  4  5  1  0
  5  6  1  0
  6  7  1  0
  7  8  1  0
  7  9  1  0
  2 10  1  0
 10 11  1  0
 11 12  1  0
 12 13  1  0
 13 14  1  1
 13 15  1  0
 15 16  1  0
 16 17  1  0
 17 18  2  0
 18 19  1  0
 19 20  1  0
 20 21  1  0
 21 22  1  0
 22 23  1  0
 22 24  1  0
 24 25  1  0
 24 26  1  0
 19 27  1  0
 27 28  1  6
 27 29  1  0
 29 30  1  0
 30 31  1  0
 31 32  1  6
  7  5  1  0
 31 10  1  0
 31 13  1  0
 27 15  1  0
 24 18  1  0
  1 33  1  0
  1 34  1  0
  1 35  1  0
  2 36  1  1
  3 37  1  0
  3 38  1  0
  4 39  1  0
  4 40  1  0
  5 41  1  6
  8 42  1  0
  8 43  1  0
  8 44  1  0
  9 45  1  0
  9 46  1  0
  9 47  1  0
 10 48  1  1
 11 49  1  0
 11 50  1  0
 12 51  1  0
 12 52  1  0
 14 53  1  0
 14 54  1  0
 14 55  1  0
 15 56  1  6
 16 57  1  0
 16 58  1  0
 17 59  1  0
 19 60  1  1
 20 61  1  0
 20 62  1  0
 21 63  1  0
 21 64  1  0
 22 65  1  1
 23 66  1  0
 25 67  1  0
 25 68  1  0
 25 69  1  0
 26 70  1  0
 26 71  1  0
 26 72  1  0
 28 73  1  0
 28 74  1  0
 28 75  1  0
 29 76  1  0
 29 77  1  0
 30 78  1  0
 30 79  1  0
 32 80  1  0
 32 81  1  0
 32 82  1  0
M  END
>  <meeko>  (10) 
{"is_sidechain": [false], "intermolecular_energy": 2.731, "internal_energy": -0.839}

$$$$
EPH_relaxed_0001_pdb2pqr_Repair_396_r2_0001_out
     RDKit          3D

 82 86  0  0  0  0  0  0  0  0999 V2000
   -0.0840   10.5240   -3.9730 C   0  0  0  0  0  0  0  0  0  0  0  0
    1.0940   10.3530   -3.0100 C   0  0  2  0  0  0  0  0  0  0  0  0
    1.0200    9.0230   -2.2320 C   0  0  0  0  0  0  0  0  0  0  0  0
   -0.4080    8.5880   -1.8920 C   0  0  0  0  0  0  0  0  0  0  0  0
   -0.7560    8.8960   -0.4670 C   0  0  2  0  0  0  0  0  0  0  0  0
   -2.1610    8.9090   -0.1840 O   0  0  0  0  0  0  0  0  0  0  0  0
   -1.4730   10.1620   -0.0360 C   0  0  0  0  0  0  0  0  0  0  0  0
   -1.8840   11.2030   -1.0300 C   0  0  0  0  0  0  0  0  0  0  0  0
   -1.3380   10.6120    1.3850 C   0  0  0  0  0  0  0  0  0  0  0  0
    1.1430   11.5240   -2.0350 C   0  0  1  0  0  0  0  0  0  0  0  0
    2.1990   11.3250   -0.9150 C   0  0  0  0  0  0  0  0  0  0  0  0
    2.7830   12.7260   -0.5980 C   0  0  0  0  0  0  0  0  0  0  0  0
    1.8220   13.7170   -1.2970 C   0  0  1  0  0  0  0  0  0  0  0  0
    0.6130   13.8600   -0.3190 C   0  0  0  0  0  0  0  0  0  0  0  0
    2.4230   15.1080   -1.6800 C   0  0  2  0  0  0  0  0  0  0  0  0
    2.9020   15.9610   -0.4920 C   0  0  0  0  0  0  0  0  0  0  0  0
    1.8770   16.8780    0.0890 C   0  0  0  0  0  0  0  0  0  0  0  0
    0.7140   17.2220   -0.4950 C   0  0  0  0  0  0  0  0  0  0  0  0
    0.3760   16.7510   -1.9150 C   0  0  1  0  0  0  0  0  0  0  0  0
   -0.1620   17.9470   -2.7440 C   0  0  0  0  0  0  0  0  0  0  0  0
   -1.3370   18.6460   -2.0660 C   0  0  0  0  0  0  0  0  0  0  0  0
   -0.9450   19.1520   -0.6800 C   0  0  2  0  0  0  0  0  0  0  0  0
    0.0260   20.1930   -0.8270 O   0  0  0  0  0  0  0  0  0  0  0  0
   -0.3780   18.0360    0.2420 C   0  0  0  0  0  0  0  0  0  0  0  0
   -1.5170   17.0670    0.6450 C   0  0  0  0  0  0  0  0  0  0  0  0
    0.1090   18.7040    1.5560 C   0  0  0  0  0  0  0  0  0  0  0  0
    1.5230   15.9520   -2.6720 C   0  0  1  0  0  0  0  0  0  0  0  0
    2.4760   16.9490   -3.3980 C   0  0  0  0  0  0  0  0  0  0  0  0
    0.8730   15.0600   -3.7950 C   0  0  0  0  0  0  0  0  0  0  0  0
    0.4080   13.6510   -3.3810 C   0  0  0  0  0  0  0  0  0  0  0  0
    1.5090   12.9140   -2.6120 C   0  0  2  0  0  0  0  0  0  0  0  0
    2.7300   12.7360   -3.5770 C   0  0  0  0  0  0  0  0  0  0  0  0
   -1.0116   10.6587   -3.3973 H   0  0  0  0  0  0  0  0  0  0  0  0
    0.0857   11.4069   -4.6068 H   0  0  0  0  0  0  0  0  0  0  0  0
   -0.1724    9.6293   -4.6068 H   0  0  0  0  0  0  0  0  0  0  0  0
    2.0137   10.3324   -3.6131 H   0  0  0  0  0  0  0  0  0  0  0  0
    1.4864    8.2365   -2.8434 H   0  0  0  0  0  0  0  0  0  0  0  0
    1.5445    9.1789   -1.2778 H   0  0  0  0  0  0  0  0  0  0  0  0
   -1.1093    9.1183   -2.5530 H   0  0  0  0  0  0  0  0  0  0  0  0
   -0.4786    7.4996   -2.0351 H   0  0  0  0  0  0  0  0  0  0  0  0
    0.1668    8.4137   -0.1122 H   0  0  0  0  0  0  0  0  0  0  0  0
   -2.2376   12.0986   -0.4981 H   0  0  0  0  0  0  0  0  0  0  0  0
   -1.0228   11.4675   -1.6612 H   0  0  0  0  0  0  0  0  0  0  0  0
   -2.6936   10.8079   -1.6612 H   0  0  0  0  0  0  0  0  0  0  0  0
   -1.5879    9.7791    2.0587 H   0  0  0  0  0  0  0  0  0  0  0  0
   -0.3032   10.9357    1.5704 H   0  0  0  0  0  0  0  0  0  0  0  0
   -2.0237   11.4519    1.5704 H   0  0  0  0  0  0  0  0  0  0  0  0
    0.0979   11.5227   -1.6918 H   0  0  0  0  0  0  0  0  0  0  0  0
    1.7246   10.9004   -0.0180 H   0  0  0  0  0  0  0  0  0  0  0  0
    2.9895   10.6306   -1.2358 H   0  0  0  0  0  0  0  0  0  0  0  0
    2.8008   12.9027    0.4876 H   0  0  0  0  0  0  0  0  0  0  0  0
    3.8204   12.8343   -0.9475 H   0  0  0  0  0  0  0  0  0  0  0  0
    0.9741   13.8173    0.7191 H   0  0  0  0  0  0  0  0  0  0  0  0
    0.1121   14.8236   -0.4936 H   0  0  0  0  0  0  0  0  0  0  0  0
   -0.0989   13.0398   -0.4936 H   0  0  0  0  0  0  0  0  0  0  0  0
    3.3319   14.8284   -2.2329 H   0  0  0  0  0  0  0  0  0  0  0  0
    3.2373   15.2787    0.3030 H   0  0  0  0  0  0  0  0  0  0  0  0
    3.7012   16.6072   -0.8840 H   0  0  0  0  0  0  0  0  0  0  0  0
    2.0903   17.3091    1.0783 H   0  0  0  0  0  0  0  0  0  0  0  0
   -0.4108   15.9904   -1.8030 H   0  0  0  0  0  0  0  0  0  0  0  0
    0.6507   18.6755   -2.8807 H   0  0  0  0  0  0  0  0  0  0  0  0
   -0.5180   17.5529   -3.7073 H   0  0  0  0  0  0  0  0  0  0  0  0
   -1.6539   19.4989   -2.6842 H   0  0  0  0  0  0  0  0  0  0  0  0
   -2.1594   17.9237   -1.9564 H   0  0  0  0  0  0  0  0  0  0  0  0
   -1.8587   19.5260   -0.1949 H   0  0  0  0  0  0  0  0  0  0  0  0
    0.7080   20.0570   -0.1490 H   0  0  0  0  0  0  0  0  0  0  0  0
   -1.5811   17.0125    1.7418 H   0  0  0  0  0  0  0  0  0  0  0  0
   -2.4714   17.4342    0.2397 H   0  0  0  0  0  0  0  0  0  0  0  0
   -1.3074   16.0661    0.2397 H   0  0  0  0  0  0  0  0  0  0  0  0
   -0.2931   18.1524    2.4186 H   0  0  0  0  0  0  0  0  0  0  0  0
    1.2083   18.6873    1.5902 H   0  0  0  0  0  0  0  0  0  0  0  0
   -0.2432   19.7455    1.5902 H   0  0  0  0  0  0  0  0  0  0  0  0
    3.0340   17.5327   -2.6511 H   0  0  0  0  0  0  0  0  0  0  0  0
    3.1825   16.3883   -4.0276 H   0  0  0  0  0  0  0  0  0  0  0  0
    1.8841   17.6295   -4.0276 H   0  0  0  0  0  0  0  0  0  0  0  0
   -0.0040   15.5994   -4.1823 H   0  0  0  0  0  0  0  0  0  0  0  0
    1.6742   14.8941   -4.5303 H   0  0  0  0  0  0  0  0  0  0  0  0
   -0.4813   13.7395   -2.7397 H   0  0  0  0  0  0  0  0  0  0  0  0
    0.1718   13.0785   -4.2901 H   0  0  0  0  0  0  0  0  0  0  0  0
    3.6480   12.6022   -2.9860 H   0  0  0  0  0  0  0  0  0  0  0  0
    2.5701   11.8517   -4.2113 H   0  0  0  0  0  0  0  0  0  0  0  0
    2.8293   13.6292   -4.2113 H   0  0  0  0  0  0  0  0  0  0  0  0
  1  2  1  0
  2  3  1  0
  3  4  1  0
  4  5  1  0
  5  6  1  0
  6  7  1  0
  7  8  1  0
  7  9  1  0
  2 10  1  0
 10 11  1  0
 11 12  1  0
 12 13  1  0
 13 14  1  1
 13 15  1  0
 15 16  1  0
 16 17  1  0
 17 18  2  0
 18 19  1  0
 19 20  1  0
 20 21  1  0
 21 22  1  0
 22 23  1  0
 22 24  1  0
 24 25  1  0
 24 26  1  0
 19 27  1  0
 27 28  1  6
 27 29  1  0
 29 30  1  0
 30 31  1  0
 31 32  1  6
  7  5  1  0
 31 10  1  0
 31 13  1  0
 27 15  1  0
 24 18  1  0
  1 33  1  0
  1 34  1  0
  1 35  1  0
  2 36  1  6
  3 37  1  0
  3 38  1  0
  4 39  1  0
  4 40  1  0
  5 41  1  1
  8 42  1  0
  8 43  1  0
  8 44  1  0
  9 45  1  0
  9 46  1  0
  9 47  1  0
 10 48  1  1
 11 49  1  0
 11 50  1  0
 12 51  1  0
 12 52  1  0
 14 53  1  0
 14 54  1  0
 14 55  1  0
 15 56  1  6
 16 57  1  0
 16 58  1  0
 17 59  1  0
 19 60  1  1
 20 61  1  0
 20 62  1  0
 21 63  1  0
 21 64  1  0
 22 65  1  1
 23 66  1  0
 25 67  1  0
 25 68  1  0
 25 69  1  0
 26 70  1  0
 26 71  1  0
 26 72  1  0
 28 73  1  0
 28 74  1  0
 28 75  1  0
 29 76  1  0
 29 77  1  0
 30 78  1  0
 30 79  1  0
 32 80  1  0
 32 81  1  0
 32 82  1  0
M  END
>  <meeko>  (11) 
{"is_sidechain": [false], "intermolecular_energy": 2.731, "internal_energy": -0.839}

$$$$
EPH_relaxed_0001_pdb2pqr_Repair_396_r2_0001_out
     RDKit          3D

 82 86  0  0  0  0  0  0  0  0999 V2000
   -5.1790    6.8090   -0.2720 C   0  0  0  0  0  0  0  0  0  0  0  0
   -5.2290    7.9290   -1.3150 C   0  0  2  0  0  0  0  0  0  0  0  0
   -4.7880    9.2860   -0.7310 C   0  0  0  0  0  0  0  0  0  0  0  0
   -3.4280    9.2410   -0.0290 C   0  0  0  0  0  0  0  0  0  0  0  0
   -2.3280    8.8640   -0.9750 C   0  0  2  0  0  0  0  0  0  0  0  0
   -1.0650    8.5990   -0.3490 O   0  0  0  0  0  0  0  0  0  0  0  0
   -1.1110    9.7330   -1.2310 C   0  0  0  0  0  0  0  0  0  0  0  0
   -0.9320   11.0480   -0.5400 C   0  0  0  0  0  0  0  0  0  0  0  0
   -0.3480    9.5370   -2.5040 C   0  0  0  0  0  0  0  0  0  0  0  0
   -6.6370    8.0420   -1.8890 C   0  0  1  0  0  0  0  0  0  0  0  0
   -6.7680    7.3780   -3.2850 C   0  0  0  0  0  0  0  0  0  0  0  0
   -8.1920    6.7700   -3.3600 C   0  0  0  0  0  0  0  0  0  0  0  0
   -8.9410    7.3830   -2.1540 C   0  0  1  0  0  0  0  0  0  0  0  0
   -9.3850    8.8000   -2.6360 C   0  0  0  0  0  0  0  0  0  0  0  0
  -10.1480    6.5590   -1.5980 C   0  0  2  0  0  0  0  0  0  0  0  0
  -11.3100    6.3550   -2.5860 C   0  0  0  0  0  0  0  0  0  0  0  0
  -12.3710    7.4040   -2.5470 C   0  0  0  0  0  0  0  0  0  0  0  0
  -12.5410    8.3090   -1.5650 C   0  0  0  0  0  0  0  0  0  0  0  0
  -11.6720    8.2720   -0.3010 C   0  0  1  0  0  0  0  0  0  0  0  0
  -12.5730    8.4250    0.9520 C   0  0  0  0  0  0  0  0  0  0  0  0
  -13.4580    9.6660    0.8880 C   0  0  0  0  0  0  0  0  0  0  0  0
  -14.3480    9.6390   -0.3510 C   0  0  2  0  0  0  0  0  0  0  0  0
  -15.2860    8.5660   -0.2210 O   0  0  0  0  0  0  0  0  0  0  0  0
  -13.5510    9.4780   -1.6750 C   0  0  0  0  0  0  0  0  0  0  0  0
  -12.7600   10.7770   -1.9680 C   0  0  0  0  0  0  0  0  0  0  0  0
  -14.5730    9.3220   -2.8330 C   0  0  0  0  0  0  0  0  0  0  0  0
  -10.6690    7.0450   -0.1850 C   0  0  1  0  0  0  0  0  0  0  0  0
  -11.3920    5.8260    0.4660 C   0  0  0  0  0  0  0  0  0  0  0  0
   -9.4910    7.4330    0.7860 C   0  0  0  0  0  0  0  0  0  0  0  0
   -8.2750    8.1380    0.1560 C   0  0  0  0  0  0  0  0  0  0  0  0
   -7.7870    7.3860   -1.0860 C   0  0  2  0  0  0  0  0  0  0  0  0
   -7.3140    5.9640   -0.6280 C   0  0  0  0  0  0  0  0  0  0  0  0
   -5.1985    7.2465    0.7371 H   0  0  0  0  0  0  0  0  0  0  0  0
   -6.0485    6.1479   -0.4019 H   0  0  0  0  0  0  0  0  0  0  0  0
   -4.2540    6.2280   -0.4019 H   0  0  0  0  0  0  0  0  0  0  0  0
   -4.5209    7.6681   -2.1153 H   0  0  0  0  0  0  0  0  0  0  0  0
   -4.7309   10.0155   -1.5523 H   0  0  0  0  0  0  0  0  0  0  0  0
   -5.5327    9.5665    0.0284 H   0  0  0  0  0  0  0  0  0  0  0  0
   -3.2113   10.2337    0.3923 H   0  0  0  0  0  0  0  0  0  0  0  0
   -3.4758    8.4787    0.7626 H   0  0  0  0  0  0  0  0  0  0  0  0
   -3.0453    8.3805   -1.6545 H   0  0  0  0  0  0  0  0  0  0  0  0
   -0.9527   10.8957    0.5492 H   0  0  0  0  0  0  0  0  0  0  0  0
    0.0341   11.4864   -0.8306 H   0  0  0  0  0  0  0  0  0  0  0  0
   -1.7458   11.7287   -0.8306 H   0  0  0  0  0  0  0  0  0  0  0  0
    0.6930    9.2696   -2.2701 H   0  0  0  0  0  0  0  0  0  0  0  0
   -0.8117    8.7288   -3.0887 H   0  0  0  0  0  0  0  0  0  0  0  0
   -0.3647   10.4686   -3.0887 H   0  0  0  0  0  0  0  0  0  0  0  0
   -6.7508    9.1361   -1.8834 H   0  0  0  0  0  0  0  0  0  0  0  0
   -6.6354    8.1306   -4.0762 H   0  0  0  0  0  0  0  0  0  0  0  0
   -6.0001    6.6033   -3.4272 H   0  0  0  0  0  0  0  0  0  0  0  0
   -8.6835    7.0472   -4.3042 H   0  0  0  0  0  0  0  0  0  0  0  0
   -8.1787    5.6705   -3.3282 H   0  0  0  0  0  0  0  0  0  0  0  0
   -9.5850    9.4383   -1.7628 H   0  0  0  0  0  0  0  0  0  0  0  0
   -8.5844    9.2486   -3.2424 H   0  0  0  0  0  0  0  0  0  0  0  0
  -10.2985    8.7115   -3.2424 H   0  0  0  0  0  0  0  0  0  0  0  0
   -9.7046    5.5634   -1.4494 H   0  0  0  0  0  0  0  0  0  0  0  0
  -10.8915    6.3324   -3.6030 H   0  0  0  0  0  0  0  0  0  0  0  0
  -11.7997    5.4154   -2.2903 H   0  0  0  0  0  0  0  0  0  0  0  0
  -13.0737    7.4407   -3.3925 H   0  0  0  0  0  0  0  0  0  0  0  0
  -10.9892    9.1311   -0.3766 H   0  0  0  0  0  0  0  0  0  0  0  0
  -13.2166    7.5367    1.0341 H   0  0  0  0  0  0  0  0  0  0  0  0
  -11.9139    8.5296    1.8265 H   0  0  0  0  0  0  0  0  0  0  0  0
  -14.0923    9.7023    1.7859 H   0  0  0  0  0  0  0  0  0  0  0  0
  -12.8122   10.5550    0.8365 H   0  0  0  0  0  0  0  0  0  0  0  0
  -14.8605   10.6105   -0.4100 H   0  0  0  0  0  0  0  0  0  0  0  0
  -16.0260    8.8860    0.3220 H   0  0  0  0  0  0  0  0  0  0  0  0
  -12.4707   11.2521   -1.0190 H   0  0  0  0  0  0  0  0  0  0  0  0
  -11.8566   10.5336   -2.5465 H   0  0  0  0  0  0  0  0  0  0  0  0
  -13.3909   11.4679   -2.5465 H   0  0  0  0  0  0  0  0  0  0  0  0
  -15.5792    9.1684   -2.4158 H   0  0  0  0  0  0  0  0  0  0  0  0
  -14.5675   10.2314   -3.4519 H   0  0  0  0  0  0  0  0  0  0  0  0
  -14.2965    8.4557   -3.4519 H   0  0  0  0  0  0  0  0  0  0  0  0
  -11.3411    5.9117    1.5615 H   0  0  0  0  0  0  0  0  0  0  0  0
  -12.4449    5.8114    0.1478 H   0  0  0  0  0  0  0  0  0  0  0  0
  -10.8999    4.8951    0.1478 H   0  0  0  0  0  0  0  0  0  0  0  0
   -9.9015    8.1024    1.5563 H   0  0  0  0  0  0  0  0  0  0  0  0
   -9.1039    6.4759    1.1656 H   0  0  0  0  0  0  0  0  0  0  0  0
   -8.5612    9.1603   -0.1319 H   0  0  0  0  0  0  0  0  0  0  0  0
   -7.4606    8.1594    0.8951 H   0  0  0  0  0  0  0  0  0  0  0  0
   -7.2990    5.9189    0.4710 H   0  0  0  0  0  0  0  0  0  0  0  0
   -8.0077    5.2040   -1.0167 H   0  0  0  0  0  0  0  0  0  0  0  0
   -6.3033    5.7709   -1.0167 H   0  0  0  0  0  0  0  0  0  0  0  0
  1  2  1  0
  2  3  1  0
  3  4  1  0
  4  5  1  0
  5  6  1  0
  6  7  1  0
  7  8  1  0
  7  9  1  0
  2 10  1  0
 10 11  1  0
 11 12  1  0
 12 13  1  0
 13 14  1  6
 13 15  1  0
 15 16  1  0
 16 17  1  0
 17 18  2  0
 18 19  1  0
 19 20  1  0
 20 21  1  0
 21 22  1  0
 22 23  1  0
 22 24  1  0
 24 25  1  0
 24 26  1  0
 19 27  1  0
 27 28  1  1
 27 29  1  0
 29 30  1  0
 30 31  1  0
 31 32  1  1
  7  5  1  0
 31 10  1  0
 31 13  1  0
 27 15  1  0
 24 18  1  0
  1 33  1  0
  1 34  1  0
  1 35  1  0
  2 36  1  6
  3 37  1  0
  3 38  1  0
  4 39  1  0
  4 40  1  0
  5 41  1  6
  8 42  1  0
  8 43  1  0
  8 44  1  0
  9 45  1  0
  9 46  1  0
  9 47  1  0
 10 48  1  6
 11 49  1  0
 11 50  1  0
 12 51  1  0
 12 52  1  0
 14 53  1  0
 14 54  1  0
 14 55  1  0
 15 56  1  1
 16 57  1  0
 16 58  1  0
 17 59  1  0
 19 60  1  6
 20 61  1  0
 20 62  1  0
 21 63  1  0
 21 64  1  0
 22 65  1  6
 23 66  1  0
 25 67  1  0
 25 68  1  0
 25 69  1  0
 26 70  1  0
 26 71  1  0
 26 72  1  0
 28 73  1  0
 28 74  1  0
 28 75  1  0
 29 76  1  0
 29 77  1  0
 30 78  1  0
 30 79  1  0
 32 80  1  0
 32 81  1  0
 32 82  1  0
M  END
>  <meeko>  (12) 
{"is_sidechain": [false], "intermolecular_energy": 2.731, "internal_energy": -0.839}

$$$$
EPH_relaxed_0001_pdb2pqr_Repair_396_r2_0001_out
     RDKit          3D

 82 86  0  0  0  0  0  0  0  0999 V2000
   -4.0160    7.2490   -3.3650 C   0  0  0  0  0  0  0  0  0  0  0  0
   -3.9460    7.2910   -1.8360 C   0  0  2  0  0  0  0  0  0  0  0  0
   -5.3250    7.0630   -1.1850 C   0  0  0  0  0  0  0  0  0  0  0  0
   -6.4960    7.1880   -2.1640 C   0  0  0  0  0  0  0  0  0  0  0  0
   -7.7980    7.3870   -1.4480 C   0  0  2  0  0  0  0  0  0  0  0  0
   -8.8490    7.9300   -2.2570 O   0  0  0  0  0  0  0  0  0  0  0  0
   -8.3990    8.7510   -1.1670 C   0  0  0  0  0  0  0  0  0  0  0  0
   -7.7120   10.0100   -1.5970 C   0  0  0  0  0  0  0  0  0  0  0  0
   -9.3960    8.8800   -0.0580 C   0  0  0  0  0  0  0  0  0  0  0  0
   -3.3690    8.6260   -1.3790 C   0  0  1  0  0  0  0  0  0  0  0  0
   -3.9530    9.0960   -0.0200 C   0  0  0  0  0  0  0  0  0  0  0  0
   -2.8100    9.8270    0.7300 C   0  0  0  0  0  0  0  0  0  0  0  0
   -1.7170   10.0450   -0.3430 C   0  0  1  0  0  0  0  0  0  0  0  0
   -2.1770   11.3100   -1.1330 C   0  0  0  0  0  0  0  0  0  0  0  0
   -0.2530   10.1940    0.1840 C   0  0  2  0  0  0  0  0  0  0  0  0
   -0.0080   11.4090    1.0950 C   0  0  0  0  0  0  0  0  0  0  0  0
    0.4150   12.6580    0.3940 C   0  0  0  0  0  0  0  0  0  0  0  0
    0.8660   12.7290   -0.8720 C   0  0  0  0  0  0  0  0  0  0  0  0
    1.0800   11.4590   -1.7050 C   0  0  1  0  0  0  0  0  0  0  0  0
    2.4590   11.5290   -2.4120 C   0  0  0  0  0  0  0  0  0  0  0  0
    2.6300   12.8020   -3.2350 C   0  0  0  0  0  0  0  0  0  0  0  0
    2.4680   14.0430   -2.3610 C   0  0  2  0  0  0  0  0  0  0  0  0
    3.5550   14.0960   -1.4310 O   0  0  0  0  0  0  0  0  0  0  0  0
    1.1190   14.0780   -1.5910 C   0  0  0  0  0  0  0  0  0  0  0  0
   -0.0420   14.3230   -2.5860 C   0  0  0  0  0  0  0  0  0  0  0  0
    1.1430   15.3050   -0.6400 C   0  0  0  0  0  0  0  0  0  0  0  0
    0.8550   10.0830   -0.9410 C   0  0  1  0  0  0  0  0  0  0  0  0
    2.1720    9.6490   -0.2280 C   0  0  0  0  0  0  0  0  0  0  0  0
    0.5280    8.9590   -1.9940 C   0  0  0  0  0  0  0  0  0  0  0  0
   -0.9520    8.7810   -2.3830 C   0  0  0  0  0  0  0  0  0  0  0  0
   -1.8400    8.6950   -1.1390 C   0  0  2  0  0  0  0  0  0  0  0  0
   -1.4150    7.4190   -0.3350 C   0  0  0  0  0  0  0  0  0  0  0  0
   -4.9208    6.7061   -3.6758 H   0  0  0  0  0  0  0  0  0  0  0  0
   -4.0508    8.2755   -3.7588 H   0  0  0  0  0  0  0  0  0  0  0  0
   -3.1267    6.7352   -3.7588 H   0  0  0  0  0  0  0  0  0  0  0  0
   -3.2884    6.4708   -1.5121 H   0  0  0  0  0  0  0  0  0  0  0  0
   -5.3414    6.0523   -0.7511 H   0  0  0  0  0  0  0  0  0  0  0  0
   -5.4557    7.8479   -0.4255 H   0  0  0  0  0  0  0  0  0  0  0  0
   -6.3176    8.0487   -2.8253 H   0  0  0  0  0  0  0  0  0  0  0  0
   -6.5614    6.2542   -2.7417 H   0  0  0  0  0  0  0  0  0  0  0  0
   -7.6005    6.5205   -0.7998 H   0  0  0  0  0  0  0  0  0  0  0  0
   -7.4011   10.5797   -0.7089 H   0  0  0  0  0  0  0  0  0  0  0  0
   -6.8267    9.7574   -2.1990 H   0  0  0  0  0  0  0  0  0  0  0  0
   -8.4035   10.6178   -2.1990 H   0  0  0  0  0  0  0  0  0  0  0  0
   -8.8782    8.8130    0.9102 H   0  0  0  0  0  0  0  0  0  0  0  0
   -9.9060    9.8516   -0.1346 H   0  0  0  0  0  0  0  0  0  0  0  0
  -10.1365    8.0702   -0.1346 H   0  0  0  0  0  0  0  0  0  0  0  0
   -3.6432    9.2502   -2.2423 H   0  0  0  0  0  0  0  0  0  0  0  0
   -4.7960    9.7826   -0.1872 H   0  0  0  0  0  0  0  0  0  0  0  0
   -4.3266    8.2428    0.5652 H   0  0  0  0  0  0  0  0  0  0  0  0
   -3.1608   10.7904    1.1285 H   0  0  0  0  0  0  0  0  0  0  0  0
   -2.4405    9.2510    1.5912 H   0  0  0  0  0  0  0  0  0  0  0  0
   -2.4645   12.1005   -0.4242 H   0  0  0  0  0  0  0  0  0  0  0  0
   -1.3513   11.6675   -1.7658 H   0  0  0  0  0  0  0  0  0  0  0  0
   -3.0394   11.0536   -1.7658 H   0  0  0  0  0  0  0  0  0  0  0  0
   -0.1435    9.3098    0.8292 H   0  0  0  0  0  0  0  0  0  0  0  0
   -0.9421   11.6224    1.6353 H   0  0  0  0  0  0  0  0  0  0  0  0
    0.8286   11.1316    1.7531 H   0  0  0  0  0  0  0  0  0  0  0  0
    0.3527   13.5991    0.9601 H   0  0  0  0  0  0  0  0  0  0  0  0
    0.2762   11.4489   -2.4559 H   0  0  0  0  0  0  0  0  0  0  0  0
    3.2494   11.4943   -1.6477 H   0  0  0  0  0  0  0  0  0  0  0  0
    2.5248   10.6742   -3.1012 H   0  0  0  0  0  0  0  0  0  0  0  0
    3.6336   12.8074   -3.6853 H   0  0  0  0  0  0  0  0  0  0  0  0
    1.8571   12.8205   -4.0175 H   0  0  0  0  0  0  0  0  0  0  0  0
    2.4713   14.9187   -3.0267 H   0  0  0  0  0  0  0  0  0  0  0  0
    4.2880   13.5790   -1.8050 H   0  0  0  0  0  0  0  0  0  0  0  0
   -0.9689   14.5186   -2.0269 H   0  0  0  0  0  0  0  0  0  0  0  0
    0.1945   15.1910   -3.2189 H   0  0  0  0  0  0  0  0  0  0  0  0
   -0.1763   13.4334   -3.2189 H   0  0  0  0  0  0  0  0  0  0  0  0
    1.1362   14.9596    0.4044 H   0  0  0  0  0  0  0  0  0  0  0  0
    2.0529   15.8948   -0.8253 H   0  0  0  0  0  0  0  0  0  0  0  0
    0.2569   15.9299   -0.8253 H   0  0  0  0  0  0  0  0  0  0  0  0
    2.0313    9.6954    0.8620 H   0  0  0  0  0  0  0  0  0  0  0  0
    2.4258    8.6197   -0.5215 H   0  0  0  0  0  0  0  0  0  0  0  0
    2.9880   10.3257   -0.5215 H   0  0  0  0  0  0  0  0  0  0  0  0
    1.0879    9.1901   -2.9122 H   0  0  0  0  0  0  0  0  0  0  0  0
    0.8127    8.0154   -1.5056 H   0  0  0  0  0  0  0  0  0  0  0  0
   -1.2694    9.6397   -2.9928 H   0  0  0  0  0  0  0  0  0  0  0  0
   -1.0546    7.8452   -2.9520 H   0  0  0  0  0  0  0  0  0  0  0  0
   -1.4837    7.6253    0.7433 H   0  0  0  0  0  0  0  0  0  0  0  0
   -2.0836    6.5842   -0.5919 H   0  0  0  0  0  0  0  0  0  0  0  0
   -0.3793    7.1518   -0.5919 H   0  0  0  0  0  0  0  0  0  0  0  0
  1  2  1  0
  2  3  1  0
  3  4  1  0
  4  5  1  0
  5  6  1  0
  6  7  1  0
  7  8  1  0
  7  9  1  0
  2 10  1  0
 10 11  1  0
 11 12  1  0
 12 13  1  0
 13 14  1  6
 13 15  1  0
 15 16  1  0
 16 17  1  0
 17 18  2  0
 18 19  1  0
 19 20  1  0
 20 21  1  0
 21 22  1  0
 22 23  1  0
 22 24  1  0
 24 25  1  0
 24 26  1  0
 19 27  1  0
 27 28  1  1
 27 29  1  0
 29 30  1  0
 30 31  1  0
 31 32  1  1
  7  5  1  0
 31 10  1  0
 31 13  1  0
 27 15  1  0
 24 18  1  0
  1 33  1  0
  1 34  1  0
  1 35  1  0
  2 36  1  1
  3 37  1  0
  3 38  1  0
  4 39  1  0
  4 40  1  0
  5 41  1  1
  8 42  1  0
  8 43  1  0
  8 44  1  0
  9 45  1  0
  9 46  1  0
  9 47  1  0
 10 48  1  6
 11 49  1  0
 11 50  1  0
 12 51  1  0
 12 52  1  0
 14 53  1  0
 14 54  1  0
 14 55  1  0
 15 56  1  1
 16 57  1  0
 16 58  1  0
 17 59  1  0
 19 60  1  6
 20 61  1  0
 20 62  1  0
 21 63  1  0
 21 64  1  0
 22 65  1  6
 23 66  1  0
 25 67  1  0
 25 68  1  0
 25 69  1  0
 26 70  1  0
 26 71  1  0
 26 72  1  0
 28 73  1  0
 28 74  1  0
 28 75  1  0
 29 76  1  0
 29 77  1  0
 30 78  1  0
 30 79  1  0
 32 80  1  0
 32 81  1  0
 32 82  1  0
M  END
>  <meeko>  (13) 
{"is_sidechain": [false], "intermolecular_energy": 2.731, "internal_energy": -0.839}

$$$$
EPH_relaxed_0001_pdb2pqr_Repair_396_r2_0001_out
     RDKit          3D

 82 86  0  0  0  0  0  0  0  0999 V2000
   -0.2830   15.0930   -7.5850 C   0  0  0  0  0  0  0  0  0  0  0  0
    1.0930   15.0600   -6.9150 C   0  0  2  0  0  0  0  0  0  0  0  0
    2.2410   15.1400   -7.9420 C   0  0  0  0  0  0  0  0  0  0  0  0
    2.2900   16.4660   -8.7070 C   0  0  0  0  0  0  0  0  0  0  0  0
    1.8850   16.2940  -10.1400 C   0  0  2  0  0  0  0  0  0  0  0  0
    1.1900   15.0720  -10.4230 O   0  0  0  0  0  0  0  0  0  0  0  0
    2.4710   15.2340  -11.0530 C   0  0  0  0  0  0  0  0  0  0  0  0
    3.5130   14.2750  -10.5680 C   0  0  0  0  0  0  0  0  0  0  0  0
    2.3930   15.4420  -12.5340 C   0  0  0  0  0  0  0  0  0  0  0  0
    1.2330   13.7950   -6.0760 C   0  0  1  0  0  0  0  0  0  0  0  0
    2.6680   13.2040   -6.1200 C   0  0  0  0  0  0  0  0  0  0  0  0
    2.9460   12.6000   -4.7200 C   0  0  0  0  0  0  0  0  0  0  0  0
    1.5620   12.5640   -4.0290 C   0  0  1  0  0  0  0  0  0  0  0  0
    0.8700   11.2800   -4.5840 C   0  0  0  0  0  0  0  0  0  0  0  0
    1.5700   12.5850   -2.4660 C   0  0  2  0  0  0  0  0  0  0  0  0
    2.2560   11.3790   -1.8000 C   0  0  0  0  0  0  0  0  0  0  0  0
    1.3610   10.2220   -1.5000 C   0  0  0  0  0  0  0  0  0  0  0  0
    0.0160   10.2560   -1.4910 C   0  0  0  0  0  0  0  0  0  0  0  0
   -0.7410   11.5730   -1.7070 C   0  0  1  0  0  0  0  0  0  0  0  0
   -1.8610   11.7070   -0.6420 C   0  0  0  0  0  0  0  0  0  0  0  0
   -2.7910   10.4980   -0.6160 C   0  0  0  0  0  0  0  0  0  0  0  0
   -2.0100    9.2150   -0.3410 C   0  0  2  0  0  0  0  0  0  0  0  0
   -1.4910    9.2680    0.9920 O   0  0  0  0  0  0  0  0  0  0  0  0
   -0.8470    8.9790   -1.3450 C   0  0  0  0  0  0  0  0  0  0  0  0
   -1.4260    8.6220   -2.7370 C   0  0  0  0  0  0  0  0  0  0  0  0
   -0.0540    7.7300   -0.8720 C   0  0  0  0  0  0  0  0  0  0  0  0
    0.1580   12.8790   -1.8140 C   0  0  1  0  0  0  0  0  0  0  0  0
    0.4350   13.4530   -0.3910 C   0  0  0  0  0  0  0  0  0  0  0  0
   -0.6400   13.9900   -2.5940 C   0  0  0  0  0  0  0  0  0  0  0  0
   -0.5120   13.9900   -4.1290 C   0  0  0  0  0  0  0  0  0  0  0  0
    0.9570   13.9150   -4.5570 C   0  0  2  0  0  0  0  0  0  0  0  0
    1.6740   15.2050   -4.0310 C   0  0  0  0  0  0  0  0  0  0  0  0
   -1.0664   15.1118   -6.8130 H   0  0  0  0  0  0  0  0  0  0  0  0
   -0.3642   15.9934   -8.2117 H   0  0  0  0  0  0  0  0  0  0  0  0
   -0.4072   14.1976   -8.2117 H   0  0  0  0  0  0  0  0  0  0  0  0
    1.1665   15.9459   -6.2672 H   0  0  0  0  0  0  0  0  0  0  0  0
    3.1942   15.0113   -7.4084 H   0  0  0  0  0  0  0  0  0  0  0  0
    2.0654   14.3468   -8.6836 H   0  0  0  0  0  0  0  0  0  0  0  0
    1.6056   17.1805   -8.2263 H   0  0  0  0  0  0  0  0  0  0  0  0
    3.3254   16.8367   -8.6852 H   0  0  0  0  0  0  0  0  0  0  0  0
    1.7551   17.3799  -10.2584 H   0  0  0  0  0  0  0  0  0  0  0  0
    3.5210   14.2676   -9.4681 H   0  0  0  0  0  0  0  0  0  0  0  0
    3.2836   13.2655  -10.9398 H   0  0  0  0  0  0  0  0  0  0  0  0
    4.5001   14.5872  -10.9398 H   0  0  0  0  0  0  0  0  0  0  0  0
    2.0138   16.4532  -12.7428 H   0  0  0  0  0  0  0  0  0  0  0  0
    3.3949   15.3281  -12.9735 H   0  0  0  0  0  0  0  0  0  0  0  0
    1.7130   14.6974  -12.9735 H   0  0  0  0  0  0  0  0  0  0  0  0
    0.4602   13.1729   -6.5511 H   0  0  0  0  0  0  0  0  0  0  0  0
    2.7317   12.4209   -6.8898 H   0  0  0  0  0  0  0  0  0  0  0  0
    3.4071   13.9796   -6.3693 H   0  0  0  0  0  0  0  0  0  0  0  0
    3.3616   11.5855   -4.8102 H   0  0  0  0  0  0  0  0  0  0  0  0
    3.6815   13.1873   -4.1507 H   0  0  0  0  0  0  0  0  0  0  0  0
    0.5324   10.6537   -3.7451 H   0  0  0  0  0  0  0  0  0  0  0  0
    0.0043   11.5668   -5.1990 H   0  0  0  0  0  0  0  0  0  0  0  0
    1.5855   10.7146   -5.1990 H   0  0  0  0  0  0  0  0  0  0  0  0
    2.2103   13.4519   -2.2459 H   0  0  0  0  0  0  0  0  0  0  0  0
    3.0527   11.0272   -2.4720 H   0  0  0  0  0  0  0  0  0  0  0  0
    2.6260   11.7377   -0.8282 H   0  0  0  0  0  0  0  0  0  0  0  0
    1.8420    9.2606   -1.2666 H   0  0  0  0  0  0  0  0  0  0  0  0
   -1.1863   11.5071   -2.7107 H   0  0  0  0  0  0  0  0  0  0  0  0
   -1.3947   11.8146    0.3485 H   0  0  0  0  0  0  0  0  0  0  0  0
   -2.4659   12.5881   -0.9025 H   0  0  0  0  0  0  0  0  0  0  0  0
   -3.5424   10.6387    0.1750 H   0  0  0  0  0  0  0  0  0  0  0  0
   -3.2786   10.4087   -1.5980 H   0  0  0  0  0  0  0  0  0  0  0  0
   -2.7062    8.3722   -0.4633 H   0  0  0  0  0  0  0  0  0  0  0  0
   -1.5580    8.3750    1.3690 H   0  0  0  0  0  0  0  0  0  0  0  0
   -2.3562    8.0485   -2.6111 H   0  0  0  0  0  0  0  0  0  0  0  0
   -1.6378    9.5465   -3.2941 H   0  0  0  0  0  0  0  0  0  0  0  0
   -0.6951    8.0175   -3.2941 H   0  0  0  0  0  0  0  0  0  0  0  0
   -0.0361    7.7018    0.2275 H   0  0  0  0  0  0  0  0  0  0  0  0
   -0.5404    6.8204   -1.2543 H   0  0  0  0  0  0  0  0  0  0  0  0
    0.9761    7.7833   -1.2543 H   0  0  0  0  0  0  0  0  0  0  0  0
    0.0888   12.7356    0.3676 H   0  0  0  0  0  0  0  0  0  0  0  0
    1.5147   13.6238   -0.2683 H   0  0  0  0  0  0  0  0  0  0  0  0
   -0.1031   14.4045   -0.2683 H   0  0  0  0  0  0  0  0  0  0  0  0
   -1.7054   13.8680   -2.3491 H   0  0  0  0  0  0  0  0  0  0  0  0
   -0.1978   14.9433   -2.2688 H   0  0  0  0  0  0  0  0  0  0  0  0
   -1.0498   13.1205   -4.5349 H   0  0  0  0  0  0  0  0  0  0  0  0
   -0.9429   14.9249   -4.5168 H   0  0  0  0  0  0  0  0  0  0  0  0
    1.6726   15.2026   -2.9310 H   0  0  0  0  0  0  0  0  0  0  0  0
    2.7114   15.2227   -4.3964 H   0  0  0  0  0  0  0  0  0  0  0  0
    1.1413   16.0954   -4.3964 H   0  0  0  0  0  0  0  0  0  0  0  0
  1  2  1  0
  2  3  1  0
  3  4  1  0
  4  5  1  0
  5  6  1  0
  6  7  1  0
  7  8  1  0
  7  9  1  0
  2 10  1  0
 10 11  1  0
 11 12  1  0
 12 13  1  0
 13 14  1  1
 13 15  1  0
 15 16  1  0
 16 17  1  0
 17 18  2  0
 18 19  1  0
 19 20  1  0
 20 21  1  0
 21 22  1  0
 22 23  1  0
 22 24  1  0
 24 25  1  0
 24 26  1  0
 19 27  1  0
 27 28  1  1
 27 29  1  0
 29 30  1  0
 30 31  1  0
 31 32  1  1
  7  5  1  0
 31 10  1  0
 31 13  1  0
 27 15  1  0
 24 18  1  0
  1 33  1  0
  1 34  1  0
  1 35  1  0
  2 36  1  1
  3 37  1  0
  3 38  1  0
  4 39  1  0
  4 40  1  0
  5 41  1  6
  8 42  1  0
  8 43  1  0
  8 44  1  0
  9 45  1  0
  9 46  1  0
  9 47  1  0
 10 48  1  6
 11 49  1  0
 11 50  1  0
 12 51  1  0
 12 52  1  0
 14 53  1  0
 14 54  1  0
 14 55  1  0
 15 56  1  6
 16 57  1  0
 16 58  1  0
 17 59  1  0
 19 60  1  6
 20 61  1  0
 20 62  1  0
 21 63  1  0
 21 64  1  0
 22 65  1  1
 23 66  1  0
 25 67  1  0
 25 68  1  0
 25 69  1  0
 26 70  1  0
 26 71  1  0
 26 72  1  0
 28 73  1  0
 28 74  1  0
 28 75  1  0
 29 76  1  0
 29 77  1  0
 30 78  1  0
 30 79  1  0
 32 80  1  0
 32 81  1  0
 32 82  1  0
M  END
>  <meeko>  (14) 
{"is_sidechain": [false], "intermolecular_energy": 2.731, "internal_energy": -0.839}

$$$$
EPH_relaxed_0001_pdb2pqr_Repair_396_r2_0001_out
     RDKit          3D

 82 86  0  0  0  0  0  0  0  0999 V2000
   -4.7540    7.0530    0.5030 C   0  0  0  0  0  0  0  0  0  0  0  0
   -4.7180    8.2850   -0.4060 C   0  0  2  0  0  0  0  0  0  0  0  0
   -3.6900    9.3290    0.0710 C   0  0  0  0  0  0  0  0  0  0  0  0
   -2.2690    9.0710   -0.4380 C   0  0  0  0  0  0  0  0  0  0  0  0
   -1.6950   10.2790   -1.1150 C   0  0  2  0  0  0  0  0  0  0  0  0
   -0.4290   10.0630   -1.7530 O   0  0  0  0  0  0  0  0  0  0  0  0
   -0.4330   10.9800   -0.6470 C   0  0  0  0  0  0  0  0  0  0  0  0
    0.3310   10.4970    0.5460 C   0  0  0  0  0  0  0  0  0  0  0  0
   -0.2160   12.4060   -1.0450 C   0  0  0  0  0  0  0  0  0  0  0  0
   -6.1040    8.9150   -0.4830 C   0  0  1  0  0  0  0  0  0  0  0  0
   -6.0800   10.3360   -1.1070 C   0  0  0  0  0  0  0  0  0  0  0  0
   -7.3930   10.4900   -1.9170 C   0  0  0  0  0  0  0  0  0  0  0  0
   -8.2710    9.2990   -1.4670 C   0  0  1  0  0  0  0  0  0  0  0  0
   -8.9040    9.7560   -0.1150 C   0  0  0  0  0  0  0  0  0  0  0  0
   -9.3610    8.8220   -2.4820 C   0  0  2  0  0  0  0  0  0  0  0  0
  -10.4400    9.8650   -2.8190 C   0  0  0  0  0  0  0  0  0  0  0  0
  -11.6480    9.8390   -1.9420 C   0  0  0  0  0  0  0  0  0  0  0  0
  -11.9890    8.8380   -1.1090 C   0  0  0  0  0  0  0  0  0  0  0  0
  -11.1730    7.5400   -1.0630 C   0  0  1  0  0  0  0  0  0  0  0  0
  -12.1340    6.3230   -1.0930 C   0  0  0  0  0  0  0  0  0  0  0  0
  -13.1920    6.3860    0.0050 C   0  0  0  0  0  0  0  0  0  0  0  0
  -14.0210    7.6630   -0.1090 C   0  0  2  0  0  0  0  0  0  0  0  0
  -14.7910    7.6070   -1.3140 O   0  0  0  0  0  0  0  0  0  0  0  0
  -13.1580    8.9560   -0.1000 C   0  0  0  0  0  0  0  0  0  0  0  0
  -12.5610    9.1740    1.3120 C   0  0  0  0  0  0  0  0  0  0  0  0
  -14.1010   10.1610   -0.3640 C   0  0  0  0  0  0  0  0  0  0  0  0
  -10.0020    7.4180   -2.1310 C   0  0  1  0  0  0  0  0  0  0  0  0
  -10.5590    6.8370   -3.4670 C   0  0  0  0  0  0  0  0  0  0  0  0
   -8.9340    6.3860   -1.6090 C   0  0  0  0  0  0  0  0  0  0  0  0
   -7.8150    6.9410   -0.7070 C   0  0  0  0  0  0  0  0  0  0  0  0
   -7.1730    8.1830   -1.3320 C   0  0  2  0  0  0  0  0  0  0  0  0
   -6.5090    7.7500   -2.6830 C   0  0  0  0  0  0  0  0  0  0  0  0
   -4.7446    7.3733    1.5553 H   0  0  0  0  0  0  0  0  0  0  0  0
   -5.6694    6.4766    0.3033 H   0  0  0  0  0  0  0  0  0  0  0  0
   -3.8738    6.4241    0.3033 H   0  0  0  0  0  0  0  0  0  0  0  0
   -4.4065    7.9491   -1.4061 H   0  0  0  0  0  0  0  0  0  0  0  0
   -4.0112   10.3196   -0.2832 H   0  0  0  0  0  0  0  0  0  0  0  0
   -3.6545    9.2669    1.1687 H   0  0  0  0  0  0  0  0  0  0  0  0
   -1.6282    8.8020    0.4147 H   0  0  0  0  0  0  0  0  0  0  0  0
   -2.3110    8.2535   -1.1728 H   0  0  0  0  0  0  0  0  0  0  0  0
   -2.7017   10.6529   -1.3532 H   0  0  0  0  0  0  0  0  0  0  0  0
   -0.1806   10.8204    1.4645 H   0  0  0  0  0  0  0  0  0  0  0  0
    0.3876    9.3987    0.5251 H   0  0  0  0  0  0  0  0  0  0  0  0
    1.3475   10.9170    0.5251 H   0  0  0  0  0  0  0  0  0  0  0  0
   -0.1213   13.0281   -0.1428 H   0  0  0  0  0  0  0  0  0  0  0  0
    0.7043   12.4840   -1.6424 H   0  0  0  0  0  0  0  0  0  0  0  0
   -1.0715   12.7542   -1.6424 H   0  0  0  0  0  0  0  0  0  0  0  0
   -6.3814    8.8799    0.5809 H   0  0  0  0  0  0  0  0  0  0  0  0
   -6.0322   11.0972   -0.3144 H   0  0  0  0  0  0  0  0  0  0  0  0
   -5.1993   10.4695   -1.7524 H   0  0  0  0  0  0  0  0  0  0  0  0
   -7.8846   11.4455   -1.6818 H   0  0  0  0  0  0  0  0  0  0  0  0
   -7.2157   10.4908   -3.0026 H   0  0  0  0  0  0  0  0  0  0  0  0
   -8.3245    9.3376    0.7211 H   0  0  0  0  0  0  0  0  0  0  0  0
   -8.8910   10.8544   -0.0568 H   0  0  0  0  0  0  0  0  0  0  0  0
   -9.9425    9.3980   -0.0568 H   0  0  0  0  0  0  0  0  0  0  0  0
   -8.7802    8.6857   -3.4062 H   0  0  0  0  0  0  0  0  0  0  0  0
   -9.9843   10.8631   -2.7404 H   0  0  0  0  0  0  0  0  0  0  0  0
  -10.7937    9.6207   -3.8315 H   0  0  0  0  0  0  0  0  0  0  0  0
  -12.3162   10.7120   -1.9797 H   0  0  0  0  0  0  0  0  0  0  0  0
  -10.6245    7.5601   -0.1097 H   0  0  0  0  0  0  0  0  0  0  0  0
  -12.6401    6.2972   -2.0693 H   0  0  0  0  0  0  0  0  0  0  0  0
  -11.5320    5.4178   -0.9252 H   0  0  0  0  0  0  0  0  0  0  0  0
  -13.8578    5.5152   -0.0862 H   0  0  0  0  0  0  0  0  0  0  0  0
  -12.6855    6.3821    0.9814 H   0  0  0  0  0  0  0  0  0  0  0  0
  -14.6720    7.7139    0.7762 H   0  0  0  0  0  0  0  0  0  0  0  0
  -14.5440    8.3740   -1.8570 H   0  0  0  0  0  0  0  0  0  0  0  0
  -13.3080    8.9012    2.0720 H   0  0  0  0  0  0  0  0  0  0  0  0
  -11.6674    8.5442    1.4335 H   0  0  0  0  0  0  0  0  0  0  0  0
  -12.2835   10.2315    1.4335 H   0  0  0  0  0  0  0  0  0  0  0  0
  -14.4324   10.5844    0.5957 H   0  0  0  0  0  0  0  0  0  0  0  0
  -13.5620   10.9296   -0.9373 H   0  0  0  0  0  0  0  0  0  0  0  0
  -14.9767    9.8226   -0.9373 H   0  0  0  0  0  0  0  0  0  0  0  0
  -11.3047    6.0592   -3.2459 H   0  0  0  0  0  0  0  0  0  0  0  0
  -11.0309    7.6426   -4.0487 H   0  0  0  0  0  0  0  0  0  0  0  0
   -9.7342    6.3995   -4.0487 H   0  0  0  0  0  0  0  0  0  0  0  0
   -9.4693    5.6132   -1.0379 H   0  0  0  0  0  0  0  0  0  0  0  0
   -8.4219    6.0204   -2.5112 H   0  0  0  0  0  0  0  0  0  0  0  0
   -8.2410    7.2095    0.2710 H   0  0  0  0  0  0  0  0  0  0  0  0
   -7.0419    6.1672   -0.5907 H   0  0  0  0  0  0  0  0  0  0  0  0
   -5.6043    7.1601   -2.4744 H   0  0  0  0  0  0  0  0  0  0  0  0
   -7.2188    7.1406   -3.2617 H   0  0  0  0  0  0  0  0  0  0  0  0
   -6.2376    8.6453   -3.2617 H   0  0  0  0  0  0  0  0  0  0  0  0
  1  2  1  0
  2  3  1  0
  3  4  1  0
  4  5  1  0
  5  6  1  0
  6  7  1  0
  7  8  1  0
  7  9  1  0
  2 10  1  0
 10 11  1  0
 11 12  1  0
 12 13  1  0
 13 14  1  1
 13 15  1  0
 15 16  1  0
 16 17  1  0
 17 18  2  0
 18 19  1  0
 19 20  1  0
 20 21  1  0
 21 22  1  0
 22 23  1  0
 22 24  1  0
 24 25  1  0
 24 26  1  0
 19 27  1  0
 27 28  1  6
 27 29  1  0
 29 30  1  0
 30 31  1  0
 31 32  1  6
  7  5  1  0
 31 10  1  0
 31 13  1  0
 27 15  1  0
 24 18  1  0
  1 33  1  0
  1 34  1  0
  1 35  1  0
  2 36  1  6
  3 37  1  0
  3 38  1  0
  4 39  1  0
  4 40  1  0
  5 41  1  6
  8 42  1  0
  8 43  1  0
  8 44  1  0
  9 45  1  0
  9 46  1  0
  9 47  1  0
 10 48  1  1
 11 49  1  0
 11 50  1  0
 12 51  1  0
 12 52  1  0
 14 53  1  0
 14 54  1  0
 14 55  1  0
 15 56  1  6
 16 57  1  0
 16 58  1  0
 17 59  1  0
 19 60  1  1
 20 61  1  0
 20 62  1  0
 21 63  1  0
 21 64  1  0
 22 65  1  1
 23 66  1  0
 25 67  1  0
 25 68  1  0
 25 69  1  0
 26 70  1  0
 26 71  1  0
 26 72  1  0
 28 73  1  0
 28 74  1  0
 28 75  1  0
 29 76  1  0
 29 77  1  0
 30 78  1  0
 30 79  1  0
 32 80  1  0
 32 81  1  0
 32 82  1  0
M  END
>  <meeko>  (15) 
{"is_sidechain": [false], "intermolecular_energy": 2.731, "internal_energy": -0.839}

$$$$
EPH_relaxed_0001_pdb2pqr_Repair_396_r2_0001_out
     RDKit          3D

 82 86  0  0  0  0  0  0  0  0999 V2000
   -0.1480    9.3190   -2.2970 C   0  0  0  0  0  0  0  0  0  0  0  0
    0.9220   10.3090   -2.7660 C   0  0  2  0  0  0  0  0  0  0  0  0
    2.3130    9.6530   -2.8750 C   0  0  0  0  0  0  0  0  0  0  0  0
    3.2040   10.2750   -3.9540 C   0  0  0  0  0  0  0  0  0  0  0  0
    4.5640   10.6130   -3.4230 C   0  0  2  0  0  0  0  0  0  0  0  0
    5.0990   11.8570   -3.8930 O   0  0  0  0  0  0  0  0  0  0  0  0
    5.8090   10.6720   -4.2880 C   0  0  0  0  0  0  0  0  0  0  0  0
    5.7520   10.3910   -5.7570 C   0  0  0  0  0  0  0  0  0  0  0  0
    7.1450   10.5230   -3.6310 C   0  0  0  0  0  0  0  0  0  0  0  0
    0.9800   11.4990   -1.8150 C   0  0  1  0  0  0  0  0  0  0  0  0
    2.0490   11.3240   -0.7030 C   0  0  0  0  0  0  0  0  0  0  0  0
    2.6350   12.7310   -0.4200 C   0  0  0  0  0  0  0  0  0  0  0  0
    1.6660   13.7070   -1.1280 C   0  0  1  0  0  0  0  0  0  0  0  0
    0.4680   13.8690   -0.1400 C   0  0  0  0  0  0  0  0  0  0  0  0
    2.2610   15.0910   -1.5450 C   0  0  2  0  0  0  0  0  0  0  0  0
    2.7530   15.9680   -0.3800 C   0  0  0  0  0  0  0  0  0  0  0  0
    1.7330   16.8950    0.1950 C   0  0  0  0  0  0  0  0  0  0  0  0
    0.5640   17.2270   -0.3840 C   0  0  0  0  0  0  0  0  0  0  0  0
    0.2110   16.7280   -1.7900 C   0  0  1  0  0  0  0  0  0  0  0  0
   -0.3370   17.9070   -2.6360 C   0  0  0  0  0  0  0  0  0  0  0  0
   -1.5050   18.6180   -1.9600 C   0  0  0  0  0  0  0  0  0  0  0  0
   -1.0980   19.1520   -0.5890 C   0  0  2  0  0  0  0  0  0  0  0  0
   -0.1300   20.1900   -0.7670 O   0  0  0  0  0  0  0  0  0  0  0  0
   -0.5210   18.0550    0.3490 C   0  0  0  0  0  0  0  0  0  0  0  0
   -1.6540   17.0930    0.7840 C   0  0  0  0  0  0  0  0  0  0  0  0
   -0.0200   18.7490    1.6440 C   0  0  0  0  0  0  0  0  0  0  0  0
    1.3500   15.9140   -2.5430 C   0  0  1  0  0  0  0  0  0  0  0  0
    2.2950   16.8980   -3.3000 C   0  0  0  0  0  0  0  0  0  0  0  0
    0.6890   15.0000   -3.6420 C   0  0  0  0  0  0  0  0  0  0  0  0
    0.2300   13.5990   -3.1950 C   0  0  0  0  0  0  0  0  0  0  0  0
    1.3390   12.8780   -2.4230 C   0  0  2  0  0  0  0  0  0  0  0  0
    2.5500   12.6820   -3.3980 C   0  0  0  0  0  0  0  0  0  0  0  0
   -0.1711    9.2977   -1.1974 H   0  0  0  0  0  0  0  0  0  0  0  0
   -1.1307    9.6333   -2.6783 H   0  0  0  0  0  0  0  0  0  0  0  0
    0.0892    8.3148   -2.6783 H   0  0  0  0  0  0  0  0  0  0  0  0
    0.6391   10.6503   -3.7727 H   0  0  0  0  0  0  0  0  0  0  0  0
    2.8213    9.7533   -1.9046 H   0  0  0  0  0  0  0  0  0  0  0  0
    2.1517    8.6023   -3.1577 H   0  0  0  0  0  0  0  0  0  0  0  0
    3.3125    9.5597   -4.7826 H   0  0  0  0  0  0  0  0  0  0  0  0
    2.7286   11.2060   -4.2965 H   0  0  0  0  0  0  0  0  0  0  0  0
    4.3474   10.0977   -2.4756 H   0  0  0  0  0  0  0  0  0  0  0  0
    5.5357    9.3246   -5.9182 H   0  0  0  0  0  0  0  0  0  0  0  0
    4.9590   10.9995   -6.2162 H   0  0  0  0  0  0  0  0  0  0  0  0
    6.7194   10.6424   -6.2162 H   0  0  0  0  0  0  0  0  0  0  0  0
    7.0198   10.5370   -2.5382 H   0  0  0  0  0  0  0  0  0  0  0  0
    7.5991    9.5686   -3.9359 H   0  0  0  0  0  0  0  0  0  0  0  0
    7.7982   11.3539   -3.9359 H   0  0  0  0  0  0  0  0  0  0  0  0
   -0.0614   11.5028   -1.4609 H   0  0  0  0  0  0  0  0  0  0  0  0
    1.5852   10.9168    0.2075 H   0  0  0  0  0  0  0  0  0  0  0  0
    2.8368   10.6245   -1.0193 H   0  0  0  0  0  0  0  0  0  0  0  0
    2.6642   12.9291    0.6616 H   0  0  0  0  0  0  0  0  0  0  0  0
    3.6685   12.8330   -0.7825 H   0  0  0  0  0  0  0  0  0  0  0  0
    0.8370   13.8191    0.8951 H   0  0  0  0  0  0  0  0  0  0  0  0
   -0.0182   14.8411   -0.3095 H   0  0  0  0  0  0  0  0  0  0  0  0
   -0.2589   13.0610   -0.3095 H   0  0  0  0  0  0  0  0  0  0  0  0
    3.1639   14.8008   -2.1023 H   0  0  0  0  0  0  0  0  0  0  0  0
    3.0990   15.3021    0.4243 H   0  0  0  0  0  0  0  0  0  0  0  0
    3.5465   16.6074   -0.7942 H   0  0  0  0  0  0  0  0  0  0  0  0
    1.9557   17.3443    1.1740 H   0  0  0  0  0  0  0  0  0  0  0  0
   -0.5741   15.9694   -1.6551 H   0  0  0  0  0  0  0  0  0  0  0  0
    0.4735   18.6334   -2.7954 H   0  0  0  0  0  0  0  0  0  0  0  0
   -0.7029   17.4938   -3.5875 H   0  0  0  0  0  0  0  0  0  0  0  0
   -1.8297   19.4579   -2.5918 H   0  0  0  0  0  0  0  0  0  0  0  0
   -2.3255   17.8976   -1.8271 H   0  0  0  0  0  0  0  0  0  0  0  0
   -2.0065   19.5356   -0.1017 H   0  0  0  0  0  0  0  0  0  0  0  0
    0.4090   19.9610   -1.5420 H   0  0  0  0  0  0  0  0  0  0  0  0
   -1.7002   17.0538    1.8823 H   0  0  0  0  0  0  0  0  0  0  0  0
   -2.6146   17.4556    0.3893 H   0  0  0  0  0  0  0  0  0  0  0  0
   -1.4520   16.0863    0.3893 H   0  0  0  0  0  0  0  0  0  0  0  0
   -0.4081   18.2114    2.5217 H   0  0  0  0  0  0  0  0  0  0  0  0
    1.0798   18.7380    1.6640 H   0  0  0  0  0  0  0  0  0  0  0  0
   -0.3767   19.7894    1.6640 H   0  0  0  0  0  0  0  0  0  0  0  0
    2.8656   17.4922   -2.5711 H   0  0  0  0  0  0  0  0  0  0  0  0
    2.9906   16.3257   -3.9313 H   0  0  0  0  0  0  0  0  0  0  0  0
    1.6950   17.5699   -3.9313 H   0  0  0  0  0  0  0  0  0  0  0  0
   -0.1926   15.5310   -4.0304 H   0  0  0  0  0  0  0  0  0  0  0  0
    1.4821   14.8207   -4.3828 H   0  0  0  0  0  0  0  0  0  0  0  0
   -0.6527   13.6997   -2.5464 H   0  0  0  0  0  0  0  0  0  0  0  0
   -0.0146   13.0084   -4.0902 H   0  0  0  0  0  0  0  0  0  0  0  0
    3.4703   12.5330   -2.8142 H   0  0  0  0  0  0  0  0  0  0  0  0
    2.3714   11.8011   -4.0321 H   0  0  0  0  0  0  0  0  0  0  0  0
    2.6584   13.5743   -4.0321 H   0  0  0  0  0  0  0  0  0  0  0  0
  1  2  1  0
  2  3  1  0
  3  4  1  0
  4  5  1  0
  5  6  1  0
  6  7  1  0
  7  8  1  0
  7  9  1  0
  2 10  1  0
 10 11  1  0
 11 12  1  0
 12 13  1  0
 13 14  1  1
 13 15  1  0
 15 16  1  0
 16 17  1  0
 17 18  2  0
 18 19  1  0
 19 20  1  0
 20 21  1  0
 21 22  1  0
 22 23  1  0
 22 24  1  0
 24 25  1  0
 24 26  1  0
 19 27  1  0
 27 28  1  6
 27 29  1  0
 29 30  1  0
 30 31  1  0
 31 32  1  6
  7  5  1  0
 31 10  1  0
 31 13  1  0
 27 15  1  0
 24 18  1  0
  1 33  1  0
  1 34  1  0
  1 35  1  0
  2 36  1  6
  3 37  1  0
  3 38  1  0
  4 39  1  0
  4 40  1  0
  5 41  1  1
  8 42  1  0
  8 43  1  0
  8 44  1  0
  9 45  1  0
  9 46  1  0
  9 47  1  0
 10 48  1  1
 11 49  1  0
 11 50  1  0
 12 51  1  0
 12 52  1  0
 14 53  1  0
 14 54  1  0
 14 55  1  0
 15 56  1  6
 16 57  1  0
 16 58  1  0
 17 59  1  0
 19 60  1  1
 20 61  1  0
 20 62  1  0
 21 63  1  0
 21 64  1  0
 22 65  1  1
 23 66  1  0
 25 67  1  0
 25 68  1  0
 25 69  1  0
 26 70  1  0
 26 71  1  0
 26 72  1  0
 28 73  1  0
 28 74  1  0
 28 75  1  0
 29 76  1  0
 29 77  1  0
 30 78  1  0
 30 79  1  0
 32 80  1  0
 32 81  1  0
 32 82  1  0
M  END
>  <meeko>  (16) 
{"is_sidechain": [false], "intermolecular_energy": 2.731, "internal_energy": -0.839}

$$$$
EPH_relaxed_0001_pdb2pqr_Repair_396_r2_0001_out
     RDKit          3D

 82 86  0  0  0  0  0  0  0  0999 V2000
   -2.0940    7.8380   -2.0070 C   0  0  0  0  0  0  0  0  0  0  0  0
   -2.2780    8.5560   -0.6670 C   0  0  2  0  0  0  0  0  0  0  0  0
   -3.7550    8.5940   -0.2260 C   0  0  0  0  0  0  0  0  0  0  0  0
   -4.6260    7.5300   -0.9000 C   0  0  0  0  0  0  0  0  0  0  0  0
   -6.0650    7.9450   -0.9560 C   0  0  2  0  0  0  0  0  0  0  0  0
   -7.0020    6.8980   -0.6730 O   0  0  0  0  0  0  0  0  0  0  0  0
   -7.0410    7.4410   -2.0020 C   0  0  0  0  0  0  0  0  0  0  0  0
   -6.6160    6.4780   -3.0660 C   0  0  0  0  0  0  0  0  0  0  0  0
   -8.2670    8.2520   -2.2860 C   0  0  0  0  0  0  0  0  0  0  0  0
   -1.7250    9.9730   -0.7570 C   0  0  1  0  0  0  0  0  0  0  0  0
   -1.2580   10.5210    0.6180 C   0  0  0  0  0  0  0  0  0  0  0  0
   -0.0220   11.4170    0.3460 C   0  0  0  0  0  0  0  0  0  0  0  0
   -0.0190   11.6230   -1.1870 C   0  0  1  0  0  0  0  0  0  0  0  0
   -1.0570   12.7610   -1.4410 C   0  0  0  0  0  0  0  0  0  0  0  0
    1.3650   11.9480   -1.8370 C   0  0  2  0  0  0  0  0  0  0  0  0
    2.0130   13.2630   -1.3680 C   0  0  0  0  0  0  0  0  0  0  0  0
    1.6660   14.4690   -2.1770 C   0  0  0  0  0  0  0  0  0  0  0  0
    1.0990   14.4550   -3.3980 C   0  0  0  0  0  0  0  0  0  0  0  0
    0.8380   13.1330   -4.1300 C   0  0  1  0  0  0  0  0  0  0  0  0
    1.3170   13.2520   -5.6010 C   0  0  0  0  0  0  0  0  0  0  0  0
    0.7030   14.4490   -6.3210 C   0  0  0  0  0  0  0  0  0  0  0  0
    1.0330   15.7510   -5.5940 C   0  0  2  0  0  0  0  0  0  0  0  0
    2.4410   15.9880   -5.6910 O   0  0  0  0  0  0  0  0  0  0  0  0
    0.6060   15.7440   -4.1000 C   0  0  0  0  0  0  0  0  0  0  0  0
   -0.9390   15.7910   -4.0010 C   0  0  0  0  0  0  0  0  0  0  0  0
    1.1220   17.0560   -3.4500 C   0  0  0  0  0  0  0  0  0  0  0  0
    1.3850   11.8240   -3.4140 C   0  0  1  0  0  0  0  0  0  0  0  0
    2.8700   11.5760   -3.8220 C   0  0  0  0  0  0  0  0  0  0  0  0
    0.5700   10.5780   -3.9270 C   0  0  0  0  0  0  0  0  0  0  0  0
   -0.7270   10.2370   -3.1680 C   0  0  0  0  0  0  0  0  0  0  0  0
   -0.4830   10.1960   -1.6560 C   0  0  2  0  0  0  0  0  0  0  0  0
    0.5410    9.0460   -1.3680 C   0  0  0  0  0  0  0  0  0  0  0  0
   -1.8247    6.7870   -1.8259 H   0  0  0  0  0  0  0  0  0  0  0  0
   -3.0326    7.8827   -2.5788 H   0  0  0  0  0  0  0  0  0  0  0  0
   -1.2926    8.3286   -2.5788 H   0  0  0  0  0  0  0  0  0  0  0  0
   -1.7217    7.9869    0.0924 H   0  0  0  0  0  0  0  0  0  0  0  0
   -3.7967    8.4387    0.8622 H   0  0  0  0  0  0  0  0  0  0  0  0
   -4.1549    9.5740   -0.5256 H   0  0  0  0  0  0  0  0  0  0  0  0
   -4.2616    7.3682   -1.9252 H   0  0  0  0  0  0  0  0  0  0  0  0
   -4.5586    6.6060   -0.3070 H   0  0  0  0  0  0  0  0  0  0  0  0
   -5.8101    8.9583   -0.6120 H   0  0  0  0  0  0  0  0  0  0  0  0
   -6.2142    5.5676   -2.5973 H   0  0  0  0  0  0  0  0  0  0  0  0
   -7.4824    6.2167   -3.6914 H   0  0  0  0  0  0  0  0  0  0  0  0
   -5.8390    6.9420   -3.6914 H   0  0  0  0  0  0  0  0  0  0  0  0
   -8.7313    8.5592   -1.3373 H   0  0  0  0  0  0  0  0  0  0  0  0
   -7.9897    9.1454   -2.8647 H   0  0  0  0  0  0  0  0  0  0  0  0
   -8.9807    7.6473   -2.8647 H   0  0  0  0  0  0  0  0  0  0  0  0
   -2.5985   10.4843   -1.1878 H   0  0  0  0  0  0  0  0  0  0  0  0
   -2.0604   11.1132    1.0821 H   0  0  0  0  0  0  0  0  0  0  0  0
   -1.0071    9.7001    1.3058 H   0  0  0  0  0  0  0  0  0  0  0  0
   -0.1189   12.3809    0.8671 H   0  0  0  0  0  0  0  0  0  0  0  0
    0.9115   10.9609    0.7074 H   0  0  0  0  0  0  0  0  0  0  0  0
   -1.4145   13.1530   -0.4774 H   0  0  0  0  0  0  0  0  0  0  0  0
   -0.5804   13.5712   -2.0123 H   0  0  0  0  0  0  0  0  0  0  0  0
   -1.9075   12.3607   -2.0123 H   0  0  0  0  0  0  0  0  0  0  0  0
    2.0048   11.1434   -1.4456 H   0  0  0  0  0  0  0  0  0  0  0  0
    1.6964   13.4469   -0.3307 H   0  0  0  0  0  0  0  0  0  0  0  0
    3.0985   13.1240   -1.4792 H   0  0  0  0  0  0  0  0  0  0  0  0
    1.8928   15.4519   -1.7383 H   0  0  0  0  0  0  0  0  0  0  0  0
   -0.2511   12.9808   -4.1033 H   0  0  0  0  0  0  0  0  0  0  0  0
    2.4117   13.3599   -5.6078 H   0  0  0  0  0  0  0  0  0  0  0  0
    0.9966   12.3430   -6.1312 H   0  0  0  0  0  0  0  0  0  0  0  0
    1.1025   14.4971   -7.3448 H   0  0  0  0  0  0  0  0  0  0  0  0
   -0.3898   14.3247   -6.3401 H   0  0  0  0  0  0  0  0  0  0  0  0
    0.4600   16.5547   -6.0795 H   0  0  0  0  0  0  0  0  0  0  0  0
    2.8160   15.3020   -6.2680 H   0  0  0  0  0  0  0  0  0  0  0  0
   -1.2385   15.8001   -2.9426 H   0  0  0  0  0  0  0  0  0  0  0  0
   -1.3106   16.7009   -4.4950 H   0  0  0  0  0  0  0  0  0  0  0  0
   -1.3652   14.9054   -4.4950 H   0  0  0  0  0  0  0  0  0  0  0  0
    1.0849   16.9618   -2.3547 H   0  0  0  0  0  0  0  0  0  0  0  0
    2.1592   17.2392   -3.7674 H   0  0  0  0  0  0  0  0  0  0  0  0
    0.4875   17.8966   -3.7674 H   0  0  0  0  0  0  0  0  0  0  0  0
    3.4866   11.4730   -2.9169 H   0  0  0  0  0  0  0  0  0  0  0  0
    2.9373   10.6542   -4.4184 H   0  0  0  0  0  0  0  0  0  0  0  0
    3.2332   12.4259   -4.4184 H   0  0  0  0  0  0  0  0  0  0  0  0
    0.3018   10.7650   -4.9773 H   0  0  0  0  0  0  0  0  0  0  0  0
    1.2327    9.7146   -3.7677 H   0  0  0  0  0  0  0  0  0  0  0  0
   -1.4854   11.0024   -3.3895 H   0  0  0  0  0  0  0  0  0  0  0  0
   -1.0739    9.2454   -3.4943 H   0  0  0  0  0  0  0  0  0  0  0  0
    0.6539    8.9192   -0.2812 H   0  0  0  0  0  0  0  0  0  0  0  0
    0.1733    8.1084   -1.8103 H   0  0  0  0  0  0  0  0  0  0  0  0
    1.5148    9.3029   -1.8103 H   0  0  0  0  0  0  0  0  0  0  0  0
  1  2  1  0
  2  3  1  0
  3  4  1  0
  4  5  1  0
  5  6  1  0
  6  7  1  0
  7  8  1  0
  7  9  1  0
  2 10  1  0
 10 11  1  0
 11 12  1  0
 12 13  1  0
 13 14  1  1
 13 15  1  0
 15 16  1  0
 16 17  1  0
 17 18  2  0
 18 19  1  0
 19 20  1  0
 20 21  1  0
 21 22  1  0
 22 23  1  0
 22 24  1  0
 24 25  1  0
 24 26  1  0
 19 27  1  0
 27 28  1  6
 27 29  1  0
 29 30  1  0
 30 31  1  0
 31 32  1  6
  7  5  1  0
 31 10  1  0
 31 13  1  0
 27 15  1  0
 24 18  1  0
  1 33  1  0
  1 34  1  0
  1 35  1  0
  2 36  1  1
  3 37  1  0
  3 38  1  0
  4 39  1  0
  4 40  1  0
  5 41  1  1
  8 42  1  0
  8 43  1  0
  8 44  1  0
  9 45  1  0
  9 46  1  0
  9 47  1  0
 10 48  1  6
 11 49  1  0
 11 50  1  0
 12 51  1  0
 12 52  1  0
 14 53  1  0
 14 54  1  0
 14 55  1  0
 15 56  1  1
 16 57  1  0
 16 58  1  0
 17 59  1  0
 19 60  1  6
 20 61  1  0
 20 62  1  0
 21 63  1  0
 21 64  1  0
 22 65  1  6
 23 66  1  0
 25 67  1  0
 25 68  1  0
 25 69  1  0
 26 70  1  0
 26 71  1  0
 26 72  1  0
 28 73  1  0
 28 74  1  0
 28 75  1  0
 29 76  1  0
 29 77  1  0
 30 78  1  0
 30 79  1  0
 32 80  1  0
 32 81  1  0
 32 82  1  0
M  END
>  <meeko>  (17) 
{"is_sidechain": [false], "intermolecular_energy": 2.731, "internal_energy": -0.839}

$$$$
EPH_relaxed_0001_pdb2pqr_Repair_396_r2_0001_out
     RDKit          3D

 82 86  0  0  0  0  0  0  0  0999 V2000
  -13.3750    7.0150    0.0750 C   0  0  0  0  0  0  0  0  0  0  0  0
  -13.0240    8.4680   -0.2560 C   0  0  2  0  0  0  0  0  0  0  0  0
  -14.1920    9.2050   -0.9420 C   0  0  0  0  0  0  0  0  0  0  0  0
  -13.9890    9.4180   -2.4440 C   0  0  0  0  0  0  0  0  0  0  0  0
  -14.9130    8.5620   -3.2560 C   0  0  2  0  0  0  0  0  0  0  0  0
  -15.2860    7.3260   -2.6320 O   0  0  0  0  0  0  0  0  0  0  0  0
  -14.5140    7.2190   -3.8390 C   0  0  0  0  0  0  0  0  0  0  0  0
  -13.1410    6.6570   -3.6360 C   0  0  0  0  0  0  0  0  0  0  0  0
  -15.2870    6.6870   -5.0050 C   0  0  0  0  0  0  0  0  0  0  0  0
  -11.7860    8.5140   -1.1440 C   0  0  1  0  0  0  0  0  0  0  0  0
  -11.5810    9.9000   -1.8120 C   0  0  0  0  0  0  0  0  0  0  0  0
  -10.0510   10.1350   -1.8940 C   0  0  0  0  0  0  0  0  0  0  0  0
   -9.4270    8.7550   -1.5830 C   0  0  1  0  0  0  0  0  0  0  0  0
   -9.5050    7.9670   -2.9280 C   0  0  0  0  0  0  0  0  0  0  0  0
   -7.9750    8.7670   -1.0050 C   0  0  2  0  0  0  0  0  0  0  0  0
   -6.9060    9.3620   -1.9380 C   0  0  0  0  0  0  0  0  0  0  0  0
   -6.2360    8.3840   -2.8450 C   0  0  0  0  0  0  0  0  0  0  0  0
   -6.2720    7.0450   -2.7150 C   0  0  0  0  0  0  0  0  0  0  0  0
   -6.9620    6.3890   -1.5120 C   0  0  1  0  0  0  0  0  0  0  0  0
   -6.0440    5.2840   -0.9280 C   0  0  0  0  0  0  0  0  0  0  0  0
   -5.6110    4.2660   -1.9790 C   0  0  0  0  0  0  0  0  0  0  0  0
   -4.8780    4.9490   -3.1300 C   0  0  2  0  0  0  0  0  0  0  0  0
   -3.6390    5.4730   -2.6420 O   0  0  0  0  0  0  0  0  0  0  0  0
   -5.7030    6.0880   -3.7920 C   0  0  0  0  0  0  0  0  0  0  0  0
   -6.8890    5.4820   -4.5800 C   0  0  0  0  0  0  0  0  0  0  0  0
   -4.7960    6.7870   -4.8410 C   0  0  0  0  0  0  0  0  0  0  0  0
   -7.5060    7.3830   -0.3980 C   0  0  1  0  0  0  0  0  0  0  0  0
   -6.3750    7.7050    0.6260 C   0  0  0  0  0  0  0  0  0  0  0  0
   -8.6500    6.6680    0.4150 C   0  0  0  0  0  0  0  0  0  0  0  0
  -10.0810    6.7930   -0.1430 C   0  0  0  0  0  0  0  0  0  0  0  0
  -10.4170    8.2510   -0.4700 C   0  0  2  0  0  0  0  0  0  0  0  0
  -10.3680    9.0640    0.8680 C   0  0  0  0  0  0  0  0  0  0  0  0
  -13.4064    6.8850    1.1668 H   0  0  0  0  0  0  0  0  0  0  0  0
  -14.3584    6.7689   -0.3520 H   0  0  0  0  0  0  0  0  0  0  0  0
  -12.6124    6.3471   -0.3520 H   0  0  0  0  0  0  0  0  0  0  0  0
  -12.8198    8.9842    0.6937 H   0  0  0  0  0  0  0  0  0  0  0  0
  -15.1086    8.6146   -0.7959 H   0  0  0  0  0  0  0  0  0  0  0  0
  -14.2567   10.2022   -0.4822 H   0  0  0  0  0  0  0  0  0  0  0  0
  -14.1799   10.4746   -2.6830 H   0  0  0  0  0  0  0  0  0  0  0  0
  -12.9549    9.1376   -2.6930 H   0  0  0  0  0  0  0  0  0  0  0  0
  -15.3812    9.4508   -3.7041 H   0  0  0  0  0  0  0  0  0  0  0  0
  -12.9349    6.5726   -2.5588 H   0  0  0  0  0  0  0  0  0  0  0  0
  -13.0800    5.6615   -4.1000 H   0  0  0  0  0  0  0  0  0  0  0  0
  -12.3995    7.3240   -4.1000 H   0  0  0  0  0  0  0  0  0  0  0  0
  -16.1419    6.0986   -4.6404 H   0  0  0  0  0  0  0  0  0  0  0  0
  -15.6528    7.5256   -5.6158 H   0  0  0  0  0  0  0  0  0  0  0  0
  -14.6344    6.0458   -5.6158 H   0  0  0  0  0  0  0  0  0  0  0  0
  -12.0270    7.6954   -1.8381 H   0  0  0  0  0  0  0  0  0  0  0  0
  -12.0193    9.9028   -2.8209 H   0  0  0  0  0  0  0  0  0  0  0  0
  -12.0721   10.6948   -1.2314 H   0  0  0  0  0  0  0  0  0  0  0  0
   -9.7635   10.4732   -2.9005 H   0  0  0  0  0  0  0  0  0  0  0  0
   -9.7106   10.9136   -1.1955 H   0  0  0  0  0  0  0  0  0  0  0  0
   -9.6114    6.8925   -2.7178 H   0  0  0  0  0  0  0  0  0  0  0  0
  -10.3731    8.3150   -3.5071 H   0  0  0  0  0  0  0  0  0  0  0  0
   -8.5855    8.1381   -3.5071 H   0  0  0  0  0  0  0  0  0  0  0  0
   -8.0632    9.4704   -0.1639 H   0  0  0  0  0  0  0  0  0  0  0  0
   -7.3881   10.1291   -2.5618 H   0  0  0  0  0  0  0  0  0  0  0  0
   -6.1170    9.7594   -1.2826 H   0  0  0  0  0  0  0  0  0  0  0  0
   -5.6644    8.7924   -3.6914 H   0  0  0  0  0  0  0  0  0  0  0  0
   -7.8873    5.9384   -1.9003 H   0  0  0  0  0  0  0  0  0  0  0  0
   -5.1459    5.7586   -0.5059 H   0  0  0  0  0  0  0  0  0  0  0  0
   -6.6175    4.7459   -0.1589 H   0  0  0  0  0  0  0  0  0  0  0  0
   -4.9408    3.5293   -1.5120 H   0  0  0  0  0  0  0  0  0  0  0  0
   -6.5081    3.7706   -2.3787 H   0  0  0  0  0  0  0  0  0  0  0  0
   -4.7089    4.1910   -3.9090 H   0  0  0  0  0  0  0  0  0  0  0  0
   -3.0660    4.7190   -2.4240 H   0  0  0  0  0  0  0  0  0  0  0  0
   -7.6403    5.0981   -3.8741 H   0  0  0  0  0  0  0  0  0  0  0  0
   -7.3435    6.2583   -5.2130 H   0  0  0  0  0  0  0  0  0  0  0  0
   -6.5262    4.6588   -5.2130 H   0  0  0  0  0  0  0  0  0  0  0  0
   -4.0270    7.3797   -4.3240 H   0  0  0  0  0  0  0  0  0  0  0  0
   -4.3110    6.0268   -5.4710 H   0  0  0  0  0  0  0  0  0  0  0  0
   -5.4075    7.4496   -5.4710 H   0  0  0  0  0  0  0  0  0  0  0  0
   -6.7641    7.5942    1.6489 H   0  0  0  0  0  0  0  0  0  0  0  0
   -5.5356    7.0101    0.4757 H   0  0  0  0  0  0  0  0  0  0  0  0
   -6.0275    8.7378    0.4757 H   0  0  0  0  0  0  0  0  0  0  0  0
   -8.4042    5.5969    0.4638 H   0  0  0  0  0  0  0  0  0  0  0  0
   -8.6747    7.1800    1.3883 H   0  0  0  0  0  0  0  0  0  0  0  0
  -10.1636    6.1905   -1.0596 H   0  0  0  0  0  0  0  0  0  0  0  0
  -10.7873    6.4331    0.6196 H   0  0  0  0  0  0  0  0  0  0  0  0
  -10.4098    8.3700    1.7205 H   0  0  0  0  0  0  0  0  0  0  0  0
   -9.4334    9.6424    0.9116 H   0  0  0  0  0  0  0  0  0  0  0  0
  -11.2264    9.7505    0.9116 H   0  0  0  0  0  0  0  0  0  0  0  0
  1  2  1  0
  2  3  1  0
  3  4  1  0
  4  5  1  0
  5  6  1  0
  6  7  1  0
  7  8  1  0
  7  9  1  0
  2 10  1  0
 10 11  1  0
 11 12  1  0
 12 13  1  0
 13 14  1  6
 13 15  1  0
 15 16  1  0
 16 17  1  0
 17 18  2  0
 18 19  1  0
 19 20  1  0
 20 21  1  0
 21 22  1  0
 22 23  1  0
 22 24  1  0
 24 25  1  0
 24 26  1  0
 19 27  1  0
 27 28  1  1
 27 29  1  0
 29 30  1  0
 30 31  1  0
 31 32  1  1
  7  5  1  0
 31 10  1  0
 31 13  1  0
 27 15  1  0
 24 18  1  0
  1 33  1  0
  1 34  1  0
  1 35  1  0
  2 36  1  1
  3 37  1  0
  3 38  1  0
  4 39  1  0
  4 40  1  0
  5 41  1  6
  8 42  1  0
  8 43  1  0
  8 44  1  0
  9 45  1  0
  9 46  1  0
  9 47  1  0
 10 48  1  6
 11 49  1  0
 11 50  1  0
 12 51  1  0
 12 52  1  0
 14 53  1  0
 14 54  1  0
 14 55  1  0
 15 56  1  1
 16 57  1  0
 16 58  1  0
 17 59  1  0
 19 60  1  6
 20 61  1  0
 20 62  1  0
 21 63  1  0
 21 64  1  0
 22 65  1  6
 23 66  1  0
 25 67  1  0
 25 68  1  0
 25 69  1  0
 26 70  1  0
 26 71  1  0
 26 72  1  0
 28 73  1  0
 28 74  1  0
 28 75  1  0
 29 76  1  0
 29 77  1  0
 30 78  1  0
 30 79  1  0
 32 80  1  0
 32 81  1  0
 32 82  1  0
M  END
>  <meeko>  (18) 
{"is_sidechain": [false], "intermolecular_energy": 2.731, "internal_energy": -0.839}

$$$$
EPH_relaxed_0001_pdb2pqr_Repair_396_r2_0001_out
     RDKit          3D

 82 86  0  0  0  0  0  0  0  0999 V2000
  -14.2470   11.0910   -2.7830 C   0  0  0  0  0  0  0  0  0  0  0  0
  -13.6520    9.8830   -2.0550 C   0  0  2  0  0  0  0  0  0  0  0  0
  -13.9440    9.9160   -0.5410 C   0  0  0  0  0  0  0  0  0  0  0  0
  -15.2730    9.2590   -0.1570 C   0  0  0  0  0  0  0  0  0  0  0  0
  -15.0610    7.9690    0.5770 C   0  0  2  0  0  0  0  0  0  0  0  0
  -13.8170    7.3170    0.2940 O   0  0  0  0  0  0  0  0  0  0  0  0
  -15.0050    6.6170   -0.1080 C   0  0  0  0  0  0  0  0  0  0  0  0
  -15.1630    6.4850   -1.5900 C   0  0  0  0  0  0  0  0  0  0  0  0
  -15.2870    5.3910    0.7050 C   0  0  0  0  0  0  0  0  0  0  0  0
  -12.1480    9.8220   -2.2940 C   0  0  1  0  0  0  0  0  0  0  0  0
  -11.4850   11.2260   -2.2950 C   0  0  0  0  0  0  0  0  0  0  0  0
  -10.0780   11.0560   -1.6680 C   0  0  0  0  0  0  0  0  0  0  0  0
   -9.8470    9.5270   -1.6330 C   0  0  1  0  0  0  0  0  0  0  0  0
   -9.3860    9.1580   -3.0780 C   0  0  0  0  0  0  0  0  0  0  0  0
   -8.8430    9.0040   -0.5560 C   0  0  2  0  0  0  0  0  0  0  0  0
   -7.3980    9.5100   -0.7100 C   0  0  0  0  0  0  0  0  0  0  0  0
   -6.5090    8.6520   -1.5490 C   0  0  0  0  0  0  0  0  0  0  0  0
   -6.7670    7.3840   -1.9200 C   0  0  0  0  0  0  0  0  0  0  0  0
   -8.0140    6.6520   -1.4060 C   0  0  1  0  0  0  0  0  0  0  0  0
   -7.6180    5.2310   -0.9260 C   0  0  0  0  0  0  0  0  0  0  0  0
   -6.8750    4.4380   -1.9960 C   0  0  0  0  0  0  0  0  0  0  0  0
   -5.6120    5.1700   -2.4390 C   0  0  2  0  0  0  0  0  0  0  0  0
   -4.6900    5.2020   -1.3450 O   0  0  0  0  0  0  0  0  0  0  0  0
   -5.8850    6.6180   -2.9350 C   0  0  0  0  0  0  0  0  0  0  0  0
   -6.6320    6.5710   -4.2910 C   0  0  0  0  0  0  0  0  0  0  0  0
   -4.5150    7.2920   -3.2170 C   0  0  0  0  0  0  0  0  0  0  0  0
   -8.8870    7.4380   -0.3350 C   0  0  1  0  0  0  0  0  0  0  0  0
   -8.3330    7.1750    1.0990 C   0  0  0  0  0  0  0  0  0  0  0  0
  -10.3560    6.8720   -0.3540 C   0  0  0  0  0  0  0  0  0  0  0  0
  -11.3340    7.5110   -1.3590 C   0  0  0  0  0  0  0  0  0  0  0  0
  -11.2950    9.0400   -1.2630 C   0  0  2  0  0  0  0  0  0  0  0  0
  -11.7760    9.4420    0.1730 C   0  0  0  0  0  0  0  0  0  0  0  0
  -14.6075   11.8228   -2.0451 H   0  0  0  0  0  0  0  0  0  0  0  0
  -13.4748   11.5560   -3.4135 H   0  0  0  0  0  0  0  0  0  0  0  0
  -15.0863   10.7623   -3.4135 H   0  0  0  0  0  0  0  0  0  0  0  0
  -14.1306    8.9809   -2.4639 H   0  0  0  0  0  0  0  0  0  0  0  0
  -13.1320    9.3886   -0.0189 H   0  0  0  0  0  0  0  0  0  0  0  0
  -14.0119   10.9744   -0.2492 H   0  0  0  0  0  0  0  0  0  0  0  0
  -15.8381    9.9478    0.4882 H   0  0  0  0  0  0  0  0  0  0  0  0
  -15.8279    9.0409   -1.0814 H   0  0  0  0  0  0  0  0  0  0  0  0
  -15.6385    8.3365    1.4380 H   0  0  0  0  0  0  0  0  0  0  0  0
  -15.9900    5.7941   -1.8105 H   0  0  0  0  0  0  0  0  0  0  0  0
  -15.3834    7.4712   -2.0245 H   0  0  0  0  0  0  0  0  0  0  0  0
  -14.2317    6.0927   -2.0245 H   0  0  0  0  0  0  0  0  0  0  0  0
  -15.2298    5.6395    1.7750 H   0  0  0  0  0  0  0  0  0  0  0  0
  -16.2944    5.0179    0.4685 H   0  0  0  0  0  0  0  0  0  0  0  0
  -14.5438    4.6153    0.4685 H   0  0  0  0  0  0  0  0  0  0  0  0
  -12.1369    9.3029   -3.2637 H   0  0  0  0  0  0  0  0  0  0  0  0
  -11.3979   11.6031   -3.3247 H   0  0  0  0  0  0  0  0  0  0  0  0
  -12.0874   11.9479   -1.7240 H   0  0  0  0  0  0  0  0  0  0  0  0
   -9.3148   11.5497   -2.2875 H   0  0  0  0  0  0  0  0  0  0  0  0
  -10.0095   11.5106   -0.6687 H   0  0  0  0  0  0  0  0  0  0  0  0
   -8.5282    8.4714   -3.0251 H   0  0  0  0  0  0  0  0  0  0  0  0
  -10.2137    8.6701   -3.6136 H   0  0  0  0  0  0  0  0  0  0  0  0
   -9.0912   10.0725   -3.6136 H   0  0  0  0  0  0  0  0  0  0  0  0
   -9.2244    9.4670    0.3660 H   0  0  0  0  0  0  0  0  0  0  0  0
   -7.4347   10.5102   -1.1663 H   0  0  0  0  0  0  0  0  0  0  0  0
   -6.9632    9.5031    0.3004 H   0  0  0  0  0  0  0  0  0  0  0  0
   -5.5624    9.0940   -1.8933 H   0  0  0  0  0  0  0  0  0  0  0  0
   -8.6997    6.5787   -2.2630 H   0  0  0  0  0  0  0  0  0  0  0  0
   -6.9691    5.3253   -0.0428 H   0  0  0  0  0  0  0  0  0  0  0  0
   -8.5451    4.6875   -0.6912 H   0  0  0  0  0  0  0  0  0  0  0  0
   -6.5969    3.4552   -1.5876 H   0  0  0  0  0  0  0  0  0  0  0  0
   -7.5359    4.3195   -2.8673 H   0  0  0  0  0  0  0  0  0  0  0  0
   -5.1943    4.6190   -3.2946 H   0  0  0  0  0  0  0  0  0  0  0  0
   -4.9360    4.4890   -0.7320 H   0  0  0  0  0  0  0  0  0  0  0  0
   -7.7150    6.5029   -4.1108 H   0  0  0  0  0  0  0  0  0  0  0  0
   -6.4122    7.4848   -4.8626 H   0  0  0  0  0  0  0  0  0  0  0  0
   -6.2994    5.6920   -4.8626 H   0  0  0  0  0  0  0  0  0  0  0  0
   -4.0225    7.5343   -2.2638 H   0  0  0  0  0  0  0  0  0  0  0  0
   -3.8795    6.6037   -3.7935 H   0  0  0  0  0  0  0  0  0  0  0  0
   -4.6724    8.2155   -3.7935 H   0  0  0  0  0  0  0  0  0  0  0  0
   -9.0642    7.5221    1.8439 H   0  0  0  0  0  0  0  0  0  0  0  0
   -8.1572    6.0973    1.2322 H   0  0  0  0  0  0  0  0  0  0  0  0
   -7.3869    7.7201    1.2322 H   0  0  0  0  0  0  0  0  0  0  0  0
  -10.2959    5.7982   -0.5850 H   0  0  0  0  0  0  0  0  0  0  0  0
  -10.7681    7.1078    0.6382 H   0  0  0  0  0  0  0  0  0  0  0  0
  -11.0531    7.2068   -2.3781 H   0  0  0  0  0  0  0  0  0  0  0  0
  -12.3529    7.1699   -1.1234 H   0  0  0  0  0  0  0  0  0  0  0  0
  -11.1593    8.9266    0.9240 H   0  0  0  0  0  0  0  0  0  0  0  0
  -11.6772   10.5300    0.3016 H   0  0  0  0  0  0  0  0  0  0  0  0
  -12.8292    9.1517    0.3016 H   0  0  0  0  0  0  0  0  0  0  0  0
  1  2  1  0
  2  3  1  0
  3  4  1  0
  4  5  1  0
  5  6  1  0
  6  7  1  0
  7  8  1  0
  7  9  1  0
  2 10  1  0
 10 11  1  0
 11 12  1  0
 12 13  1  0
 13 14  1  6
 13 15  1  0
 15 16  1  0
 16 17  1  0
 17 18  2  0
 18 19  1  0
 19 20  1  0
 20 21  1  0
 21 22  1  0
 22 23  1  0
 22 24  1  0
 24 25  1  0
 24 26  1  0
 19 27  1  0
 27 28  1  1
 27 29  1  0
 29 30  1  0
 30 31  1  0
 31 32  1  1
  7  5  1  0
 31 10  1  0
 31 13  1  0
 27 15  1  0
 24 18  1  0
  1 33  1  0
  1 34  1  0
  1 35  1  0
  2 36  1  6
  3 37  1  0
  3 38  1  0
  4 39  1  0
  4 40  1  0
  5 41  1  1
  8 42  1  0
  8 43  1  0
  8 44  1  0
  9 45  1  0
  9 46  1  0
  9 47  1  0
 10 48  1  6
 11 49  1  0
 11 50  1  0
 12 51  1  0
 12 52  1  0
 14 53  1  0
 14 54  1  0
 14 55  1  0
 15 56  1  1
 16 57  1  0
 16 58  1  0
 17 59  1  0
 19 60  1  6
 20 61  1  0
 20 62  1  0
 21 63  1  0
 21 64  1  0
 22 65  1  6
 23 66  1  0
 25 67  1  0
 25 68  1  0
 25 69  1  0
 26 70  1  0
 26 71  1  0
 26 72  1  0
 28 73  1  0
 28 74  1  0
 28 75  1  0
 29 76  1  0
 29 77  1  0
 30 78  1  0
 30 79  1  0
 32 80  1  0
 32 81  1  0
 32 82  1  0
M  END
>  <meeko>  (19) 
{"is_sidechain": [false], "intermolecular_energy": 2.731, "internal_energy": -0.839}

$$$$
