EPH_relaxed_0001_pdb2pqr_Repair_12_r2_0001_out
     RDKit          3D

 82 86  0  0  0  0  0  0  0  0999 V2000
   -1.4120    8.4900   -1.8120 C   0  0  0  0  0  0  0  0  0  0  0  0
   -1.8730    9.1020   -0.4860 C   0  0  2  0  0  0  0  0  0  0  0  0
   -3.3620    9.4980   -0.5150 C   0  0  0  0  0  0  0  0  0  0  0  0
   -4.3180    8.3020   -0.5150 C   0  0  0  0  0  0  0  0  0  0  0  0
   -4.7480    7.9360   -1.9030 C   0  0  2  0  0  0  0  0  0  0  0  0
   -6.1660    7.9510   -2.1140 O   0  0  0  0  0  0  0  0  0  0  0  0
   -5.5210    6.6730   -2.2340 C   0  0  0  0  0  0  0  0  0  0  0  0
   -5.9070    5.6930   -1.1700 C   0  0  0  0  0  0  0  0  0  0  0  0
   -5.4730    6.1520   -3.6360 C   0  0  0  0  0  0  0  0  0  0  0  0
   -1.0170   10.3170   -0.1490 C   0  0  1  0  0  0  0  0  0  0  0  0
    0.0720   10.0050    0.9130 C   0  0  0  0  0  0  0  0  0  0  0  0
    1.3120   10.8610    0.5470 C   0  0  0  0  0  0  0  0  0  0  0  0
    0.7920   11.8730   -0.5000 C   0  0  1  0  0  0  0  0  0  0  0  0
    0.1050   12.9980    0.3360 C   0  0  0  0  0  0  0  0  0  0  0  0
    1.8560   12.4550   -1.4870 C   0  0  2  0  0  0  0  0  0  0  0  0
    2.9780   13.2750   -0.8270 C   0  0  0  0  0  0  0  0  0  0  0  0
    2.7090   14.7370   -0.6980 C   0  0  0  0  0  0  0  0  0  0  0  0
    1.7430   15.4140   -1.3460 C   0  0  0  0  0  0  0  0  0  0  0  0
    0.8590   14.7200   -2.3900 C   0  0  1  0  0  0  0  0  0  0  0  0
    0.7560   15.6100   -3.6570 C   0  0  0  0  0  0  0  0  0  0  0  0
    0.2830   17.0250   -3.3400 C   0  0  0  0  0  0  0  0  0  0  0  0
    1.2200   17.7030   -2.3440 C   0  0  2  0  0  0  0  0  0  0  0  0
    2.4900   17.9070   -2.9700 O   0  0  0  0  0  0  0  0  0  0  0  0
    1.4080   16.8930   -1.0310 C   0  0  0  0  0  0  0  0  0  0  0  0
    0.0990   16.9300   -0.2040 C   0  0  0  0  0  0  0  0  0  0  0  0
    2.4830   17.6150   -0.1740 C   0  0  0  0  0  0  0  0  0  0  0  0
    1.2400   13.2150   -2.7300 C   0  0  1  0  0  0  0  0  0  0  0  0
    2.3220   13.1810   -3.8530 C   0  0  0  0  0  0  0  0  0  0  0  0
   -0.0270   12.4830   -3.3120 C   0  0  0  0  0  0  0  0  0  0  0  0
   -0.9780   11.8250   -2.2940 C   0  0  0  0  0  0  0  0  0  0  0  0
   -0.2010   10.9540   -1.3010 C   0  0  2  0  0  0  0  0  0  0  0  0
    0.4830    9.8000   -2.1110 C   0  0  0  0  0  0  0  0  0  0  0  0
   -0.7614    7.6262   -1.6106 H   0  0  0  0  0  0  0  0  0  0  0  0
   -2.2892    8.1617   -2.3889 H   0  0  0  0  0  0  0  0  0  0  0  0
   -0.8544    9.2425   -2.3889 H   0  0  0  0  0  0  0  0  0  0  0  0
   -1.7516    8.3342    0.2923 H   0  0  0  0  0  0  0  0  0  0  0  0
   -3.5750   10.1127    0.3720 H   0  0  0  0  0  0  0  0  0  0  0  0
   -3.5308   10.0439   -1.4549 H   0  0  0  0  0  0  0  0  0  0  0  0
   -3.8094    7.4391   -0.0602 H   0  0  0  0  0  0  0  0  0  0  0  0
   -5.2141    8.5793    0.0596 H   0  0  0  0  0  0  0  0  0  0  0  0
   -3.8319    8.3728   -2.3272 H   0  0  0  0  0  0  0  0  0  0  0  0
   -5.7314    6.1388   -0.1798 H   0  0  0  0  0  0  0  0  0  0  0  0
   -6.9722    5.4393   -1.2742 H   0  0  0  0  0  0  0  0  0  0  0  0
   -5.3009    4.7810   -1.2742 H   0  0  0  0  0  0  0  0  0  0  0  0
   -5.3721    5.0568   -3.6169 H   0  0  0  0  0  0  0  0  0  0  0  0
   -6.4002    6.4257   -4.1608 H   0  0  0  0  0  0  0  0  0  0  0  0
   -4.6115    6.5905   -4.1608 H   0  0  0  0  0  0  0  0  0  0  0  0
   -1.8041   11.0101    0.1828 H   0  0  0  0  0  0  0  0  0  0  0  0
   -0.2901   10.2725    1.9167 H   0  0  0  0  0  0  0  0  0  0  0  0
    0.3202    8.9334    0.9211 H   0  0  0  0  0  0  0  0  0  0  0  0
    1.6984   11.3841    1.4342 H   0  0  0  0  0  0  0  0  0  0  0  0
    2.1413   10.2502    0.1608 H   0  0  0  0  0  0  0  0  0  0  0  0
    0.2331   12.7882    1.4082 H   0  0  0  0  0  0  0  0  0  0  0  0
    0.5654   13.9674    0.0945 H   0  0  0  0  0  0  0  0  0  0  0  0
   -0.9676   13.0312    0.0945 H   0  0  0  0  0  0  0  0  0  0  0  0
    2.3387   11.5463   -1.8759 H   0  0  0  0  0  0  0  0  0  0  0  0
    3.1461   12.8702    0.1819 H   0  0  0  0  0  0  0  0  0  0  0  0
    3.8510   13.1840   -1.4900 H   0  0  0  0  0  0  0  0  0  0  0  0
    3.3546   15.3097   -0.0159 H   0  0  0  0  0  0  0  0  0  0  0  0
   -0.1333   14.6154   -1.9269 H   0  0  0  0  0  0  0  0  0  0  0  0
    1.7477   15.6671   -4.1295 H   0  0  0  0  0  0  0  0  0  0  0  0
    0.0141   15.1520   -4.3277 H   0  0  0  0  0  0  0  0  0  0  0  0
    0.2588   17.6131   -4.2693 H   0  0  0  0  0  0  0  0  0  0  0  0
   -0.7212   16.9680   -2.8946 H   0  0  0  0  0  0  0  0  0  0  0  0
    0.7604   18.6607   -2.0584 H   0  0  0  0  0  0  0  0  0  0  0  0
    2.3250   18.1800   -3.8890 H   0  0  0  0  0  0  0  0  0  0  0  0
    0.3427   16.9231    0.8687 H   0  0  0  0  0  0  0  0  0  0  0  0
   -0.4623   17.8444   -0.4466 H   0  0  0  0  0  0  0  0  0  0  0  0
   -0.5130   16.0488   -0.4466 H   0  0  0  0  0  0  0  0  0  0  0  0
    2.2617   17.4664    0.8932 H   0  0  0  0  0  0  0  0  0  0  0  0
    3.4752   17.1995   -0.4041 H   0  0  0  0  0  0  0  0  0  0  0  0
    2.4736   18.6906   -0.4041 H   0  0  0  0  0  0  0  0  0  0  0  0
    3.3226   13.1496   -3.3972 H   0  0  0  0  0  0  0  0  0  0  0  0
    2.1750   12.2870   -4.4769 H   0  0  0  0  0  0  0  0  0  0  0  0
    2.2314   14.0824   -4.4769 H   0  0  0  0  0  0  0  0  0  0  0  0
   -0.6084   13.2246   -3.8794 H   0  0  0  0  0  0  0  0  0  0  0  0
    0.3713   11.6520   -3.9126 H   0  0  0  0  0  0  0  0  0  0  0  0
   -1.5131   12.6111   -1.7411 H   0  0  0  0  0  0  0  0  0  0  0  0
   -1.6884   11.1864   -2.8395 H   0  0  0  0  0  0  0  0  0  0  0  0
    0.9164    9.0688   -1.4127 H   0  0  0  0  0  0  0  0  0  0  0  0
   -0.2662    9.3026   -2.7444 H   0  0  0  0  0  0  0  0  0  0  0  0
    1.2790   10.2185   -2.7444 H   0  0  0  0  0  0  0  0  0  0  0  0
  1  2  1  0
  2  3  1  0
  3  4  1  0
  4  5  1  0
  5  6  1  0
  6  7  1  0
  7  8  1  0
  7  9  1  0
  2 10  1  0
 10 11  1  0
 11 12  1  0
 12 13  1  0
 13 14  1  1
 13 15  1  0
 15 16  1  0
 16 17  1  0
 17 18  2  0
 18 19  1  0
 19 20  1  0
 20 21  1  0
 21 22  1  0
 22 23  1  0
 22 24  1  0
 24 25  1  0
 24 26  1  0
 19 27  1  0
 27 28  1  6
 27 29  1  0
 29 30  1  0
 30 31  1  0
 31 32  1  6
  7  5  1  0
 31 10  1  0
 31 13  1  0
 27 15  1  0
 24 18  1  0
  1 33  1  0
  1 34  1  0
  1 35  1  0
  2 36  1  1
  3 37  1  0
  3 38  1  0
  4 39  1  0
  4 40  1  0
  5 41  1  6
  8 42  1  0
  8 43  1  0
  8 44  1  0
  9 45  1  0
  9 46  1  0
  9 47  1  0
 10 48  1  1
 11 49  1  0
 11 50  1  0
 12 51  1  0
 12 52  1  0
 14 53  1  0
 14 54  1  0
 14 55  1  0
 15 56  1  6
 16 57  1  0
 16 58  1  0
 17 59  1  0
 19 60  1  1
 20 61  1  0
 20 62  1  0
 21 63  1  0
 21 64  1  0
 22 65  1  1
 23 66  1  0
 25 67  1  0
 25 68  1  0
 25 69  1  0
 26 70  1  0
 26 71  1  0
 26 72  1  0
 28 73  1  0
 28 74  1  0
 28 75  1  0
 29 76  1  0
 29 77  1  0
 30 78  1  0
 30 79  1  0
 32 80  1  0
 32 81  1  0
 32 82  1  0
M  END
>  <meeko>  (1) 
{"is_sidechain": [false], "intermolecular_energy": 2.731, "internal_energy": -0.839}

$$$$
EPH_relaxed_0001_pdb2pqr_Repair_12_r2_0001_out
     RDKit          3D

 82 86  0  0  0  0  0  0  0  0999 V2000
    1.9800   19.6870   -0.6410 C   0  0  0  0  0  0  0  0  0  0  0  0
    2.3460   18.4790    0.2260 C   0  0  2  0  0  0  0  0  0  0  0  0
    3.8080   18.0370    0.0190 C   0  0  0  0  0  0  0  0  0  0  0  0
    4.6660   18.1310    1.2840 C   0  0  0  0  0  0  0  0  0  0  0  0
    4.0200   18.9910    2.3280 C   0  0  2  0  0  0  0  0  0  0  0  0
    4.7530   20.1770    2.6630 O   0  0  0  0  0  0  0  0  0  0  0  0
    4.6030   19.2060    3.7120 C   0  0  0  0  0  0  0  0  0  0  0  0
    5.8860   18.5570    4.1280 C   0  0  0  0  0  0  0  0  0  0  0  0
    3.6890   19.6440    4.8130 C   0  0  0  0  0  0  0  0  0  0  0  0
    1.4030   17.3200   -0.0730 C   0  0  1  0  0  0  0  0  0  0  0  0
    0.1500   17.7600   -0.8750 C   0  0  0  0  0  0  0  0  0  0  0  0
   -0.2060   16.5890   -1.8270 C   0  0  0  0  0  0  0  0  0  0  0  0
    0.6380   15.3990   -1.3130 C   0  0  1  0  0  0  0  0  0  0  0  0
   -0.1690   14.8280   -0.1050 C   0  0  0  0  0  0  0  0  0  0  0  0
    0.9740   14.2870   -2.3600 C   0  0  2  0  0  0  0  0  0  0  0  0
   -0.2450   13.5480   -2.9400 C   0  0  0  0  0  0  0  0  0  0  0  0
   -0.6640   12.3250   -2.1930 C   0  0  0  0  0  0  0  0  0  0  0  0
    0.0760   11.6780   -1.2740 C   0  0  0  0  0  0  0  0  0  0  0  0
    1.5160   12.1140   -0.9730 C   0  0  1  0  0  0  0  0  0  0  0  0
    2.4380   10.8660   -0.9370 C   0  0  0  0  0  0  0  0  0  0  0  0
    1.9380    9.7970    0.0300 C   0  0  0  0  0  0  0  0  0  0  0  0
    0.5250    9.3480   -0.3360 C   0  0  2  0  0  0  0  0  0  0  0  0
    0.5700    8.6670   -1.5940 O   0  0  0  0  0  0  0  0  0  0  0  0
   -0.4900   10.5220   -0.4130 C   0  0  0  0  0  0  0  0  0  0  0  0
   -0.7660   11.0660    1.0110 C   0  0  0  0  0  0  0  0  0  0  0  0
   -1.8400    9.9530   -0.9280 C   0  0  0  0  0  0  0  0  0  0  0  0
    2.0960   13.2740   -1.8920 C   0  0  1  0  0  0  0  0  0  0  0  0
    2.7160   12.6670   -3.1870 C   0  0  0  0  0  0  0  0  0  0  0  0
    3.2720   13.9930   -1.1310 C   0  0  0  0  0  0  0  0  0  0  0  0
    2.8870   15.1610   -0.2030 C   0  0  0  0  0  0  0  0  0  0  0  0
    1.9620   16.1490   -0.9200 C   0  0  2  0  0  0  0  0  0  0  0  0
    2.7540   16.7570   -2.1280 C   0  0  0  0  0  0  0  0  0  0  0  0
    1.7221   20.5382    0.0063 H   0  0  0  0  0  0  0  0  0  0  0  0
    2.8371   19.9557   -1.2760 H   0  0  0  0  0  0  0  0  0  0  0  0
    1.1179   19.4348   -1.2760 H   0  0  0  0  0  0  0  0  0  0  0  0
    2.2396   18.7823    1.2780 H   0  0  0  0  0  0  0  0  0  0  0  0
    3.8093   16.9919   -0.3243 H   0  0  0  0  0  0  0  0  0  0  0  0
    4.2490   18.7227   -0.7195 H   0  0  0  0  0  0  0  0  0  0  0  0
    4.8097   17.1202    1.6934 H   0  0  0  0  0  0  0  0  0  0  0  0
    5.6298   18.5863    1.0122 H   0  0  0  0  0  0  0  0  0  0  0  0
    3.0173   18.6923    1.9883 H   0  0  0  0  0  0  0  0  0  0  0  0
    5.9431   18.5281    5.2261 H   0  0  0  0  0  0  0  0  0  0  0  0
    5.9235   17.5315    3.7318 H   0  0  0  0  0  0  0  0  0  0  0  0
    6.7343   19.1344    3.7318 H   0  0  0  0  0  0  0  0  0  0  0  0
    4.1531   19.4216    5.7852 H   0  0  0  0  0  0  0  0  0  0  0  0
    3.5091   20.7261    4.7316 H   0  0  0  0  0  0  0  0  0  0  0  0
    2.7329   19.1062    4.7316 H   0  0  0  0  0  0  0  0  0  0  0  0
    1.1997   16.9788    0.9528 H   0  0  0  0  0  0  0  0  0  0  0  0
   -0.6874   17.9593   -0.1901 H   0  0  0  0  0  0  0  0  0  0  0  0
    0.3471   18.6827   -1.4405 H   0  0  0  0  0  0  0  0  0  0  0  0
   -1.2797   16.3562   -1.7719 H   0  0  0  0  0  0  0  0  0  0  0  0
    0.0062   16.8275   -2.8797 H   0  0  0  0  0  0  0  0  0  0  0  0
    0.2966   15.1574    0.8356 H   0  0  0  0  0  0  0  0  0  0  0  0
   -1.2049   15.1953   -0.1496 H   0  0  0  0  0  0  0  0  0  0  0  0
   -0.1674   13.7289   -0.1496 H   0  0  0  0  0  0  0  0  0  0  0  0
    1.3962   14.8670   -3.1939 H   0  0  0  0  0  0  0  0  0  0  0  0
   -1.0937   14.2477   -2.9498 H   0  0  0  0  0  0  0  0  0  0  0  0
    0.0549   13.2053   -3.9413 H   0  0  0  0  0  0  0  0  0  0  0  0
   -1.6622   11.9184   -2.4125 H   0  0  0  0  0  0  0  0  0  0  0  0
    1.4890   12.5876    0.0194 H   0  0  0  0  0  0  0  0  0  0  0  0
    2.4854   10.4333   -1.9472 H   0  0  0  0  0  0  0  0  0  0  0  0
    3.4292   11.1930   -0.5898 H   0  0  0  0  0  0  0  0  0  0  0  0
    2.6134    8.9298   -0.0115 H   0  0  0  0  0  0  0  0  0  0  0  0
    1.9197   10.2220    1.0444 H   0  0  0  0  0  0  0  0  0  0  0  0
    0.1723    8.6812    0.4646 H   0  0  0  0  0  0  0  0  0  0  0  0
   -0.2120    8.9400   -2.1040 H   0  0  0  0  0  0  0  0  0  0  0  0
   -0.4000   10.3446    1.7564 H   0  0  0  0  0  0  0  0  0  0  0  0
   -0.2460   12.0262    1.1439 H   0  0  0  0  0  0  0  0  0  0  0  0
   -1.8479   11.2135    1.1439 H   0  0  0  0  0  0  0  0  0  0  0  0
   -2.4757    9.6851   -0.0712 H   0  0  0  0  0  0  0  0  0  0  0  0
   -2.3491   10.7131   -1.5388 H   0  0  0  0  0  0  0  0  0  0  0  0
   -1.6515    9.0578   -1.5388 H   0  0  0  0  0  0  0  0  0  0  0  0
    3.4775   11.9215   -2.9143 H   0  0  0  0  0  0  0  0  0  0  0  0
    1.9257   12.1838   -3.7803 H   0  0  0  0  0  0  0  0  0  0  0  0
    3.1823   13.4674   -3.7803 H   0  0  0  0  0  0  0  0  0  0  0  0
    3.7840   13.2362   -0.5186 H   0  0  0  0  0  0  0  0  0  0  0  0
    3.8921   14.4441   -1.9197 H   0  0  0  0  0  0  0  0  0  0  0  0
    2.3703   14.7619    0.6823 H   0  0  0  0  0  0  0  0  0  0  0  0
    3.8044   15.6909    0.0928 H   0  0  0  0  0  0  0  0  0  0  0  0
    3.5734   17.3860   -1.7499 H   0  0  0  0  0  0  0  0  0  0  0  0
    3.1692   15.9434   -2.7410 H   0  0  0  0  0  0  0  0  0  0  0  0
    2.0753   17.3683   -2.7410 H   0  0  0  0  0  0  0  0  0  0  0  0
  1  2  1  0
  2  3  1  0
  3  4  1  0
  4  5  1  0
  5  6  1  0
  6  7  1  0
  7  8  1  0
  7  9  1  0
  2 10  1  0
 10 11  1  0
 11 12  1  0
 12 13  1  0
 13 14  1  1
 13 15  1  0
 15 16  1  0
 16 17  1  0
 17 18  2  0
 18 19  1  0
 19 20  1  0
 20 21  1  0
 21 22  1  0
 22 23  1  0
 22 24  1  0
 24 25  1  0
 24 26  1  0
 19 27  1  0
 27 28  1  6
 27 29  1  0
 29 30  1  0
 30 31  1  0
 31 32  1  6
  7  5  1  0
 31 10  1  0
 31 13  1  0
 27 15  1  0
 24 18  1  0
  1 33  1  0
  1 34  1  0
  1 35  1  0
  2 36  1  1
  3 37  1  0
  3 38  1  0
  4 39  1  0
  4 40  1  0
  5 41  1  1
  8 42  1  0
  8 43  1  0
  8 44  1  0
  9 45  1  0
  9 46  1  0
  9 47  1  0
 10 48  1  1
 11 49  1  0
 11 50  1  0
 12 51  1  0
 12 52  1  0
 14 53  1  0
 14 54  1  0
 14 55  1  0
 15 56  1  6
 16 57  1  0
 16 58  1  0
 17 59  1  0
 19 60  1  1
 20 61  1  0
 20 62  1  0
 21 63  1  0
 21 64  1  0
 22 65  1  1
 23 66  1  0
 25 67  1  0
 25 68  1  0
 25 69  1  0
 26 70  1  0
 26 71  1  0
 26 72  1  0
 28 73  1  0
 28 74  1  0
 28 75  1  0
 29 76  1  0
 29 77  1  0
 30 78  1  0
 30 79  1  0
 32 80  1  0
 32 81  1  0
 32 82  1  0
M  END
>  <meeko>  (2) 
{"is_sidechain": [false], "intermolecular_energy": 2.731, "internal_energy": -0.839}

$$$$
EPH_relaxed_0001_pdb2pqr_Repair_12_r2_0001_out
     RDKit          3D

 82 86  0  0  0  0  0  0  0  0999 V2000
    0.3940   18.4810   -0.0050 C   0  0  0  0  0  0  0  0  0  0  0  0
    1.4730   17.4130   -0.2010 C   0  0  2  0  0  0  0  0  0  0  0  0
    2.7030   17.9620   -0.9520 C   0  0  0  0  0  0  0  0  0  0  0  0
    3.9420   18.1260   -0.0670 C   0  0  0  0  0  0  0  0  0  0  0  0
    3.5850   18.6300    1.2980 C   0  0  2  0  0  0  0  0  0  0  0  0
    3.8570   20.0200    1.5140 O   0  0  0  0  0  0  0  0  0  0  0  0
    4.6120   19.0960    2.3130 C   0  0  0  0  0  0  0  0  0  0  0  0
    6.0770   19.0790    2.0050 C   0  0  0  0  0  0  0  0  0  0  0  0
    4.2350   19.1030    3.7620 C   0  0  0  0  0  0  0  0  0  0  0  0
    0.8940   16.2200   -0.9520 C   0  0  1  0  0  0  0  0  0  0  0  0
    0.7010   16.5030   -2.4660 C   0  0  0  0  0  0  0  0  0  0  0  0
    0.9890   15.1740   -3.2100 C   0  0  0  0  0  0  0  0  0  0  0  0
    1.0100   14.1010   -2.0970 C   0  0  1  0  0  0  0  0  0  0  0  0
   -0.4920   13.7720   -1.8280 C   0  0  0  0  0  0  0  0  0  0  0  0
    1.8390   12.8100   -2.3970 C   0  0  2  0  0  0  0  0  0  0  0  0
    1.3390   11.9770   -3.5910 C   0  0  0  0  0  0  0  0  0  0  0  0
    0.3410   10.9190   -3.2560 C   0  0  0  0  0  0  0  0  0  0  0  0
    0.0750   10.4570   -2.0210 C   0  0  0  0  0  0  0  0  0  0  0  0
    0.8840   10.9380   -0.8090 C   0  0  1  0  0  0  0  0  0  0  0  0
    1.2970    9.7180    0.0550 C   0  0  0  0  0  0  0  0  0  0  0  0
    0.1060    8.8530    0.4550 C   0  0  0  0  0  0  0  0  0  0  0  0
   -0.6390    8.3460   -0.7780 C   0  0  2  0  0  0  0  0  0  0  0  0
    0.2100    7.4390   -1.4880 O   0  0  0  0  0  0  0  0  0  0  0  0
   -1.0970    9.4870   -1.7290 C   0  0  0  0  0  0  0  0  0  0  0  0
   -2.2400   10.2920   -1.0640 C   0  0  0  0  0  0  0  0  0  0  0  0
   -1.7070    8.8330   -2.9980 C   0  0  0  0  0  0  0  0  0  0  0  0
    2.1060   11.9010   -1.1300 C   0  0  1  0  0  0  0  0  0  0  0  0
    3.3790   11.0580   -1.4470 C   0  0  0  0  0  0  0  0  0  0  0  0
    2.4430   12.7490    0.1540 C   0  0  0  0  0  0  0  0  0  0  0  0
    1.6770   14.0730    0.3330 C   0  0  0  0  0  0  0  0  0  0  0  0
    1.7190   14.9090   -0.9490 C   0  0  2  0  0  0  0  0  0  0  0  0
    3.2160   15.2740   -1.2330 C   0  0  0  0  0  0  0  0  0  0  0  0
    0.2299   18.6434    1.0705 H   0  0  0  0  0  0  0  0  0  0  0  0
    0.7202   19.4219   -0.4723 H   0  0  0  0  0  0  0  0  0  0  0  0
   -0.5435   18.1452   -0.4723 H   0  0  0  0  0  0  0  0  0  0  0  0
    1.8096   17.0956    0.7970 H   0  0  0  0  0  0  0  0  0  0  0  0
    2.9493   17.2680   -1.7691 H   0  0  0  0  0  0  0  0  0  0  0  0
    2.4350   18.9638   -1.3187 H   0  0  0  0  0  0  0  0  0  0  0  0
    4.4408   17.1507    0.0323 H   0  0  0  0  0  0  0  0  0  0  0  0
    4.6073   18.8625   -0.5414 H   0  0  0  0  0  0  0  0  0  0  0  0
    2.7491   17.9183    1.3671 H   0  0  0  0  0  0  0  0  0  0  0  0
    6.6491   19.0724    2.9445 H   0  0  0  0  0  0  0  0  0  0  0  0
    6.3187   18.1780    1.4221 H   0  0  0  0  0  0  0  0  0  0  0  0
    6.3396   19.9742    1.4221 H   0  0  0  0  0  0  0  0  0  0  0  0
    5.1462   19.0861    4.3780 H   0  0  0  0  0  0  0  0  0  0  0  0
    3.6576   20.0120    3.9863 H   0  0  0  0  0  0  0  0  0  0  0  0
    3.6243   18.2160    3.9863 H   0  0  0  0  0  0  0  0  0  0  0  0
   -0.0375   16.0796   -0.3840 H   0  0  0  0  0  0  0  0  0  0  0  0
   -0.3307   16.8306   -2.6615 H   0  0  0  0  0  0  0  0  0  0  0  0
    1.3764   17.3011   -2.8077 H   0  0  0  0  0  0  0  0  0  0  0  0
    0.1965   14.9590   -3.9419 H   0  0  0  0  0  0  0  0  0  0  0  0
    1.9323   15.2079   -3.7748 H   0  0  0  0  0  0  0  0  0  0  0  0
   -0.6702   13.7330   -0.7432 H   0  0  0  0  0  0  0  0  0  0  0  0
   -1.1243   14.5529   -2.2756 H   0  0  0  0  0  0  0  0  0  0  0  0
   -0.7399   12.7983   -2.2756 H   0  0  0  0  0  0  0  0  0  0  0  0
    2.8119   13.2209   -2.7047 H   0  0  0  0  0  0  0  0  0  0  0  0
    0.8763   12.6640   -4.3149 H   0  0  0  0  0  0  0  0  0  0  0  0
    2.2205   11.4503   -3.9854 H   0  0  0  0  0  0  0  0  0  0  0  0
   -0.2254   10.4795   -4.0903 H   0  0  0  0  0  0  0  0  0  0  0  0
    0.2115   11.5914   -0.2338 H   0  0  0  0  0  0  0  0  0  0  0  0
    2.0029    9.1013   -0.5207 H   0  0  0  0  0  0  0  0  0  0  0  0
    1.7545   10.1030    0.9783 H   0  0  0  0  0  0  0  0  0  0  0  0
    0.4659    7.9920    1.0375 H   0  0  0  0  0  0  0  0  0  0  0  0
   -0.5844    9.4627    1.0563 H   0  0  0  0  0  0  0  0  0  0  0  0
   -1.5531    7.8437   -0.4286 H   0  0  0  0  0  0  0  0  0  0  0  0
    0.1080    7.6220   -2.4370 H   0  0  0  0  0  0  0  0  0  0  0  0
   -2.1465   10.2261    0.0300 H   0  0  0  0  0  0  0  0  0  0  0  0
   -2.1757   11.3452   -1.3748 H   0  0  0  0  0  0  0  0  0  0  0  0
   -3.2100    9.8766   -1.3748 H   0  0  0  0  0  0  0  0  0  0  0  0
   -2.4293    8.0586   -2.7003 H   0  0  0  0  0  0  0  0  0  0  0  0
   -2.2188    9.6011   -3.5964 H   0  0  0  0  0  0  0  0  0  0  0  0
   -0.9052    8.3759   -3.5964 H   0  0  0  0  0  0  0  0  0  0  0  0
    3.8541   10.7434   -0.5061 H   0  0  0  0  0  0  0  0  0  0  0  0
    3.0945   10.1691   -2.0293 H   0  0  0  0  0  0  0  0  0  0  0  0
    4.0863   11.6668   -2.0293 H   0  0  0  0  0  0  0  0  0  0  0  0
    2.2319   12.1212    1.0322 H   0  0  0  0  0  0  0  0  0  0  0  0
    3.4974   13.0401    0.0379 H   0  0  0  0  0  0  0  0  0  0  0  0
    0.6291   13.8513    0.5837 H   0  0  0  0  0  0  0  0  0  0  0  0
    2.1535   14.6470    1.1414 H   0  0  0  0  0  0  0  0  0  0  0  0
    3.7490   15.4039   -0.2795 H   0  0  0  0  0  0  0  0  0  0  0  0
    3.6878   14.4646   -1.8094 H   0  0  0  0  0  0  0  0  0  0  0  0
    3.2623   16.2097   -1.8094 H   0  0  0  0  0  0  0  0  0  0  0  0
  1  2  1  0
  2  3  1  0
  3  4  1  0
  4  5  1  0
  5  6  1  0
  6  7  1  0
  7  8  1  0
  7  9  1  0
  2 10  1  0
 10 11  1  0
 11 12  1  0
 12 13  1  0
 13 14  1  1
 13 15  1  0
 15 16  1  0
 16 17  1  0
 17 18  2  0
 18 19  1  0
 19 20  1  0
 20 21  1  0
 21 22  1  0
 22 23  1  0
 22 24  1  0
 24 25  1  0
 24 26  1  0
 19 27  1  0
 27 28  1  6
 27 29  1  0
 29 30  1  0
 30 31  1  0
 31 32  1  6
  7  5  1  0
 31 10  1  0
 31 13  1  0
 27 15  1  0
 24 18  1  0
  1 33  1  0
  1 34  1  0
  1 35  1  0
  2 36  1  1
  3 37  1  0
  3 38  1  0
  4 39  1  0
  4 40  1  0
  5 41  1  1
  8 42  1  0
  8 43  1  0
  8 44  1  0
  9 45  1  0
  9 46  1  0
  9 47  1  0
 10 48  1  1
 11 49  1  0
 11 50  1  0
 12 51  1  0
 12 52  1  0
 14 53  1  0
 14 54  1  0
 14 55  1  0
 15 56  1  6
 16 57  1  0
 16 58  1  0
 17 59  1  0
 19 60  1  1
 20 61  1  0
 20 62  1  0
 21 63  1  0
 21 64  1  0
 22 65  1  1
 23 66  1  0
 25 67  1  0
 25 68  1  0
 25 69  1  0
 26 70  1  0
 26 71  1  0
 26 72  1  0
 28 73  1  0
 28 74  1  0
 28 75  1  0
 29 76  1  0
 29 77  1  0
 30 78  1  0
 30 79  1  0
 32 80  1  0
 32 81  1  0
 32 82  1  0
M  END
>  <meeko>  (3) 
{"is_sidechain": [false], "intermolecular_energy": 2.731, "internal_energy": -0.839}

$$$$
EPH_relaxed_0001_pdb2pqr_Repair_12_r2_0001_out
     RDKit          3D

 82 86  0  0  0  0  0  0  0  0999 V2000
   -1.0570    8.8260   -2.1810 C   0  0  0  0  0  0  0  0  0  0  0  0
   -1.2880    9.1080   -0.6930 C   0  0  2  0  0  0  0  0  0  0  0  0
   -2.7880    9.1800   -0.3420 C   0  0  0  0  0  0  0  0  0  0  0  0
   -3.6130    8.0310   -0.9280 C   0  0  0  0  0  0  0  0  0  0  0  0
   -5.0780    8.2150   -0.6730 C   0  0  2  0  0  0  0  0  0  0  0  0
   -5.8150    6.9960   -0.5050 O   0  0  0  0  0  0  0  0  0  0  0  0
   -6.1580    7.7910   -1.6510 C   0  0  0  0  0  0  0  0  0  0  0  0
   -5.8160    7.1510   -2.9600 C   0  0  0  0  0  0  0  0  0  0  0  0
   -7.5040    8.4380   -1.5560 C   0  0  0  0  0  0  0  0  0  0  0  0
   -0.5970   10.4070   -0.2980 C   0  0  1  0  0  0  0  0  0  0  0  0
    0.5050   10.1960    0.7740 C   0  0  0  0  0  0  0  0  0  0  0  0
    1.6330   11.2130    0.4620 C   0  0  0  0  0  0  0  0  0  0  0  0
    1.0050   12.1900   -0.5600 C   0  0  1  0  0  0  0  0  0  0  0  0
    0.1700   13.1890    0.3010 C   0  0  0  0  0  0  0  0  0  0  0  0
    2.0030   12.9370   -1.5040 C   0  0  2  0  0  0  0  0  0  0  0  0
    3.0030   13.8660   -0.7940 C   0  0  0  0  0  0  0  0  0  0  0  0
    2.5490   15.2770   -0.6200 C   0  0  0  0  0  0  0  0  0  0  0  0
    1.5150   15.8510   -1.2630 C   0  0  0  0  0  0  0  0  0  0  0  0
    0.7420   15.0900   -2.3480 C   0  0  1  0  0  0  0  0  0  0  0  0
    0.5470   16.0070   -3.5840 C   0  0  0  0  0  0  0  0  0  0  0  0
   -0.1050   17.3390   -3.2280 C   0  0  0  0  0  0  0  0  0  0  0  0
    0.7230   18.0920   -2.1910 C   0  0  2  0  0  0  0  0  0  0  0  0
    1.9670   18.4760   -2.7850 O   0  0  0  0  0  0  0  0  0  0  0  0
    0.9920   17.2640   -0.9030 C   0  0  0  0  0  0  0  0  0  0  0  0
   -0.3230   17.1060   -0.1020 C   0  0  0  0  0  0  0  0  0  0  0  0
    1.9540   18.0830   -0.0010 C   0  0  0  0  0  0  0  0  0  0  0  0
    1.3150   13.6590   -2.7330 C   0  0  1  0  0  0  0  0  0  0  0  0
    2.4090   13.8030   -3.8350 C   0  0  0  0  0  0  0  0  0  0  0  0
    0.1590   12.7950   -3.3640 C   0  0  0  0  0  0  0  0  0  0  0  0
   -0.7160   11.9870   -2.3880 C   0  0  0  0  0  0  0  0  0  0  0  0
    0.1490   11.1840   -1.4110 C   0  0  2  0  0  0  0  0  0  0  0  0
    0.9850   10.1550   -2.2470 C   0  0  0  0  0  0  0  0  0  0  0  0
   -0.3634    7.9793   -2.2904 H   0  0  0  0  0  0  0  0  0  0  0  0
   -2.0157    8.5790   -2.6605 H   0  0  0  0  0  0  0  0  0  0  0  0
   -0.6261    9.7173   -2.6605 H   0  0  0  0  0  0  0  0  0  0  0  0
   -0.8566    8.2702   -0.1256 H   0  0  0  0  0  0  0  0  0  0  0  0
   -2.8899    9.1575    0.7530 H   0  0  0  0  0  0  0  0  0  0  0  0
   -3.1765   10.1110   -0.7806 H   0  0  0  0  0  0  0  0  0  0  0  0
   -3.4428    7.9874   -2.0139 H   0  0  0  0  0  0  0  0  0  0  0  0
   -3.2947    7.0972   -0.4416 H   0  0  0  0  0  0  0  0  0  0  0  0
   -4.8906    9.1619   -0.1455 H   0  0  0  0  0  0  0  0  0  0  0  0
   -5.3047    6.1942   -2.7779 H   0  0  0  0  0  0  0  0  0  0  0  0
   -6.7381    6.9709   -3.5321 H   0  0  0  0  0  0  0  0  0  0  0  0
   -5.1538    7.8175   -3.5321 H   0  0  0  0  0  0  0  0  0  0  0  0
   -7.7745    8.5680   -0.4977 H   0  0  0  0  0  0  0  0  0  0  0  0
   -7.4744    9.4203   -2.0502 H   0  0  0  0  0  0  0  0  0  0  0  0
   -8.2526    7.8013   -2.0502 H   0  0  0  0  0  0  0  0  0  0  0  0
   -1.4703   10.9831    0.0416 H   0  0  0  0  0  0  0  0  0  0  0  0
    0.0964   10.3799    1.7786 H   0  0  0  0  0  0  0  0  0  0  0  0
    0.8859    9.1643    0.7512 H   0  0  0  0  0  0  0  0  0  0  0  0
    1.9373   11.7475    1.3740 H   0  0  0  0  0  0  0  0  0  0  0  0
    2.5383   10.7254    0.0714 H   0  0  0  0  0  0  0  0  0  0  0  0
    0.3407   12.9847    1.3683 H   0  0  0  0  0  0  0  0  0  0  0  0
    0.4796   14.2191    0.0707 H   0  0  0  0  0  0  0  0  0  0  0  0
   -0.8987   13.0671    0.0707 H   0  0  0  0  0  0  0  0  0  0  0  0
    2.6030   12.1110   -1.9135 H   0  0  0  0  0  0  0  0  0  0  0  0
    3.2056   13.4486    0.2034 H   0  0  0  0  0  0  0  0  0  0  0  0
    3.8909   13.9096   -1.4419 H   0  0  0  0  0  0  0  0  0  0  0  0
    3.1065   15.9008    0.0942 H   0  0  0  0  0  0  0  0  0  0  0  0
   -0.2358   14.8432   -1.9088 H   0  0  0  0  0  0  0  0  0  0  0  0
    1.5308   16.2054   -4.0344 H   0  0  0  0  0  0  0  0  0  0  0  0
   -0.1216   15.4850   -4.2844 H   0  0  0  0  0  0  0  0  0  0  0  0
   -0.1885   17.9531   -4.1368 H   0  0  0  0  0  0  0  0  0  0  0  0
   -1.1008   17.1403   -2.8049 H   0  0  0  0  0  0  0  0  0  0  0  0
    0.1420   18.9732   -1.8814 H   0  0  0  0  0  0  0  0  0  0  0  0
    2.4230   17.6640   -3.0630 H   0  0  0  0  0  0  0  0  0  0  0  0
   -0.1016   17.1326    0.9752 H   0  0  0  0  0  0  0  0  0  0  0  0
   -1.0081   17.9283   -0.3560 H   0  0  0  0  0  0  0  0  0  0  0  0
   -0.7938   16.1448   -0.3560 H   0  0  0  0  0  0  0  0  0  0  0  0
    1.7224   17.8858    1.0561 H   0  0  0  0  0  0  0  0  0  0  0  0
    2.9929   17.7879   -0.2100 H   0  0  0  0  0  0  0  0  0  0  0  0
    1.8284   19.1556   -0.2100 H   0  0  0  0  0  0  0  0  0  0  0  0
    3.3928   13.9325   -3.3603 H   0  0  0  0  0  0  0  0  0  0  0  0
    2.4201   12.8986   -4.4610 H   0  0  0  0  0  0  0  0  0  0  0  0
    2.1857   14.6795   -4.4610 H   0  0  0  0  0  0  0  0  0  0  0  0
   -0.5028   13.4777   -3.9171 H   0  0  0  0  0  0  0  0  0  0  0  0
    0.6679   12.0427   -3.9846 H   0  0  0  0  0  0  0  0  0  0  0  0
   -1.3534   12.6795   -1.8186 H   0  0  0  0  0  0  0  0  0  0  0  0
   -1.3324   11.2850   -2.9688 H   0  0  0  0  0  0  0  0  0  0  0  0
    1.5294    9.4849   -1.5653 H   0  0  0  0  0  0  0  0  0  0  0  0
    0.3091    9.5626   -2.8812 H   0  0  0  0  0  0  0  0  0  0  0  0
    1.7033   10.6953   -2.8812 H   0  0  0  0  0  0  0  0  0  0  0  0
  1  2  1  0
  2  3  1  0
  3  4  1  0
  4  5  1  0
  5  6  1  0
  6  7  1  0
  7  8  1  0
  7  9  1  0
  2 10  1  0
 10 11  1  0
 11 12  1  0
 12 13  1  0
 13 14  1  1
 13 15  1  0
 15 16  1  0
 16 17  1  0
 17 18  2  0
 18 19  1  0
 19 20  1  0
 20 21  1  0
 21 22  1  0
 22 23  1  0
 22 24  1  0
 24 25  1  0
 24 26  1  0
 19 27  1  0
 27 28  1  6
 27 29  1  0
 29 30  1  0
 30 31  1  0
 31 32  1  6
  7  5  1  0
 31 10  1  0
 31 13  1  0
 27 15  1  0
 24 18  1  0
  1 33  1  0
  1 34  1  0
  1 35  1  0
  2 36  1  1
  3 37  1  0
  3 38  1  0
  4 39  1  0
  4 40  1  0
  5 41  1  1
  8 42  1  0
  8 43  1  0
  8 44  1  0
  9 45  1  0
  9 46  1  0
  9 47  1  0
 10 48  1  1
 11 49  1  0
 11 50  1  0
 12 51  1  0
 12 52  1  0
 14 53  1  0
 14 54  1  0
 14 55  1  0
 15 56  1  6
 16 57  1  0
 16 58  1  0
 17 59  1  0
 19 60  1  1
 20 61  1  0
 20 62  1  0
 21 63  1  0
 21 64  1  0
 22 65  1  1
 23 66  1  0
 25 67  1  0
 25 68  1  0
 25 69  1  0
 26 70  1  0
 26 71  1  0
 26 72  1  0
 28 73  1  0
 28 74  1  0
 28 75  1  0
 29 76  1  0
 29 77  1  0
 30 78  1  0
 30 79  1  0
 32 80  1  0
 32 81  1  0
 32 82  1  0
M  END
>  <meeko>  (4) 
{"is_sidechain": [false], "intermolecular_energy": 2.731, "internal_energy": -0.839}

$$$$
EPH_relaxed_0001_pdb2pqr_Repair_12_r2_0001_out
     RDKit          3D

 82 86  0  0  0  0  0  0  0  0999 V2000
    2.4910   17.9690   -2.6060 C   0  0  0  0  0  0  0  0  0  0  0  0
    1.1330   17.6760   -1.9600 C   0  0  2  0  0  0  0  0  0  0  0  0
    1.1890   17.7710   -0.4220 C   0  0  0  0  0  0  0  0  0  0  0  0
    0.8040   19.1480    0.1240 C   0  0  0  0  0  0  0  0  0  0  0  0
   -0.6540   19.2240    0.4610 C   0  0  2  0  0  0  0  0  0  0  0  0
   -1.4770   18.2730   -0.2280 O   0  0  0  0  0  0  0  0  0  0  0  0
   -1.7200   19.6570   -0.5280 C   0  0  0  0  0  0  0  0  0  0  0  0
   -1.3710   20.0460   -1.9310 C   0  0  0  0  0  0  0  0  0  0  0  0
   -3.0220   20.1700    0.0030 C   0  0  0  0  0  0  0  0  0  0  0  0
    0.6460   16.2940   -2.3800 C   0  0  1  0  0  0  0  0  0  0  0  0
    0.5640   16.1320   -3.9210 C   0  0  0  0  0  0  0  0  0  0  0  0
    0.9440   14.6620   -4.2370 C   0  0  0  0  0  0  0  0  0  0  0  0
    0.9080   13.9470   -2.8660 C   0  0  1  0  0  0  0  0  0  0  0  0
   -0.6010   13.6350   -2.6170 C   0  0  0  0  0  0  0  0  0  0  0  0
    1.7930   12.6640   -2.7330 C   0  0  2  0  0  0  0  0  0  0  0  0
    1.4100   11.5070   -3.6720 C   0  0  0  0  0  0  0  0  0  0  0  0
    0.4170   10.5390   -3.1200 C   0  0  0  0  0  0  0  0  0  0  0  0
    0.0690   10.4300   -1.8240 C   0  0  0  0  0  0  0  0  0  0  0  0
    0.7670   11.2690   -0.7470 C   0  0  1  0  0  0  0  0  0  0  0  0
    1.1450   10.3620    0.4530 C   0  0  0  0  0  0  0  0  0  0  0  0
   -0.0500    9.5880    1.0010 C   0  0  0  0  0  0  0  0  0  0  0  0
   -0.6820    8.7210   -0.0850 C   0  0  2  0  0  0  0  0  0  0  0  0
    0.2430    7.6930   -0.4500 O   0  0  0  0  0  0  0  0  0  0  0  0
   -1.0950    9.5260   -1.3490 C   0  0  0  0  0  0  0  0  0  0  0  0
   -2.3090   10.4290   -1.0170 C   0  0  0  0  0  0  0  0  0  0  0  0
   -1.5880    8.5140   -2.4190 C   0  0  0  0  0  0  0  0  0  0  0  0
    1.9850   12.1610   -1.2450 C   0  0  1  0  0  0  0  0  0  0  0  0
    3.3010   11.3250   -1.2240 C   0  0  0  0  0  0  0  0  0  0  0  0
    2.1980   13.3500   -0.2350 C   0  0  0  0  0  0  0  0  0  0  0  0
    1.3840   14.6330   -0.4890 C   0  0  0  0  0  0  0  0  0  0  0  0
    1.5040   15.0770   -1.9500 C   0  0  2  0  0  0  0  0  0  0  0  0
    3.0080   15.4190   -2.2250 C   0  0  0  0  0  0  0  0  0  0  0  0
    3.2434   18.1313   -1.8202 H   0  0  0  0  0  0  0  0  0  0  0  0
    2.7917   17.1151   -3.2308 H   0  0  0  0  0  0  0  0  0  0  0  0
    2.4129   18.8710   -3.2308 H   0  0  0  0  0  0  0  0  0  0  0  0
    0.4263   18.4420   -2.3118 H   0  0  0  0  0  0  0  0  0  0  0  0
    0.4974   17.0254   -0.0026 H   0  0  0  0  0  0  0  0  0  0  0  0
    2.2327   17.5885   -0.1265 H   0  0  0  0  0  0  0  0  0  0  0  0
    1.3906   19.3476    1.0329 H   0  0  0  0  0  0  0  0  0  0  0  0
    1.0150   19.8962   -0.6543 H   0  0  0  0  0  0  0  0  0  0  0  0
   -0.4246   19.5479    1.4869 H   0  0  0  0  0  0  0  0  0  0  0  0
   -0.6365   20.8647   -1.9126 H   0  0  0  0  0  0  0  0  0  0  0  0
   -0.9415   19.1798   -2.4556 H   0  0  0  0  0  0  0  0  0  0  0  0
   -2.2786   20.3794   -2.4556 H   0  0  0  0  0  0  0  0  0  0  0  0
   -2.9986   20.1608    1.1027 H   0  0  0  0  0  0  0  0  0  0  0  0
   -3.1829   21.1987   -0.3517 H   0  0  0  0  0  0  0  0  0  0  0  0
   -3.8414   19.5275   -0.3517 H   0  0  0  0  0  0  0  0  0  0  0  0
   -0.3231   16.2739   -1.8600 H   0  0  0  0  0  0  0  0  0  0  0  0
   -0.4576   16.3427   -4.2702 H   0  0  0  0  0  0  0  0  0  0  0  0
    1.2426   16.8333   -4.4286 H   0  0  0  0  0  0  0  0  0  0  0  0
    0.2161   14.2127   -4.9286 H   0  0  0  0  0  0  0  0  0  0  0  0
    1.9267   14.5805   -4.7246 H   0  0  0  0  0  0  0  0  0  0  0  0
   -0.7935   13.5952   -1.5347 H   0  0  0  0  0  0  0  0  0  0  0  0
   -1.2183   14.4245   -3.0704 H   0  0  0  0  0  0  0  0  0  0  0  0
   -0.8546   12.6654   -3.0704 H   0  0  0  0  0  0  0  0  0  0  0  0
    2.7751   13.0177   -3.0800 H   0  0  0  0  0  0  0  0  0  0  0  0
    0.9875   11.9405   -4.5905 H   0  0  0  0  0  0  0  0  0  0  0  0
    2.3333   10.9330   -3.8395 H   0  0  0  0  0  0  0  0  0  0  0  0
   -0.0715    9.8574   -3.8319 H   0  0  0  0  0  0  0  0  0  0  0  0
    0.0336   12.0238   -0.4271 H   0  0  0  0  0  0  0  0  0  0  0  0
    1.9100    9.6431    0.1243 H   0  0  0  0  0  0  0  0  0  0  0  0
    1.5191   11.0119    1.2577 H   0  0  0  0  0  0  0  0  0  0  0  0
    0.2863    8.9432    1.8263 H   0  0  0  0  0  0  0  0  0  0  0  0
   -0.8014   10.3079    1.3576 H   0  0  0  0  0  0  0  0  0  0  0  0
   -1.6068    8.2940    0.3302 H   0  0  0  0  0  0  0  0  0  0  0  0
    0.5790    7.9010   -1.3390 H   0  0  0  0  0  0  0  0  0  0  0  0
   -2.4180   10.5101    0.0746 H   0  0  0  0  0  0  0  0  0  0  0  0
   -2.1495   11.4297   -1.4449 H   0  0  0  0  0  0  0  0  0  0  0  0
   -3.2216    9.9884   -1.4449 H   0  0  0  0  0  0  0  0  0  0  0  0
   -2.0173    7.6327   -1.9199 H   0  0  0  0  0  0  0  0  0  0  0  0
   -2.3554    8.9896   -3.0475 H   0  0  0  0  0  0  0  0  0  0  0  0
   -0.7405    8.2029   -3.0475 H   0  0  0  0  0  0  0  0  0  0  0  0
    3.5987   11.1359   -0.1821 H   0  0  0  0  0  0  0  0  0  0  0  0
    3.1348   10.3666   -1.7376 H   0  0  0  0  0  0  0  0  0  0  0  0
    4.0980   11.8828   -1.7376 H   0  0  0  0  0  0  0  0  0  0  0  0
    1.9374   12.9841    0.7691 H   0  0  0  0  0  0  0  0  0  0  0  0
    3.2496   13.6477   -0.3593 H   0  0  0  0  0  0  0  0  0  0  0  0
    0.3262   14.4401   -0.2571 H   0  0  0  0  0  0  0  0  0  0  0  0
    1.7791   15.4327    0.1546 H   0  0  0  0  0  0  0  0  0  0  0  0
    3.5375   15.5394   -1.2684 H   0  0  0  0  0  0  0  0  0  0  0  0
    3.4704   14.6031   -2.7999 H   0  0  0  0  0  0  0  0  0  0  0  0
    3.0721   16.3546   -2.7999 H   0  0  0  0  0  0  0  0  0  0  0  0
  1  2  1  0
  2  3  1  0
  3  4  1  0
  4  5  1  0
  5  6  1  0
  6  7  1  0
  7  8  1  0
  7  9  1  0
  2 10  1  0
 10 11  1  0
 11 12  1  0
 12 13  1  0
 13 14  1  1
 13 15  1  0
 15 16  1  0
 16 17  1  0
 17 18  2  0
 18 19  1  0
 19 20  1  0
 20 21  1  0
 21 22  1  0
 22 23  1  0
 22 24  1  0
 24 25  1  0
 24 26  1  0
 19 27  1  0
 27 28  1  6
 27 29  1  0
 29 30  1  0
 30 31  1  0
 31 32  1  6
  7  5  1  0
 31 10  1  0
 31 13  1  0
 27 15  1  0
 24 18  1  0
  1 33  1  0
  1 34  1  0
  1 35  1  0
  2 36  1  6
  3 37  1  0
  3 38  1  0
  4 39  1  0
  4 40  1  0
  5 41  1  1
  8 42  1  0
  8 43  1  0
  8 44  1  0
  9 45  1  0
  9 46  1  0
  9 47  1  0
 10 48  1  1
 11 49  1  0
 11 50  1  0
 12 51  1  0
 12 52  1  0
 14 53  1  0
 14 54  1  0
 14 55  1  0
 15 56  1  6
 16 57  1  0
 16 58  1  0
 17 59  1  0
 19 60  1  1
 20 61  1  0
 20 62  1  0
 21 63  1  0
 21 64  1  0
 22 65  1  1
 23 66  1  0
 25 67  1  0
 25 68  1  0
 25 69  1  0
 26 70  1  0
 26 71  1  0
 26 72  1  0
 28 73  1  0
 28 74  1  0
 28 75  1  0
 29 76  1  0
 29 77  1  0
 30 78  1  0
 30 79  1  0
 32 80  1  0
 32 81  1  0
 32 82  1  0
M  END
>  <meeko>  (5) 
{"is_sidechain": [false], "intermolecular_energy": 2.731, "internal_energy": -0.839}

$$$$
EPH_relaxed_0001_pdb2pqr_Repair_12_r2_0001_out
     RDKit          3D

 82 86  0  0  0  0  0  0  0  0999 V2000
    3.5870   17.7910    0.6940 C   0  0  0  0  0  0  0  0  0  0  0  0
    2.6820   18.1130   -0.4990 C   0  0  2  0  0  0  0  0  0  0  0  0
    1.9720   19.4720   -0.3380 C   0  0  0  0  0  0  0  0  0  0  0  0
    1.0320   19.5370    0.8680 C   0  0  0  0  0  0  0  0  0  0  0  0
   -0.2850   20.1560    0.5120 C   0  0  2  0  0  0  0  0  0  0  0  0
   -1.2390   20.1920    1.5820 O   0  0  0  0  0  0  0  0  0  0  0  0
   -1.5860   19.3770    0.4500 C   0  0  0  0  0  0  0  0  0  0  0  0
   -1.6330   17.9110    0.7460 C   0  0  0  0  0  0  0  0  0  0  0  0
   -2.7120   19.9300   -0.3670 C   0  0  0  0  0  0  0  0  0  0  0  0
    1.6510   17.0050   -0.6820 C   0  0  1  0  0  0  0  0  0  0  0  0
    0.4400   17.4530   -1.5430 C   0  0  0  0  0  0  0  0  0  0  0  0
   -0.0040   16.2170   -2.3670 C   0  0  0  0  0  0  0  0  0  0  0  0
    0.7390   15.0270   -1.7160 C   0  0  1  0  0  0  0  0  0  0  0  0
   -0.1160   14.6570   -0.4630 C   0  0  0  0  0  0  0  0  0  0  0  0
    0.9890   13.7840   -2.6310 C   0  0  2  0  0  0  0  0  0  0  0  0
   -0.2820   13.0840   -3.1440 C   0  0  0  0  0  0  0  0  0  0  0  0
   -0.8000   11.9870   -2.2740 C   0  0  0  0  0  0  0  0  0  0  0  0
   -0.1180   11.3880   -1.2800 C   0  0  0  0  0  0  0  0  0  0  0  0
    1.3510   11.7390   -1.0100 C   0  0  1  0  0  0  0  0  0  0  0  0
    2.1700   10.4350   -0.8270 C   0  0  0  0  0  0  0  0  0  0  0  0
    1.5820    9.5210    0.2440 C   0  0  0  0  0  0  0  0  0  0  0  0
    0.1400    9.1470   -0.0890 C   0  0  2  0  0  0  0  0  0  0  0  0
    0.1360    8.3320   -1.2650 O   0  0  0  0  0  0  0  0  0  0  0  0
   -0.7780   10.3820   -0.3060 C   0  0  0  0  0  0  0  0  0  0  0  0
   -1.0150   11.0980    1.0470 C   0  0  0  0  0  0  0  0  0  0  0  0
   -2.1670    9.8680   -0.7730 C   0  0  0  0  0  0  0  0  0  0  0  0
    2.0250   12.7430   -2.0420 C   0  0  1  0  0  0  0  0  0  0  0  0
    2.6000   11.9510   -3.2560 C   0  0  0  0  0  0  0  0  0  0  0  0
    3.2520   13.4460   -1.3490 C   0  0  0  0  0  0  0  0  0  0  0  0
    2.9580   14.7350   -0.5590 C   0  0  0  0  0  0  0  0  0  0  0  0
    2.1170   15.7090   -1.3900 C   0  0  2  0  0  0  0  0  0  0  0  0
    2.9600   16.1160   -2.6470 C   0  0  0  0  0  0  0  0  0  0  0  0
    3.0426   17.9847    1.6300 H   0  0  0  0  0  0  0  0  0  0  0  0
    3.8831   16.7323    0.6544 H   0  0  0  0  0  0  0  0  0  0  0  0
    4.4852   18.4247    0.6544 H   0  0  0  0  0  0  0  0  0  0  0  0
    3.3208   18.1780   -1.3921 H   0  0  0  0  0  0  0  0  0  0  0  0
    2.7385   20.2526   -0.2231 H   0  0  0  0  0  0  0  0  0  0  0  0
    1.3534   19.6194   -1.2355 H   0  0  0  0  0  0  0  0  0  0  0  0
    0.8573   18.5163    1.2391 H   0  0  0  0  0  0  0  0  0  0  0  0
    1.5068   20.1613    1.6392 H   0  0  0  0  0  0  0  0  0  0  0  0
    0.2016   20.8377   -0.2011 H   0  0  0  0  0  0  0  0  0  0  0  0
   -1.6379   17.7568    1.8351 H   0  0  0  0  0  0  0  0  0  0  0  0
   -2.5455   17.4780    0.3102 H   0  0  0  0  0  0  0  0  0  0  0  0
   -0.7501   17.4205    0.3102 H   0  0  0  0  0  0  0  0  0  0  0  0
   -3.4958   20.3149    0.3019 H   0  0  0  0  0  0  0  0  0  0  0  0
   -2.3379   20.7469   -1.0016 H   0  0  0  0  0  0  0  0  0  0  0  0
   -3.1297   19.1345   -1.0016 H   0  0  0  0  0  0  0  0  0  0  0  0
    1.4183   16.7940    0.3722 H   0  0  0  0  0  0  0  0  0  0  0  0
   -0.3816   17.7910   -0.8944 H   0  0  0  0  0  0  0  0  0  0  0  0
    0.7121   18.2904   -2.2023 H   0  0  0  0  0  0  0  0  0  0  0  0
   -1.0932   16.0775   -2.3016 H   0  0  0  0  0  0  0  0  0  0  0  0
    0.2320   16.3217   -3.4363 H   0  0  0  0  0  0  0  0  0  0  0  0
    0.4470   14.9006    0.4500 H   0  0  0  0  0  0  0  0  0  0  0  0
   -1.0554   15.2291   -0.4781 H   0  0  0  0  0  0  0  0  0  0  0  0
   -0.3420   13.5806   -0.4781 H   0  0  0  0  0  0  0  0  0  0  0  0
    1.4591   14.2352   -3.5173 H   0  0  0  0  0  0  0  0  0  0  0  0
   -1.0724   13.8428   -3.2414 H   0  0  0  0  0  0  0  0  0  0  0  0
   -0.0057   12.6115   -4.0981 H   0  0  0  0  0  0  0  0  0  0  0  0
   -1.8264   11.6385   -2.4612 H   0  0  0  0  0  0  0  0  0  0  0  0
    1.3580   12.3184   -0.0750 H   0  0  0  0  0  0  0  0  0  0  0  0
    2.1871    9.8920   -1.7835 H   0  0  0  0  0  0  0  0  0  0  0  0
    3.1827   10.7189   -0.5048 H   0  0  0  0  0  0  0  0  0  0  0  0
    2.1865    8.6041    0.3061 H   0  0  0  0  0  0  0  0  0  0  0  0
    1.5929   10.0550    1.2056 H   0  0  0  0  0  0  0  0  0  0  0  0
   -0.2678    8.6010    0.7744 H   0  0  0  0  0  0  0  0  0  0  0  0
    0.6420    8.8000   -1.9500 H   0  0  0  0  0  0  0  0  0  0  0  0
   -0.7864   10.4075    1.8722 H   0  0  0  0  0  0  0  0  0  0  0  0
   -0.3608   11.9797    1.1148 H   0  0  0  0  0  0  0  0  0  0  0  0
   -2.0661   11.4152    1.1148 H   0  0  0  0  0  0  0  0  0  0  0  0
   -2.7874    9.6384    0.1058 H   0  0  0  0  0  0  0  0  0  0  0  0
   -2.6604   10.6431   -1.3778 H   0  0  0  0  0  0  0  0  0  0  0  0
   -2.0370    8.9584   -1.3778 H   0  0  0  0  0  0  0  0  0  0  0  0
    3.2095   11.1114   -2.8905 H   0  0  0  0  0  0  0  0  0  0  0  0
    1.7712   11.5638   -3.8669 H   0  0  0  0  0  0  0  0  0  0  0  0
    3.2248   12.6191   -3.8669 H   0  0  0  0  0  0  0  0  0  0  0  0
    3.6995   12.7228   -0.6514 H   0  0  0  0  0  0  0  0  0  0  0  0
    3.9093   13.7575   -2.1742 H   0  0  0  0  0  0  0  0  0  0  0  0
    2.4082   14.4772    0.3582 H   0  0  0  0  0  0  0  0  0  0  0  0
    3.9139   15.2202   -0.3121 H   0  0  0  0  0  0  0  0  0  0  0  0
    3.9063   16.5729   -2.3216 H   0  0  0  0  0  0  0  0  0  0  0  0
    3.1732   15.2216   -3.2508 H   0  0  0  0  0  0  0  0  0  0  0  0
    2.3922   16.8392   -3.2508 H   0  0  0  0  0  0  0  0  0  0  0  0
  1  2  1  0
  2  3  1  0
  3  4  1  0
  4  5  1  0
  5  6  1  0
  6  7  1  0
  7  8  1  0
  7  9  1  0
  2 10  1  0
 10 11  1  0
 11 12  1  0
 12 13  1  0
 13 14  1  1
 13 15  1  0
 15 16  1  0
 16 17  1  0
 17 18  2  0
 18 19  1  0
 19 20  1  0
 20 21  1  0
 21 22  1  0
 22 23  1  0
 22 24  1  0
 24 25  1  0
 24 26  1  0
 19 27  1  0
 27 28  1  6
 27 29  1  0
 29 30  1  0
 30 31  1  0
 31 32  1  6
  7  5  1  0
 31 10  1  0
 31 13  1  0
 27 15  1  0
 24 18  1  0
  1 33  1  0
  1 34  1  0
  1 35  1  0
  2 36  1  6
  3 37  1  0
  3 38  1  0
  4 39  1  0
  4 40  1  0
  5 41  1  6
  8 42  1  0
  8 43  1  0
  8 44  1  0
  9 45  1  0
  9 46  1  0
  9 47  1  0
 10 48  1  1
 11 49  1  0
 11 50  1  0
 12 51  1  0
 12 52  1  0
 14 53  1  0
 14 54  1  0
 14 55  1  0
 15 56  1  6
 16 57  1  0
 16 58  1  0
 17 59  1  0
 19 60  1  1
 20 61  1  0
 20 62  1  0
 21 63  1  0
 21 64  1  0
 22 65  1  1
 23 66  1  0
 25 67  1  0
 25 68  1  0
 25 69  1  0
 26 70  1  0
 26 71  1  0
 26 72  1  0
 28 73  1  0
 28 74  1  0
 28 75  1  0
 29 76  1  0
 29 77  1  0
 30 78  1  0
 30 79  1  0
 32 80  1  0
 32 81  1  0
 32 82  1  0
M  END
>  <meeko>  (6) 
{"is_sidechain": [false], "intermolecular_energy": 2.731, "internal_energy": -0.839}

$$$$
EPH_relaxed_0001_pdb2pqr_Repair_12_r2_0001_out
     RDKit          3D

 82 86  0  0  0  0  0  0  0  0999 V2000
   -5.1690    5.8590   -1.6030 C   0  0  0  0  0  0  0  0  0  0  0  0
   -5.4380    7.3600   -1.7440 C   0  0  2  0  0  0  0  0  0  0  0  0
   -5.1960    8.1200   -0.4250 C   0  0  0  0  0  0  0  0  0  0  0  0
   -4.1620    9.2430   -0.5430 C   0  0  0  0  0  0  0  0  0  0  0  0
   -2.8230    8.7210   -0.9690 C   0  0  2  0  0  0  0  0  0  0  0  0
   -1.7700    8.9260   -0.0170 O   0  0  0  0  0  0  0  0  0  0  0  0
   -1.6340    9.6150   -1.2710 C   0  0  0  0  0  0  0  0  0  0  0  0
   -1.7300   11.1040   -1.1600 C   0  0  0  0  0  0  0  0  0  0  0  0
   -0.5380    9.0780   -2.1380 C   0  0  0  0  0  0  0  0  0  0  0  0
   -6.8670    7.5890   -2.2220 C   0  0  1  0  0  0  0  0  0  0  0  0
   -7.1590    6.9000   -3.5820 C   0  0  0  0  0  0  0  0  0  0  0  0
   -8.6350    6.4270   -3.5360 C   0  0  0  0  0  0  0  0  0  0  0  0
   -9.2350    7.1420   -2.3030 C   0  0  1  0  0  0  0  0  0  0  0  0
   -9.5800    8.5810   -2.8020 C   0  0  0  0  0  0  0  0  0  0  0  0
  -10.4690    6.4520   -1.6360 C   0  0  2  0  0  0  0  0  0  0  0  0
  -11.7130    6.3310   -2.5320 C   0  0  0  0  0  0  0  0  0  0  0  0
  -12.6680    7.4760   -2.4560 C   0  0  0  0  0  0  0  0  0  0  0  0
  -12.6820    8.4200   -1.4970 C   0  0  0  0  0  0  0  0  0  0  0  0
  -11.7310    8.3370   -0.2960 C   0  0  1  0  0  0  0  0  0  0  0  0
  -12.5210    8.6100    1.0100 C   0  0  0  0  0  0  0  0  0  0  0  0
  -13.2890    9.9270    0.9650 C   0  0  0  0  0  0  0  0  0  0  0  0
  -14.2670    9.9480   -0.2080 C   0  0  2  0  0  0  0  0  0  0  0  0
  -15.2870    8.9730    0.0250 O   0  0  0  0  0  0  0  0  0  0  0  0
  -13.5850    9.6760   -1.5780 C   0  0  0  0  0  0  0  0  0  0  0  0
  -12.7020   10.8860   -1.9700 C   0  0  0  0  0  0  0  0  0  0  0  0
  -14.6990    9.5840   -2.6550 C   0  0  0  0  0  0  0  0  0  0  0  0
  -10.8390    7.0250   -0.2080 C   0  0  1  0  0  0  0  0  0  0  0  0
  -11.6220    5.8990    0.5350 C   0  0  0  0  0  0  0  0  0  0  0  0
   -9.5640    7.3270    0.6650 C   0  0  0  0  0  0  0  0  0  0  0  0
   -8.3370    7.8970   -0.0730 C   0  0  0  0  0  0  0  0  0  0  0  0
   -8.0120    7.0670   -1.3180 C   0  0  2  0  0  0  0  0  0  0  0  0
   -7.6390    5.6200   -0.8460 C   0  0  0  0  0  0  0  0  0  0  0  0
   -5.1214    5.5936   -0.5366 H   0  0  0  0  0  0  0  0  0  0  0  0
   -5.9802    5.2942   -2.0856 H   0  0  0  0  0  0  0  0  0  0  0  0
   -4.2121    5.6111   -2.0856 H   0  0  0  0  0  0  0  0  0  0  0  0
   -4.7293    7.7546   -2.4870 H   0  0  0  0  0  0  0  0  0  0  0  0
   -6.1498    8.5591   -0.0971 H   0  0  0  0  0  0  0  0  0  0  0  0
   -4.7990    7.3918    0.2976 H   0  0  0  0  0  0  0  0  0  0  0  0
   -4.5127    9.9739   -1.2865 H   0  0  0  0  0  0  0  0  0  0  0  0
   -4.0490    9.7105    0.4463 H   0  0  0  0  0  0  0  0  0  0  0  0
   -3.2949    7.9045   -1.5352 H   0  0  0  0  0  0  0  0  0  0  0  0
   -1.7486   11.3921   -0.0986 H   0  0  0  0  0  0  0  0  0  0  0  0
   -0.8597   11.5651   -1.6499 H   0  0  0  0  0  0  0  0  0  0  0  0
   -2.6523   11.4495   -1.6499 H   0  0  0  0  0  0  0  0  0  0  0  0
    0.2698    8.6822   -1.5049 H   0  0  0  0  0  0  0  0  0  0  0  0
   -0.9344    8.2721   -2.7731 H   0  0  0  0  0  0  0  0  0  0  0  0
   -0.1441    9.8851   -2.7731 H   0  0  0  0  0  0  0  0  0  0  0  0
   -6.8794    8.6887   -2.2467 H   0  0  0  0  0  0  0  0  0  0  0  0
   -7.0154    7.6136   -4.4067 H   0  0  0  0  0  0  0  0  0  0  0  0
   -6.4778    6.0528   -3.7499 H   0  0  0  0  0  0  0  0  0  0  0  0
   -9.1662    6.7222   -4.4529 H   0  0  0  0  0  0  0  0  0  0  0  0
   -8.7205    5.3325   -3.4664 H   0  0  0  0  0  0  0  0  0  0  0  0
   -9.7383    9.2411   -1.9364 H   0  0  0  0  0  0  0  0  0  0  0  0
   -8.7490    8.9671   -3.4105 H   0  0  0  0  0  0  0  0  0  0  0  0
  -10.4958    8.5483   -3.4105 H   0  0  0  0  0  0  0  0  0  0  0  0
  -10.1095    5.4235   -1.4842 H   0  0  0  0  0  0  0  0  0  0  0  0
  -11.3735    6.2403   -3.5744 H   0  0  0  0  0  0  0  0  0  0  0  0
  -12.2642    5.4507   -2.1697 H   0  0  0  0  0  0  0  0  0  0  0  0
  -13.4241    7.5547   -3.2511 H   0  0  0  0  0  0  0  0  0  0  0  0
  -10.9791    9.1254   -0.4480 H   0  0  0  0  0  0  0  0  0  0  0  0
  -13.2368    7.7897    1.1670 H   0  0  0  0  0  0  0  0  0  0  0  0
  -11.7935    8.6758    1.8325 H   0  0  0  0  0  0  0  0  0  0  0  0
  -13.8496   10.0492    1.9035 H   0  0  0  0  0  0  0  0  0  0  0  0
  -12.5695   10.7492    0.8373 H   0  0  0  0  0  0  0  0  0  0  0  0
  -14.6926   10.9607   -0.2656 H   0  0  0  0  0  0  0  0  0  0  0  0
  -16.0970    9.4480    0.2770 H   0  0  0  0  0  0  0  0  0  0  0  0
  -12.3381   11.3846   -1.0595 H   0  0  0  0  0  0  0  0  0  0  0  0
  -11.8448   10.5371   -2.5645 H   0  0  0  0  0  0  0  0  0  0  0  0
  -13.2958   11.5959   -2.5645 H   0  0  0  0  0  0  0  0  0  0  0  0
  -15.6793    9.5030   -2.1626 H   0  0  0  0  0  0  0  0  0  0  0  0
  -14.6775   10.4870   -3.2828 H   0  0  0  0  0  0  0  0  0  0  0  0
  -14.5297    8.6968   -3.2828 H   0  0  0  0  0  0  0  0  0  0  0  0
  -11.5240    6.0399    1.6215 H   0  0  0  0  0  0  0  0  0  0  0  0
  -12.6845    5.9443    0.2537 H   0  0  0  0  0  0  0  0  0  0  0  0
  -11.2097    4.9188    0.2537 H   0  0  0  0  0  0  0  0  0  0  0  0
   -9.8544    8.0532    1.4385 H   0  0  0  0  0  0  0  0  0  0  0  0
   -9.2401    6.3489    1.0503 H   0  0  0  0  0  0  0  0  0  0  0  0
   -8.5487    8.9329   -0.3763 H   0  0  0  0  0  0  0  0  0  0  0  0
   -7.4724    7.8638    0.6063 H   0  0  0  0  0  0  0  0  0  0  0  0
   -7.6297    5.5839    0.2534 H   0  0  0  0  0  0  0  0  0  0  0  0
   -8.3825    4.9060   -1.2300 H   0  0  0  0  0  0  0  0  0  0  0  0
   -6.6430    5.3544   -1.2300 H   0  0  0  0  0  0  0  0  0  0  0  0
  1  2  1  0
  2  3  1  0
  3  4  1  0
  4  5  1  0
  5  6  1  0
  6  7  1  0
  7  8  1  0
  7  9  1  0
  2 10  1  0
 10 11  1  0
 11 12  1  0
 12 13  1  0
 13 14  1  6
 13 15  1  0
 15 16  1  0
 16 17  1  0
 17 18  2  0
 18 19  1  0
 19 20  1  0
 20 21  1  0
 21 22  1  0
 22 23  1  0
 22 24  1  0
 24 25  1  0
 24 26  1  0
 19 27  1  0
 27 28  1  1
 27 29  1  0
 29 30  1  0
 30 31  1  0
 31 32  1  1
  7  5  1  0
 31 10  1  0
 31 13  1  0
 27 15  1  0
 24 18  1  0
  1 33  1  0
  1 34  1  0
  1 35  1  0
  2 36  1  6
  3 37  1  0
  3 38  1  0
  4 39  1  0
  4 40  1  0
  5 41  1  6
  8 42  1  0
  8 43  1  0
  8 44  1  0
  9 45  1  0
  9 46  1  0
  9 47  1  0
 10 48  1  6
 11 49  1  0
 11 50  1  0
 12 51  1  0
 12 52  1  0
 14 53  1  0
 14 54  1  0
 14 55  1  0
 15 56  1  1
 16 57  1  0
 16 58  1  0
 17 59  1  0
 19 60  1  6
 20 61  1  0
 20 62  1  0
 21 63  1  0
 21 64  1  0
 22 65  1  6
 23 66  1  0
 25 67  1  0
 25 68  1  0
 25 69  1  0
 26 70  1  0
 26 71  1  0
 26 72  1  0
 28 73  1  0
 28 74  1  0
 28 75  1  0
 29 76  1  0
 29 77  1  0
 30 78  1  0
 30 79  1  0
 32 80  1  0
 32 81  1  0
 32 82  1  0
M  END
>  <meeko>  (7) 
{"is_sidechain": [false], "intermolecular_energy": 2.731, "internal_energy": -0.839}

$$$$
EPH_relaxed_0001_pdb2pqr_Repair_12_r2_0001_out
     RDKit          3D

 82 86  0  0  0  0  0  0  0  0999 V2000
    0.3900    8.7950   -2.3630 C   0  0  0  0  0  0  0  0  0  0  0  0
    1.1350    9.9330   -3.0660 C   0  0  2  0  0  0  0  0  0  0  0  0
    2.6370    9.9450   -2.7190 C   0  0  0  0  0  0  0  0  0  0  0  0
    3.5170   10.5470   -3.8180 C   0  0  0  0  0  0  0  0  0  0  0  0
    4.9110   10.8060   -3.3320 C   0  0  2  0  0  0  0  0  0  0  0  0
    5.4990   12.0200   -3.8190 O   0  0  0  0  0  0  0  0  0  0  0  0
    6.1280   10.7980   -4.2380 C   0  0  0  0  0  0  0  0  0  0  0  0
    6.0080   10.5230   -5.7040 C   0  0  0  0  0  0  0  0  0  0  0  0
    7.4750   10.5720   -3.6240 C   0  0  0  0  0  0  0  0  0  0  0  0
    0.5050   11.2720   -2.6990 C   0  0  1  0  0  0  0  0  0  0  0  0
   -0.8740   11.1130   -2.0040 C   0  0  0  0  0  0  0  0  0  0  0  0
   -0.9830   12.2530   -0.9590 C   0  0  0  0  0  0  0  0  0  0  0  0
    0.1740   13.2170   -1.3120 C   0  0  1  0  0  0  0  0  0  0  0  0
   -0.3690   14.0790   -2.4950 C   0  0  0  0  0  0  0  0  0  0  0  0
    0.7100   14.1090   -0.1450 C   0  0  2  0  0  0  0  0  0  0  0  0
   -0.3140   15.0930    0.4470 C   0  0  0  0  0  0  0  0  0  0  0  0
   -0.3480   16.4410   -0.1940 C   0  0  0  0  0  0  0  0  0  0  0  0
    0.5980   16.9440   -1.0090 C   0  0  0  0  0  0  0  0  0  0  0  0
    1.8940   16.1700   -1.2830 C   0  0  1  0  0  0  0  0  0  0  0  0
    3.1070   17.1280   -1.1520 C   0  0  0  0  0  0  0  0  0  0  0  0
    2.9710   18.3680   -2.0310 C   0  0  0  0  0  0  0  0  0  0  0  0
    1.7000   19.1420   -1.6890 C   0  0  2  0  0  0  0  0  0  0  0  0
    1.8280   19.6800   -0.3700 O   0  0  0  0  0  0  0  0  0  0  0  0
    0.4120   18.2750   -1.7780 C   0  0  0  0  0  0  0  0  0  0  0  0
    0.1090   17.9430   -3.2600 C   0  0  0  0  0  0  0  0  0  0  0  0
   -0.7770   19.1360   -1.2730 C   0  0  0  0  0  0  0  0  0  0  0  0
    2.0860   14.8260   -0.4570 C   0  0  1  0  0  0  0  0  0  0  0  0
    2.7470   15.1370    0.9210 C   0  0  0  0  0  0  0  0  0  0  0  0
    3.0880   13.8870   -1.2280 C   0  0  0  0  0  0  0  0  0  0  0  0
    2.4830   12.9430   -2.2840 C   0  0  0  0  0  0  0  0  0  0  0  0
    1.2840   12.1780   -1.7140 C   0  0  2  0  0  0  0  0  0  0  0  0
    1.8040   11.2850   -0.5360 C   0  0  0  0  0  0  0  0  0  0  0  0
    0.4724    8.9209   -1.2733 H   0  0  0  0  0  0  0  0  0  0  0  0
   -0.6703    8.8152   -2.6553 H   0  0  0  0  0  0  0  0  0  0  0  0
    0.8326    7.8313   -2.6553 H   0  0  0  0  0  0  0  0  0  0  0  0
    1.0477    9.7657   -4.1497 H   0  0  0  0  0  0  0  0  0  0  0  0
    2.7767   10.5339   -1.8005 H   0  0  0  0  0  0  0  0  0  0  0  0
    2.9473    8.8968   -2.5963 H   0  0  0  0  0  0  0  0  0  0  0  0
    3.5591    9.8462   -4.6649 H   0  0  0  0  0  0  0  0  0  0  0  0
    3.0760   11.5075   -4.1228 H   0  0  0  0  0  0  0  0  0  0  0  0
    4.6977   10.3006   -2.3786 H   0  0  0  0  0  0  0  0  0  0  0  0
    5.5722    9.5244   -5.8553 H   0  0  0  0  0  0  0  0  0  0  0  0
    5.3586   11.2804   -6.1672 H   0  0  0  0  0  0  0  0  0  0  0  0
    7.0050   10.5620   -6.1672 H   0  0  0  0  0  0  0  0  0  0  0  0
    7.3854   10.5870   -2.5278 H   0  0  0  0  0  0  0  0  0  0  0  0
    7.8659    9.5957   -3.9466 H   0  0  0  0  0  0  0  0  0  0  0  0
    8.1631   11.3672   -3.9466 H   0  0  0  0  0  0  0  0  0  0  0  0
    0.4720   11.7391   -3.6944 H   0  0  0  0  0  0  0  0  0  0  0  0
   -1.6832   11.1991   -2.7441 H   0  0  0  0  0  0  0  0  0  0  0  0
   -0.9626   10.1274   -1.5236 H   0  0  0  0  0  0  0  0  0  0  0  0
   -1.9535   12.7642   -1.0417 H   0  0  0  0  0  0  0  0  0  0  0  0
   -0.9154   11.8804    0.0738 H   0  0  0  0  0  0  0  0  0  0  0  0
   -0.9154   14.9464   -2.0961 H   0  0  0  0  0  0  0  0  0  0  0  0
    0.4728   14.4277   -3.1112 H   0  0  0  0  0  0  0  0  0  0  0  0
   -1.0470   13.4703   -3.1112 H   0  0  0  0  0  0  0  0  0  0  0  0
    0.9066   13.3701    0.6458 H   0  0  0  0  0  0  0  0  0  0  0  0
   -1.3133   14.6442    0.3476 H   0  0  0  0  0  0  0  0  0  0  0  0
   -0.0075   15.2599    1.4902 H   0  0  0  0  0  0  0  0  0  0  0  0
   -1.2201   17.0771    0.0177 H   0  0  0  0  0  0  0  0  0  0  0  0
    1.8173   15.8047   -2.3177 H   0  0  0  0  0  0  0  0  0  0  0  0
    3.1925   17.4472   -0.1028 H   0  0  0  0  0  0  0  0  0  0  0  0
    4.0020   16.5807   -1.4829 H   0  0  0  0  0  0  0  0  0  0  0  0
    3.8430   19.0194   -1.8721 H   0  0  0  0  0  0  0  0  0  0  0  0
    2.9159   18.0491   -3.0823 H   0  0  0  0  0  0  0  0  0  0  0  0
    1.5910   19.9430   -2.4350 H   0  0  0  0  0  0  0  0  0  0  0  0
    0.9320   19.8050   -0.0150 H   0  0  0  0  0  0  0  0  0  0  0  0
   -0.6318   17.1313   -3.3099 H   0  0  0  0  0  0  0  0  0  0  0  0
   -0.2916   18.8364   -3.7614 H   0  0  0  0  0  0  0  0  0  0  0  0
    1.0352   17.6255   -3.7614 H   0  0  0  0  0  0  0  0  0  0  0  0
   -0.7846   19.1415   -0.1730 H   0  0  0  0  0  0  0  0  0  0  0  0
   -0.6677   20.1657   -1.6441 H   0  0  0  0  0  0  0  0  0  0  0  0
   -1.7212   18.7108   -1.6441 H   0  0  0  0  0  0  0  0  0  0  0  0
    2.0733   14.8200    1.7307 H   0  0  0  0  0  0  0  0  0  0  0  0
    3.6993   14.5925    1.0021 H   0  0  0  0  0  0  0  0  0  0  0  0
    2.9346   16.2178    1.0021 H   0  0  0  0  0  0  0  0  0  0  0  0
    3.8212   14.5296   -1.7373 H   0  0  0  0  0  0  0  0  0  0  0  0
    3.5112   13.2244   -0.4586 H   0  0  0  0  0  0  0  0  0  0  0  0
    2.1528   13.5360   -3.1496 H   0  0  0  0  0  0  0  0  0  0  0  0
    3.2514   12.2159   -2.5855 H   0  0  0  0  0  0  0  0  0  0  0  0
    1.5334   11.7498    0.4235 H   0  0  0  0  0  0  0  0  0  0  0  0
    1.3457   10.2872   -0.6023 H   0  0  0  0  0  0  0  0  0  0  0  0
    2.8980   11.1911   -0.6023 H   0  0  0  0  0  0  0  0  0  0  0  0
  1  2  1  0
  2  3  1  0
  3  4  1  0
  4  5  1  0
  5  6  1  0
  6  7  1  0
  7  8  1  0
  7  9  1  0
  2 10  1  0
 10 11  1  0
 11 12  1  0
 12 13  1  0
 13 14  1  6
 13 15  1  0
 15 16  1  0
 16 17  1  0
 17 18  2  0
 18 19  1  0
 19 20  1  0
 20 21  1  0
 21 22  1  0
 22 23  1  0
 22 24  1  0
 24 25  1  0
 24 26  1  0
 19 27  1  0
 27 28  1  1
 27 29  1  0
 29 30  1  0
 30 31  1  0
 31 32  1  1
  7  5  1  0
 31 10  1  0
 31 13  1  0
 27 15  1  0
 24 18  1  0
  1 33  1  0
  1 34  1  0
  1 35  1  0
  2 36  1  6
  3 37  1  0
  3 38  1  0
  4 39  1  0
  4 40  1  0
  5 41  1  1
  8 42  1  0
  8 43  1  0
  8 44  1  0
  9 45  1  0
  9 46  1  0
  9 47  1  0
 10 48  1  6
 11 49  1  0
 11 50  1  0
 12 51  1  0
 12 52  1  0
 14 53  1  0
 14 54  1  0
 14 55  1  0
 15 56  1  1
 16 57  1  0
 16 58  1  0
 17 59  1  0
 19 60  1  6
 20 61  1  0
 20 62  1  0
 21 63  1  0
 21 64  1  0
 22 65  1  6
 23 66  1  0
 25 67  1  0
 25 68  1  0
 25 69  1  0
 26 70  1  0
 26 71  1  0
 26 72  1  0
 28 73  1  0
 28 74  1  0
 28 75  1  0
 29 76  1  0
 29 77  1  0
 30 78  1  0
 30 79  1  0
 32 80  1  0
 32 81  1  0
 32 82  1  0
M  END
>  <meeko>  (8) 
{"is_sidechain": [false], "intermolecular_energy": 2.731, "internal_energy": -0.839}

$$$$
EPH_relaxed_0001_pdb2pqr_Repair_12_r2_0001_out
     RDKit          3D

 82 86  0  0  0  0  0  0  0  0999 V2000
    2.4280   19.3360   -0.6880 C   0  0  0  0  0  0  0  0  0  0  0  0
    2.4270   18.4290   -1.9220 C   0  0  2  0  0  0  0  0  0  0  0  0
    1.0990   18.5090   -2.7010 C   0  0  0  0  0  0  0  0  0  0  0  0
    0.1950   19.6630   -2.2590 C   0  0  0  0  0  0  0  0  0  0  0  0
   -1.0600   19.1660   -1.6080 C   0  0  2  0  0  0  0  0  0  0  0  0
   -1.9780   20.1940   -1.2150 O   0  0  0  0  0  0  0  0  0  0  0  0
   -1.4030   19.4180   -0.1510 C   0  0  0  0  0  0  0  0  0  0  0  0
   -0.4880   20.1940    0.7430 C   0  0  0  0  0  0  0  0  0  0  0  0
   -2.3770   18.5030    0.5230 C   0  0  0  0  0  0  0  0  0  0  0  0
    2.7020   16.9880   -1.5070 C   0  0  1  0  0  0  0  0  0  0  0  0
    3.4710   16.8900   -0.1630 C   0  0  0  0  0  0  0  0  0  0  0  0
    2.9440   15.6250    0.5630 C   0  0  0  0  0  0  0  0  0  0  0  0
    2.1420   14.8620   -0.5170 C   0  0  1  0  0  0  0  0  0  0  0  0
    3.2170   14.0920   -1.3460 C   0  0  0  0  0  0  0  0  0  0  0  0
    1.0190   13.9060    0.0030 C   0  0  2  0  0  0  0  0  0  0  0  0
    1.5100   12.7380    0.8770 C   0  0  0  0  0  0  0  0  0  0  0  0
    1.8450   11.4850    0.1370 C   0  0  0  0  0  0  0  0  0  0  0  0
    1.4900   11.2070   -1.1310 C   0  0  0  0  0  0  0  0  0  0  0  0
    0.5890   12.1630   -1.9250 C   0  0  1  0  0  0  0  0  0  0  0  0
   -0.5270   11.3520   -2.6350 C   0  0  0  0  0  0  0  0  0  0  0  0
    0.0280   10.2230   -3.4970 C   0  0  0  0  0  0  0  0  0  0  0  0
    0.8700    9.2620   -2.6610 C   0  0  2  0  0  0  0  0  0  0  0  0
    0.0150    8.5860   -1.7350 O   0  0  0  0  0  0  0  0  0  0  0  0
    2.0220    9.9670   -1.8920 C   0  0  0  0  0  0  0  0  0  0  0  0
    3.1050   10.4390   -2.8930 C   0  0  0  0  0  0  0  0  0  0  0  0
    2.7030    8.9110   -0.9800 C   0  0  0  0  0  0  0  0  0  0  0  0
    0.0200   13.4080   -1.1180 C   0  0  1  0  0  0  0  0  0  0  0  0
   -1.3030   13.0140   -0.3930 C   0  0  0  0  0  0  0  0  0  0  0  0
   -0.3550   14.5510   -2.1350 C   0  0  0  0  0  0  0  0  0  0  0  0
    0.7670   15.5360   -2.5180 C   0  0  0  0  0  0  0  0  0  0  0  0
    1.4760   16.0710   -1.2700 C   0  0  2  0  0  0  0  0  0  0  0  0
    0.4240   16.8700   -0.4280 C   0  0  0  0  0  0  0  0  0  0  0  0
    2.4273   18.7175    0.2217 H   0  0  0  0  0  0  0  0  0  0  0  0
    3.3268   19.9700   -0.6997 H   0  0  0  0  0  0  0  0  0  0  0  0
    1.5306   19.9720   -0.6997 H   0  0  0  0  0  0  0  0  0  0  0  0
    3.2241   18.7817   -2.5930 H   0  0  0  0  0  0  0  0  0  0  0  0
    1.3299   18.6380   -3.7687 H   0  0  0  0  0  0  0  0  0  0  0  0
    0.5515   17.5764   -2.4998 H   0  0  0  0  0  0  0  0  0  0  0  0
    0.7438   20.2912   -1.5420 H   0  0  0  0  0  0  0  0  0  0  0  0
   -0.0872   20.2391   -3.1526 H   0  0  0  0  0  0  0  0  0  0  0  0
   -1.0380   18.2474   -2.2127 H   0  0  0  0  0  0  0  0  0  0  0  0
   -0.7364   19.9834    1.7937 H   0  0  0  0  0  0  0  0  0  0  0  0
    0.5535   19.8996    0.5463 H   0  0  0  0  0  0  0  0  0  0  0  0
   -0.6084   21.2696    0.5463 H   0  0  0  0  0  0  0  0  0  0  0  0
   -2.2752   18.5986    1.6141 H   0  0  0  0  0  0  0  0  0  0  0  0
   -3.4008   18.7736    0.2251 H   0  0  0  0  0  0  0  0  0  0  0  0
   -2.1709   17.4644    0.2251 H   0  0  0  0  0  0  0  0  0  0  0  0
    3.2638   16.6456   -2.3885 H   0  0  0  0  0  0  0  0  0  0  0  0
    4.5509   16.7969   -0.3504 H   0  0  0  0  0  0  0  0  0  0  0  0
    3.3136   17.7907    0.4486 H   0  0  0  0  0  0  0  0  0  0  0  0
    3.7798   15.0121    0.9316 H   0  0  0  0  0  0  0  0  0  0  0  0
    2.3301   15.8731    1.4414 H   0  0  0  0  0  0  0  0  0  0  0  0
    3.9174   13.5903   -0.6621 H   0  0  0  0  0  0  0  0  0  0  0  0
    2.7226   13.3413   -1.9801 H   0  0  0  0  0  0  0  0  0  0  0  0
    3.7686   14.8016   -1.9801 H   0  0  0  0  0  0  0  0  0  0  0  0
    0.4441   14.5613    0.6739 H   0  0  0  0  0  0  0  0  0  0  0  0
    2.4129   13.0691    1.4110 H   0  0  0  0  0  0  0  0  0  0  0  0
    0.6727   12.4834    1.5434 H   0  0  0  0  0  0  0  0  0  0  0  0
    2.4316   10.7249    0.6737 H   0  0  0  0  0  0  0  0  0  0  0  0
    1.2367   12.6412   -2.6746 H   0  0  0  0  0  0  0  0  0  0  0  0
   -1.1889   10.9191   -1.8705 H   0  0  0  0  0  0  0  0  0  0  0  0
   -1.0703   12.0416   -3.2978 H   0  0  0  0  0  0  0  0  0  0  0  0
   -0.8089    9.6696   -3.9479 H   0  0  0  0  0  0  0  0  0  0  0  0
    0.6662   10.6596   -4.2794 H   0  0  0  0  0  0  0  0  0  0  0  0
    1.3451    8.5514   -3.3534 H   0  0  0  0  0  0  0  0  0  0  0  0
   -0.8420    8.4490   -2.1720 H   0  0  0  0  0  0  0  0  0  0  0  0
    3.9760   10.8186   -2.3388 H   0  0  0  0  0  0  0  0  0  0  0  0
    3.4130    9.5935   -3.5257 H   0  0  0  0  0  0  0  0  0  0  0  0
    2.6953   11.2402   -3.5257 H   0  0  0  0  0  0  0  0  0  0  0  0
    2.5337    9.1736    0.0747 H   0  0  0  0  0  0  0  0  0  0  0  0
    2.2741    7.9189   -1.1843 H   0  0  0  0  0  0  0  0  0  0  0  0
    3.7837    8.8924   -1.1843 H   0  0  0  0  0  0  0  0  0  0  0  0
   -1.1520   13.0590    0.6957 H   0  0  0  0  0  0  0  0  0  0  0  0
   -2.1015   13.7133   -0.6816 H   0  0  0  0  0  0  0  0  0  0  0  0
   -1.5888   11.9917   -0.6816 H   0  0  0  0  0  0  0  0  0  0  0  0
   -0.7067   14.0711   -3.0602 H   0  0  0  0  0  0  0  0  0  0  0  0
   -1.1093   15.1613   -1.6168 H   0  0  0  0  0  0  0  0  0  0  0  0
    1.4997   15.0174   -3.1537 H   0  0  0  0  0  0  0  0  0  0  0  0
    0.3204   16.3837   -3.0584 H   0  0  0  0  0  0  0  0  0  0  0  0
    0.6217   16.7199    0.6436 H   0  0  0  0  0  0  0  0  0  0  0  0
    0.4990   17.9408   -0.6682 H   0  0  0  0  0  0  0  0  0  0  0  0
   -0.5874   16.5104   -0.6682 H   0  0  0  0  0  0  0  0  0  0  0  0
  1  2  1  0
  2  3  1  0
  3  4  1  0
  4  5  1  0
  5  6  1  0
  6  7  1  0
  7  8  1  0
  7  9  1  0
  2 10  1  0
 10 11  1  0
 11 12  1  0
 12 13  1  0
 13 14  1  6
 13 15  1  0
 15 16  1  0
 16 17  1  0
 17 18  2  0
 18 19  1  0
 19 20  1  0
 20 21  1  0
 21 22  1  0
 22 23  1  0
 22 24  1  0
 24 25  1  0
 24 26  1  0
 19 27  1  0
 27 28  1  1
 27 29  1  0
 29 30  1  0
 30 31  1  0
 31 32  1  1
  7  5  1  0
 31 10  1  0
 31 13  1  0
 27 15  1  0
 24 18  1  0
  1 33  1  0
  1 34  1  0
  1 35  1  0
  2 36  1  6
  3 37  1  0
  3 38  1  0
  4 39  1  0
  4 40  1  0
  5 41  1  6
  8 42  1  0
  8 43  1  0
  8 44  1  0
  9 45  1  0
  9 46  1  0
  9 47  1  0
 10 48  1  6
 11 49  1  0
 11 50  1  0
 12 51  1  0
 12 52  1  0
 14 53  1  0
 14 54  1  0
 14 55  1  0
 15 56  1  1
 16 57  1  0
 16 58  1  0
 17 59  1  0
 19 60  1  6
 20 61  1  0
 20 62  1  0
 21 63  1  0
 21 64  1  0
 22 65  1  6
 23 66  1  0
 25 67  1  0
 25 68  1  0
 25 69  1  0
 26 70  1  0
 26 71  1  0
 26 72  1  0
 28 73  1  0
 28 74  1  0
 28 75  1  0
 29 76  1  0
 29 77  1  0
 30 78  1  0
 30 79  1  0
 32 80  1  0
 32 81  1  0
 32 82  1  0
M  END
>  <meeko>  (9) 
{"is_sidechain": [false], "intermolecular_energy": 2.731, "internal_energy": -0.839}

$$$$
EPH_relaxed_0001_pdb2pqr_Repair_12_r2_0001_out
     RDKit          3D

 82 86  0  0  0  0  0  0  0  0999 V2000
   -1.2090   16.4170   -5.8830 C   0  0  0  0  0  0  0  0  0  0  0  0
   -0.0100   15.7070   -6.5180 C   0  0  2  0  0  0  0  0  0  0  0  0
   -0.2650   15.3470   -7.9960 C   0  0  0  0  0  0  0  0  0  0  0  0
    0.3250   16.3550   -8.9860 C   0  0  0  0  0  0  0  0  0  0  0  0
    1.7470   16.0290   -9.3270 C   0  0  2  0  0  0  0  0  0  0  0  0
    2.2530   16.7010  -10.4880 O   0  0  0  0  0  0  0  0  0  0  0  0
    2.1560   15.2700  -10.5750 C   0  0  0  0  0  0  0  0  0  0  0  0
    1.1400   14.7890  -11.5630 C   0  0  0  0  0  0  0  0  0  0  0  0
    3.4810   14.5750  -10.5890 C   0  0  0  0  0  0  0  0  0  0  0  0
    0.3280   14.4500   -5.7260 C   0  0  1  0  0  0  0  0  0  0  0  0
    1.3500   13.5400   -6.4580 C   0  0  0  0  0  0  0  0  0  0  0  0
    2.2400   12.8950   -5.3640 C   0  0  0  0  0  0  0  0  0  0  0  0
    1.5000   13.1880   -4.0380 C   0  0  1  0  0  0  0  0  0  0  0  0
    0.3860   12.0990   -3.9510 C   0  0  0  0  0  0  0  0  0  0  0  0
    2.3810   13.2170   -2.7460 C   0  0  2  0  0  0  0  0  0  0  0  0
    3.0760   11.8880   -2.4010 C   0  0  0  0  0  0  0  0  0  0  0  0
    2.2990   10.9740   -1.5120 C   0  0  0  0  0  0  0  0  0  0  0  0
    1.2230   11.3220   -0.7820 C   0  0  0  0  0  0  0  0  0  0  0  0
    0.7430   12.7780   -0.7300 C   0  0  1  0  0  0  0  0  0  0  0  0
    0.4560   13.1760    0.7410 C   0  0  0  0  0  0  0  0  0  0  0  0
   -0.5110   12.2180    1.4290 C   0  0  0  0  0  0  0  0  0  0  0  0
    0.0280   10.7900    1.4080 C   0  0  2  0  0  0  0  0  0  0  0  0
    1.2000   10.7290    2.2280 O   0  0  0  0  0  0  0  0  0  0  0  0
    0.3630   10.2820   -0.0220 C   0  0  0  0  0  0  0  0  0  0  0  0
   -0.9480   10.0630   -0.8160 C   0  0  0  0  0  0  0  0  0  0  0  0
    1.0290    8.8860    0.1110 C   0  0  0  0  0  0  0  0  0  0  0  0
    1.6590   13.8370   -1.4820 C   0  0  1  0  0  0  0  0  0  0  0  0
    2.7860   14.3390   -0.5280 C   0  0  0  0  0  0  0  0  0  0  0  0
    0.7920   15.0990   -1.8480 C   0  0  0  0  0  0  0  0  0  0  0  0
    0.0400   15.0590   -3.1920 C   0  0  0  0  0  0  0  0  0  0  0  0
    0.9740   14.6410   -4.3310 C   0  0  2  0  0  0  0  0  0  0  0  0
    2.0930   15.7300   -4.4570 C   0  0  0  0  0  0  0  0  0  0  0  0
   -1.1260   16.3679   -4.7872 H   0  0  0  0  0  0  0  0  0  0  0  0
   -1.2235   17.4694   -6.2028 H   0  0  0  0  0  0  0  0  0  0  0  0
   -2.1387   15.9238   -6.2028 H   0  0  0  0  0  0  0  0  0  0  0  0
    0.8409   16.4036   -6.4902 H   0  0  0  0  0  0  0  0  0  0  0  0
    0.1821   14.3620   -8.1955 H   0  0  0  0  0  0  0  0  0  0  0  0
   -1.3549   15.3513   -8.1443 H   0  0  0  0  0  0  0  0  0  0  0  0
   -0.2747   16.3420   -9.9080 H   0  0  0  0  0  0  0  0  0  0  0  0
    0.3042   17.3495   -8.5164 H   0  0  0  0  0  0  0  0  0  0  0  0
    1.9940   15.8884   -8.2644 H   0  0  0  0  0  0  0  0  0  0  0  0
    0.2723   14.3782  -11.0261 H   0  0  0  0  0  0  0  0  0  0  0  0
    0.8162   15.6294  -12.1946 H   0  0  0  0  0  0  0  0  0  0  0  0
    1.5848   14.0059  -12.1946 H   0  0  0  0  0  0  0  0  0  0  0  0
    3.8143   14.4002   -9.5554 H   0  0  0  0  0  0  0  0  0  0  0  0
    3.3842   13.6116  -11.1110 H   0  0  0  0  0  0  0  0  0  0  0  0
    4.2186   15.2023  -11.1110 H   0  0  0  0  0  0  0  0  0  0  0  0
   -0.6799   14.0227   -5.6186 H   0  0  0  0  0  0  0  0  0  0  0  0
    0.8229   12.7594   -7.0262 H   0  0  0  0  0  0  0  0  0  0  0  0
    1.9567   14.1202   -7.1688 H   0  0  0  0  0  0  0  0  0  0  0  0
    2.3313   11.8109   -5.5267 H   0  0  0  0  0  0  0  0  0  0  0  0
    3.2641   13.2966   -5.3683 H   0  0  0  0  0  0  0  0  0  0  0  0
    0.1656   11.8835   -2.8951 H   0  0  0  0  0  0  0  0  0  0  0  0
   -0.5243   12.4651   -4.4483 H   0  0  0  0  0  0  0  0  0  0  0  0
    0.7314   11.1806   -4.4483 H   0  0  0  0  0  0  0  0  0  0  0  0
    3.1864   13.9122   -3.0254 H   0  0  0  0  0  0  0  0  0  0  0  0
    3.2783   11.3558   -3.3422 H   0  0  0  0  0  0  0  0  0  0  0  0
    3.9849   12.1559   -1.8423 H   0  0  0  0  0  0  0  0  0  0  0  0
    2.6341    9.9282   -1.4483 H   0  0  0  0  0  0  0  0  0  0  0  0
   -0.1885   12.8127   -1.3141 H   0  0  0  0  0  0  0  0  0  0  0  0
    1.4051   13.1784    1.2971 H   0  0  0  0  0  0  0  0  0  0  0  0
   -0.0110   14.1719    0.7320 H   0  0  0  0  0  0  0  0  0  0  0  0
   -0.6499   12.5350    2.4731 H   0  0  0  0  0  0  0  0  0  0  0  0
   -1.4695   12.2394    0.8897 H   0  0  0  0  0  0  0  0  0  0  0  0
   -0.7637   10.1321    1.7958 H   0  0  0  0  0  0  0  0  0  0  0  0
    1.9710   10.7040    1.6360 H   0  0  0  0  0  0  0  0  0  0  0  0
   -1.7831    9.9235   -0.1137 H   0  0  0  0  0  0  0  0  0  0  0  0
   -1.1442   10.9408   -1.4492 H   0  0  0  0  0  0  0  0  0  0  0  0
   -0.8482    9.1691   -1.4492 H   0  0  0  0  0  0  0  0  0  0  0  0
    1.1480    8.6365    1.1757 H   0  0  0  0  0  0  0  0  0  0  0  0
    0.3948    8.1295   -0.3742 H   0  0  0  0  0  0  0  0  0  0  0  0
    2.0161    8.9029   -0.3742 H   0  0  0  0  0  0  0  0  0  0  0  0
    2.4715   14.1989    0.5167 H   0  0  0  0  0  0  0  0  0  0  0  0
    3.7062   13.7657   -0.7139 H   0  0  0  0  0  0  0  0  0  0  0  0
    2.9753   15.4065   -0.7139 H   0  0  0  0  0  0  0  0  0  0  0  0
    0.0443   15.2313   -1.0521 H   0  0  0  0  0  0  0  0  0  0  0  0
    1.5123   15.9246   -1.9456 H   0  0  0  0  0  0  0  0  0  0  0  0
   -0.7861   14.3362   -3.1206 H   0  0  0  0  0  0  0  0  0  0  0  0
   -0.3466   16.0660   -3.4074 H   0  0  0  0  0  0  0  0  0  0  0  0
    2.4147   16.0431   -3.4528 H   0  0  0  0  0  0  0  0  0  0  0  0
    2.9514   15.3122   -5.0034 H   0  0  0  0  0  0  0  0  0  0  0  0
    1.6986   16.5995   -5.0034 H   0  0  0  0  0  0  0  0  0  0  0  0
  1  2  1  0
  2  3  1  0
  3  4  1  0
  4  5  1  0
  5  6  1  0
  6  7  1  0
  7  8  1  0
  7  9  1  0
  2 10  1  0
 10 11  1  0
 11 12  1  0
 12 13  1  0
 13 14  1  1
 13 15  1  0
 15 16  1  0
 16 17  1  0
 17 18  2  0
 18 19  1  0
 19 20  1  0
 20 21  1  0
 21 22  1  0
 22 23  1  0
 22 24  1  0
 24 25  1  0
 24 26  1  0
 19 27  1  0
 27 28  1  1
 27 29  1  0
 29 30  1  0
 30 31  1  0
 31 32  1  6
  7  5  1  0
 31 10  1  0
 31 13  1  0
 27 15  1  0
 24 18  1  0
  1 33  1  0
  1 34  1  0
  1 35  1  0
  2 36  1  6
  3 37  1  0
  3 38  1  0
  4 39  1  0
  4 40  1  0
  5 41  1  1
  8 42  1  0
  8 43  1  0
  8 44  1  0
  9 45  1  0
  9 46  1  0
  9 47  1  0
 10 48  1  1
 11 49  1  0
 11 50  1  0
 12 51  1  0
 12 52  1  0
 14 53  1  0
 14 54  1  0
 14 55  1  0
 15 56  1  6
 16 57  1  0
 16 58  1  0
 17 59  1  0
 19 60  1  6
 20 61  1  0
 20 62  1  0
 21 63  1  0
 21 64  1  0
 22 65  1  1
 23 66  1  0
 25 67  1  0
 25 68  1  0
 25 69  1  0
 26 70  1  0
 26 71  1  0
 26 72  1  0
 28 73  1  0
 28 74  1  0
 28 75  1  0
 29 76  1  0
 29 77  1  0
 30 78  1  0
 30 79  1  0
 32 80  1  0
 32 81  1  0
 32 82  1  0
M  END
>  <meeko>  (10) 
{"is_sidechain": [false], "intermolecular_energy": 2.731, "internal_energy": -0.839}

$$$$
EPH_relaxed_0001_pdb2pqr_Repair_12_r2_0001_out
     RDKit          3D

 82 86  0  0  0  0  0  0  0  0999 V2000
   -0.0170    9.3080   -2.2680 C   0  0  0  0  0  0  0  0  0  0  0  0
    1.0430   10.3070   -2.7400 C   0  0  2  0  0  0  0  0  0  0  0  0
    2.4430    9.6690   -2.8300 C   0  0  0  0  0  0  0  0  0  0  0  0
    3.3710   10.3580   -3.8340 C   0  0  0  0  0  0  0  0  0  0  0  0
    4.7580   10.5160   -3.2890 C   0  0  2  0  0  0  0  0  0  0  0  0
    5.3470   11.8040   -3.5140 O   0  0  0  0  0  0  0  0  0  0  0  0
    5.9850   10.6930   -4.1640 C   0  0  0  0  0  0  0  0  0  0  0  0
    5.8820   10.7200   -5.6570 C   0  0  0  0  0  0  0  0  0  0  0  0
    7.3260   10.3500   -3.5940 C   0  0  0  0  0  0  0  0  0  0  0  0
    1.0770   11.5100   -1.8040 C   0  0  1  0  0  0  0  0  0  0  0  0
    2.1440   11.3660   -0.6860 C   0  0  0  0  0  0  0  0  0  0  0  0
    2.7050   12.7860   -0.4180 C   0  0  0  0  0  0  0  0  0  0  0  0
    1.7230   13.7370   -1.1420 C   0  0  1  0  0  0  0  0  0  0  0  0
    0.5180   13.8900   -0.1610 C   0  0  0  0  0  0  0  0  0  0  0  0
    2.2960   15.1250   -1.5730 C   0  0  2  0  0  0  0  0  0  0  0  0
    2.7680   16.0240   -0.4170 C   0  0  0  0  0  0  0  0  0  0  0  0
    1.7310   16.9420    0.1410 C   0  0  0  0  0  0  0  0  0  0  0  0
    0.5590   17.2470   -0.4450 C   0  0  0  0  0  0  0  0  0  0  0  0
    0.2200   16.7240   -1.8470 C   0  0  1  0  0  0  0  0  0  0  0  0
   -0.3440   17.8830   -2.7100 C   0  0  0  0  0  0  0  0  0  0  0  0
   -1.5260   18.5840   -2.0470 C   0  0  0  0  0  0  0  0  0  0  0  0
   -1.1340   19.1400   -0.6810 C   0  0  2  0  0  0  0  0  0  0  0  0
   -0.1830   20.1930   -0.8680 O   0  0  0  0  0  0  0  0  0  0  0  0
   -0.5430   18.0650    0.2720 C   0  0  0  0  0  0  0  0  0  0  0  0
   -1.6610   17.0890    0.7150 C   0  0  0  0  0  0  0  0  0  0  0  0
   -0.0580   18.7830    1.5610 C   0  0  0  0  0  0  0  0  0  0  0  0
    1.3760   15.9210   -2.5860 C   0  0  1  0  0  0  0  0  0  0  0  0
    2.3070   16.9100   -3.3510 C   0  0  0  0  0  0  0  0  0  0  0  0
    0.7350   14.9820   -3.6750 C   0  0  0  0  0  0  0  0  0  0  0  0
    0.2970   13.5790   -3.2130 C   0  0  0  0  0  0  0  0  0  0  0  0
    1.4150   12.8870   -2.4280 C   0  0  2  0  0  0  0  0  0  0  0  0
    2.6330   12.6980   -3.3960 C   0  0  0  0  0  0  0  0  0  0  0  0
   -0.0382    9.2880   -1.1684 H   0  0  0  0  0  0  0  0  0  0  0  0
   -1.0032    9.6127   -2.6483 H   0  0  0  0  0  0  0  0  0  0  0  0
    0.2288    8.3055   -2.6483 H   0  0  0  0  0  0  0  0  0  0  0  0
    0.7634   10.6323   -3.7529 H   0  0  0  0  0  0  0  0  0  0  0  0
    2.9108    9.7168   -1.8356 H   0  0  0  0  0  0  0  0  0  0  0  0
    2.3029    8.6354   -3.1793 H   0  0  0  0  0  0  0  0  0  0  0  0
    3.4154    9.7531   -4.7517 H   0  0  0  0  0  0  0  0  0  0  0  0
    2.9680   11.3602   -4.0415 H   0  0  0  0  0  0  0  0  0  0  0  0
    4.5359    9.8285   -2.4595 H   0  0  0  0  0  0  0  0  0  0  0  0
    4.8561   10.9889   -5.9490 H   0  0  0  0  0  0  0  0  0  0  0  0
    6.5848   11.4642   -6.0596 H   0  0  0  0  0  0  0  0  0  0  0  0
    6.1294    9.7267   -6.0596 H   0  0  0  0  0  0  0  0  0  0  0  0
    7.2719   10.3638   -2.4954 H   0  0  0  0  0  0  0  0  0  0  0  0
    7.6232    9.3469   -3.9339 H   0  0  0  0  0  0  0  0  0  0  0  0
    8.0683   11.0872   -3.9339 H   0  0  0  0  0  0  0  0  0  0  0  0
    0.0342   11.5017   -1.4540 H   0  0  0  0  0  0  0  0  0  0  0  0
    1.6833   10.9620    0.2276 H   0  0  0  0  0  0  0  0  0  0  0  0
    2.9446   10.6759   -0.9905 H   0  0  0  0  0  0  0  0  0  0  0  0
    2.7261   12.9978    0.6612 H   0  0  0  0  0  0  0  0  0  0  0  0
    3.7382   12.9009   -0.7775 H   0  0  0  0  0  0  0  0  0  0  0  0
    0.8814   13.8439    0.8762 H   0  0  0  0  0  0  0  0  0  0  0  0
    0.0249   14.8580   -0.3340 H   0  0  0  0  0  0  0  0  0  0  0  0
   -0.2013   13.0760   -0.3340 H   0  0  0  0  0  0  0  0  0  0  0  0
    3.2061   14.8430   -2.1228 H   0  0  0  0  0  0  0  0  0  0  0  0
    3.1201   15.3738    0.3974 H   0  0  0  0  0  0  0  0  0  0  0  0
    3.5536   16.6705   -0.8353 H   0  0  0  0  0  0  0  0  0  0  0  0
    1.9434   17.4087    1.1142 H   0  0  0  0  0  0  0  0  0  0  0  0
   -0.5524   15.9537   -1.7050 H   0  0  0  0  0  0  0  0  0  0  0  0
    0.4553   18.6202   -2.8762 H   0  0  0  0  0  0  0  0  0  0  0  0
   -0.6999   17.4516   -3.6572 H   0  0  0  0  0  0  0  0  0  0  0  0
   -1.8606   19.4114   -2.6899 H   0  0  0  0  0  0  0  0  0  0  0  0
   -2.3358   17.8524   -1.9091 H   0  0  0  0  0  0  0  0  0  0  0  0
   -2.0509   19.5130   -0.2013 H   0  0  0  0  0  0  0  0  0  0  0  0
   -0.6750   20.9910   -1.1260 H   0  0  0  0  0  0  0  0  0  0  0  0
   -1.7022   17.0530    1.8136 H   0  0  0  0  0  0  0  0  0  0  0  0
   -2.6281   17.4370    0.3230 H   0  0  0  0  0  0  0  0  0  0  0  0
   -1.4468   16.0838    0.3230 H   0  0  0  0  0  0  0  0  0  0  0  0
   -0.4253   18.2393    2.4439 H   0  0  0  0  0  0  0  0  0  0  0  0
    1.0416   18.8064    1.5760 H   0  0  0  0  0  0  0  0  0  0  0  0
   -0.4469   19.8119    1.5760 H   0  0  0  0  0  0  0  0  0  0  0  0
    2.8748   17.5132   -2.6273 H   0  0  0  0  0  0  0  0  0  0  0  0
    3.0055   16.3417   -3.9828 H   0  0  0  0  0  0  0  0  0  0  0  0
    1.6976   17.5730   -3.9828 H   0  0  0  0  0  0  0  0  0  0  0  0
   -0.1536   15.4933   -4.0737 H   0  0  0  0  0  0  0  0  0  0  0  0
    1.5347   14.8061   -4.4095 H   0  0  0  0  0  0  0  0  0  0  0  0
   -0.5900   13.6727   -2.5692 H   0  0  0  0  0  0  0  0  0  0  0  0
    0.0654   12.9734   -4.1016 H   0  0  0  0  0  0  0  0  0  0  0  0
    3.5509   12.5556   -2.8068 H   0  0  0  0  0  0  0  0  0  0  0  0
    2.4638   11.8154   -4.0303 H   0  0  0  0  0  0  0  0  0  0  0  0
    2.7392   13.5904   -4.0303 H   0  0  0  0  0  0  0  0  0  0  0  0
  1  2  1  0
  2  3  1  0
  3  4  1  0
  4  5  1  0
  5  6  1  0
  6  7  1  0
  7  8  1  0
  7  9  1  0
  2 10  1  0
 10 11  1  0
 11 12  1  0
 12 13  1  0
 13 14  1  1
 13 15  1  0
 15 16  1  0
 16 17  1  0
 17 18  2  0
 18 19  1  0
 19 20  1  0
 20 21  1  0
 21 22  1  0
 22 23  1  0
 22 24  1  0
 24 25  1  0
 24 26  1  0
 19 27  1  0
 27 28  1  6
 27 29  1  0
 29 30  1  0
 30 31  1  0
 31 32  1  6
  7  5  1  0
 31 10  1  0
 31 13  1  0
 27 15  1  0
 24 18  1  0
  1 33  1  0
  1 34  1  0
  1 35  1  0
  2 36  1  6
  3 37  1  0
  3 38  1  0
  4 39  1  0
  4 40  1  0
  5 41  1  1
  8 42  1  0
  8 43  1  0
  8 44  1  0
  9 45  1  0
  9 46  1  0
  9 47  1  0
 10 48  1  1
 11 49  1  0
 11 50  1  0
 12 51  1  0
 12 52  1  0
 14 53  1  0
 14 54  1  0
 14 55  1  0
 15 56  1  6
 16 57  1  0
 16 58  1  0
 17 59  1  0
 19 60  1  1
 20 61  1  0
 20 62  1  0
 21 63  1  0
 21 64  1  0
 22 65  1  1
 23 66  1  0
 25 67  1  0
 25 68  1  0
 25 69  1  0
 26 70  1  0
 26 71  1  0
 26 72  1  0
 28 73  1  0
 28 74  1  0
 28 75  1  0
 29 76  1  0
 29 77  1  0
 30 78  1  0
 30 79  1  0
 32 80  1  0
 32 81  1  0
 32 82  1  0
M  END
>  <meeko>  (11) 
{"is_sidechain": [false], "intermolecular_energy": 2.731, "internal_energy": -0.839}

$$$$
EPH_relaxed_0001_pdb2pqr_Repair_12_r2_0001_out
     RDKit          3D

 82 86  0  0  0  0  0  0  0  0999 V2000
   -4.0660    7.3670   -3.6880 C   0  0  0  0  0  0  0  0  0  0  0  0
   -3.6550    7.2580   -2.2170 C   0  0  2  0  0  0  0  0  0  0  0  0
   -4.8090    6.7520   -1.3280 C   0  0  0  0  0  0  0  0  0  0  0  0
   -6.1300    6.5660   -2.0800 C   0  0  0  0  0  0  0  0  0  0  0  0
   -7.2820    6.3830   -1.1390 C   0  0  2  0  0  0  0  0  0  0  0  0
   -8.3780    5.6310   -1.6750 O   0  0  0  0  0  0  0  0  0  0  0  0
   -8.6480    7.0060   -1.3580 C   0  0  0  0  0  0  0  0  0  0  0  0
   -8.9330    7.8620   -2.5530 C   0  0  0  0  0  0  0  0  0  0  0  0
   -9.5490    7.1870   -0.1770 C   0  0  0  0  0  0  0  0  0  0  0  0
   -3.1640    8.6100   -1.7140 C   0  0  1  0  0  0  0  0  0  0  0  0
   -3.8770    9.0570   -0.4100 C   0  0  0  0  0  0  0  0  0  0  0  0
   -2.8270    9.8240    0.4340 C   0  0  0  0  0  0  0  0  0  0  0  0
   -1.6550   10.0800   -0.5410 C   0  0  1  0  0  0  0  0  0  0  0  0
   -2.0880   11.3310   -1.3680 C   0  0  0  0  0  0  0  0  0  0  0  0
   -0.2460   10.2770    0.1080 C   0  0  2  0  0  0  0  0  0  0  0  0
   -0.1200   11.4970    1.0370 C   0  0  0  0  0  0  0  0  0  0  0  0
    0.3190   12.7610    0.3740 C   0  0  0  0  0  0  0  0  0  0  0  0
    0.8740   12.8500   -0.8490 C   0  0  0  0  0  0  0  0  0  0  0  0
    1.2000   11.5900   -1.6600 C   0  0  1  0  0  0  0  0  0  0  0  0
    2.6310   11.7070   -2.2460 C   0  0  0  0  0  0  0  0  0  0  0  0
    2.8300   12.9870   -3.0530 C   0  0  0  0  0  0  0  0  0  0  0  0
    2.5530   14.2200   -2.1960 C   0  0  2  0  0  0  0  0  0  0  0  0
    3.5530   14.3070   -1.1770 O   0  0  0  0  0  0  0  0  0  0  0  0
    1.1420   14.2080   -1.5440 C   0  0  0  0  0  0  0  0  0  0  0  0
    0.0620   14.4170   -2.6350 C   0  0  0  0  0  0  0  0  0  0  0  0
    1.0440   15.4340   -0.5960 C   0  0  0  0  0  0  0  0  0  0  0  0
    0.9570   10.2050   -0.9180 C   0  0  1  0  0  0  0  0  0  0  0  0
    2.2220    9.8130   -0.0940 C   0  0  0  0  0  0  0  0  0  0  0  0
    0.7580    9.0730   -1.9930 C   0  0  0  0  0  0  0  0  0  0  0  0
   -0.6760    8.8470   -2.5080 C   0  0  0  0  0  0  0  0  0  0  0  0
   -1.6640    8.7290   -1.3440 C   0  0  2  0  0  0  0  0  0  0  0  0
   -1.2670    7.4660   -0.5060 C   0  0  0  0  0  0  0  0  0  0  0  0
   -5.1274    7.6485   -3.7522 H   0  0  0  0  0  0  0  0  0  0  0  0
   -3.4527    8.1335   -4.1842 H   0  0  0  0  0  0  0  0  0  0  0  0
   -3.9131    6.3973   -4.1842 H   0  0  0  0  0  0  0  0  0  0  0  0
   -2.8418    6.5200   -2.1537 H   0  0  0  0  0  0  0  0  0  0  0  0
   -4.5159    5.7836   -0.8964 H   0  0  0  0  0  0  0  0  0  0  0  0
   -4.9823    7.5192   -0.5590 H   0  0  0  0  0  0  0  0  0  0  0  0
   -6.3148    7.4547   -2.7013 H   0  0  0  0  0  0  0  0  0  0  0  0
   -6.0470    5.6617   -2.7007 H   0  0  0  0  0  0  0  0  0  0  0  0
   -6.6044    6.3769   -0.2725 H   0  0  0  0  0  0  0  0  0  0  0  0
   -9.2643    8.8569   -2.2207 H   0  0  0  0  0  0  0  0  0  0  0  0
   -8.0199    7.9627   -3.1581 H   0  0  0  0  0  0  0  0  0  0  0  0
   -9.7242    7.3952   -3.1581 H   0  0  0  0  0  0  0  0  0  0  0  0
   -8.9673    7.0701    0.7493 H   0  0  0  0  0  0  0  0  0  0  0  0
   -9.9941    8.1925   -0.2061 H   0  0  0  0  0  0  0  0  0  0  0  0
  -10.3479    6.4314   -0.2061 H   0  0  0  0  0  0  0  0  0  0  0  0
   -3.3840    9.2266   -2.5979 H   0  0  0  0  0  0  0  0  0  0  0  0
   -4.7252    9.7154   -0.6488 H   0  0  0  0  0  0  0  0  0  0  0  0
   -4.2704    8.1905    0.1418 H   0  0  0  0  0  0  0  0  0  0  0  0
   -3.2423   10.7745    0.8002 H   0  0  0  0  0  0  0  0  0  0  0  0
   -2.5135    9.2587    1.3240 H   0  0  0  0  0  0  0  0  0  0  0  0
   -2.3694   12.1441   -0.6827 H   0  0  0  0  0  0  0  0  0  0  0  0
   -1.2511   11.6590   -2.0021 H   0  0  0  0  0  0  0  0  0  0  0  0
   -2.9486   11.0715   -2.0021 H   0  0  0  0  0  0  0  0  0  0  0  0
   -0.1622    9.3951    0.7601 H   0  0  0  0  0  0  0  0  0  0  0  0
   -1.1032   11.6777    1.4960 H   0  0  0  0  0  0  0  0  0  0  0  0
    0.6662   11.2458    1.7642 H   0  0  0  0  0  0  0  0  0  0  0  0
    0.1768   13.6982    0.9321 H   0  0  0  0  0  0  0  0  0  0  0  0
    0.4634   11.5557   -2.4763 H   0  0  0  0  0  0  0  0  0  0  0  0
    3.3536   11.6971   -1.4167 H   0  0  0  0  0  0  0  0  0  0  0  0
    2.7839   10.8562   -2.9263 H   0  0  0  0  0  0  0  0  0  0  0  0
    3.8677   13.0263   -3.4159 H   0  0  0  0  0  0  0  0  0  0  0  0
    2.1271   12.9819   -3.8991 H   0  0  0  0  0  0  0  0  0  0  0  0
    2.5846   15.0970   -2.8593 H   0  0  0  0  0  0  0  0  0  0  0  0
    3.9760   13.4350   -1.1040 H   0  0  0  0  0  0  0  0  0  0  0  0
   -0.9106   14.6052   -2.1568 H   0  0  0  0  0  0  0  0  0  0  0  0
    0.3355   15.2789   -3.2614 H   0  0  0  0  0  0  0  0  0  0  0  0
   -0.0057   13.5153   -3.2614 H   0  0  0  0  0  0  0  0  0  0  0  0
    1.0713   15.0924    0.4492 H   0  0  0  0  0  0  0  0  0  0  0  0
    1.8909   16.1106   -0.7829 H   0  0  0  0  0  0  0  0  0  0  0  0
    0.1003   15.9675   -0.7829 H   0  0  0  0  0  0  0  0  0  0  0  0
    1.9960    9.8830    0.9803 H   0  0  0  0  0  0  0  0  0  0  0  0
    2.5152    8.7819   -0.3406 H   0  0  0  0  0  0  0  0  0  0  0  0
    3.0469   10.4977   -0.3406 H   0  0  0  0  0  0  0  0  0  0  0  0
    1.3871    9.3234   -2.8599 H   0  0  0  0  0  0  0  0  0  0  0  0
    1.0296    8.1386   -1.4800 H   0  0  0  0  0  0  0  0  0  0  0  0
   -0.9682    9.6961   -3.1434 H   0  0  0  0  0  0  0  0  0  0  0  0
   -0.6984    7.9099   -3.0836 H   0  0  0  0  0  0  0  0  0  0  0  0
   -1.3404    7.6996    0.5664 H   0  0  0  0  0  0  0  0  0  0  0  0
   -1.9477    6.6365   -0.7480 H   0  0  0  0  0  0  0  0  0  0  0  0
   -0.2341    7.1752   -0.7480 H   0  0  0  0  0  0  0  0  0  0  0  0
  1  2  1  0
  2  3  1  0
  3  4  1  0
  4  5  1  0
  5  6  1  0
  6  7  1  0
  7  8  1  0
  7  9  1  0
  2 10  1  0
 10 11  1  0
 11 12  1  0
 12 13  1  0
 13 14  1  6
 13 15  1  0
 15 16  1  0
 16 17  1  0
 17 18  2  0
 18 19  1  0
 19 20  1  0
 20 21  1  0
 21 22  1  0
 22 23  1  0
 22 24  1  0
 24 25  1  0
 24 26  1  0
 19 27  1  0
 27 28  1  1
 27 29  1  0
 29 30  1  0
 30 31  1  0
 31 32  1  1
  7  5  1  0
 31 10  1  0
 31 13  1  0
 27 15  1  0
 24 18  1  0
  1 33  1  0
  1 34  1  0
  1 35  1  0
  2 36  1  6
  3 37  1  0
  3 38  1  0
  4 39  1  0
  4 40  1  0
  5 41  1  1
  8 42  1  0
  8 43  1  0
  8 44  1  0
  9 45  1  0
  9 46  1  0
  9 47  1  0
 10 48  1  6
 11 49  1  0
 11 50  1  0
 12 51  1  0
 12 52  1  0
 14 53  1  0
 14 54  1  0
 14 55  1  0
 15 56  1  1
 16 57  1  0
 16 58  1  0
 17 59  1  0
 19 60  1  6
 20 61  1  0
 20 62  1  0
 21 63  1  0
 21 64  1  0
 22 65  1  6
 23 66  1  0
 25 67  1  0
 25 68  1  0
 25 69  1  0
 26 70  1  0
 26 71  1  0
 26 72  1  0
 28 73  1  0
 28 74  1  0
 28 75  1  0
 29 76  1  0
 29 77  1  0
 30 78  1  0
 30 79  1  0
 32 80  1  0
 32 81  1  0
 32 82  1  0
M  END
>  <meeko>  (12) 
{"is_sidechain": [false], "intermolecular_energy": 2.731, "internal_energy": -0.839}

$$$$
EPH_relaxed_0001_pdb2pqr_Repair_12_r2_0001_out
     RDKit          3D

 82 86  0  0  0  0  0  0  0  0999 V2000
   -2.0510    7.7520   -2.2090 C   0  0  0  0  0  0  0  0  0  0  0  0
   -2.2620    8.4430   -0.8590 C   0  0  2  0  0  0  0  0  0  0  0  0
   -3.7440    8.4490   -0.4350 C   0  0  0  0  0  0  0  0  0  0  0  0
   -4.6730    7.7560   -1.4360 C   0  0  0  0  0  0  0  0  0  0  0  0
   -5.8530    7.1300   -0.7560 C   0  0  2  0  0  0  0  0  0  0  0  0
   -6.4590    6.0520   -1.4810 O   0  0  0  0  0  0  0  0  0  0  0  0
   -7.2710    7.2220   -1.2870 C   0  0  0  0  0  0  0  0  0  0  0  0
   -7.5840    7.9610   -2.5500 C   0  0  0  0  0  0  0  0  0  0  0  0
   -8.4070    7.0160   -0.3340 C   0  0  0  0  0  0  0  0  0  0  0  0
   -1.7320    9.8710   -0.9170 C   0  0  1  0  0  0  0  0  0  0  0  0
   -1.3060   10.4080    0.4750 C   0  0  0  0  0  0  0  0  0  0  0  0
   -0.0800   11.3290    0.2440 C   0  0  0  0  0  0  0  0  0  0  0  0
   -0.0460   11.5560   -1.2860 C   0  0  1  0  0  0  0  0  0  0  0  0
   -1.0980   12.6790   -1.5480 C   0  0  0  0  0  0  0  0  0  0  0  0
    1.3460   11.9140   -1.9000 C   0  0  2  0  0  0  0  0  0  0  0  0
    1.9610   13.2330   -1.4000 C   0  0  0  0  0  0  0  0  0  0  0  0
    1.6100   14.4440   -2.1990 C   0  0  0  0  0  0  0  0  0  0  0  0
    1.0710   14.4380   -3.4330 C   0  0  0  0  0  0  0  0  0  0  0  0
    0.8490   13.1210   -4.1890 C   0  0  1  0  0  0  0  0  0  0  0  0
    1.3580   13.2700   -5.6460 C   0  0  0  0  0  0  0  0  0  0  0  0
    0.7400   14.4660   -6.3640 C   0  0  0  0  0  0  0  0  0  0  0  0
    1.0310   15.7620   -5.6130 C   0  0  2  0  0  0  0  0  0  0  0  0
    2.4360   16.0250   -5.6740 O   0  0  0  0  0  0  0  0  0  0  0  0
    0.5700   15.7280   -4.1290 C   0  0  0  0  0  0  0  0  0  0  0  0
   -0.9770   15.7460   -4.0630 C   0  0  0  0  0  0  0  0  0  0  0  0
    1.0490   17.0390   -3.4490 C   0  0  0  0  0  0  0  0  0  0  0  0
    1.4040   11.8120   -3.4790 C   0  0  1  0  0  0  0  0  0  0  0  0
    2.9010   11.5960   -3.8560 C   0  0  0  0  0  0  0  0  0  0  0  0
    0.6220   10.5600   -4.0260 C   0  0  0  0  0  0  0  0  0  0  0  0
   -0.6850   10.1860   -3.3010 C   0  0  0  0  0  0  0  0  0  0  0  0
   -0.4740   10.1280   -1.7850 C   0  0  2  0  0  0  0  0  0  0  0  0
    0.5630    8.9920   -1.4890 C   0  0  0  0  0  0  0  0  0  0  0  0
   -1.7334    6.7120   -2.0429 H   0  0  0  0  0  0  0  0  0  0  0  0
   -2.9930    7.7615   -2.7770 H   0  0  0  0  0  0  0  0  0  0  0  0
   -1.2750    8.2861   -2.7770 H   0  0  0  0  0  0  0  0  0  0  0  0
   -1.7045    7.8696   -0.1038 H   0  0  0  0  0  0  0  0  0  0  0  0
   -3.8304    7.9340    0.5332 H   0  0  0  0  0  0  0  0  0  0  0  0
   -4.0585    9.5016   -0.3797 H   0  0  0  0  0  0  0  0  0  0  0  0
   -5.0332    8.4998   -2.1620 H   0  0  0  0  0  0  0  0  0  0  0  0
   -4.1037    6.9593   -1.9372 H   0  0  0  0  0  0  0  0  0  0  0  0
   -5.4217    7.3370    0.2345 H   0  0  0  0  0  0  0  0  0  0  0  0
   -8.0021    8.9481   -2.3033 H   0  0  0  0  0  0  0  0  0  0  0  0
   -6.6630    8.0894   -3.1376 H   0  0  0  0  0  0  0  0  0  0  0  0
   -8.3170    7.3888   -3.1376 H   0  0  0  0  0  0  0  0  0  0  0  0
   -8.0356    7.0833    0.6992 H   0  0  0  0  0  0  0  0  0  0  0  0
   -9.1703    7.7904   -0.5005 H   0  0  0  0  0  0  0  0  0  0  0  0
   -8.8498    6.0229   -0.5005 H   0  0  0  0  0  0  0  0  0  0  0  0
   -2.6046   10.3731   -1.3602 H   0  0  0  0  0  0  0  0  0  0  0  0
   -2.1291   10.9798    0.9284 H   0  0  0  0  0  0  0  0  0  0  0  0
   -1.0561    9.5820    1.1571 H   0  0  0  0  0  0  0  0  0  0  0  0
   -0.2058   12.2838    0.7756 H   0  0  0  0  0  0  0  0  0  0  0  0
    0.8529   10.8844    0.6208 H   0  0  0  0  0  0  0  0  0  0  0  0
   -1.4641   13.0698   -0.5872 H   0  0  0  0  0  0  0  0  0  0  0  0
   -0.6301   13.4933   -2.1207 H   0  0  0  0  0  0  0  0  0  0  0  0
   -1.9411   12.2653   -2.1207 H   0  0  0  0  0  0  0  0  0  0  0  0
    1.9900   11.1150   -1.5039 H   0  0  0  0  0  0  0  0  0  0  0  0
    1.6200   13.3968   -0.3671 H   0  0  0  0  0  0  0  0  0  0  0  0
    3.0508   13.1141   -1.4909 H   0  0  0  0  0  0  0  0  0  0  0  0
    1.8084   15.4243   -1.7410 H   0  0  0  0  0  0  0  0  0  0  0  0
   -0.2374   12.9485   -4.1886 H   0  0  0  0  0  0  0  0  0  0  0  0
    2.4505   13.3969   -5.6263 H   0  0  0  0  0  0  0  0  0  0  0  0
    1.0647   12.3635   -6.1957 H   0  0  0  0  0  0  0  0  0  0  0  0
    1.1616   14.5347   -7.3777 H   0  0  0  0  0  0  0  0  0  0  0  0
   -0.3498   14.3236   -6.4099 H   0  0  0  0  0  0  0  0  0  0  0  0
    0.4553   16.5619   -6.1017 H   0  0  0  0  0  0  0  0  0  0  0  0
    2.8800   15.1950   -5.9180 H   0  0  0  0  0  0  0  0  0  0  0  0
   -1.2991   15.7497   -3.0112 H   0  0  0  0  0  0  0  0  0  0  0  0
   -1.3550   16.6486   -4.5654 H   0  0  0  0  0  0  0  0  0  0  0  0
   -1.3759   14.8524   -4.5654 H   0  0  0  0  0  0  0  0  0  0  0  0
    1.0062   16.9220   -2.3561 H   0  0  0  0  0  0  0  0  0  0  0  0
    2.0837   17.2537   -3.7546 H   0  0  0  0  0  0  0  0  0  0  0  0
    0.3965   17.8702   -3.7546 H   0  0  0  0  0  0  0  0  0  0  0  0
    3.5014   11.5094   -2.9384 H   0  0  0  0  0  0  0  0  0  0  0  0
    3.0007   10.6742   -4.4478 H   0  0  0  0  0  0  0  0  0  0  0  0
    3.2573   12.4520   -4.4478 H   0  0  0  0  0  0  0  0  0  0  0  0
    0.3736   10.7570   -5.0793 H   0  0  0  0  0  0  0  0  0  0  0  0
    1.2960    9.7060   -3.8631 H   0  0  0  0  0  0  0  0  0  0  0  0
   -1.4517   10.9412   -3.5289 H   0  0  0  0  0  0  0  0  0  0  0  0
   -1.0070    9.1932   -3.6484 H   0  0  0  0  0  0  0  0  0  0  0  0
    0.6736    8.8708   -0.4013 H   0  0  0  0  0  0  0  0  0  0  0  0
    0.2085    8.0482   -1.9289 H   0  0  0  0  0  0  0  0  0  0  0  0
    1.5351    9.2592   -1.9289 H   0  0  0  0  0  0  0  0  0  0  0  0
  1  2  1  0
  2  3  1  0
  3  4  1  0
  4  5  1  0
  5  6  1  0
  6  7  1  0
  7  8  1  0
  7  9  1  0
  2 10  1  0
 10 11  1  0
 11 12  1  0
 12 13  1  0
 13 14  1  1
 13 15  1  0
 15 16  1  0
 16 17  1  0
 17 18  2  0
 18 19  1  0
 19 20  1  0
 20 21  1  0
 21 22  1  0
 22 23  1  0
 22 24  1  0
 24 25  1  0
 24 26  1  0
 19 27  1  0
 27 28  1  1
 27 29  1  0
 29 30  1  0
 30 31  1  0
 31 32  1  6
  7  5  1  0
 31 10  1  0
 31 13  1  0
 27 15  1  0
 24 18  1  0
  1 33  1  0
  1 34  1  0
  1 35  1  0
  2 36  1  1
  3 37  1  0
  3 38  1  0
  4 39  1  0
  4 40  1  0
  5 41  1  1
  8 42  1  0
  8 43  1  0
  8 44  1  0
  9 45  1  0
  9 46  1  0
  9 47  1  0
 10 48  1  6
 11 49  1  0
 11 50  1  0
 12 51  1  0
 12 52  1  0
 14 53  1  0
 14 54  1  0
 14 55  1  0
 15 56  1  1
 16 57  1  0
 16 58  1  0
 17 59  1  0
 19 60  1  6
 20 61  1  0
 20 62  1  0
 21 63  1  0
 21 64  1  0
 22 65  1  6
 23 66  1  0
 25 67  1  0
 25 68  1  0
 25 69  1  0
 26 70  1  0
 26 71  1  0
 26 72  1  0
 28 73  1  0
 28 74  1  0
 28 75  1  0
 29 76  1  0
 29 77  1  0
 30 78  1  0
 30 79  1  0
 32 80  1  0
 32 81  1  0
 32 82  1  0
M  END
>  <meeko>  (13) 
{"is_sidechain": [false], "intermolecular_energy": 2.731, "internal_energy": -0.839}

$$$$
EPH_relaxed_0001_pdb2pqr_Repair_12_r2_0001_out
     RDKit          3D

 82 86  0  0  0  0  0  0  0  0999 V2000
   -1.1930    6.8360   -3.0770 C   0  0  0  0  0  0  0  0  0  0  0  0
   -2.4400    7.3040   -2.3200 C   0  0  2  0  0  0  0  0  0  0  0  0
   -3.7090    7.2340   -3.1930 C   0  0  0  0  0  0  0  0  0  0  0  0
   -4.7680    6.2640   -2.6630 C   0  0  0  0  0  0  0  0  0  0  0  0
   -6.1270    6.5730   -3.2120 C   0  0  2  0  0  0  0  0  0  0  0  0
   -6.6420    7.8600   -2.8480 O   0  0  0  0  0  0  0  0  0  0  0  0
   -7.3650    6.7240   -2.3480 C   0  0  0  0  0  0  0  0  0  0  0  0
   -7.3010    6.5700   -0.8600 C   0  0  0  0  0  0  0  0  0  0  0  0
   -8.7080    6.5370   -2.9810 C   0  0  0  0  0  0  0  0  0  0  0  0
   -2.2350    8.7260   -1.8110 C   0  0  1  0  0  0  0  0  0  0  0  0
   -3.2090    9.0940   -0.6600 C   0  0  0  0  0  0  0  0  0  0  0  0
   -2.4310   10.0290    0.3020 C   0  0  0  0  0  0  0  0  0  0  0  0
   -1.1640   10.4330   -0.4880 C   0  0  1  0  0  0  0  0  0  0  0  0
   -1.6300   11.5850   -1.4320 C   0  0  0  0  0  0  0  0  0  0  0  0
    0.0770   10.8540    0.3660 C   0  0  2  0  0  0  0  0  0  0  0  0
   -0.1270   12.1020    1.2430 C   0  0  0  0  0  0  0  0  0  0  0  0
    0.2300   13.4000    0.5970 C   0  0  0  0  0  0  0  0  0  0  0  0
    0.9580   13.5410   -0.5260 C   0  0  0  0  0  0  0  0  0  0  0  0
    1.5900   12.3230   -1.2130 C   0  0  1  0  0  0  0  0  0  0  0  0
    3.0660   12.6380   -1.5710 C   0  0  0  0  0  0  0  0  0  0  0  0
    3.2080   13.9130   -2.3970 C   0  0  0  0  0  0  0  0  0  0  0  0
    2.6210   15.1110   -1.6550 C   0  0  2  0  0  0  0  0  0  0  0  0
    3.4190   15.3720   -0.4960 O   0  0  0  0  0  0  0  0  0  0  0  0
    1.1390   14.9060   -1.2340 C   0  0  0  0  0  0  0  0  0  0  0  0
    0.2340   14.9250   -2.4910 C   0  0  0  0  0  0  0  0  0  0  0  0
    0.7140   16.1260   -0.3740 C   0  0  0  0  0  0  0  0  0  0  0  0
    1.4280   10.9370   -0.4530 C   0  0  1  0  0  0  0  0  0  0  0  0
    2.5850   10.7580    0.5780 C   0  0  0  0  0  0  0  0  0  0  0  0
    1.5730    9.7610   -1.4900 C   0  0  0  0  0  0  0  0  0  0  0  0
    0.2890    9.3120   -2.2130 C   0  0  0  0  0  0  0  0  0  0  0  0
   -0.8490    9.0760   -1.2150 C   0  0  2  0  0  0  0  0  0  0  0  0
   -0.4180    7.9070   -0.2650 C   0  0  0  0  0  0  0  0  0  0  0  0
   -0.4148    6.5439   -2.3565 H   0  0  0  0  0  0  0  0  0  0  0  0
   -1.4500    5.9731   -3.7090 H   0  0  0  0  0  0  0  0  0  0  0  0
   -0.8189    7.6549   -3.7090 H   0  0  0  0  0  0  0  0  0  0  0  0
   -2.5869    6.6223   -1.4693 H   0  0  0  0  0  0  0  0  0  0  0  0
   -4.1526    8.2394   -3.2421 H   0  0  0  0  0  0  0  0  0  0  0  0
   -3.3992    6.8631   -4.1812 H   0  0  0  0  0  0  0  0  0  0  0  0
   -4.4906    5.2400   -2.9535 H   0  0  0  0  0  0  0  0  0  0  0  0
   -4.8091    6.3660   -1.5685 H   0  0  0  0  0  0  0  0  0  0  0  0
   -5.9242    5.9744   -4.1123 H   0  0  0  0  0  0  0  0  0  0  0  0
   -7.6808    7.4840   -0.3801 H   0  0  0  0  0  0  0  0  0  0  0  0
   -7.9169    5.7118   -0.5534 H   0  0  0  0  0  0  0  0  0  0  0  0
   -6.2582    6.4011   -0.5534 H   0  0  0  0  0  0  0  0  0  0  0  0
   -9.4716    6.4307   -2.1964 H   0  0  0  0  0  0  0  0  0  0  0  0
   -8.9437    7.4110   -3.6060 H   0  0  0  0  0  0  0  0  0  0  0  0
   -8.6960    5.6319   -3.6060 H   0  0  0  0  0  0  0  0  0  0  0  0
   -2.3920    9.2813   -2.7475 H   0  0  0  0  0  0  0  0  0  0  0  0
   -4.0915    9.6134   -1.0619 H   0  0  0  0  0  0  0  0  0  0  0  0
   -3.5607    8.1927   -0.1366 H   0  0  0  0  0  0  0  0  0  0  0  0
   -3.0319   10.9157    0.5524 H   0  0  0  0  0  0  0  0  0  0  0  0
   -2.1892    9.5384    1.2564 H   0  0  0  0  0  0  0  0  0  0  0  0
   -1.9747   12.4372   -0.8280 H   0  0  0  0  0  0  0  0  0  0  0  0
   -0.7893   11.9017   -2.0667 H   0  0  0  0  0  0  0  0  0  0  0  0
   -2.4545   11.2281   -2.0667 H   0  0  0  0  0  0  0  0  0  0  0  0
    0.1791   10.0116    1.0660 H   0  0  0  0  0  0  0  0  0  0  0  0
   -1.1878   12.1458    1.5306 H   0  0  0  0  0  0  0  0  0  0  0  0
    0.5565   11.9889    2.0975 H   0  0  0  0  0  0  0  0  0  0  0  0
   -0.1329   14.3192    1.0801 H   0  0  0  0  0  0  0  0  0  0  0  0
    1.0105   12.1582   -2.1333 H   0  0  0  0  0  0  0  0  0  0  0  0
    3.6375   12.7563   -0.6386 H   0  0  0  0  0  0  0  0  0  0  0  0
    3.4483   11.8032   -2.1768 H   0  0  0  0  0  0  0  0  0  0  0  0
    4.2744   14.0981   -2.5932 H   0  0  0  0  0  0  0  0  0  0  0  0
    2.6605   13.7823   -3.3421 H   0  0  0  0  0  0  0  0  0  0  0  0
    2.6343   15.9658   -2.3472 H   0  0  0  0  0  0  0  0  0  0  0  0
    3.0360   14.8710    0.2440 H   0  0  0  0  0  0  0  0  0  0  0  0
   -0.8216   14.9472   -2.1825 H   0  0  0  0  0  0  0  0  0  0  0  0
    0.4593   15.8186   -3.0916 H   0  0  0  0  0  0  0  0  0  0  0  0
    0.4216   14.0227   -3.0916 H   0  0  0  0  0  0  0  0  0  0  0  0
    0.8026   15.8715    0.6925 H   0  0  0  0  0  0  0  0  0  0  0  0
    1.3672   16.9810   -0.6025 H   0  0  0  0  0  0  0  0  0  0  0  0
   -0.3291   16.3901   -0.6025 H   0  0  0  0  0  0  0  0  0  0  0  0
    2.1796   10.8207    1.5986 H   0  0  0  0  0  0  0  0  0  0  0  0
    3.0583    9.7759    0.4312 H   0  0  0  0  0  0  0  0  0  0  0  0
    3.3329   11.5511    0.4312 H   0  0  0  0  0  0  0  0  0  0  0  0
    2.2930   10.0808   -2.2577 H   0  0  0  0  0  0  0  0  0  0  0  0
    1.8893    8.8905   -0.8965 H   0  0  0  0  0  0  0  0  0  0  0  0
   -0.0141   10.0928   -2.9261 H   0  0  0  0  0  0  0  0  0  0  0  0
    0.4949    8.3683   -2.7393 H   0  0  0  0  0  0  0  0  0  0  0  0
   -0.5347    8.2234    0.7820 H   0  0  0  0  0  0  0  0  0  0  0  0
   -1.0511    7.0277   -0.4550 H   0  0  0  0  0  0  0  0  0  0  0  0
    0.6343    7.6491   -0.4550 H   0  0  0  0  0  0  0  0  0  0  0  0
  1  2  1  0
  2  3  1  0
  3  4  1  0
  4  5  1  0
  5  6  1  0
  6  7  1  0
  7  8  1  0
  7  9  1  0
  2 10  1  0
 10 11  1  0
 11 12  1  0
 12 13  1  0
 13 14  1  6
 13 15  1  0
 15 16  1  0
 16 17  1  0
 17 18  2  0
 18 19  1  0
 19 20  1  0
 20 21  1  0
 21 22  1  0
 22 23  1  0
 22 24  1  0
 24 25  1  0
 24 26  1  0
 19 27  1  0
 27 28  1  1
 27 29  1  0
 29 30  1  0
 30 31  1  0
 31 32  1  1
  7  5  1  0
 31 10  1  0
 31 13  1  0
 27 15  1  0
 24 18  1  0
  1 33  1  0
  1 34  1  0
  1 35  1  0
  2 36  1  1
  3 37  1  0
  3 38  1  0
  4 39  1  0
  4 40  1  0
  5 41  1  6
  8 42  1  0
  8 43  1  0
  8 44  1  0
  9 45  1  0
  9 46  1  0
  9 47  1  0
 10 48  1  6
 11 49  1  0
 11 50  1  0
 12 51  1  0
 12 52  1  0
 14 53  1  0
 14 54  1  0
 14 55  1  0
 15 56  1  1
 16 57  1  0
 16 58  1  0
 17 59  1  0
 19 60  1  6
 20 61  1  0
 20 62  1  0
 21 63  1  0
 21 64  1  0
 22 65  1  6
 23 66  1  0
 25 67  1  0
 25 68  1  0
 25 69  1  0
 26 70  1  0
 26 71  1  0
 26 72  1  0
 28 73  1  0
 28 74  1  0
 28 75  1  0
 29 76  1  0
 29 77  1  0
 30 78  1  0
 30 79  1  0
 32 80  1  0
 32 81  1  0
 32 82  1  0
M  END
>  <meeko>  (14) 
{"is_sidechain": [false], "intermolecular_energy": 2.731, "internal_energy": -0.839}

$$$$
EPH_relaxed_0001_pdb2pqr_Repair_12_r2_0001_out
     RDKit          3D

 82 86  0  0  0  0  0  0  0  0999 V2000
    3.1140   14.7990   -7.4890 C   0  0  0  0  0  0  0  0  0  0  0  0
    1.5910   14.8430   -7.3420 C   0  0  2  0  0  0  0  0  0  0  0  0
    0.9770   16.0870   -8.0160 C   0  0  0  0  0  0  0  0  0  0  0  0
    1.9080   16.7590   -9.0290 C   0  0  0  0  0  0  0  0  0  0  0  0
    1.5670   16.3720  -10.4360 C   0  0  2  0  0  0  0  0  0  0  0  0
    0.9750   15.0740  -10.5730 O   0  0  0  0  0  0  0  0  0  0  0  0
    2.2620   15.2520  -11.1870 C   0  0  0  0  0  0  0  0  0  0  0  0
    3.3540   14.4480  -10.5540 C   0  0  0  0  0  0  0  0  0  0  0  0
    2.2200   15.2600  -12.6830 C   0  0  0  0  0  0  0  0  0  0  0  0
    1.2090   14.8080   -5.8670 C   0  0  1  0  0  0  0  0  0  0  0  0
   -0.0480   15.6620   -5.5540 C   0  0  0  0  0  0  0  0  0  0  0  0
   -0.8220   14.9250   -4.4310 C   0  0  0  0  0  0  0  0  0  0  0  0
    0.1720   13.8620   -3.9060 C   0  0  1  0  0  0  0  0  0  0  0  0
    1.1080   14.6370   -2.9270 C   0  0  0  0  0  0  0  0  0  0  0  0
   -0.4590   12.6030   -3.2270 C   0  0  2  0  0  0  0  0  0  0  0  0
   -1.2750   12.8880   -1.9540 C   0  0  0  0  0  0  0  0  0  0  0  0
   -0.5020   12.8420   -0.6780 C   0  0  0  0  0  0  0  0  0  0  0  0
    0.7240   12.3070   -0.5240 C   0  0  0  0  0  0  0  0  0  0  0  0
    1.4190   11.5830   -1.6850 C   0  0  1  0  0  0  0  0  0  0  0  0
    2.0120   10.2430   -1.1790 C   0  0  0  0  0  0  0  0  0  0  0  0
    2.9290   10.4270    0.0260 C   0  0  0  0  0  0  0  0  0  0  0  0
    2.1870   11.0960    1.1800 C   0  0  2  0  0  0  0  0  0  0  0  0
    1.1780   10.2010    1.6600 O   0  0  0  0  0  0  0  0  0  0  0  0
    1.5370   12.4520    0.7850 C   0  0  0  0  0  0  0  0  0  0  0  0
    2.6440   13.5120    0.5560 C   0  0  0  0  0  0  0  0  0  0  0  0
    0.7030   12.9520    1.9960 C   0  0  0  0  0  0  0  0  0  0  0  0
    0.5560   11.4080   -3.0080 C   0  0  1  0  0  0  0  0  0  0  0  0
   -0.3010   10.1080   -2.9170 C   0  0  0  0  0  0  0  0  0  0  0  0
    1.5260   11.2150   -4.2330 C   0  0  0  0  0  0  0  0  0  0  0  0
    2.0200   12.4940   -4.9360 C   0  0  0  0  0  0  0  0  0  0  0  0
    0.8500   13.4300   -5.2570 C   0  0  2  0  0  0  0  0  0  0  0  0
   -0.0980   12.6860   -6.2580 C   0  0  0  0  0  0  0  0  0  0  0  0
    3.5784   14.7856   -6.4919 H   0  0  0  0  0  0  0  0  0  0  0  0
    3.4031   13.8921   -8.0404 H   0  0  0  0  0  0  0  0  0  0  0  0
    3.4550   15.6877   -8.0404 H   0  0  0  0  0  0  0  0  0  0  0  0
    1.1847   13.9572   -7.8522 H   0  0  0  0  0  0  0  0  0  0  0  0
    0.0581   15.7816   -8.5378 H   0  0  0  0  0  0  0  0  0  0  0  0
    0.7827   16.8214   -7.2205 H   0  0  0  0  0  0  0  0  0  0  0  0
    1.8171   17.8505   -8.9274 H   0  0  0  0  0  0  0  0  0  0  0  0
    2.9365   16.4284   -8.8218 H   0  0  0  0  0  0  0  0  0  0  0  0
    1.3608   17.4199  -10.6994 H   0  0  0  0  0  0  0  0  0  0  0  0
    3.2683   14.5111   -9.4592 H   0  0  0  0  0  0  0  0  0  0  0  0
    3.2657   13.3977  -10.8688 H   0  0  0  0  0  0  0  0  0  0  0  0
    4.3307   14.8442  -10.8688 H   0  0  0  0  0  0  0  0  0  0  0  0
    1.1914   15.4559  -13.0199 H   0  0  0  0  0  0  0  0  0  0  0  0
    2.8869   16.0473  -13.0643 H   0  0  0  0  0  0  0  0  0  0  0  0
    2.5508   14.2827  -13.0643 H   0  0  0  0  0  0  0  0  0  0  0  0
    2.1450   15.1820   -5.4266 H   0  0  0  0  0  0  0  0  0  0  0  0
    0.2505   16.6644   -5.2132 H   0  0  0  0  0  0  0  0  0  0  0  0
   -0.6745   15.7853   -6.4497 H   0  0  0  0  0  0  0  0  0  0  0  0
   -1.1025   15.6240   -3.6293 H   0  0  0  0  0  0  0  0  0  0  0  0
   -1.7588   14.4773   -4.7942 H   0  0  0  0  0  0  0  0  0  0  0  0
    0.8268   14.4042   -1.8894 H   0  0  0  0  0  0  0  0  0  0  0  0
    2.1513   14.3348   -3.1008 H   0  0  0  0  0  0  0  0  0  0  0  0
    1.0057   15.7184   -3.1008 H   0  0  0  0  0  0  0  0  0  0  0  0
   -1.1880   12.2690   -3.9800 H   0  0  0  0  0  0  0  0  0  0  0  0
   -1.7142   13.8920   -2.0494 H   0  0  0  0  0  0  0  0  0  0  0  0
   -2.0233   12.0846   -1.8858 H   0  0  0  0  0  0  0  0  0  0  0  0
   -0.9741   13.2827    0.2124 H   0  0  0  0  0  0  0  0  0  0  0  0
    2.2303   12.2479   -2.0163 H   0  0  0  0  0  0  0  0  0  0  0  0
    1.1846    9.5766   -0.8939 H   0  0  0  0  0  0  0  0  0  0  0  0
    2.6139    9.8153   -1.9943 H   0  0  0  0  0  0  0  0  0  0  0  0
    3.2930    9.4424    0.3549 H   0  0  0  0  0  0  0  0  0  0  0  0
    3.7713   11.0700   -0.2691 H   0  0  0  0  0  0  0  0  0  0  0  0
    2.9264   11.3181    1.9636 H   0  0  0  0  0  0  0  0  0  0  0  0
    1.2550   10.1640    2.6280 H   0  0  0  0  0  0  0  0  0  0  0  0
    3.0166   13.8688    1.5275 H   0  0  0  0  0  0  0  0  0  0  0  0
    3.4717   13.0611   -0.0110 H   0  0  0  0  0  0  0  0  0  0  0  0
    2.2294   14.3585   -0.0110 H   0  0  0  0  0  0  0  0  0  0  0  0
    1.1997   12.6542    2.9312 H   0  0  0  0  0  0  0  0  0  0  0  0
    0.6211   14.0483    1.9572 H   0  0  0  0  0  0  0  0  0  0  0  0
   -0.3025   12.5076    1.9572 H   0  0  0  0  0  0  0  0  0  0  0  0
   -0.4692    9.8529   -1.8603 H   0  0  0  0  0  0  0  0  0  0  0  0
   -1.2690   10.2715   -3.4133 H   0  0  0  0  0  0  0  0  0  0  0  0
    0.2307    9.2828   -3.4133 H   0  0  0  0  0  0  0  0  0  0  0  0
    2.4112   10.6696   -3.8739 H   0  0  0  0  0  0  0  0  0  0  0  0
    0.9317   10.6818   -4.9896 H   0  0  0  0  0  0  0  0  0  0  0  0
    2.7284   13.0165   -4.2763 H   0  0  0  0  0  0  0  0  0  0  0  0
    2.5102   12.2092   -5.8786 H   0  0  0  0  0  0  0  0  0  0  0  0
   -0.8412   12.1028   -5.6945 H   0  0  0  0  0  0  0  0  0  0  0  0
   -0.6137   13.4230   -6.8912 H   0  0  0  0  0  0  0  0  0  0  0  0
    0.4953   12.0099   -6.8912 H   0  0  0  0  0  0  0  0  0  0  0  0
  1  2  1  0
  2  3  1  0
  3  4  1  0
  4  5  1  0
  5  6  1  0
  6  7  1  0
  7  8  1  0
  7  9  1  0
  2 10  1  0
 10 11  1  0
 11 12  1  0
 12 13  1  0
 13 14  1  1
 13 15  1  0
 15 16  1  0
 16 17  1  0
 17 18  2  0
 18 19  1  0
 19 20  1  0
 20 21  1  0
 21 22  1  0
 22 23  1  0
 22 24  1  0
 24 25  1  0
 24 26  1  0
 19 27  1  0
 27 28  1  1
 27 29  1  0
 29 30  1  0
 30 31  1  0
 31 32  1  6
  7  5  1  0
 31 10  1  0
 31 13  1  0
 27 15  1  0
 24 18  1  0
  1 33  1  0
  1 34  1  0
  1 35  1  0
  2 36  1  6
  3 37  1  0
  3 38  1  0
  4 39  1  0
  4 40  1  0
  5 41  1  6
  8 42  1  0
  8 43  1  0
  8 44  1  0
  9 45  1  0
  9 46  1  0
  9 47  1  0
 10 48  1  1
 11 49  1  0
 11 50  1  0
 12 51  1  0
 12 52  1  0
 14 53  1  0
 14 54  1  0
 14 55  1  0
 15 56  1  6
 16 57  1  0
 16 58  1  0
 17 59  1  0
 19 60  1  6
 20 61  1  0
 20 62  1  0
 21 63  1  0
 21 64  1  0
 22 65  1  1
 23 66  1  0
 25 67  1  0
 25 68  1  0
 25 69  1  0
 26 70  1  0
 26 71  1  0
 26 72  1  0
 28 73  1  0
 28 74  1  0
 28 75  1  0
 29 76  1  0
 29 77  1  0
 30 78  1  0
 30 79  1  0
 32 80  1  0
 32 81  1  0
 32 82  1  0
M  END
>  <meeko>  (15) 
{"is_sidechain": [false], "intermolecular_energy": 2.731, "internal_energy": -0.839}

$$$$
EPH_relaxed_0001_pdb2pqr_Repair_12_r2_0001_out
     RDKit          3D

 82 86  0  0  0  0  0  0  0  0999 V2000
    0.9580   14.9530   -2.7210 C   0  0  0  0  0  0  0  0  0  0  0  0
    1.2050   14.2680   -4.0690 C   0  0  2  0  0  0  0  0  0  0  0  0
    0.4720   14.9790   -5.2240 C   0  0  0  0  0  0  0  0  0  0  0  0
    1.0100   14.6150   -6.6110 C   0  0  0  0  0  0  0  0  0  0  0  0
    0.7930   15.7210   -7.5980 C   0  0  2  0  0  0  0  0  0  0  0  0
    0.4060   15.2870   -8.9080 O   0  0  0  0  0  0  0  0  0  0  0  0
    1.6790   15.9470   -8.8090 C   0  0  0  0  0  0  0  0  0  0  0  0
    2.8490   15.0600   -9.0970 C   0  0  0  0  0  0  0  0  0  0  0  0
    1.7030   17.3070   -9.4340 C   0  0  0  0  0  0  0  0  0  0  0  0
    0.7710   12.8090   -3.9970 C   0  0  1  0  0  0  0  0  0  0  0  0
    1.9130   11.8270   -4.3720 C   0  0  0  0  0  0  0  0  0  0  0  0
    1.7310   10.5690   -3.4840 C   0  0  0  0  0  0  0  0  0  0  0  0
    0.3180   10.7230   -2.8730 C   0  0  1  0  0  0  0  0  0  0  0  0
   -0.6560   10.2310   -3.9890 C   0  0  0  0  0  0  0  0  0  0  0  0
    0.0670    9.9840   -1.5190 C   0  0  2  0  0  0  0  0  0  0  0  0
    0.1880    8.4510   -1.5790 C   0  0  0  0  0  0  0  0  0  0  0  0
   -1.0770    7.7230   -1.8900 C   0  0  0  0  0  0  0  0  0  0  0  0
   -2.3160    8.2470   -1.8300 C   0  0  0  0  0  0  0  0  0  0  0  0
   -2.5430    9.6770   -1.3250 C   0  0  1  0  0  0  0  0  0  0  0  0
   -3.7190    9.6880   -0.3130 C   0  0  0  0  0  0  0  0  0  0  0  0
   -4.9880    9.0630   -0.8840 C   0  0  0  0  0  0  0  0  0  0  0  0
   -4.7360    7.6220   -1.3220 C   0  0  2  0  0  0  0  0  0  0  0  0
   -4.4650    6.8290   -0.1630 O   0  0  0  0  0  0  0  0  0  0  0  0
   -3.5660    7.4850   -2.3360 C   0  0  0  0  0  0  0  0  0  0  0  0
   -3.9850    8.0890   -3.6990 C   0  0  0  0  0  0  0  0  0  0  0  0
   -3.3260    5.9720   -2.5860 C   0  0  0  0  0  0  0  0  0  0  0  0
   -1.2560   10.4300   -0.7730 C   0  0  1  0  0  0  0  0  0  0  0  0
   -1.0500   10.0960    0.7360 C   0  0  0  0  0  0  0  0  0  0  0  0
   -1.4950   11.9840   -0.8560 C   0  0  0  0  0  0  0  0  0  0  0  0
   -1.1150   12.6760   -2.1790 C   0  0  0  0  0  0  0  0  0  0  0  0
    0.2960   12.2750   -2.6220 C   0  0  2  0  0  0  0  0  0  0  0  0
    1.3010   12.7770   -1.5300 C   0  0  0  0  0  0  0  0  0  0  0  0
    1.2084   14.2586   -1.9055 H   0  0  0  0  0  0  0  0  0  0  0  0
    1.5890   15.8508   -2.6448 H   0  0  0  0  0  0  0  0  0  0  0  0
   -0.1008   15.2415   -2.6448 H   0  0  0  0  0  0  0  0  0  0  0  0
    2.2836   14.3255   -4.2772 H   0  0  0  0  0  0  0  0  0  0  0  0
   -0.5923   14.7044   -5.1812 H   0  0  0  0  0  0  0  0  0  0  0  0
    0.6323   16.0590   -5.0902 H   0  0  0  0  0  0  0  0  0  0  0  0
    2.0886   14.4133   -6.5332 H   0  0  0  0  0  0  0  0  0  0  0  0
    0.4672   13.7269   -6.9668 H   0  0  0  0  0  0  0  0  0  0  0  0
    0.4461   16.3957   -6.8015 H   0  0  0  0  0  0  0  0  0  0  0  0
    3.2948   14.7220   -8.1499 H   0  0  0  0  0  0  0  0  0  0  0  0
    2.5136   14.1872   -9.6764 H   0  0  0  0  0  0  0  0  0  0  0  0
    3.5988   15.6186   -9.6764 H   0  0  0  0  0  0  0  0  0  0  0  0
    1.7165   18.0731   -8.6447 H   0  0  0  0  0  0  0  0  0  0  0  0
    2.6031   17.4078  -10.0583 H   0  0  0  0  0  0  0  0  0  0  0  0
    0.8071   17.4395  -10.0583 H   0  0  0  0  0  0  0  0  0  0  0  0
   -0.0719   12.8324   -4.7034 H   0  0  0  0  0  0  0  0  0  0  0  0
    1.8435   11.5534   -5.4352 H   0  0  0  0  0  0  0  0  0  0  0  0
    2.8988   12.2867   -4.2082 H   0  0  0  0  0  0  0  0  0  0  0  0
    1.7941    9.6534   -4.0903 H   0  0  0  0  0  0  0  0  0  0  0  0
    2.5117   10.4861   -2.7135 H   0  0  0  0  0  0  0  0  0  0  0  0
   -1.5467    9.7811   -3.5261 H   0  0  0  0  0  0  0  0  0  0  0  0
   -0.9588   11.0843   -4.6137 H   0  0  0  0  0  0  0  0  0  0  0  0
   -0.1489    9.4809   -4.6137 H   0  0  0  0  0  0  0  0  0  0  0  0
    0.9123   10.3262   -0.9039 H   0  0  0  0  0  0  0  0  0  0  0  0
    0.9251    8.1984   -2.3555 H   0  0  0  0  0  0  0  0  0  0  0  0
    0.4835    8.1295   -0.5694 H   0  0  0  0  0  0  0  0  0  0  0  0
   -0.9900    6.6694   -2.1939 H   0  0  0  0  0  0  0  0  0  0  0  0
   -2.8066   10.2741   -2.2104 H   0  0  0  0  0  0  0  0  0  0  0  0
   -3.4194    9.1228    0.5819 H   0  0  0  0  0  0  0  0  0  0  0  0
   -3.9428   10.7378   -0.0727 H   0  0  0  0  0  0  0  0  0  0  0  0
   -5.7728    9.0732   -0.1133 H   0  0  0  0  0  0  0  0  0  0  0  0
   -5.3035    9.6470   -1.7612 H   0  0  0  0  0  0  0  0  0  0  0  0
   -5.6409    7.2715   -1.8399 H   0  0  0  0  0  0  0  0  0  0  0  0
   -5.1540    6.1460   -0.1060 H   0  0  0  0  0  0  0  0  0  0  0  0
   -4.6045    8.9820   -3.5294 H   0  0  0  0  0  0  0  0  0  0  0  0
   -3.0861    8.3689   -4.2679 H   0  0  0  0  0  0  0  0  0  0  0  0
   -4.5620    7.3451   -4.2679 H   0  0  0  0  0  0  0  0  0  0  0  0
   -3.2431    5.4496   -1.6215 H   0  0  0  0  0  0  0  0  0  0  0  0
   -4.1694    5.5564   -3.1568 H   0  0  0  0  0  0  0  0  0  0  0  0
   -2.3953    5.8378   -3.1568 H   0  0  0  0  0  0  0  0  0  0  0  0
   -1.5285   10.8717    1.3519 H   0  0  0  0  0  0  0  0  0  0  0  0
   -1.5025    9.1188    0.9604 H   0  0  0  0  0  0  0  0  0  0  0  0
    0.0263   10.0618    0.9604 H   0  0  0  0  0  0  0  0  0  0  0  0
   -2.5657   12.1658   -0.6810 H   0  0  0  0  0  0  0  0  0  0  0  0
   -0.8239   12.4190   -0.1008 H   0  0  0  0  0  0  0  0  0  0  0  0
   -1.8339   12.3824   -2.9581 H   0  0  0  0  0  0  0  0  0  0  0  0
   -1.1380   13.7649   -2.0246 H   0  0  0  0  0  0  0  0  0  0  0  0
    0.8895   12.5715   -0.5308 H   0  0  0  0  0  0  0  0  0  0  0  0
    2.2609   12.2525   -1.6463 H   0  0  0  0  0  0  0  0  0  0  0  0
    1.4582   13.8595   -1.6463 H   0  0  0  0  0  0  0  0  0  0  0  0
  1  2  1  0
  2  3  1  0
  3  4  1  0
  4  5  1  0
  5  6  1  0
  6  7  1  0
  7  8  1  0
  7  9  1  0
  2 10  1  0
 10 11  1  0
 11 12  1  0
 12 13  1  0
 13 14  1  6
 13 15  1  0
 15 16  1  0
 16 17  1  0
 17 18  2  0
 18 19  1  0
 19 20  1  0
 20 21  1  0
 21 22  1  0
 22 23  1  0
 22 24  1  0
 24 25  1  0
 24 26  1  0
 19 27  1  0
 27 28  1  1
 27 29  1  0
 29 30  1  0
 30 31  1  0
 31 32  1  1
  7  5  1  0
 31 10  1  0
 31 13  1  0
 27 15  1  0
 24 18  1  0
  1 33  1  0
  1 34  1  0
  1 35  1  0
  2 36  1  6
  3 37  1  0
  3 38  1  0
  4 39  1  0
  4 40  1  0
  5 41  1  1
  8 42  1  0
  8 43  1  0
  8 44  1  0
  9 45  1  0
  9 46  1  0
  9 47  1  0
 10 48  1  6
 11 49  1  0
 11 50  1  0
 12 51  1  0
 12 52  1  0
 14 53  1  0
 14 54  1  0
 14 55  1  0
 15 56  1  1
 16 57  1  0
 16 58  1  0
 17 59  1  0
 19 60  1  6
 20 61  1  0
 20 62  1  0
 21 63  1  0
 21 64  1  0
 22 65  1  6
 23 66  1  0
 25 67  1  0
 25 68  1  0
 25 69  1  0
 26 70  1  0
 26 71  1  0
 26 72  1  0
 28 73  1  0
 28 74  1  0
 28 75  1  0
 29 76  1  0
 29 77  1  0
 30 78  1  0
 30 79  1  0
 32 80  1  0
 32 81  1  0
 32 82  1  0
M  END
>  <meeko>  (16) 
{"is_sidechain": [false], "intermolecular_energy": 2.731, "internal_energy": -0.839}

$$$$
EPH_relaxed_0001_pdb2pqr_Repair_12_r2_0001_out
     RDKit          3D

 82 86  0  0  0  0  0  0  0  0999 V2000
   -0.0690    9.3120   -4.1930 C   0  0  0  0  0  0  0  0  0  0  0  0
    0.1010    9.5220   -2.6860 C   0  0  2  0  0  0  0  0  0  0  0  0
   -0.6890    8.4860   -1.8620 C   0  0  0  0  0  0  0  0  0  0  0  0
   -2.2040    8.5570   -2.0740 C   0  0  0  0  0  0  0  0  0  0  0  0
   -2.7430    7.2860   -2.6560 C   0  0  2  0  0  0  0  0  0  0  0  0
   -3.8000    7.4640   -3.6070 O   0  0  0  0  0  0  0  0  0  0  0  0
   -4.1480    6.7760   -2.3950 C   0  0  0  0  0  0  0  0  0  0  0  0
   -5.1010    7.5280   -1.5200 C   0  0  0  0  0  0  0  0  0  0  0  0
   -4.4270    5.3180   -2.5880 C   0  0  0  0  0  0  0  0  0  0  0  0
   -0.3340   10.9320   -2.3050 C   0  0  1  0  0  0  0  0  0  0  0  0
   -1.5490   10.9420   -1.3400 C   0  0  0  0  0  0  0  0  0  0  0  0
   -1.3520   12.1470   -0.3850 C   0  0  0  0  0  0  0  0  0  0  0  0
   -0.2210   12.9780   -1.0340 C   0  0  1  0  0  0  0  0  0  0  0  0
   -0.9260   13.8140   -2.1480 C   0  0  0  0  0  0  0  0  0  0  0  0
    0.6100   13.8860   -0.0700 C   0  0  2  0  0  0  0  0  0  0  0  0
   -0.1910   14.9930    0.6370 C   0  0  0  0  0  0  0  0  0  0  0  0
   -0.2510   16.2980   -0.0870 C   0  0  0  0  0  0  0  0  0  0  0  0
    0.5440   16.6620   -1.1100 C   0  0  0  0  0  0  0  0  0  0  0  0
    1.6930   15.7580   -1.5750 C   0  0  1  0  0  0  0  0  0  0  0  0
    2.9770   16.6070   -1.7620 C   0  0  0  0  0  0  0  0  0  0  0  0
    2.7610   17.7990   -2.6900 C   0  0  0  0  0  0  0  0  0  0  0  0
    1.6510   18.7050   -2.1630 C   0  0  2  0  0  0  0  0  0  0  0  0
    2.0890   19.3070   -0.9400 O   0  0  0  0  0  0  0  0  0  0  0  0
    0.3090   17.9570   -1.9260 C   0  0  0  0  0  0  0  0  0  0  0  0
   -0.3160   17.5660   -3.2880 C   0  0  0  0  0  0  0  0  0  0  0  0
   -0.6810   18.9510   -1.2630 C   0  0  0  0  0  0  0  0  0  0  0  0
    1.9450   14.4530   -0.7030 C   0  0  1  0  0  0  0  0  0  0  0  0
    2.8970   14.7850    0.4870 C   0  0  0  0  0  0  0  0  0  0  0  0
    2.6910   13.3820   -1.5840 C   0  0  0  0  0  0  0  0  0  0  0  0
    1.8110   12.4370   -2.4230 C   0  0  0  0  0  0  0  0  0  0  0  0
    0.6990   11.8210   -1.5680 C   0  0  2  0  0  0  0  0  0  0  0  0
    1.3780   10.9550   -0.4520 C   0  0  0  0  0  0  0  0  0  0  0  0
   -0.7520    8.4683   -4.3709 H   0  0  0  0  0  0  0  0  0  0  0  0
   -0.4866   10.2235   -4.6454 H   0  0  0  0  0  0  0  0  0  0  0  0
    0.9095    9.0933   -4.6454 H   0  0  0  0  0  0  0  0  0  0  0  0
    1.1671    9.3859   -2.4517 H   0  0  0  0  0  0  0  0  0  0  0  0
   -0.3452    7.4806   -2.1467 H   0  0  0  0  0  0  0  0  0  0  0  0
   -0.5020    8.7087   -0.8011 H   0  0  0  0  0  0  0  0  0  0  0  0
   -2.6912    8.7399   -1.1049 H   0  0  0  0  0  0  0  0  0  0  0  0
   -2.4131    9.3733   -2.7811 H   0  0  0  0  0  0  0  0  0  0  0  0
   -1.7570    6.8047   -2.5780 H   0  0  0  0  0  0  0  0  0  0  0  0
   -4.8585    7.3366   -0.4643 H   0  0  0  0  0  0  0  0  0  0  0  0
   -5.0162    8.6052   -1.7263 H   0  0  0  0  0  0  0  0  0  0  0  0
   -6.1289    7.1950   -1.7263 H   0  0  0  0  0  0  0  0  0  0  0  0
   -4.5205    4.8295   -1.6068 H   0  0  0  0  0  0  0  0  0  0  0  0
   -5.3649    5.1953   -3.1495 H   0  0  0  0  0  0  0  0  0  0  0  0
   -3.6006    4.8577   -3.1495 H   0  0  0  0  0  0  0  0  0  0  0  0
   -0.5339   11.3398   -3.3069 H   0  0  0  0  0  0  0  0  0  0  0  0
   -2.4834   11.0582   -1.9087 H   0  0  0  0  0  0  0  0  0  0  0  0
   -1.6143    9.9989   -0.7775 H   0  0  0  0  0  0  0  0  0  0  0  0
   -2.2760   12.7393   -0.3115 H   0  0  0  0  0  0  0  0  0  0  0  0
   -1.1030   11.8315    0.6389 H   0  0  0  0  0  0  0  0  0  0  0  0
   -1.5687   14.5761   -1.6831 H   0  0  0  0  0  0  0  0  0  0  0  0
   -0.1664   14.3065   -2.7729 H   0  0  0  0  0  0  0  0  0  0  0  0
   -1.5396   13.1485   -2.7729 H   0  0  0  0  0  0  0  0  0  0  0  0
    0.9060   13.1806    0.7205 H   0  0  0  0  0  0  0  0  0  0  0  0
   -1.2212   14.6325    0.7740 H   0  0  0  0  0  0  0  0  0  0  0  0
    0.3349   15.1931    1.5822 H   0  0  0  0  0  0  0  0  0  0  0  0
   -1.0092   17.0230    0.2440 H   0  0  0  0  0  0  0  0  0  0  0  0
    1.3785   15.3400   -2.5426 H   0  0  0  0  0  0  0  0  0  0  0  0
    3.2995   16.9797   -0.7786 H   0  0  0  0  0  0  0  0  0  0  0  0
    3.7402   15.9611   -2.2206 H   0  0  0  0  0  0  0  0  0  0  0  0
    3.6950   18.3761   -2.7585 H   0  0  0  0  0  0  0  0  0  0  0  0
    2.4677   17.4240   -3.6817 H   0  0  0  0  0  0  0  0  0  0  0  0
    1.4536   19.4659   -2.9324 H   0  0  0  0  0  0  0  0  0  0  0  0
    2.4210   18.5970   -0.3660 H   0  0  0  0  0  0  0  0  0  0  0  0
   -1.2372   16.9897   -3.1168 H   0  0  0  0  0  0  0  0  0  0  0  0
   -0.5537   18.4767   -3.8573 H   0  0  0  0  0  0  0  0  0  0  0  0
    0.3990   16.9539   -3.8573 H   0  0  0  0  0  0  0  0  0  0  0  0
   -0.6022   18.8719   -0.1687 H   0  0  0  0  0  0  0  0  0  0  0  0
   -0.4349   19.9767   -1.5752 H   0  0  0  0  0  0  0  0  0  0  0  0
   -1.7077   18.7091   -1.5752 H   0  0  0  0  0  0  0  0  0  0  0  0
    2.3737   14.6025    1.4372 H   0  0  0  0  0  0  0  0  0  0  0  0
    3.7901   14.1453    0.4316 H   0  0  0  0  0  0  0  0  0  0  0  0
    3.1986   15.8414    0.4316 H   0  0  0  0  0  0  0  0  0  0  0  0
    3.3522   13.9233   -2.2767 H   0  0  0  0  0  0  0  0  0  0  0  0
    3.2096   12.7298   -0.8658 H   0  0  0  0  0  0  0  0  0  0  0  0
    1.3575   13.0055   -3.2483 H   0  0  0  0  0  0  0  0  0  0  0  0
    2.4420   11.6260   -2.8157 H   0  0  0  0  0  0  0  0  0  0  0  0
    1.0812   11.3335    0.5373 H   0  0  0  0  0  0  0  0  0  0  0  0
    1.0579    9.9077   -0.5550 H   0  0  0  0  0  0  0  0  0  0  0  0
    2.4715   11.0160   -0.5550 H   0  0  0  0  0  0  0  0  0  0  0  0
  1  2  1  0
  2  3  1  0
  3  4  1  0
  4  5  1  0
  5  6  1  0
  6  7  1  0
  7  8  1  0
  7  9  1  0
  2 10  1  0
 10 11  1  0
 11 12  1  0
 12 13  1  0
 13 14  1  6
 13 15  1  0
 15 16  1  0
 16 17  1  0
 17 18  2  0
 18 19  1  0
 19 20  1  0
 20 21  1  0
 21 22  1  0
 22 23  1  0
 22 24  1  0
 24 25  1  0
 24 26  1  0
 19 27  1  0
 27 28  1  1
 27 29  1  0
 29 30  1  0
 30 31  1  0
 31 32  1  1
  7  5  1  0
 31 10  1  0
 31 13  1  0
 27 15  1  0
 24 18  1  0
  1 33  1  0
  1 34  1  0
  1 35  1  0
  2 36  1  6
  3 37  1  0
  3 38  1  0
  4 39  1  0
  4 40  1  0
  5 41  1  6
  8 42  1  0
  8 43  1  0
  8 44  1  0
  9 45  1  0
  9 46  1  0
  9 47  1  0
 10 48  1  6
 11 49  1  0
 11 50  1  0
 12 51  1  0
 12 52  1  0
 14 53  1  0
 14 54  1  0
 14 55  1  0
 15 56  1  1
 16 57  1  0
 16 58  1  0
 17 59  1  0
 19 60  1  6
 20 61  1  0
 20 62  1  0
 21 63  1  0
 21 64  1  0
 22 65  1  6
 23 66  1  0
 25 67  1  0
 25 68  1  0
 25 69  1  0
 26 70  1  0
 26 71  1  0
 26 72  1  0
 28 73  1  0
 28 74  1  0
 28 75  1  0
 29 76  1  0
 29 77  1  0
 30 78  1  0
 30 79  1  0
 32 80  1  0
 32 81  1  0
 32 82  1  0
M  END
>  <meeko>  (17) 
{"is_sidechain": [false], "intermolecular_energy": 2.731, "internal_energy": -0.839}

$$$$
EPH_relaxed_0001_pdb2pqr_Repair_12_r2_0001_out
     RDKit          3D

 82 86  0  0  0  0  0  0  0  0999 V2000
    0.2590    9.8900   -4.6270 C   0  0  0  0  0  0  0  0  0  0  0  0
    1.3510   10.6310   -3.8500 C   0  0  2  0  0  0  0  0  0  0  0  0
    1.8440    9.8270   -2.6310 C   0  0  0  0  0  0  0  0  0  0  0  0
    0.8670    8.7410   -2.1740 C   0  0  0  0  0  0  0  0  0  0  0  0
   -0.0500    9.2380   -1.0970 C   0  0  2  0  0  0  0  0  0  0  0  0
   -0.6080    8.2120   -0.2660 O   0  0  0  0  0  0  0  0  0  0  0  0
   -1.5400    8.9530   -1.0700 C   0  0  0  0  0  0  0  0  0  0  0  0
   -2.1990    8.1420   -2.1410 C   0  0  0  0  0  0  0  0  0  0  0  0
   -2.4280    9.8630   -0.2800 C   0  0  0  0  0  0  0  0  0  0  0  0
    0.8360   11.9940   -3.4020 C   0  0  1  0  0  0  0  0  0  0  0  0
   -0.6820   11.9830   -3.0800 C   0  0  0  0  0  0  0  0  0  0  0  0
   -0.8970   12.9650   -1.9000 C   0  0  0  0  0  0  0  0  0  0  0  0
    0.4310   13.7510   -1.8000 C   0  0  1  0  0  0  0  0  0  0  0  0
    0.3290   14.8530   -2.9010 C   0  0  0  0  0  0  0  0  0  0  0  0
    0.7700   14.3620   -0.4010 C   0  0  2  0  0  0  0  0  0  0  0  0
   -0.2280   15.4160    0.1090 C   0  0  0  0  0  0  0  0  0  0  0  0
    0.0850   16.8260   -0.2700 C   0  0  0  0  0  0  0  0  0  0  0  0
    1.2660   17.2650   -0.7430 C   0  0  0  0  0  0  0  0  0  0  0  0
    2.4720   16.3220   -0.8480 C   0  0  1  0  0  0  0  0  0  0  0  0
    3.7300   17.0240   -0.2740 C   0  0  0  0  0  0  0  0  0  0  0  0
    3.9910   18.3800   -0.9230 C   0  0  0  0  0  0  0  0  0  0  0  0
    2.7930   19.3090   -0.7470 C   0  0  2  0  0  0  0  0  0  0  0  0
    2.6540   19.6230    0.6420 O   0  0  0  0  0  0  0  0  0  0  0  0
    1.4650   18.7030   -1.2810 C   0  0  0  0  0  0  0  0  0  0  0  0
    1.5050   18.6430   -2.8280 C   0  0  0  0  0  0  0  0  0  0  0  0
    0.3140   19.6790   -0.9150 C   0  0  0  0  0  0  0  0  0  0  0  0
    2.2640   14.8620   -0.2560 C   0  0  1  0  0  0  0  0  0  0  0  0
    2.5900   14.8540    1.2690 C   0  0  0  0  0  0  0  0  0  0  0  0
    3.2920   13.8810   -0.9350 C   0  0  0  0  0  0  0  0  0  0  0  0
    2.8520   13.2160   -2.2530 C   0  0  0  0  0  0  0  0  0  0  0  0
    1.4560   12.6010   -2.1180 C   0  0  2  0  0  0  0  0  0  0  0  0
    1.5330   11.4730   -1.0340 C   0  0  0  0  0  0  0  0  0  0  0  0
   -0.4379    9.4171   -3.9193 H   0  0  0  0  0  0  0  0  0  0  0  0
   -0.2891   10.6035   -5.2599 H   0  0  0  0  0  0  0  0  0  0  0  0
    0.7196    9.1171   -5.2599 H   0  0  0  0  0  0  0  0  0  0  0  0
    2.2081   10.7616   -4.5270 H   0  0  0  0  0  0  0  0  0  0  0  0
    2.7982    9.3472   -2.8943 H   0  0  0  0  0  0  0  0  0  0  0  0
    1.9473   10.5376   -1.7977 H   0  0  0  0  0  0  0  0  0  0  0  0
    0.2636    8.4189   -3.0355 H   0  0  0  0  0  0  0  0  0  0  0  0
    1.4517    7.9029   -1.7669 H   0  0  0  0  0  0  0  0  0  0  0  0
    0.5243   10.1717   -1.0057 H   0  0  0  0  0  0  0  0  0  0  0  0
   -2.8286    7.3672   -1.6792 H   0  0  0  0  0  0  0  0  0  0  0  0
   -2.8235    8.7977   -2.7656 H   0  0  0  0  0  0  0  0  0  0  0  0
   -1.4294    7.6649   -2.7656 H   0  0  0  0  0  0  0  0  0  0  0  0
   -2.2633    9.6942    0.7944 H   0  0  0  0  0  0  0  0  0  0  0  0
   -2.1938   10.9090   -0.5269 H   0  0  0  0  0  0  0  0  0  0  0  0
   -3.4795    9.6545   -0.5269 H   0  0  0  0  0  0  0  0  0  0  0  0
    1.1197   12.5955   -4.2782 H   0  0  0  0  0  0  0  0  0  0  0  0
   -1.2575   12.3134   -3.9572 H   0  0  0  0  0  0  0  0  0  0  0  0
   -1.0224   10.9704   -2.8177 H   0  0  0  0  0  0  0  0  0  0  0  0
   -1.7360   13.6451   -2.1086 H   0  0  0  0  0  0  0  0  0  0  0  0
   -1.1450   12.4440   -0.9635 H   0  0  0  0  0  0  0  0  0  0  0  0
    0.2376   15.8402   -2.4244 H   0  0  0  0  0  0  0  0  0  0  0  0
    1.2331   14.8305   -3.5272 H   0  0  0  0  0  0  0  0  0  0  0  0
   -0.5556   14.6649   -3.5272 H   0  0  0  0  0  0  0  0  0  0  0  0
    0.6581   13.4960    0.2679 H   0  0  0  0  0  0  0  0  0  0  0  0
   -1.2206   15.1678   -0.2948 H   0  0  0  0  0  0  0  0  0  0  0  0
   -0.1771   15.3774    1.2071 H   0  0  0  0  0  0  0  0  0  0  0  0
   -0.7178   17.5688   -0.1526 H   0  0  0  0  0  0  0  0  0  0  0  0
    2.6117   16.1255   -1.9213 H   0  0  0  0  0  0  0  0  0  0  0  0
    3.5890   17.1718    0.8069 H   0  0  0  0  0  0  0  0  0  0  0  0
    4.5968   16.3805   -0.4851 H   0  0  0  0  0  0  0  0  0  0  0  0
    4.8743   18.8390   -0.4549 H   0  0  0  0  0  0  0  0  0  0  0  0
    4.1614   18.2271   -1.9989 H   0  0  0  0  0  0  0  0  0  0  0  0
    2.9865   20.2140   -1.3416 H   0  0  0  0  0  0  0  0  0  0  0  0
    3.5470   19.7500    1.0060 H   0  0  0  0  0  0  0  0  0  0  0  0
    2.0891   17.7668   -3.1460 H   0  0  0  0  0  0  0  0  0  0  0  0
    0.4798   18.5616   -3.2184 H   0  0  0  0  0  0  0  0  0  0  0  0
    1.9744   19.5580   -3.2184 H   0  0  0  0  0  0  0  0  0  0  0  0
    0.2287   19.7514    0.1793 H   0  0  0  0  0  0  0  0  0  0  0  0
    0.5299   20.6735   -1.3325 H   0  0  0  0  0  0  0  0  0  0  0  0
   -0.6319   19.3035   -1.3325 H   0  0  0  0  0  0  0  0  0  0  0  0
    1.6528   14.8770    1.8444 H   0  0  0  0  0  0  0  0  0  0  0  0
    3.1515   13.9418    1.5191 H   0  0  0  0  0  0  0  0  0  0  0  0
    3.1956   15.7376    1.5191 H   0  0  0  0  0  0  0  0  0  0  0  0
    4.2100   14.4511   -1.1404 H   0  0  0  0  0  0  0  0  0  0  0  0
    3.4132   13.0526   -0.2215 H   0  0  0  0  0  0  0  0  0  0  0  0
    2.8357   13.9737   -3.0503 H   0  0  0  0  0  0  0  0  0  0  0  0
    3.5657   12.4152   -2.4969 H   0  0  0  0  0  0  0  0  0  0  0  0
    1.5021   11.9250   -0.0316 H   0  0  0  0  0  0  0  0  0  0  0  0
    0.6794   10.7897   -1.1545 H   0  0  0  0  0  0  0  0  0  0  0  0
    2.4715   10.9121   -1.1545 H   0  0  0  0  0  0  0  0  0  0  0  0
  1  2  1  0
  2  3  1  0
  3  4  1  0
  4  5  1  0
  5  6  1  0
  6  7  1  0
  7  8  1  0
  7  9  1  0
  2 10  1  0
 10 11  1  0
 11 12  1  0
 12 13  1  0
 13 14  1  6
 13 15  1  0
 15 16  1  0
 16 17  1  0
 17 18  2  0
 18 19  1  0
 19 20  1  0
 20 21  1  0
 21 22  1  0
 22 23  1  0
 22 24  1  0
 24 25  1  0
 24 26  1  0
 19 27  1  0
 27 28  1  1
 27 29  1  0
 29 30  1  0
 30 31  1  0
 31 32  1  1
  7  5  1  0
 31 10  1  0
 31 13  1  0
 27 15  1  0
 24 18  1  0
  1 33  1  0
  1 34  1  0
  1 35  1  0
  2 36  1  6
  3 37  1  0
  3 38  1  0
  4 39  1  0
  4 40  1  0
  5 41  1  1
  8 42  1  0
  8 43  1  0
  8 44  1  0
  9 45  1  0
  9 46  1  0
  9 47  1  0
 10 48  1  6
 11 49  1  0
 11 50  1  0
 12 51  1  0
 12 52  1  0
 14 53  1  0
 14 54  1  0
 14 55  1  0
 15 56  1  1
 16 57  1  0
 16 58  1  0
 17 59  1  0
 19 60  1  6
 20 61  1  0
 20 62  1  0
 21 63  1  0
 21 64  1  0
 22 65  1  6
 23 66  1  0
 25 67  1  0
 25 68  1  0
 25 69  1  0
 26 70  1  0
 26 71  1  0
 26 72  1  0
 28 73  1  0
 28 74  1  0
 28 75  1  0
 29 76  1  0
 29 77  1  0
 30 78  1  0
 30 79  1  0
 32 80  1  0
 32 81  1  0
 32 82  1  0
M  END
>  <meeko>  (18) 
{"is_sidechain": [false], "intermolecular_energy": 2.731, "internal_energy": -0.839}

$$$$
EPH_relaxed_0001_pdb2pqr_Repair_12_r2_0001_out
     RDKit          3D

 82 86  0  0  0  0  0  0  0  0999 V2000
   -3.0920   10.7010   -0.8140 C   0  0  0  0  0  0  0  0  0  0  0  0
   -1.5880   10.6060   -1.0850 C   0  0  2  0  0  0  0  0  0  0  0  0
   -0.9720    9.3210   -0.4960 C   0  0  0  0  0  0  0  0  0  0  0  0
   -0.2250    8.4690   -1.5250 C   0  0  0  0  0  0  0  0  0  0  0  0
    0.7670    9.2820   -2.3020 C   0  0  2  0  0  0  0  0  0  0  0  0
    1.9670    8.5820   -2.6570 O   0  0  0  0  0  0  0  0  0  0  0  0
    2.1230    9.6910   -1.7570 C   0  0  0  0  0  0  0  0  0  0  0  0
    2.5610    9.3000   -0.3800 C   0  0  0  0  0  0  0  0  0  0  0  0
    2.8130   10.8700   -2.3680 C   0  0  0  0  0  0  0  0  0  0  0  0
   -0.8800   11.8300   -0.5180 C   0  0  1  0  0  0  0  0  0  0  0  0
    0.2580   11.4580    0.4700 C   0  0  0  0  0  0  0  0  0  0  0  0
    1.3780   12.5130    0.2800 C   0  0  0  0  0  0  0  0  0  0  0  0
    0.7200   13.6350   -0.5570 C   0  0  1  0  0  0  0  0  0  0  0  0
   -0.0820   14.4880    0.4750 C   0  0  0  0  0  0  0  0  0  0  0  0
    1.6870   14.5190   -1.4090 C   0  0  2  0  0  0  0  0  0  0  0  0
    2.7140   15.3300   -0.5990 C   0  0  0  0  0  0  0  0  0  0  0  0
    2.2720   16.6970   -0.1960 C   0  0  0  0  0  0  0  0  0  0  0  0
    1.2190   17.3610   -0.7070 C   0  0  0  0  0  0  0  0  0  0  0  0
    0.4060   16.7750   -1.8690 C   0  0  1  0  0  0  0  0  0  0  0  0
    0.1740   17.8700   -2.9430 C   0  0  0  0  0  0  0  0  0  0  0  0
   -0.4620   19.1310   -2.3650 C   0  0  0  0  0  0  0  0  0  0  0  0
    0.4040   19.7170   -1.2530 C   0  0  2  0  0  0  0  0  0  0  0  0
    1.6290   20.1890   -1.8230 O   0  0  0  0  0  0  0  0  0  0  0  0
    0.7140   18.7010   -0.1170 C   0  0  0  0  0  0  0  0  0  0  0  0
   -0.5740   18.4200    0.6950 C   0  0  0  0  0  0  0  0  0  0  0  0
    1.7090   19.3740    0.8660 C   0  0  0  0  0  0  0  0  0  0  0  0
    0.9610   15.4200   -2.4880 C   0  0  1  0  0  0  0  0  0  0  0  0
    2.0170   15.7330   -3.5920 C   0  0  0  0  0  0  0  0  0  0  0  0
   -0.2180   14.6620   -3.2050 C   0  0  0  0  0  0  0  0  0  0  0  0
   -1.0630   13.7120   -2.3350 C   0  0  0  0  0  0  0  0  0  0  0  0
   -0.1690   12.7700   -1.5240 C   0  0  2  0  0  0  0  0  0  0  0  0
    0.6340   11.8830   -2.5350 C   0  0  0  0  0  0  0  0  0  0  0  0
   -3.2690   10.7122    0.2716 H   0  0  0  0  0  0  0  0  0  0  0  0
   -3.4871   11.6259   -1.2595 H   0  0  0  0  0  0  0  0  0  0  0  0
   -3.6004    9.8332   -1.2595 H   0  0  0  0  0  0  0  0  0  0  0  0
   -1.4498   10.5684   -2.1756 H   0  0  0  0  0  0  0  0  0  0  0  0
   -0.2653    9.6066    0.2971 H   0  0  0  0  0  0  0  0  0  0  0  0
   -1.8044    8.7102   -0.1165 H   0  0  0  0  0  0  0  0  0  0  0  0
    0.3079    7.6622   -1.0005 H   0  0  0  0  0  0  0  0  0  0  0  0
   -0.9620    8.0598   -2.2317 H   0  0  0  0  0  0  0  0  0  0  0  0
   -0.0409    9.8571   -2.7780 H   0  0  0  0  0  0  0  0  0  0  0  0
    1.9566    9.8395    0.3641 H   0  0  0  0  0  0  0  0  0  0  0  0
    2.4260    8.2166   -0.2461 H   0  0  0  0  0  0  0  0  0  0  0  0
    3.6222    9.5566   -0.2461 H   0  0  0  0  0  0  0  0  0  0  0  0
    3.1959   11.5243   -1.5710 H   0  0  0  0  0  0  0  0  0  0  0  0
    3.6503   10.5225   -2.9911 H   0  0  0  0  0  0  0  0  0  0  0  0
    2.1000   11.4298   -2.9911 H   0  0  0  0  0  0  0  0  0  0  0  0
   -1.7389   12.3455   -0.0634 H   0  0  0  0  0  0  0  0  0  0  0  0
   -0.1151   11.4837    1.5045 H   0  0  0  0  0  0  0  0  0  0  0  0
    0.6343   10.4430    0.2748 H   0  0  0  0  0  0  0  0  0  0  0  0
    1.7149   12.9010    1.2526 H   0  0  0  0  0  0  0  0  0  0  0  0
    2.2675   12.0928   -0.2121 H   0  0  0  0  0  0  0  0  0  0  0  0
    0.1993   14.1888    1.4955 H   0  0  0  0  0  0  0  0  0  0  0  0
    0.1491   15.5534    0.3285 H   0  0  0  0  0  0  0  0  0  0  0  0
   -1.1596   14.3230    0.3285 H   0  0  0  0  0  0  0  0  0  0  0  0
    2.2688   13.7663   -1.9613 H   0  0  0  0  0  0  0  0  0  0  0  0
    2.9481   14.7652    0.3154 H   0  0  0  0  0  0  0  0  0  0  0  0
    3.5798   15.4734   -1.2622 H   0  0  0  0  0  0  0  0  0  0  0  0
    2.8565   17.2051    0.5851 H   0  0  0  0  0  0  0  0  0  0  0  0
   -0.5580   16.4638   -1.4402 H   0  0  0  0  0  0  0  0  0  0  0  0
    1.1432   18.1368   -3.3897 H   0  0  0  0  0  0  0  0  0  0  0  0
   -0.5185   17.4605   -3.6932 H   0  0  0  0  0  0  0  0  0  0  0  0
   -0.5741   19.8772   -3.1654 H   0  0  0  0  0  0  0  0  0  0  0  0
   -1.4439   18.8684   -1.9444 H   0  0  0  0  0  0  0  0  0  0  0  0
   -0.1631   20.5392   -0.7923 H   0  0  0  0  0  0  0  0  0  0  0  0
    2.3130   20.1390   -1.1330 H   0  0  0  0  0  0  0  0  0  0  0  0
   -0.3476   18.4694    1.7703 H   0  0  0  0  0  0  0  0  0  0  0  0
   -1.3362   19.1730    0.4458 H   0  0  0  0  0  0  0  0  0  0  0  0
   -0.9533   17.4180    0.4458 H   0  0  0  0  0  0  0  0  0  0  0  0
    1.4000   19.1650    1.9008 H   0  0  0  0  0  0  0  0  0  0  0  0
    2.7193   18.9730    0.6969 H   0  0  0  0  0  0  0  0  0  0  0  0
    1.7129   20.4609    0.6969 H   0  0  0  0  0  0  0  0  0  0  0  0
    2.9692   16.0152   -3.1191 H   0  0  0  0  0  0  0  0  0  0  0  0
    2.1686   14.8412   -4.2178 H   0  0  0  0  0  0  0  0  0  0  0  0
    1.6581   16.5634   -4.2178 H   0  0  0  0  0  0  0  0  0  0  0  0
   -0.8954   15.4206   -3.6241 H   0  0  0  0  0  0  0  0  0  0  0  0
    0.2668   14.0150   -3.9509 H   0  0  0  0  0  0  0  0  0  0  0  0
   -1.6778   14.3079   -1.6444 H   0  0  0  0  0  0  0  0  0  0  0  0
   -1.7018   13.1070   -2.9953 H   0  0  0  0  0  0  0  0  0  0  0  0
    1.2712   11.1792   -1.9795 H   0  0  0  0  0  0  0  0  0  0  0  0
   -0.0685   11.3207   -3.1677 H   0  0  0  0  0  0  0  0  0  0  0  0
    1.2632   12.5263   -3.1677 H   0  0  0  0  0  0  0  0  0  0  0  0
  1  2  1  0
  2  3  1  0
  3  4  1  0
  4  5  1  0
  5  6  1  0
  6  7  1  0
  7  8  1  0
  7  9  1  0
  2 10  1  0
 10 11  1  0
 11 12  1  0
 12 13  1  0
 13 14  1  1
 13 15  1  0
 15 16  1  0
 16 17  1  0
 17 18  2  0
 18 19  1  0
 19 20  1  0
 20 21  1  0
 21 22  1  0
 22 23  1  0
 22 24  1  0
 24 25  1  0
 24 26  1  0
 19 27  1  0
 27 28  1  6
 27 29  1  0
 29 30  1  0
 30 31  1  0
 31 32  1  6
  7  5  1  0
 31 10  1  0
 31 13  1  0
 27 15  1  0
 24 18  1  0
  1 33  1  0
  1 34  1  0
  1 35  1  0
  2 36  1  6
  3 37  1  0
  3 38  1  0
  4 39  1  0
  4 40  1  0
  5 41  1  6
  8 42  1  0
  8 43  1  0
  8 44  1  0
  9 45  1  0
  9 46  1  0
  9 47  1  0
 10 48  1  1
 11 49  1  0
 11 50  1  0
 12 51  1  0
 12 52  1  0
 14 53  1  0
 14 54  1  0
 14 55  1  0
 15 56  1  6
 16 57  1  0
 16 58  1  0
 17 59  1  0
 19 60  1  1
 20 61  1  0
 20 62  1  0
 21 63  1  0
 21 64  1  0
 22 65  1  1
 23 66  1  0
 25 67  1  0
 25 68  1  0
 25 69  1  0
 26 70  1  0
 26 71  1  0
 26 72  1  0
 28 73  1  0
 28 74  1  0
 28 75  1  0
 29 76  1  0
 29 77  1  0
 30 78  1  0
 30 79  1  0
 32 80  1  0
 32 81  1  0
 32 82  1  0
M  END
>  <meeko>  (19) 
{"is_sidechain": [false], "intermolecular_energy": 2.731, "internal_energy": -0.839}

$$$$
