EPH_relaxed_0001_pdb2pqr_Repair_407_r2_0001_out
     RDKit          3D

 82 86  0  0  0  0  0  0  0  0999 V2000
   -1.8020    8.5770   -1.9520 C   0  0  0  0  0  0  0  0  0  0  0  0
   -2.1820    9.0770   -0.5550 C   0  0  2  0  0  0  0  0  0  0  0  0
   -3.6780    9.4370   -0.4540 C   0  0  0  0  0  0  0  0  0  0  0  0
   -4.5950    8.2200   -0.3050 C   0  0  0  0  0  0  0  0  0  0  0  0
   -5.2680    7.8710   -1.5980 C   0  0  2  0  0  0  0  0  0  0  0  0
   -6.4070    8.6800   -1.9180 O   0  0  0  0  0  0  0  0  0  0  0  0
   -6.6660    7.2860   -1.6820 C   0  0  0  0  0  0  0  0  0  0  0  0
   -7.4740    7.0160   -0.4520 C   0  0  0  0  0  0  0  0  0  0  0  0
   -7.0510    6.5280   -2.9140 C   0  0  0  0  0  0  0  0  0  0  0  0
   -1.3300   10.2860   -0.1860 C   0  0  1  0  0  0  0  0  0  0  0  0
   -0.3350    9.9860    0.9670 C   0  0  0  0  0  0  0  0  0  0  0  0
    0.9470   10.8070    0.6760 C   0  0  0  0  0  0  0  0  0  0  0  0
    0.5330   11.7970   -0.4380 C   0  0  1  0  0  0  0  0  0  0  0  0
   -0.1940   12.9590    0.3080 C   0  0  0  0  0  0  0  0  0  0  0  0
    1.6840   12.3280   -1.3530 C   0  0  2  0  0  0  0  0  0  0  0  0
    2.7670   13.1460   -0.6300 C   0  0  0  0  0  0  0  0  0  0  0  0
    2.5190   14.6170   -0.5650 C   0  0  0  0  0  0  0  0  0  0  0  0
    1.6220   15.2920   -1.3070 C   0  0  0  0  0  0  0  0  0  0  0  0
    0.8080   14.5830   -2.3970 C   0  0  1  0  0  0  0  0  0  0  0  0
    0.8250   15.4360   -3.6930 C   0  0  0  0  0  0  0  0  0  0  0  0
    0.3580   16.8690   -3.4560 C   0  0  0  0  0  0  0  0  0  0  0  0
    1.2280   17.5600   -2.4080 C   0  0  2  0  0  0  0  0  0  0  0  0
    2.5470   17.7200   -2.9370 O   0  0  0  0  0  0  0  0  0  0  0  0
    1.2950   16.7860   -1.0610 C   0  0  0  0  0  0  0  0  0  0  0  0
   -0.0740   16.8720   -0.3430 C   0  0  0  0  0  0  0  0  0  0  0  0
    2.3140   17.5140   -0.1430 C   0  0  0  0  0  0  0  0  0  0  0  0
    1.1830   13.0620   -2.6630 C   0  0  1  0  0  0  0  0  0  0  0  0
    2.3490   12.9740   -3.6950 C   0  0  0  0  0  0  0  0  0  0  0  0
   -0.0490   12.3360   -3.3220 C   0  0  0  0  0  0  0  0  0  0  0  0
   -1.0900   11.7270   -2.3640 C   0  0  0  0  0  0  0  0  0  0  0  0
   -0.4130   10.8730   -1.2890 C   0  0  2  0  0  0  0  0  0  0  0  0
    0.3080    9.6820   -2.0080 C   0  0  0  0  0  0  0  0  0  0  0  0
   -1.1387    7.7042   -1.8612 H   0  0  0  0  0  0  0  0  0  0  0  0
   -2.7123    8.2904   -2.4990 H   0  0  0  0  0  0  0  0  0  0  0  0
   -1.2821    9.3773   -2.4990 H   0  0  0  0  0  0  0  0  0  0  0  0
   -1.9909    8.2571    0.1530 H   0  0  0  0  0  0  0  0  0  0  0  0
   -3.8202   10.0882    0.4210 H   0  0  0  0  0  0  0  0  0  0  0  0
   -3.9535    9.9338   -1.3960 H   0  0  0  0  0  0  0  0  0  0  0  0
   -3.9950    7.3603    0.0279 H   0  0  0  0  0  0  0  0  0  0  0  0
   -5.3741    8.4660    0.4315 H   0  0  0  0  0  0  0  0  0  0  0  0
   -4.3099    7.5595   -2.0397 H   0  0  0  0  0  0  0  0  0  0  0  0
   -6.8634    7.2200    0.4399 H   0  0  0  0  0  0  0  0  0  0  0  0
   -8.3610    7.6666   -0.4458 H   0  0  0  0  0  0  0  0  0  0  0  0
   -7.7917    5.9629   -0.4458 H   0  0  0  0  0  0  0  0  0  0  0  0
   -7.5319    5.5813   -2.6267 H   0  0  0  0  0  0  0  0  0  0  0  0
   -7.7528    7.1296   -3.5103 H   0  0  0  0  0  0  0  0  0  0  0  0
   -6.1513    6.3161   -3.5103 H   0  0  0  0  0  0  0  0  0  0  0  0
   -2.1257   11.0036    0.0631 H   0  0  0  0  0  0  0  0  0  0  0  0
   -0.7691   10.2903    1.9308 H   0  0  0  0  0  0  0  0  0  0  0  0
   -0.1107    8.9107    1.0255 H   0  0  0  0  0  0  0  0  0  0  0  0
    1.2732   11.3493    1.5757 H   0  0  0  0  0  0  0  0  0  0  0  0
    1.7909   10.1692    0.3742 H   0  0  0  0  0  0  0  0  0  0  0  0
   -0.1019   12.8117    1.3942 H   0  0  0  0  0  0  0  0  0  0  0  0
    0.2651   13.9185    0.0278 H   0  0  0  0  0  0  0  0  0  0  0  0
   -1.2577   12.9658    0.0278 H   0  0  0  0  0  0  0  0  0  0  0  0
    2.1774   11.3993   -1.6757 H   0  0  0  0  0  0  0  0  0  0  0  0
    2.8464   12.7690    0.4003 H   0  0  0  0  0  0  0  0  0  0  0  0
    3.6877   13.0186   -1.2183 H   0  0  0  0  0  0  0  0  0  0  0  0
    3.1203   15.1979    0.1498 H   0  0  0  0  0  0  0  0  0  0  0  0
   -0.2195   14.5107   -2.0110 H   0  0  0  0  0  0  0  0  0  0  0  0
    1.8522   15.4602   -4.0858 H   0  0  0  0  0  0  0  0  0  0  0  0
    0.1293   14.9718   -4.4075 H   0  0  0  0  0  0  0  0  0  0  0  0
    0.4196   17.4287   -4.4009 H   0  0  0  0  0  0  0  0  0  0  0  0
   -0.6793   16.8445   -3.0906 H   0  0  0  0  0  0  0  0  0  0  0  0
    0.7679   18.5345   -2.1873 H   0  0  0  0  0  0  0  0  0  0  0  0
    2.5250   18.4640   -3.5630 H   0  0  0  0  0  0  0  0  0  0  0  0
    0.0818   16.8622    0.7459 H   0  0  0  0  0  0  0  0  0  0  0  0
   -0.5819   17.8038   -0.6324 H   0  0  0  0  0  0  0  0  0  0  0  0
   -0.6945   16.0111   -0.6324 H   0  0  0  0  0  0  0  0  0  0  0  0
    2.0557   17.3295    0.9102 H   0  0  0  0  0  0  0  0  0  0  0  0
    3.3262   17.1333   -0.3444 H   0  0  0  0  0  0  0  0  0  0  0  0
    2.2820   18.5949   -0.3444 H   0  0  0  0  0  0  0  0  0  0  0  0
    3.3074   12.9017   -3.1601 H   0  0  0  0  0  0  0  0  0  0  0  0
    2.2134   12.0835   -4.3264 H   0  0  0  0  0  0  0  0  0  0  0  0
    2.3486   13.8747   -4.3264 H   0  0  0  0  0  0  0  0  0  0  0  0
   -0.5687   13.0705   -3.9548 H   0  0  0  0  0  0  0  0  0  0  0  0
    0.3780   11.4800   -3.8650 H   0  0  0  0  0  0  0  0  0  0  0  0
   -1.6502   12.5394   -1.8780 H   0  0  0  0  0  0  0  0  0  0  0  0
   -1.7682   11.0853   -2.9456 H   0  0  0  0  0  0  0  0  0  0  0  0
    0.7232    8.9962   -1.2548 H   0  0  0  0  0  0  0  0  0  0  0  0
   -0.4148    9.1417   -2.6370 H   0  0  0  0  0  0  0  0  0  0  0  0
    1.1218   10.0720   -2.6370 H   0  0  0  0  0  0  0  0  0  0  0  0
  1  2  1  0
  2  3  1  0
  3  4  1  0
  4  5  1  0
  5  6  1  0
  6  7  1  0
  7  8  1  0
  7  9  1  0
  2 10  1  0
 10 11  1  0
 11 12  1  0
 12 13  1  0
 13 14  1  1
 13 15  1  0
 15 16  1  0
 16 17  1  0
 17 18  2  0
 18 19  1  0
 19 20  1  0
 20 21  1  0
 21 22  1  0
 22 23  1  0
 22 24  1  0
 24 25  1  0
 24 26  1  0
 19 27  1  0
 27 28  1  6
 27 29  1  0
 29 30  1  0
 30 31  1  0
 31 32  1  6
  7  5  1  0
 31 10  1  0
 31 13  1  0
 27 15  1  0
 24 18  1  0
  1 33  1  0
  1 34  1  0
  1 35  1  0
  2 36  1  1
  3 37  1  0
  3 38  1  0
  4 39  1  0
  4 40  1  0
  5 41  1  6
  8 42  1  0
  8 43  1  0
  8 44  1  0
  9 45  1  0
  9 46  1  0
  9 47  1  0
 10 48  1  1
 11 49  1  0
 11 50  1  0
 12 51  1  0
 12 52  1  0
 14 53  1  0
 14 54  1  0
 14 55  1  0
 15 56  1  6
 16 57  1  0
 16 58  1  0
 17 59  1  0
 19 60  1  1
 20 61  1  0
 20 62  1  0
 21 63  1  0
 21 64  1  0
 22 65  1  1
 23 66  1  0
 25 67  1  0
 25 68  1  0
 25 69  1  0
 26 70  1  0
 26 71  1  0
 26 72  1  0
 28 73  1  0
 28 74  1  0
 28 75  1  0
 29 76  1  0
 29 77  1  0
 30 78  1  0
 30 79  1  0
 32 80  1  0
 32 81  1  0
 32 82  1  0
M  END
>  <meeko>  (1) 
{"is_sidechain": [false], "intermolecular_energy": 2.731, "internal_energy": -0.839}

$$$$
EPH_relaxed_0001_pdb2pqr_Repair_407_r2_0001_out
     RDKit          3D

 82 86  0  0  0  0  0  0  0  0999 V2000
    4.3260   17.0860   -0.5280 C   0  0  0  0  0  0  0  0  0  0  0  0
    2.9680   17.7580   -0.3060 C   0  0  2  0  0  0  0  0  0  0  0  0
    2.9360   18.5880    0.9930 C   0  0  0  0  0  0  0  0  0  0  0  0
    4.2860   18.6590    1.7120 C   0  0  0  0  0  0  0  0  0  0  0  0
    4.1470   19.2080    3.0990 C   0  0  2  0  0  0  0  0  0  0  0  0
    5.1250   20.1940    3.4530 O   0  0  0  0  0  0  0  0  0  0  0  0
    5.1630   18.9680    4.2000 C   0  0  0  0  0  0  0  0  0  0  0  0
    6.3920   18.1470    3.9610 C   0  0  0  0  0  0  0  0  0  0  0  0
    4.7240   19.1150    5.6230 C   0  0  0  0  0  0  0  0  0  0  0  0
    1.8660   16.7060   -0.2790 C   0  0  1  0  0  0  0  0  0  0  0  0
    0.4620   17.3030   -0.5680 C   0  0  0  0  0  0  0  0  0  0  0  0
   -0.3260   16.2280   -1.3610 C   0  0  0  0  0  0  0  0  0  0  0  0
    0.5160   14.9390   -1.2150 C   0  0  1  0  0  0  0  0  0  0  0  0
    0.1340   14.3670    0.1860 C   0  0  0  0  0  0  0  0  0  0  0  0
    0.3440   13.8700   -2.3420 C   0  0  2  0  0  0  0  0  0  0  0  0
   -1.0700   13.2760   -2.4670 C   0  0  0  0  0  0  0  0  0  0  0  0
   -1.3220   12.0510   -1.6530 C   0  0  0  0  0  0  0  0  0  0  0  0
   -0.3760   11.2860   -1.0770 C   0  0  0  0  0  0  0  0  0  0  0  0
    1.1140   11.5760   -1.3000 C   0  0  1  0  0  0  0  0  0  0  0  0
    1.8540   10.2530   -1.6290 C   0  0  0  0  0  0  0  0  0  0  0  0
    1.6200    9.1740   -0.5760 C   0  0  0  0  0  0  0  0  0  0  0  0
    0.1320    8.8730   -0.4250 C   0  0  2  0  0  0  0  0  0  0  0  0
   -0.3420    8.2700   -1.6330 O   0  0  0  0  0  0  0  0  0  0  0  0
   -0.7190   10.1330   -0.1010 C   0  0  0  0  0  0  0  0  0  0  0  0
   -0.4150   10.6100    1.3410 C   0  0  0  0  0  0  0  0  0  0  0  0
   -2.2140    9.7170   -0.1150 C   0  0  0  0  0  0  0  0  0  0  0  0
    1.4480   12.7360   -2.3330 C   0  0  1  0  0  0  0  0  0  0  0  0
    1.5040   12.1580   -3.7810 C   0  0  0  0  0  0  0  0  0  0  0  0
    2.8840   13.3010   -2.0250 C   0  0  0  0  0  0  0  0  0  0  0  0
    2.9760   14.4390   -0.9900 C   0  0  0  0  0  0  0  0  0  0  0  0
    1.9640   15.5460   -1.3020 C   0  0  2  0  0  0  0  0  0  0  0  0
    2.3370   16.1560   -2.6960 C   0  0  0  0  0  0  0  0  0  0  0  0
    4.7859   16.8584    0.4450 H   0  0  0  0  0  0  0  0  0  0  0  0
    4.1854   16.1535   -1.0942 H   0  0  0  0  0  0  0  0  0  0  0  0
    4.9821   17.7634   -1.0942 H   0  0  0  0  0  0  0  0  0  0  0  0
    2.8006   18.4505   -1.1441 H   0  0  0  0  0  0  0  0  0  0  0  0
    2.6215   19.6120    0.7431 H   0  0  0  0  0  0  0  0  0  0  0  0
    2.2339   18.0881    1.6765 H   0  0  0  0  0  0  0  0  0  0  0  0
    4.7124   17.6467    1.7704 H   0  0  0  0  0  0  0  0  0  0  0  0
    4.9434   19.3314    1.1414 H   0  0  0  0  0  0  0  0  0  0  0  0
    3.0545   19.0845    3.0636 H   0  0  0  0  0  0  0  0  0  0  0  0
    6.8306   17.8540    4.9263 H   0  0  0  0  0  0  0  0  0  0  0  0
    6.1253   17.2451    3.3906 H   0  0  0  0  0  0  0  0  0  0  0  0
    7.1231   18.7387    3.3906 H   0  0  0  0  0  0  0  0  0  0  0  0
    5.5516   18.8379    6.2925 H   0  0  0  0  0  0  0  0  0  0  0  0
    4.4340   20.1593    5.8113 H   0  0  0  0  0  0  0  0  0  0  0  0
    3.8637   18.4559    5.8113 H   0  0  0  0  0  0  0  0  0  0  0  0
    2.0051   16.3204    0.7418 H   0  0  0  0  0  0  0  0  0  0  0  0
   -0.0542   17.5316    0.3761 H   0  0  0  0  0  0  0  0  0  0  0  0
    0.5407   18.2385   -1.1413 H   0  0  0  0  0  0  0  0  0  0  0  0
   -1.3291   16.0870   -0.9323 H   0  0  0  0  0  0  0  0  0  0  0  0
   -0.4746   16.5118   -2.4133 H   0  0  0  0  0  0  0  0  0  0  0  0
    0.5613   15.0068    0.9722 H   0  0  0  0  0  0  0  0  0  0  0  0
   -0.9612   14.3443    0.2866 H   0  0  0  0  0  0  0  0  0  0  0  0
    0.5326   13.3467    0.2866 H   0  0  0  0  0  0  0  0  0  0  0  0
    0.5015   14.4622   -3.2555 H   0  0  0  0  0  0  0  0  0  0  0  0
   -1.7908   14.0459   -2.1543 H   0  0  0  0  0  0  0  0  0  0  0  0
   -1.1794   12.9703   -3.5180 H   0  0  0  0  0  0  0  0  0  0  0  0
   -2.3698   11.7474   -1.5117 H   0  0  0  0  0  0  0  0  0  0  0  0
    1.4894   11.9884   -0.3518 H   0  0  0  0  0  0  0  0  0  0  0  0
    1.4962    9.8811   -2.6004 H   0  0  0  0  0  0  0  0  0  0  0  0
    2.9322   10.4701   -1.6506 H   0  0  0  0  0  0  0  0  0  0  0  0
    2.1441    8.2556   -0.8790 H   0  0  0  0  0  0  0  0  0  0  0  0
    2.0047    9.5358    0.3889 H   0  0  0  0  0  0  0  0  0  0  0  0
    0.0195    8.1905    0.4303 H   0  0  0  0  0  0  0  0  0  0  0  0
   -0.4330    7.3160   -1.4690 H   0  0  0  0  0  0  0  0  0  0  0  0
   -0.8619    9.9087    2.0611 H   0  0  0  0  0  0  0  0  0  0  0  0
    0.6738   10.6473    1.4930 H   0  0  0  0  0  0  0  0  0  0  0  0
   -0.8410   11.6127    1.4930 H   0  0  0  0  0  0  0  0  0  0  0  0
   -2.5762    9.6162    0.9187 H   0  0  0  0  0  0  0  0  0  0  0  0
   -2.8035   10.4852   -0.6368 H   0  0  0  0  0  0  0  0  0  0  0  0
   -2.3220    8.7547   -0.6368 H   0  0  0  0  0  0  0  0  0  0  0  0
    1.6100   11.0641   -3.7353 H   0  0  0  0  0  0  0  0  0  0  0  0
    0.5768   12.4146   -4.3143 H   0  0  0  0  0  0  0  0  0  0  0  0
    2.3647   12.5878   -4.3143 H   0  0  0  0  0  0  0  0  0  0  0  0
    3.4982   12.4660   -1.6569 H   0  0  0  0  0  0  0  0  0  0  0  0
    3.2278   13.7442   -2.9712 H   0  0  0  0  0  0  0  0  0  0  0  0
    2.7682   14.0329    0.0110 H   0  0  0  0  0  0  0  0  0  0  0  0
    3.9883   14.8677   -1.0286 H   0  0  0  0  0  0  0  0  0  0  0  0
    2.9057   17.0860   -2.5489 H   0  0  0  0  0  0  0  0  0  0  0  0
    2.9498   15.4366   -3.2589 H   0  0  0  0  0  0  0  0  0  0  0  0
    1.4174   16.3737   -3.2589 H   0  0  0  0  0  0  0  0  0  0  0  0
  1  2  1  0
  2  3  1  0
  3  4  1  0
  4  5  1  0
  5  6  1  0
  6  7  1  0
  7  8  1  0
  7  9  1  0
  2 10  1  0
 10 11  1  0
 11 12  1  0
 12 13  1  0
 13 14  1  1
 13 15  1  0
 15 16  1  0
 16 17  1  0
 17 18  2  0
 18 19  1  0
 19 20  1  0
 20 21  1  0
 21 22  1  0
 22 23  1  0
 22 24  1  0
 24 25  1  0
 24 26  1  0
 19 27  1  0
 27 28  1  6
 27 29  1  0
 29 30  1  0
 30 31  1  0
 31 32  1  6
  7  5  1  0
 31 10  1  0
 31 13  1  0
 27 15  1  0
 24 18  1  0
  1 33  1  0
  1 34  1  0
  1 35  1  0
  2 36  1  6
  3 37  1  0
  3 38  1  0
  4 39  1  0
  4 40  1  0
  5 41  1  1
  8 42  1  0
  8 43  1  0
  8 44  1  0
  9 45  1  0
  9 46  1  0
  9 47  1  0
 10 48  1  1
 11 49  1  0
 11 50  1  0
 12 51  1  0
 12 52  1  0
 14 53  1  0
 14 54  1  0
 14 55  1  0
 15 56  1  6
 16 57  1  0
 16 58  1  0
 17 59  1  0
 19 60  1  1
 20 61  1  0
 20 62  1  0
 21 63  1  0
 21 64  1  0
 22 65  1  1
 23 66  1  0
 25 67  1  0
 25 68  1  0
 25 69  1  0
 26 70  1  0
 26 71  1  0
 26 72  1  0
 28 73  1  0
 28 74  1  0
 28 75  1  0
 29 76  1  0
 29 77  1  0
 30 78  1  0
 30 79  1  0
 32 80  1  0
 32 81  1  0
 32 82  1  0
M  END
>  <meeko>  (2) 
{"is_sidechain": [false], "intermolecular_energy": 2.731, "internal_energy": -0.839}

$$$$
EPH_relaxed_0001_pdb2pqr_Repair_407_r2_0001_out
     RDKit          3D

 82 86  0  0  0  0  0  0  0  0999 V2000
    2.3240   17.9000   -2.7960 C   0  0  0  0  0  0  0  0  0  0  0  0
    1.0250   17.5270   -2.0770 C   0  0  2  0  0  0  0  0  0  0  0  0
    1.1690   17.5950   -0.5430 C   0  0  0  0  0  0  0  0  0  0  0  0
    0.9160   18.9890    0.0370 C   0  0  0  0  0  0  0  0  0  0  0  0
   -0.4950   19.1420    0.5180 C   0  0  2  0  0  0  0  0  0  0  0  0
   -1.4280   18.2200   -0.0610 O   0  0  0  0  0  0  0  0  0  0  0  0
   -1.6350   19.6080   -0.3690 C   0  0  0  0  0  0  0  0  0  0  0  0
   -1.4140   19.9520   -1.8080 C   0  0  0  0  0  0  0  0  0  0  0  0
   -2.8510   20.1940    0.2790 C   0  0  0  0  0  0  0  0  0  0  0  0
    0.5820   16.1300   -2.4970 C   0  0  1  0  0  0  0  0  0  0  0  0
    0.7050   15.8990   -4.0260 C   0  0  0  0  0  0  0  0  0  0  0  0
    1.1070   14.4140   -4.2240 C   0  0  0  0  0  0  0  0  0  0  0  0
    0.8790   13.7620   -2.8400 C   0  0  1  0  0  0  0  0  0  0  0  0
   -0.6530   13.4700   -2.7820 C   0  0  0  0  0  0  0  0  0  0  0  0
    1.7220   12.4820   -2.5330 C   0  0  2  0  0  0  0  0  0  0  0  0
    1.4550   11.2850   -3.4630 C   0  0  0  0  0  0  0  0  0  0  0  0
    0.3860   10.3490   -3.0070 C   0  0  0  0  0  0  0  0  0  0  0  0
   -0.1340   10.3000   -1.7660 C   0  0  0  0  0  0  0  0  0  0  0  0
    0.4240   11.1840   -0.6430 C   0  0  1  0  0  0  0  0  0  0  0  0
    0.6270   10.3290    0.6360 C   0  0  0  0  0  0  0  0  0  0  0  0
   -0.6400    9.5880    1.0510 C   0  0  0  0  0  0  0  0  0  0  0  0
   -1.1310    8.6760   -0.0700 C   0  0  2  0  0  0  0  0  0  0  0  0
   -0.1770    7.6270   -0.2620 O   0  0  0  0  0  0  0  0  0  0  0  0
   -1.3620    9.4250   -1.4120 C   0  0  0  0  0  0  0  0  0  0  0  0
   -2.5980   10.3500   -1.2860 C   0  0  0  0  0  0  0  0  0  0  0  0
   -1.7180    8.3690   -2.4930 C   0  0  0  0  0  0  0  0  0  0  0  0
    1.7070   12.0450   -1.0120 C   0  0  1  0  0  0  0  0  0  0  0  0
    2.9990   11.2030   -0.7770 C   0  0  0  0  0  0  0  0  0  0  0  0
    1.7980   13.2770   -0.0350 C   0  0  0  0  0  0  0  0  0  0  0  0
    1.0400   14.5520   -0.4530 C   0  0  0  0  0  0  0  0  0  0  0  0
    1.3600   14.9290   -1.9030 C   0  0  2  0  0  0  0  0  0  0  0  0
    2.8910   15.2490   -1.9880 C   0  0  0  0  0  0  0  0  0  0  0  0
    3.1033   18.1238   -2.0526 H   0  0  0  0  0  0  0  0  0  0  0  0
    2.6489   17.0589   -3.4260 H   0  0  0  0  0  0  0  0  0  0  0  0
    2.1532   18.7854   -3.4260 H   0  0  0  0  0  0  0  0  0  0  0  0
    0.2619   18.2634   -2.3693 H   0  0  0  0  0  0  0  0  0  0  0  0
    0.4473   16.8961   -0.0950 H   0  0  0  0  0  0  0  0  0  0  0  0
    2.2104   17.3319   -0.3056 H   0  0  0  0  0  0  0  0  0  0  0  0
    1.6005   19.1529    0.8824 H   0  0  0  0  0  0  0  0  0  0  0  0
    1.0886   19.7280   -0.7593 H   0  0  0  0  0  0  0  0  0  0  0  0
   -0.1471   19.4732    1.5076 H   0  0  0  0  0  0  0  0  0  0  0  0
   -0.8206   20.8756   -1.8772 H   0  0  0  0  0  0  0  0  0  0  0  0
   -0.8738   19.1312   -2.3024 H   0  0  0  0  0  0  0  0  0  0  0  0
   -2.3851   20.1021   -2.3024 H   0  0  0  0  0  0  0  0  0  0  0  0
   -2.7444   20.1427    1.3726 H   0  0  0  0  0  0  0  0  0  0  0  0
   -2.9610   21.2440   -0.0298 H   0  0  0  0  0  0  0  0  0  0  0  0
   -3.7409   19.6258   -0.0298 H   0  0  0  0  0  0  0  0  0  0  0  0
   -0.4480   16.1391   -2.1110 H   0  0  0  0  0  0  0  0  0  0  0  0
   -0.2582   16.0994   -4.5179 H   0  0  0  0  0  0  0  0  0  0  0  0
    1.4537   16.5729   -4.4680 H   0  0  0  0  0  0  0  0  0  0  0  0
    0.4732   13.9382   -4.9869 H   0  0  0  0  0  0  0  0  0  0  0  0
    2.1450   14.3049   -4.5714 H   0  0  0  0  0  0  0  0  0  0  0  0
   -0.9751   13.4086   -1.7320 H   0  0  0  0  0  0  0  0  0  0  0  0
   -1.2000   14.2801   -3.2866 H   0  0  0  0  0  0  0  0  0  0  0  0
   -0.8637   12.5155   -3.2866 H   0  0  0  0  0  0  0  0  0  0  0  0
    2.7455   12.8149   -2.7604 H   0  0  0  0  0  0  0  0  0  0  0  0
    1.1646   11.6784   -4.4483 H   0  0  0  0  0  0  0  0  0  0  0  0
    2.3857   10.6989   -3.4792 H   0  0  0  0  0  0  0  0  0  0  0  0
   -0.0108    9.6389   -3.7475 H   0  0  0  0  0  0  0  0  0  0  0  0
   -0.3358   11.9576   -0.4579 H   0  0  0  0  0  0  0  0  0  0  0  0
    1.4204    9.5914    0.4449 H   0  0  0  0  0  0  0  0  0  0  0  0
    0.8980   11.0118    1.4547 H   0  0  0  0  0  0  0  0  0  0  0  0
   -0.4256    8.9797    1.9421 H   0  0  0  0  0  0  0  0  0  0  0  0
   -1.4237   10.3282    1.2698 H   0  0  0  0  0  0  0  0  0  0  0  0
   -2.1077    8.2732    0.2361 H   0  0  0  0  0  0  0  0  0  0  0  0
    0.5610    7.9920   -0.7790 H   0  0  0  0  0  0  0  0  0  0  0  0
   -2.8230   10.5184   -0.2225 H   0  0  0  0  0  0  0  0  0  0  0  0
   -2.3862   11.3133   -1.7730 H   0  0  0  0  0  0  0  0  0  0  0  0
   -3.4625    9.8752   -1.7730 H   0  0  0  0  0  0  0  0  0  0  0  0
   -2.0328    7.4353   -2.0039 H   0  0  0  0  0  0  0  0  0  0  0  0
   -2.5378    8.7487   -3.1205 H   0  0  0  0  0  0  0  0  0  0  0  0
   -0.8357    8.1748   -3.1205 H   0  0  0  0  0  0  0  0  0  0  0  0
    3.1718   11.0904    0.3035 H   0  0  0  0  0  0  0  0  0  0  0  0
    2.8778   10.2100   -1.2344 H   0  0  0  0  0  0  0  0  0  0  0  0
    3.8585   11.7149   -1.2344 H   0  0  0  0  0  0  0  0  0  0  0  0
    1.4012   12.9585    0.9403 H   0  0  0  0  0  0  0  0  0  0  0  0
    2.8604   13.5623   -0.0292 H   0  0  0  0  0  0  0  0  0  0  0  0
   -0.0415   14.3755   -0.3573 H   0  0  0  0  0  0  0  0  0  0  0  0
    1.3545   15.3779    0.2020 H   0  0  0  0  0  0  0  0  0  0  0  0
    3.3045   15.3354   -0.9723 H   0  0  0  0  0  0  0  0  0  0  0  0
    3.4056   14.4390   -2.5257 H   0  0  0  0  0  0  0  0  0  0  0  0
    3.0381   16.1973   -2.5257 H   0  0  0  0  0  0  0  0  0  0  0  0
  1  2  1  0
  2  3  1  0
  3  4  1  0
  4  5  1  0
  5  6  1  0
  6  7  1  0
  7  8  1  0
  7  9  1  0
  2 10  1  0
 10 11  1  0
 11 12  1  0
 12 13  1  0
 13 14  1  1
 13 15  1  0
 15 16  1  0
 16 17  1  0
 17 18  2  0
 18 19  1  0
 19 20  1  0
 20 21  1  0
 21 22  1  0
 22 23  1  0
 22 24  1  0
 24 25  1  0
 24 26  1  0
 19 27  1  0
 27 28  1  6
 27 29  1  0
 29 30  1  0
 30 31  1  0
 31 32  1  1
  7  5  1  0
 31 10  1  0
 31 13  1  0
 27 15  1  0
 24 18  1  0
  1 33  1  0
  1 34  1  0
  1 35  1  0
  2 36  1  6
  3 37  1  0
  3 38  1  0
  4 39  1  0
  4 40  1  0
  5 41  1  1
  8 42  1  0
  8 43  1  0
  8 44  1  0
  9 45  1  0
  9 46  1  0
  9 47  1  0
 10 48  1  1
 11 49  1  0
 11 50  1  0
 12 51  1  0
 12 52  1  0
 14 53  1  0
 14 54  1  0
 14 55  1  0
 15 56  1  6
 16 57  1  0
 16 58  1  0
 17 59  1  0
 19 60  1  1
 20 61  1  0
 20 62  1  0
 21 63  1  0
 21 64  1  0
 22 65  1  1
 23 66  1  0
 25 67  1  0
 25 68  1  0
 25 69  1  0
 26 70  1  0
 26 71  1  0
 26 72  1  0
 28 73  1  0
 28 74  1  0
 28 75  1  0
 29 76  1  0
 29 77  1  0
 30 78  1  0
 30 79  1  0
 32 80  1  0
 32 81  1  0
 32 82  1  0
M  END
>  <meeko>  (3) 
{"is_sidechain": [false], "intermolecular_energy": 2.731, "internal_energy": -0.839}

$$$$
EPH_relaxed_0001_pdb2pqr_Repair_407_r2_0001_out
     RDKit          3D

 82 86  0  0  0  0  0  0  0  0999 V2000
    0.3890   18.3960   -0.0460 C   0  0  0  0  0  0  0  0  0  0  0  0
    1.4690   17.3330   -0.2670 C   0  0  2  0  0  0  0  0  0  0  0  0
    2.6830   17.8900   -1.0380 C   0  0  0  0  0  0  0  0  0  0  0  0
    3.9190   18.1120   -0.1620 C   0  0  0  0  0  0  0  0  0  0  0  0
    3.5480   18.5950    1.2080 C   0  0  2  0  0  0  0  0  0  0  0  0
    3.7900   19.9900    1.4360 O   0  0  0  0  0  0  0  0  0  0  0  0
    4.5630   19.0740    2.2290 C   0  0  0  0  0  0  0  0  0  0  0  0
    6.0280   19.0930    1.9240 C   0  0  0  0  0  0  0  0  0  0  0  0
    4.1830   19.0600    3.6770 C   0  0  0  0  0  0  0  0  0  0  0  0
    0.8810   16.1410   -1.0130 C   0  0  1  0  0  0  0  0  0  0  0  0
    0.7240   16.4070   -2.5340 C   0  0  0  0  0  0  0  0  0  0  0  0
    0.9990   15.0620   -3.2540 C   0  0  0  0  0  0  0  0  0  0  0  0
    0.9770   14.0040   -2.1260 C   0  0  1  0  0  0  0  0  0  0  0  0
   -0.5360   13.7090   -1.8830 C   0  0  0  0  0  0  0  0  0  0  0  0
    1.7860   12.6930   -2.3930 C   0  0  2  0  0  0  0  0  0  0  0  0
    1.2930   11.8530   -3.5850 C   0  0  0  0  0  0  0  0  0  0  0  0
    0.2670   10.8200   -3.2560 C   0  0  0  0  0  0  0  0  0  0  0  0
   -0.0320   10.3810   -2.0200 C   0  0  0  0  0  0  0  0  0  0  0  0
    0.7620   10.8620   -0.7990 C   0  0  1  0  0  0  0  0  0  0  0  0
    1.1340    9.6470    0.0900 C   0  0  0  0  0  0  0  0  0  0  0  0
   -0.0830    8.8110    0.4780 C   0  0  0  0  0  0  0  0  0  0  0  0
   -0.8120    8.3020   -0.7630 C   0  0  2  0  0  0  0  0  0  0  0  0
    0.0320    7.3680   -1.4430 O   0  0  0  0  0  0  0  0  0  0  0  0
   -1.2280    9.4380   -1.7380 C   0  0  0  0  0  0  0  0  0  0  0  0
   -2.3690   10.2750   -1.1070 C   0  0  0  0  0  0  0  0  0  0  0  0
   -1.8270    8.7790   -3.0110 C   0  0  0  0  0  0  0  0  0  0  0  0
    2.0100   11.7970   -1.1080 C   0  0  1  0  0  0  0  0  0  0  0  0
    3.2710   10.9240   -1.3880 C   0  0  0  0  0  0  0  0  0  0  0  0
    2.3380   12.6550    0.1700 C   0  0  0  0  0  0  0  0  0  0  0  0
    1.5950   13.9970    0.3160 C   0  0  0  0  0  0  0  0  0  0  0  0
    1.6790   14.8140   -0.9760 C   0  0  2  0  0  0  0  0  0  0  0  0
    3.1890   15.1460   -1.2350 C   0  0  0  0  0  0  0  0  0  0  0  0
    0.2371   18.5455    1.0331 H   0  0  0  0  0  0  0  0  0  0  0  0
    0.7071   19.3431   -0.5062 H   0  0  0  0  0  0  0  0  0  0  0  0
   -0.5529   18.0629   -0.5062 H   0  0  0  0  0  0  0  0  0  0  0  0
    1.8251   17.0128    0.7233 H   0  0  0  0  0  0  0  0  0  0  0  0
    2.9451   17.1780   -1.8345 H   0  0  0  0  0  0  0  0  0  0  0  0
    2.3889   18.8731   -1.4342 H   0  0  0  0  0  0  0  0  0  0  0  0
    4.4655   17.1619   -0.0692 H   0  0  0  0  0  0  0  0  0  0  0  0
    4.5440   18.8812   -0.6393 H   0  0  0  0  0  0  0  0  0  0  0  0
    2.7278   17.8646    1.2699 H   0  0  0  0  0  0  0  0  0  0  0  0
    6.5983   19.1004    2.8646 H   0  0  0  0  0  0  0  0  0  0  0  0
    6.2929   18.1982    1.3416 H   0  0  0  0  0  0  0  0  0  0  0  0
    6.2696   19.9944    1.3416 H   0  0  0  0  0  0  0  0  0  0  0  0
    5.0923   19.0935    4.2951 H   0  0  0  0  0  0  0  0  0  0  0  0
    3.5557   19.9356    3.8999 H   0  0  0  0  0  0  0  0  0  0  0  0
    3.6218   18.1406    3.8999 H   0  0  0  0  0  0  0  0  0  0  0  0
   -0.0640   16.0267   -0.4617 H   0  0  0  0  0  0  0  0  0  0  0  0
   -0.2966   16.7530   -2.7547 H   0  0  0  0  0  0  0  0  0  0  0  0
    1.4224   17.1864   -2.8728 H   0  0  0  0  0  0  0  0  0  0  0  0
    0.2163   14.8527   -3.9980 H   0  0  0  0  0  0  0  0  0  0  0  0
    1.9535   15.0691   -3.8008 H   0  0  0  0  0  0  0  0  0  0  0  0
   -0.7330   13.6706   -0.8015 H   0  0  0  0  0  0  0  0  0  0  0  0
   -1.1426   14.5058   -2.3381 H   0  0  0  0  0  0  0  0  0  0  0  0
   -0.7989   12.7427   -2.3381 H   0  0  0  0  0  0  0  0  0  0  0  0
    2.7723   13.0803   -2.6883 H   0  0  0  0  0  0  0  0  0  0  0  0
    0.8590   12.5387   -4.3276 H   0  0  0  0  0  0  0  0  0  0  0  0
    2.1714   11.3029   -3.9536 H   0  0  0  0  0  0  0  0  0  0  0  0
   -0.2920   10.3805   -4.0953 H   0  0  0  0  0  0  0  0  0  0  0  0
    0.0904   11.5358   -0.2467 H   0  0  0  0  0  0  0  0  0  0  0  0
    1.8388    9.0084   -0.4627 H   0  0  0  0  0  0  0  0  0  0  0  0
    1.5811   10.0359    1.0167 H   0  0  0  0  0  0  0  0  0  0  0  0
    0.2475    7.9514    1.0796 H   0  0  0  0  0  0  0  0  0  0  0  0
   -0.7731    9.4423    1.0569 H   0  0  0  0  0  0  0  0  0  0  0  0
   -1.7428    7.8227   -0.4256 H   0  0  0  0  0  0  0  0  0  0  0  0
   -0.5370    6.8030   -1.9920 H   0  0  0  0  0  0  0  0  0  0  0  0
   -2.2985   10.2233   -0.0105 H   0  0  0  0  0  0  0  0  0  0  0  0
   -2.2781   11.3222   -1.4313 H   0  0  0  0  0  0  0  0  0  0  0  0
   -3.3405    9.8738   -1.4313 H   0  0  0  0  0  0  0  0  0  0  0  0
   -2.5400    7.9946   -2.7170 H   0  0  0  0  0  0  0  0  0  0  0  0
   -2.3472    9.5420   -3.6087 H   0  0  0  0  0  0  0  0  0  0  0  0
   -1.0180    8.3338   -3.6087 H   0  0  0  0  0  0  0  0  0  0  0  0
    3.7207   10.6127   -0.4336 H   0  0  0  0  0  0  0  0  0  0  0  0
    2.9798   10.0332   -1.9640 H   0  0  0  0  0  0  0  0  0  0  0  0
    4.0022   11.5101   -1.9640 H   0  0  0  0  0  0  0  0  0  0  0  0
    2.0969   12.0436    1.0521 H   0  0  0  0  0  0  0  0  0  0  0  0
    3.4001   12.9236    0.0712 H   0  0  0  0  0  0  0  0  0  0  0  0
    0.5382   13.7996    0.5487 H   0  0  0  0  0  0  0  0  0  0  0  0
    2.0669   14.5726    1.1259 H   0  0  0  0  0  0  0  0  0  0  0  0
    3.7095   15.2604   -0.2727 H   0  0  0  0  0  0  0  0  0  0  0  0
    3.6514   14.3281   -1.8070 H   0  0  0  0  0  0  0  0  0  0  0  0
    3.2657   16.0825   -1.8070 H   0  0  0  0  0  0  0  0  0  0  0  0
  1  2  1  0
  2  3  1  0
  3  4  1  0
  4  5  1  0
  5  6  1  0
  6  7  1  0
  7  8  1  0
  7  9  1  0
  2 10  1  0
 10 11  1  0
 11 12  1  0
 12 13  1  0
 13 14  1  1
 13 15  1  0
 15 16  1  0
 16 17  1  0
 17 18  2  0
 18 19  1  0
 19 20  1  0
 20 21  1  0
 21 22  1  0
 22 23  1  0
 22 24  1  0
 24 25  1  0
 24 26  1  0
 19 27  1  0
 27 28  1  6
 27 29  1  0
 29 30  1  0
 30 31  1  0
 31 32  1  6
  7  5  1  0
 31 10  1  0
 31 13  1  0
 27 15  1  0
 24 18  1  0
  1 33  1  0
  1 34  1  0
  1 35  1  0
  2 36  1  1
  3 37  1  0
  3 38  1  0
  4 39  1  0
  4 40  1  0
  5 41  1  1
  8 42  1  0
  8 43  1  0
  8 44  1  0
  9 45  1  0
  9 46  1  0
  9 47  1  0
 10 48  1  1
 11 49  1  0
 11 50  1  0
 12 51  1  0
 12 52  1  0
 14 53  1  0
 14 54  1  0
 14 55  1  0
 15 56  1  6
 16 57  1  0
 16 58  1  0
 17 59  1  0
 19 60  1  1
 20 61  1  0
 20 62  1  0
 21 63  1  0
 21 64  1  0
 22 65  1  1
 23 66  1  0
 25 67  1  0
 25 68  1  0
 25 69  1  0
 26 70  1  0
 26 71  1  0
 26 72  1  0
 28 73  1  0
 28 74  1  0
 28 75  1  0
 29 76  1  0
 29 77  1  0
 30 78  1  0
 30 79  1  0
 32 80  1  0
 32 81  1  0
 32 82  1  0
M  END
>  <meeko>  (4) 
{"is_sidechain": [false], "intermolecular_energy": 2.731, "internal_energy": -0.839}

$$$$
EPH_relaxed_0001_pdb2pqr_Repair_407_r2_0001_out
     RDKit          3D

 82 86  0  0  0  0  0  0  0  0999 V2000
   -3.4380    9.2980    0.4270 C   0  0  0  0  0  0  0  0  0  0  0  0
   -2.5970    9.6570   -0.8010 C   0  0  2  0  0  0  0  0  0  0  0  0
   -1.9350    8.4160   -1.4330 C   0  0  0  0  0  0  0  0  0  0  0  0
   -2.8680    7.6210   -2.3500 C   0  0  0  0  0  0  0  0  0  0  0  0
   -4.2950    7.7070   -1.8980 C   0  0  2  0  0  0  0  0  0  0  0  0
   -4.8350    6.4830   -1.3830 O   0  0  0  0  0  0  0  0  0  0  0  0
   -5.4360    6.9830   -2.5880 C   0  0  0  0  0  0  0  0  0  0  0  0
   -5.2010    6.1210   -3.7880 C   0  0  0  0  0  0  0  0  0  0  0  0
   -6.8290    7.4980   -2.3980 C   0  0  0  0  0  0  0  0  0  0  0  0
   -1.5320   10.6780   -0.4200 C   0  0  1  0  0  0  0  0  0  0  0  0
   -0.4300   10.0800    0.4950 C   0  0  0  0  0  0  0  0  0  0  0  0
    0.9010   10.7740    0.1060 C   0  0  0  0  0  0  0  0  0  0  0  0
    0.4730   11.9710   -0.7750 C   0  0  1  0  0  0  0  0  0  0  0  0
    0.0440   13.0810    0.2350 C   0  0  0  0  0  0  0  0  0  0  0  0
    1.5390   12.4970   -1.7920 C   0  0  2  0  0  0  0  0  0  0  0  0
    2.8260   13.0520   -1.1580 C   0  0  0  0  0  0  0  0  0  0  0  0
    2.8080   14.5130   -0.8510 C   0  0  0  0  0  0  0  0  0  0  0  0
    1.9180   15.4010   -1.3300 C   0  0  0  0  0  0  0  0  0  0  0  0
    0.8550   14.9790   -2.3530 C   0  0  1  0  0  0  0  0  0  0  0  0
    0.8020   16.0180   -3.5030 C   0  0  0  0  0  0  0  0  0  0  0  0
    0.5900   17.4410   -2.9970 C   0  0  0  0  0  0  0  0  0  0  0  0
    1.6980   17.8450   -2.0270 C   0  0  2  0  0  0  0  0  0  0  0  0
    2.9330   17.9260   -2.7460 O   0  0  0  0  0  0  0  0  0  0  0  0
    1.8530   16.8660   -0.8310 C   0  0  0  0  0  0  0  0  0  0  0  0
    0.6350   17.0030    0.1150 C   0  0  0  0  0  0  0  0  0  0  0  0
    3.0930   17.3080   -0.0080 C   0  0  0  0  0  0  0  0  0  0  0  0
    0.9600   13.4850   -2.8840 C   0  0  1  0  0  0  0  0  0  0  0  0
    1.9330   13.4200   -4.1020 C   0  0  0  0  0  0  0  0  0  0  0  0
   -0.4490   13.0280   -3.4170 C   0  0  0  0  0  0  0  0  0  0  0  0
   -1.4130   12.4070   -2.3880 C   0  0  0  0  0  0  0  0  0  0  0  0
   -0.7140   11.3160   -1.5710 C   0  0  2  0  0  0  0  0  0  0  0  0
   -0.2910   10.1760   -2.5590 C   0  0  0  0  0  0  0  0  0  0  0  0
   -2.8744    9.5386    1.3405 H   0  0  0  0  0  0  0  0  0  0  0  0
   -4.3745    9.8748    0.4114 H   0  0  0  0  0  0  0  0  0  0  0  0
   -3.6693    8.2227    0.4114 H   0  0  0  0  0  0  0  0  0  0  0  0
   -3.2744   10.0890   -1.5524 H   0  0  0  0  0  0  0  0  0  0  0  0
   -1.0678    8.7475   -2.0229 H   0  0  0  0  0  0  0  0  0  0  0  0
   -1.6499    7.7479   -0.6070 H   0  0  0  0  0  0  0  0  0  0  0  0
   -2.7925    8.0235   -3.3709 H   0  0  0  0  0  0  0  0  0  0  0  0
   -2.5614    6.5650   -2.3191 H   0  0  0  0  0  0  0  0  0  0  0  0
   -4.1612    8.7568   -1.5978 H   0  0  0  0  0  0  0  0  0  0  0  0
   -4.9246    5.1072   -3.4627 H   0  0  0  0  0  0  0  0  0  0  0  0
   -6.1193    6.0748   -4.3918 H   0  0  0  0  0  0  0  0  0  0  0  0
   -4.3863    6.5472   -4.3918 H   0  0  0  0  0  0  0  0  0  0  0  0
   -7.0467    7.5785   -1.3228 H   0  0  0  0  0  0  0  0  0  0  0  0
   -6.9204    8.4894   -2.8658 H   0  0  0  0  0  0  0  0  0  0  0  0
   -7.5433    6.8045   -2.8658 H   0  0  0  0  0  0  0  0  0  0  0  0
   -2.1686   11.4381    0.0564 H   0  0  0  0  0  0  0  0  0  0  0  0
   -0.6659   10.2783    1.5510 H   0  0  0  0  0  0  0  0  0  0  0  0
   -0.3589    8.9899    0.3663 H   0  0  0  0  0  0  0  0  0  0  0  0
    1.4339   11.1227    1.0029 H   0  0  0  0  0  0  0  0  0  0  0  0
    1.5884   10.0942   -0.4187 H   0  0  0  0  0  0  0  0  0  0  0  0
    0.1851   12.7158    1.2630 H   0  0  0  0  0  0  0  0  0  0  0  0
    0.6600   13.9785    0.0769 H   0  0  0  0  0  0  0  0  0  0  0  0
   -1.0155   13.3310    0.0769 H   0  0  0  0  0  0  0  0  0  0  0  0
    1.8372   11.5785   -2.3187 H   0  0  0  0  0  0  0  0  0  0  0  0
    3.0028   12.5094   -0.2176 H   0  0  0  0  0  0  0  0  0  0  0  0
    3.6197   12.9084   -1.9060 H   0  0  0  0  0  0  0  0  0  0  0  0
    3.5881   14.8956   -0.1764 H   0  0  0  0  0  0  0  0  0  0  0  0
   -0.1029   14.9726   -1.8123 H   0  0  0  0  0  0  0  0  0  0  0  0
    1.7512   15.9788   -4.0575 H   0  0  0  0  0  0  0  0  0  0  0  0
   -0.0533   15.7614   -4.1453 H   0  0  0  0  0  0  0  0  0  0  0  0
    0.5913   18.1316   -3.8532 H   0  0  0  0  0  0  0  0  0  0  0  0
   -0.3736   17.4862   -2.4685 H   0  0  0  0  0  0  0  0  0  0  0  0
    1.4223   18.8202   -1.5993 H   0  0  0  0  0  0  0  0  0  0  0  0
    3.4630   17.1460   -2.5080 H   0  0  0  0  0  0  0  0  0  0  0  0
    0.9762   16.9646    1.1600 H   0  0  0  0  0  0  0  0  0  0  0  0
    0.1321   17.9634   -0.0715 H   0  0  0  0  0  0  0  0  0  0  0  0
   -0.0687   16.1783   -0.0715 H   0  0  0  0  0  0  0  0  0  0  0  0
    2.8680   17.2278    1.0658 H   0  0  0  0  0  0  0  0  0  0  0  0
    3.9463   16.6587   -0.2533 H   0  0  0  0  0  0  0  0  0  0  0  0
    3.3432   18.3507   -0.2533 H   0  0  0  0  0  0  0  0  0  0  0  0
    2.9694   13.3508   -3.7401 H   0  0  0  0  0  0  0  0  0  0  0  0
    1.6979   12.5356   -4.7123 H   0  0  0  0  0  0  0  0  0  0  0  0
    1.8176   14.3279   -4.7123 H   0  0  0  0  0  0  0  0  0  0  0  0
   -0.9446   13.9110   -3.8467 H   0  0  0  0  0  0  0  0  0  0  0  0
   -0.2375   12.2227   -4.1358 H   0  0  0  0  0  0  0  0  0  0  0  0
   -1.7686   13.1944   -1.7071 H   0  0  0  0  0  0  0  0  0  0  0  0
   -2.2579   11.9542   -2.9275 H   0  0  0  0  0  0  0  0  0  0  0  0
    0.0355    9.2961   -1.9853 H   0  0  0  0  0  0  0  0  0  0  0  0
   -1.1478    9.9033   -3.1927 H   0  0  0  0  0  0  0  0  0  0  0  0
    0.5363   10.5282   -3.1927 H   0  0  0  0  0  0  0  0  0  0  0  0
  1  2  1  0
  2  3  1  0
  3  4  1  0
  4  5  1  0
  5  6  1  0
  6  7  1  0
  7  8  1  0
  7  9  1  0
  2 10  1  0
 10 11  1  0
 11 12  1  0
 12 13  1  0
 13 14  1  1
 13 15  1  0
 15 16  1  0
 16 17  1  0
 17 18  2  0
 18 19  1  0
 19 20  1  0
 20 21  1  0
 21 22  1  0
 22 23  1  0
 22 24  1  0
 24 25  1  0
 24 26  1  0
 19 27  1  0
 27 28  1  6
 27 29  1  0
 29 30  1  0
 30 31  1  0
 31 32  1  6
  7  5  1  0
 31 10  1  0
 31 13  1  0
 27 15  1  0
 24 18  1  0
  1 33  1  0
  1 34  1  0
  1 35  1  0
  2 36  1  6
  3 37  1  0
  3 38  1  0
  4 39  1  0
  4 40  1  0
  5 41  1  1
  8 42  1  0
  8 43  1  0
  8 44  1  0
  9 45  1  0
  9 46  1  0
  9 47  1  0
 10 48  1  1
 11 49  1  0
 11 50  1  0
 12 51  1  0
 12 52  1  0
 14 53  1  0
 14 54  1  0
 14 55  1  0
 15 56  1  6
 16 57  1  0
 16 58  1  0
 17 59  1  0
 19 60  1  1
 20 61  1  0
 20 62  1  0
 21 63  1  0
 21 64  1  0
 22 65  1  1
 23 66  1  0
 25 67  1  0
 25 68  1  0
 25 69  1  0
 26 70  1  0
 26 71  1  0
 26 72  1  0
 28 73  1  0
 28 74  1  0
 28 75  1  0
 29 76  1  0
 29 77  1  0
 30 78  1  0
 30 79  1  0
 32 80  1  0
 32 81  1  0
 32 82  1  0
M  END
>  <meeko>  (5) 
{"is_sidechain": [false], "intermolecular_energy": 2.731, "internal_energy": -0.839}

$$$$
EPH_relaxed_0001_pdb2pqr_Repair_407_r2_0001_out
     RDKit          3D

 82 86  0  0  0  0  0  0  0  0999 V2000
    3.8600   17.4880    0.3640 C   0  0  0  0  0  0  0  0  0  0  0  0
    2.8090   17.8620   -0.6850 C   0  0  2  0  0  0  0  0  0  0  0  0
    2.1680   19.2350   -0.4020 C   0  0  0  0  0  0  0  0  0  0  0  0
    1.1210   19.2070    0.7150 C   0  0  0  0  0  0  0  0  0  0  0  0
   -0.1130   19.9690    0.3370 C   0  0  2  0  0  0  0  0  0  0  0  0
   -1.0310   20.1940    1.4150 O   0  0  0  0  0  0  0  0  0  0  0  0
   -1.5050   19.3640    0.3420 C   0  0  0  0  0  0  0  0  0  0  0  0
   -1.7340   17.9380    0.7320 C   0  0  0  0  0  0  0  0  0  0  0  0
   -2.5670   20.0070   -0.4940 C   0  0  0  0  0  0  0  0  0  0  0  0
    1.7310   16.7860   -0.7470 C   0  0  1  0  0  0  0  0  0  0  0  0
    0.4180   17.2930   -1.4010 C   0  0  0  0  0  0  0  0  0  0  0  0
   -0.1800   16.0990   -2.1880 C   0  0  0  0  0  0  0  0  0  0  0  0
    0.6180   14.8690   -1.6960 C   0  0  1  0  0  0  0  0  0  0  0  0
   -0.0490   14.4740   -0.3410 C   0  0  0  0  0  0  0  0  0  0  0  0
    0.6930   13.6550   -2.6780 C   0  0  2  0  0  0  0  0  0  0  0  0
   -0.6600   13.0040   -3.0150 C   0  0  0  0  0  0  0  0  0  0  0  0
   -1.0730   11.8890   -2.1140 C   0  0  0  0  0  0  0  0  0  0  0  0
   -0.2670   11.2380   -1.2540 C   0  0  0  0  0  0  0  0  0  0  0  0
    1.2350   11.5450   -1.1980 C   0  0  1  0  0  0  0  0  0  0  0  0
    2.0340   10.2150   -1.1820 C   0  0  0  0  0  0  0  0  0  0  0  0
    1.5880    9.2770   -0.0650 C   0  0  0  0  0  0  0  0  0  0  0  0
    0.1020    8.9490   -0.1890 C   0  0  2  0  0  0  0  0  0  0  0  0
   -0.1020    8.1780   -1.3770 O   0  0  0  0  0  0  0  0  0  0  0  0
   -0.8030   10.2130   -0.2250 C   0  0  0  0  0  0  0  0  0  0  0  0
   -0.8140   10.8850    1.1710 C   0  0  0  0  0  0  0  0  0  0  0  0
   -2.2600    9.7490   -0.4940 C   0  0  0  0  0  0  0  0  0  0  0  0
    1.7750   12.5690   -2.2860 C   0  0  1  0  0  0  0  0  0  0  0  0
    2.1390   11.8090   -3.5980 C   0  0  0  0  0  0  0  0  0  0  0  0
    3.1110   13.2170   -1.7630 C   0  0  0  0  0  0  0  0  0  0  0  0
    2.9760   14.4840   -0.8960 C   0  0  0  0  0  0  0  0  0  0  0  0
    2.0490   15.5060   -1.5600 C   0  0  2  0  0  0  0  0  0  0  0  0
    2.7050   15.9390   -2.9150 C   0  0  0  0  0  0  0  0  0  0  0  0
    3.4423   17.6366    1.3707 H   0  0  0  0  0  0  0  0  0  0  0  0
    4.1452   16.4332    0.2374 H   0  0  0  0  0  0  0  0  0  0  0  0
    4.7474   18.1255    0.2374 H   0  0  0  0  0  0  0  0  0  0  0  0
    3.3211   17.9316   -1.6560 H   0  0  0  0  0  0  0  0  0  0  0  0
    2.9642   19.9373   -0.1141 H   0  0  0  0  0  0  0  0  0  0  0  0
    1.6489   19.5431   -1.3216 H   0  0  0  0  0  0  0  0  0  0  0  0
    0.8459   18.1618    0.9197 H   0  0  0  0  0  0  0  0  0  0  0  0
    1.5575   19.6814    1.6063 H   0  0  0  0  0  0  0  0  0  0  0  0
    0.4421   20.5362   -0.4247 H   0  0  0  0  0  0  0  0  0  0  0  0
   -1.7473   17.8554    1.8288 H   0  0  0  0  0  0  0  0  0  0  0  0
   -2.6983   17.5974    0.3270 H   0  0  0  0  0  0  0  0  0  0  0  0
   -0.9248   17.3126    0.3270 H   0  0  0  0  0  0  0  0  0  0  0  0
   -3.3227   20.4645    0.1614 H   0  0  0  0  0  0  0  0  0  0  0  0
   -2.1142   20.7828   -1.1289 H   0  0  0  0  0  0  0  0  0  0  0  0
   -3.0446   19.2462   -1.1289 H   0  0  0  0  0  0  0  0  0  0  0  0
    1.6525   16.5422    0.3228 H   0  0  0  0  0  0  0  0  0  0  0  0
   -0.2871   17.6267   -0.6255 H   0  0  0  0  0  0  0  0  0  0  0  0
    0.6126   18.1469   -2.0666 H   0  0  0  0  0  0  0  0  0  0  0  0
   -1.2505   15.9828   -1.9632 H   0  0  0  0  0  0  0  0  0  0  0  0
   -0.1046   16.2371   -3.2767 H   0  0  0  0  0  0  0  0  0  0  0  0
    0.5689   14.8399    0.4923 H   0  0  0  0  0  0  0  0  0  0  0  0
   -1.0506   14.9247   -0.2802 H   0  0  0  0  0  0  0  0  0  0  0  0
   -0.1353   13.3791   -0.2802 H   0  0  0  0  0  0  0  0  0  0  0  0
    1.0382   14.1270   -3.6097 H   0  0  0  0  0  0  0  0  0  0  0  0
   -1.4339   13.7842   -2.9669 H   0  0  0  0  0  0  0  0  0  0  0  0
   -0.5433   12.5600   -4.0146 H   0  0  0  0  0  0  0  0  0  0  0  0
   -2.1254   11.5717   -2.1558 H   0  0  0  0  0  0  0  0  0  0  0  0
    1.3994   12.0910   -0.2573 H   0  0  0  0  0  0  0  0  0  0  0  0
    1.8915    9.7066   -2.1470 H   0  0  0  0  0  0  0  0  0  0  0  0
    3.0912   10.4632   -1.0068 H   0  0  0  0  0  0  0  0  0  0  0  0
    2.1687    8.3447   -0.1245 H   0  0  0  0  0  0  0  0  0  0  0  0
    1.7583    9.7751    0.9009 H   0  0  0  0  0  0  0  0  0  0  0  0
   -0.1868    8.3813    0.7078 H   0  0  0  0  0  0  0  0  0  0  0  0
   -0.8100    8.6060   -1.8880 H   0  0  0  0  0  0  0  0  0  0  0  0
   -0.8013   10.1097    1.9512 H   0  0  0  0  0  0  0  0  0  0  0  0
    0.0738   11.5259    1.2764 H   0  0  0  0  0  0  0  0  0  0  0  0
   -1.7223   11.4965    1.2764 H   0  0  0  0  0  0  0  0  0  0  0  0
   -2.7753    9.5849    0.4639 H   0  0  0  0  0  0  0  0  0  0  0  0
   -2.7910   10.5225   -1.0682 H   0  0  0  0  0  0  0  0  0  0  0  0
   -2.2459    8.8109   -1.0682 H   0  0  0  0  0  0  0  0  0  0  0  0
    2.6015   10.8433   -3.3461 H   0  0  0  0  0  0  0  0  0  0  0  0
    1.2261   11.6358   -4.1867 H   0  0  0  0  0  0  0  0  0  0  0  0
    2.8462   12.4117   -4.1867 H   0  0  0  0  0  0  0  0  0  0  0  0
    3.6366   12.4585   -1.1643 H   0  0  0  0  0  0  0  0  0  0  0  0
    3.6461   13.5427   -2.6672 H   0  0  0  0  0  0  0  0  0  0  0  0
    2.5621   14.2066    0.0847 H   0  0  0  0  0  0  0  0  0  0  0  0
    3.9716   14.9371   -0.7795 H   0  0  0  0  0  0  0  0  0  0  0  0
    3.6072   16.5345   -2.7118 H   0  0  0  0  0  0  0  0  0  0  0  0
    2.9790   15.0437   -3.4924 H   0  0  0  0  0  0  0  0  0  0  0  0
    1.9894   16.5428   -3.4924 H   0  0  0  0  0  0  0  0  0  0  0  0
  1  2  1  0
  2  3  1  0
  3  4  1  0
  4  5  1  0
  5  6  1  0
  6  7  1  0
  7  8  1  0
  7  9  1  0
  2 10  1  0
 10 11  1  0
 11 12  1  0
 12 13  1  0
 13 14  1  1
 13 15  1  0
 15 16  1  0
 16 17  1  0
 17 18  2  0
 18 19  1  0
 19 20  1  0
 20 21  1  0
 21 22  1  0
 22 23  1  0
 22 24  1  0
 24 25  1  0
 24 26  1  0
 19 27  1  0
 27 28  1  6
 27 29  1  0
 29 30  1  0
 30 31  1  0
 31 32  1  6
  7  5  1  0
 31 10  1  0
 31 13  1  0
 27 15  1  0
 24 18  1  0
  1 33  1  0
  1 34  1  0
  1 35  1  0
  2 36  1  6
  3 37  1  0
  3 38  1  0
  4 39  1  0
  4 40  1  0
  5 41  1  6
  8 42  1  0
  8 43  1  0
  8 44  1  0
  9 45  1  0
  9 46  1  0
  9 47  1  0
 10 48  1  1
 11 49  1  0
 11 50  1  0
 12 51  1  0
 12 52  1  0
 14 53  1  0
 14 54  1  0
 14 55  1  0
 15 56  1  6
 16 57  1  0
 16 58  1  0
 17 59  1  0
 19 60  1  1
 20 61  1  0
 20 62  1  0
 21 63  1  0
 21 64  1  0
 22 65  1  1
 23 66  1  0
 25 67  1  0
 25 68  1  0
 25 69  1  0
 26 70  1  0
 26 71  1  0
 26 72  1  0
 28 73  1  0
 28 74  1  0
 28 75  1  0
 29 76  1  0
 29 77  1  0
 30 78  1  0
 30 79  1  0
 32 80  1  0
 32 81  1  0
 32 82  1  0
M  END
>  <meeko>  (6) 
{"is_sidechain": [false], "intermolecular_energy": 2.731, "internal_energy": -0.839}

$$$$
EPH_relaxed_0001_pdb2pqr_Repair_407_r2_0001_out
     RDKit          3D

 82 86  0  0  0  0  0  0  0  0999 V2000
   -0.4070   10.4170   -3.8320 C   0  0  0  0  0  0  0  0  0  0  0  0
    0.8550   10.3010   -2.9720 C   0  0  2  0  0  0  0  0  0  0  0  0
    0.9020    8.9760   -2.1860 C   0  0  0  0  0  0  0  0  0  0  0  0
   -0.4660    8.5110   -1.6790 C   0  0  0  0  0  0  0  0  0  0  0  0
   -0.7060    8.9350   -0.2620 C   0  0  2  0  0  0  0  0  0  0  0  0
   -2.0770    8.8890    0.1530 O   0  0  0  0  0  0  0  0  0  0  0  0
   -1.4690   10.1900    0.1180 C   0  0  0  0  0  0  0  0  0  0  0  0
   -2.0410   11.1010   -0.9220 C   0  0  0  0  0  0  0  0  0  0  0  0
   -1.2390   10.7850    1.4730 C   0  0  0  0  0  0  0  0  0  0  0  0
    0.9380   11.4810   -2.0110 C   0  0  1  0  0  0  0  0  0  0  0  0
    1.9880   11.2640   -0.8880 C   0  0  0  0  0  0  0  0  0  0  0  0
    2.6130   12.6490   -0.5860 C   0  0  0  0  0  0  0  0  0  0  0  0
    1.6830   13.6610   -1.2960 C   0  0  1  0  0  0  0  0  0  0  0  0
    0.4790   13.8510   -0.3210 C   0  0  0  0  0  0  0  0  0  0  0  0
    2.3250   15.0290   -1.6940 C   0  0  2  0  0  0  0  0  0  0  0  0
    2.8300   15.8810   -0.5160 C   0  0  0  0  0  0  0  0  0  0  0  0
    1.8330   16.8340    0.0540 C   0  0  0  0  0  0  0  0  0  0  0  0
    0.6810   17.2070   -0.5340 C   0  0  0  0  0  0  0  0  0  0  0  0
    0.3300   16.7300   -1.9490 C   0  0  1  0  0  0  0  0  0  0  0  0
   -0.1720   17.9320   -2.7910 C   0  0  0  0  0  0  0  0  0  0  0  0
   -1.3250   18.6740   -2.1220 C   0  0  0  0  0  0  0  0  0  0  0  0
   -0.9190   19.1830   -0.7420 C   0  0  2  0  0  0  0  0  0  0  0  0
    0.0830   20.1930   -0.8990 O   0  0  0  0  0  0  0  0  0  0  0  0
   -0.3860   18.0610    0.1930 C   0  0  0  0  0  0  0  0  0  0  0  0
   -1.5540   17.1310    0.6060 C   0  0  0  0  0  0  0  0  0  0  0  0
    0.1210   18.7280    1.5000 C   0  0  0  0  0  0  0  0  0  0  0  0
    1.4520   15.8880   -2.6960 C   0  0  1  0  0  0  0  0  0  0  0  0
    2.4350   16.8480   -3.4330 C   0  0  0  0  0  0  0  0  0  0  0  0
    0.7760   15.0040   -3.8100 C   0  0  0  0  0  0  0  0  0  0  0  0
    0.2690   13.6140   -3.3810 C   0  0  0  0  0  0  0  0  0  0  0  0
    1.3460   12.8530   -2.6030 C   0  0  2  0  0  0  0  0  0  0  0  0
    2.5620   12.6280   -3.5650 C   0  0  0  0  0  0  0  0  0  0  0  0
   -1.2890   10.4981   -3.1797 H   0  0  0  0  0  0  0  0  0  0  0  0
   -0.3370   11.3125   -4.4670 H   0  0  0  0  0  0  0  0  0  0  0  0
   -0.5014    9.5237   -4.4670 H   0  0  0  0  0  0  0  0  0  0  0  0
    1.7209   10.3123   -3.6503 H   0  0  0  0  0  0  0  0  0  0  0  0
    1.3115    8.1960   -2.8447 H   0  0  0  0  0  0  0  0  0  0  0  0
    1.5303    9.1504   -1.3001 H   0  0  0  0  0  0  0  0  0  0  0  0
   -1.2492    8.9446   -2.3182 H   0  0  0  0  0  0  0  0  0  0  0  0
   -0.4898    7.4119   -1.7165 H   0  0  0  0  0  0  0  0  0  0  0  0
    0.2768    8.5476    0.0448 H   0  0  0  0  0  0  0  0  0  0  0  0
   -2.5645   11.9347   -0.4313 H   0  0  0  0  0  0  0  0  0  0  0  0
   -1.2289   11.4966   -1.5497 H   0  0  0  0  0  0  0  0  0  0  0  0
   -2.7502   10.5414   -1.5497 H   0  0  0  0  0  0  0  0  0  0  0  0
   -1.5210   10.0555    2.2465 H   0  0  0  0  0  0  0  0  0  0  0  0
   -0.1758   11.0444    1.5839 H   0  0  0  0  0  0  0  0  0  0  0  0
   -1.8513   11.6921    1.5839 H   0  0  0  0  0  0  0  0  0  0  0  0
   -0.1070   11.5144   -1.6693 H   0  0  0  0  0  0  0  0  0  0  0  0
    1.5011   10.8636    0.0134 H   0  0  0  0  0  0  0  0  0  0  0  0
    2.7578   10.5434   -1.2013 H   0  0  0  0  0  0  0  0  0  0  0  0
    2.6356   12.8367    0.4976 H   0  0  0  0  0  0  0  0  0  0  0  0
    3.6532   12.7221   -0.9361 H   0  0  0  0  0  0  0  0  0  0  0  0
    0.8361   13.7947    0.7179 H   0  0  0  0  0  0  0  0  0  0  0  0
    0.0162   14.8333   -0.4969 H   0  0  0  0  0  0  0  0  0  0  0  0
   -0.2638   13.0590   -0.4969 H   0  0  0  0  0  0  0  0  0  0  0  0
    3.2252   14.7154   -2.2430 H   0  0  0  0  0  0  0  0  0  0  0  0
    3.1454   15.1983    0.2868 H   0  0  0  0  0  0  0  0  0  0  0  0
    3.6480   16.4986   -0.9153 H   0  0  0  0  0  0  0  0  0  0  0  0
    2.0588   17.2688    1.0389 H   0  0  0  0  0  0  0  0  0  0  0  0
   -0.4787   15.9941   -1.8294 H   0  0  0  0  0  0  0  0  0  0  0  0
    0.6624   18.6341   -2.9358 H   0  0  0  0  0  0  0  0  0  0  0  0
   -0.5402   17.5376   -3.7496 H   0  0  0  0  0  0  0  0  0  0  0  0
   -1.6152   19.5292   -2.7500 H   0  0  0  0  0  0  0  0  0  0  0  0
   -2.1691   17.9784   -2.0051 H   0  0  0  0  0  0  0  0  0  0  0  0
   -1.8217   19.5893   -0.2624 H   0  0  0  0  0  0  0  0  0  0  0  0
   -0.3080   20.9160   -1.4190 H   0  0  0  0  0  0  0  0  0  0  0  0
   -1.6142   17.0831    1.7033 H   0  0  0  0  0  0  0  0  0  0  0  0
   -2.4981   17.5274    0.2040 H   0  0  0  0  0  0  0  0  0  0  0  0
   -1.3792   16.1221    0.2040 H   0  0  0  0  0  0  0  0  0  0  0  0
   -0.2876   18.1904    2.3684 H   0  0  0  0  0  0  0  0  0  0  0  0
    1.2200   18.6896    1.5289 H   0  0  0  0  0  0  0  0  0  0  0  0
   -0.2101   19.7766    1.5289 H   0  0  0  0  0  0  0  0  0  0  0  0
    3.0169   17.4163   -2.6924 H   0  0  0  0  0  0  0  0  0  0  0  0
    3.1183   16.2599   -4.0633 H   0  0  0  0  0  0  0  0  0  0  0  0
    1.8633   17.5451   -4.0633 H   0  0  0  0  0  0  0  0  0  0  0  0
   -0.0843   15.5651   -4.2036 H   0  0  0  0  0  0  0  0  0  0  0  0
    1.5719   14.8065   -4.5431 H   0  0  0  0  0  0  0  0  0  0  0  0
   -0.6178   13.7361   -2.7418 H   0  0  0  0  0  0  0  0  0  0  0  0
    0.0169   13.0389   -4.2842 H   0  0  0  0  0  0  0  0  0  0  0  0
    3.4727   12.4595   -2.9716 H   0  0  0  0  0  0  0  0  0  0  0  0
    2.3701   11.7501   -4.1994 H   0  0  0  0  0  0  0  0  0  0  0  0
    2.6969   13.5164   -4.1994 H   0  0  0  0  0  0  0  0  0  0  0  0
  1  2  1  0
  2  3  1  0
  3  4  1  0
  4  5  1  0
  5  6  1  0
  6  7  1  0
  7  8  1  0
  7  9  1  0
  2 10  1  0
 10 11  1  0
 11 12  1  0
 12 13  1  0
 13 14  1  1
 13 15  1  0
 15 16  1  0
 16 17  1  0
 17 18  2  0
 18 19  1  0
 19 20  1  0
 20 21  1  0
 21 22  1  0
 22 23  1  0
 22 24  1  0
 24 25  1  0
 24 26  1  0
 19 27  1  0
 27 28  1  6
 27 29  1  0
 29 30  1  0
 30 31  1  0
 31 32  1  6
  7  5  1  0
 31 10  1  0
 31 13  1  0
 27 15  1  0
 24 18  1  0
  1 33  1  0
  1 34  1  0
  1 35  1  0
  2 36  1  6
  3 37  1  0
  3 38  1  0
  4 39  1  0
  4 40  1  0
  5 41  1  1
  8 42  1  0
  8 43  1  0
  8 44  1  0
  9 45  1  0
  9 46  1  0
  9 47  1  0
 10 48  1  1
 11 49  1  0
 11 50  1  0
 12 51  1  0
 12 52  1  0
 14 53  1  0
 14 54  1  0
 14 55  1  0
 15 56  1  6
 16 57  1  0
 16 58  1  0
 17 59  1  0
 19 60  1  1
 20 61  1  0
 20 62  1  0
 21 63  1  0
 21 64  1  0
 22 65  1  1
 23 66  1  0
 25 67  1  0
 25 68  1  0
 25 69  1  0
 26 70  1  0
 26 71  1  0
 26 72  1  0
 28 73  1  0
 28 74  1  0
 28 75  1  0
 29 76  1  0
 29 77  1  0
 30 78  1  0
 30 79  1  0
 32 80  1  0
 32 81  1  0
 32 82  1  0
M  END
>  <meeko>  (7) 
{"is_sidechain": [false], "intermolecular_energy": 2.731, "internal_energy": -0.839}

$$$$
EPH_relaxed_0001_pdb2pqr_Repair_407_r2_0001_out
     RDKit          3D

 82 86  0  0  0  0  0  0  0  0999 V2000
    0.3700    8.8940   -2.6610 C   0  0  0  0  0  0  0  0  0  0  0  0
    1.1480   10.0590   -3.2780 C   0  0  2  0  0  0  0  0  0  0  0  0
    2.6370   10.0390   -2.8800 C   0  0  0  0  0  0  0  0  0  0  0  0
    3.5650   10.6400   -3.9390 C   0  0  0  0  0  0  0  0  0  0  0  0
    4.9500   10.8520   -3.4060 C   0  0  2  0  0  0  0  0  0  0  0  0
    5.5820   12.0610   -3.8460 O   0  0  0  0  0  0  0  0  0  0  0  0
    6.1930   10.8340   -4.2760 C   0  0  0  0  0  0  0  0  0  0  0  0
    6.1100   10.5960   -5.7510 C   0  0  0  0  0  0  0  0  0  0  0  0
    7.5150   10.5590   -3.6290 C   0  0  0  0  0  0  0  0  0  0  0  0
    0.5160   11.3830   -2.8640 C   0  0  1  0  0  0  0  0  0  0  0  0
   -0.8660   11.1980   -2.1810 C   0  0  0  0  0  0  0  0  0  0  0  0
   -0.9790   12.2980   -1.0950 C   0  0  0  0  0  0  0  0  0  0  0  0
    0.1790   13.2750   -1.4060 C   0  0  1  0  0  0  0  0  0  0  0  0
   -0.3590   14.1800   -2.5580 C   0  0  0  0  0  0  0  0  0  0  0  0
    0.7100   14.1230   -0.2050 C   0  0  2  0  0  0  0  0  0  0  0  0
   -0.3170   15.0840    0.4190 C   0  0  0  0  0  0  0  0  0  0  0  0
   -0.3490   16.4550   -0.1710 C   0  0  0  0  0  0  0  0  0  0  0  0
    0.6000   16.9880   -0.9630 C   0  0  0  0  0  0  0  0  0  0  0  0
    1.8980   16.2250   -1.2590 C   0  0  1  0  0  0  0  0  0  0  0  0
    3.1100   17.1780   -1.0870 C   0  0  0  0  0  0  0  0  0  0  0  0
    2.9770   18.4490   -1.9200 C   0  0  0  0  0  0  0  0  0  0  0  0
    1.7050   19.2100   -1.5550 C   0  0  2  0  0  0  0  0  0  0  0  0
    1.8280   19.6980   -0.2160 O   0  0  0  0  0  0  0  0  0  0  0  0
    0.4180   18.3470   -1.6810 C   0  0  0  0  0  0  0  0  0  0  0  0
    0.1210   18.0710   -3.1760 C   0  0  0  0  0  0  0  0  0  0  0  0
   -0.7740   19.1880   -1.1500 C   0  0  0  0  0  0  0  0  0  0  0  0
    2.0870   14.8510   -0.4840 C   0  0  1  0  0  0  0  0  0  0  0  0
    2.7430   15.1110    0.9070 C   0  0  0  0  0  0  0  0  0  0  0  0
    3.0920   13.9420   -1.2850 C   0  0  0  0  0  0  0  0  0  0  0  0
    2.4910   13.0380   -2.3790 C   0  0  0  0  0  0  0  0  0  0  0  0
    1.2910   12.2520   -1.8420 C   0  0  2  0  0  0  0  0  0  0  0  0
    1.8060   11.3160   -0.6960 C   0  0  0  0  0  0  0  0  0  0  0  0
    0.4158    8.9626   -1.5641 H   0  0  0  0  0  0  0  0  0  0  0  0
   -0.6793    8.9399   -2.9878 H   0  0  0  0  0  0  0  0  0  0  0  0
    0.8145    7.9423   -2.9878 H   0  0  0  0  0  0  0  0  0  0  0  0
    1.0974    9.9483   -4.3712 H   0  0  0  0  0  0  0  0  0  0  0  0
    2.7553   10.6124   -1.9488 H   0  0  0  0  0  0  0  0  0  0  0  0
    2.9242    8.9837   -2.7623 H   0  0  0  0  0  0  0  0  0  0  0  0
    3.6147    9.9560   -4.7990 H   0  0  0  0  0  0  0  0  0  0  0  0
    3.1584   11.6179   -4.2363 H   0  0  0  0  0  0  0  0  0  0  0  0
    4.6958   10.3302   -2.4716 H   0  0  0  0  0  0  0  0  0  0  0  0
    5.7530    9.5724   -5.9377 H   0  0  0  0  0  0  0  0  0  0  0  0
    5.4099   11.3161   -6.1998 H   0  0  0  0  0  0  0  0  0  0  0  0
    7.1060   10.7246   -6.1998 H   0  0  0  0  0  0  0  0  0  0  0  0
    7.4000   10.5829   -2.5353 H   0  0  0  0  0  0  0  0  0  0  0  0
    7.8752    9.5667   -3.9382 H   0  0  0  0  0  0  0  0  0  0  0  0
    8.2410   11.3253   -3.9382 H   0  0  0  0  0  0  0  0  0  0  0  0
    0.4868   11.8868   -3.8414 H   0  0  0  0  0  0  0  0  0  0  0  0
   -1.6723   11.3117   -2.9206 H   0  0  0  0  0  0  0  0  0  0  0  0
   -0.9566   10.1951   -1.7382 H   0  0  0  0  0  0  0  0  0  0  0  0
   -1.9492   12.8119   -1.1625 H   0  0  0  0  0  0  0  0  0  0  0  0
   -0.9152   11.8866   -0.0768 H   0  0  0  0  0  0  0  0  0  0  0  0
   -0.8766   15.0507   -2.1290 H   0  0  0  0  0  0  0  0  0  0  0  0
    0.4822   14.5226   -3.1785 H   0  0  0  0  0  0  0  0  0  0  0  0
   -1.0618   13.6047   -3.1785 H   0  0  0  0  0  0  0  0  0  0  0  0
    0.9039   13.3552    0.5585 H   0  0  0  0  0  0  0  0  0  0  0  0
   -1.3157   14.6389    0.2986 H   0  0  0  0  0  0  0  0  0  0  0  0
   -0.0149   15.2119    1.4689 H   0  0  0  0  0  0  0  0  0  0  0  0
   -1.2220   17.0827    0.0611 H   0  0  0  0  0  0  0  0  0  0  0  0
    1.8261   15.8984   -2.3069 H   0  0  0  0  0  0  0  0  0  0  0  0
    3.1906   17.4583   -0.0264 H   0  0  0  0  0  0  0  0  0  0  0  0
    4.0069   16.6437   -1.4336 H   0  0  0  0  0  0  0  0  0  0  0  0
    3.8483   19.0941   -1.7340 H   0  0  0  0  0  0  0  0  0  0  0  0
    2.9257   18.1687   -2.9824 H   0  0  0  0  0  0  0  0  0  0  0  0
    1.5987   20.0383   -2.2710 H   0  0  0  0  0  0  0  0  0  0  0  0
    1.5800   18.9750    0.3850 H   0  0  0  0  0  0  0  0  0  0  0  0
   -0.6825   17.3243   -3.2584 H   0  0  0  0  0  0  0  0  0  0  0  0
   -0.1941   19.0043   -3.6656 H   0  0  0  0  0  0  0  0  0  0  0  0
    1.0287   17.6884   -3.6656 H   0  0  0  0  0  0  0  0  0  0  0  0
   -0.7657   19.1821   -0.0500 H   0  0  0  0  0  0  0  0  0  0  0  0
   -0.6827   20.2228   -1.5119 H   0  0  0  0  0  0  0  0  0  0  0  0
   -1.7182   18.7550   -1.5119 H   0  0  0  0  0  0  0  0  0  0  0  0
    2.0374   14.8313    1.7032 H   0  0  0  0  0  0  0  0  0  0  0  0
    3.6581   14.5076    0.9994 H   0  0  0  0  0  0  0  0  0  0  0  0
    2.9962   16.1775    0.9994 H   0  0  0  0  0  0  0  0  0  0  0  0
    3.8274   14.6032   -1.7666 H   0  0  0  0  0  0  0  0  0  0  0  0
    3.5120   13.2510   -0.5393 H   0  0  0  0  0  0  0  0  0  0  0  0
    2.1634   13.6632   -3.2227 H   0  0  0  0  0  0  0  0  0  0  0  0
    3.2608   12.3234   -2.7058 H   0  0  0  0  0  0  0  0  0  0  0  0
    1.5608   11.7616    0.2794 H   0  0  0  0  0  0  0  0  0  0  0  0
    1.3225   10.3317   -0.7814 H   0  0  0  0  0  0  0  0  0  0  0  0
    2.8963   11.1976   -0.7814 H   0  0  0  0  0  0  0  0  0  0  0  0
  1  2  1  0
  2  3  1  0
  3  4  1  0
  4  5  1  0
  5  6  1  0
  6  7  1  0
  7  8  1  0
  7  9  1  0
  2 10  1  0
 10 11  1  0
 11 12  1  0
 12 13  1  0
 13 14  1  6
 13 15  1  0
 15 16  1  0
 16 17  1  0
 17 18  2  0
 18 19  1  0
 19 20  1  0
 20 21  1  0
 21 22  1  0
 22 23  1  0
 22 24  1  0
 24 25  1  0
 24 26  1  0
 19 27  1  0
 27 28  1  1
 27 29  1  0
 29 30  1  0
 30 31  1  0
 31 32  1  1
  7  5  1  0
 31 10  1  0
 31 13  1  0
 27 15  1  0
 24 18  1  0
  1 33  1  0
  1 34  1  0
  1 35  1  0
  2 36  1  6
  3 37  1  0
  3 38  1  0
  4 39  1  0
  4 40  1  0
  5 41  1  1
  8 42  1  0
  8 43  1  0
  8 44  1  0
  9 45  1  0
  9 46  1  0
  9 47  1  0
 10 48  1  6
 11 49  1  0
 11 50  1  0
 12 51  1  0
 12 52  1  0
 14 53  1  0
 14 54  1  0
 14 55  1  0
 15 56  1  1
 16 57  1  0
 16 58  1  0
 17 59  1  0
 19 60  1  6
 20 61  1  0
 20 62  1  0
 21 63  1  0
 21 64  1  0
 22 65  1  6
 23 66  1  0
 25 67  1  0
 25 68  1  0
 25 69  1  0
 26 70  1  0
 26 71  1  0
 26 72  1  0
 28 73  1  0
 28 74  1  0
 28 75  1  0
 29 76  1  0
 29 77  1  0
 30 78  1  0
 30 79  1  0
 32 80  1  0
 32 81  1  0
 32 82  1  0
M  END
>  <meeko>  (8) 
{"is_sidechain": [false], "intermolecular_energy": 2.731, "internal_energy": -0.839}

$$$$
EPH_relaxed_0001_pdb2pqr_Repair_407_r2_0001_out
     RDKit          3D

 82 86  0  0  0  0  0  0  0  0999 V2000
   -0.7530   16.2930   -5.7100 C   0  0  0  0  0  0  0  0  0  0  0  0
    0.2800   15.5510   -6.5630 C   0  0  2  0  0  0  0  0  0  0  0  0
   -0.1900   15.3760   -8.0210 C   0  0  0  0  0  0  0  0  0  0  0  0
    0.4110   16.3990   -8.9890 C   0  0  0  0  0  0  0  0  0  0  0  0
    1.8210   16.0530   -9.3570 C   0  0  2  0  0  0  0  0  0  0  0  0
    2.3020   16.6870  -10.5490 O   0  0  0  0  0  0  0  0  0  0  0  0
    2.1910   15.2550  -10.5940 C   0  0  0  0  0  0  0  0  0  0  0  0
    1.1460   14.7550  -11.5410 C   0  0  0  0  0  0  0  0  0  0  0  0
    3.5110   14.5490  -10.6220 C   0  0  0  0  0  0  0  0  0  0  0  0
    0.5830   14.1910   -5.9460 C   0  0  1  0  0  0  0  0  0  0  0  0
    1.8340   13.5170   -6.5710 C   0  0  0  0  0  0  0  0  0  0  0  0
    2.5380   12.7370   -5.4320 C   0  0  0  0  0  0  0  0  0  0  0  0
    1.5050   12.7110   -4.2810 C   0  0  1  0  0  0  0  0  0  0  0  0
    0.5290   11.5480   -4.6440 C   0  0  0  0  0  0  0  0  0  0  0  0
    2.0830   12.5490   -2.8370 C   0  0  2  0  0  0  0  0  0  0  0  0
    2.8350   11.2320   -2.5790 C   0  0  0  0  0  0  0  0  0  0  0  0
    1.9960   10.1090   -2.0660 C   0  0  0  0  0  0  0  0  0  0  0  0
    0.7580   10.2290   -1.5530 C   0  0  0  0  0  0  0  0  0  0  0  0
    0.1160   11.6090   -1.3590 C   0  0  1  0  0  0  0  0  0  0  0  0
   -0.5200   11.6910    0.0530 C   0  0  0  0  0  0  0  0  0  0  0  0
   -1.4970   10.5500    0.3220 C   0  0  0  0  0  0  0  0  0  0  0  0
   -0.8070    9.1960    0.1770 C   0  0  2  0  0  0  0  0  0  0  0  0
    0.1630    9.0590    1.2200 O   0  0  0  0  0  0  0  0  0  0  0  0
   -0.1210    9.0020   -1.2040 C   0  0  0  0  0  0  0  0  0  0  0  0
   -1.2000    8.8490   -2.3040 C   0  0  0  0  0  0  0  0  0  0  0  0
    0.6550    7.6580   -1.1670 C   0  0  0  0  0  0  0  0  0  0  0  0
    1.0440   12.8570   -1.6840 C   0  0  1  0  0  0  0  0  0  0  0  0
    1.8780   13.2420   -0.4240 C   0  0  0  0  0  0  0  0  0  0  0  0
    0.1360   14.1010   -2.0130 C   0  0  0  0  0  0  0  0  0  0  0  0
   -0.3040   14.2710   -3.4800 C   0  0  0  0  0  0  0  0  0  0  0  0
    0.8930   14.1510   -4.4290 C   0  0  2  0  0  0  0  0  0  0  0  0
    1.8820   15.3210   -4.1020 C   0  0  0  0  0  0  0  0  0  0  0  0
   -0.5312   16.1337   -4.6445 H   0  0  0  0  0  0  0  0  0  0  0  0
   -0.7109   17.3686   -5.9364 H   0  0  0  0  0  0  0  0  0  0  0  0
   -1.7589   15.9097   -5.9364 H   0  0  0  0  0  0  0  0  0  0  0  0
    1.1945   16.1620   -6.5821 H   0  0  0  0  0  0  0  0  0  0  0  0
    0.0951   14.3688   -8.3592 H   0  0  0  0  0  0  0  0  0  0  0  0
   -1.2793   15.5286   -8.0279 H   0  0  0  0  0  0  0  0  0  0  0  0
   -0.1996   16.4257   -9.9036 H   0  0  0  0  0  0  0  0  0  0  0  0
    0.4179   17.3794   -8.4903 H   0  0  0  0  0  0  0  0  0  0  0  0
    2.0948   15.9414   -8.2975 H   0  0  0  0  0  0  0  0  0  0  0  0
    0.2978   14.3492  -10.9701 H   0  0  0  0  0  0  0  0  0  0  0  0
    0.7983   15.5843  -12.1745 H   0  0  0  0  0  0  0  0  0  0  0  0
    1.5736   13.9639  -12.1745 H   0  0  0  0  0  0  0  0  0  0  0  0
    3.8514   14.3670   -9.5919 H   0  0  0  0  0  0  0  0  0  0  0  0
    3.4021   13.5887  -11.1473 H   0  0  0  0  0  0  0  0  0  0  0  0
    4.2493   15.1727  -11.1473 H   0  0  0  0  0  0  0  0  0  0  0  0
   -0.3699   13.6804   -6.1490 H   0  0  0  0  0  0  0  0  0  0  0  0
    1.5317   12.8266   -7.3722 H   0  0  0  0  0  0  0  0  0  0  0  0
    2.5079   14.2667   -7.0113 H   0  0  0  0  0  0  0  0  0  0  0  0
    2.7845   11.7150   -5.7558 H   0  0  0  0  0  0  0  0  0  0  0  0
    3.4869   13.2046   -5.1306 H   0  0  0  0  0  0  0  0  0  0  0  0
    0.1447   11.0901   -3.7206 H   0  0  0  0  0  0  0  0  0  0  0  0
   -0.3107   11.9446   -5.2336 H   0  0  0  0  0  0  0  0  0  0  0  0
    1.0652   10.7898   -5.2336 H   0  0  0  0  0  0  0  0  0  0  0  0
    2.8457   13.3407   -2.7987 H   0  0  0  0  0  0  0  0  0  0  0  0
    3.2915   10.9099   -3.5266 H   0  0  0  0  0  0  0  0  0  0  0  0
    3.5683   11.4499   -1.7885 H   0  0  0  0  0  0  0  0  0  0  0  0
    2.4263    9.0977   -2.1112 H   0  0  0  0  0  0  0  0  0  0  0  0
   -0.6682   11.6898   -2.1261 H   0  0  0  0  0  0  0  0  0  0  0  0
    0.2827   11.6523    0.8041 H   0  0  0  0  0  0  0  0  0  0  0  0
   -1.0837   12.6338    0.1110 H   0  0  0  0  0  0  0  0  0  0  0  0
   -1.8901   10.6461    1.3449 H   0  0  0  0  0  0  0  0  0  0  0  0
   -2.3150   10.6077   -0.4111 H   0  0  0  0  0  0  0  0  0  0  0  0
   -1.5835    8.4205    0.2523 H   0  0  0  0  0  0  0  0  0  0  0  0
    1.0440    9.1000    0.8100 H   0  0  0  0  0  0  0  0  0  0  0  0
   -2.1850    8.7093   -1.8346 H   0  0  0  0  0  0  0  0  0  0  0  0
   -1.2169    9.7537   -2.9294 H   0  0  0  0  0  0  0  0  0  0  0  0
   -0.9647    7.9752   -2.9294 H   0  0  0  0  0  0  0  0  0  0  0  0
    0.8259    7.3620   -0.1215 H   0  0  0  0  0  0  0  0  0  0  0  0
    0.0667    6.8808   -1.6767 H   0  0  0  0  0  0  0  0  0  0  0  0
    1.6223    7.7789   -1.6767 H   0  0  0  0  0  0  0  0  0  0  0  0
    1.3132   12.9813    0.4832 H   0  0  0  0  0  0  0  0  0  0  0  0
    2.8310   12.6927   -0.4332 H   0  0  0  0  0  0  0  0  0  0  0  0
    2.0781   14.3236   -0.4332 H   0  0  0  0  0  0  0  0  0  0  0  0
   -0.7737   14.0205   -1.3998 H   0  0  0  0  0  0  0  0  0  0  0  0
    0.7615   14.9795   -1.7963 H   0  0  0  0  0  0  0  0  0  0  0  0
   -1.0393   13.4913   -3.7278 H   0  0  0  0  0  0  0  0  0  0  0  0
   -0.7476   15.2705   -3.5996 H   0  0  0  0  0  0  0  0  0  0  0  0
    1.9737   15.4295   -3.0112 H   0  0  0  0  0  0  0  0  0  0  0  0
    2.8693   15.0977   -4.5326 H   0  0  0  0  0  0  0  0  0  0  0  0
    1.4974   16.2573   -4.5326 H   0  0  0  0  0  0  0  0  0  0  0  0
  1  2  1  0
  2  3  1  0
  3  4  1  0
  4  5  1  0
  5  6  1  0
  6  7  1  0
  7  8  1  0
  7  9  1  0
  2 10  1  0
 10 11  1  0
 11 12  1  0
 12 13  1  0
 13 14  1  6
 13 15  1  0
 15 16  1  0
 16 17  1  0
 17 18  2  0
 18 19  1  0
 19 20  1  0
 20 21  1  0
 21 22  1  0
 22 23  1  0
 22 24  1  0
 24 25  1  0
 24 26  1  0
 19 27  1  0
 27 28  1  1
 27 29  1  0
 29 30  1  0
 30 31  1  0
 31 32  1  1
  7  5  1  0
 31 10  1  0
 31 13  1  0
 27 15  1  0
 24 18  1  0
  1 33  1  0
  1 34  1  0
  1 35  1  0
  2 36  1  6
  3 37  1  0
  3 38  1  0
  4 39  1  0
  4 40  1  0
  5 41  1  1
  8 42  1  0
  8 43  1  0
  8 44  1  0
  9 45  1  0
  9 46  1  0
  9 47  1  0
 10 48  1  1
 11 49  1  0
 11 50  1  0
 12 51  1  0
 12 52  1  0
 14 53  1  0
 14 54  1  0
 14 55  1  0
 15 56  1  6
 16 57  1  0
 16 58  1  0
 17 59  1  0
 19 60  1  6
 20 61  1  0
 20 62  1  0
 21 63  1  0
 21 64  1  0
 22 65  1  1
 23 66  1  0
 25 67  1  0
 25 68  1  0
 25 69  1  0
 26 70  1  0
 26 71  1  0
 26 72  1  0
 28 73  1  0
 28 74  1  0
 28 75  1  0
 29 76  1  0
 29 77  1  0
 30 78  1  0
 30 79  1  0
 32 80  1  0
 32 81  1  0
 32 82  1  0
M  END
>  <meeko>  (9) 
{"is_sidechain": [false], "intermolecular_energy": 2.731, "internal_energy": -0.839}

$$$$
EPH_relaxed_0001_pdb2pqr_Repair_407_r2_0001_out
     RDKit          3D

 82 86  0  0  0  0  0  0  0  0999 V2000
    0.1340   17.7850   -2.5710 C   0  0  0  0  0  0  0  0  0  0  0  0
   -0.1130   16.8900   -1.3530 C   0  0  2  0  0  0  0  0  0  0  0  0
   -0.1700   17.6990   -0.0410 C   0  0  0  0  0  0  0  0  0  0  0  0
    0.4600   19.0900   -0.1480 C   0  0  0  0  0  0  0  0  0  0  0  0
    1.6130   19.2510    0.7970 C   0  0  2  0  0  0  0  0  0  0  0  0
    2.6060   20.1940    0.3750 O   0  0  0  0  0  0  0  0  0  0  0  0
    3.0310   18.8250    0.4660 C   0  0  0  0  0  0  0  0  0  0  0  0
    3.3720   18.2040   -0.8520 C   0  0  0  0  0  0  0  0  0  0  0  0
    3.9800   18.5630    1.5940 C   0  0  0  0  0  0  0  0  0  0  0  0
    0.9730   15.8250   -1.2620 C   0  0  1  0  0  0  0  0  0  0  0  0
    1.1810   15.3060    0.1860 C   0  0  0  0  0  0  0  0  0  0  0  0
    1.5350   13.8000    0.0750 C   0  0  0  0  0  0  0  0  0  0  0  0
    1.8440   13.5820   -1.4250 C   0  0  1  0  0  0  0  0  0  0  0  0
    3.3160   14.0710   -1.6060 C   0  0  0  0  0  0  0  0  0  0  0  0
    1.6480   12.1290   -1.9670 C   0  0  2  0  0  0  0  0  0  0  0  0
    2.5580   11.0660   -1.3270 C   0  0  0  0  0  0  0  0  0  0  0  0
    3.8630   10.8450   -2.0170 C   0  0  0  0  0  0  0  0  0  0  0  0
    4.1720   11.2630   -3.2590 C   0  0  0  0  0  0  0  0  0  0  0  0
    3.1230   11.9510   -4.1420 C   0  0  1  0  0  0  0  0  0  0  0  0
    3.1600   11.3350   -5.5660 C   0  0  0  0  0  0  0  0  0  0  0  0
    4.5560   11.3710   -6.1820 C   0  0  0  0  0  0  0  0  0  0  0  0
    5.5580   10.6270   -5.3040 C   0  0  2  0  0  0  0  0  0  0  0  0
    5.2270    9.2350   -5.3040 O   0  0  0  0  0  0  0  0  0  0  0  0
    5.6020   11.1540   -3.8420 C   0  0  0  0  0  0  0  0  0  0  0  0
    6.2470   12.5620   -3.8150 C   0  0  0  0  0  0  0  0  0  0  0  0
    6.5470   10.2280   -3.0290 C   0  0  0  0  0  0  0  0  0  0  0  0
    1.6510   12.0190   -3.5450 C   0  0  1  0  0  0  0  0  0  0  0  0
    0.8710   10.7180   -3.9030 C   0  0  0  0  0  0  0  0  0  0  0  0
    0.8740   13.2060   -4.2290 C   0  0  0  0  0  0  0  0  0  0  0  0
    1.0130   14.5950   -3.5770 C   0  0  0  0  0  0  0  0  0  0  0  0
    0.7590   14.5200   -2.0690 C   0  0  2  0  0  0  0  0  0  0  0  0
   -0.7210   14.0520   -1.8550 C   0  0  0  0  0  0  0  0  0  0  0  0
    0.4126   18.7943   -2.2339 H   0  0  0  0  0  0  0  0  0  0  0  0
    0.9492   17.3628   -3.1770 H   0  0  0  0  0  0  0  0  0  0  0  0
   -0.7824   17.8407   -3.1770 H   0  0  0  0  0  0  0  0  0  0  0  0
   -1.0934   16.4098   -1.4878 H   0  0  0  0  0  0  0  0  0  0  0  0
   -1.2246   17.8167    0.2489 H   0  0  0  0  0  0  0  0  0  0  0  0
    0.4109   17.1396    0.7071 H   0  0  0  0  0  0  0  0  0  0  0  0
    0.8187   19.2407   -1.1769 H   0  0  0  0  0  0  0  0  0  0  0  0
   -0.3058   19.8344    0.1156 H   0  0  0  0  0  0  0  0  0  0  0  0
    0.9637   19.0469    1.6612 H   0  0  0  0  0  0  0  0  0  0  0  0
    3.8952   17.2511   -0.6839 H   0  0  0  0  0  0  0  0  0  0  0  0
    2.4485   18.0199   -1.4205 H   0  0  0  0  0  0  0  0  0  0  0  0
    4.0230   18.8845   -1.4205 H   0  0  0  0  0  0  0  0  0  0  0  0
    3.4592   18.7068    2.5522 H   0  0  0  0  0  0  0  0  0  0  0  0
    4.3500   17.5291    1.5293 H   0  0  0  0  0  0  0  0  0  0  0  0
    4.8280   19.2606    1.5293 H   0  0  0  0  0  0  0  0  0  0  0  0
    1.8202   16.3897   -1.6783 H   0  0  0  0  0  0  0  0  0  0  0  0
    2.0029   15.8536    0.6703 H   0  0  0  0  0  0  0  0  0  0  0  0
    0.2758   15.4553    0.7929 H   0  0  0  0  0  0  0  0  0  0  0  0
    2.4142   13.5612    0.6914 H   0  0  0  0  0  0  0  0  0  0  0  0
    0.7206   13.1524    0.4318 H   0  0  0  0  0  0  0  0  0  0  0  0
    3.7757   14.2237   -0.6184 H   0  0  0  0  0  0  0  0  0  0  0  0
    3.8877   13.3145   -2.1635 H   0  0  0  0  0  0  0  0  0  0  0  0
    3.3214   15.0192   -2.1635 H   0  0  0  0  0  0  0  0  0  0  0  0
    0.6277   11.8888   -1.6335 H   0  0  0  0  0  0  0  0  0  0  0  0
    2.7685   11.3767   -0.2930 H   0  0  0  0  0  0  0  0  0  0  0  0
    2.0110   10.1143   -1.3983 H   0  0  0  0  0  0  0  0  0  0  0  0
    4.6379   10.2940   -1.4639 H   0  0  0  0  0  0  0  0  0  0  0  0
    3.4113   13.0116   -4.1863 H   0  0  0  0  0  0  0  0  0  0  0  0
    2.8276   10.2881   -5.5063 H   0  0  0  0  0  0  0  0  0  0  0  0
    2.4962   11.9340   -6.2068 H   0  0  0  0  0  0  0  0  0  0  0  0
    4.5243   10.8964   -7.1739 H   0  0  0  0  0  0  0  0  0  0  0  0
    4.8752   12.4201   -6.2680 H   0  0  0  0  0  0  0  0  0  0  0  0
    6.5583   10.7973   -5.7287 H   0  0  0  0  0  0  0  0  0  0  0  0
    4.6410    9.0720   -4.5460 H   0  0  0  0  0  0  0  0  0  0  0  0
    6.3922   12.8789   -2.7717 H   0  0  0  0  0  0  0  0  0  0  0  0
    7.2200   12.5295   -4.3271 H   0  0  0  0  0  0  0  0  0  0  0  0
    5.5869   13.2776   -4.3271 H   0  0  0  0  0  0  0  0  0  0  0  0
    6.3823   10.3894   -1.9534 H   0  0  0  0  0  0  0  0  0  0  0  0
    6.3354    9.1778   -3.2788 H   0  0  0  0  0  0  0  0  0  0  0  0
    7.5926   10.4608   -3.2788 H   0  0  0  0  0  0  0  0  0  0  0  0
    0.5650   10.2076   -2.9779 H   0  0  0  0  0  0  0  0  0  0  0  0
   -0.0216   10.9759   -4.4919 H   0  0  0  0  0  0  0  0  0  0  0  0
    1.5191   10.0523   -4.4919 H   0  0  0  0  0  0  0  0  0  0  0  0
    1.2353   13.2870   -5.2648 H   0  0  0  0  0  0  0  0  0  0  0  0
   -0.1906   12.9474   -4.1307 H   0  0  0  0  0  0  0  0  0  0  0  0
    2.0304   14.9746   -3.7522 H   0  0  0  0  0  0  0  0  0  0  0  0
    0.2682   15.2691   -4.0252 H   0  0  0  0  0  0  0  0  0  0  0  0
   -0.9323   13.9852   -0.7775 H   0  0  0  0  0  0  0  0  0  0  0  0
   -1.4056   14.7775   -2.3186 H   0  0  0  0  0  0  0  0  0  0  0  0
   -0.8641   13.0648   -2.3186 H   0  0  0  0  0  0  0  0  0  0  0  0
  1  2  1  0
  2  3  1  0
  3  4  1  0
  4  5  1  0
  5  6  1  0
  6  7  1  0
  7  8  1  0
  7  9  1  0
  2 10  1  0
 10 11  1  0
 11 12  1  0
 12 13  1  0
 13 14  1  1
 13 15  1  0
 15 16  1  0
 16 17  1  0
 17 18  2  0
 18 19  1  0
 19 20  1  0
 20 21  1  0
 21 22  1  0
 22 23  1  0
 22 24  1  0
 24 25  1  0
 24 26  1  0
 19 27  1  0
 27 28  1  1
 27 29  1  0
 29 30  1  0
 30 31  1  0
 31 32  1  6
  7  5  1  0
 31 10  1  0
 31 13  1  0
 27 15  1  0
 24 18  1  0
  1 33  1  0
  1 34  1  0
  1 35  1  0
  2 36  1  6
  3 37  1  0
  3 38  1  0
  4 39  1  0
  4 40  1  0
  5 41  1  1
  8 42  1  0
  8 43  1  0
  8 44  1  0
  9 45  1  0
  9 46  1  0
  9 47  1  0
 10 48  1  6
 11 49  1  0
 11 50  1  0
 12 51  1  0
 12 52  1  0
 14 53  1  0
 14 54  1  0
 14 55  1  0
 15 56  1  1
 16 57  1  0
 16 58  1  0
 17 59  1  0
 19 60  1  6
 20 61  1  0
 20 62  1  0
 21 63  1  0
 21 64  1  0
 22 65  1  6
 23 66  1  0
 25 67  1  0
 25 68  1  0
 25 69  1  0
 26 70  1  0
 26 71  1  0
 26 72  1  0
 28 73  1  0
 28 74  1  0
 28 75  1  0
 29 76  1  0
 29 77  1  0
 30 78  1  0
 30 79  1  0
 32 80  1  0
 32 81  1  0
 32 82  1  0
M  END
>  <meeko>  (10) 
{"is_sidechain": [false], "intermolecular_energy": 2.731, "internal_energy": -0.839}

$$$$
EPH_relaxed_0001_pdb2pqr_Repair_407_r2_0001_out
     RDKit          3D

 82 86  0  0  0  0  0  0  0  0999 V2000
    1.2750   19.8370   -1.8850 C   0  0  0  0  0  0  0  0  0  0  0  0
    1.4600   19.4570   -0.4130 C   0  0  2  0  0  0  0  0  0  0  0  0
    2.8950   19.7290    0.0810 C   0  0  0  0  0  0  0  0  0  0  0  0
    2.9970   19.9250    1.5960 C   0  0  0  0  0  0  0  0  0  0  0  0
    4.3860   19.6640    2.0960 C   0  0  2  0  0  0  0  0  0  0  0  0
    4.5770   18.3730    2.6880 O   0  0  0  0  0  0  0  0  0  0  0  0
    4.7290   19.5010    3.5650 C   0  0  0  0  0  0  0  0  0  0  0  0
    3.6790   19.5930    4.6270 C   0  0  0  0  0  0  0  0  0  0  0  0
    6.1420   19.7390    4.0000 C   0  0  0  0  0  0  0  0  0  0  0  0
    1.1080   17.9880   -0.2070 C   0  0  1  0  0  0  0  0  0  0  0  0
   -0.2240   17.7960    0.5670 C   0  0  0  0  0  0  0  0  0  0  0  0
   -0.9020   16.5300   -0.0170 C   0  0  0  0  0  0  0  0  0  0  0  0
    0.2010   15.8520   -0.8640 C   0  0  1  0  0  0  0  0  0  0  0  0
    1.0710   15.0650    0.1650 C   0  0  0  0  0  0  0  0  0  0  0  0
   -0.2900   14.9310   -2.0280 C   0  0  2  0  0  0  0  0  0  0  0  0
   -1.1100   13.7060   -1.5890 C   0  0  0  0  0  0  0  0  0  0  0  0
   -0.3160   12.4700   -1.3220 C   0  0  0  0  0  0  0  0  0  0  0  0
    0.9590   12.2630   -1.7000 C   0  0  0  0  0  0  0  0  0  0  0  0
    1.7040   13.2930   -2.5590 C   0  0  1  0  0  0  0  0  0  0  0  0
    2.4360   12.5690   -3.7190 C   0  0  0  0  0  0  0  0  0  0  0  0
    3.3500   11.4510   -3.2270 C   0  0  0  0  0  0  0  0  0  0  0  0
    2.5630   10.4160   -2.4270 C   0  0  2  0  0  0  0  0  0  0  0  0
    1.6560    9.7450   -3.3080 O   0  0  0  0  0  0  0  0  0  0  0  0
    1.7750   11.0310   -1.2360 C   0  0  0  0  0  0  0  0  0  0  0  0
    2.7670   11.4900   -0.1380 C   0  0  0  0  0  0  0  0  0  0  0  0
    0.9150    9.9060   -0.6010 C   0  0  0  0  0  0  0  0  0  0  0  0
    0.8420   14.5310   -3.0590 C   0  0  1  0  0  0  0  0  0  0  0  0
    0.1210   14.1720   -4.3950 C   0  0  0  0  0  0  0  0  0  0  0  0
    1.8070   15.7320   -3.3850 C   0  0  0  0  0  0  0  0  0  0  0  0
    2.1590   16.6760   -2.2190 C   0  0  0  0  0  0  0  0  0  0  0  0
    0.8970   17.1230   -1.4750 C   0  0  2  0  0  0  0  0  0  0  0  0
    0.0120   17.9360   -2.4790 C   0  0  0  0  0  0  0  0  0  0  0  0
    0.7944   20.8242   -1.9512 H   0  0  0  0  0  0  0  0  0  0  0  0
    2.2564   19.8730   -2.3805 H   0  0  0  0  0  0  0  0  0  0  0  0
    0.6413   19.0867   -2.3805 H   0  0  0  0  0  0  0  0  0  0  0  0
    0.7816   20.0885    0.1794 H   0  0  0  0  0  0  0  0  0  0  0  0
    3.5276   18.8748   -0.2021 H   0  0  0  0  0  0  0  0  0  0  0  0
    3.2240   20.6682   -0.3878 H   0  0  0  0  0  0  0  0  0  0  0  0
    2.7185   20.9605    1.8411 H   0  0  0  0  0  0  0  0  0  0  0  0
    2.3174   19.2089    2.0812 H   0  0  0  0  0  0  0  0  0  0  0  0
    4.8150   20.2949    1.3036 H   0  0  0  0  0  0  0  0  0  0  0  0
    4.1550   19.5513    5.6178 H   0  0  0  0  0  0  0  0  0  0  0  0
    3.1334   20.5424    4.5220 H   0  0  0  0  0  0  0  0  0  0  0  0
    2.9767   18.7530    4.5220 H   0  0  0  0  0  0  0  0  0  0  0  0
    6.1909   19.7472    5.0989 H   0  0  0  0  0  0  0  0  0  0  0  0
    6.7857   18.9366    3.6103 H   0  0  0  0  0  0  0  0  0  0  0  0
    6.4873   20.7080    3.6103 H   0  0  0  0  0  0  0  0  0  0  0  0
    2.0087   17.6557    0.3299 H   0  0  0  0  0  0  0  0  0  0  0  0
   -0.0224   17.6572    1.6394 H   0  0  0  0  0  0  0  0  0  0  0  0
   -0.8737   18.6771    0.4598 H   0  0  0  0  0  0  0  0  0  0  0  0
   -1.2376   15.8620    0.7899 H   0  0  0  0  0  0  0  0  0  0  0  0
   -1.7951   16.7719   -0.6118 H   0  0  0  0  0  0  0  0  0  0  0  0
    0.7683   15.3389    1.1864 H   0  0  0  0  0  0  0  0  0  0  0  0
    0.9265   13.9846    0.0170 H   0  0  0  0  0  0  0  0  0  0  0  0
    2.1315   15.3168    0.0170 H   0  0  0  0  0  0  0  0  0  0  0  0
   -0.9940   15.5837   -2.5649 H   0  0  0  0  0  0  0  0  0  0  0  0
   -1.6485   13.9700   -0.6668 H   0  0  0  0  0  0  0  0  0  0  0  0
   -1.7735   13.4654   -2.4327 H   0  0  0  0  0  0  0  0  0  0  0  0
   -0.8153   11.6602   -0.7697 H   0  0  0  0  0  0  0  0  0  0  0  0
    2.4399   13.7683   -1.8938 H   0  0  0  0  0  0  0  0  0  0  0  0
    1.6838   12.1374   -4.3957 H   0  0  0  0  0  0  0  0  0  0  0  0
    3.0640   13.3118   -4.2326 H   0  0  0  0  0  0  0  0  0  0  0  0
    3.8152   10.9585   -4.0936 H   0  0  0  0  0  0  0  0  0  0  0  0
    4.1200   11.8882   -2.5743 H   0  0  0  0  0  0  0  0  0  0  0  0
    3.2893    9.7131   -1.9929 H   0  0  0  0  0  0  0  0  0  0  0  0
    1.4700    8.8700   -2.9270 H   0  0  0  0  0  0  0  0  0  0  0  0
    2.3347   11.2900    0.8535 H   0  0  0  0  0  0  0  0  0  0  0  0
    3.7125   10.9378   -0.2440 H   0  0  0  0  0  0  0  0  0  0  0  0
    2.9581   12.5681   -0.2440 H   0  0  0  0  0  0  0  0  0  0  0  0
    0.9695    9.9773    0.4953 H   0  0  0  0  0  0  0  0  0  0  0  0
   -0.1306   10.0171   -0.9241 H   0  0  0  0  0  0  0  0  0  0  0  0
    1.2965    8.9262   -0.9241 H   0  0  0  0  0  0  0  0  0  0  0  0
   -0.8435   13.6917   -4.1736 H   0  0  0  0  0  0  0  0  0  0  0  0
   -0.0513   15.0896   -4.9767 H   0  0  0  0  0  0  0  0  0  0  0  0
    0.7494   13.4816   -4.9767 H   0  0  0  0  0  0  0  0  0  0  0  0
    2.7480   15.3089   -3.7664 H   0  0  0  0  0  0  0  0  0  0  0  0
    1.2572   16.3560   -4.1050 H   0  0  0  0  0  0  0  0  0  0  0  0
    2.8227   16.1493   -1.5175 H   0  0  0  0  0  0  0  0  0  0  0  0
    2.6591   17.5665   -2.6276 H   0  0  0  0  0  0  0  0  0  0  0  0
   -0.6849   18.5762   -1.9182 H   0  0  0  0  0  0  0  0  0  0  0  0
    0.6572   18.5629   -3.1120 H   0  0  0  0  0  0  0  0  0  0  0  0
   -0.5580   17.2400   -3.1120 H   0  0  0  0  0  0  0  0  0  0  0  0
  1  2  1  0
  2  3  1  0
  3  4  1  0
  4  5  1  0
  5  6  1  0
  6  7  1  0
  7  8  1  0
  7  9  1  0
  2 10  1  0
 10 11  1  0
 11 12  1  0
 12 13  1  0
 13 14  1  1
 13 15  1  0
 15 16  1  0
 16 17  1  0
 17 18  2  0
 18 19  1  0
 19 20  1  0
 20 21  1  0
 21 22  1  0
 22 23  1  0
 22 24  1  0
 24 25  1  0
 24 26  1  0
 19 27  1  0
 27 28  1  6
 27 29  1  0
 29 30  1  0
 30 31  1  0
 31 32  1  6
  7  5  1  0
 31 10  1  0
 31 13  1  0
 27 15  1  0
 24 18  1  0
  1 33  1  0
  1 34  1  0
  1 35  1  0
  2 36  1  1
  3 37  1  0
  3 38  1  0
  4 39  1  0
  4 40  1  0
  5 41  1  6
  8 42  1  0
  8 43  1  0
  8 44  1  0
  9 45  1  0
  9 46  1  0
  9 47  1  0
 10 48  1  1
 11 49  1  0
 11 50  1  0
 12 51  1  0
 12 52  1  0
 14 53  1  0
 14 54  1  0
 14 55  1  0
 15 56  1  6
 16 57  1  0
 16 58  1  0
 17 59  1  0
 19 60  1  1
 20 61  1  0
 20 62  1  0
 21 63  1  0
 21 64  1  0
 22 65  1  1
 23 66  1  0
 25 67  1  0
 25 68  1  0
 25 69  1  0
 26 70  1  0
 26 71  1  0
 26 72  1  0
 28 73  1  0
 28 74  1  0
 28 75  1  0
 29 76  1  0
 29 77  1  0
 30 78  1  0
 30 79  1  0
 32 80  1  0
 32 81  1  0
 32 82  1  0
M  END
>  <meeko>  (11) 
{"is_sidechain": [false], "intermolecular_energy": 2.731, "internal_energy": -0.839}

$$$$
EPH_relaxed_0001_pdb2pqr_Repair_407_r2_0001_out
     RDKit          3D

 82 86  0  0  0  0  0  0  0  0999 V2000
   -2.1440    7.7670   -2.1580 C   0  0  0  0  0  0  0  0  0  0  0  0
   -2.3270    8.4510   -0.8000 C   0  0  2  0  0  0  0  0  0  0  0  0
   -3.8030    8.4730   -0.3560 C   0  0  0  0  0  0  0  0  0  0  0  0
   -4.7640    7.8650   -1.3810 C   0  0  0  0  0  0  0  0  0  0  0  0
   -5.9070    7.1580   -0.7180 C   0  0  2  0  0  0  0  0  0  0  0  0
   -6.4580    6.0720   -1.4740 O   0  0  0  0  0  0  0  0  0  0  0  0
   -7.3300    7.1900   -1.2440 C   0  0  0  0  0  0  0  0  0  0  0  0
   -7.6860    7.9490   -2.4840 C   0  0  0  0  0  0  0  0  0  0  0  0
   -8.4500    6.8970   -0.2960 C   0  0  0  0  0  0  0  0  0  0  0  0
   -1.7790    9.8720   -0.8570 C   0  0  1  0  0  0  0  0  0  0  0  0
   -1.3390   10.3990    0.5360 C   0  0  0  0  0  0  0  0  0  0  0  0
   -0.1030   11.3040    0.3010 C   0  0  0  0  0  0  0  0  0  0  0  0
   -0.0730   11.5360   -1.2280 C   0  0  1  0  0  0  0  0  0  0  0  0
   -1.1120   12.6740   -1.4810 C   0  0  0  0  0  0  0  0  0  0  0  0
    1.3210   11.8780   -1.8480 C   0  0  2  0  0  0  0  0  0  0  0  0
    1.9540   13.1880   -1.3460 C   0  0  0  0  0  0  0  0  0  0  0  0
    1.6160   14.4060   -2.1400 C   0  0  0  0  0  0  0  0  0  0  0  0
    1.0710   14.4100   -3.3700 C   0  0  0  0  0  0  0  0  0  0  0  0
    0.8280   13.1000   -4.1300 C   0  0  1  0  0  0  0  0  0  0  0  0
    1.3330   13.2460   -5.5890 C   0  0  0  0  0  0  0  0  0  0  0  0
    0.7260   14.4520   -6.3000 C   0  0  0  0  0  0  0  0  0  0  0  0
    1.0380   15.7430   -5.5460 C   0  0  2  0  0  0  0  0  0  0  0  0
    2.4460   15.9870   -5.6130 O   0  0  0  0  0  0  0  0  0  0  0  0
    0.5840   15.7090   -4.0600 C   0  0  0  0  0  0  0  0  0  0  0  0
   -0.9630   15.7470   -3.9870 C   0  0  0  0  0  0  0  0  0  0  0  0
    1.0830   17.0120   -3.3780 C   0  0  0  0  0  0  0  0  0  0  0  0
    1.3690   11.7810   -3.4260 C   0  0  1  0  0  0  0  0  0  0  0  0
    2.8620   11.5460   -3.8120 C   0  0  0  0  0  0  0  0  0  0  0  0
    0.5690   10.5410   -3.9740 C   0  0  0  0  0  0  0  0  0  0  0  0
   -0.7400   10.1810   -3.2440 C   0  0  0  0  0  0  0  0  0  0  0  0
   -0.5220   10.1160   -1.7300 C   0  0  2  0  0  0  0  0  0  0  0  0
    0.5010    8.9650   -1.4420 C   0  0  0  0  0  0  0  0  0  0  0  0
   -1.8625    6.7149   -2.0036 H   0  0  0  0  0  0  0  0  0  0  0  0
   -3.0867    7.8153   -2.7229 H   0  0  0  0  0  0  0  0  0  0  0  0
   -1.3514    8.2795   -2.7229 H   0  0  0  0  0  0  0  0  0  0  0  0
   -1.7671    7.8658   -0.0556 H   0  0  0  0  0  0  0  0  0  0  0  0
   -3.8917    7.9056    0.5822 H   0  0  0  0  0  0  0  0  0  0  0  0
   -4.0867    9.5291   -0.2368 H   0  0  0  0  0  0  0  0  0  0  0  0
   -5.1628    8.6693   -2.0166 H   0  0  0  0  0  0  0  0  0  0  0  0
   -4.2065    7.1294   -1.9794 H   0  0  0  0  0  0  0  0  0  0  0  0
   -5.4840    7.3582    0.2775 H   0  0  0  0  0  0  0  0  0  0  0  0
   -8.1380    8.9128   -2.2069 H   0  0  0  0  0  0  0  0  0  0  0  0
   -6.7776    8.1274   -3.0782 H   0  0  0  0  0  0  0  0  0  0  0  0
   -8.4039    7.3646   -3.0782 H   0  0  0  0  0  0  0  0  0  0  0  0
   -8.0888    6.9915    0.7387 H   0  0  0  0  0  0  0  0  0  0  0  0
   -9.2696    7.6110   -0.4649 H   0  0  0  0  0  0  0  0  0  0  0  0
   -8.8150    5.8731   -0.4649 H   0  0  0  0  0  0  0  0  0  0  0  0
   -2.6469   10.3864   -1.2952 H   0  0  0  0  0  0  0  0  0  0  0  0
   -2.1522   10.9800    0.9955 H   0  0  0  0  0  0  0  0  0  0  0  0
   -1.0969    9.5678    1.2146 H   0  0  0  0  0  0  0  0  0  0  0  0
   -0.2135   12.2586    0.8363 H   0  0  0  0  0  0  0  0  0  0  0  0
    0.8258   10.8454    0.6712 H   0  0  0  0  0  0  0  0  0  0  0  0
   -1.4692   13.0653   -0.5170 H   0  0  0  0  0  0  0  0  0  0  0  0
   -0.6360   13.4847   -2.0521 H   0  0  0  0  0  0  0  0  0  0  0  0
   -1.9626   12.2736   -2.0521 H   0  0  0  0  0  0  0  0  0  0  0  0
    1.9577   11.0698   -1.4589 H   0  0  0  0  0  0  0  0  0  0  0  0
    1.6183   13.3529   -0.3115 H   0  0  0  0  0  0  0  0  0  0  0  0
    3.0419   13.0557   -1.4410 H   0  0  0  0  0  0  0  0  0  0  0  0
    1.8306   15.3823   -1.6808 H   0  0  0  0  0  0  0  0  0  0  0  0
   -0.2608   12.9433   -4.1266 H   0  0  0  0  0  0  0  0  0  0  0  0
    2.4270   13.3593   -5.5739 H   0  0  0  0  0  0  0  0  0  0  0  0
    1.0272   12.3445   -6.1401 H   0  0  0  0  0  0  0  0  0  0  0  0
    1.1427   14.5185   -7.3159 H   0  0  0  0  0  0  0  0  0  0  0  0
   -0.3657   14.3235   -6.3402 H   0  0  0  0  0  0  0  0  0  0  0  0
    0.4711   16.5525   -6.0290 H   0  0  0  0  0  0  0  0  0  0  0  0
    2.6750   16.5900   -4.8860 H   0  0  0  0  0  0  0  0  0  0  0  0
   -1.2803   15.7548   -2.9338 H   0  0  0  0  0  0  0  0  0  0  0  0
   -1.3315   16.6545   -4.4877 H   0  0  0  0  0  0  0  0  0  0  0  0
   -1.3756   14.8587   -4.4877 H   0  0  0  0  0  0  0  0  0  0  0  0
    1.0379   16.8943   -2.2852 H   0  0  0  0  0  0  0  0  0  0  0  0
    2.1210   17.2111   -3.6829 H   0  0  0  0  0  0  0  0  0  0  0  0
    0.4435   17.8535   -3.6829 H   0  0  0  0  0  0  0  0  0  0  0  0
    3.4664   11.4509   -2.8979 H   0  0  0  0  0  0  0  0  0  0  0  0
    2.9465   10.6235   -4.4052 H   0  0  0  0  0  0  0  0  0  0  0  0
    3.2258   12.3979   -4.4052 H   0  0  0  0  0  0  0  0  0  0  0  0
    0.3185   10.7448   -5.0255 H   0  0  0  0  0  0  0  0  0  0  0  0
    1.2328    9.6780   -3.8174 H   0  0  0  0  0  0  0  0  0  0  0  0
   -1.4982   10.9464   -3.4660 H   0  0  0  0  0  0  0  0  0  0  0  0
   -1.0766    9.1936   -3.5930 H   0  0  0  0  0  0  0  0  0  0  0  0
    0.6138    8.8381   -0.3552 H   0  0  0  0  0  0  0  0  0  0  0  0
    0.1324    8.0277   -1.8843 H   0  0  0  0  0  0  0  0  0  0  0  0
    1.4751    9.2210   -1.8843 H   0  0  0  0  0  0  0  0  0  0  0  0
  1  2  1  0
  2  3  1  0
  3  4  1  0
  4  5  1  0
  5  6  1  0
  6  7  1  0
  7  8  1  0
  7  9  1  0
  2 10  1  0
 10 11  1  0
 11 12  1  0
 12 13  1  0
 13 14  1  1
 13 15  1  0
 15 16  1  0
 16 17  1  0
 17 18  2  0
 18 19  1  0
 19 20  1  0
 20 21  1  0
 21 22  1  0
 22 23  1  0
 22 24  1  0
 24 25  1  0
 24 26  1  0
 19 27  1  0
 27 28  1  1
 27 29  1  0
 29 30  1  0
 30 31  1  0
 31 32  1  6
  7  5  1  0
 31 10  1  0
 31 13  1  0
 27 15  1  0
 24 18  1  0
  1 33  1  0
  1 34  1  0
  1 35  1  0
  2 36  1  1
  3 37  1  0
  3 38  1  0
  4 39  1  0
  4 40  1  0
  5 41  1  1
  8 42  1  0
  8 43  1  0
  8 44  1  0
  9 45  1  0
  9 46  1  0
  9 47  1  0
 10 48  1  6
 11 49  1  0
 11 50  1  0
 12 51  1  0
 12 52  1  0
 14 53  1  0
 14 54  1  0
 14 55  1  0
 15 56  1  1
 16 57  1  0
 16 58  1  0
 17 59  1  0
 19 60  1  6
 20 61  1  0
 20 62  1  0
 21 63  1  0
 21 64  1  0
 22 65  1  6
 23 66  1  0
 25 67  1  0
 25 68  1  0
 25 69  1  0
 26 70  1  0
 26 71  1  0
 26 72  1  0
 28 73  1  0
 28 74  1  0
 28 75  1  0
 29 76  1  0
 29 77  1  0
 30 78  1  0
 30 79  1  0
 32 80  1  0
 32 81  1  0
 32 82  1  0
M  END
>  <meeko>  (12) 
{"is_sidechain": [false], "intermolecular_energy": 2.731, "internal_energy": -0.839}

$$$$
EPH_relaxed_0001_pdb2pqr_Repair_407_r2_0001_out
     RDKit          3D

 82 86  0  0  0  0  0  0  0  0999 V2000
    3.0850   18.6510   -3.7360 C   0  0  0  0  0  0  0  0  0  0  0  0
    2.0670   18.4040   -2.6200 C   0  0  2  0  0  0  0  0  0  0  0  0
    2.1080   19.5060   -1.5420 C   0  0  0  0  0  0  0  0  0  0  0  0
    1.2950   19.1710   -0.2880 C   0  0  0  0  0  0  0  0  0  0  0  0
    0.0390   19.9850   -0.2090 C   0  0  2  0  0  0  0  0  0  0  0  0
   -0.4560   20.1940    1.1200 O   0  0  0  0  0  0  0  0  0  0  0  0
   -1.2950   19.4220    0.2460 C   0  0  0  0  0  0  0  0  0  0  0  0
   -1.4400   17.9890    0.6500 C   0  0  0  0  0  0  0  0  0  0  0  0
   -2.5480   20.1300   -0.1670 C   0  0  0  0  0  0  0  0  0  0  0  0
    2.3150   17.0420   -1.9820 C   0  0  1  0  0  0  0  0  0  0  0  0
    2.7760   17.1500   -0.5040 C   0  0  0  0  0  0  0  0  0  0  0  0
    2.1660   15.9360    0.2440 C   0  0  0  0  0  0  0  0  0  0  0  0
    1.6580   15.0010   -0.8780 C   0  0  1  0  0  0  0  0  0  0  0  0
    2.9250   14.2270   -1.3590 C   0  0  0  0  0  0  0  0  0  0  0  0
    0.4980   14.0260   -0.4920 C   0  0  2  0  0  0  0  0  0  0  0  0
    0.8440   13.0020    0.6020 C   0  0  0  0  0  0  0  0  0  0  0  0
    1.3940   11.7040    0.1100 C   0  0  0  0  0  0  0  0  0  0  0  0
    1.3390   11.2620   -1.1600 C   0  0  0  0  0  0  0  0  0  0  0  0
    0.5870   12.0550   -2.2370 C   0  0  1  0  0  0  0  0  0  0  0  0
   -0.3060   11.0900   -3.0610 C   0  0  0  0  0  0  0  0  0  0  0  0
    0.4800    9.9170   -3.6410 C   0  0  0  0  0  0  0  0  0  0  0  0
    1.1650    9.1200   -2.5340 C   0  0  2  0  0  0  0  0  0  0  0  0
    0.1630    8.4880   -1.7330 O   0  0  0  0  0  0  0  0  0  0  0  0
    2.0850    9.9900   -1.6320 C   0  0  0  0  0  0  0  0  0  0  0  0
    3.3360   10.4280   -2.4320 C   0  0  0  0  0  0  0  0  0  0  0  0
    2.6020    9.0950   -0.4740 C   0  0  0  0  0  0  0  0  0  0  0  0
   -0.2060   13.3350   -1.7290 C   0  0  1  0  0  0  0  0  0  0  0  0
   -1.6340   12.9240   -1.2570 C   0  0  0  0  0  0  0  0  0  0  0  0
   -0.4060   14.3280   -2.9350 C   0  0  0  0  0  0  0  0  0  0  0  0
    0.7220   15.3460   -3.1910 C   0  0  0  0  0  0  0  0  0  0  0  0
    1.1140   16.0660   -1.8980 C   0  0  2  0  0  0  0  0  0  0  0  0
   -0.1350   16.8720   -1.4010 C   0  0  0  0  0  0  0  0  0  0  0  0
    4.0637   18.8885   -3.2936 H   0  0  0  0  0  0  0  0  0  0  0  0
    3.1732   17.7482   -4.3582 H   0  0  0  0  0  0  0  0  0  0  0  0
    2.7497   19.4938   -4.3582 H   0  0  0  0  0  0  0  0  0  0  0  0
    1.0658   18.4245   -3.0752 H   0  0  0  0  0  0  0  0  0  0  0  0
    3.1555   19.6627   -1.2452 H   0  0  0  0  0  0  0  0  0  0  0  0
    1.6583   20.4066   -1.9856 H   0  0  0  0  0  0  0  0  0  0  0  0
    1.0278   18.1042   -0.3106 H   0  0  0  0  0  0  0  0  0  0  0  0
    1.9111   19.4040    0.5930 H   0  0  0  0  0  0  0  0  0  0  0  0
    0.3309   20.5657   -1.0965 H   0  0  0  0  0  0  0  0  0  0  0  0
   -1.4473   17.9164    1.7476 H   0  0  0  0  0  0  0  0  0  0  0  0
   -2.3832   17.5888    0.2497 H   0  0  0  0  0  0  0  0  0  0  0  0
   -0.5961   17.4080    0.2497 H   0  0  0  0  0  0  0  0  0  0  0  0
   -3.1039   20.4441    0.7287 H   0  0  0  0  0  0  0  0  0  0  0  0
   -2.2885   21.0150   -0.7666 H   0  0  0  0  0  0  0  0  0  0  0  0
   -3.1722   19.4511   -0.7666 H   0  0  0  0  0  0  0  0  0  0  0  0
    3.0717   16.6482   -2.6765 H   0  0  0  0  0  0  0  0  0  0  0  0
    3.8740   17.1180   -0.4462 H   0  0  0  0  0  0  0  0  0  0  0  0
    2.4449   18.0980   -0.0549 H   0  0  0  0  0  0  0  0  0  0  0  0
    2.9302   15.4315    0.8535 H   0  0  0  0  0  0  0  0  0  0  0  0
    1.3632   16.2325    0.9351 H   0  0  0  0  0  0  0  0  0  0  0  0
    3.4954   13.8785   -0.4854 H   0  0  0  0  0  0  0  0  0  0  0  0
    2.6181   13.3620   -1.9653 H   0  0  0  0  0  0  0  0  0  0  0  0
    3.5545   14.8949   -1.9653 H   0  0  0  0  0  0  0  0  0  0  0  0
   -0.2415   14.7049   -0.0423 H   0  0  0  0  0  0  0  0  0  0  0  0
    1.5912   13.4567    1.2690 H   0  0  0  0  0  0  0  0  0  0  0  0
   -0.1048   12.7599    1.1031 H   0  0  0  0  0  0  0  0  0  0  0  0
    1.8860   11.0537    0.8483 H   0  0  0  0  0  0  0  0  0  0  0  0
    1.3591   12.4953   -2.8851 H   0  0  0  0  0  0  0  0  0  0  0  0
   -1.0966   10.6952   -2.4059 H   0  0  0  0  0  0  0  0  0  0  0  0
   -0.7253   11.6601   -3.9032 H   0  0  0  0  0  0  0  0  0  0  0  0
   -0.2095    9.2561   -4.1868 H   0  0  0  0  0  0  0  0  0  0  0  0
    1.2513   10.3115   -4.3189 H   0  0  0  0  0  0  0  0  0  0  0  0
    1.8143    8.3751   -3.0173 H   0  0  0  0  0  0  0  0  0  0  0  0
    0.2460    7.5280   -1.8610 H   0  0  0  0  0  0  0  0  0  0  0  0
    4.1381   10.7088   -1.7336 H   0  0  0  0  0  0  0  0  0  0  0  0
    3.6762    9.5955   -3.0654 H   0  0  0  0  0  0  0  0  0  0  0  0
    3.0826   11.2909   -3.0654 H   0  0  0  0  0  0  0  0  0  0  0  0
    2.3371    9.5536    0.4901 H   0  0  0  0  0  0  0  0  0  0  0  0
    2.1399    8.0993   -0.5457 H   0  0  0  0  0  0  0  0  0  0  0  0
    3.6953    8.9978   -0.5457 H   0  0  0  0  0  0  0  0  0  0  0  0
   -1.6681   12.9142   -0.1576 H   0  0  0  0  0  0  0  0  0  0  0  0
   -2.3691   13.6470   -1.6402 H   0  0  0  0  0  0  0  0  0  0  0  0
   -1.8723   11.9208   -1.6402 H   0  0  0  0  0  0  0  0  0  0  0  0
   -0.5229   13.7245   -3.8472 H   0  0  0  0  0  0  0  0  0  0  0  0
   -1.2846   14.9332   -2.6670 H   0  0  0  0  0  0  0  0  0  0  0  0
    1.6006   14.8171   -3.5890 H   0  0  0  0  0  0  0  0  0  0  0  0
    0.3626   16.0934   -3.9136 H   0  0  0  0  0  0  0  0  0  0  0  0
   -0.1509   16.8822   -0.3012 H   0  0  0  0  0  0  0  0  0  0  0  0
   -0.0784   17.9044   -1.7765 H   0  0  0  0  0  0  0  0  0  0  0  0
   -1.0523   16.3951   -1.7765 H   0  0  0  0  0  0  0  0  0  0  0  0
  1  2  1  0
  2  3  1  0
  3  4  1  0
  4  5  1  0
  5  6  1  0
  6  7  1  0
  7  8  1  0
  7  9  1  0
  2 10  1  0
 10 11  1  0
 11 12  1  0
 12 13  1  0
 13 14  1  6
 13 15  1  0
 15 16  1  0
 16 17  1  0
 17 18  2  0
 18 19  1  0
 19 20  1  0
 20 21  1  0
 21 22  1  0
 22 23  1  0
 22 24  1  0
 24 25  1  0
 24 26  1  0
 19 27  1  0
 27 28  1  1
 27 29  1  0
 29 30  1  0
 30 31  1  0
 31 32  1  1
  7  5  1  0
 31 10  1  0
 31 13  1  0
 27 15  1  0
 24 18  1  0
  1 33  1  0
  1 34  1  0
  1 35  1  0
  2 36  1  6
  3 37  1  0
  3 38  1  0
  4 39  1  0
  4 40  1  0
  5 41  1  6
  8 42  1  0
  8 43  1  0
  8 44  1  0
  9 45  1  0
  9 46  1  0
  9 47  1  0
 10 48  1  6
 11 49  1  0
 11 50  1  0
 12 51  1  0
 12 52  1  0
 14 53  1  0
 14 54  1  0
 14 55  1  0
 15 56  1  1
 16 57  1  0
 16 58  1  0
 17 59  1  0
 19 60  1  6
 20 61  1  0
 20 62  1  0
 21 63  1  0
 21 64  1  0
 22 65  1  6
 23 66  1  0
 25 67  1  0
 25 68  1  0
 25 69  1  0
 26 70  1  0
 26 71  1  0
 26 72  1  0
 28 73  1  0
 28 74  1  0
 28 75  1  0
 29 76  1  0
 29 77  1  0
 30 78  1  0
 30 79  1  0
 32 80  1  0
 32 81  1  0
 32 82  1  0
M  END
>  <meeko>  (13) 
{"is_sidechain": [false], "intermolecular_energy": 2.731, "internal_energy": -0.839}

$$$$
EPH_relaxed_0001_pdb2pqr_Repair_407_r2_0001_out
     RDKit          3D

 82 86  0  0  0  0  0  0  0  0999 V2000
   -4.1460    7.2590   -3.4370 C   0  0  0  0  0  0  0  0  0  0  0  0
   -3.8770    7.2340   -1.9300 C   0  0  2  0  0  0  0  0  0  0  0  0
   -5.1420    6.8880   -1.1190 C   0  0  0  0  0  0  0  0  0  0  0  0
   -6.3490    6.5250   -1.9880 C   0  0  0  0  0  0  0  0  0  0  0  0
   -7.5870    6.3340   -1.1650 C   0  0  2  0  0  0  0  0  0  0  0  0
   -8.6470    5.6360   -1.8310 O   0  0  0  0  0  0  0  0  0  0  0  0
   -8.9120    7.0040   -1.4780 C   0  0  0  0  0  0  0  0  0  0  0  0
   -9.0660    7.9160   -2.6540 C   0  0  0  0  0  0  0  0  0  0  0  0
   -9.9140    7.1590   -0.3770 C   0  0  0  0  0  0  0  0  0  0  0  0
   -3.3210    8.5790   -1.4790 C   0  0  1  0  0  0  0  0  0  0  0  0
   -3.9060    9.0420   -0.1180 C   0  0  0  0  0  0  0  0  0  0  0  0
   -2.7720    9.7950    0.6240 C   0  0  0  0  0  0  0  0  0  0  0  0
   -1.6890   10.0300   -0.4550 C   0  0  1  0  0  0  0  0  0  0  0  0
   -2.1760   11.2850   -1.2450 C   0  0  0  0  0  0  0  0  0  0  0  0
   -0.2240   10.2070    0.0630 C   0  0  2  0  0  0  0  0  0  0  0  0
    0.0040   11.4280    0.9710 C   0  0  0  0  0  0  0  0  0  0  0  0
    0.4010   12.6820    0.2650 C   0  0  0  0  0  0  0  0  0  0  0  0
    0.8430   12.7590   -1.0040 C   0  0  0  0  0  0  0  0  0  0  0  0
    1.0750   11.4910   -1.8360 C   0  0  1  0  0  0  0  0  0  0  0  0
    2.4490   11.5840   -2.5500 C   0  0  0  0  0  0  0  0  0  0  0  0
    2.5930   12.8580   -3.3770 C   0  0  0  0  0  0  0  0  0  0  0  0
    2.4130   14.0980   -2.5040 C   0  0  2  0  0  0  0  0  0  0  0  0
    3.5040   14.1730   -1.5810 O   0  0  0  0  0  0  0  0  0  0  0  0
    1.0680   14.1100   -1.7270 C   0  0  0  0  0  0  0  0  0  0  0  0
   -0.1030   14.3330   -2.7160 C   0  0  0  0  0  0  0  0  0  0  0  0
    1.0750   15.3400   -0.7790 C   0  0  0  0  0  0  0  0  0  0  0  0
    0.8790   10.1130   -1.0680 C   0  0  1  0  0  0  0  0  0  0  0  0
    2.2070    9.7040   -0.3610 C   0  0  0  0  0  0  0  0  0  0  0  0
    0.5660    8.9800   -2.1160 C   0  0  0  0  0  0  0  0  0  0  0  0
   -0.9120    8.7750   -2.4970 C   0  0  0  0  0  0  0  0  0  0  0  0
   -1.7920    8.6760   -1.2470 C   0  0  2  0  0  0  0  0  0  0  0  0
   -1.3400    7.4100   -0.4430 C   0  0  0  0  0  0  0  0  0  0  0  0
   -5.2269    7.3595   -3.6149 H   0  0  0  0  0  0  0  0  0  0  0  0
   -3.6191    8.1120   -3.8894 H   0  0  0  0  0  0  0  0  0  0  0  0
   -3.7853    6.3235   -3.8894 H   0  0  0  0  0  0  0  0  0  0  0  0
   -3.1369    6.4428   -1.7396 H   0  0  0  0  0  0  0  0  0  0  0  0
   -4.9134    6.0321   -0.4670 H   0  0  0  0  0  0  0  0  0  0  0  0
   -5.4150    7.7882   -0.5489 H   0  0  0  0  0  0  0  0  0  0  0  0
   -6.5235    7.3346   -2.7119 H   0  0  0  0  0  0  0  0  0  0  0  0
   -6.1292    5.5775   -2.5018 H   0  0  0  0  0  0  0  0  0  0  0  0
   -6.9918    6.2720   -0.2420 H   0  0  0  0  0  0  0  0  0  0  0  0
   -9.2395    8.9433   -2.3011 H   0  0  0  0  0  0  0  0  0  0  0  0
   -8.1503    7.8872   -3.2628 H   0  0  0  0  0  0  0  0  0  0  0  0
   -9.9215    7.5881   -3.2628 H   0  0  0  0  0  0  0  0  0  0  0  0
   -9.4055    7.0803    0.5953 H   0  0  0  0  0  0  0  0  0  0  0  0
  -10.3991    8.1429   -0.4586 H   0  0  0  0  0  0  0  0  0  0  0  0
  -10.6737    6.3677   -0.4586 H   0  0  0  0  0  0  0  0  0  0  0  0
   -3.6105    9.1958   -2.3426 H   0  0  0  0  0  0  0  0  0  0  0  0
   -4.7619    9.7132   -0.2823 H   0  0  0  0  0  0  0  0  0  0  0  0
   -4.2614    8.1839    0.4713 H   0  0  0  0  0  0  0  0  0  0  0  0
   -3.1377   10.7529    1.0223 H   0  0  0  0  0  0  0  0  0  0  0  0
   -2.3876    9.2275    1.4843 H   0  0  0  0  0  0  0  0  0  0  0  0
   -2.4803   12.0692   -0.5361 H   0  0  0  0  0  0  0  0  0  0  0  0
   -1.3581   11.6601   -1.8778 H   0  0  0  0  0  0  0  0  0  0  0  0
   -3.0328   11.0102   -1.8778 H   0  0  0  0  0  0  0  0  0  0  0  0
   -0.0941    9.3264    0.7092 H   0  0  0  0  0  0  0  0  0  0  0  0
   -0.9310   11.6259    1.5157 H   0  0  0  0  0  0  0  0  0  0  0  0
    0.8484   11.1670    1.6259 H   0  0  0  0  0  0  0  0  0  0  0  0
    0.3259   13.6229    0.8298 H   0  0  0  0  0  0  0  0  0  0  0  0
    0.2675   11.4651   -2.5825 H   0  0  0  0  0  0  0  0  0  0  0  0
    3.2436   11.5654   -1.7896 H   0  0  0  0  0  0  0  0  0  0  0  0
    2.5268   10.7288   -3.2375 H   0  0  0  0  0  0  0  0  0  0  0  0
    3.5940   12.8805   -3.8324 H   0  0  0  0  0  0  0  0  0  0  0  0
    1.8162   12.8609   -4.1559 H   0  0  0  0  0  0  0  0  0  0  0  0
    2.3963   14.9725   -3.1711 H   0  0  0  0  0  0  0  0  0  0  0  0
    3.1280   14.2260   -0.6860 H   0  0  0  0  0  0  0  0  0  0  0  0
   -1.0307   14.5097   -2.1520 H   0  0  0  0  0  0  0  0  0  0  0  0
    0.1131   15.2061   -3.3492 H   0  0  0  0  0  0  0  0  0  0  0  0
   -0.2230   13.4416   -3.3492 H   0  0  0  0  0  0  0  0  0  0  0  0
    1.0730   14.9973    0.2663 H   0  0  0  0  0  0  0  0  0  0  0  0
    1.9766   15.9418   -0.9659 H   0  0  0  0  0  0  0  0  0  0  0  0
    0.1803   15.9521   -0.9659 H   0  0  0  0  0  0  0  0  0  0  0  0
    2.0699    9.7462    0.7296 H   0  0  0  0  0  0  0  0  0  0  0  0
    2.4797    8.6802   -0.6569 H   0  0  0  0  0  0  0  0  0  0  0  0
    3.0084   10.3970   -0.6569 H   0  0  0  0  0  0  0  0  0  0  0  0
    1.1173    9.2179   -3.0377 H   0  0  0  0  0  0  0  0  0  0  0  0
    0.8693    8.0431   -1.6259 H   0  0  0  0  0  0  0  0  0  0  0  0
   -1.2478    9.6266   -3.1069 H   0  0  0  0  0  0  0  0  0  0  0  0
   -1.0011    7.8365   -3.0638 H   0  0  0  0  0  0  0  0  0  0  0  0
   -1.4132    7.6150    0.6353 H   0  0  0  0  0  0  0  0  0  0  0  0
   -1.9905    6.5610   -0.6998 H   0  0  0  0  0  0  0  0  0  0  0  0
   -0.2988    7.1650   -0.6998 H   0  0  0  0  0  0  0  0  0  0  0  0
  1  2  1  0
  2  3  1  0
  3  4  1  0
  4  5  1  0
  5  6  1  0
  6  7  1  0
  7  8  1  0
  7  9  1  0
  2 10  1  0
 10 11  1  0
 11 12  1  0
 12 13  1  0
 13 14  1  6
 13 15  1  0
 15 16  1  0
 16 17  1  0
 17 18  2  0
 18 19  1  0
 19 20  1  0
 20 21  1  0
 21 22  1  0
 22 23  1  0
 22 24  1  0
 24 25  1  0
 24 26  1  0
 19 27  1  0
 27 28  1  1
 27 29  1  0
 29 30  1  0
 30 31  1  0
 31 32  1  1
  7  5  1  0
 31 10  1  0
 31 13  1  0
 27 15  1  0
 24 18  1  0
  1 33  1  0
  1 34  1  0
  1 35  1  0
  2 36  1  6
  3 37  1  0
  3 38  1  0
  4 39  1  0
  4 40  1  0
  5 41  1  1
  8 42  1  0
  8 43  1  0
  8 44  1  0
  9 45  1  0
  9 46  1  0
  9 47  1  0
 10 48  1  6
 11 49  1  0
 11 50  1  0
 12 51  1  0
 12 52  1  0
 14 53  1  0
 14 54  1  0
 14 55  1  0
 15 56  1  1
 16 57  1  0
 16 58  1  0
 17 59  1  0
 19 60  1  6
 20 61  1  0
 20 62  1  0
 21 63  1  0
 21 64  1  0
 22 65  1  6
 23 66  1  0
 25 67  1  0
 25 68  1  0
 25 69  1  0
 26 70  1  0
 26 71  1  0
 26 72  1  0
 28 73  1  0
 28 74  1  0
 28 75  1  0
 29 76  1  0
 29 77  1  0
 30 78  1  0
 30 79  1  0
 32 80  1  0
 32 81  1  0
 32 82  1  0
M  END
>  <meeko>  (14) 
{"is_sidechain": [false], "intermolecular_energy": 2.731, "internal_energy": -0.839}

$$$$
EPH_relaxed_0001_pdb2pqr_Repair_407_r2_0001_out
     RDKit          3D

 82 86  0  0  0  0  0  0  0  0999 V2000
    0.2100    9.2820   -2.2910 C   0  0  0  0  0  0  0  0  0  0  0  0
    1.1760   10.3460   -2.8190 C   0  0  2  0  0  0  0  0  0  0  0  0
    2.6040    9.7940   -3.0040 C   0  0  0  0  0  0  0  0  0  0  0  0
    3.4910   10.6700   -3.8930 C   0  0  0  0  0  0  0  0  0  0  0  0
    4.8830   10.7810   -3.3480 C   0  0  2  0  0  0  0  0  0  0  0  0
    5.5810   11.9740   -3.7290 O   0  0  0  0  0  0  0  0  0  0  0  0
    6.1270   10.7370   -4.2160 C   0  0  0  0  0  0  0  0  0  0  0  0
    6.0380   10.5750   -5.7010 C   0  0  0  0  0  0  0  0  0  0  0  0
    7.4300   10.3620   -3.5800 C   0  0  0  0  0  0  0  0  0  0  0  0
    1.1980   11.5420   -1.8740 C   0  0  1  0  0  0  0  0  0  0  0  0
    2.2830   11.4130   -0.7720 C   0  0  0  0  0  0  0  0  0  0  0  0
    2.8180   12.8430   -0.5010 C   0  0  0  0  0  0  0  0  0  0  0  0
    1.8050   13.7770   -1.2030 C   0  0  1  0  0  0  0  0  0  0  0  0
    0.6120   13.8980   -0.2050 C   0  0  0  0  0  0  0  0  0  0  0  0
    2.3430   15.1810   -1.6330 C   0  0  2  0  0  0  0  0  0  0  0  0
    2.8120   16.0820   -0.4760 C   0  0  0  0  0  0  0  0  0  0  0  0
    1.7640   16.9720    0.1040 C   0  0  0  0  0  0  0  0  0  0  0  0
    0.5770   17.2570   -0.4640 C   0  0  0  0  0  0  0  0  0  0  0  0
    0.2300   16.7370   -1.8650 C   0  0  1  0  0  0  0  0  0  0  0  0
   -0.3710   17.8900   -2.7110 C   0  0  0  0  0  0  0  0  0  0  0  0
   -1.5590   18.5600   -2.0260 C   0  0  0  0  0  0  0  0  0  0  0  0
   -1.1590   19.1150   -0.6610 C   0  0  2  0  0  0  0  0  0  0  0  0
   -0.2330   20.1890   -0.8540 O   0  0  0  0  0  0  0  0  0  0  0  0
   -0.5310   18.0460    0.2750 C   0  0  0  0  0  0  0  0  0  0  0  0
   -1.6230   17.0430    0.7260 C   0  0  0  0  0  0  0  0  0  0  0  0
   -0.0440   18.7650    1.5620 C   0  0  0  0  0  0  0  0  0  0  0  0
    1.3920   15.9640   -2.6260 C   0  0  1  0  0  0  0  0  0  0  0  0
    2.2910   16.9790   -3.3960 C   0  0  0  0  0  0  0  0  0  0  0  0
    0.7550   15.0200   -3.7130 C   0  0  0  0  0  0  0  0  0  0  0  0
    0.3540   13.6050   -3.2560 C   0  0  0  0  0  0  0  0  0  0  0  0
    1.4980   12.9310   -2.4920 C   0  0  2  0  0  0  0  0  0  0  0  0
    2.7060   12.7760   -3.4780 C   0  0  0  0  0  0  0  0  0  0  0  0
    0.2191    9.2920   -1.1911 H   0  0  0  0  0  0  0  0  0  0  0  0
   -0.8065    9.4985   -2.6513 H   0  0  0  0  0  0  0  0  0  0  0  0
    0.5234    8.2911   -2.6513 H   0  0  0  0  0  0  0  0  0  0  0  0
    0.8134   10.6604   -3.8088 H   0  0  0  0  0  0  0  0  0  0  0  0
    3.0763    9.7133   -2.0138 H   0  0  0  0  0  0  0  0  0  0  0  0
    2.5099    8.8189   -3.5043 H   0  0  0  0  0  0  0  0  0  0  0  0
    3.5361   10.2270   -4.8988 H   0  0  0  0  0  0  0  0  0  0  0  0
    3.0539   11.6789   -3.9263 H   0  0  0  0  0  0  0  0  0  0  0  0
    4.5973   10.2299   -2.4399 H   0  0  0  0  0  0  0  0  0  0  0  0
    5.5207    9.6333   -5.9368 H   0  0  0  0  0  0  0  0  0  0  0  0
    5.4768   11.4188   -6.1289 H   0  0  0  0  0  0  0  0  0  0  0  0
    7.0511   10.5538   -6.1289 H   0  0  0  0  0  0  0  0  0  0  0  0
    7.3258   10.3920   -2.4854 H   0  0  0  0  0  0  0  0  0  0  0  0
    7.7122    9.3462   -3.8938 H   0  0  0  0  0  0  0  0  0  0  0  0
    8.2090   11.0724   -3.8938 H   0  0  0  0  0  0  0  0  0  0  0  0
    0.1607   11.5081   -1.5095 H   0  0  0  0  0  0  0  0  0  0  0  0
    1.8436   10.9929    0.1448 H   0  0  0  0  0  0  0  0  0  0  0  0
    3.0937   10.7423   -1.0927 H   0  0  0  0  0  0  0  0  0  0  0  0
    2.8507   13.0473    0.5794 H   0  0  0  0  0  0  0  0  0  0  0  0
    3.8432   12.9830   -0.8744 H   0  0  0  0  0  0  0  0  0  0  0  0
    0.9917   13.8595    0.8267 H   0  0  0  0  0  0  0  0  0  0  0  0
    0.0922   14.8535   -0.3690 H   0  0  0  0  0  0  0  0  0  0  0  0
   -0.0890   13.0663   -0.3690 H   0  0  0  0  0  0  0  0  0  0  0  0
    3.2506   14.9227   -2.1983 H   0  0  0  0  0  0  0  0  0  0  0  0
    3.1902   15.4335    0.3280 H   0  0  0  0  0  0  0  0  0  0  0  0
    3.5768   16.7490   -0.9005 H   0  0  0  0  0  0  0  0  0  0  0  0
    1.9796   17.4346    1.0785 H   0  0  0  0  0  0  0  0  0  0  0  0
   -0.5234   15.9490   -1.7184 H   0  0  0  0  0  0  0  0  0  0  0  0
    0.4097   18.6458   -2.8823 H   0  0  0  0  0  0  0  0  0  0  0  0
   -0.7305   17.4583   -3.6567 H   0  0  0  0  0  0  0  0  0  0  0  0
   -1.9211   19.3844   -2.6579 H   0  0  0  0  0  0  0  0  0  0  0  0
   -2.3506   17.8099   -1.8821 H   0  0  0  0  0  0  0  0  0  0  0  0
   -2.0765   19.4651   -0.1654 H   0  0  0  0  0  0  0  0  0  0  0  0
    0.6510   19.8000   -0.9630 H   0  0  0  0  0  0  0  0  0  0  0  0
   -1.6591   17.0099    1.8249 H   0  0  0  0  0  0  0  0  0  0  0  0
   -2.6000   17.3651    0.3366 H   0  0  0  0  0  0  0  0  0  0  0  0
   -1.3849   16.0422    0.3366 H   0  0  0  0  0  0  0  0  0  0  0  0
   -0.4111   18.2230    2.4460 H   0  0  0  0  0  0  0  0  0  0  0  0
    1.0557   18.7870    1.5759 H   0  0  0  0  0  0  0  0  0  0  0  0
   -0.4316   19.7944    1.5759 H   0  0  0  0  0  0  0  0  0  0  0  0
    2.8420   17.6011   -2.6752 H   0  0  0  0  0  0  0  0  0  0  0  0
    3.0050   16.4305   -4.0280 H   0  0  0  0  0  0  0  0  0  0  0  0
    1.6603   17.6215   -4.0280 H   0  0  0  0  0  0  0  0  0  0  0  0
   -0.1501   15.5153   -4.0945 H   0  0  0  0  0  0  0  0  0  0  0  0
    1.5472   14.8669   -4.4606 H   0  0  0  0  0  0  0  0  0  0  0  0
   -0.5255   13.6747   -2.5991 H   0  0  0  0  0  0  0  0  0  0  0  0
    0.1228   13.0012   -4.1460 H   0  0  0  0  0  0  0  0  0  0  0  0
    3.6359   12.6567   -2.9027 H   0  0  0  0  0  0  0  0  0  0  0  0
    2.5507   11.8904   -4.1117 H   0  0  0  0  0  0  0  0  0  0  0  0
    2.7793   13.6721   -4.1117 H   0  0  0  0  0  0  0  0  0  0  0  0
  1  2  1  0
  2  3  1  0
  3  4  1  0
  4  5  1  0
  5  6  1  0
  6  7  1  0
  7  8  1  0
  7  9  1  0
  2 10  1  0
 10 11  1  0
 11 12  1  0
 12 13  1  0
 13 14  1  1
 13 15  1  0
 15 16  1  0
 16 17  1  0
 17 18  2  0
 18 19  1  0
 19 20  1  0
 20 21  1  0
 21 22  1  0
 22 23  1  0
 22 24  1  0
 24 25  1  0
 24 26  1  0
 19 27  1  0
 27 28  1  6
 27 29  1  0
 29 30  1  0
 30 31  1  0
 31 32  1  6
  7  5  1  0
 31 10  1  0
 31 13  1  0
 27 15  1  0
 24 18  1  0
  1 33  1  0
  1 34  1  0
  1 35  1  0
  2 36  1  6
  3 37  1  0
  3 38  1  0
  4 39  1  0
  4 40  1  0
  5 41  1  1
  8 42  1  0
  8 43  1  0
  8 44  1  0
  9 45  1  0
  9 46  1  0
  9 47  1  0
 10 48  1  1
 11 49  1  0
 11 50  1  0
 12 51  1  0
 12 52  1  0
 14 53  1  0
 14 54  1  0
 14 55  1  0
 15 56  1  6
 16 57  1  0
 16 58  1  0
 17 59  1  0
 19 60  1  1
 20 61  1  0
 20 62  1  0
 21 63  1  0
 21 64  1  0
 22 65  1  1
 23 66  1  0
 25 67  1  0
 25 68  1  0
 25 69  1  0
 26 70  1  0
 26 71  1  0
 26 72  1  0
 28 73  1  0
 28 74  1  0
 28 75  1  0
 29 76  1  0
 29 77  1  0
 30 78  1  0
 30 79  1  0
 32 80  1  0
 32 81  1  0
 32 82  1  0
M  END
>  <meeko>  (15) 
{"is_sidechain": [false], "intermolecular_energy": 2.731, "internal_energy": -0.839}

$$$$
EPH_relaxed_0001_pdb2pqr_Repair_407_r2_0001_out
     RDKit          3D

 82 86  0  0  0  0  0  0  0  0999 V2000
   -5.1760    5.8080   -1.8000 C   0  0  0  0  0  0  0  0  0  0  0  0
   -5.4760    7.3100   -1.8340 C   0  0  2  0  0  0  0  0  0  0  0  0
   -5.2460    7.9780   -0.4630 C   0  0  0  0  0  0  0  0  0  0  0  0
   -4.2140    9.1080   -0.4950 C   0  0  0  0  0  0  0  0  0  0  0  0
   -2.8300    8.5880   -0.7440 C   0  0  2  0  0  0  0  0  0  0  0  0
   -1.8650    8.9570    0.2500 O   0  0  0  0  0  0  0  0  0  0  0  0
   -1.6470    9.4810   -1.0700 C   0  0  0  0  0  0  0  0  0  0  0  0
   -1.7940   10.9670   -1.1670 C   0  0  0  0  0  0  0  0  0  0  0  0
   -0.4690    8.8790   -1.7710 C   0  0  0  0  0  0  0  0  0  0  0  0
   -6.9100    7.5430   -2.2940 C   0  0  1  0  0  0  0  0  0  0  0  0
   -7.2260    6.8420   -3.6420 C   0  0  0  0  0  0  0  0  0  0  0  0
   -8.7040    6.3790   -3.5690 C   0  0  0  0  0  0  0  0  0  0  0  0
   -9.2820    7.1120   -2.3350 C   0  0  1  0  0  0  0  0  0  0  0  0
   -9.6250    8.5470   -2.8450 C   0  0  0  0  0  0  0  0  0  0  0  0
  -10.5100    6.4360   -1.6430 C   0  0  2  0  0  0  0  0  0  0  0  0
  -11.7680    6.3140   -2.5210 C   0  0  0  0  0  0  0  0  0  0  0  0
  -12.7140    7.4670   -2.4430 C   0  0  0  0  0  0  0  0  0  0  0  0
  -12.7080    8.4210   -1.4940 C   0  0  0  0  0  0  0  0  0  0  0  0
  -11.7400    8.3450   -0.3060 C   0  0  1  0  0  0  0  0  0  0  0  0
  -12.5100    8.6370    1.0080 C   0  0  0  0  0  0  0  0  0  0  0  0
  -13.2700    9.9590    0.9600 C   0  0  0  0  0  0  0  0  0  0  0  0
  -14.2640    9.9740   -0.1990 C   0  0  2  0  0  0  0  0  0  0  0  0
  -15.2880    9.0070    0.0590 O   0  0  0  0  0  0  0  0  0  0  0  0
  -13.6040    9.6810   -1.5760 C   0  0  0  0  0  0  0  0  0  0  0  0
  -12.7190   10.8810   -1.9940 C   0  0  0  0  0  0  0  0  0  0  0  0
  -14.7350    9.5860   -2.6360 C   0  0  0  0  0  0  0  0  0  0  0  0
  -10.8560    7.0270   -0.2160 C   0  0  1  0  0  0  0  0  0  0  0  0
  -11.6360    5.9150    0.5490 C   0  0  0  0  0  0  0  0  0  0  0  0
   -9.5660    7.3310    0.6340 C   0  0  0  0  0  0  0  0  0  0  0  0
   -8.3470    7.8840   -0.1270 C   0  0  0  0  0  0  0  0  0  0  0  0
   -8.0450    7.0390   -1.3680 C   0  0  2  0  0  0  0  0  0  0  0  0
   -7.6750    5.5950   -0.8850 C   0  0  0  0  0  0  0  0  0  0  0  0
   -5.1087    5.4711   -0.7550 H   0  0  0  0  0  0  0  0  0  0  0  0
   -5.9827    5.2613   -2.3103 H   0  0  0  0  0  0  0  0  0  0  0  0
   -4.2212    5.6132   -2.3103 H   0  0  0  0  0  0  0  0  0  0  0  0
   -4.7778    7.7719   -2.5476 H   0  0  0  0  0  0  0  0  0  0  0  0
   -6.2033    8.3917   -0.1132 H   0  0  0  0  0  0  0  0  0  0  0  0
   -4.8530    7.2024    0.2108 H   0  0  0  0  0  0  0  0  0  0  0  0
   -4.4803    9.8114   -1.2977 H   0  0  0  0  0  0  0  0  0  0  0  0
   -4.2216    9.6072    0.4852 H   0  0  0  0  0  0  0  0  0  0  0  0
   -3.2302    7.6866   -1.2312 H   0  0  0  0  0  0  0  0  0  0  0  0
   -1.8366   11.3980   -0.1559 H   0  0  0  0  0  0  0  0  0  0  0  0
   -0.9329   11.3861   -1.7082 H   0  0  0  0  0  0  0  0  0  0  0  0
   -2.7205   11.2093   -1.7082 H   0  0  0  0  0  0  0  0  0  0  0  0
    0.2519    8.5106   -1.0263 H   0  0  0  0  0  0  0  0  0  0  0  0
   -0.8054    8.0423   -2.4009 H   0  0  0  0  0  0  0  0  0  0  0  0
    0.0120    9.6418   -2.4009 H   0  0  0  0  0  0  0  0  0  0  0  0
   -6.9156    8.6424   -2.3307 H   0  0  0  0  0  0  0  0  0  0  0  0
   -7.0903    7.5461   -4.4762 H   0  0  0  0  0  0  0  0  0  0  0  0
   -6.5525    5.9889   -3.8112 H   0  0  0  0  0  0  0  0  0  0  0  0
   -9.2467    6.6672   -4.4813 H   0  0  0  0  0  0  0  0  0  0  0  0
   -8.7952    5.2860   -3.4856 H   0  0  0  0  0  0  0  0  0  0  0  0
   -9.7843    9.2136   -1.9846 H   0  0  0  0  0  0  0  0  0  0  0  0
   -8.7926    8.9281   -3.4549 H   0  0  0  0  0  0  0  0  0  0  0  0
  -10.5397    8.5105   -3.4549 H   0  0  0  0  0  0  0  0  0  0  0  0
  -10.1552    5.4069   -1.4849 H   0  0  0  0  0  0  0  0  0  0  0  0
  -11.4438    6.2104   -3.5670 H   0  0  0  0  0  0  0  0  0  0  0  0
  -12.3200    5.4410   -2.1426 H   0  0  0  0  0  0  0  0  0  0  0  0
  -13.4808    7.5428   -3.2280 H   0  0  0  0  0  0  0  0  0  0  0  0
  -10.9850    9.1264   -0.4774 H   0  0  0  0  0  0  0  0  0  0  0  0
  -13.2290    7.8232    1.1835 H   0  0  0  0  0  0  0  0  0  0  0  0
  -11.7707    8.7065    1.8195 H   0  0  0  0  0  0  0  0  0  0  0  0
  -13.8165   10.0948    1.9050 H   0  0  0  0  0  0  0  0  0  0  0  0
  -12.5470   10.7750    0.8137 H   0  0  0  0  0  0  0  0  0  0  0  0
  -14.6827   10.9893   -0.2613 H   0  0  0  0  0  0  0  0  0  0  0  0
  -15.0140    8.1710   -0.3550 H   0  0  0  0  0  0  0  0  0  0  0  0
  -12.3433   11.3904   -1.0944 H   0  0  0  0  0  0  0  0  0  0  0  0
  -11.8697   10.5194   -2.5923 H   0  0  0  0  0  0  0  0  0  0  0  0
  -13.3154   11.5856   -2.5923 H   0  0  0  0  0  0  0  0  0  0  0  0
  -15.7074    9.5043   -2.1283 H   0  0  0  0  0  0  0  0  0  0  0  0
  -14.7245   10.4882   -3.2652 H   0  0  0  0  0  0  0  0  0  0  0  0
  -14.5742    8.6982   -3.2652 H   0  0  0  0  0  0  0  0  0  0  0  0
  -11.5272    6.0701    1.6326 H   0  0  0  0  0  0  0  0  0  0  0  0
  -12.7009    5.9609    0.2771 H   0  0  0  0  0  0  0  0  0  0  0  0
  -11.2303    4.9294    0.2771 H   0  0  0  0  0  0  0  0  0  0  0  0
   -9.8404    8.0680    1.4031 H   0  0  0  0  0  0  0  0  0  0  0  0
   -9.2425    6.3550    1.0249 H   0  0  0  0  0  0  0  0  0  0  0  0
   -8.5561    8.9182   -0.4382 H   0  0  0  0  0  0  0  0  0  0  0  0
   -7.4731    7.8514    0.5402 H   0  0  0  0  0  0  0  0  0  0  0  0
   -7.6678    5.5668    0.2146 H   0  0  0  0  0  0  0  0  0  0  0  0
   -8.4188    4.8793   -1.2653 H   0  0  0  0  0  0  0  0  0  0  0  0
   -6.6787    5.3252   -1.2653 H   0  0  0  0  0  0  0  0  0  0  0  0
  1  2  1  0
  2  3  1  0
  3  4  1  0
  4  5  1  0
  5  6  1  0
  6  7  1  0
  7  8  1  0
  7  9  1  0
  2 10  1  0
 10 11  1  0
 11 12  1  0
 12 13  1  0
 13 14  1  6
 13 15  1  0
 15 16  1  0
 16 17  1  0
 17 18  2  0
 18 19  1  0
 19 20  1  0
 20 21  1  0
 21 22  1  0
 22 23  1  0
 22 24  1  0
 24 25  1  0
 24 26  1  0
 19 27  1  0
 27 28  1  1
 27 29  1  0
 29 30  1  0
 30 31  1  0
 31 32  1  1
  7  5  1  0
 31 10  1  0
 31 13  1  0
 27 15  1  0
 24 18  1  0
  1 33  1  0
  1 34  1  0
  1 35  1  0
  2 36  1  6
  3 37  1  0
  3 38  1  0
  4 39  1  0
  4 40  1  0
  5 41  1  6
  8 42  1  0
  8 43  1  0
  8 44  1  0
  9 45  1  0
  9 46  1  0
  9 47  1  0
 10 48  1  6
 11 49  1  0
 11 50  1  0
 12 51  1  0
 12 52  1  0
 14 53  1  0
 14 54  1  0
 14 55  1  0
 15 56  1  1
 16 57  1  0
 16 58  1  0
 17 59  1  0
 19 60  1  6
 20 61  1  0
 20 62  1  0
 21 63  1  0
 21 64  1  0
 22 65  1  6
 23 66  1  0
 25 67  1  0
 25 68  1  0
 25 69  1  0
 26 70  1  0
 26 71  1  0
 26 72  1  0
 28 73  1  0
 28 74  1  0
 28 75  1  0
 29 76  1  0
 29 77  1  0
 30 78  1  0
 30 79  1  0
 32 80  1  0
 32 81  1  0
 32 82  1  0
M  END
>  <meeko>  (16) 
{"is_sidechain": [false], "intermolecular_energy": 2.731, "internal_energy": -0.839}

$$$$
EPH_relaxed_0001_pdb2pqr_Repair_407_r2_0001_out
     RDKit          3D

 82 86  0  0  0  0  0  0  0  0999 V2000
   -0.3790   18.9790   -2.8120 C   0  0  0  0  0  0  0  0  0  0  0  0
    0.1810   18.3260   -1.5450 C   0  0  2  0  0  0  0  0  0  0  0  0
    1.2980   19.1700   -0.9000 C   0  0  0  0  0  0  0  0  0  0  0  0
    1.1330   19.3600    0.6100 C   0  0  0  0  0  0  0  0  0  0  0  0
    2.3370   20.0090    1.2220 C   0  0  2  0  0  0  0  0  0  0  0  0
    3.4400   20.1940    0.3240 O   0  0  0  0  0  0  0  0  0  0  0  0
    3.6610   19.2950    1.4230 C   0  0  0  0  0  0  0  0  0  0  0  0
    3.8480   17.8680    1.0150 C   0  0  0  0  0  0  0  0  0  0  0  0
    4.6100   19.8250    2.4530 C   0  0  0  0  0  0  0  0  0  0  0  0
    0.7020   16.9300   -1.8670 C   0  0  1  0  0  0  0  0  0  0  0  0
    2.2090   16.9270   -2.2390 C   0  0  0  0  0  0  0  0  0  0  0  0
    2.8030   15.6050   -1.6900 C   0  0  0  0  0  0  0  0  0  0  0  0
    1.5700   14.7480   -1.3180 C   0  0  1  0  0  0  0  0  0  0  0  0
    1.0950   14.1220   -2.6660 C   0  0  0  0  0  0  0  0  0  0  0  0
    1.7920   13.6570   -0.2210 C   0  0  2  0  0  0  0  0  0  0  0  0
    2.8050   12.5590   -0.5880 C   0  0  0  0  0  0  0  0  0  0  0  0
    2.2280   11.3600   -1.2660 C   0  0  0  0  0  0  0  0  0  0  0  0
    0.9210   11.0420   -1.3130 C   0  0  0  0  0  0  0  0  0  0  0  0
   -0.1210   11.8770   -0.5580 C   0  0  1  0  0  0  0  0  0  0  0  0
   -1.0840   10.9340    0.2100 C   0  0  0  0  0  0  0  0  0  0  0  0
   -1.7220    9.8860   -0.6960 C   0  0  0  0  0  0  0  0  0  0  0  0
   -0.6560    9.0370   -1.3840 C   0  0  2  0  0  0  0  0  0  0  0  0
    0.0210    8.2570   -0.3940 O   0  0  0  0  0  0  0  0  0  0  0  0
    0.3780    9.8800   -2.1820 C   0  0  0  0  0  0  0  0  0  0  0  0
   -0.3010   10.4870   -3.4350 C   0  0  0  0  0  0  0  0  0  0  0  0
    1.4760    8.9170   -2.7070 C   0  0  0  0  0  0  0  0  0  0  0  0
    0.4550   13.0400    0.3600 C   0  0  1  0  0  0  0  0  0  0  0  0
    0.8010   12.4800    1.7740 C   0  0  0  0  0  0  0  0  0  0  0  0
   -0.6630   14.1280    0.5740 C   0  0  0  0  0  0  0  0  0  0  0  0
   -0.7540   15.2470   -0.4810 C   0  0  0  0  0  0  0  0  0  0  0  0
    0.6220   15.8650   -0.7450 C   0  0  2  0  0  0  0  0  0  0  0  0
    1.1160   16.5230    0.5880 C   0  0  0  0  0  0  0  0  0  0  0  0
   -1.0716   19.7867   -2.5328 H   0  0  0  0  0  0  0  0  0  0  0  0
    0.4480   19.3944   -3.4066 H   0  0  0  0  0  0  0  0  0  0  0  0
   -0.9156   18.2250   -3.4066 H   0  0  0  0  0  0  0  0  0  0  0  0
   -0.6412   18.2577   -0.8174 H   0  0  0  0  0  0  0  0  0  0  0  0
    2.2606   18.6704   -1.0838 H   0  0  0  0  0  0  0  0  0  0  0  0
    1.2494   20.1696   -1.3566 H   0  0  0  0  0  0  0  0  0  0  0  0
    0.2534   19.9940    0.7955 H   0  0  0  0  0  0  0  0  0  0  0  0
    1.0079   18.3680    1.0687 H   0  0  0  0  0  0  0  0  0  0  0  0
    1.7033   20.5948    1.9042 H   0  0  0  0  0  0  0  0  0  0  0  0
    3.9306   17.2378    1.9128 H   0  0  0  0  0  0  0  0  0  0  0  0
    2.9849   17.5418    0.4161 H   0  0  0  0  0  0  0  0  0  0  0  0
    4.7660   17.7752    0.4161 H   0  0  0  0  0  0  0  0  0  0  0  0
    4.2196   19.6070    3.4580 H   0  0  0  0  0  0  0  0  0  0  0  0
    5.5917   19.3445    2.3288 H   0  0  0  0  0  0  0  0  0  0  0  0
    4.7158   20.9128    2.3288 H   0  0  0  0  0  0  0  0  0  0  0  0
    0.0206   16.6630   -2.6882 H   0  0  0  0  0  0  0  0  0  0  0  0
    2.3295   16.9714   -3.3315 H   0  0  0  0  0  0  0  0  0  0  0  0
    2.7234   17.7993   -1.8094 H   0  0  0  0  0  0  0  0  0  0  0  0
    3.4077   15.1021   -2.4590 H   0  0  0  0  0  0  0  0  0  0  0  0
    3.4694   15.7721   -0.8309 H   0  0  0  0  0  0  0  0  0  0  0  0
    0.4418   13.2611   -2.4605 H   0  0  0  0  0  0  0  0  0  0  0  0
    0.5387   14.8747   -3.2439 H   0  0  0  0  0  0  0  0  0  0  0  0
    1.9697   13.7889   -3.2439 H   0  0  0  0  0  0  0  0  0  0  0  0
    2.2576   14.2324    0.5927 H   0  0  0  0  0  0  0  0  0  0  0  0
    3.5565   13.0003   -1.2592 H   0  0  0  0  0  0  0  0  0  0  0  0
    3.2221   12.1991    0.3641 H   0  0  0  0  0  0  0  0  0  0  0  0
    2.9304   10.6794   -1.7694 H   0  0  0  0  0  0  0  0  0  0  0  0
   -0.6780   12.4337   -1.3261 H   0  0  0  0  0  0  0  0  0  0  0  0
   -0.5178   10.4193    1.0003 H   0  0  0  0  0  0  0  0  0  0  0  0
   -1.8929   11.5511    0.6281 H   0  0  0  0  0  0  0  0  0  0  0  0
   -2.3676    9.2323   -0.0911 H   0  0  0  0  0  0  0  0  0  0  0  0
   -2.3118   10.4019   -1.4680 H   0  0  0  0  0  0  0  0  0  0  0  0
   -1.1675    8.3940   -2.1154 H   0  0  0  0  0  0  0  0  0  0  0  0
    0.5220    8.8690    0.1710 H   0  0  0  0  0  0  0  0  0  0  0  0
   -1.0871   11.1898   -3.1218 H   0  0  0  0  0  0  0  0  0  0  0  0
    0.4496   11.0207   -4.0365 H   0  0  0  0  0  0  0  0  0  0  0  0
   -0.7476    9.6815   -4.0365 H   0  0  0  0  0  0  0  0  0  0  0  0
    1.9992    8.4582   -1.8551 H   0  0  0  0  0  0  0  0  0  0  0  0
    1.0113    8.1299   -3.3190 H   0  0  0  0  0  0  0  0  0  0  0  0
    2.1958    9.4804   -3.3190 H   0  0  0  0  0  0  0  0  0  0  0  0
    0.3881   13.1482    2.5441 H   0  0  0  0  0  0  0  0  0  0  0  0
    0.3654   11.4763    1.8876 H   0  0  0  0  0  0  0  0  0  0  0  0
    1.8935   12.4205    1.8876 H   0  0  0  0  0  0  0  0  0  0  0  0
   -1.6328   13.6093    0.5935 H   0  0  0  0  0  0  0  0  0  0  0  0
   -0.3937   14.6371    1.5112 H   0  0  0  0  0  0  0  0  0  0  0  0
   -1.1454   14.8262   -1.4190 H   0  0  0  0  0  0  0  0  0  0  0  0
   -1.4243   16.0325   -0.1020 H   0  0  0  0  0  0  0  0  0  0  0  0
    0.7018   15.9713    1.4447 H   0  0  0  0  0  0  0  0  0  0  0  0
    2.2148   16.4907    0.6276 H   0  0  0  0  0  0  0  0  0  0  0  0
    0.7783   17.5691    0.6276 H   0  0  0  0  0  0  0  0  0  0  0  0
  1  2  1  0
  2  3  1  0
  3  4  1  0
  4  5  1  0
  5  6  1  0
  6  7  1  0
  7  8  1  0
  7  9  1  0
  2 10  1  0
 10 11  1  0
 11 12  1  0
 12 13  1  0
 13 14  1  6
 13 15  1  0
 15 16  1  0
 16 17  1  0
 17 18  2  0
 18 19  1  0
 19 20  1  0
 20 21  1  0
 21 22  1  0
 22 23  1  0
 22 24  1  0
 24 25  1  0
 24 26  1  0
 19 27  1  0
 27 28  1  1
 27 29  1  0
 29 30  1  0
 30 31  1  0
 31 32  1  1
  7  5  1  0
 31 10  1  0
 31 13  1  0
 27 15  1  0
 24 18  1  0
  1 33  1  0
  1 34  1  0
  1 35  1  0
  2 36  1  1
  3 37  1  0
  3 38  1  0
  4 39  1  0
  4 40  1  0
  5 41  1  1
  8 42  1  0
  8 43  1  0
  8 44  1  0
  9 45  1  0
  9 46  1  0
  9 47  1  0
 10 48  1  6
 11 49  1  0
 11 50  1  0
 12 51  1  0
 12 52  1  0
 14 53  1  0
 14 54  1  0
 14 55  1  0
 15 56  1  1
 16 57  1  0
 16 58  1  0
 17 59  1  0
 19 60  1  6
 20 61  1  0
 20 62  1  0
 21 63  1  0
 21 64  1  0
 22 65  1  6
 23 66  1  0
 25 67  1  0
 25 68  1  0
 25 69  1  0
 26 70  1  0
 26 71  1  0
 26 72  1  0
 28 73  1  0
 28 74  1  0
 28 75  1  0
 29 76  1  0
 29 77  1  0
 30 78  1  0
 30 79  1  0
 32 80  1  0
 32 81  1  0
 32 82  1  0
M  END
>  <meeko>  (17) 
{"is_sidechain": [false], "intermolecular_energy": 2.731, "internal_energy": -0.839}

$$$$
EPH_relaxed_0001_pdb2pqr_Repair_407_r2_0001_out
     RDKit          3D

 82 86  0  0  0  0  0  0  0  0999 V2000
    0.9170   14.8290   -2.6380 C   0  0  0  0  0  0  0  0  0  0  0  0
    1.1890   14.1450   -3.9810 C   0  0  2  0  0  0  0  0  0  0  0  0
    0.5020   14.8740   -5.1530 C   0  0  0  0  0  0  0  0  0  0  0  0
    1.1660   14.6220   -6.5090 C   0  0  0  0  0  0  0  0  0  0  0  0
    0.9210   15.7500   -7.4650 C   0  0  2  0  0  0  0  0  0  0  0  0
    0.3710   15.3550   -8.7290 O   0  0  0  0  0  0  0  0  0  0  0  0
    1.6880   15.9280   -8.7620 C   0  0  0  0  0  0  0  0  0  0  0  0
    2.7590   14.9680   -9.1740 C   0  0  0  0  0  0  0  0  0  0  0  0
    1.7370   17.2900   -9.3830 C   0  0  0  0  0  0  0  0  0  0  0  0
    0.7270   12.6940   -3.9280 C   0  0  1  0  0  0  0  0  0  0  0  0
    1.8530   11.6940   -4.3040 C   0  0  0  0  0  0  0  0  0  0  0  0
    1.6400   10.4310   -3.4310 C   0  0  0  0  0  0  0  0  0  0  0  0
    0.2250   10.6060   -2.8310 C   0  0  1  0  0  0  0  0  0  0  0  0
   -0.7490   10.1430   -3.9590 C   0  0  0  0  0  0  0  0  0  0  0  0
   -0.0520    9.8570   -1.4860 C   0  0  2  0  0  0  0  0  0  0  0  0
    0.0410    8.3230   -1.5620 C   0  0  0  0  0  0  0  0  0  0  0  0
   -1.2350    7.6220   -1.8900 C   0  0  0  0  0  0  0  0  0  0  0  0
   -2.4640    8.1690   -1.8360 C   0  0  0  0  0  0  0  0  0  0  0  0
   -2.6680    9.5980   -1.3170 C   0  0  1  0  0  0  0  0  0  0  0  0
   -3.8530    9.6210   -0.3160 C   0  0  0  0  0  0  0  0  0  0  0  0
   -5.1280    9.0260   -0.9040 C   0  0  0  0  0  0  0  0  0  0  0  0
   -4.9000    7.5850   -1.3550 C   0  0  2  0  0  0  0  0  0  0  0  0
   -4.6540    6.7750   -0.2020 O   0  0  0  0  0  0  0  0  0  0  0  0
   -3.7240    7.4360   -2.3600 C   0  0  0  0  0  0  0  0  0  0  0  0
   -4.1190    8.0620   -3.7200 C   0  0  0  0  0  0  0  0  0  0  0  0
   -3.5110    5.9210   -2.6240 C   0  0  0  0  0  0  0  0  0  0  0  0
   -1.3730   10.3200   -0.7470 C   0  0  1  0  0  0  0  0  0  0  0  0
   -1.1870    9.9670    0.7600 C   0  0  0  0  0  0  0  0  0  0  0  0
   -1.5810   11.8790   -0.8160 C   0  0  0  0  0  0  0  0  0  0  0  0
   -1.1770   12.5780   -2.1280 C   0  0  0  0  0  0  0  0  0  0  0  0
    0.2300   12.1550   -2.5630 C   0  0  2  0  0  0  0  0  0  0  0  0
    1.2340   12.6270   -1.4570 C   0  0  0  0  0  0  0  0  0  0  0  0
    1.1879   14.1477   -1.8180 H   0  0  0  0  0  0  0  0  0  0  0  0
    1.5184   15.7472   -2.5657 H   0  0  0  0  0  0  0  0  0  0  0  0
   -0.1507   15.0834   -2.5657 H   0  0  0  0  0  0  0  0  0  0  0  0
    2.2739   14.1834   -4.1585 H   0  0  0  0  0  0  0  0  0  0  0  0
   -0.5425   14.5335   -5.2093 H   0  0  0  0  0  0  0  0  0  0  0  0
    0.5819   15.9525   -4.9516 H   0  0  0  0  0  0  0  0  0  0  0  0
    2.2501   14.5105   -6.3597 H   0  0  0  0  0  0  0  0  0  0  0  0
    0.7309   13.7078   -6.9390 H   0  0  0  0  0  0  0  0  0  0  0  0
    0.7052   16.4385   -6.6347 H   0  0  0  0  0  0  0  0  0  0  0  0
    3.2341   14.5421   -8.2780 H   0  0  0  0  0  0  0  0  0  0  0  0
    2.3157   14.1592   -9.7735 H   0  0  0  0  0  0  0  0  0  0  0  0
    3.5146   15.4968   -9.7735 H   0  0  0  0  0  0  0  0  0  0  0  0
    1.7645   18.0532   -8.5913 H   0  0  0  0  0  0  0  0  0  0  0  0
    2.6388   17.3763  -10.0069 H   0  0  0  0  0  0  0  0  0  0  0  0
    0.8437   17.4409  -10.0069 H   0  0  0  0  0  0  0  0  0  0  0  0
   -0.1091   12.7410   -4.6413 H   0  0  0  0  0  0  0  0  0  0  0  0
    1.7869   11.4328   -5.3705 H   0  0  0  0  0  0  0  0  0  0  0  0
    2.8460   12.1330   -4.1275 H   0  0  0  0  0  0  0  0  0  0  0  0
    1.6912    9.5205   -4.0461 H   0  0  0  0  0  0  0  0  0  0  0  0
    2.4122   10.3251   -2.6548 H   0  0  0  0  0  0  0  0  0  0  0  0
   -1.6549    9.7124   -3.5073 H   0  0  0  0  0  0  0  0  0  0  0  0
   -1.0249   11.0063   -4.5824 H   0  0  0  0  0  0  0  0  0  0  0  0
   -0.2537    9.3840   -4.5824 H   0  0  0  0  0  0  0  0  0  0  0  0
    0.7937   10.1766   -0.8594 H   0  0  0  0  0  0  0  0  0  0  0  0
    0.7790    8.0652   -2.3359 H   0  0  0  0  0  0  0  0  0  0  0  0
    0.3231    7.9851   -0.5539 H   0  0  0  0  0  0  0  0  0  0  0  0
   -1.1655    6.5695   -2.2022 H   0  0  0  0  0  0  0  0  0  0  0  0
   -2.9120   10.2097   -2.1980 H   0  0  0  0  0  0  0  0  0  0  0  0
   -3.5723    9.0415    0.5758 H   0  0  0  0  0  0  0  0  0  0  0  0
   -4.0594   10.6725   -0.0677 H   0  0  0  0  0  0  0  0  0  0  0  0
   -5.9190    9.0432   -0.1398 H   0  0  0  0  0  0  0  0  0  0  0  0
   -5.4244    9.6247   -1.7779 H   0  0  0  0  0  0  0  0  0  0  0  0
   -5.8070    7.2574   -1.8842 H   0  0  0  0  0  0  0  0  0  0  0  0
   -4.0340    7.2580    0.3700 H   0  0  0  0  0  0  0  0  0  0  0  0
   -4.6986    8.9806   -3.5463 H   0  0  0  0  0  0  0  0  0  0  0  0
   -3.2099    8.3043   -4.2899 H   0  0  0  0  0  0  0  0  0  0  0  0
   -4.7291    7.3458   -4.2899 H   0  0  0  0  0  0  0  0  0  0  0  0
   -3.4361    5.3886   -1.6644 H   0  0  0  0  0  0  0  0  0  0  0  0
   -4.3624    5.5255   -3.1973 H   0  0  0  0  0  0  0  0  0  0  0  0
   -2.5836    5.7756   -3.1973 H   0  0  0  0  0  0  0  0  0  0  0  0
   -1.6106   10.7709    1.3799 H   0  0  0  0  0  0  0  0  0  0  0  0
   -1.7042    9.0218    0.9817 H   0  0  0  0  0  0  0  0  0  0  0  0
   -0.1150    9.8592    0.9817 H   0  0  0  0  0  0  0  0  0  0  0  0
   -2.6494   12.0796   -0.6478 H   0  0  0  0  0  0  0  0  0  0  0  0
   -0.9073   12.2926   -0.0511 H   0  0  0  0  0  0  0  0  0  0  0  0
   -1.8944   12.3064   -2.9163 H   0  0  0  0  0  0  0  0  0  0  0  0
   -1.1812   13.6654   -1.9622 H   0  0  0  0  0  0  0  0  0  0  0  0
    0.8064   12.4260   -0.4637 H   0  0  0  0  0  0  0  0  0  0  0  0
    2.1824   12.0804   -1.5654 H   0  0  0  0  0  0  0  0  0  0  0  0
    1.4182   13.7060   -1.5654 H   0  0  0  0  0  0  0  0  0  0  0  0
  1  2  1  0
  2  3  1  0
  3  4  1  0
  4  5  1  0
  5  6  1  0
  6  7  1  0
  7  8  1  0
  7  9  1  0
  2 10  1  0
 10 11  1  0
 11 12  1  0
 12 13  1  0
 13 14  1  6
 13 15  1  0
 15 16  1  0
 16 17  1  0
 17 18  2  0
 18 19  1  0
 19 20  1  0
 20 21  1  0
 21 22  1  0
 22 23  1  0
 22 24  1  0
 24 25  1  0
 24 26  1  0
 19 27  1  0
 27 28  1  1
 27 29  1  0
 29 30  1  0
 30 31  1  0
 31 32  1  1
  7  5  1  0
 31 10  1  0
 31 13  1  0
 27 15  1  0
 24 18  1  0
  1 33  1  0
  1 34  1  0
  1 35  1  0
  2 36  1  6
  3 37  1  0
  3 38  1  0
  4 39  1  0
  4 40  1  0
  5 41  1  1
  8 42  1  0
  8 43  1  0
  8 44  1  0
  9 45  1  0
  9 46  1  0
  9 47  1  0
 10 48  1  6
 11 49  1  0
 11 50  1  0
 12 51  1  0
 12 52  1  0
 14 53  1  0
 14 54  1  0
 14 55  1  0
 15 56  1  1
 16 57  1  0
 16 58  1  0
 17 59  1  0
 19 60  1  6
 20 61  1  0
 20 62  1  0
 21 63  1  0
 21 64  1  0
 22 65  1  6
 23 66  1  0
 25 67  1  0
 25 68  1  0
 25 69  1  0
 26 70  1  0
 26 71  1  0
 26 72  1  0
 28 73  1  0
 28 74  1  0
 28 75  1  0
 29 76  1  0
 29 77  1  0
 30 78  1  0
 30 79  1  0
 32 80  1  0
 32 81  1  0
 32 82  1  0
M  END
>  <meeko>  (18) 
{"is_sidechain": [false], "intermolecular_energy": 2.731, "internal_energy": -0.839}

$$$$
EPH_relaxed_0001_pdb2pqr_Repair_407_r2_0001_out
     RDKit          3D

 82 86  0  0  0  0  0  0  0  0999 V2000
    0.1830    9.8320   -4.5620 C   0  0  0  0  0  0  0  0  0  0  0  0
    1.2580   10.5580   -3.7480 C   0  0  2  0  0  0  0  0  0  0  0  0
    1.7070    9.7410   -2.5200 C   0  0  0  0  0  0  0  0  0  0  0  0
    0.7030    8.6670   -2.0940 C   0  0  0  0  0  0  0  0  0  0  0  0
   -0.1410    9.1230   -0.9420 C   0  0  2  0  0  0  0  0  0  0  0  0
   -0.7170    8.0640   -0.1660 O   0  0  0  0  0  0  0  0  0  0  0  0
   -1.6420    8.9100   -0.8690 C   0  0  0  0  0  0  0  0  0  0  0  0
   -2.3860    8.2180   -1.9670 C   0  0  0  0  0  0  0  0  0  0  0  0
   -2.4470    9.7980    0.0270 C   0  0  0  0  0  0  0  0  0  0  0  0
    0.7410   11.9220   -3.3050 C   0  0  1  0  0  0  0  0  0  0  0  0
   -0.7630   11.8970   -2.9260 C   0  0  0  0  0  0  0  0  0  0  0  0
   -0.9470   12.8980   -1.7560 C   0  0  0  0  0  0  0  0  0  0  0  0
    0.3730   13.7030   -1.7220 C   0  0  1  0  0  0  0  0  0  0  0  0
    0.2140   14.7830   -2.8380 C   0  0  0  0  0  0  0  0  0  0  0  0
    0.7560   14.3450   -0.3480 C   0  0  2  0  0  0  0  0  0  0  0  0
   -0.2370   15.3950    0.1800 C   0  0  0  0  0  0  0  0  0  0  0  0
    0.0420   16.8020   -0.2360 C   0  0  0  0  0  0  0  0  0  0  0  0
    1.1980   17.2470   -0.7620 C   0  0  0  0  0  0  0  0  0  0  0  0
    2.4120   16.3180   -0.8960 C   0  0  1  0  0  0  0  0  0  0  0  0
    3.6810   17.0480   -0.3830 C   0  0  0  0  0  0  0  0  0  0  0  0
    3.8990   18.3950   -1.0670 C   0  0  0  0  0  0  0  0  0  0  0  0
    2.6950   19.3110   -0.8620 C   0  0  2  0  0  0  0  0  0  0  0  0
    2.6040   19.6500    0.5250 O   0  0  0  0  0  0  0  0  0  0  0  0
    1.3560   18.6780   -1.3340 C   0  0  0  0  0  0  0  0  0  0  0  0
    1.3390   18.5890   -2.8800 C   0  0  0  0  0  0  0  0  0  0  0  0
    0.2060   19.6450   -0.9420 C   0  0  0  0  0  0  0  0  0  0  0  0
    2.2470   14.8670   -0.2700 C   0  0  1  0  0  0  0  0  0  0  0  0
    2.6310   14.8930    1.2410 C   0  0  0  0  0  0  0  0  0  0  0  0
    3.2620   13.8870   -0.9690 C   0  0  0  0  0  0  0  0  0  0  0  0
    2.7820   13.1920   -2.2570 C   0  0  0  0  0  0  0  0  0  0  0  0
    1.4000   12.5610   -2.0570 C   0  0  2  0  0  0  0  0  0  0  0  0
    1.5350   11.4550   -0.9560 C   0  0  0  0  0  0  0  0  0  0  0  0
   -0.5312    9.3497   -3.8784 H   0  0  0  0  0  0  0  0  0  0  0  0
   -0.3486   10.5567   -5.1961 H   0  0  0  0  0  0  0  0  0  0  0  0
    0.6567    9.0681   -5.1961 H   0  0  0  0  0  0  0  0  0  0  0  0
    2.1359   10.6859   -4.3984 H   0  0  0  0  0  0  0  0  0  0  0  0
    2.6608    9.2487   -2.7605 H   0  0  0  0  0  0  0  0  0  0  0  0
    1.7981   10.4463   -1.6808 H   0  0  0  0  0  0  0  0  0  0  0  0
    0.0474    8.4338   -2.9460 H   0  0  0  0  0  0  0  0  0  0  0  0
    1.2666    7.7777   -1.7754 H   0  0  0  0  0  0  0  0  0  0  0  0
    0.4847   10.0175   -0.8066 H   0  0  0  0  0  0  0  0  0  0  0  0
   -3.1257    7.5300   -1.5317 H   0  0  0  0  0  0  0  0  0  0  0  0
   -2.9014    8.9652   -2.5883 H   0  0  0  0  0  0  0  0  0  0  0  0
   -1.6780    7.6499   -2.5883 H   0  0  0  0  0  0  0  0  0  0  0  0
   -2.2272    9.5555    1.0772 H   0  0  0  0  0  0  0  0  0  0  0  0
   -2.1874   10.8488   -0.1688 H   0  0  0  0  0  0  0  0  0  0  0  0
   -3.5182    9.6424   -0.1688 H   0  0  0  0  0  0  0  0  0  0  0  0
    0.9832   12.5108   -4.2020 H   0  0  0  0  0  0  0  0  0  0  0  0
   -1.3755   12.2037   -3.7866 H   0  0  0  0  0  0  0  0  0  0  0  0
   -1.0794   10.8850   -2.6331 H   0  0  0  0  0  0  0  0  0  0  0  0
   -1.8028   13.5629   -1.9444 H   0  0  0  0  0  0  0  0  0  0  0  0
   -1.1521   12.3915   -0.8013 H   0  0  0  0  0  0  0  0  0  0  0  0
    0.0687   15.7701   -2.3749 H   0  0  0  0  0  0  0  0  0  0  0  0
    1.1192   14.8007   -3.4627 H   0  0  0  0  0  0  0  0  0  0  0  0
   -0.6579   14.5391   -3.4627 H   0  0  0  0  0  0  0  0  0  0  0  0
    0.6816   13.4910    0.3413 H   0  0  0  0  0  0  0  0  0  0  0  0
   -1.2404   15.1261   -0.1817 H   0  0  0  0  0  0  0  0  0  0  0  0
   -0.1447   15.3774    1.2760 H   0  0  0  0  0  0  0  0  0  0  0  0
   -0.7656   17.5366   -0.1011 H   0  0  0  0  0  0  0  0  0  0  0  0
    2.5137   16.1028   -1.9699 H   0  0  0  0  0  0  0  0  0  0  0  0
    3.5783   17.2148    0.6994 H   0  0  0  0  0  0  0  0  0  0  0  0
    4.5482   16.4121   -0.6145 H   0  0  0  0  0  0  0  0  0  0  0  0
    4.7929   18.8745   -0.6416 H   0  0  0  0  0  0  0  0  0  0  0  0
    4.0312   18.2243   -2.1456 H   0  0  0  0  0  0  0  0  0  0  0  0
    2.8536   20.2069   -1.4802 H   0  0  0  0  0  0  0  0  0  0  0  0
    3.4820   19.5110    0.9200 H   0  0  0  0  0  0  0  0  0  0  0  0
    1.1407   17.5510   -3.1854 H   0  0  0  0  0  0  0  0  0  0  0  0
    0.5499   19.2449   -3.2764 H   0  0  0  0  0  0  0  0  0  0  0  0
    2.3143   18.9079   -3.2764 H   0  0  0  0  0  0  0  0  0  0  0  0
    0.1348   19.7048    0.1541 H   0  0  0  0  0  0  0  0  0  0  0  0
    0.4123   20.6450   -1.3512 H   0  0  0  0  0  0  0  0  0  0  0  0
   -0.7438   19.2702   -1.3512 H   0  0  0  0  0  0  0  0  0  0  0  0
    1.7186   14.8312    1.8523 H   0  0  0  0  0  0  0  0  0  0  0  0
    3.2833   14.0370    1.4683 H   0  0  0  0  0  0  0  0  0  0  0  0
    3.1620   15.8292    1.4683 H   0  0  0  0  0  0  0  0  0  0  0  0
    4.1639   14.4650   -1.2191 H   0  0  0  0  0  0  0  0  0  0  0  0
    3.4212   13.0738   -0.2456 H   0  0  0  0  0  0  0  0  0  0  0  0
    2.7249   13.9344   -3.0667 H   0  0  0  0  0  0  0  0  0  0  0  0
    3.4971   12.3966   -2.5139 H   0  0  0  0  0  0  0  0  0  0  0  0
    1.4783   11.9197    0.0394 H   0  0  0  0  0  0  0  0  0  0  0  0
    0.7192   10.7255   -1.0671 H   0  0  0  0  0  0  0  0  0  0  0  0
    2.5023   10.9431   -1.0671 H   0  0  0  0  0  0  0  0  0  0  0  0
  1  2  1  0
  2  3  1  0
  3  4  1  0
  4  5  1  0
  5  6  1  0
  6  7  1  0
  7  8  1  0
  7  9  1  0
  2 10  1  0
 10 11  1  0
 11 12  1  0
 12 13  1  0
 13 14  1  6
 13 15  1  0
 15 16  1  0
 16 17  1  0
 17 18  2  0
 18 19  1  0
 19 20  1  0
 20 21  1  0
 21 22  1  0
 22 23  1  0
 22 24  1  0
 24 25  1  0
 24 26  1  0
 19 27  1  0
 27 28  1  1
 27 29  1  0
 29 30  1  0
 30 31  1  0
 31 32  1  1
  7  5  1  0
 31 10  1  0
 31 13  1  0
 27 15  1  0
 24 18  1  0
  1 33  1  0
  1 34  1  0
  1 35  1  0
  2 36  1  6
  3 37  1  0
  3 38  1  0
  4 39  1  0
  4 40  1  0
  5 41  1  1
  8 42  1  0
  8 43  1  0
  8 44  1  0
  9 45  1  0
  9 46  1  0
  9 47  1  0
 10 48  1  6
 11 49  1  0
 11 50  1  0
 12 51  1  0
 12 52  1  0
 14 53  1  0
 14 54  1  0
 14 55  1  0
 15 56  1  1
 16 57  1  0
 16 58  1  0
 17 59  1  0
 19 60  1  6
 20 61  1  0
 20 62  1  0
 21 63  1  0
 21 64  1  0
 22 65  1  6
 23 66  1  0
 25 67  1  0
 25 68  1  0
 25 69  1  0
 26 70  1  0
 26 71  1  0
 26 72  1  0
 28 73  1  0
 28 74  1  0
 28 75  1  0
 29 76  1  0
 29 77  1  0
 30 78  1  0
 30 79  1  0
 32 80  1  0
 32 81  1  0
 32 82  1  0
M  END
>  <meeko>  (19) 
{"is_sidechain": [false], "intermolecular_energy": 2.731, "internal_energy": -0.839}

$$$$
