EPH_relaxed_0001_pdb2pqr_Repair_384_r2_0001_out
     RDKit          3D

 82 86  0  0  0  0  0  0  0  0999 V2000
   -1.8430    8.8090   -1.8350 C   0  0  0  0  0  0  0  0  0  0  0  0
   -1.8330    9.0790   -0.3280 C   0  0  2  0  0  0  0  0  0  0  0  0
   -3.2550    9.2670    0.2380 C   0  0  0  0  0  0  0  0  0  0  0  0
   -4.3540    9.2010   -0.8250 C   0  0  0  0  0  0  0  0  0  0  0  0
   -4.9920    7.8460   -0.8810 C   0  0  2  0  0  0  0  0  0  0  0  0
   -5.1970    7.3340   -2.2040 O   0  0  0  0  0  0  0  0  0  0  0  0
   -6.3820    7.5970   -1.4360 C   0  0  0  0  0  0  0  0  0  0  0  0
   -7.2190    8.7150   -1.9720 C   0  0  0  0  0  0  0  0  0  0  0  0
   -7.1110    6.3610   -1.0110 C   0  0  0  0  0  0  0  0  0  0  0  0
   -0.9860   10.3100   -0.0260 C   0  0  1  0  0  0  0  0  0  0  0  0
    0.1110   10.0340    1.0370 C   0  0  0  0  0  0  0  0  0  0  0  0
    1.3410   10.8920    0.6430 C   0  0  0  0  0  0  0  0  0  0  0  0
    0.8070   11.8730   -0.4270 C   0  0  1  0  0  0  0  0  0  0  0  0
    0.1140   13.0120    0.3850 C   0  0  0  0  0  0  0  0  0  0  0  0
    1.8600   12.4390   -1.4330 C   0  0  2  0  0  0  0  0  0  0  0  0
    2.9790   13.2850   -0.8000 C   0  0  0  0  0  0  0  0  0  0  0  0
    2.6970   14.7480   -0.7070 C   0  0  0  0  0  0  0  0  0  0  0  0
    1.7210   15.4000   -1.3660 C   0  0  0  0  0  0  0  0  0  0  0  0
    0.8380   14.6720   -2.3870 C   0  0  1  0  0  0  0  0  0  0  0  0
    0.7210   15.5290   -3.6750 C   0  0  0  0  0  0  0  0  0  0  0  0
    0.2370   16.9470   -3.3920 C   0  0  0  0  0  0  0  0  0  0  0  0
    1.1730   17.6580   -2.4180 C   0  0  2  0  0  0  0  0  0  0  0  0
    2.4380   17.8570   -3.0560 O   0  0  0  0  0  0  0  0  0  0  0  0
    1.3760   16.8830   -1.0860 C   0  0  0  0  0  0  0  0  0  0  0  0
    0.0710   16.9290   -0.2530 C   0  0  0  0  0  0  0  0  0  0  0  0
    2.4490   17.6360   -0.2540 C   0  0  0  0  0  0  0  0  0  0  0  0
    1.2310   13.1620   -2.6920 C   0  0  1  0  0  0  0  0  0  0  0  0
    2.3060   13.1100   -3.8200 C   0  0  0  0  0  0  0  0  0  0  0  0
   -0.0330   12.4040   -3.2480 C   0  0  0  0  0  0  0  0  0  0  0  0
   -0.9720   11.7640   -2.2080 C   0  0  0  0  0  0  0  0  0  0  0  0
   -0.1820   10.9250   -1.1990 C   0  0  2  0  0  0  0  0  0  0  0  0
    0.5070    9.7570   -1.9830 C   0  0  0  0  0  0  0  0  0  0  0  0
   -1.8832    7.7242   -2.0129 H   0  0  0  0  0  0  0  0  0  0  0  0
   -2.7240    9.2876   -2.2874 H   0  0  0  0  0  0  0  0  0  0  0  0
   -0.9290    9.2212   -2.2874 H   0  0  0  0  0  0  0  0  0  0  0  0
   -1.3960    8.1970    0.1629 H   0  0  0  0  0  0  0  0  0  0  0  0
   -3.4410    8.4760    0.9794 H   0  0  0  0  0  0  0  0  0  0  0  0
   -3.2948   10.2738    0.6794 H   0  0  0  0  0  0  0  0  0  0  0  0
   -5.1252    9.9483   -0.5870 H   0  0  0  0  0  0  0  0  0  0  0  0
   -3.8959    9.4045   -1.8042 H   0  0  0  0  0  0  0  0  0  0  0  0
   -4.5127    7.5564    0.0658 H   0  0  0  0  0  0  0  0  0  0  0  0
   -7.6469    9.2865   -1.1351 H   0  0  0  0  0  0  0  0  0  0  0  0
   -6.5938    9.3786   -2.5875 H   0  0  0  0  0  0  0  0  0  0  0  0
   -8.0318    8.3020   -2.5875 H   0  0  0  0  0  0  0  0  0  0  0  0
   -7.1400    6.3119    0.0875 H   0  0  0  0  0  0  0  0  0  0  0  0
   -8.1380    6.3876   -1.4041 H   0  0  0  0  0  0  0  0  0  0  0  0
   -6.5908    5.4751   -1.4041 H   0  0  0  0  0  0  0  0  0  0  0  0
   -1.7770   11.0046    0.2932 H   0  0  0  0  0  0  0  0  0  0  0  0
   -0.2481   10.3228    2.0358 H   0  0  0  0  0  0  0  0  0  0  0  0
    0.3691    8.9652    1.0702 H   0  0  0  0  0  0  0  0  0  0  0  0
    1.7267   11.4408    1.5148 H   0  0  0  0  0  0  0  0  0  0  0  0
    2.1738   10.2791    0.2679 H   0  0  0  0  0  0  0  0  0  0  0  0
    0.2316   12.8187    1.4615 H   0  0  0  0  0  0  0  0  0  0  0  0
    0.5783   13.9768    0.1329 H   0  0  0  0  0  0  0  0  0  0  0  0
   -0.9563   13.0431    0.1329 H   0  0  0  0  0  0  0  0  0  0  0  0
    2.3486   11.5248   -1.8011 H   0  0  0  0  0  0  0  0  0  0  0  0
    3.1561   12.9076    0.2179 H   0  0  0  0  0  0  0  0  0  0  0  0
    3.8497   13.1845   -1.4647 H   0  0  0  0  0  0  0  0  0  0  0  0
    3.3414   15.3437   -0.0437 H   0  0  0  0  0  0  0  0  0  0  0  0
   -0.1507   14.5698   -1.9158 H   0  0  0  0  0  0  0  0  0  0  0  0
    1.7099   15.5829   -4.1537 H   0  0  0  0  0  0  0  0  0  0  0  0
   -0.0202   15.0478   -4.3300 H   0  0  0  0  0  0  0  0  0  0  0  0
    0.2033   17.5111   -4.3358 H   0  0  0  0  0  0  0  0  0  0  0  0
   -0.7647   16.8929   -2.9406 H   0  0  0  0  0  0  0  0  0  0  0  0
    0.7057   18.6181   -2.1538 H   0  0  0  0  0  0  0  0  0  0  0  0
    2.9740   17.0610   -2.9020 H   0  0  0  0  0  0  0  0  0  0  0  0
    0.3195   16.9202    0.8185 H   0  0  0  0  0  0  0  0  0  0  0  0
   -0.4850   17.8473   -0.4930 H   0  0  0  0  0  0  0  0  0  0  0  0
   -0.5483   16.0521   -0.4930 H   0  0  0  0  0  0  0  0  0  0  0  0
    2.2475   17.4946    0.8181 H   0  0  0  0  0  0  0  0  0  0  0  0
    3.4458   17.2383   -0.4953 H   0  0  0  0  0  0  0  0  0  0  0  0
    2.4139   18.7086   -0.4953 H   0  0  0  0  0  0  0  0  0  0  0  0
    3.3083   13.0615   -3.3694 H   0  0  0  0  0  0  0  0  0  0  0  0
    2.1407   12.2188   -4.4432 H   0  0  0  0  0  0  0  0  0  0  0  0
    2.2275   14.0130   -4.4432 H   0  0  0  0  0  0  0  0  0  0  0  0
   -0.6243   13.1257   -3.8307 H   0  0  0  0  0  0  0  0  0  0  0  0
    0.3693   11.5615   -3.8297 H   0  0  0  0  0  0  0  0  0  0  0  0
   -1.5102   12.5593   -1.6715 H   0  0  0  0  0  0  0  0  0  0  0  0
   -1.6803   11.1061   -2.7329 H   0  0  0  0  0  0  0  0  0  0  0  0
    0.9320    9.0365   -1.2687 H   0  0  0  0  0  0  0  0  0  0  0  0
   -0.2372    9.2508   -2.6154 H   0  0  0  0  0  0  0  0  0  0  0  0
    1.3100   10.1635   -2.6154 H   0  0  0  0  0  0  0  0  0  0  0  0
  1  2  1  0
  2  3  1  0
  3  4  1  0
  4  5  1  0
  5  6  1  0
  6  7  1  0
  7  8  1  0
  7  9  1  0
  2 10  1  0
 10 11  1  0
 11 12  1  0
 12 13  1  0
 13 14  1  1
 13 15  1  0
 15 16  1  0
 16 17  1  0
 17 18  2  0
 18 19  1  0
 19 20  1  0
 20 21  1  0
 21 22  1  0
 22 23  1  0
 22 24  1  0
 24 25  1  0
 24 26  1  0
 19 27  1  0
 27 28  1  6
 27 29  1  0
 29 30  1  0
 30 31  1  0
 31 32  1  6
  7  5  1  0
 31 10  1  0
 31 13  1  0
 27 15  1  0
 24 18  1  0
  1 33  1  0
  1 34  1  0
  1 35  1  0
  2 36  1  1
  3 37  1  0
  3 38  1  0
  4 39  1  0
  4 40  1  0
  5 41  1  1
  8 42  1  0
  8 43  1  0
  8 44  1  0
  9 45  1  0
  9 46  1  0
  9 47  1  0
 10 48  1  1
 11 49  1  0
 11 50  1  0
 12 51  1  0
 12 52  1  0
 14 53  1  0
 14 54  1  0
 14 55  1  0
 15 56  1  6
 16 57  1  0
 16 58  1  0
 17 59  1  0
 19 60  1  1
 20 61  1  0
 20 62  1  0
 21 63  1  0
 21 64  1  0
 22 65  1  1
 23 66  1  0
 25 67  1  0
 25 68  1  0
 25 69  1  0
 26 70  1  0
 26 71  1  0
 26 72  1  0
 28 73  1  0
 28 74  1  0
 28 75  1  0
 29 76  1  0
 29 77  1  0
 30 78  1  0
 30 79  1  0
 32 80  1  0
 32 81  1  0
 32 82  1  0
M  END
>  <meeko>  (1) 
{"is_sidechain": [false], "intermolecular_energy": 2.731, "internal_energy": -0.839}

$$$$
EPH_relaxed_0001_pdb2pqr_Repair_384_r2_0001_out
     RDKit          3D

 82 86  0  0  0  0  0  0  0  0999 V2000
    4.2130   17.5710   -0.0860 C   0  0  0  0  0  0  0  0  0  0  0  0
    2.8010   18.1620   -0.1160 C   0  0  2  0  0  0  0  0  0  0  0  0
    2.5420   19.1100    1.0730 C   0  0  0  0  0  0  0  0  0  0  0  0
    3.7970   19.8360    1.5650 C   0  0  0  0  0  0  0  0  0  0  0  0
    4.2950   19.2680    2.8590 C   0  0  2  0  0  0  0  0  0  0  0  0
    5.0180   20.1940    3.6810 O   0  0  0  0  0  0  0  0  0  0  0  0
    5.7660   19.0760    3.1780 C   0  0  0  0  0  0  0  0  0  0  0  0
    6.8320   19.4490    2.1960 C   0  0  0  0  0  0  0  0  0  0  0  0
    6.1460   18.0820    4.2310 C   0  0  0  0  0  0  0  0  0  0  0  0
    1.7680   17.0410   -0.1220 C   0  0  1  0  0  0  0  0  0  0  0  0
    0.3380   17.5480   -0.4460 C   0  0  0  0  0  0  0  0  0  0  0  0
   -0.3590   16.4290   -1.2630 C   0  0  0  0  0  0  0  0  0  0  0  0
    0.5610   15.1960   -1.0990 C   0  0  1  0  0  0  0  0  0  0  0  0
    0.1790   14.5930    0.2890 C   0  0  0  0  0  0  0  0  0  0  0  0
    0.4870   14.1240   -2.2340 C   0  0  2  0  0  0  0  0  0  0  0  0
   -0.8820   13.4420   -2.4000 C   0  0  0  0  0  0  0  0  0  0  0  0
   -1.0760   12.1980   -1.5970 C   0  0  0  0  0  0  0  0  0  0  0  0
   -0.0980   11.4930   -0.9990 C   0  0  0  0  0  0  0  0  0  0  0  0
    1.3750   11.8780   -1.1810 C   0  0  1  0  0  0  0  0  0  0  0  0
    2.2080   10.6080   -1.4950 C   0  0  0  0  0  0  0  0  0  0  0  0
    2.0160    9.5100   -0.4520 C   0  0  0  0  0  0  0  0  0  0  0  0
    0.5470    9.1140   -0.3420 C   0  0  2  0  0  0  0  0  0  0  0  0
    0.1450    8.4880   -1.5650 O   0  0  0  0  0  0  0  0  0  0  0  0
   -0.3910   10.3150   -0.0370 C   0  0  0  0  0  0  0  0  0  0  0  0
   -0.1570   10.8030    1.4140 C   0  0  0  0  0  0  0  0  0  0  0  0
   -1.8560    9.8030   -0.0920 C   0  0  0  0  0  0  0  0  0  0  0  0
    1.6610   13.0630   -2.2010 C   0  0  1  0  0  0  0  0  0  0  0  0
    1.7930   12.4980   -3.6480 C   0  0  0  0  0  0  0  0  0  0  0  0
    3.0500   13.7180   -1.8520 C   0  0  0  0  0  0  0  0  0  0  0  0
    3.0400   14.8540   -0.8110 C   0  0  0  0  0  0  0  0  0  0  0  0
    1.9680   15.8950   -1.1460 C   0  0  2  0  0  0  0  0  0  0  0  0
    2.3380   16.5350   -2.5270 C   0  0  0  0  0  0  0  0  0  0  0  0
    4.5324   17.4373    0.9581 H   0  0  0  0  0  0  0  0  0  0  0  0
    4.2138   16.5970   -0.5973 H   0  0  0  0  0  0  0  0  0  0  0  0
    4.9073   18.2540   -0.5973 H   0  0  0  0  0  0  0  0  0  0  0  0
    2.7111   18.7559   -1.0375 H   0  0  0  0  0  0  0  0  0  0  0  0
    1.8040   19.8640    0.7618 H   0  0  0  0  0  0  0  0  0  0  0  0
    2.1815   18.4895    1.9067 H   0  0  0  0  0  0  0  0  0  0  0  0
    4.5865   19.7377    0.8053 H   0  0  0  0  0  0  0  0  0  0  0  0
    3.5389   20.8923    1.7312 H   0  0  0  0  0  0  0  0  0  0  0  0
    3.4320   18.5887    2.9196 H   0  0  0  0  0  0  0  0  0  0  0  0
    7.7355   19.7651    2.7380 H   0  0  0  0  0  0  0  0  0  0  0  0
    7.0686   18.5803    1.5641 H   0  0  0  0  0  0  0  0  0  0  0  0
    6.4754   20.2758    1.5641 H   0  0  0  0  0  0  0  0  0  0  0  0
    5.9786   18.5199    5.2261 H   0  0  0  0  0  0  0  0  0  0  0  0
    5.5304   17.1771    4.1203 H   0  0  0  0  0  0  0  0  0  0  0  0
    7.2082   17.8186    4.1203 H   0  0  0  0  0  0  0  0  0  0  0  0
    1.9039   16.6597    0.9008 H   0  0  0  0  0  0  0  0  0  0  0  0
   -0.2163   17.7387    0.4848 H   0  0  0  0  0  0  0  0  0  0  0  0
    0.3719   18.4892   -1.0143 H   0  0  0  0  0  0  0  0  0  0  0  0
   -1.3617   16.2217   -0.8610 H   0  0  0  0  0  0  0  0  0  0  0  0
   -0.4990   16.7079   -2.3178 H   0  0  0  0  0  0  0  0  0  0  0  0
    0.5828   15.2304    1.0894 H   0  0  0  0  0  0  0  0  0  0  0  0
   -0.9162   14.5424    0.3779 H   0  0  0  0  0  0  0  0  0  0  0  0
    0.6012   13.5811    0.3779 H   0  0  0  0  0  0  0  0  0  0  0  0
    0.6299   14.7307   -3.1404 H   0  0  0  0  0  0  0  0  0  0  0  0
   -1.6588   14.1624   -2.1039 H   0  0  0  0  0  0  0  0  0  0  0  0
   -0.9440   13.1363   -3.4548 H   0  0  0  0  0  0  0  0  0  0  0  0
   -2.1053   11.8265   -1.4848 H   0  0  0  0  0  0  0  0  0  0  0  0
    1.6974   12.3073   -0.2209 H   0  0  0  0  0  0  0  0  0  0  0  0
    1.9014   10.2190   -2.4772 H   0  0  0  0  0  0  0  0  0  0  0  0
    3.2700   10.8945   -1.4869 H   0  0  0  0  0  0  0  0  0  0  0  0
    2.6056    8.6286   -0.7444 H   0  0  0  0  0  0  0  0  0  0  0  0
    2.3513    9.8903    0.5242 H   0  0  0  0  0  0  0  0  0  0  0  0
    0.4555    8.4215    0.5077 H   0  0  0  0  0  0  0  0  0  0  0  0
    0.5240    9.0030   -2.2970 H   0  0  0  0  0  0  0  0  0  0  0  0
   -0.5217   10.0424    2.1200 H   0  0  0  0  0  0  0  0  0  0  0  0
    0.9183   10.9683    1.5763 H   0  0  0  0  0  0  0  0  0  0  0  0
   -0.7014   11.7450    1.5763 H   0  0  0  0  0  0  0  0  0  0  0  0
   -2.2366    9.6700    0.9315 H   0  0  0  0  0  0  0  0  0  0  0  0
   -2.4809   10.5360   -0.6232 H   0  0  0  0  0  0  0  0  0  0  0  0
   -1.8883    8.8403   -0.6232 H   0  0  0  0  0  0  0  0  0  0  0  0
    2.0430   11.4278   -3.6023 H   0  0  0  0  0  0  0  0  0  0  0  0
    0.8400   12.6295   -4.1813 H   0  0  0  0  0  0  0  0  0  0  0  0
    2.5891   13.0381   -4.1813 H   0  0  0  0  0  0  0  0  0  0  0  0
    3.7066   12.9224   -1.4701 H   0  0  0  0  0  0  0  0  0  0  0  0
    3.3902   14.1871   -2.7870 H   0  0  0  0  0  0  0  0  0  0  0  0
    2.8318   14.4299    0.1824 H   0  0  0  0  0  0  0  0  0  0  0  0
    4.0231   15.3473   -0.8207 H   0  0  0  0  0  0  0  0  0  0  0  0
    2.8822   17.4764   -2.3608 H   0  0  0  0  0  0  0  0  0  0  0  0
    2.9734   15.8395   -3.0950 H   0  0  0  0  0  0  0  0  0  0  0  0
    1.4182   16.7386   -3.0950 H   0  0  0  0  0  0  0  0  0  0  0  0
  1  2  1  0
  2  3  1  0
  3  4  1  0
  4  5  1  0
  5  6  1  0
  6  7  1  0
  7  8  1  0
  7  9  1  0
  2 10  1  0
 10 11  1  0
 11 12  1  0
 12 13  1  0
 13 14  1  1
 13 15  1  0
 15 16  1  0
 16 17  1  0
 17 18  2  0
 18 19  1  0
 19 20  1  0
 20 21  1  0
 21 22  1  0
 22 23  1  0
 22 24  1  0
 24 25  1  0
 24 26  1  0
 19 27  1  0
 27 28  1  6
 27 29  1  0
 29 30  1  0
 30 31  1  0
 31 32  1  6
  7  5  1  0
 31 10  1  0
 31 13  1  0
 27 15  1  0
 24 18  1  0
  1 33  1  0
  1 34  1  0
  1 35  1  0
  2 36  1  6
  3 37  1  0
  3 38  1  0
  4 39  1  0
  4 40  1  0
  5 41  1  1
  8 42  1  0
  8 43  1  0
  8 44  1  0
  9 45  1  0
  9 46  1  0
  9 47  1  0
 10 48  1  1
 11 49  1  0
 11 50  1  0
 12 51  1  0
 12 52  1  0
 14 53  1  0
 14 54  1  0
 14 55  1  0
 15 56  1  6
 16 57  1  0
 16 58  1  0
 17 59  1  0
 19 60  1  1
 20 61  1  0
 20 62  1  0
 21 63  1  0
 21 64  1  0
 22 65  1  1
 23 66  1  0
 25 67  1  0
 25 68  1  0
 25 69  1  0
 26 70  1  0
 26 71  1  0
 26 72  1  0
 28 73  1  0
 28 74  1  0
 28 75  1  0
 29 76  1  0
 29 77  1  0
 30 78  1  0
 30 79  1  0
 32 80  1  0
 32 81  1  0
 32 82  1  0
M  END
>  <meeko>  (2) 
{"is_sidechain": [false], "intermolecular_energy": 2.731, "internal_energy": -0.839}

$$$$
EPH_relaxed_0001_pdb2pqr_Repair_384_r2_0001_out
     RDKit          3D

 82 86  0  0  0  0  0  0  0  0999 V2000
    2.2030   18.0170   -2.9170 C   0  0  0  0  0  0  0  0  0  0  0  0
    0.9530   17.6010   -2.1360 C   0  0  2  0  0  0  0  0  0  0  0  0
    1.1690   17.6750   -0.6120 C   0  0  0  0  0  0  0  0  0  0  0  0
    0.8930   19.0590   -0.0170 C   0  0  0  0  0  0  0  0  0  0  0  0
   -0.5220   19.1850    0.4610 C   0  0  2  0  0  0  0  0  0  0  0  0
   -1.4370   18.2470   -0.1220 O   0  0  0  0  0  0  0  0  0  0  0  0
   -1.6690   19.6320   -0.4270 C   0  0  0  0  0  0  0  0  0  0  0  0
   -1.4510   19.9830   -1.8650 C   0  0  0  0  0  0  0  0  0  0  0  0
   -2.8970   20.1940    0.2190 C   0  0  0  0  0  0  0  0  0  0  0  0
    0.5360   16.1900   -2.5350 C   0  0  1  0  0  0  0  0  0  0  0  0
    0.6630   15.9390   -4.0610 C   0  0  0  0  0  0  0  0  0  0  0  0
    1.0920   14.4590   -4.2370 C   0  0  0  0  0  0  0  0  0  0  0  0
    0.8770   13.8230   -2.8440 C   0  0  1  0  0  0  0  0  0  0  0  0
   -0.6500   13.5040   -2.7800 C   0  0  0  0  0  0  0  0  0  0  0  0
    1.7430   12.5630   -2.5180 C   0  0  2  0  0  0  0  0  0  0  0  0
    1.4990   11.3490   -3.4300 C   0  0  0  0  0  0  0  0  0  0  0  0
    0.4470   10.4000   -2.9600 C   0  0  0  0  0  0  0  0  0  0  0  0
   -0.0720   10.3600   -1.7180 C   0  0  0  0  0  0  0  0  0  0  0  0
    0.4690   11.2700   -0.6080 C   0  0  1  0  0  0  0  0  0  0  0  0
    0.6880   10.4380    0.6830 C   0  0  0  0  0  0  0  0  0  0  0  0
   -0.5650    9.6800    1.1100 C   0  0  0  0  0  0  0  0  0  0  0  0
   -1.0390    8.7430    0.0020 C   0  0  2  0  0  0  0  0  0  0  0  0
   -0.0660    7.7090   -0.1750 O   0  0  0  0  0  0  0  0  0  0  0  0
   -1.2840    9.4680   -1.3510 C   0  0  0  0  0  0  0  0  0  0  0  0
   -2.5370   10.3710   -1.2390 C   0  0  0  0  0  0  0  0  0  0  0  0
   -1.6200    8.3890   -2.4160 C   0  0  0  0  0  0  0  0  0  0  0  0
    1.7370   12.1500   -0.9900 C   0  0  1  0  0  0  0  0  0  0  0  0
    3.0430   11.3350   -0.7440 C   0  0  0  0  0  0  0  0  0  0  0  0
    1.8040   13.3970   -0.0320 C   0  0  0  0  0  0  0  0  0  0  0  0
    1.0230   14.6520   -0.4690 C   0  0  0  0  0  0  0  0  0  0  0  0
    1.3360   15.0130   -1.9240 C   0  0  2  0  0  0  0  0  0  0  0  0
    2.8610   15.3600   -2.0140 C   0  0  0  0  0  0  0  0  0  0  0  0
    3.0041   18.2836   -2.2119 H   0  0  0  0  0  0  0  0  0  0  0  0
    2.5350   17.1809   -3.5500 H   0  0  0  0  0  0  0  0  0  0  0  0
    1.9678   18.8853   -3.5500 H   0  0  0  0  0  0  0  0  0  0  0  0
    0.1526   18.3113   -2.3907 H   0  0  0  0  0  0  0  0  0  0  0  0
    0.4967   16.9497   -0.1304 H   0  0  0  0  0  0  0  0  0  0  0  0
    2.2300   17.4515   -0.4267 H   0  0  0  0  0  0  0  0  0  0  0  0
    1.5722   19.2237    0.8325 H   0  0  0  0  0  0  0  0  0  0  0  0
    1.0570   19.8095   -0.8043 H   0  0  0  0  0  0  0  0  0  0  0  0
   -0.1820   19.5204    1.4519 H   0  0  0  0  0  0  0  0  0  0  0  0
   -0.8717   20.9158   -1.9310 H   0  0  0  0  0  0  0  0  0  0  0  0
   -0.8976   19.1718   -2.3606 H   0  0  0  0  0  0  0  0  0  0  0  0
   -2.4235   20.1195   -2.3606 H   0  0  0  0  0  0  0  0  0  0  0  0
   -2.7908   20.1454    1.3128 H   0  0  0  0  0  0  0  0  0  0  0  0
   -3.0275   21.2414   -0.0906 H   0  0  0  0  0  0  0  0  0  0  0  0
   -3.7750   19.6081   -0.0906 H   0  0  0  0  0  0  0  0  0  0  0  0
   -0.4939   16.1855   -2.1485 H   0  0  0  0  0  0  0  0  0  0  0  0
   -0.3038   16.1145   -4.5555 H   0  0  0  0  0  0  0  0  0  0  0  0
    1.3990   16.6200   -4.5133 H   0  0  0  0  0  0  0  0  0  0  0  0
    0.4667   13.9605   -4.9923 H   0  0  0  0  0  0  0  0  0  0  0  0
    2.1318   14.3641   -4.5832 H   0  0  0  0  0  0  0  0  0  0  0  0
   -0.9670   13.4378   -1.7288 H   0  0  0  0  0  0  0  0  0  0  0  0
   -1.2131   14.3039   -3.2831 H   0  0  0  0  0  0  0  0  0  0  0  0
   -0.8458   12.5456   -3.2831 H   0  0  0  0  0  0  0  0  0  0  0  0
    2.7606   12.9100   -2.7506 H   0  0  0  0  0  0  0  0  0  0  0  0
    1.2016   11.7226   -4.4210 H   0  0  0  0  0  0  0  0  0  0  0  0
    2.4405   10.7802   -3.4381 H   0  0  0  0  0  0  0  0  0  0  0  0
    0.0633    9.6719   -3.6898 H   0  0  0  0  0  0  0  0  0  0  0  0
   -0.3055   12.0315   -0.4339 H   0  0  0  0  0  0  0  0  0  0  0  0
    1.4947    9.7123    0.5022 H   0  0  0  0  0  0  0  0  0  0  0  0
    0.9466   11.1378    1.4913 H   0  0  0  0  0  0  0  0  0  0  0  0
   -0.3391    9.0887    2.0096 H   0  0  0  0  0  0  0  0  0  0  0  0
   -1.3622   10.4085    1.3192 H   0  0  0  0  0  0  0  0  0  0  0  0
   -2.0082    8.3269    0.3142 H   0  0  0  0  0  0  0  0  0  0  0  0
    0.7770    8.0340    0.1830 H   0  0  0  0  0  0  0  0  0  0  0  0
   -2.7728   10.5410   -0.1781 H   0  0  0  0  0  0  0  0  0  0  0  0
   -2.3390   11.3354   -1.7297 H   0  0  0  0  0  0  0  0  0  0  0  0
   -3.3892    9.8781   -1.7297 H   0  0  0  0  0  0  0  0  0  0  0  0
   -1.9108    7.4551   -1.9127 H   0  0  0  0  0  0  0  0  0  0  0  0
   -2.4511    8.7408   -3.0448 H   0  0  0  0  0  0  0  0  0  0  0  0
   -0.7361    8.2067   -3.0448 H   0  0  0  0  0  0  0  0  0  0  0  0
    3.2113   11.2300    0.3380 H   0  0  0  0  0  0  0  0  0  0  0  0
    2.9441   10.3380   -1.1982 H   0  0  0  0  0  0  0  0  0  0  0  0
    3.8951   11.8619   -1.1982 H   0  0  0  0  0  0  0  0  0  0  0  0
    1.4122   13.0855    0.9475 H   0  0  0  0  0  0  0  0  0  0  0  0
    2.8609   13.7019   -0.0300 H   0  0  0  0  0  0  0  0  0  0  0  0
   -0.0552   14.4574   -0.3704 H   0  0  0  0  0  0  0  0  0  0  0  0
    1.3226   15.4931    0.1735 H   0  0  0  0  0  0  0  0  0  0  0  0
    3.2760   15.4544   -0.9997 H   0  0  0  0  0  0  0  0  0  0  0  0
    3.3882   14.5588   -2.5528 H   0  0  0  0  0  0  0  0  0  0  0  0
    2.9896   16.3104   -2.5528 H   0  0  0  0  0  0  0  0  0  0  0  0
  1  2  1  0
  2  3  1  0
  3  4  1  0
  4  5  1  0
  5  6  1  0
  6  7  1  0
  7  8  1  0
  7  9  1  0
  2 10  1  0
 10 11  1  0
 11 12  1  0
 12 13  1  0
 13 14  1  1
 13 15  1  0
 15 16  1  0
 16 17  1  0
 17 18  2  0
 18 19  1  0
 19 20  1  0
 20 21  1  0
 21 22  1  0
 22 23  1  0
 22 24  1  0
 24 25  1  0
 24 26  1  0
 19 27  1  0
 27 28  1  6
 27 29  1  0
 29 30  1  0
 30 31  1  0
 31 32  1  1
  7  5  1  0
 31 10  1  0
 31 13  1  0
 27 15  1  0
 24 18  1  0
  1 33  1  0
  1 34  1  0
  1 35  1  0
  2 36  1  6
  3 37  1  0
  3 38  1  0
  4 39  1  0
  4 40  1  0
  5 41  1  1
  8 42  1  0
  8 43  1  0
  8 44  1  0
  9 45  1  0
  9 46  1  0
  9 47  1  0
 10 48  1  1
 11 49  1  0
 11 50  1  0
 12 51  1  0
 12 52  1  0
 14 53  1  0
 14 54  1  0
 14 55  1  0
 15 56  1  6
 16 57  1  0
 16 58  1  0
 17 59  1  0
 19 60  1  1
 20 61  1  0
 20 62  1  0
 21 63  1  0
 21 64  1  0
 22 65  1  1
 23 66  1  0
 25 67  1  0
 25 68  1  0
 25 69  1  0
 26 70  1  0
 26 71  1  0
 26 72  1  0
 28 73  1  0
 28 74  1  0
 28 75  1  0
 29 76  1  0
 29 77  1  0
 30 78  1  0
 30 79  1  0
 32 80  1  0
 32 81  1  0
 32 82  1  0
M  END
>  <meeko>  (3) 
{"is_sidechain": [false], "intermolecular_energy": 2.731, "internal_energy": -0.839}

$$$$
EPH_relaxed_0001_pdb2pqr_Repair_384_r2_0001_out
     RDKit          3D

 82 86  0  0  0  0  0  0  0  0999 V2000
    0.3980   18.3730    0.0050 C   0  0  0  0  0  0  0  0  0  0  0  0
    1.4960   17.3330   -0.2390 C   0  0  2  0  0  0  0  0  0  0  0  0
    2.6900   17.9210   -1.0180 C   0  0  0  0  0  0  0  0  0  0  0  0
    3.9180   18.1960   -0.1460 C   0  0  0  0  0  0  0  0  0  0  0  0
    3.5320   18.6630    1.2250 C   0  0  2  0  0  0  0  0  0  0  0  0
    3.7920   20.0500    1.4800 O   0  0  0  0  0  0  0  0  0  0  0  0
    4.5370   19.1100    2.2710 C   0  0  0  0  0  0  0  0  0  0  0  0
    6.0070   19.1090    1.9910 C   0  0  0  0  0  0  0  0  0  0  0  0
    4.1310   19.0790    3.7110 C   0  0  0  0  0  0  0  0  0  0  0  0
    0.9220   16.1380   -0.9900 C   0  0  1  0  0  0  0  0  0  0  0  0
    0.8060   16.3910   -2.5170 C   0  0  0  0  0  0  0  0  0  0  0  0
    1.0940   15.0390   -3.2180 C   0  0  0  0  0  0  0  0  0  0  0  0
    1.0380   13.9910   -2.0820 C   0  0  1  0  0  0  0  0  0  0  0  0
   -0.4820   13.7030   -1.8760 C   0  0  0  0  0  0  0  0  0  0  0  0
    1.8480   12.6740   -2.3170 C   0  0  2  0  0  0  0  0  0  0  0  0
    1.3830   11.8260   -3.5140 C   0  0  0  0  0  0  0  0  0  0  0  0
    0.3450   10.8000   -3.2030 C   0  0  0  0  0  0  0  0  0  0  0  0
    0.0120   10.3720   -1.9710 C   0  0  0  0  0  0  0  0  0  0  0  0
    0.7760   10.8610   -0.7340 C   0  0  1  0  0  0  0  0  0  0  0  0
    1.1200    9.6510    0.1740 C   0  0  0  0  0  0  0  0  0  0  0  0
   -0.1100    8.8240    0.5370 C   0  0  0  0  0  0  0  0  0  0  0  0
   -0.8090    8.3070   -0.7180 C   0  0  2  0  0  0  0  0  0  0  0  0
    0.0480    7.3650   -1.3680 O   0  0  0  0  0  0  0  0  0  0  0  0
   -1.1950    9.4370   -1.7130 C   0  0  0  0  0  0  0  0  0  0  0  0
   -2.3480   10.2830   -1.1190 C   0  0  0  0  0  0  0  0  0  0  0  0
   -1.7630    8.7700   -2.9950 C   0  0  0  0  0  0  0  0  0  0  0  0
    2.0350   11.7880   -1.0190 C   0  0  1  0  0  0  0  0  0  0  0  0
    3.3000   10.9080   -1.2590 C   0  0  0  0  0  0  0  0  0  0  0  0
    2.3340   12.6560    0.2600 C   0  0  0  0  0  0  0  0  0  0  0  0
    1.5930   14.0020    0.3760 C   0  0  0  0  0  0  0  0  0  0  0  0
    1.7140   14.8080   -0.9210 C   0  0  2  0  0  0  0  0  0  0  0  0
    3.2310   15.1310   -1.1440 C   0  0  0  0  0  0  0  0  0  0  0  0
    0.2551   18.5083    1.0873 H   0  0  0  0  0  0  0  0  0  0  0  0
    0.6929   19.3308   -0.4485 H   0  0  0  0  0  0  0  0  0  0  0  0
   -0.5424   18.0267   -0.4485 H   0  0  0  0  0  0  0  0  0  0  0  0
    1.8700   17.0098    0.7437 H   0  0  0  0  0  0  0  0  0  0  0  0
    2.9758   17.2082   -1.8055 H   0  0  0  0  0  0  0  0  0  0  0  0
    2.3625   18.8884   -1.4265 H   0  0  0  0  0  0  0  0  0  0  0  0
    4.5050   17.2701   -0.0550 H   0  0  0  0  0  0  0  0  0  0  0  0
    4.5075   18.9914   -0.6255 H   0  0  0  0  0  0  0  0  0  0  0  0
    2.6997   17.9447    1.2611 H   0  0  0  0  0  0  0  0  0  0  0  0
    6.5612   19.1086    2.9412 H   0  0  0  0  0  0  0  0  0  0  0  0
    6.2696   18.2107    1.4130 H   0  0  0  0  0  0  0  0  0  0  0  0
    6.2708   20.0070    1.4130 H   0  0  0  0  0  0  0  0  0  0  0  0
    5.0266   19.1474    4.3460 H   0  0  0  0  0  0  0  0  0  0  0  0
    3.4656   19.9290    3.9227 H   0  0  0  0  0  0  0  0  0  0  0  0
    3.6024   18.1379    3.9227 H   0  0  0  0  0  0  0  0  0  0  0  0
   -0.0379   16.0330   -0.4631 H   0  0  0  0  0  0  0  0  0  0  0  0
   -0.2070   16.7391   -2.7673 H   0  0  0  0  0  0  0  0  0  0  0  0
    1.5165   17.1644   -2.8441 H   0  0  0  0  0  0  0  0  0  0  0  0
    0.3302   14.8264   -3.9805 H   0  0  0  0  0  0  0  0  0  0  0  0
    2.0624   15.0375   -3.7397 H   0  0  0  0  0  0  0  0  0  0  0  0
   -0.7046   13.6608   -0.7996 H   0  0  0  0  0  0  0  0  0  0  0  0
   -1.0736   14.5050   -2.3416 H   0  0  0  0  0  0  0  0  0  0  0  0
   -0.7392   12.7402   -2.3416 H   0  0  0  0  0  0  0  0  0  0  0  0
    2.8431   13.0550   -2.5900 H   0  0  0  0  0  0  0  0  0  0  0  0
    0.9711   12.5069   -4.2734 H   0  0  0  0  0  0  0  0  0  0  0  0
    2.2684   11.2696   -3.8552 H   0  0  0  0  0  0  0  0  0  0  0  0
   -0.1939   10.3557   -4.0528 H   0  0  0  0  0  0  0  0  0  0  0  0
    0.0939   11.5425   -0.2045 H   0  0  0  0  0  0  0  0  0  0  0  0
    1.8357    9.0049   -0.3555 H   0  0  0  0  0  0  0  0  0  0  0  0
    1.5454   10.0451    1.1088 H   0  0  0  0  0  0  0  0  0  0  0  0
    0.2008    7.9683    1.1545 H   0  0  0  0  0  0  0  0  0  0  0  0
   -0.8121    9.4636    1.0920 H   0  0  0  0  0  0  0  0  0  0  0  0
   -1.7500    7.8338   -0.4007 H   0  0  0  0  0  0  0  0  0  0  0  0
    0.2940    7.7380   -2.2320 H   0  0  0  0  0  0  0  0  0  0  0  0
   -2.3003   10.2480   -0.0206 H   0  0  0  0  0  0  0  0  0  0  0  0
   -2.2501   11.3251   -1.4572 H   0  0  0  0  0  0  0  0  0  0  0  0
   -3.3127    9.8769   -1.4572 H   0  0  0  0  0  0  0  0  0  0  0  0
   -2.4523    7.9606   -2.7126 H   0  0  0  0  0  0  0  0  0  0  0  0
   -2.3034    9.5208   -3.5903 H   0  0  0  0  0  0  0  0  0  0  0  0
   -0.9358    8.3561   -3.5903 H   0  0  0  0  0  0  0  0  0  0  0  0
    3.7284   10.6100   -0.2907 H   0  0  0  0  0  0  0  0  0  0  0  0
    3.0190   10.0094   -1.8278 H   0  0  0  0  0  0  0  0  0  0  0  0
    4.0448   11.4840   -1.8278 H   0  0  0  0  0  0  0  0  0  0  0  0
    2.0682   12.0530    1.1408 H   0  0  0  0  0  0  0  0  0  0  0  0
    3.3993   12.9198    0.1857 H   0  0  0  0  0  0  0  0  0  0  0  0
    0.5297   13.8107    0.5829 H   0  0  0  0  0  0  0  0  0  0  0  0
    2.0460   14.5825    1.1932 H   0  0  0  0  0  0  0  0  0  0  0  0
    3.7303   15.2373   -0.1696 H   0  0  0  0  0  0  0  0  0  0  0  0
    3.7008   14.3128   -1.7094 H   0  0  0  0  0  0  0  0  0  0  0  0
    3.3268   16.0697   -1.7094 H   0  0  0  0  0  0  0  0  0  0  0  0
  1  2  1  0
  2  3  1  0
  3  4  1  0
  4  5  1  0
  5  6  1  0
  6  7  1  0
  7  8  1  0
  7  9  1  0
  2 10  1  0
 10 11  1  0
 11 12  1  0
 12 13  1  0
 13 14  1  1
 13 15  1  0
 15 16  1  0
 16 17  1  0
 17 18  2  0
 18 19  1  0
 19 20  1  0
 20 21  1  0
 21 22  1  0
 22 23  1  0
 22 24  1  0
 24 25  1  0
 24 26  1  0
 19 27  1  0
 27 28  1  6
 27 29  1  0
 29 30  1  0
 30 31  1  0
 31 32  1  6
  7  5  1  0
 31 10  1  0
 31 13  1  0
 27 15  1  0
 24 18  1  0
  1 33  1  0
  1 34  1  0
  1 35  1  0
  2 36  1  1
  3 37  1  0
  3 38  1  0
  4 39  1  0
  4 40  1  0
  5 41  1  1
  8 42  1  0
  8 43  1  0
  8 44  1  0
  9 45  1  0
  9 46  1  0
  9 47  1  0
 10 48  1  1
 11 49  1  0
 11 50  1  0
 12 51  1  0
 12 52  1  0
 14 53  1  0
 14 54  1  0
 14 55  1  0
 15 56  1  6
 16 57  1  0
 16 58  1  0
 17 59  1  0
 19 60  1  1
 20 61  1  0
 20 62  1  0
 21 63  1  0
 21 64  1  0
 22 65  1  1
 23 66  1  0
 25 67  1  0
 25 68  1  0
 25 69  1  0
 26 70  1  0
 26 71  1  0
 26 72  1  0
 28 73  1  0
 28 74  1  0
 28 75  1  0
 29 76  1  0
 29 77  1  0
 30 78  1  0
 30 79  1  0
 32 80  1  0
 32 81  1  0
 32 82  1  0
M  END
>  <meeko>  (4) 
{"is_sidechain": [false], "intermolecular_energy": 2.731, "internal_energy": -0.839}

$$$$
EPH_relaxed_0001_pdb2pqr_Repair_384_r2_0001_out
     RDKit          3D

 82 86  0  0  0  0  0  0  0  0999 V2000
    3.8750   17.5210    0.6020 C   0  0  0  0  0  0  0  0  0  0  0  0
    2.8160   17.9260   -0.4270 C   0  0  2  0  0  0  0  0  0  0  0  0
    2.1630   19.2800   -0.0870 C   0  0  0  0  0  0  0  0  0  0  0  0
    0.9650   19.1650    0.8600 C   0  0  0  0  0  0  0  0  0  0  0  0
   -0.2250   19.9140    0.3420 C   0  0  2  0  0  0  0  0  0  0  0  0
   -1.2300   20.1940    1.3240 O   0  0  0  0  0  0  0  0  0  0  0  0
   -1.6170   19.3150    0.2560 C   0  0  0  0  0  0  0  0  0  0  0  0
   -1.8910   17.9100    0.6920 C   0  0  0  0  0  0  0  0  0  0  0  0
   -2.5990   19.9210   -0.6980 C   0  0  0  0  0  0  0  0  0  0  0  0
    1.7480   16.8430   -0.5270 C   0  0  1  0  0  0  0  0  0  0  0  0
    0.4380   17.3540   -1.1820 C   0  0  0  0  0  0  0  0  0  0  0  0
   -0.1410   16.1740   -2.0040 C   0  0  0  0  0  0  0  0  0  0  0  0
    0.6620   14.9390   -1.5340 C   0  0  1  0  0  0  0  0  0  0  0  0
   -0.0150   14.5050   -0.1970 C   0  0  0  0  0  0  0  0  0  0  0  0
    0.7580   13.7510   -2.5450 C   0  0  2  0  0  0  0  0  0  0  0  0
   -0.5860   13.0970   -2.9130 C   0  0  0  0  0  0  0  0  0  0  0  0
   -0.9980   11.9560   -2.0430 C   0  0  0  0  0  0  0  0  0  0  0  0
   -0.1950   11.2920   -1.1910 C   0  0  0  0  0  0  0  0  0  0  0  0
    1.3030   11.6090   -1.1110 C   0  0  1  0  0  0  0  0  0  0  0  0
    2.1140   10.2870   -1.1200 C   0  0  0  0  0  0  0  0  0  0  0  0
    1.6650    9.3170   -0.0310 C   0  0  0  0  0  0  0  0  0  0  0  0
    0.1830    8.9800   -0.1790 C   0  0  2  0  0  0  0  0  0  0  0  0
   -0.0020    8.2370   -1.3870 O   0  0  0  0  0  0  0  0  0  0  0  0
   -0.7320   10.2360   -0.1930 C   0  0  0  0  0  0  0  0  0  0  0  0
   -0.7630   10.8730    1.2180 C   0  0  0  0  0  0  0  0  0  0  0  0
   -2.1820    9.7670   -0.4890 C   0  0  0  0  0  0  0  0  0  0  0  0
    1.8460   12.6650   -2.1680 C   0  0  1  0  0  0  0  0  0  0  0  0
    2.2300   11.9410   -3.4950 C   0  0  0  0  0  0  0  0  0  0  0  0
    3.1710   13.3120   -1.6160 C   0  0  0  0  0  0  0  0  0  0  0  0
    3.0160   14.5550   -0.7190 C   0  0  0  0  0  0  0  0  0  0  0  0
    2.0860   15.5860   -1.3670 C   0  0  2  0  0  0  0  0  0  0  0  0
    2.7520   16.0580   -2.7040 C   0  0  0  0  0  0  0  0  0  0  0  0
    3.4776   17.6730    1.6164 H   0  0  0  0  0  0  0  0  0  0  0  0
    4.1333   16.4606    0.4644 H   0  0  0  0  0  0  0  0  0  0  0  0
    4.7749   18.1384    0.4644 H   0  0  0  0  0  0  0  0  0  0  0  0
    3.3232   18.0391   -1.3965 H   0  0  0  0  0  0  0  0  0  0  0  0
    2.9203   19.9215    0.3873 H   0  0  0  0  0  0  0  0  0  0  0  0
    1.7874   19.7018   -1.0309 H   0  0  0  0  0  0  0  0  0  0  0  0
    0.6980   18.1036    0.9698 H   0  0  0  0  0  0  0  0  0  0  0  0
    1.2502   19.6020    1.8283 H   0  0  0  0  0  0  0  0  0  0  0  0
    0.3981   20.4424   -0.3945 H   0  0  0  0  0  0  0  0  0  0  0  0
   -1.9003   17.8623    1.7909 H   0  0  0  0  0  0  0  0  0  0  0  0
   -2.8686   17.5893    0.3028 H   0  0  0  0  0  0  0  0  0  0  0  0
   -1.1055   17.2455    0.3028 H   0  0  0  0  0  0  0  0  0  0  0  0
   -3.4018   20.4164   -0.1323 H   0  0  0  0  0  0  0  0  0  0  0  0
   -2.0866   20.6602   -1.3313 H   0  0  0  0  0  0  0  0  0  0  0  0
   -3.0300   19.1316   -1.3313 H   0  0  0  0  0  0  0  0  0  0  0  0
    1.6601   16.5729    0.5357 H   0  0  0  0  0  0  0  0  0  0  0  0
   -0.2781   17.6625   -0.4061 H   0  0  0  0  0  0  0  0  0  0  0  0
    0.6316   18.2255   -1.8246 H   0  0  0  0  0  0  0  0  0  0  0  0
   -1.2127   16.0433   -1.7935 H   0  0  0  0  0  0  0  0  0  0  0  0
   -0.0548   16.3393   -3.0881 H   0  0  0  0  0  0  0  0  0  0  0  0
    0.5741   14.8826    0.6517 H   0  0  0  0  0  0  0  0  0  0  0  0
   -1.0329   14.9193   -0.1501 H   0  0  0  0  0  0  0  0  0  0  0  0
   -0.0635   13.4071   -0.1501 H   0  0  0  0  0  0  0  0  0  0  0  0
    1.1085   14.2486   -3.4612 H   0  0  0  0  0  0  0  0  0  0  0  0
   -1.3673   13.8690   -2.8541 H   0  0  0  0  0  0  0  0  0  0  0  0
   -0.4555   12.6792   -3.9222 H   0  0  0  0  0  0  0  0  0  0  0  0
   -2.0469   11.6302   -2.1034 H   0  0  0  0  0  0  0  0  0  0  0  0
    1.4519   12.1315   -0.1545 H   0  0  0  0  0  0  0  0  0  0  0  0
    1.9862    9.8017   -2.0989 H   0  0  0  0  0  0  0  0  0  0  0  0
    3.1670   10.5403   -0.9277 H   0  0  0  0  0  0  0  0  0  0  0  0
    2.2543    8.3913   -0.1078 H   0  0  0  0  0  0  0  0  0  0  0  0
    1.8214    9.7917    0.9489 H   0  0  0  0  0  0  0  0  0  0  0  0
   -0.1103    8.3879    0.7005 H   0  0  0  0  0  0  0  0  0  0  0  0
   -0.1910    8.8720   -2.0980 H   0  0  0  0  0  0  0  0  0  0  0  0
   -0.7244   10.0799    1.9793 H   0  0  0  0  0  0  0  0  0  0  0  0
    0.1038   11.5395    1.3386 H   0  0  0  0  0  0  0  0  0  0  0  0
   -1.6904   11.4521    1.3386 H   0  0  0  0  0  0  0  0  0  0  0  0
   -2.7126    9.5954    0.4592 H   0  0  0  0  0  0  0  0  0  0  0  0
   -2.7068   10.5412   -1.0679 H   0  0  0  0  0  0  0  0  0  0  0  0
   -2.1540    8.8321   -1.0679 H   0  0  0  0  0  0  0  0  0  0  0  0
    2.7337   10.9913   -3.2620 H   0  0  0  0  0  0  0  0  0  0  0  0
    1.3201   11.7397   -4.0794 H   0  0  0  0  0  0  0  0  0  0  0  0
    2.9070   12.5814   -4.0794 H   0  0  0  0  0  0  0  0  0  0  0  0
    3.6981   12.5435   -1.0315 H   0  0  0  0  0  0  0  0  0  0  0  0
    3.7114   13.6654   -2.5066 H   0  0  0  0  0  0  0  0  0  0  0  0
    2.5948   14.2492    0.2501 H   0  0  0  0  0  0  0  0  0  0  0  0
    4.0062   15.0136   -0.5808 H   0  0  0  0  0  0  0  0  0  0  0  0
    3.6301   16.6803   -2.4765 H   0  0  0  0  0  0  0  0  0  0  0  0
    3.0661   15.1798   -3.2872 H   0  0  0  0  0  0  0  0  0  0  0  0
    2.0275   16.6454   -3.2872 H   0  0  0  0  0  0  0  0  0  0  0  0
  1  2  1  0
  2  3  1  0
  3  4  1  0
  4  5  1  0
  5  6  1  0
  6  7  1  0
  7  8  1  0
  7  9  1  0
  2 10  1  0
 10 11  1  0
 11 12  1  0
 12 13  1  0
 13 14  1  1
 13 15  1  0
 15 16  1  0
 16 17  1  0
 17 18  2  0
 18 19  1  0
 19 20  1  0
 20 21  1  0
 21 22  1  0
 22 23  1  0
 22 24  1  0
 24 25  1  0
 24 26  1  0
 19 27  1  0
 27 28  1  6
 27 29  1  0
 29 30  1  0
 30 31  1  0
 31 32  1  6
  7  5  1  0
 31 10  1  0
 31 13  1  0
 27 15  1  0
 24 18  1  0
  1 33  1  0
  1 34  1  0
  1 35  1  0
  2 36  1  6
  3 37  1  0
  3 38  1  0
  4 39  1  0
  4 40  1  0
  5 41  1  6
  8 42  1  0
  8 43  1  0
  8 44  1  0
  9 45  1  0
  9 46  1  0
  9 47  1  0
 10 48  1  1
 11 49  1  0
 11 50  1  0
 12 51  1  0
 12 52  1  0
 14 53  1  0
 14 54  1  0
 14 55  1  0
 15 56  1  6
 16 57  1  0
 16 58  1  0
 17 59  1  0
 19 60  1  1
 20 61  1  0
 20 62  1  0
 21 63  1  0
 21 64  1  0
 22 65  1  1
 23 66  1  0
 25 67  1  0
 25 68  1  0
 25 69  1  0
 26 70  1  0
 26 71  1  0
 26 72  1  0
 28 73  1  0
 28 74  1  0
 28 75  1  0
 29 76  1  0
 29 77  1  0
 30 78  1  0
 30 79  1  0
 32 80  1  0
 32 81  1  0
 32 82  1  0
M  END
>  <meeko>  (5) 
{"is_sidechain": [false], "intermolecular_energy": 2.731, "internal_energy": -0.839}

$$$$
EPH_relaxed_0001_pdb2pqr_Repair_384_r2_0001_out
     RDKit          3D

 82 86  0  0  0  0  0  0  0  0999 V2000
    0.4140    8.8670   -2.5570 C   0  0  0  0  0  0  0  0  0  0  0  0
    1.1790   10.0290   -3.1960 C   0  0  2  0  0  0  0  0  0  0  0  0
    2.6710   10.0260   -2.8060 C   0  0  0  0  0  0  0  0  0  0  0  0
    3.5910   10.6040   -3.8850 C   0  0  0  0  0  0  0  0  0  0  0  0
    4.9770   10.8360   -3.3650 C   0  0  2  0  0  0  0  0  0  0  0  0
    5.5910   12.0490   -3.8180 O   0  0  0  0  0  0  0  0  0  0  0  0
    6.2130   10.8270   -4.2460 C   0  0  0  0  0  0  0  0  0  0  0  0
    6.1200   10.5790   -5.7190 C   0  0  0  0  0  0  0  0  0  0  0  0
    7.5430   10.5720   -3.6090 C   0  0  0  0  0  0  0  0  0  0  0  0
    0.5390   11.3540   -2.7990 C   0  0  1  0  0  0  0  0  0  0  0  0
   -0.8380   11.1680   -2.1080 C   0  0  0  0  0  0  0  0  0  0  0  0
   -0.9550   12.2840   -1.0380 C   0  0  0  0  0  0  0  0  0  0  0  0
    0.1940   13.2640   -1.3690 C   0  0  1  0  0  0  0  0  0  0  0  0
   -0.3560   14.1480   -2.5320 C   0  0  0  0  0  0  0  0  0  0  0  0
    0.7230   14.1350   -0.1830 C   0  0  2  0  0  0  0  0  0  0  0  0
   -0.3080   15.0970    0.4310 C   0  0  0  0  0  0  0  0  0  0  0  0
   -0.3530   16.4590   -0.1790 C   0  0  0  0  0  0  0  0  0  0  0  0
    0.5890   16.9870   -0.9830 C   0  0  0  0  0  0  0  0  0  0  0  0
    1.8910   16.2290   -1.2740 C   0  0  1  0  0  0  0  0  0  0  0  0
    3.0960   17.1940   -1.1220 C   0  0  0  0  0  0  0  0  0  0  0  0
    2.9500   18.4520   -1.9730 C   0  0  0  0  0  0  0  0  0  0  0  0
    1.6740   19.2080   -1.6140 C   0  0  2  0  0  0  0  0  0  0  0  0
    1.7980   19.7170   -0.2830 O   0  0  0  0  0  0  0  0  0  0  0  0
    0.3930   18.3340   -1.7210 C   0  0  0  0  0  0  0  0  0  0  0  0
    0.0910   18.0330   -3.2100 C   0  0  0  0  0  0  0  0  0  0  0  0
   -0.8030   19.1740   -1.1970 C   0  0  0  0  0  0  0  0  0  0  0  0
    2.0940   14.8690   -0.4790 C   0  0  1  0  0  0  0  0  0  0  0  0
    2.7530   15.1550    0.9050 C   0  0  0  0  0  0  0  0  0  0  0  0
    3.1030   13.9560   -1.2710 C   0  0  0  0  0  0  0  0  0  0  0  0
    2.5040   13.0310   -2.3480 C   0  0  0  0  0  0  0  0  0  0  0  0
    1.3120   12.2440   -1.7940 C   0  0  2  0  0  0  0  0  0  0  0  0
    1.8390   11.3290   -0.6370 C   0  0  0  0  0  0  0  0  0  0  0  0
    0.4688    8.9503   -1.4615 H   0  0  0  0  0  0  0  0  0  0  0  0
   -0.6384    8.9018   -2.8752 H   0  0  0  0  0  0  0  0  0  0  0  0
    0.8619    7.9140   -2.8752 H   0  0  0  0  0  0  0  0  0  0  0  0
    1.1229    9.9019   -4.2872 H   0  0  0  0  0  0  0  0  0  0  0  0
    2.7917   10.6235   -1.8903 H   0  0  0  0  0  0  0  0  0  0  0  0
    2.9636    8.9753   -2.6635 H   0  0  0  0  0  0  0  0  0  0  0  0
    3.6397    9.8984   -4.7274 H   0  0  0  0  0  0  0  0  0  0  0  0
    3.1782   11.5720   -4.2052 H   0  0  0  0  0  0  0  0  0  0  0  0
    4.7368   10.3177   -2.4250 H   0  0  0  0  0  0  0  0  0  0  0  0
    5.7388    9.5625   -5.8963 H   0  0  0  0  0  0  0  0  0  0  0  0
    5.4355   11.3115   -6.1716 H   0  0  0  0  0  0  0  0  0  0  0  0
    7.1174   10.6807   -6.1716 H   0  0  0  0  0  0  0  0  0  0  0  0
    7.4353   10.5926   -2.5145 H   0  0  0  0  0  0  0  0  0  0  0  0
    7.9165    9.5859   -3.9222 H   0  0  0  0  0  0  0  0  0  0  0  0
    8.2547   11.3500   -3.9222 H   0  0  0  0  0  0  0  0  0  0  0  0
    0.5017   11.8437   -3.7833 H   0  0  0  0  0  0  0  0  0  0  0  0
   -1.6482   11.2640   -2.8458 H   0  0  0  0  0  0  0  0  0  0  0  0
   -0.9190   10.1712   -1.6500 H   0  0  0  0  0  0  0  0  0  0  0  0
   -1.9293   12.7897   -1.1093 H   0  0  0  0  0  0  0  0  0  0  0  0
   -0.8841   11.8889   -0.0138 H   0  0  0  0  0  0  0  0  0  0  0  0
   -0.8934   15.0117   -2.1135 H   0  0  0  0  0  0  0  0  0  0  0  0
    0.4815   14.5021   -3.1511 H   0  0  0  0  0  0  0  0  0  0  0  0
   -1.0437   13.5531   -3.1511 H   0  0  0  0  0  0  0  0  0  0  0  0
    0.9252   13.3805    0.5915 H   0  0  0  0  0  0  0  0  0  0  0  0
   -1.3038   14.6427    0.3216 H   0  0  0  0  0  0  0  0  0  0  0  0
   -0.0022   15.2427    1.4776 H   0  0  0  0  0  0  0  0  0  0  0  0
   -1.2296   17.0837    0.0476 H   0  0  0  0  0  0  0  0  0  0  0  0
    1.8168   15.8854   -2.3163 H   0  0  0  0  0  0  0  0  0  0  0  0
    3.1791   17.4905   -0.0660 H   0  0  0  0  0  0  0  0  0  0  0  0
    3.9952   16.6615   -1.4653 H   0  0  0  0  0  0  0  0  0  0  0  0
    3.8170   19.1064   -1.7998 H   0  0  0  0  0  0  0  0  0  0  0  0
    2.8969   18.1560   -3.0311 H   0  0  0  0  0  0  0  0  0  0  0  0
    1.5591   20.0242   -2.3425 H   0  0  0  0  0  0  0  0  0  0  0  0
    1.0170   19.4270    0.2180 H   0  0  0  0  0  0  0  0  0  0  0  0
   -0.6867   17.2579   -3.2770 H   0  0  0  0  0  0  0  0  0  0  0  0
   -0.2614   18.9498   -3.7053 H   0  0  0  0  0  0  0  0  0  0  0  0
    1.0066   17.6775   -3.7053 H   0  0  0  0  0  0  0  0  0  0  0  0
   -0.7990   19.1712   -0.0970 H   0  0  0  0  0  0  0  0  0  0  0  0
   -0.7125   20.2079   -1.5614 H   0  0  0  0  0  0  0  0  0  0  0  0
   -1.7449   18.7380   -1.5614 H   0  0  0  0  0  0  0  0  0  0  0  0
    2.0636   14.8558    1.7082 H   0  0  0  0  0  0  0  0  0  0  0  0
    3.6877   14.5816    0.9915 H   0  0  0  0  0  0  0  0  0  0  0  0
    2.9726   16.2294    0.9915 H   0  0  0  0  0  0  0  0  0  0  0  0
    3.8307   14.6157   -1.7661 H   0  0  0  0  0  0  0  0  0  0  0  0
    3.5325   13.2799   -0.5171 H   0  0  0  0  0  0  0  0  0  0  0  0
    2.1680   13.6408   -3.1996 H   0  0  0  0  0  0  0  0  0  0  0  0
    3.2778   12.3171   -2.6669 H   0  0  0  0  0  0  0  0  0  0  0  0
    1.5800   11.7786    0.3329 H   0  0  0  0  0  0  0  0  0  0  0  0
    1.3752   10.3347   -0.7157 H   0  0  0  0  0  0  0  0  0  0  0  0
    2.9318   11.2312   -0.7157 H   0  0  0  0  0  0  0  0  0  0  0  0
  1  2  1  0
  2  3  1  0
  3  4  1  0
  4  5  1  0
  5  6  1  0
  6  7  1  0
  7  8  1  0
  7  9  1  0
  2 10  1  0
 10 11  1  0
 11 12  1  0
 12 13  1  0
 13 14  1  6
 13 15  1  0
 15 16  1  0
 16 17  1  0
 17 18  2  0
 18 19  1  0
 19 20  1  0
 20 21  1  0
 21 22  1  0
 22 23  1  0
 22 24  1  0
 24 25  1  0
 24 26  1  0
 19 27  1  0
 27 28  1  1
 27 29  1  0
 29 30  1  0
 30 31  1  0
 31 32  1  1
  7  5  1  0
 31 10  1  0
 31 13  1  0
 27 15  1  0
 24 18  1  0
  1 33  1  0
  1 34  1  0
  1 35  1  0
  2 36  1  6
  3 37  1  0
  3 38  1  0
  4 39  1  0
  4 40  1  0
  5 41  1  1
  8 42  1  0
  8 43  1  0
  8 44  1  0
  9 45  1  0
  9 46  1  0
  9 47  1  0
 10 48  1  6
 11 49  1  0
 11 50  1  0
 12 51  1  0
 12 52  1  0
 14 53  1  0
 14 54  1  0
 14 55  1  0
 15 56  1  1
 16 57  1  0
 16 58  1  0
 17 59  1  0
 19 60  1  6
 20 61  1  0
 20 62  1  0
 21 63  1  0
 21 64  1  0
 22 65  1  6
 23 66  1  0
 25 67  1  0
 25 68  1  0
 25 69  1  0
 26 70  1  0
 26 71  1  0
 26 72  1  0
 28 73  1  0
 28 74  1  0
 28 75  1  0
 29 76  1  0
 29 77  1  0
 30 78  1  0
 30 79  1  0
 32 80  1  0
 32 81  1  0
 32 82  1  0
M  END
>  <meeko>  (6) 
{"is_sidechain": [false], "intermolecular_energy": 2.731, "internal_energy": -0.839}

$$$$
EPH_relaxed_0001_pdb2pqr_Repair_384_r2_0001_out
     RDKit          3D

 82 86  0  0  0  0  0  0  0  0999 V2000
    2.7990   19.0550   -1.1630 C   0  0  0  0  0  0  0  0  0  0  0  0
    2.4960   18.0090   -2.2390 C   0  0  2  0  0  0  0  0  0  0  0  0
    1.0590   18.1360   -2.7830 C   0  0  0  0  0  0  0  0  0  0  0  0
    0.3280   19.3940   -2.3050 C   0  0  0  0  0  0  0  0  0  0  0  0
   -0.9720   19.0600   -1.6380 C   0  0  2  0  0  0  0  0  0  0  0  0
   -1.7930   20.1930   -1.3260 O   0  0  0  0  0  0  0  0  0  0  0  0
   -1.2990   19.4400   -0.2060 C   0  0  0  0  0  0  0  0  0  0  0  0
   -0.3210   20.1870    0.6460 C   0  0  0  0  0  0  0  0  0  0  0  0
   -2.3590   18.6670    0.5150 C   0  0  0  0  0  0  0  0  0  0  0  0
    2.7200   16.6090   -1.6810 C   0  0  1  0  0  0  0  0  0  0  0  0
    3.5000   16.6190   -0.3390 C   0  0  0  0  0  0  0  0  0  0  0  0
    2.9330   15.4560    0.5160 C   0  0  0  0  0  0  0  0  0  0  0  0
    2.0910   14.6180   -0.4750 C   0  0  1  0  0  0  0  0  0  0  0  0
    3.1270   13.7260   -1.2270 C   0  0  0  0  0  0  0  0  0  0  0  0
    0.9390   13.7640    0.1480 C   0  0  2  0  0  0  0  0  0  0  0  0
    1.3950   12.6730    1.1330 C   0  0  0  0  0  0  0  0  0  0  0  0
    1.6740   11.3400    0.5240 C   0  0  0  0  0  0  0  0  0  0  0  0
    1.2960   10.9470   -0.7070 C   0  0  0  0  0  0  0  0  0  0  0  0
    0.4230   11.8510   -1.5880 C   0  0  1  0  0  0  0  0  0  0  0  0
   -0.7300   11.0160   -2.2040 C   0  0  0  0  0  0  0  0  0  0  0  0
   -0.2270    9.7840   -2.9500 C   0  0  0  0  0  0  0  0  0  0  0  0
    0.5870    8.8810   -2.0260 C   0  0  2  0  0  0  0  0  0  0  0  0
   -0.2830    8.3370   -1.0290 O   0  0  0  0  0  0  0  0  0  0  0  0
    1.7720    9.6170   -1.3400 C   0  0  0  0  0  0  0  0  0  0  0  0
    2.8620    9.9410   -2.3910 C   0  0  0  0  0  0  0  0  0  0  0  0
    2.4230    8.6340   -0.3290 C   0  0  0  0  0  0  0  0  0  0  0  0
   -0.0900   13.1930   -0.9100 C   0  0  1  0  0  0  0  0  0  0  0  0
   -1.4190   12.9260   -0.1390 C   0  0  0  0  0  0  0  0  0  0  0  0
   -0.4320   14.2400   -2.0360 C   0  0  0  0  0  0  0  0  0  0  0  0
    0.7210   15.1360   -2.5250 C   0  0  0  0  0  0  0  0  0  0  0  0
    1.4630   15.7680   -1.3430 C   0  0  2  0  0  0  0  0  0  0  0  0
    0.4510   16.6890   -0.5800 C   0  0  0  0  0  0  0  0  0  0  0  0
    2.6688   18.6054   -0.1676 H   0  0  0  0  0  0  0  0  0  0  0  0
    3.8357   19.4057   -1.2742 H   0  0  0  0  0  0  0  0  0  0  0  0
    2.1103   19.9055   -1.2742 H   0  0  0  0  0  0  0  0  0  0  0  0
    3.1840   18.1885   -3.0783 H   0  0  0  0  0  0  0  0  0  0  0  0
    1.1044   18.1573   -3.8819 H   0  0  0  0  0  0  0  0  0  0  0  0
    0.4941   17.2722   -2.4026 H   0  0  0  0  0  0  0  0  0  0  0  0
    0.9693   19.9284   -1.5886 H   0  0  0  0  0  0  0  0  0  0  0  0
    0.1118   20.0197   -3.1835 H   0  0  0  0  0  0  0  0  0  0  0  0
   -1.0318   18.1045   -2.1797 H   0  0  0  0  0  0  0  0  0  0  0  0
   -0.5506   20.0117    1.7074 H   0  0  0  0  0  0  0  0  0  0  0  0
    0.6983   19.8354    0.4284 H   0  0  0  0  0  0  0  0  0  0  0  0
   -0.3920   21.2629    0.4284 H   0  0  0  0  0  0  0  0  0  0  0  0
   -2.2150   18.7720    1.6005 H   0  0  0  0  0  0  0  0  0  0  0  0
   -3.3496   19.0562    0.2372 H   0  0  0  0  0  0  0  0  0  0  0  0
   -2.2912   17.6048    0.2372 H   0  0  0  0  0  0  0  0  0  0  0  0
    3.2582   16.1571   -2.5272 H   0  0  0  0  0  0  0  0  0  0  0  0
    4.5735   16.4653   -0.5235 H   0  0  0  0  0  0  0  0  0  0  0  0
    3.3841   17.5828    0.1783 H   0  0  0  0  0  0  0  0  0  0  0  0
    3.7488   14.8520    0.9399 H   0  0  0  0  0  0  0  0  0  0  0  0
    2.3381   15.8162    1.3683 H   0  0  0  0  0  0  0  0  0  0  0  0
    3.7492   13.1902   -0.4950 H   0  0  0  0  0  0  0  0  0  0  0  0
    2.5951   12.9988   -1.8581 H   0  0  0  0  0  0  0  0  0  0  0  0
    3.7671   14.3601   -1.8581 H   0  0  0  0  0  0  0  0  0  0  0  0
    0.3967   14.5056    0.7529 H   0  0  0  0  0  0  0  0  0  0  0  0
    2.3156   13.0217    1.6239 H   0  0  0  0  0  0  0  0  0  0  0  0
    0.5557   12.5203    1.8274 H   0  0  0  0  0  0  0  0  0  0  0  0
    2.2365   10.6166    1.1325 H   0  0  0  0  0  0  0  0  0  0  0  0
    1.0809   12.2247   -2.3864 H   0  0  0  0  0  0  0  0  0  0  0  0
   -1.3998   10.6891   -1.3949 H   0  0  0  0  0  0  0  0  0  0  0  0
   -1.2537   11.6551   -2.9302 H   0  0  0  0  0  0  0  0  0  0  0  0
   -1.0889    9.2203   -3.3364 H   0  0  0  0  0  0  0  0  0  0  0  0
    0.4190   10.1138   -3.7770 H   0  0  0  0  0  0  0  0  0  0  0  0
    1.0272    8.0856   -2.6454 H   0  0  0  0  0  0  0  0  0  0  0  0
    0.2680    7.8580   -0.3870 H   0  0  0  0  0  0  0  0  0  0  0  0
    3.7948   10.2183   -1.8783 H   0  0  0  0  0  0  0  0  0  0  0  0
    3.0386    9.0565   -3.0207 H   0  0  0  0  0  0  0  0  0  0  0  0
    2.5268   10.7784   -3.0207 H   0  0  0  0  0  0  0  0  0  0  0  0
    2.2039    8.9648    0.6970 H   0  0  0  0  0  0  0  0  0  0  0  0
    2.0142    7.6246   -0.4840 H   0  0  0  0  0  0  0  0  0  0  0  0
    3.5119    8.6164   -0.4840 H   0  0  0  0  0  0  0  0  0  0  0  0
   -1.2288   12.9642    0.9438 H   0  0  0  0  0  0  0  0  0  0  0  0
   -2.1597   13.6933   -0.4085 H   0  0  0  0  0  0  0  0  0  0  0  0
   -1.8059   11.9322   -0.4085 H   0  0  0  0  0  0  0  0  0  0  0  0
   -0.8113   13.6822   -2.9049 H   0  0  0  0  0  0  0  0  0  0  0  0
   -1.1570   14.9287   -1.5777 H   0  0  0  0  0  0  0  0  0  0  0  0
    1.4269   14.5274   -3.1092 H   0  0  0  0  0  0  0  0  0  0  0  0
    0.3009   15.9406   -3.1463 H   0  0  0  0  0  0  0  0  0  0  0  0
    0.5877   16.5646    0.5044 H   0  0  0  0  0  0  0  0  0  0  0  0
    0.6319   17.7388   -0.8543 H   0  0  0  0  0  0  0  0  0  0  0  0
   -0.5771   16.4103   -0.8543 H   0  0  0  0  0  0  0  0  0  0  0  0
  1  2  1  0
  2  3  1  0
  3  4  1  0
  4  5  1  0
  5  6  1  0
  6  7  1  0
  7  8  1  0
  7  9  1  0
  2 10  1  0
 10 11  1  0
 11 12  1  0
 12 13  1  0
 13 14  1  6
 13 15  1  0
 15 16  1  0
 16 17  1  0
 17 18  2  0
 18 19  1  0
 19 20  1  0
 20 21  1  0
 21 22  1  0
 22 23  1  0
 22 24  1  0
 24 25  1  0
 24 26  1  0
 19 27  1  0
 27 28  1  1
 27 29  1  0
 29 30  1  0
 30 31  1  0
 31 32  1  1
  7  5  1  0
 31 10  1  0
 31 13  1  0
 27 15  1  0
 24 18  1  0
  1 33  1  0
  1 34  1  0
  1 35  1  0
  2 36  1  6
  3 37  1  0
  3 38  1  0
  4 39  1  0
  4 40  1  0
  5 41  1  6
  8 42  1  0
  8 43  1  0
  8 44  1  0
  9 45  1  0
  9 46  1  0
  9 47  1  0
 10 48  1  6
 11 49  1  0
 11 50  1  0
 12 51  1  0
 12 52  1  0
 14 53  1  0
 14 54  1  0
 14 55  1  0
 15 56  1  1
 16 57  1  0
 16 58  1  0
 17 59  1  0
 19 60  1  6
 20 61  1  0
 20 62  1  0
 21 63  1  0
 21 64  1  0
 22 65  1  6
 23 66  1  0
 25 67  1  0
 25 68  1  0
 25 69  1  0
 26 70  1  0
 26 71  1  0
 26 72  1  0
 28 73  1  0
 28 74  1  0
 28 75  1  0
 29 76  1  0
 29 77  1  0
 30 78  1  0
 30 79  1  0
 32 80  1  0
 32 81  1  0
 32 82  1  0
M  END
>  <meeko>  (7) 
{"is_sidechain": [false], "intermolecular_energy": 2.731, "internal_energy": -0.839}

$$$$
EPH_relaxed_0001_pdb2pqr_Repair_384_r2_0001_out
     RDKit          3D

 82 86  0  0  0  0  0  0  0  0999 V2000
   -3.7790    7.1820   -3.3380 C   0  0  0  0  0  0  0  0  0  0  0  0
   -3.8390    7.2910   -1.8120 C   0  0  2  0  0  0  0  0  0  0  0  0
   -5.2720    7.1120   -1.2720 C   0  0  0  0  0  0  0  0  0  0  0  0
   -6.3610    7.4490   -2.2950 C   0  0  0  0  0  0  0  0  0  0  0  0
   -7.7050    7.5870   -1.6470 C   0  0  2  0  0  0  0  0  0  0  0  0
   -8.2320    6.3720   -1.0970 O   0  0  0  0  0  0  0  0  0  0  0  0
   -8.9660    6.9420   -2.1930 C   0  0  0  0  0  0  0  0  0  0  0  0
   -8.9430    6.1130   -3.4380 C   0  0  0  0  0  0  0  0  0  0  0  0
  -10.2910    7.5150   -1.7970 C   0  0  0  0  0  0  0  0  0  0  0  0
   -3.2780    8.6360   -1.3650 C   0  0  1  0  0  0  0  0  0  0  0  0
   -3.8690    9.1100   -0.0100 C   0  0  0  0  0  0  0  0  0  0  0  0
   -2.7360    9.8600    0.7350 C   0  0  0  0  0  0  0  0  0  0  0  0
   -1.6440   10.0820   -0.3370 C   0  0  1  0  0  0  0  0  0  0  0  0
   -2.1190   11.3360   -1.1380 C   0  0  0  0  0  0  0  0  0  0  0  0
   -0.1820   10.2540    0.1900 C   0  0  2  0  0  0  0  0  0  0  0  0
    0.0470   11.4780    1.0920 C   0  0  0  0  0  0  0  0  0  0  0  0
    0.4560   12.7260    0.3820 C   0  0  0  0  0  0  0  0  0  0  0  0
    0.9080   12.7930   -0.8840 C   0  0  0  0  0  0  0  0  0  0  0  0
    1.1380   11.5190   -1.7070 C   0  0  1  0  0  0  0  0  0  0  0  0
    2.5170   11.6000   -2.4130 C   0  0  0  0  0  0  0  0  0  0  0  0
    2.6740   12.8690   -3.2450 C   0  0  0  0  0  0  0  0  0  0  0  0
    2.4960   14.1140   -2.3810 C   0  0  2  0  0  0  0  0  0  0  0  0
    3.5800   14.1880   -1.4500 O   0  0  0  0  0  0  0  0  0  0  0  0
    1.1450   14.1390   -1.6130 C   0  0  0  0  0  0  0  0  0  0  0  0
   -0.0170   14.3630   -2.6110 C   0  0  0  0  0  0  0  0  0  0  0  0
    1.1530   15.3740   -0.6720 C   0  0  0  0  0  0  0  0  0  0  0  0
    0.9280   10.1470   -0.9330 C   0  0  1  0  0  0  0  0  0  0  0  0
    2.2490    9.7340   -0.2150 C   0  0  0  0  0  0  0  0  0  0  0  0
    0.6160    9.0100   -1.9770 C   0  0  0  0  0  0  0  0  0  0  0  0
   -0.8610    8.8120   -2.3670 C   0  0  0  0  0  0  0  0  0  0  0  0
   -1.7500    8.7250   -1.1230 C   0  0  2  0  0  0  0  0  0  0  0  0
   -1.3110    7.4600   -0.3090 C   0  0  0  0  0  0  0  0  0  0  0  0
   -3.2662    6.2504   -3.6192 H   0  0  0  0  0  0  0  0  0  0  0  0
   -4.8007    7.1756   -3.7456 H   0  0  0  0  0  0  0  0  0  0  0  0
   -3.2270    8.0418   -3.7456 H   0  0  0  0  0  0  0  0  0  0  0  0
   -3.2269    6.4762   -1.3980 H   0  0  0  0  0  0  0  0  0  0  0  0
   -5.3983    6.0640   -0.9625 H   0  0  0  0  0  0  0  0  0  0  0  0
   -5.3899    7.8139   -0.4333 H   0  0  0  0  0  0  0  0  0  0  0  0
   -6.1045    8.3974   -2.7897 H   0  0  0  0  0  0  0  0  0  0  0  0
   -6.4139    6.6267   -3.0237 H   0  0  0  0  0  0  0  0  0  0  0  0
   -7.4773    8.6179   -1.3382 H   0  0  0  0  0  0  0  0  0  0  0  0
   -8.9134    5.0470   -3.1682 H   0  0  0  0  0  0  0  0  0  0  0  0
   -9.8471    6.3163   -4.0306 H   0  0  0  0  0  0  0  0  0  0  0  0
   -8.0515    6.3661   -4.0306 H   0  0  0  0  0  0  0  0  0  0  0  0
  -10.3637    7.5465   -0.6999 H   0  0  0  0  0  0  0  0  0  0  0  0
  -10.3850    8.5342   -2.2001 H   0  0  0  0  0  0  0  0  0  0  0  0
  -11.0980    6.8854   -2.2001 H   0  0  0  0  0  0  0  0  0  0  0  0
   -3.5583    9.2496   -2.2339 H   0  0  0  0  0  0  0  0  0  0  0  0
   -4.7198    9.7853   -0.1835 H   0  0  0  0  0  0  0  0  0  0  0  0
   -4.2331    8.2571    0.5816 H   0  0  0  0  0  0  0  0  0  0  0  0
   -3.0986   10.8225    1.1250 H   0  0  0  0  0  0  0  0  0  0  0  0
   -2.3612    9.2950    1.6012 H   0  0  0  0  0  0  0  0  0  0  0  0
   -2.4189   12.1277   -0.4357 H   0  0  0  0  0  0  0  0  0  0  0  0
   -1.2964   11.6998   -1.7712 H   0  0  0  0  0  0  0  0  0  0  0  0
   -2.9762   11.0636   -1.7712 H   0  0  0  0  0  0  0  0  0  0  0  0
   -0.0618    9.3767    0.8426 H   0  0  0  0  0  0  0  0  0  0  0  0
   -0.8904   11.6843    1.6293 H   0  0  0  0  0  0  0  0  0  0  0  0
    0.8857   11.2157    1.7537 H   0  0  0  0  0  0  0  0  0  0  0  0
    0.3817   13.6706    0.9408 H   0  0  0  0  0  0  0  0  0  0  0  0
    0.3354   11.4934   -2.4588 H   0  0  0  0  0  0  0  0  0  0  0  0
    3.3068   11.5801   -1.6476 H   0  0  0  0  0  0  0  0  0  0  0  0
    2.5937   10.7411   -3.0959 H   0  0  0  0  0  0  0  0  0  0  0  0
    3.6781   12.8831   -3.6939 H   0  0  0  0  0  0  0  0  0  0  0  0
    1.9019   12.8725   -4.0285 H   0  0  0  0  0  0  0  0  0  0  0  0
    2.4902   14.9841   -3.0539 H   0  0  0  0  0  0  0  0  0  0  0  0
    4.2550   13.5470   -1.7320 H   0  0  0  0  0  0  0  0  0  0  0  0
   -0.9487   14.5426   -2.0546 H   0  0  0  0  0  0  0  0  0  0  0  0
    0.2060   15.2347   -3.2438 H   0  0  0  0  0  0  0  0  0  0  0  0
   -0.1340   13.4709   -3.2438 H   0  0  0  0  0  0  0  0  0  0  0  0
    1.1508   15.0371    0.3751 H   0  0  0  0  0  0  0  0  0  0  0  0
    2.0551   15.9741   -0.8622 H   0  0  0  0  0  0  0  0  0  0  0  0
    0.2588   15.9857   -0.8622 H   0  0  0  0  0  0  0  0  0  0  0  0
    2.1038    9.7794    0.8744 H   0  0  0  0  0  0  0  0  0  0  0  0
    2.5196    8.7084   -0.5064 H   0  0  0  0  0  0  0  0  0  0  0  0
    3.0556   10.4229   -0.5064 H   0  0  0  0  0  0  0  0  0  0  0  0
    1.1751    9.2395   -2.8961 H   0  0  0  0  0  0  0  0  0  0  0  0
    0.9107    8.0739   -1.4801 H   0  0  0  0  0  0  0  0  0  0  0  0
   -1.1874    9.6624   -2.9837 H   0  0  0  0  0  0  0  0  0  0  0  0
   -0.9519    7.8710   -2.9293 H   0  0  0  0  0  0  0  0  0  0  0  0
   -1.3849    7.6730    0.7677 H   0  0  0  0  0  0  0  0  0  0  0  0
   -1.9685    6.6151   -0.5616 H   0  0  0  0  0  0  0  0  0  0  0  0
   -0.2715    7.2040   -0.5616 H   0  0  0  0  0  0  0  0  0  0  0  0
  1  2  1  0
  2  3  1  0
  3  4  1  0
  4  5  1  0
  5  6  1  0
  6  7  1  0
  7  8  1  0
  7  9  1  0
  2 10  1  0
 10 11  1  0
 11 12  1  0
 12 13  1  0
 13 14  1  6
 13 15  1  0
 15 16  1  0
 16 17  1  0
 17 18  2  0
 18 19  1  0
 19 20  1  0
 20 21  1  0
 21 22  1  0
 22 23  1  0
 22 24  1  0
 24 25  1  0
 24 26  1  0
 19 27  1  0
 27 28  1  1
 27 29  1  0
 29 30  1  0
 30 31  1  0
 31 32  1  1
  7  5  1  0
 31 10  1  0
 31 13  1  0
 27 15  1  0
 24 18  1  0
  1 33  1  0
  1 34  1  0
  1 35  1  0
  2 36  1  1
  3 37  1  0
  3 38  1  0
  4 39  1  0
  4 40  1  0
  5 41  1  1
  8 42  1  0
  8 43  1  0
  8 44  1  0
  9 45  1  0
  9 46  1  0
  9 47  1  0
 10 48  1  6
 11 49  1  0
 11 50  1  0
 12 51  1  0
 12 52  1  0
 14 53  1  0
 14 54  1  0
 14 55  1  0
 15 56  1  1
 16 57  1  0
 16 58  1  0
 17 59  1  0
 19 60  1  6
 20 61  1  0
 20 62  1  0
 21 63  1  0
 21 64  1  0
 22 65  1  6
 23 66  1  0
 25 67  1  0
 25 68  1  0
 25 69  1  0
 26 70  1  0
 26 71  1  0
 26 72  1  0
 28 73  1  0
 28 74  1  0
 28 75  1  0
 29 76  1  0
 29 77  1  0
 30 78  1  0
 30 79  1  0
 32 80  1  0
 32 81  1  0
 32 82  1  0
M  END
>  <meeko>  (8) 
{"is_sidechain": [false], "intermolecular_energy": 2.731, "internal_energy": -0.839}

$$$$
EPH_relaxed_0001_pdb2pqr_Repair_384_r2_0001_out
     RDKit          3D

 82 86  0  0  0  0  0  0  0  0999 V2000
   -0.2860   15.0820   -7.5980 C   0  0  0  0  0  0  0  0  0  0  0  0
    1.0900   15.0560   -6.9260 C   0  0  2  0  0  0  0  0  0  0  0  0
    2.2380   15.1420   -7.9500 C   0  0  0  0  0  0  0  0  0  0  0  0
    2.2810   16.4660   -8.7180 C   0  0  0  0  0  0  0  0  0  0  0  0
    1.8810   16.2890  -10.1510 C   0  0  2  0  0  0  0  0  0  0  0  0
    1.2030   15.0590  -10.4360 O   0  0  0  0  0  0  0  0  0  0  0  0
    2.4830   15.2370  -11.0640 C   0  0  0  0  0  0  0  0  0  0  0  0
    3.5370   14.2930  -10.5780 C   0  0  0  0  0  0  0  0  0  0  0  0
    2.4040   15.4450  -12.5450 C   0  0  0  0  0  0  0  0  0  0  0  0
    1.2340   13.7930   -6.0850 C   0  0  1  0  0  0  0  0  0  0  0  0
    2.6690   13.2030   -6.1350 C   0  0  0  0  0  0  0  0  0  0  0  0
    2.9540   12.6020   -4.7350 C   0  0  0  0  0  0  0  0  0  0  0  0
    1.5740   12.5660   -4.0370 C   0  0  1  0  0  0  0  0  0  0  0  0
    0.8800   11.2810   -4.5870 C   0  0  0  0  0  0  0  0  0  0  0  0
    1.5900   12.5900   -2.4740 C   0  0  2  0  0  0  0  0  0  0  0  0
    2.2790   11.3860   -1.8090 C   0  0  0  0  0  0  0  0  0  0  0  0
    1.3870   10.2290   -1.5030 C   0  0  0  0  0  0  0  0  0  0  0  0
    0.0420   10.2620   -1.4870 C   0  0  0  0  0  0  0  0  0  0  0  0
   -0.7170   11.5780   -1.7020 C   0  0  1  0  0  0  0  0  0  0  0  0
   -1.8320   11.7130   -0.6320 C   0  0  0  0  0  0  0  0  0  0  0  0
   -2.7610   10.5030   -0.5990 C   0  0  0  0  0  0  0  0  0  0  0  0
   -1.9780    9.2220   -0.3260 C   0  0  2  0  0  0  0  0  0  0  0  0
   -1.4530    9.2780    1.0040 O   0  0  0  0  0  0  0  0  0  0  0  0
   -0.8200    8.9840   -1.3350 C   0  0  0  0  0  0  0  0  0  0  0  0
   -1.4050    8.6250   -2.7230 C   0  0  0  0  0  0  0  0  0  0  0  0
   -0.0240    7.7370   -0.8640 C   0  0  0  0  0  0  0  0  0  0  0  0
    0.1810   12.8850   -1.8160 C   0  0  1  0  0  0  0  0  0  0  0  0
    0.4640   13.4620   -0.3960 C   0  0  0  0  0  0  0  0  0  0  0  0
   -0.6230   13.9940   -2.5940 C   0  0  0  0  0  0  0  0  0  0  0  0
   -0.5020   13.9910   -4.1300 C   0  0  0  0  0  0  0  0  0  0  0  0
    0.9650   13.9160   -4.5640 C   0  0  2  0  0  0  0  0  0  0  0  0
    1.6840   15.2070   -4.0440 C   0  0  0  0  0  0  0  0  0  0  0  0
   -1.0704   15.0968   -6.8270 H   0  0  0  0  0  0  0  0  0  0  0  0
   -0.3710   15.9819   -8.2248 H   0  0  0  0  0  0  0  0  0  0  0  0
   -0.4049   14.1859   -8.2248 H   0  0  0  0  0  0  0  0  0  0  0  0
    1.1591   15.9428   -6.2788 H   0  0  0  0  0  0  0  0  0  0  0  0
    3.1909   15.0204   -7.4142 H   0  0  0  0  0  0  0  0  0  0  0  0
    2.0680   14.3466   -8.6906 H   0  0  0  0  0  0  0  0  0  0  0  0
    1.5911   17.1775   -8.2407 H   0  0  0  0  0  0  0  0  0  0  0  0
    3.3143   16.8425   -8.6945 H   0  0  0  0  0  0  0  0  0  0  0  0
    1.7368   17.3731  -10.2689 H   0  0  0  0  0  0  0  0  0  0  0  0
    3.5444   14.2864   -9.4780 H   0  0  0  0  0  0  0  0  0  0  0  0
    3.3216   13.2802  -10.9493 H   0  0  0  0  0  0  0  0  0  0  0  0
    4.5200   14.6183  -10.9493 H   0  0  0  0  0  0  0  0  0  0  0  0
    2.0205   16.4547  -12.7535 H   0  0  0  0  0  0  0  0  0  0  0  0
    3.4064   15.3354  -12.9846 H   0  0  0  0  0  0  0  0  0  0  0  0
    1.7271   14.6976  -12.9846 H   0  0  0  0  0  0  0  0  0  0  0  0
    0.4589   13.1695   -6.5546 H   0  0  0  0  0  0  0  0  0  0  0  0
    2.7295   12.4184   -6.9036 H   0  0  0  0  0  0  0  0  0  0  0  0
    3.4064   13.9785   -6.3896 H   0  0  0  0  0  0  0  0  0  0  0  0
    3.3700   11.5877   -4.8253 H   0  0  0  0  0  0  0  0  0  0  0  0
    3.6915   13.1914   -4.1705 H   0  0  0  0  0  0  0  0  0  0  0  0
    0.5433   10.6575   -3.7457 H   0  0  0  0  0  0  0  0  0  0  0  0
    0.0135   11.5667   -5.2015 H   0  0  0  0  0  0  0  0  0  0  0  0
    1.5940   10.7131   -5.2015 H   0  0  0  0  0  0  0  0  0  0  0  0
    2.2316   13.4572   -2.2587 H   0  0  0  0  0  0  0  0  0  0  0  0
    3.0731   11.0336   -2.4837 H   0  0  0  0  0  0  0  0  0  0  0  0
    2.6523   11.7469   -0.8392 H   0  0  0  0  0  0  0  0  0  0  0  0
    1.8700    9.2683   -1.2710 H   0  0  0  0  0  0  0  0  0  0  0  0
   -1.1670   11.5101   -2.7034 H   0  0  0  0  0  0  0  0  0  0  0  0
   -1.3611   11.8230    0.3560 H   0  0  0  0  0  0  0  0  0  0  0  0
   -2.4390   12.5929   -0.8915 H   0  0  0  0  0  0  0  0  0  0  0  0
   -3.5084   10.6444    0.1956 H   0  0  0  0  0  0  0  0  0  0  0  0
   -3.2536   10.4116   -1.5783 H   0  0  0  0  0  0  0  0  0  0  0  0
   -2.6742    8.3785   -0.4438 H   0  0  0  0  0  0  0  0  0  0  0  0
   -0.4900    9.1550    0.9460 H   0  0  0  0  0  0  0  0  0  0  0  0
   -2.3359    8.0538   -2.5920 H   0  0  0  0  0  0  0  0  0  0  0  0
   -1.6171    9.5486   -3.2815 H   0  0  0  0  0  0  0  0  0  0  0  0
   -0.6776    8.0176   -3.2815 H   0  0  0  0  0  0  0  0  0  0  0  0
   -0.0053    7.7077    0.2355 H   0  0  0  0  0  0  0  0  0  0  0  0
   -0.5084    6.8266   -1.2469 H   0  0  0  0  0  0  0  0  0  0  0  0
    1.0057    7.7932   -1.2469 H   0  0  0  0  0  0  0  0  0  0  0  0
    0.1145   12.7494    0.3657 H   0  0  0  0  0  0  0  0  0  0  0  0
    1.5450   13.6264   -0.2758 H   0  0  0  0  0  0  0  0  0  0  0  0
   -0.0678   14.4174   -0.2758 H   0  0  0  0  0  0  0  0  0  0  0  0
   -1.6871   13.8708   -2.3438 H   0  0  0  0  0  0  0  0  0  0  0  0
   -0.1813   14.9487   -2.2724 H   0  0  0  0  0  0  0  0  0  0  0  0
   -1.0411   13.1204   -4.5318 H   0  0  0  0  0  0  0  0  0  0  0  0
   -0.9353   14.9247   -4.5179 H   0  0  0  0  0  0  0  0  0  0  0  0
    1.6848   15.2084   -2.9440 H   0  0  0  0  0  0  0  0  0  0  0  0
    2.7207   15.2225   -4.4114 H   0  0  0  0  0  0  0  0  0  0  0  0
    1.1514   16.0966   -4.4114 H   0  0  0  0  0  0  0  0  0  0  0  0
  1  2  1  0
  2  3  1  0
  3  4  1  0
  4  5  1  0
  5  6  1  0
  6  7  1  0
  7  8  1  0
  7  9  1  0
  2 10  1  0
 10 11  1  0
 11 12  1  0
 12 13  1  0
 13 14  1  1
 13 15  1  0
 15 16  1  0
 16 17  1  0
 17 18  2  0
 18 19  1  0
 19 20  1  0
 20 21  1  0
 21 22  1  0
 22 23  1  0
 22 24  1  0
 24 25  1  0
 24 26  1  0
 19 27  1  0
 27 28  1  1
 27 29  1  0
 29 30  1  0
 30 31  1  0
 31 32  1  1
  7  5  1  0
 31 10  1  0
 31 13  1  0
 27 15  1  0
 24 18  1  0
  1 33  1  0
  1 34  1  0
  1 35  1  0
  2 36  1  1
  3 37  1  0
  3 38  1  0
  4 39  1  0
  4 40  1  0
  5 41  1  6
  8 42  1  0
  8 43  1  0
  8 44  1  0
  9 45  1  0
  9 46  1  0
  9 47  1  0
 10 48  1  6
 11 49  1  0
 11 50  1  0
 12 51  1  0
 12 52  1  0
 14 53  1  0
 14 54  1  0
 14 55  1  0
 15 56  1  6
 16 57  1  0
 16 58  1  0
 17 59  1  0
 19 60  1  6
 20 61  1  0
 20 62  1  0
 21 63  1  0
 21 64  1  0
 22 65  1  1
 23 66  1  0
 25 67  1  0
 25 68  1  0
 25 69  1  0
 26 70  1  0
 26 71  1  0
 26 72  1  0
 28 73  1  0
 28 74  1  0
 28 75  1  0
 29 76  1  0
 29 77  1  0
 30 78  1  0
 30 79  1  0
 32 80  1  0
 32 81  1  0
 32 82  1  0
M  END
>  <meeko>  (9) 
{"is_sidechain": [false], "intermolecular_energy": 2.731, "internal_energy": -0.839}

$$$$
EPH_relaxed_0001_pdb2pqr_Repair_384_r2_0001_out
     RDKit          3D

 82 86  0  0  0  0  0  0  0  0999 V2000
   -2.1180    7.8980   -2.0880 C   0  0  0  0  0  0  0  0  0  0  0  0
   -2.0270    8.5160   -0.6900 C   0  0  2  0  0  0  0  0  0  0  0  0
   -3.3840    8.4990    0.0410 C   0  0  0  0  0  0  0  0  0  0  0  0
   -4.5850    8.7090   -0.8850 C   0  0  0  0  0  0  0  0  0  0  0  0
   -5.3120    7.4260   -1.1510 C   0  0  2  0  0  0  0  0  0  0  0  0
   -5.6530    7.2040   -2.5250 O   0  0  0  0  0  0  0  0  0  0  0  0
   -6.7550    7.3620   -1.6170 C   0  0  0  0  0  0  0  0  0  0  0  0
   -7.5570    8.6050   -1.8430 C   0  0  0  0  0  0  0  0  0  0  0  0
   -7.5270    6.1020   -1.3820 C   0  0  0  0  0  0  0  0  0  0  0  0
   -1.5040    9.9440   -0.7850 C   0  0  1  0  0  0  0  0  0  0  0  0
   -1.0150   10.4940    0.5810 C   0  0  0  0  0  0  0  0  0  0  0  0
    0.1960   11.4150    0.2850 C   0  0  0  0  0  0  0  0  0  0  0  0
    0.1570   11.6300   -1.2470 C   0  0  1  0  0  0  0  0  0  0  0  0
   -0.9090   12.7480   -1.4680 C   0  0  0  0  0  0  0  0  0  0  0  0
    1.5180   11.9860   -1.9290 C   0  0  2  0  0  0  0  0  0  0  0  0
    2.1520   13.3110   -1.4690 C   0  0  0  0  0  0  0  0  0  0  0  0
    1.7600   14.5140   -2.2610 C   0  0  0  0  0  0  0  0  0  0  0  0
    1.1640   14.4960   -3.4680 C   0  0  0  0  0  0  0  0  0  0  0  0
    0.9100   13.1730   -4.2010 C   0  0  1  0  0  0  0  0  0  0  0  0
    1.3500   13.3100   -5.6830 C   0  0  0  0  0  0  0  0  0  0  0  0
    0.6950   14.4980   -6.3800 C   0  0  0  0  0  0  0  0  0  0  0  0
    1.0180   15.8020   -5.6540 C   0  0  2  0  0  0  0  0  0  0  0  0
    2.4180   16.0670   -5.7840 O   0  0  0  0  0  0  0  0  0  0  0  0
    0.6280   15.7790   -4.1500 C   0  0  0  0  0  0  0  0  0  0  0  0
   -0.9150   15.7940   -4.0120 C   0  0  0  0  0  0  0  0  0  0  0  0
    1.1340   17.0970   -3.5050 C   0  0  0  0  0  0  0  0  0  0  0  0
    1.5010   11.8710   -3.5070 C   0  0  1  0  0  0  0  0  0  0  0  0
    2.9800   11.6550   -3.9530 C   0  0  0  0  0  0  0  0  0  0  0  0
    0.6980   10.6120   -4.0070 C   0  0  0  0  0  0  0  0  0  0  0  0
   -0.5720   10.2410   -3.2180 C   0  0  0  0  0  0  0  0  0  0  0  0
   -0.2900   10.1970   -1.7130 C   0  0  2  0  0  0  0  0  0  0  0  0
    0.7630    9.0650   -1.4570 C   0  0  0  0  0  0  0  0  0  0  0  0
   -2.2777    6.8132   -1.9997 H   0  0  0  0  0  0  0  0  0  0  0  0
   -2.9594    8.3492   -2.6343 H   0  0  0  0  0  0  0  0  0  0  0  0
   -1.1823    8.0876   -2.6343 H   0  0  0  0  0  0  0  0  0  0  0  0
   -1.3275    7.9033   -0.1024 H   0  0  0  0  0  0  0  0  0  0  0  0
   -3.4970    7.5256    0.5408 H   0  0  0  0  0  0  0  0  0  0  0  0
   -3.3762    9.3380    0.7524 H   0  0  0  0  0  0  0  0  0  0  0  0
   -5.2787    9.4204   -0.4130 H   0  0  0  0  0  0  0  0  0  0  0  0
   -4.2136    9.0975   -1.8448 H   0  0  0  0  0  0  0  0  0  0  0  0
   -4.7797    6.9273   -0.3276 H   0  0  0  0  0  0  0  0  0  0  0  0
   -7.8384    9.0412   -0.8732 H   0  0  0  0  0  0  0  0  0  0  0  0
   -6.9564    9.3307   -2.4110 H   0  0  0  0  0  0  0  0  0  0  0  0
   -8.4657    8.3568   -2.4110 H   0  0  0  0  0  0  0  0  0  0  0  0
   -7.6311    5.9321   -0.3002 H   0  0  0  0  0  0  0  0  0  0  0  0
   -8.5246    6.1930   -1.8365 H   0  0  0  0  0  0  0  0  0  0  0  0
   -6.9929    5.2546   -1.8365 H   0  0  0  0  0  0  0  0  0  0  0  0
   -2.3978   10.4400   -1.1913 H   0  0  0  0  0  0  0  0  0  0  0  0
   -1.8175   11.0681    1.0673 H   0  0  0  0  0  0  0  0  0  0  0  0
   -0.7317    9.6746    1.2580 H   0  0  0  0  0  0  0  0  0  0  0  0
    0.0934   12.3737    0.8145 H   0  0  0  0  0  0  0  0  0  0  0  0
    1.1467   10.9751    0.6206 H   0  0  0  0  0  0  0  0  0  0  0  0
   -1.2608   13.1170   -0.4933 H   0  0  0  0  0  0  0  0  0  0  0  0
   -0.4588   13.5773   -2.0332 H   0  0  0  0  0  0  0  0  0  0  0  0
   -1.7588   12.3378   -2.0332 H   0  0  0  0  0  0  0  0  0  0  0  0
    2.1828   11.1922   -1.5576 H   0  0  0  0  0  0  0  0  0  0  0  0
    1.8593   13.4827   -0.4227 H   0  0  0  0  0  0  0  0  0  0  0  0
    3.2367   13.1943   -1.6094 H   0  0  0  0  0  0  0  0  0  0  0  0
    1.9765   15.4987   -1.8211 H   0  0  0  0  0  0  0  0  0  0  0  0
   -0.1748   12.9989   -4.1477 H   0  0  0  0  0  0  0  0  0  0  0  0
    2.4418   13.4398   -5.7161 H   0  0  0  0  0  0  0  0  0  0  0  0
    1.0346   12.3978   -6.2107 H   0  0  0  0  0  0  0  0  0  0  0  0
    1.0673   14.5594   -7.4133 H   0  0  0  0  0  0  0  0  0  0  0  0
   -0.3953   14.3524   -6.3723 H   0  0  0  0  0  0  0  0  0  0  0  0
    0.4180   16.5969   -6.1210 H   0  0  0  0  0  0  0  0  0  0  0  0
    2.8950   15.2590   -5.5300 H   0  0  0  0  0  0  0  0  0  0  0  0
   -1.1878   15.7967   -2.9464 H   0  0  0  0  0  0  0  0  0  0  0  0
   -1.3177   16.6961   -4.4958 H   0  0  0  0  0  0  0  0  0  0  0  0
   -1.3351   14.8999   -4.4958 H   0  0  0  0  0  0  0  0  0  0  0  0
    1.0991   17.0060   -2.4093 H   0  0  0  0  0  0  0  0  0  0  0  0
    2.1692   17.2876   -3.8243 H   0  0  0  0  0  0  0  0  0  0  0  0
    0.4923   17.9314   -3.8243 H   0  0  0  0  0  0  0  0  0  0  0  0
    3.6211   11.5614   -3.0640 H   0  0  0  0  0  0  0  0  0  0  0  0
    3.0512   10.7369   -4.5547 H   0  0  0  0  0  0  0  0  0  0  0  0
    3.3108   12.5144   -4.5547 H   0  0  0  0  0  0  0  0  0  0  0  0
    0.3997   10.7996   -5.0490 H   0  0  0  0  0  0  0  0  0  0  0  0
    1.3814    9.7611   -3.8698 H   0  0  0  0  0  0  0  0  0  0  0  0
   -1.3509   10.9920   -3.4162 H   0  0  0  0  0  0  0  0  0  0  0  0
   -0.9067    9.2442   -3.5411 H   0  0  0  0  0  0  0  0  0  0  0  0
    0.8940    8.9242   -0.3739 H   0  0  0  0  0  0  0  0  0  0  0  0
    0.4095    8.1264   -1.9087 H   0  0  0  0  0  0  0  0  0  0  0  0
    1.7247    9.3498   -1.9087 H   0  0  0  0  0  0  0  0  0  0  0  0
  1  2  1  0
  2  3  1  0
  3  4  1  0
  4  5  1  0
  5  6  1  0
  6  7  1  0
  7  8  1  0
  7  9  1  0
  2 10  1  0
 10 11  1  0
 11 12  1  0
 12 13  1  0
 13 14  1  1
 13 15  1  0
 15 16  1  0
 16 17  1  0
 17 18  2  0
 18 19  1  0
 19 20  1  0
 20 21  1  0
 21 22  1  0
 22 23  1  0
 22 24  1  0
 24 25  1  0
 24 26  1  0
 19 27  1  0
 27 28  1  6
 27 29  1  0
 29 30  1  0
 30 31  1  0
 31 32  1  6
  7  5  1  0
 31 10  1  0
 31 13  1  0
 27 15  1  0
 24 18  1  0
  1 33  1  0
  1 34  1  0
  1 35  1  0
  2 36  1  1
  3 37  1  0
  3 38  1  0
  4 39  1  0
  4 40  1  0
  5 41  1  1
  8 42  1  0
  8 43  1  0
  8 44  1  0
  9 45  1  0
  9 46  1  0
  9 47  1  0
 10 48  1  6
 11 49  1  0
 11 50  1  0
 12 51  1  0
 12 52  1  0
 14 53  1  0
 14 54  1  0
 14 55  1  0
 15 56  1  1
 16 57  1  0
 16 58  1  0
 17 59  1  0
 19 60  1  6
 20 61  1  0
 20 62  1  0
 21 63  1  0
 21 64  1  0
 22 65  1  6
 23 66  1  0
 25 67  1  0
 25 68  1  0
 25 69  1  0
 26 70  1  0
 26 71  1  0
 26 72  1  0
 28 73  1  0
 28 74  1  0
 28 75  1  0
 29 76  1  0
 29 77  1  0
 30 78  1  0
 30 79  1  0
 32 80  1  0
 32 81  1  0
 32 82  1  0
M  END
>  <meeko>  (10) 
{"is_sidechain": [false], "intermolecular_energy": 2.731, "internal_energy": -0.839}

$$$$
EPH_relaxed_0001_pdb2pqr_Repair_384_r2_0001_out
     RDKit          3D

 82 86  0  0  0  0  0  0  0  0999 V2000
   -0.0150    9.3570   -2.3920 C   0  0  0  0  0  0  0  0  0  0  0  0
    1.0610   10.3540   -2.8320 C   0  0  2  0  0  0  0  0  0  0  0  0
    2.4560    9.7020   -2.9170 C   0  0  0  0  0  0  0  0  0  0  0  0
    3.3830   10.3640   -3.9400 C   0  0  0  0  0  0  0  0  0  0  0  0
    4.7470   10.6130   -3.3720 C   0  0  2  0  0  0  0  0  0  0  0  0
    5.3180   11.8820   -3.7180 O   0  0  0  0  0  0  0  0  0  0  0  0
    6.0000   10.7220   -4.2210 C   0  0  0  0  0  0  0  0  0  0  0  0
    5.9480   10.5830   -5.7110 C   0  0  0  0  0  0  0  0  0  0  0  0
    7.3270   10.4750   -3.5740 C   0  0  0  0  0  0  0  0  0  0  0  0
    1.0970   11.5370   -1.8720 C   0  0  1  0  0  0  0  0  0  0  0  0
    2.1720   11.3750   -0.7640 C   0  0  0  0  0  0  0  0  0  0  0  0
    2.7290   12.7920   -0.4710 C   0  0  0  0  0  0  0  0  0  0  0  0
    1.7380   13.7530   -1.1680 C   0  0  1  0  0  0  0  0  0  0  0  0
    0.5390   13.8820   -0.1770 C   0  0  0  0  0  0  0  0  0  0  0  0
    2.3030   15.1530   -1.5760 C   0  0  2  0  0  0  0  0  0  0  0  0
    2.7790   16.0300   -0.4050 C   0  0  0  0  0  0  0  0  0  0  0  0
    1.7420   16.9310    0.1790 C   0  0  0  0  0  0  0  0  0  0  0  0
    0.5650   17.2440   -0.3940 C   0  0  0  0  0  0  0  0  0  0  0  0
    0.2190   16.7480   -1.8030 C   0  0  1  0  0  0  0  0  0  0  0  0
   -0.3560   17.9220   -2.6390 C   0  0  0  0  0  0  0  0  0  0  0  0
   -1.5370   18.6040   -1.9540 C   0  0  0  0  0  0  0  0  0  0  0  0
   -1.1380   19.1340   -0.5790 C   0  0  2  0  0  0  0  0  0  0  0  0
   -0.1920   20.1940   -0.7510 O   0  0  0  0  0  0  0  0  0  0  0  0
   -0.5350   18.0420    0.3480 C   0  0  0  0  0  0  0  0  0  0  0  0
   -1.6470   17.0530    0.7780 C   0  0  0  0  0  0  0  0  0  0  0  0
   -0.0460   18.7360    1.6470 C   0  0  0  0  0  0  0  0  0  0  0  0
    1.3730   15.9640   -2.5660 C   0  0  1  0  0  0  0  0  0  0  0  0
    2.2940   16.9730   -3.3160 C   0  0  0  0  0  0  0  0  0  0  0  0
    0.7280   15.0460   -3.6700 C   0  0  0  0  0  0  0  0  0  0  0  0
    0.2990   13.6320   -3.2330 C   0  0  0  0  0  0  0  0  0  0  0  0
    1.4250   12.9280   -2.4700 C   0  0  2  0  0  0  0  0  0  0  0  0
    2.6370   12.7640   -3.4490 C   0  0  0  0  0  0  0  0  0  0  0  0
   -0.0541    9.3208   -1.2933 H   0  0  0  0  0  0  0  0  0  0  0  0
   -0.9923    9.6758   -2.7833 H   0  0  0  0  0  0  0  0  0  0  0  0
    0.2285    8.3582   -2.7833 H   0  0  0  0  0  0  0  0  0  0  0  0
    0.7969   10.7023   -3.8414 H   0  0  0  0  0  0  0  0  0  0  0  0
    2.9301    9.7656   -1.9264 H   0  0  0  0  0  0  0  0  0  0  0  0
    2.3059    8.6626   -3.2443 H   0  0  0  0  0  0  0  0  0  0  0  0
    3.4763    9.7048   -4.8156 H   0  0  0  0  0  0  0  0  0  0  0  0
    2.9464   11.3336   -4.2215 H   0  0  0  0  0  0  0  0  0  0  0  0
    4.5098   10.0151   -2.4797 H   0  0  0  0  0  0  0  0  0  0  0  0
    5.5737    9.5824   -5.9731 H   0  0  0  0  0  0  0  0  0  0  0  0
    5.2749   11.3469   -6.1273 H   0  0  0  0  0  0  0  0  0  0  0  0
    6.9573   10.7175   -6.1273 H   0  0  0  0  0  0  0  0  0  0  0  0
    7.2114   10.4965   -2.4803 H   0  0  0  0  0  0  0  0  0  0  0  0
    7.7081    9.4905   -3.8831 H   0  0  0  0  0  0  0  0  0  0  0  0
    8.0368   11.2565   -3.8831 H   0  0  0  0  0  0  0  0  0  0  0  0
    0.0567   11.5166   -1.5151 H   0  0  0  0  0  0  0  0  0  0  0  0
    1.7190   10.9507    0.1442 H   0  0  0  0  0  0  0  0  0  0  0  0
    2.9734   10.6946   -1.0876 H   0  0  0  0  0  0  0  0  0  0  0  0
    2.7571   12.9818    0.6121 H   0  0  0  0  0  0  0  0  0  0  0  0
    3.7590   12.9188   -0.8356 H   0  0  0  0  0  0  0  0  0  0  0  0
    0.9120   13.8419    0.8570 H   0  0  0  0  0  0  0  0  0  0  0  0
    0.0261   14.8405   -0.3448 H   0  0  0  0  0  0  0  0  0  0  0  0
   -0.1661   13.0545   -0.3448 H   0  0  0  0  0  0  0  0  0  0  0  0
    3.2104   14.8871   -2.1380 H   0  0  0  0  0  0  0  0  0  0  0  0
    3.1398   15.3647    0.3932 H   0  0  0  0  0  0  0  0  0  0  0  0
    3.5586   16.6887   -0.8152 H   0  0  0  0  0  0  0  0  0  0  0  0
    1.9581   17.3770    1.1610 H   0  0  0  0  0  0  0  0  0  0  0  0
   -0.5491   15.9717   -1.6712 H   0  0  0  0  0  0  0  0  0  0  0  0
    0.4388   18.6662   -2.7954 H   0  0  0  0  0  0  0  0  0  0  0  0
   -0.7161   17.5083   -3.5925 H   0  0  0  0  0  0  0  0  0  0  0  0
   -1.8796   19.4428   -2.5777 H   0  0  0  0  0  0  0  0  0  0  0  0
   -2.3427   17.8661   -1.8258 H   0  0  0  0  0  0  0  0  0  0  0  0
   -2.0533   19.4932   -0.0859 H   0  0  0  0  0  0  0  0  0  0  0  0
    0.1350   20.4430    0.1300 H   0  0  0  0  0  0  0  0  0  0  0  0
   -1.6951   17.0102    1.8761 H   0  0  0  0  0  0  0  0  0  0  0  0
   -2.6147   17.3944    0.3816 H   0  0  0  0  0  0  0  0  0  0  0  0
   -1.4209   16.0521    0.3816 H   0  0  0  0  0  0  0  0  0  0  0  0
   -0.4305   18.1903    2.5213 H   0  0  0  0  0  0  0  0  0  0  0  0
    1.0538   18.7375    1.6702 H   0  0  0  0  0  0  0  0  0  0  0  0
   -0.4146   19.7721    1.6702 H   0  0  0  0  0  0  0  0  0  0  0  0
    2.8472   17.5790   -2.5834 H   0  0  0  0  0  0  0  0  0  0  0  0
    3.0058   16.4206   -3.9470 H   0  0  0  0  0  0  0  0  0  0  0  0
    1.6791   17.6316   -3.9470 H   0  0  0  0  0  0  0  0  0  0  0  0
   -0.1654   15.5619   -4.0517 H   0  0  0  0  0  0  0  0  0  0  0  0
    1.5224   14.8890   -4.4145 H   0  0  0  0  0  0  0  0  0  0  0  0
   -0.5837   13.7093   -2.5811 H   0  0  0  0  0  0  0  0  0  0  0  0
    0.0638   13.0436   -4.1321 H   0  0  0  0  0  0  0  0  0  0  0  0
    3.5629   12.6387   -2.8685 H   0  0  0  0  0  0  0  0  0  0  0  0
    2.4791   11.8790   -4.0830 H   0  0  0  0  0  0  0  0  0  0  0  0
    2.7200   13.6591   -4.0830 H   0  0  0  0  0  0  0  0  0  0  0  0
  1  2  1  0
  2  3  1  0
  3  4  1  0
  4  5  1  0
  5  6  1  0
  6  7  1  0
  7  8  1  0
  7  9  1  0
  2 10  1  0
 10 11  1  0
 11 12  1  0
 12 13  1  0
 13 14  1  1
 13 15  1  0
 15 16  1  0
 16 17  1  0
 17 18  2  0
 18 19  1  0
 19 20  1  0
 20 21  1  0
 21 22  1  0
 22 23  1  0
 22 24  1  0
 24 25  1  0
 24 26  1  0
 19 27  1  0
 27 28  1  6
 27 29  1  0
 29 30  1  0
 30 31  1  0
 31 32  1  6
  7  5  1  0
 31 10  1  0
 31 13  1  0
 27 15  1  0
 24 18  1  0
  1 33  1  0
  1 34  1  0
  1 35  1  0
  2 36  1  6
  3 37  1  0
  3 38  1  0
  4 39  1  0
  4 40  1  0
  5 41  1  1
  8 42  1  0
  8 43  1  0
  8 44  1  0
  9 45  1  0
  9 46  1  0
  9 47  1  0
 10 48  1  1
 11 49  1  0
 11 50  1  0
 12 51  1  0
 12 52  1  0
 14 53  1  0
 14 54  1  0
 14 55  1  0
 15 56  1  6
 16 57  1  0
 16 58  1  0
 17 59  1  0
 19 60  1  1
 20 61  1  0
 20 62  1  0
 21 63  1  0
 21 64  1  0
 22 65  1  1
 23 66  1  0
 25 67  1  0
 25 68  1  0
 25 69  1  0
 26 70  1  0
 26 71  1  0
 26 72  1  0
 28 73  1  0
 28 74  1  0
 28 75  1  0
 29 76  1  0
 29 77  1  0
 30 78  1  0
 30 79  1  0
 32 80  1  0
 32 81  1  0
 32 82  1  0
M  END
>  <meeko>  (11) 
{"is_sidechain": [false], "intermolecular_energy": 2.731, "internal_energy": -0.839}

$$$$
EPH_relaxed_0001_pdb2pqr_Repair_384_r2_0001_out
     RDKit          3D

 82 86  0  0  0  0  0  0  0  0999 V2000
   -5.0450    6.6990   -3.0560 C   0  0  0  0  0  0  0  0  0  0  0  0
   -5.9550    7.8300   -2.5690 C   0  0  2  0  0  0  0  0  0  0  0  0
   -5.4530    8.4520   -1.2510 C   0  0  0  0  0  0  0  0  0  0  0  0
   -4.0830    7.9340   -0.8080 C   0  0  0  0  0  0  0  0  0  0  0  0
   -3.2870    8.9950   -0.1100 C   0  0  2  0  0  0  0  0  0  0  0  0
   -3.1110   10.2030   -0.8630 O   0  0  0  0  0  0  0  0  0  0  0  0
   -1.9180    9.4560   -0.5750 C   0  0  0  0  0  0  0  0  0  0  0  0
   -1.2640    8.8630   -1.7840 C   0  0  0  0  0  0  0  0  0  0  0  0
   -1.0130   10.1220    0.4150 C   0  0  0  0  0  0  0  0  0  0  0  0
   -7.3780    7.3120   -2.3920 C   0  0  1  0  0  0  0  0  0  0  0  0
   -7.4820    5.7750   -2.5870 C   0  0  0  0  0  0  0  0  0  0  0  0
   -8.5670    5.2730   -1.6000 C   0  0  0  0  0  0  0  0  0  0  0  0
   -9.2780    6.5570   -1.1140 C   0  0  1  0  0  0  0  0  0  0  0  0
  -10.2930    6.9070   -2.2480 C   0  0  0  0  0  0  0  0  0  0  0  0
   -9.9780    6.4740    0.2810 C   0  0  2  0  0  0  0  0  0  0  0  0
  -11.1280    5.4560    0.3750 C   0  0  0  0  0  0  0  0  0  0  0  0
  -12.4810    5.9890    0.0410 C   0  0  0  0  0  0  0  0  0  0  0  0
  -12.8100    7.2920   -0.0420 C   0  0  0  0  0  0  0  0  0  0  0  0
  -11.7920    8.3850    0.3070 C   0  0  1  0  0  0  0  0  0  0  0  0
  -12.4620    9.4430    1.2220 C   0  0  0  0  0  0  0  0  0  0  0  0
  -13.7440   10.0110    0.6190 C   0  0  0  0  0  0  0  0  0  0  0  0
  -14.7530    8.9000    0.3400 C   0  0  2  0  0  0  0  0  0  0  0  0
  -15.1860    8.3460    1.5860 O   0  0  0  0  0  0  0  0  0  0  0  0
  -14.1860    7.7710   -0.5660 C   0  0  0  0  0  0  0  0  0  0  0  0
  -14.0000    8.3040   -2.0080 C   0  0  0  0  0  0  0  0  0  0  0  0
  -15.2550    6.6480   -0.6530 C   0  0  0  0  0  0  0  0  0  0  0  0
  -10.3990    7.8770    0.8800 C   0  0  1  0  0  0  0  0  0  0  0  0
  -10.4950    7.6910    2.4250 C   0  0  0  0  0  0  0  0  0  0  0  0
   -9.3070    8.9850    0.6330 C   0  0  0  0  0  0  0  0  0  0  0  0
   -8.5670    8.9410   -0.7170 C   0  0  0  0  0  0  0  0  0  0  0  0
   -8.0480    7.5310   -1.0130 C   0  0  2  0  0  0  0  0  0  0  0  0
   -7.0080    7.1600    0.0990 C   0  0  0  0  0  0  0  0  0  0  0  0
   -4.6203    6.1712   -2.1894 H   0  0  0  0  0  0  0  0  0  0  0  0
   -5.6302    5.9936   -3.6642 H   0  0  0  0  0  0  0  0  0  0  0  0
   -4.2307    7.1197   -3.6642 H   0  0  0  0  0  0  0  0  0  0  0  0
   -5.9394    8.6204   -3.3339 H   0  0  0  0  0  0  0  0  0  0  0  0
   -5.3853    9.5417   -1.3851 H   0  0  0  0  0  0  0  0  0  0  0  0
   -6.1719    8.1689   -0.4680 H   0  0  0  0  0  0  0  0  0  0  0  0
   -4.2274    7.0871   -0.1210 H   0  0  0  0  0  0  0  0  0  0  0  0
   -3.5276    7.6241   -1.7055 H   0  0  0  0  0  0  0  0  0  0  0  0
   -3.6602    8.6639    0.8704 H   0  0  0  0  0  0  0  0  0  0  0  0
   -0.4833    8.1552   -1.4685 H   0  0  0  0  0  0  0  0  0  0  0  0
   -2.0173    8.3337   -2.3859 H   0  0  0  0  0  0  0  0  0  0  0  0
   -0.8108    9.6644   -2.3859 H   0  0  0  0  0  0  0  0  0  0  0  0
   -1.3436    9.8787    1.4355 H   0  0  0  0  0  0  0  0  0  0  0  0
    0.0170    9.7649    0.2683 H   0  0  0  0  0  0  0  0  0  0  0  0
   -1.0477   11.2116    0.2683 H   0  0  0  0  0  0  0  0  0  0  0  0
   -7.8902    7.9127   -3.1581 H   0  0  0  0  0  0  0  0  0  0  0  0
   -7.7744    5.5431   -3.6218 H   0  0  0  0  0  0  0  0  0  0  0  0
   -6.5157    5.2856   -2.3951 H   0  0  0  0  0  0  0  0  0  0  0  0
   -9.2771    4.6057   -2.1104 H   0  0  0  0  0  0  0  0  0  0  0  0
   -8.1383    4.6940   -0.7687 H   0  0  0  0  0  0  0  0  0  0  0  0
  -11.2433    7.2347   -1.8012 H   0  0  0  0  0  0  0  0  0  0  0  0
   -9.8826    7.7155   -2.8708 H   0  0  0  0  0  0  0  0  0  0  0  0
  -10.4681    6.0173   -2.8708 H   0  0  0  0  0  0  0  0  0  0  0  0
   -9.1764    6.0799    0.9230 H   0  0  0  0  0  0  0  0  0  0  0  0
  -10.9079    4.6299   -0.3172 H   0  0  0  0  0  0  0  0  0  0  0  0
  -11.1749    5.1470    1.4297 H   0  0  0  0  0  0  0  0  0  0  0  0
  -13.2771    5.2553   -0.1539 H   0  0  0  0  0  0  0  0  0  0  0  0
  -11.5022    8.8474   -0.6481 H   0  0  0  0  0  0  0  0  0  0  0  0
  -12.7043    8.9724    2.1863 H   0  0  0  0  0  0  0  0  0  0  0  0
  -11.7533   10.2754    1.3443 H   0  0  0  0  0  0  0  0  0  0  0  0
  -14.1860   10.7302    1.3243 H   0  0  0  0  0  0  0  0  0  0  0  0
  -13.4960   10.5074   -0.3308 H   0  0  0  0  0  0  0  0  0  0  0  0
  -15.5945    9.3488   -0.2081 H   0  0  0  0  0  0  0  0  0  0  0  0
  -15.5690    7.4720    1.4020 H   0  0  0  0  0  0  0  0  0  0  0  0
  -13.6378    9.3420   -1.9714 H   0  0  0  0  0  0  0  0  0  0  0  0
  -13.2671    7.6784   -2.5385 H   0  0  0  0  0  0  0  0  0  0  0  0
  -14.9630    8.2702   -2.5385 H   0  0  0  0  0  0  0  0  0  0  0  0
  -15.5475    6.3408    0.3619 H   0  0  0  0  0  0  0  0  0  0  0  0
  -16.1379    7.0231   -1.1913 H   0  0  0  0  0  0  0  0  0  0  0  0
  -14.8369    5.7846   -1.1913 H   0  0  0  0  0  0  0  0  0  0  0  0
  -10.0462    8.5605    2.9276 H   0  0  0  0  0  0  0  0  0  0  0  0
  -11.5514    7.6026    2.7187 H   0  0  0  0  0  0  0  0  0  0  0  0
   -9.9551    6.7787    2.7187 H   0  0  0  0  0  0  0  0  0  0  0  0
   -9.8029    9.9639    0.7091 H   0  0  0  0  0  0  0  0  0  0  0  0
   -8.5326    8.8007    1.3922 H   0  0  0  0  0  0  0  0  0  0  0  0
   -9.2588    9.2448   -1.5164 H   0  0  0  0  0  0  0  0  0  0  0  0
   -7.7087    9.6272   -0.6685 H   0  0  0  0  0  0  0  0  0  0  0  0
   -7.4578    7.3205    1.0899 H   0  0  0  0  0  0  0  0  0  0  0  0
   -6.7199    6.1036   -0.0062 H   0  0  0  0  0  0  0  0  0  0  0  0
   -6.1163    7.7955   -0.0062 H   0  0  0  0  0  0  0  0  0  0  0  0
  1  2  1  0
  2  3  1  0
  3  4  1  0
  4  5  1  0
  5  6  1  0
  6  7  1  0
  7  8  1  0
  7  9  1  0
  2 10  1  0
 10 11  1  0
 11 12  1  0
 12 13  1  0
 13 14  1  6
 13 15  1  0
 15 16  1  0
 16 17  1  0
 17 18  2  0
 18 19  1  0
 19 20  1  0
 20 21  1  0
 21 22  1  0
 22 23  1  0
 22 24  1  0
 24 25  1  0
 24 26  1  0
 19 27  1  0
 27 28  1  1
 27 29  1  0
 29 30  1  0
 30 31  1  0
 31 32  1  1
  7  5  1  0
 31 10  1  0
 31 13  1  0
 27 15  1  0
 24 18  1  0
  1 33  1  0
  1 34  1  0
  1 35  1  0
  2 36  1  6
  3 37  1  0
  3 38  1  0
  4 39  1  0
  4 40  1  0
  5 41  1  1
  8 42  1  0
  8 43  1  0
  8 44  1  0
  9 45  1  0
  9 46  1  0
  9 47  1  0
 10 48  1  6
 11 49  1  0
 11 50  1  0
 12 51  1  0
 12 52  1  0
 14 53  1  0
 14 54  1  0
 14 55  1  0
 15 56  1  1
 16 57  1  0
 16 58  1  0
 17 59  1  0
 19 60  1  6
 20 61  1  0
 20 62  1  0
 21 63  1  0
 21 64  1  0
 22 65  1  6
 23 66  1  0
 25 67  1  0
 25 68  1  0
 25 69  1  0
 26 70  1  0
 26 71  1  0
 26 72  1  0
 28 73  1  0
 28 74  1  0
 28 75  1  0
 29 76  1  0
 29 77  1  0
 30 78  1  0
 30 79  1  0
 32 80  1  0
 32 81  1  0
 32 82  1  0
M  END
>  <meeko>  (12) 
{"is_sidechain": [false], "intermolecular_energy": 2.731, "internal_energy": -0.839}

$$$$
EPH_relaxed_0001_pdb2pqr_Repair_384_r2_0001_out
     RDKit          3D

 82 86  0  0  0  0  0  0  0  0999 V2000
    0.9170   14.8910   -2.6500 C   0  0  0  0  0  0  0  0  0  0  0  0
    1.1760   14.2130   -3.9980 C   0  0  2  0  0  0  0  0  0  0  0  0
    0.4690   14.9410   -5.1590 C   0  0  0  0  0  0  0  0  0  0  0  0
    1.0400   14.5990   -6.5380 C   0  0  0  0  0  0  0  0  0  0  0  0
    0.8140   15.7070   -7.5220 C   0  0  2  0  0  0  0  0  0  0  0  0
    0.3990   15.2760   -8.8240 O   0  0  0  0  0  0  0  0  0  0  0  0
    1.6780   15.9250   -8.7490 C   0  0  0  0  0  0  0  0  0  0  0  0
    2.8350   15.0280   -9.0580 C   0  0  0  0  0  0  0  0  0  0  0  0
    1.7020   17.2850   -9.3750 C   0  0  0  0  0  0  0  0  0  0  0  0
    0.7240   12.7590   -3.9430 C   0  0  1  0  0  0  0  0  0  0  0  0
    1.8540   11.7670   -4.3300 C   0  0  0  0  0  0  0  0  0  0  0  0
    1.6570   10.5020   -3.4570 C   0  0  0  0  0  0  0  0  0  0  0  0
    0.2460   10.6660   -2.8450 C   0  0  1  0  0  0  0  0  0  0  0  0
   -0.7340   10.1980   -3.9660 C   0  0  0  0  0  0  0  0  0  0  0  0
   -0.0150    9.9140   -1.4990 C   0  0  2  0  0  0  0  0  0  0  0  0
    0.0880    8.3800   -1.5780 C   0  0  0  0  0  0  0  0  0  0  0  0
   -1.1860    7.6710   -1.8970 C   0  0  0  0  0  0  0  0  0  0  0  0
   -2.4180    8.2090   -1.8320 C   0  0  0  0  0  0  0  0  0  0  0  0
   -2.6280    9.6360   -1.3090 C   0  0  1  0  0  0  0  0  0  0  0  0
   -3.8050    9.6490   -0.2980 C   0  0  0  0  0  0  0  0  0  0  0  0
   -5.0810    9.0460   -0.8770 C   0  0  0  0  0  0  0  0  0  0  0  0
   -4.8470    7.6080   -1.3320 C   0  0  2  0  0  0  0  0  0  0  0  0
   -4.5850    6.7980   -0.1820 O   0  0  0  0  0  0  0  0  0  0  0  0
   -3.6780    7.4690   -2.3460 C   0  0  0  0  0  0  0  0  0  0  0  0
   -4.0880    8.0930   -3.7030 C   0  0  0  0  0  0  0  0  0  0  0  0
   -3.4560    5.9560   -2.6150 C   0  0  0  0  0  0  0  0  0  0  0  0
   -1.3330   10.3660   -0.7490 C   0  0  1  0  0  0  0  0  0  0  0  0
   -1.1320   10.0130    0.7560 C   0  0  0  0  0  0  0  0  0  0  0  0
   -1.5530   11.9240   -0.8130 C   0  0  0  0  0  0  0  0  0  0  0  0
   -1.1640   12.6270   -2.1280 C   0  0  0  0  0  0  0  0  0  0  0  0
    0.2420   12.2140   -2.5750 C   0  0  2  0  0  0  0  0  0  0  0  0
    1.2520   12.6910   -1.4770 C   0  0  0  0  0  0  0  0  0  0  0  0
    1.1808   14.2004   -1.8355 H   0  0  0  0  0  0  0  0  0  0  0  0
    1.5310   15.8004   -2.5730 H   0  0  0  0  0  0  0  0  0  0  0  0
   -0.1470   15.1594   -2.5730 H   0  0  0  0  0  0  0  0  0  0  0  0
    2.2582   14.2590   -4.1896 H   0  0  0  0  0  0  0  0  0  0  0  0
   -0.5956   14.6644   -5.1455 H   0  0  0  0  0  0  0  0  0  0  0  0
    0.6243   16.0190   -5.0049 H   0  0  0  0  0  0  0  0  0  0  0  0
    2.1215   14.4224   -6.4422 H   0  0  0  0  0  0  0  0  0  0  0  0
    0.5252   13.7005   -6.9091 H   0  0  0  0  0  0  0  0  0  0  0  0
    0.4881   16.3848   -6.7193 H   0  0  0  0  0  0  0  0  0  0  0  0
    3.2878   14.6770   -8.1190 H   0  0  0  0  0  0  0  0  0  0  0  0
    2.4836   14.1640   -9.6411 H   0  0  0  0  0  0  0  0  0  0  0  0
    3.5842   15.5836   -9.6411 H   0  0  0  0  0  0  0  0  0  0  0  0
    1.7155   18.0515   -8.5862 H   0  0  0  0  0  0  0  0  0  0  0  0
    2.6021   17.3854   -9.9993 H   0  0  0  0  0  0  0  0  0  0  0  0
    0.8060   17.4171   -9.9993 H   0  0  0  0  0  0  0  0  0  0  0  0
   -0.1186   12.8019   -4.6488 H   0  0  0  0  0  0  0  0  0  0  0  0
    1.7807   11.5066   -5.3962 H   0  0  0  0  0  0  0  0  0  0  0  0
    2.8455   12.2126   -4.1615 H   0  0  0  0  0  0  0  0  0  0  0  0
    1.7095    9.5926   -4.0736 H   0  0  0  0  0  0  0  0  0  0  0  0
    2.4363   10.4009   -2.6873 H   0  0  0  0  0  0  0  0  0  0  0  0
   -1.6364    9.7671   -3.5077 H   0  0  0  0  0  0  0  0  0  0  0  0
   -1.0152   11.0590   -4.5902 H   0  0  0  0  0  0  0  0  0  0  0  0
   -0.2411    9.4381   -4.5902 H   0  0  0  0  0  0  0  0  0  0  0  0
    0.8332   10.2395   -0.8788 H   0  0  0  0  0  0  0  0  0  0  0  0
    0.8215    8.1283   -2.3581 H   0  0  0  0  0  0  0  0  0  0  0  0
    0.3805    8.0425   -0.5727 H   0  0  0  0  0  0  0  0  0  0  0  0
   -1.1118    6.6197   -2.2119 H   0  0  0  0  0  0  0  0  0  0  0  0
   -2.8841   10.2476   -2.1867 H   0  0  0  0  0  0  0  0  0  0  0  0
   -3.5130    9.0698    0.5904 H   0  0  0  0  0  0  0  0  0  0  0  0
   -4.0166   10.6986   -0.0458 H   0  0  0  0  0  0  0  0  0  0  0  0
   -5.8660    9.0566   -0.1065 H   0  0  0  0  0  0  0  0  0  0  0  0
   -5.3884    9.6441   -1.7475 H   0  0  0  0  0  0  0  0  0  0  0  0
   -5.7561    7.2749   -1.8541 H   0  0  0  0  0  0  0  0  0  0  0  0
   -4.0300    7.3170    0.4240 H   0  0  0  0  0  0  0  0  0  0  0  0
   -4.6840    9.0001   -3.5243 H   0  0  0  0  0  0  0  0  0  0  0  0
   -3.1850    8.3542   -4.2742 H   0  0  0  0  0  0  0  0  0  0  0  0
   -4.6862    7.3678   -4.2742 H   0  0  0  0  0  0  0  0  0  0  0  0
   -3.3775    5.4209   -1.6571 H   0  0  0  0  0  0  0  0  0  0  0  0
   -4.3052    5.5572   -3.1892 H   0  0  0  0  0  0  0  0  0  0  0  0
   -2.5280    5.8180   -3.1892 H   0  0  0  0  0  0  0  0  0  0  0  0
   -1.5802   10.8001    1.3802 H   0  0  0  0  0  0  0  0  0  0  0  0
   -1.6175    9.0505    0.9749 H   0  0  0  0  0  0  0  0  0  0  0  0
   -0.0565    9.9393    0.9749 H   0  0  0  0  0  0  0  0  0  0  0  0
   -2.6214   12.1168   -0.6360 H   0  0  0  0  0  0  0  0  0  0  0  0
   -0.8771   12.3417   -0.0523 H   0  0  0  0  0  0  0  0  0  0  0  0
   -1.8860   12.3513   -2.9107 H   0  0  0  0  0  0  0  0  0  0  0  0
   -1.1739   13.7142   -1.9610 H   0  0  0  0  0  0  0  0  0  0  0  0
    0.8310   12.4922   -0.4804 H   0  0  0  0  0  0  0  0  0  0  0  0
    2.2007   12.1458   -1.5898 H   0  0  0  0  0  0  0  0  0  0  0  0
    1.4336   13.7700   -1.5898 H   0  0  0  0  0  0  0  0  0  0  0  0
  1  2  1  0
  2  3  1  0
  3  4  1  0
  4  5  1  0
  5  6  1  0
  6  7  1  0
  7  8  1  0
  7  9  1  0
  2 10  1  0
 10 11  1  0
 11 12  1  0
 12 13  1  0
 13 14  1  6
 13 15  1  0
 15 16  1  0
 16 17  1  0
 17 18  2  0
 18 19  1  0
 19 20  1  0
 20 21  1  0
 21 22  1  0
 22 23  1  0
 22 24  1  0
 24 25  1  0
 24 26  1  0
 19 27  1  0
 27 28  1  1
 27 29  1  0
 29 30  1  0
 30 31  1  0
 31 32  1  1
  7  5  1  0
 31 10  1  0
 31 13  1  0
 27 15  1  0
 24 18  1  0
  1 33  1  0
  1 34  1  0
  1 35  1  0
  2 36  1  6
  3 37  1  0
  3 38  1  0
  4 39  1  0
  4 40  1  0
  5 41  1  1
  8 42  1  0
  8 43  1  0
  8 44  1  0
  9 45  1  0
  9 46  1  0
  9 47  1  0
 10 48  1  6
 11 49  1  0
 11 50  1  0
 12 51  1  0
 12 52  1  0
 14 53  1  0
 14 54  1  0
 14 55  1  0
 15 56  1  1
 16 57  1  0
 16 58  1  0
 17 59  1  0
 19 60  1  6
 20 61  1  0
 20 62  1  0
 21 63  1  0
 21 64  1  0
 22 65  1  6
 23 66  1  0
 25 67  1  0
 25 68  1  0
 25 69  1  0
 26 70  1  0
 26 71  1  0
 26 72  1  0
 28 73  1  0
 28 74  1  0
 28 75  1  0
 29 76  1  0
 29 77  1  0
 30 78  1  0
 30 79  1  0
 32 80  1  0
 32 81  1  0
 32 82  1  0
M  END
>  <meeko>  (13) 
{"is_sidechain": [false], "intermolecular_energy": 2.731, "internal_energy": -0.839}

$$$$
EPH_relaxed_0001_pdb2pqr_Repair_384_r2_0001_out
     RDKit          3D

 82 86  0  0  0  0  0  0  0  0999 V2000
   -2.5330    7.7050   -0.1420 C   0  0  0  0  0  0  0  0  0  0  0  0
   -3.0800    9.1320   -0.0430 C   0  0  2  0  0  0  0  0  0  0  0  0
   -4.5870    9.2000   -0.3620 C   0  0  0  0  0  0  0  0  0  0  0  0
   -5.2860    7.8370   -0.3270 C   0  0  0  0  0  0  0  0  0  0  0  0
   -5.9770    7.5350   -1.6220 C   0  0  2  0  0  0  0  0  0  0  0  0
   -6.8720    8.5590   -2.0760 O   0  0  0  0  0  0  0  0  0  0  0  0
   -7.4710    7.2970   -1.7380 C   0  0  0  0  0  0  0  0  0  0  0  0
   -8.3640    7.3500   -0.5380 C   0  0  0  0  0  0  0  0  0  0  0  0
   -7.9850    6.5370   -2.9210 C   0  0  0  0  0  0  0  0  0  0  0  0
   -2.3070   10.0510   -0.9810 C   0  0  1  0  0  0  0  0  0  0  0  0
   -2.9510   11.4580   -1.1040 C   0  0  0  0  0  0  0  0  0  0  0  0
   -1.7880   12.4700   -1.2610 C   0  0  0  0  0  0  0  0  0  0  0  0
   -0.5470   11.5960   -1.5560 C   0  0  1  0  0  0  0  0  0  0  0  0
   -0.6380   11.2710   -3.0800 C   0  0  0  0  0  0  0  0  0  0  0  0
    0.8390   12.2130   -1.1790 C   0  0  2  0  0  0  0  0  0  0  0  0
    1.2080   13.5000   -1.9370 C   0  0  0  0  0  0  0  0  0  0  0  0
    1.9600   13.2980   -3.2110 C   0  0  0  0  0  0  0  0  0  0  0  0
    2.5720   12.1590   -3.5850 C   0  0  0  0  0  0  0  0  0  0  0  0
    2.6280   10.9490   -2.6430 C   0  0  1  0  0  0  0  0  0  0  0  0
    4.0710   10.3790   -2.6170 C   0  0  0  0  0  0  0  0  0  0  0  0
    4.5990   10.0580   -4.0120 C   0  0  0  0  0  0  0  0  0  0  0  0
    4.5820   11.2990   -4.9000 C   0  0  2  0  0  0  0  0  0  0  0  0
    5.5300   12.2430   -4.3920 O   0  0  0  0  0  0  0  0  0  0  0  0
    3.1810   11.9660   -4.9950 C   0  0  0  0  0  0  0  0  0  0  0  0
    2.2290   11.0620   -5.8160 C   0  0  0  0  0  0  0  0  0  0  0  0
    3.3330   13.2830   -5.8030 C   0  0  0  0  0  0  0  0  0  0  0  0
    2.0340   11.1760   -1.1870 C   0  0  1  0  0  0  0  0  0  0  0  0
    3.1350   11.7580   -0.2480 C   0  0  0  0  0  0  0  0  0  0  0  0
    1.6220    9.7840   -0.5770 C   0  0  0  0  0  0  0  0  0  0  0  0
    0.1980    9.2840   -0.8870 C   0  0  0  0  0  0  0  0  0  0  0  0
   -0.8390   10.3760   -0.6080 C   0  0  2  0  0  0  0  0  0  0  0  0
   -0.7860   10.7070    0.9220 C   0  0  0  0  0  0  0  0  0  0  0  0
   -2.3780    7.3007    0.8692 H   0  0  0  0  0  0  0  0  0  0  0  0
   -3.2527    7.0732   -0.6832 H   0  0  0  0  0  0  0  0  0  0  0  0
   -1.5754    7.7161   -0.6832 H   0  0  0  0  0  0  0  0  0  0  0  0
   -2.9477    9.4656    0.9968 H   0  0  0  0  0  0  0  0  0  0  0  0
   -5.0692    9.8567    0.3771 H   0  0  0  0  0  0  0  0  0  0  0  0
   -4.6813    9.5834   -1.3887 H   0  0  0  0  0  0  0  0  0  0  0  0
   -4.5356    7.0564   -0.1329 H   0  0  0  0  0  0  0  0  0  0  0  0
   -6.0448    7.8611    0.4690 H   0  0  0  0  0  0  0  0  0  0  0  0
   -5.1089    6.9610   -1.9783 H   0  0  0  0  0  0  0  0  0  0  0  0
   -7.7527    7.3137    0.3758 H   0  0  0  0  0  0  0  0  0  0  0  0
   -8.9446    8.2842   -0.5540 H   0  0  0  0  0  0  0  0  0  0  0  0
   -9.0510    6.4910   -0.5540 H   0  0  0  0  0  0  0  0  0  0  0  0
   -8.5700    5.6720   -2.5752 H   0  0  0  0  0  0  0  0  0  0  0  0
   -8.6253    7.1934   -3.5285 H   0  0  0  0  0  0  0  0  0  0  0  0
   -7.1374    6.1871   -3.5285 H   0  0  0  0  0  0  0  0  0  0  0  0
   -2.3371    9.4451   -1.8986 H   0  0  0  0  0  0  0  0  0  0  0  0
   -3.6091   11.4977   -1.9845 H   0  0  0  0  0  0  0  0  0  0  0  0
   -3.5611   11.6918   -0.2191 H   0  0  0  0  0  0  0  0  0  0  0  0
   -1.9839   13.1602   -2.0948 H   0  0  0  0  0  0  0  0  0  0  0  0
   -1.6548   13.0944   -0.3653 H   0  0  0  0  0  0  0  0  0  0  0  0
   -0.9324   10.2196   -3.2138 H   0  0  0  0  0  0  0  0  0  0  0  0
   -1.3877   11.9244   -3.5501 H   0  0  0  0  0  0  0  0  0  0  0  0
    0.3420   11.4400   -3.5501 H   0  0  0  0  0  0  0  0  0  0  0  0
    0.6854   12.5155   -0.1326 H   0  0  0  0  0  0  0  0  0  0  0  0
    0.2758   14.0338   -2.1738 H   0  0  0  0  0  0  0  0  0  0  0  0
    1.8814   14.0613   -1.2726 H   0  0  0  0  0  0  0  0  0  0  0  0
    2.0188   14.1518   -3.9020 H   0  0  0  0  0  0  0  0  0  0  0  0
    1.9400   10.2021   -3.0658 H   0  0  0  0  0  0  0  0  0  0  0  0
    4.7351   11.1218   -2.1510 H   0  0  0  0  0  0  0  0  0  0  0  0
    4.0486    9.4400   -2.0445 H   0  0  0  0  0  0  0  0  0  0  0  0
    5.6317    9.6881   -3.9298 H   0  0  0  0  0  0  0  0  0  0  0  0
    3.9516    9.2929   -4.4652 H   0  0  0  0  0  0  0  0  0  0  0  0
    4.8467   10.9786   -5.9185 H   0  0  0  0  0  0  0  0  0  0  0  0
    5.3680   12.3380   -3.4380 H   0  0  0  0  0  0  0  0  0  0  0  0
    1.6048   10.4693   -5.1311 H   0  0  0  0  0  0  0  0  0  0  0  0
    1.5845   11.6885   -6.4501 H   0  0  0  0  0  0  0  0  0  0  0  0
    2.8214   10.3860   -6.4501 H   0  0  0  0  0  0  0  0  0  0  0  0
    3.4308   14.1302   -5.1082 H   0  0  0  0  0  0  0  0  0  0  0  0
    4.2302   13.2230   -6.4366 H   0  0  0  0  0  0  0  0  0  0  0  0
    2.4457   13.4289   -6.4366 H   0  0  0  0  0  0  0  0  0  0  0  0
    2.8418   11.6030    0.8008 H   0  0  0  0  0  0  0  0  0  0  0  0
    4.0896   11.2467   -0.4413 H   0  0  0  0  0  0  0  0  0  0  0  0
    3.2501   12.8348   -0.4413 H   0  0  0  0  0  0  0  0  0  0  0  0
    2.3289    9.0318   -0.9570 H   0  0  0  0  0  0  0  0  0  0  0  0
    1.6452    9.9291    0.5131 H   0  0  0  0  0  0  0  0  0  0  0  0
    0.1406    8.9956   -1.9470 H   0  0  0  0  0  0  0  0  0  0  0  0
   -0.0191    8.4206   -0.2409 H   0  0  0  0  0  0  0  0  0  0  0  0
   -0.9338    9.7842    1.5021 H   0  0  0  0  0  0  0  0  0  0  0  0
    0.1933   11.1426    1.1692 H   0  0  0  0  0  0  0  0  0  0  0  0
   -1.5804   11.4266    1.1692 H   0  0  0  0  0  0  0  0  0  0  0  0
  1  2  1  0
  2  3  1  0
  3  4  1  0
  4  5  1  0
  5  6  1  0
  6  7  1  0
  7  8  1  0
  7  9  1  0
  2 10  1  0
 10 11  1  0
 11 12  1  0
 12 13  1  0
 13 14  1  6
 13 15  1  0
 15 16  1  0
 16 17  1  0
 17 18  2  0
 18 19  1  0
 19 20  1  0
 20 21  1  0
 21 22  1  0
 22 23  1  0
 22 24  1  0
 24 25  1  0
 24 26  1  0
 19 27  1  0
 27 28  1  1
 27 29  1  0
 29 30  1  0
 30 31  1  0
 31 32  1  1
  7  5  1  0
 31 10  1  0
 31 13  1  0
 27 15  1  0
 24 18  1  0
  1 33  1  0
  1 34  1  0
  1 35  1  0
  2 36  1  1
  3 37  1  0
  3 38  1  0
  4 39  1  0
  4 40  1  0
  5 41  1  6
  8 42  1  0
  8 43  1  0
  8 44  1  0
  9 45  1  0
  9 46  1  0
  9 47  1  0
 10 48  1  6
 11 49  1  0
 11 50  1  0
 12 51  1  0
 12 52  1  0
 14 53  1  0
 14 54  1  0
 14 55  1  0
 15 56  1  1
 16 57  1  0
 16 58  1  0
 17 59  1  0
 19 60  1  6
 20 61  1  0
 20 62  1  0
 21 63  1  0
 21 64  1  0
 22 65  1  6
 23 66  1  0
 25 67  1  0
 25 68  1  0
 25 69  1  0
 26 70  1  0
 26 71  1  0
 26 72  1  0
 28 73  1  0
 28 74  1  0
 28 75  1  0
 29 76  1  0
 29 77  1  0
 30 78  1  0
 30 79  1  0
 32 80  1  0
 32 81  1  0
 32 82  1  0
M  END
>  <meeko>  (14) 
{"is_sidechain": [false], "intermolecular_energy": 2.731, "internal_energy": -0.839}

$$$$
EPH_relaxed_0001_pdb2pqr_Repair_384_r2_0001_out
     RDKit          3D

 82 86  0  0  0  0  0  0  0  0999 V2000
    3.1130   14.8310   -7.5460 C   0  0  0  0  0  0  0  0  0  0  0  0
    1.5890   14.8780   -7.4030 C   0  0  2  0  0  0  0  0  0  0  0  0
    0.9810   16.1240   -8.0750 C   0  0  0  0  0  0  0  0  0  0  0  0
    1.9140   16.7970   -9.0850 C   0  0  0  0  0  0  0  0  0  0  0  0
    1.5900   16.3950  -10.4920 C   0  0  2  0  0  0  0  0  0  0  0  0
    1.0050   15.0930  -10.6240 O   0  0  0  0  0  0  0  0  0  0  0  0
    2.2970   15.2710  -11.2260 C   0  0  0  0  0  0  0  0  0  0  0  0
    3.3860   14.4780  -10.5740 C   0  0  0  0  0  0  0  0  0  0  0  0
    2.2710   15.2650  -12.7220 C   0  0  0  0  0  0  0  0  0  0  0  0
    1.2050   14.8410   -5.9280 C   0  0  1  0  0  0  0  0  0  0  0  0
   -0.0490   15.7010   -5.6160 C   0  0  0  0  0  0  0  0  0  0  0  0
   -0.8280   14.9650   -4.4960 C   0  0  0  0  0  0  0  0  0  0  0  0
    0.1580   13.8950   -3.9720 C   0  0  1  0  0  0  0  0  0  0  0  0
    1.0970   14.6630   -2.9890 C   0  0  0  0  0  0  0  0  0  0  0  0
   -0.4800   12.6380   -3.2980 C   0  0  2  0  0  0  0  0  0  0  0  0
   -1.2970   12.9230   -2.0260 C   0  0  0  0  0  0  0  0  0  0  0  0
   -0.5270   12.8700   -0.7480 C   0  0  0  0  0  0  0  0  0  0  0  0
    0.6960   12.3280   -0.5940 C   0  0  0  0  0  0  0  0  0  0  0  0
    1.3890   11.6040   -1.7550 C   0  0  1  0  0  0  0  0  0  0  0  0
    1.9740   10.2590   -1.2510 C   0  0  0  0  0  0  0  0  0  0  0  0
    2.8900   10.4350   -0.0440 C   0  0  0  0  0  0  0  0  0  0  0  0
    2.1480   11.1050    1.1100 C   0  0  2  0  0  0  0  0  0  0  0  0
    1.1350   10.2140    1.5860 O   0  0  0  0  0  0  0  0  0  0  0  0
    1.5070   12.4660    0.7180 C   0  0  0  0  0  0  0  0  0  0  0  0
    2.6200   13.5200    0.4930 C   0  0  0  0  0  0  0  0  0  0  0  0
    0.6730   12.9660    1.9280 C   0  0  0  0  0  0  0  0  0  0  0  0
    0.5270   11.4370   -3.0800 C   0  0  1  0  0  0  0  0  0  0  0  0
   -0.3360   10.1410   -2.9940 C   0  0  0  0  0  0  0  0  0  0  0  0
    1.4990   11.2420   -4.3040 C   0  0  0  0  0  0  0  0  0  0  0  0
    2.0010   12.5200   -5.0030 C   0  0  0  0  0  0  0  0  0  0  0  0
    0.8370   13.4630   -5.3230 C   0  0  2  0  0  0  0  0  0  0  0  0
   -0.1130   12.7270   -6.3280 C   0  0  0  0  0  0  0  0  0  0  0  0
    3.5747   14.8168   -6.5477 H   0  0  0  0  0  0  0  0  0  0  0  0
    3.4018   13.9235   -8.0965 H   0  0  0  0  0  0  0  0  0  0  0  0
    3.4572   15.7190   -8.0965 H   0  0  0  0  0  0  0  0  0  0  0  0
    1.1805   13.9949   -7.9161 H   0  0  0  0  0  0  0  0  0  0  0  0
    0.0621   15.8222   -8.5990 H   0  0  0  0  0  0  0  0  0  0  0  0
    0.7888   16.8570   -7.2777 H   0  0  0  0  0  0  0  0  0  0  0  0
    1.8110   17.8883   -8.9933 H   0  0  0  0  0  0  0  0  0  0  0  0
    2.9438   16.4785   -8.8658 H   0  0  0  0  0  0  0  0  0  0  0  0
    1.3826   17.4398  -10.7666 H   0  0  0  0  0  0  0  0  0  0  0  0
    3.2876   14.5497   -9.4808 H   0  0  0  0  0  0  0  0  0  0  0  0
    3.3067   13.4247  -10.8810 H   0  0  0  0  0  0  0  0  0  0  0  0
    4.3641   14.8768  -10.8810 H   0  0  0  0  0  0  0  0  0  0  0  0
    1.2543   15.0304  -13.0701 H   0  0  0  0  0  0  0  0  0  0  0  0
    2.5679   16.2553  -13.0979 H   0  0  0  0  0  0  0  0  0  0  0  0
    2.9718   14.5050  -13.0979 H   0  0  0  0  0  0  0  0  0  0  0  0
    2.1420   15.2084   -5.4841 H   0  0  0  0  0  0  0  0  0  0  0  0
    0.2534   16.7013   -5.2727 H   0  0  0  0  0  0  0  0  0  0  0  0
   -0.6731   15.8295   -6.5126 H   0  0  0  0  0  0  0  0  0  0  0  0
   -1.1056   15.6635   -3.6929 H   0  0  0  0  0  0  0  0  0  0  0  0
   -1.7665   14.5232   -4.8622 H   0  0  0  0  0  0  0  0  0  0  0  0
    0.8121   14.4300   -1.9524 H   0  0  0  0  0  0  0  0  0  0  0  0
    2.1388   14.3548   -3.1610 H   0  0  0  0  0  0  0  0  0  0  0  0
    1.0016   15.7453   -3.1610 H   0  0  0  0  0  0  0  0  0  0  0  0
   -1.2086   12.3107   -4.0544 H   0  0  0  0  0  0  0  0  0  0  0  0
   -1.7315   13.9292   -2.1195 H   0  0  0  0  0  0  0  0  0  0  0  0
   -2.0488   12.1226   -1.9616 H   0  0  0  0  0  0  0  0  0  0  0  0
   -0.9984   13.3108    0.1428 H   0  0  0  0  0  0  0  0  0  0  0  0
    2.2045   12.2652   -2.0833 H   0  0  0  0  0  0  0  0  0  0  0  0
    1.1424    9.5965   -0.9689 H   0  0  0  0  0  0  0  0  0  0  0  0
    2.5749    9.8299   -2.0663 H   0  0  0  0  0  0  0  0  0  0  0  0
    3.2484    9.4478    0.2831 H   0  0  0  0  0  0  0  0  0  0  0  0
    3.7366   11.0739   -0.3355 H   0  0  0  0  0  0  0  0  0  0  0  0
    2.8865   11.3217    1.8960 H   0  0  0  0  0  0  0  0  0  0  0  0
    1.1890    9.3990    1.0590 H   0  0  0  0  0  0  0  0  0  0  0  0
    2.9928   13.8730    1.4658 H   0  0  0  0  0  0  0  0  0  0  0  0
    3.4463   13.0655   -0.0733 H   0  0  0  0  0  0  0  0  0  0  0  0
    2.2112   14.3698   -0.0733 H   0  0  0  0  0  0  0  0  0  0  0  0
    1.1693   12.6684    2.8635 H   0  0  0  0  0  0  0  0  0  0  0  0
    0.5912   14.0623    1.8890 H   0  0  0  0  0  0  0  0  0  0  0  0
   -0.3325   12.5216    1.8890 H   0  0  0  0  0  0  0  0  0  0  0  0
   -0.5072    9.8839   -1.9383 H   0  0  0  0  0  0  0  0  0  0  0  0
   -1.3023   10.3103   -3.4915 H   0  0  0  0  0  0  0  0  0  0  0  0
    0.1928    9.3147   -3.4915 H   0  0  0  0  0  0  0  0  0  0  0  0
    2.3806   10.6912   -3.9443 H   0  0  0  0  0  0  0  0  0  0  0  0
    0.9035   10.7137   -5.0631 H   0  0  0  0  0  0  0  0  0  0  0  0
    2.7114   13.0369   -4.3410 H   0  0  0  0  0  0  0  0  0  0  0  0
    2.4909   12.2349   -5.9457 H   0  0  0  0  0  0  0  0  0  0  0  0
   -0.8613   12.1473   -5.7677 H   0  0  0  0  0  0  0  0  0  0  0  0
   -0.6224   13.4685   -6.9610 H   0  0  0  0  0  0  0  0  0  0  0  0
    0.4777   12.0485   -6.9610 H   0  0  0  0  0  0  0  0  0  0  0  0
  1  2  1  0
  2  3  1  0
  3  4  1  0
  4  5  1  0
  5  6  1  0
  6  7  1  0
  7  8  1  0
  7  9  1  0
  2 10  1  0
 10 11  1  0
 11 12  1  0
 12 13  1  0
 13 14  1  1
 13 15  1  0
 15 16  1  0
 16 17  1  0
 17 18  2  0
 18 19  1  0
 19 20  1  0
 20 21  1  0
 21 22  1  0
 22 23  1  0
 22 24  1  0
 24 25  1  0
 24 26  1  0
 19 27  1  0
 27 28  1  1
 27 29  1  0
 29 30  1  0
 30 31  1  0
 31 32  1  6
  7  5  1  0
 31 10  1  0
 31 13  1  0
 27 15  1  0
 24 18  1  0
  1 33  1  0
  1 34  1  0
  1 35  1  0
  2 36  1  6
  3 37  1  0
  3 38  1  0
  4 39  1  0
  4 40  1  0
  5 41  1  6
  8 42  1  0
  8 43  1  0
  8 44  1  0
  9 45  1  0
  9 46  1  0
  9 47  1  0
 10 48  1  1
 11 49  1  0
 11 50  1  0
 12 51  1  0
 12 52  1  0
 14 53  1  0
 14 54  1  0
 14 55  1  0
 15 56  1  6
 16 57  1  0
 16 58  1  0
 17 59  1  0
 19 60  1  6
 20 61  1  0
 20 62  1  0
 21 63  1  0
 21 64  1  0
 22 65  1  1
 23 66  1  0
 25 67  1  0
 25 68  1  0
 25 69  1  0
 26 70  1  0
 26 71  1  0
 26 72  1  0
 28 73  1  0
 28 74  1  0
 28 75  1  0
 29 76  1  0
 29 77  1  0
 30 78  1  0
 30 79  1  0
 32 80  1  0
 32 81  1  0
 32 82  1  0
M  END
>  <meeko>  (15) 
{"is_sidechain": [false], "intermolecular_energy": 2.731, "internal_energy": -0.839}

$$$$
EPH_relaxed_0001_pdb2pqr_Repair_384_r2_0001_out
     RDKit          3D

 82 86  0  0  0  0  0  0  0  0999 V2000
    3.1630   18.2220   -3.5010 C   0  0  0  0  0  0  0  0  0  0  0  0
    1.9720   17.8600   -2.6090 C   0  0  2  0  0  0  0  0  0  0  0  0
    1.7100   18.9290   -1.5290 C   0  0  0  0  0  0  0  0  0  0  0  0
    1.5270   18.3520   -0.1230 C   0  0  0  0  0  0  0  0  0  0  0  0
    1.9820   19.3120    0.9340 C   0  0  2  0  0  0  0  0  0  0  0  0
    3.0370   20.1940    0.5280 O   0  0  0  0  0  0  0  0  0  0  0  0
    3.3560   19.2620    1.5750 C   0  0  0  0  0  0  0  0  0  0  0  0
    4.3630   18.2270    1.1820 C   0  0  0  0  0  0  0  0  0  0  0  0
    3.5440   19.9030    2.9150 C   0  0  0  0  0  0  0  0  0  0  0  0
    2.2060   16.5040   -1.9540 C   0  0  1  0  0  0  0  0  0  0  0  0
    2.8180   16.6250   -0.5330 C   0  0  0  0  0  0  0  0  0  0  0  0
    2.2200   15.4720    0.3120 C   0  0  0  0  0  0  0  0  0  0  0  0
    1.5500   14.5370   -0.7230 C   0  0  1  0  0  0  0  0  0  0  0  0
    2.7170   13.6770   -1.3010 C   0  0  0  0  0  0  0  0  0  0  0  0
    0.3820   13.6430   -0.1930 C   0  0  2  0  0  0  0  0  0  0  0  0
    0.7770   12.6310    0.8960 C   0  0  0  0  0  0  0  0  0  0  0  0
    1.2020   11.2900    0.3960 C   0  0  0  0  0  0  0  0  0  0  0  0
    0.9950   10.8170   -0.8470 C   0  0  0  0  0  0  0  0  0  0  0  0
    0.1850   11.6230   -1.8710 C   0  0  1  0  0  0  0  0  0  0  0  0
   -0.8380   10.6900   -2.5710 C   0  0  0  0  0  0  0  0  0  0  0  0
   -0.1820    9.4570   -3.1850 C   0  0  0  0  0  0  0  0  0  0  0  0
    0.5660    8.6520   -2.1260 C   0  0  2  0  0  0  0  0  0  0  0  0
   -0.3850    8.1020   -1.2090 O   0  0  0  0  0  0  0  0  0  0  0  0
    1.6180    9.4910   -1.3470 C   0  0  0  0  0  0  0  0  0  0  0  0
    2.8050    9.8320   -2.2810 C   0  0  0  0  0  0  0  0  0  0  0  0
    2.1980    8.5990   -0.2170 C   0  0  0  0  0  0  0  0  0  0  0  0
   -0.4800   12.9610   -1.3310 C   0  0  1  0  0  0  0  0  0  0  0  0
   -1.8740   12.6490   -0.7070 C   0  0  0  0  0  0  0  0  0  0  0  0
   -0.7440   13.9300   -2.5440 C   0  0  0  0  0  0  0  0  0  0  0  0
    0.4080   14.8720   -2.9430 C   0  0  0  0  0  0  0  0  0  0  0  0
    0.9670   15.6040   -1.7190 C   0  0  2  0  0  0  0  0  0  0  0  0
   -0.1790   16.4950   -1.1300 C   0  0  0  0  0  0  0  0  0  0  0  0
    4.0261   18.4843   -2.8716 H   0  0  0  0  0  0  0  0  0  0  0  0
    3.4204   17.3615   -4.1361 H   0  0  0  0  0  0  0  0  0  0  0  0
    2.8980   19.0802   -4.1361 H   0  0  0  0  0  0  0  0  0  0  0  0
    1.0799   17.8133   -3.2508 H   0  0  0  0  0  0  0  0  0  0  0  0
    2.5644   19.6216   -1.5116 H   0  0  0  0  0  0  0  0  0  0  0  0
    0.7681   19.4307   -1.7955 H   0  0  0  0  0  0  0  0  0  0  0  0
    0.4617   18.1274    0.0342 H   0  0  0  0  0  0  0  0  0  0  0  0
    2.1380   17.4407   -0.0443 H   0  0  0  0  0  0  0  0  0  0  0  0
    0.9697   19.3562    1.3622 H   0  0  0  0  0  0  0  0  0  0  0  0
    4.7996   17.7782    2.0864 H   0  0  0  0  0  0  0  0  0  0  0  0
    3.8710   17.4447    0.5854 H   0  0  0  0  0  0  0  0  0  0  0  0
    5.1585   18.6973    0.5854 H   0  0  0  0  0  0  0  0  0  0  0  0
    3.3288   19.1693    3.7058 H   0  0  0  0  0  0  0  0  0  0  0  0
    4.5825   20.2525    3.0118 H   0  0  0  0  0  0  0  0  0  0  0  0
    2.8588   20.7581    3.0118 H   0  0  0  0  0  0  0  0  0  0  0  0
    2.8657   16.0474   -2.7065 H   0  0  0  0  0  0  0  0  0  0  0  0
    3.9127   16.5296   -0.5828 H   0  0  0  0  0  0  0  0  0  0  0  0
    2.5867   17.6030   -0.0857 H   0  0  0  0  0  0  0  0  0  0  0  0
    3.0122   14.9407    0.8599 H   0  0  0  0  0  0  0  0  0  0  0  0
    1.5088   15.8346    1.0687 H   0  0  0  0  0  0  0  0  0  0  0  0
    3.3004   13.2471   -0.4735 H   0  0  0  0  0  0  0  0  0  0  0  0
    2.3038   12.8659   -1.9185 H   0  0  0  0  0  0  0  0  0  0  0  0
    3.3694   14.3119   -1.9185 H   0  0  0  0  0  0  0  0  0  0  0  0
   -0.2694   14.3769    0.3041 H   0  0  0  0  0  0  0  0  0  0  0  0
    1.6109   13.0591    1.4716 H   0  0  0  0  0  0  0  0  0  0  0  0
   -0.1294   12.4593    1.4952 H   0  0  0  0  0  0  0  0  0  0  0  0
    1.7290   10.6328    1.1034 H   0  0  0  0  0  0  0  0  0  0  0  0
    0.9120   11.9990   -2.6059 H   0  0  0  0  0  0  0  0  0  0  0  0
   -1.5806   10.3615   -1.8290 H   0  0  0  0  0  0  0  0  0  0  0  0
   -1.3055   11.2604   -3.3872 H   0  0  0  0  0  0  0  0  0  0  0  0
   -0.9593    8.8230   -3.6365 H   0  0  0  0  0  0  0  0  0  0  0  0
    0.5379    9.7862   -3.9488 H   0  0  0  0  0  0  0  0  0  0  0  0
    1.1218    7.8583   -2.6467 H   0  0  0  0  0  0  0  0  0  0  0  0
   -0.6080    8.7960   -0.5650 H   0  0  0  0  0  0  0  0  0  0  0  0
    3.6873   10.0855   -1.6750 H   0  0  0  0  0  0  0  0  0  0  0  0
    3.0334    8.9632   -2.9158 H   0  0  0  0  0  0  0  0  0  0  0  0
    2.5375   10.6896   -2.9158 H   0  0  0  0  0  0  0  0  0  0  0  0
    1.9234    9.0213    0.7609 H   0  0  0  0  0  0  0  0  0  0  0  0
    1.7879    7.5822   -0.3055 H   0  0  0  0  0  0  0  0  0  0  0  0
    3.2938    8.5614   -0.3055 H   0  0  0  0  0  0  0  0  0  0  0  0
   -1.7968   12.6663    0.3901 H   0  0  0  0  0  0  0  0  0  0  0  0
   -2.6006   13.4067   -1.0354 H   0  0  0  0  0  0  0  0  0  0  0  0
   -2.2083   11.6538   -1.0354 H   0  0  0  0  0  0  0  0  0  0  0  0
   -0.9850   13.3093   -3.4196 H   0  0  0  0  0  0  0  0  0  0  0  0
   -1.5565   14.5930   -2.2117 H   0  0  0  0  0  0  0  0  0  0  0  0
    1.2116   14.2812   -3.4070 H   0  0  0  0  0  0  0  0  0  0  0  0
    0.0207   15.6189   -3.6516 H   0  0  0  0  0  0  0  0  0  0  0  0
   -0.1394   16.4642   -0.0311 H   0  0  0  0  0  0  0  0  0  0  0  0
   -0.0499   17.5323   -1.4726 H   0  0  0  0  0  0  0  0  0  0  0  0
   -1.1524   16.1142   -1.4726 H   0  0  0  0  0  0  0  0  0  0  0  0
  1  2  1  0
  2  3  1  0
  3  4  1  0
  4  5  1  0
  5  6  1  0
  6  7  1  0
  7  8  1  0
  7  9  1  0
  2 10  1  0
 10 11  1  0
 11 12  1  0
 12 13  1  0
 13 14  1  6
 13 15  1  0
 15 16  1  0
 16 17  1  0
 17 18  2  0
 18 19  1  0
 19 20  1  0
 20 21  1  0
 21 22  1  0
 22 23  1  0
 22 24  1  0
 24 25  1  0
 24 26  1  0
 19 27  1  0
 27 28  1  1
 27 29  1  0
 29 30  1  0
 30 31  1  0
 31 32  1  1
  7  5  1  0
 31 10  1  0
 31 13  1  0
 27 15  1  0
 24 18  1  0
  1 33  1  0
  1 34  1  0
  1 35  1  0
  2 36  1  6
  3 37  1  0
  3 38  1  0
  4 39  1  0
  4 40  1  0
  5 41  1  1
  8 42  1  0
  8 43  1  0
  8 44  1  0
  9 45  1  0
  9 46  1  0
  9 47  1  0
 10 48  1  6
 11 49  1  0
 11 50  1  0
 12 51  1  0
 12 52  1  0
 14 53  1  0
 14 54  1  0
 14 55  1  0
 15 56  1  1
 16 57  1  0
 16 58  1  0
 17 59  1  0
 19 60  1  6
 20 61  1  0
 20 62  1  0
 21 63  1  0
 21 64  1  0
 22 65  1  6
 23 66  1  0
 25 67  1  0
 25 68  1  0
 25 69  1  0
 26 70  1  0
 26 71  1  0
 26 72  1  0
 28 73  1  0
 28 74  1  0
 28 75  1  0
 29 76  1  0
 29 77  1  0
 30 78  1  0
 30 79  1  0
 32 80  1  0
 32 81  1  0
 32 82  1  0
M  END
>  <meeko>  (16) 
{"is_sidechain": [false], "intermolecular_energy": 2.731, "internal_energy": -0.839}

$$$$
EPH_relaxed_0001_pdb2pqr_Repair_384_r2_0001_out
     RDKit          3D

 82 86  0  0  0  0  0  0  0  0999 V2000
   -2.0490   14.3620    0.1960 C   0  0  0  0  0  0  0  0  0  0  0  0
   -0.7160   15.0550    0.4900 C   0  0  2  0  0  0  0  0  0  0  0  0
   -0.5560   16.3670   -0.3040 C   0  0  0  0  0  0  0  0  0  0  0  0
    0.8980   16.7120   -0.6360 C   0  0  0  0  0  0  0  0  0  0  0  0
    1.1470   18.1880   -0.5710 C   0  0  2  0  0  0  0  0  0  0  0  0
    1.9390   18.7100   -1.6460 O   0  0  0  0  0  0  0  0  0  0  0  0
    2.5160   18.7960   -0.3340 C   0  0  0  0  0  0  0  0  0  0  0  0
    3.7290   17.9390   -0.1440 C   0  0  0  0  0  0  0  0  0  0  0  0
    2.5960   20.1930    0.1990 C   0  0  0  0  0  0  0  0  0  0  0  0
    0.4400   14.1130    0.1780 C   0  0  1  0  0  0  0  0  0  0  0  0
    0.6720   13.0600    1.2950 C   0  0  0  0  0  0  0  0  0  0  0  0
    1.1300   11.7560    0.5930 C   0  0  0  0  0  0  0  0  0  0  0  0
    1.4650   12.1890   -0.8540 C   0  0  1  0  0  0  0  0  0  0  0  0
    2.9000   12.7950   -0.7690 C   0  0  0  0  0  0  0  0  0  0  0  0
    1.3730   11.0750   -1.9470 C   0  0  2  0  0  0  0  0  0  0  0  0
    2.3490    9.8990   -1.7650 C   0  0  0  0  0  0  0  0  0  0  0  0
    3.6710   10.0580   -2.4390 C   0  0  0  0  0  0  0  0  0  0  0  0
    3.9600   10.9650   -3.3910 C   0  0  0  0  0  0  0  0  0  0  0  0
    2.8730   11.8900   -3.9540 C   0  0  1  0  0  0  0  0  0  0  0  0
    2.9640   11.9130   -5.5020 C   0  0  0  0  0  0  0  0  0  0  0  0
    4.3580   12.2800   -6.0010 C   0  0  0  0  0  0  0  0  0  0  0  0
    5.4030   11.3040   -5.4680 C   0  0  2  0  0  0  0  0  0  0  0  0
    5.1680   10.0160   -6.0460 O   0  0  0  0  0  0  0  0  0  0  0  0
    5.3990   11.1890   -3.9180 C   0  0  0  0  0  0  0  0  0  0  0  0
    5.9450   12.4990   -3.2970 C   0  0  0  0  0  0  0  0  0  0  0  0
    6.3990   10.0700   -3.5190 C   0  0  0  0  0  0  0  0  0  0  0  0
    1.3960   11.6200   -3.4320 C   0  0  1  0  0  0  0  0  0  0  0  0
    0.7100   10.5350   -4.3170 C   0  0  0  0  0  0  0  0  0  0  0  0
    0.5440   12.9340   -3.6010 C   0  0  0  0  0  0  0  0  0  0  0  0
    0.5820   13.9410   -2.4350 C   0  0  0  0  0  0  0  0  0  0  0  0
    0.3220   13.2410   -1.0980 C   0  0  2  0  0  0  0  0  0  0  0  0
   -1.1240   12.6390   -1.1450 C   0  0  0  0  0  0  0  0  0  0  0  0
   -2.5450   14.1041    1.1434 H   0  0  0  0  0  0  0  0  0  0  0  0
   -2.6942   15.0388   -0.3833 H   0  0  0  0  0  0  0  0  0  0  0  0
   -1.8656   13.4451   -0.3833 H   0  0  0  0  0  0  0  0  0  0  0  0
   -0.7064   15.3131    1.5593 H   0  0  0  0  0  0  0  0  0  0  0  0
   -1.1145   16.2726   -1.2469 H   0  0  0  0  0  0  0  0  0  0  0  0
   -0.9412   17.1771    0.3327 H   0  0  0  0  0  0  0  0  0  0  0  0
    1.5576   16.2073    0.0853 H   0  0  0  0  0  0  0  0  0  0  0  0
    1.1042   16.3747   -1.6625 H   0  0  0  0  0  0  0  0  0  0  0  0
    0.1722   18.3545   -0.0893 H   0  0  0  0  0  0  0  0  0  0  0  0
    3.9186   17.8051    0.9312 H   0  0  0  0  0  0  0  0  0  0  0  0
    3.5615   16.9576   -0.6118 H   0  0  0  0  0  0  0  0  0  0  0  0
    4.5980   18.4247   -0.6118 H   0  0  0  0  0  0  0  0  0  0  0  0
    2.5945   20.1665    1.2987 H   0  0  0  0  0  0  0  0  0  0  0  0
    3.5228   20.6680   -0.1551 H   0  0  0  0  0  0  0  0  0  0  0  0
    1.7295   20.7707   -0.1551 H   0  0  0  0  0  0  0  0  0  0  0  0
    1.2495   14.8482    0.0587 H   0  0  0  0  0  0  0  0  0  0  0  0
    1.4502   13.4097    1.9894 H   0  0  0  0  0  0  0  0  0  0  0  0
   -0.2463   12.8933    1.8772 H   0  0  0  0  0  0  0  0  0  0  0  0
    2.0188   11.3393    1.0893 H   0  0  0  0  0  0  0  0  0  0  0  0
    0.3595   10.9716    0.6260 H   0  0  0  0  0  0  0  0  0  0  0  0
    3.1852   12.9154    0.2865 H   0  0  0  0  0  0  0  0  0  0  0  0
    3.6127   12.1210   -1.2668 H   0  0  0  0  0  0  0  0  0  0  0  0
    2.9139   13.7758   -1.2668 H   0  0  0  0  0  0  0  0  0  0  0  0
    0.3692   10.6594   -1.7749 H   0  0  0  0  0  0  0  0  0  0  0  0
    2.5299    9.7710   -0.6876 H   0  0  0  0  0  0  0  0  0  0  0  0
    1.8691    9.0292   -2.2373 H   0  0  0  0  0  0  0  0  0  0  0  0
    4.4778    9.3762   -2.1319 H   0  0  0  0  0  0  0  0  0  0  0  0
    3.0872   12.8919   -3.5536 H   0  0  0  0  0  0  0  0  0  0  0  0
    2.7037   10.9154   -5.8853 H   0  0  0  0  0  0  0  0  0  0  0  0
    2.2662   12.6815   -5.8659 H   0  0  0  0  0  0  0  0  0  0  0  0
    4.3659   12.2507   -7.1006 H   0  0  0  0  0  0  0  0  0  0  0  0
    4.6050   13.2897   -5.6411 H   0  0  0  0  0  0  0  0  0  0  0  0
    6.3923   11.6924   -5.7516 H   0  0  0  0  0  0  0  0  0  0  0  0
    4.6200   10.1450   -6.8380 H   0  0  0  0  0  0  0  0  0  0  0  0
    5.9143   12.4253   -2.1999 H   0  0  0  0  0  0  0  0  0  0  0  0
    6.9832   12.6554   -3.6251 H   0  0  0  0  0  0  0  0  0  0  0  0
    5.3252   13.3465   -3.6251 H   0  0  0  0  0  0  0  0  0  0  0  0
    6.4576   10.0045   -2.4225 H   0  0  0  0  0  0  0  0  0  0  0  0
    6.0542    9.1080   -3.9259 H   0  0  0  0  0  0  0  0  0  0  0  0
    7.3936   10.3049   -3.9259 H   0  0  0  0  0  0  0  0  0  0  0  0
    0.2341    9.7823   -3.6713 H   0  0  0  0  0  0  0  0  0  0  0  0
   -0.0532   11.0086   -4.9520 H   0  0  0  0  0  0  0  0  0  0  0  0
    1.4651   10.0486   -4.9520 H   0  0  0  0  0  0  0  0  0  0  0  0
    0.9069   13.4526   -4.5007 H   0  0  0  0  0  0  0  0  0  0  0  0
   -0.5010   12.5948   -3.6547 H   0  0  0  0  0  0  0  0  0  0  0  0
    1.5722   14.4190   -2.4044 H   0  0  0  0  0  0  0  0  0  0  0  0
   -0.2039   14.6937   -2.5957 H   0  0  0  0  0  0  0  0  0  0  0  0
   -1.4911   12.4862   -0.1194 H   0  0  0  0  0  0  0  0  0  0  0  0
   -1.7932   13.3333   -1.6743 H   0  0  0  0  0  0  0  0  0  0  0  0
   -1.1028   11.6750   -1.6743 H   0  0  0  0  0  0  0  0  0  0  0  0
  1  2  1  0
  2  3  1  0
  3  4  1  0
  4  5  1  0
  5  6  1  0
  6  7  1  0
  7  8  1  0
  7  9  1  0
  2 10  1  0
 10 11  1  0
 11 12  1  0
 12 13  1  0
 13 14  1  1
 13 15  1  0
 15 16  1  0
 16 17  1  0
 17 18  2  0
 18 19  1  0
 19 20  1  0
 20 21  1  0
 21 22  1  0
 22 23  1  0
 22 24  1  0
 24 25  1  0
 24 26  1  0
 19 27  1  0
 27 28  1  6
 27 29  1  0
 29 30  1  0
 30 31  1  0
 31 32  1  6
  7  5  1  0
 31 10  1  0
 31 13  1  0
 27 15  1  0
 24 18  1  0
  1 33  1  0
  1 34  1  0
  1 35  1  0
  2 36  1  1
  3 37  1  0
  3 38  1  0
  4 39  1  0
  4 40  1  0
  5 41  1  1
  8 42  1  0
  8 43  1  0
  8 44  1  0
  9 45  1  0
  9 46  1  0
  9 47  1  0
 10 48  1  6
 11 49  1  0
 11 50  1  0
 12 51  1  0
 12 52  1  0
 14 53  1  0
 14 54  1  0
 14 55  1  0
 15 56  1  1
 16 57  1  0
 16 58  1  0
 17 59  1  0
 19 60  1  1
 20 61  1  0
 20 62  1  0
 21 63  1  0
 21 64  1  0
 22 65  1  6
 23 66  1  0
 25 67  1  0
 25 68  1  0
 25 69  1  0
 26 70  1  0
 26 71  1  0
 26 72  1  0
 28 73  1  0
 28 74  1  0
 28 75  1  0
 29 76  1  0
 29 77  1  0
 30 78  1  0
 30 79  1  0
 32 80  1  0
 32 81  1  0
 32 82  1  0
M  END
>  <meeko>  (17) 
{"is_sidechain": [false], "intermolecular_energy": 2.731, "internal_energy": -0.839}

$$$$
EPH_relaxed_0001_pdb2pqr_Repair_384_r2_0001_out
     RDKit          3D

 82 86  0  0  0  0  0  0  0  0999 V2000
    0.8550   14.7230   -4.7890 C   0  0  0  0  0  0  0  0  0  0  0  0
    0.5840   14.1770   -3.3850 C   0  0  2  0  0  0  0  0  0  0  0  0
    1.7910   14.3700   -2.4440 C   0  0  0  0  0  0  0  0  0  0  0  0
    1.5490   15.3980   -1.3360 C   0  0  0  0  0  0  0  0  0  0  0  0
    1.1530   16.7320   -1.8940 C   0  0  2  0  0  0  0  0  0  0  0  0
    2.0680   17.2730   -2.8560 O   0  0  0  0  0  0  0  0  0  0  0  0
    1.9250   18.0110   -1.6310 C   0  0  0  0  0  0  0  0  0  0  0  0
    3.1560   18.0190   -0.7790 C   0  0  0  0  0  0  0  0  0  0  0  0
    1.2180   19.3200   -1.7950 C   0  0  0  0  0  0  0  0  0  0  0  0
    0.2160   12.7000   -3.4640 C   0  0  1  0  0  0  0  0  0  0  0  0
    1.4370   11.7970   -3.7860 C   0  0  0  0  0  0  0  0  0  0  0  0
    1.2260   10.4680   -3.0150 C   0  0  0  0  0  0  0  0  0  0  0  0
   -0.2470   10.5180   -2.5470 C   0  0  1  0  0  0  0  0  0  0  0  0
   -1.0780   10.0730   -3.7910 C   0  0  0  0  0  0  0  0  0  0  0  0
   -0.6000    9.6680   -1.2830 C   0  0  2  0  0  0  0  0  0  0  0  0
   -0.3980    8.1510   -1.4400 C   0  0  0  0  0  0  0  0  0  0  0  0
   -1.5890    7.3970   -1.9340 C   0  0  0  0  0  0  0  0  0  0  0  0
   -2.8510    7.8640   -1.9680 C   0  0  0  0  0  0  0  0  0  0  0  0
   -3.1970    9.2410   -1.3880 C   0  0  1  0  0  0  0  0  0  0  0  0
   -4.4700    9.1270   -0.5070 C   0  0  0  0  0  0  0  0  0  0  0  0
   -5.6420    8.4960   -1.2520 C   0  0  0  0  0  0  0  0  0  0  0  0
   -5.2780    7.1050   -1.7640 C   0  0  2  0  0  0  0  0  0  0  0  0
   -5.0880    6.2370   -0.6420 O   0  0  0  0  0  0  0  0  0  0  0  0
   -4.0050    7.0930   -2.6550 C   0  0  0  0  0  0  0  0  0  0  0  0
   -4.3110    7.7820   -4.0090 C   0  0  0  0  0  0  0  0  0  0  0  0
   -3.6680    5.6140   -2.9870 C   0  0  0  0  0  0  0  0  0  0  0  0
   -2.0120   10.0010   -0.6510 C   0  0  1  0  0  0  0  0  0  0  0  0
   -1.9450    9.5620    0.8440 C   0  0  0  0  0  0  0  0  0  0  0  0
   -2.3160   11.5460   -0.6470 C   0  0  0  0  0  0  0  0  0  0  0  0
   -1.8360   12.3520   -1.8690 C   0  0  0  0  0  0  0  0  0  0  0  0
   -0.3700   12.0440   -2.1890 C   0  0  2  0  0  0  0  0  0  0  0  0
    0.4930   12.5010   -0.9640 C   0  0  0  0  0  0  0  0  0  0  0  0
    1.3429   15.7059   -4.7123 H   0  0  0  0  0  0  0  0  0  0  0  0
    1.5130   14.0284   -5.3318 H   0  0  0  0  0  0  0  0  0  0  0  0
   -0.0960   14.8270   -5.3318 H   0  0  0  0  0  0  0  0  0  0  0  0
   -0.2571   14.7477   -2.9644 H   0  0  0  0  0  0  0  0  0  0  0  0
    2.0241   13.4026   -1.9753 H   0  0  0  0  0  0  0  0  0  0  0  0
    2.6206   14.7492   -3.0588 H   0  0  0  0  0  0  0  0  0  0  0  0
    0.7447   15.0328   -0.6804 H   0  0  0  0  0  0  0  0  0  0  0  0
    2.4870   15.5255   -0.7757 H   0  0  0  0  0  0  0  0  0  0  0  0
    0.0860   16.4819   -1.7992 H   0  0  0  0  0  0  0  0  0  0  0  0
    2.8673   18.0171    0.2824 H   0  0  0  0  0  0  0  0  0  0  0  0
    3.7584   17.1247   -0.9967 H   0  0  0  0  0  0  0  0  0  0  0  0
    3.7468   18.9210   -0.9967 H   0  0  0  0  0  0  0  0  0  0  0  0
    0.9908   19.7407   -0.8043 H   0  0  0  0  0  0  0  0  0  0  0  0
    1.8620   20.0175   -2.3506 H   0  0  0  0  0  0  0  0  0  0  0  0
    0.2816   19.1639   -2.3506 H   0  0  0  0  0  0  0  0  0  0  0  0
   -0.5506   12.7427   -4.2517 H   0  0  0  0  0  0  0  0  0  0  0  0
    1.4902   11.6032   -4.8675 H   0  0  0  0  0  0  0  0  0  0  0  0
    2.3774   12.2826   -3.4863 H   0  0  0  0  0  0  0  0  0  0  0  0
    1.3944    9.6048   -3.6757 H   0  0  0  0  0  0  0  0  0  0  0  0
    1.9271   10.3575   -2.1746 H   0  0  0  0  0  0  0  0  0  0  0  0
   -2.0019    9.5783   -3.4569 H   0  0  0  0  0  0  0  0  0  0  0  0
   -1.3329   10.9553   -4.3964 H   0  0  0  0  0  0  0  0  0  0  0  0
   -0.4849    9.3718   -4.3964 H   0  0  0  0  0  0  0  0  0  0  0  0
    0.1591    9.9971   -0.5581 H   0  0  0  0  0  0  0  0  0  0  0  0
    0.4256    7.9895   -2.1511 H   0  0  0  0  0  0  0  0  0  0  0  0
   -0.1905    7.7654   -0.4309 H   0  0  0  0  0  0  0  0  0  0  0  0
   -1.4206    6.3738   -2.3010 H   0  0  0  0  0  0  0  0  0  0  0  0
   -3.3970    9.8926   -2.2514 H   0  0  0  0  0  0  0  0  0  0  0  0
   -4.2364    8.5081    0.3718 H   0  0  0  0  0  0  0  0  0  0  0  0
   -4.7679   10.1454   -0.2171 H   0  0  0  0  0  0  0  0  0  0  0  0
   -6.5007    8.4150   -0.5694 H   0  0  0  0  0  0  0  0  0  0  0  0
   -5.8938    9.1322   -2.1133 H   0  0  0  0  0  0  0  0  0  0  0  0
   -6.1074    6.7596   -2.3987 H   0  0  0  0  0  0  0  0  0  0  0  0
   -4.9640    6.7950    0.1440 H   0  0  0  0  0  0  0  0  0  0  0  0
   -4.7512    8.7731   -3.8248 H   0  0  0  0  0  0  0  0  0  0  0  0
   -3.3787    7.8955   -4.5816 H   0  0  0  0  0  0  0  0  0  0  0  0
   -5.0203    7.1664   -4.5816 H   0  0  0  0  0  0  0  0  0  0  0  0
   -3.5392    5.0486   -2.0523 H   0  0  0  0  0  0  0  0  0  0  0  0
   -4.4888    5.1733   -3.5720 H   0  0  0  0  0  0  0  0  0  0  0  0
   -2.7374    5.5724   -3.5720 H   0  0  0  0  0  0  0  0  0  0  0  0
   -2.0792   10.4416    1.4908 H   0  0  0  0  0  0  0  0  0  0  0  0
   -2.7421    8.8319    1.0478 H   0  0  0  0  0  0  0  0  0  0  0  0
   -0.9664    9.1029    1.0478 H   0  0  0  0  0  0  0  0  0  0  0  0
   -3.4065   11.6703   -0.5739 H   0  0  0  0  0  0  0  0  0  0  0  0
   -1.7478   11.9487    0.2044 H   0  0  0  0  0  0  0  0  0  0  0  0
   -2.4566   12.0903   -2.7387 H   0  0  0  0  0  0  0  0  0  0  0  0
   -1.9266   13.4239   -1.6391 H   0  0  0  0  0  0  0  0  0  0  0  0
   -0.0217   12.2285   -0.0308 H   0  0  0  0  0  0  0  0  0  0  0  0
    1.4736   12.0040   -1.0005 H   0  0  0  0  0  0  0  0  0  0  0  0
    0.6330   13.5914   -1.0005 H   0  0  0  0  0  0  0  0  0  0  0  0
  1  2  1  0
  2  3  1  0
  3  4  1  0
  4  5  1  0
  5  6  1  0
  6  7  1  0
  7  8  1  0
  7  9  1  0
  2 10  1  0
 10 11  1  0
 11 12  1  0
 12 13  1  0
 13 14  1  6
 13 15  1  0
 15 16  1  0
 16 17  1  0
 17 18  2  0
 18 19  1  0
 19 20  1  0
 20 21  1  0
 21 22  1  0
 22 23  1  0
 22 24  1  0
 24 25  1  0
 24 26  1  0
 19 27  1  0
 27 28  1  1
 27 29  1  0
 29 30  1  0
 30 31  1  0
 31 32  1  1
  7  5  1  0
 31 10  1  0
 31 13  1  0
 27 15  1  0
 24 18  1  0
  1 33  1  0
  1 34  1  0
  1 35  1  0
  2 36  1  1
  3 37  1  0
  3 38  1  0
  4 39  1  0
  4 40  1  0
  5 41  1  6
  8 42  1  0
  8 43  1  0
  8 44  1  0
  9 45  1  0
  9 46  1  0
  9 47  1  0
 10 48  1  6
 11 49  1  0
 11 50  1  0
 12 51  1  0
 12 52  1  0
 14 53  1  0
 14 54  1  0
 14 55  1  0
 15 56  1  1
 16 57  1  0
 16 58  1  0
 17 59  1  0
 19 60  1  6
 20 61  1  0
 20 62  1  0
 21 63  1  0
 21 64  1  0
 22 65  1  6
 23 66  1  0
 25 67  1  0
 25 68  1  0
 25 69  1  0
 26 70  1  0
 26 71  1  0
 26 72  1  0
 28 73  1  0
 28 74  1  0
 28 75  1  0
 29 76  1  0
 29 77  1  0
 30 78  1  0
 30 79  1  0
 32 80  1  0
 32 81  1  0
 32 82  1  0
M  END
>  <meeko>  (18) 
{"is_sidechain": [false], "intermolecular_energy": 2.731, "internal_energy": -0.839}

$$$$
EPH_relaxed_0001_pdb2pqr_Repair_384_r2_0001_out
     RDKit          3D

 82 86  0  0  0  0  0  0  0  0999 V2000
    2.0230   15.9560   -0.6960 C   0  0  0  0  0  0  0  0  0  0  0  0
    1.8660   15.7770   -2.2090 C   0  0  2  0  0  0  0  0  0  0  0  0
    1.2890   17.0370   -2.8850 C   0  0  0  0  0  0  0  0  0  0  0  0
    1.7900   18.3480   -2.2740 C   0  0  0  0  0  0  0  0  0  0  0  0
    0.6740   19.3290   -2.0740 C   0  0  2  0  0  0  0  0  0  0  0  0
    0.8330   20.1940   -0.9420 O   0  0  0  0  0  0  0  0  0  0  0  0
   -0.2770   19.2840   -0.8920 C   0  0  0  0  0  0  0  0  0  0  0  0
   -0.1560   18.2340    0.1670 C   0  0  0  0  0  0  0  0  0  0  0  0
   -1.6100   19.9520   -1.0220 C   0  0  0  0  0  0  0  0  0  0  0  0
    0.9750   14.5760   -2.5000 C   0  0  1  0  0  0  0  0  0  0  0  0
    1.2040   13.9930   -3.9200 C   0  0  0  0  0  0  0  0  0  0  0  0
    1.0190   12.4580   -3.8090 C   0  0  0  0  0  0  0  0  0  0  0  0
    0.3690   12.2430   -2.4220 C   0  0  1  0  0  0  0  0  0  0  0  0
   -1.1480   12.5370   -2.6390 C   0  0  0  0  0  0  0  0  0  0  0  0
    0.5970   10.8440   -1.7610 C   0  0  2  0  0  0  0  0  0  0  0  0
    0.0140    9.6520   -2.5400 C   0  0  0  0  0  0  0  0  0  0  0  0
   -1.3870    9.2800   -2.1820 C   0  0  0  0  0  0  0  0  0  0  0  0
   -2.0470    9.6880   -1.0830 C   0  0  0  0  0  0  0  0  0  0  0  0
   -1.3470   10.5340   -0.0110 C   0  0  1  0  0  0  0  0  0  0  0  0
   -1.6680    9.9590    1.3940 C   0  0  0  0  0  0  0  0  0  0  0  0
   -3.1680    9.8270    1.6430 C   0  0  0  0  0  0  0  0  0  0  0  0
   -3.8180    8.9320    0.5910 C   0  0  2  0  0  0  0  0  0  0  0  0
   -3.3320    7.5960    0.7570 O   0  0  0  0  0  0  0  0  0  0  0  0
   -3.5550    9.4070   -0.8650 C   0  0  0  0  0  0  0  0  0  0  0  0
   -4.3370   10.7160   -1.1360 C   0  0  0  0  0  0  0  0  0  0  0  0
   -4.1440    8.3420   -1.8290 C   0  0  0  0  0  0  0  0  0  0  0  0
    0.2080   10.7790   -0.2290 C   0  0  1  0  0  0  0  0  0  0  0  0
    1.0240    9.6030    0.3890 C   0  0  0  0  0  0  0  0  0  0  0  0
    0.6380   12.0770    0.5530 C   0  0  0  0  0  0  0  0  0  0  0  0
    0.5010   13.4160   -0.1960 C   0  0  0  0  0  0  0  0  0  0  0  0
    1.1350   13.3340   -1.5880 C   0  0  2  0  0  0  0  0  0  0  0  0
    2.6670   13.0600   -1.4010 C   0  0  0  0  0  0  0  0  0  0  0  0
    1.3850   15.2286   -0.1726 H   0  0  0  0  0  0  0  0  0  0  0  0
    3.0736   15.7917   -0.4144 H   0  0  0  0  0  0  0  0  0  0  0  0
    1.7231   16.9762   -0.4144 H   0  0  0  0  0  0  0  0  0  0  0  0
    2.8685   15.6065   -2.6285 H   0  0  0  0  0  0  0  0  0  0  0  0
    1.5699   17.0199   -3.9484 H   0  0  0  0  0  0  0  0  0  0  0  0
    0.1992   17.0099   -2.7379 H   0  0  0  0  0  0  0  0  0  0  0  0
    2.2543   18.1329   -1.3003 H   0  0  0  0  0  0  0  0  0  0  0  0
    2.5178   18.7936   -2.9681 H   0  0  0  0  0  0  0  0  0  0  0  0
    0.5012   19.3899   -3.1586 H   0  0  0  0  0  0  0  0  0  0  0  0
   -0.2104   18.7059    1.1591 H   0  0  0  0  0  0  0  0  0  0  0  0
   -0.9766   17.5093    0.0602 H   0  0  0  0  0  0  0  0  0  0  0  0
    0.8079   17.7149    0.0602 H   0  0  0  0  0  0  0  0  0  0  0  0
   -2.0171   20.1560   -0.0207 H   0  0  0  0  0  0  0  0  0  0  0  0
   -1.4939   20.8984   -1.5704 H   0  0  0  0  0  0  0  0  0  0  0  0
   -2.2987   19.2925   -1.5704 H   0  0  0  0  0  0  0  0  0  0  0  0
   -0.0117   15.0353   -2.3403 H   0  0  0  0  0  0  0  0  0  0  0  0
    0.4709   14.4128   -4.6245 H   0  0  0  0  0  0  0  0  0  0  0  0
    2.2082   14.2437   -4.2924 H   0  0  0  0  0  0  0  0  0  0  0  0
    0.3603   12.0874   -4.6083 H   0  0  0  0  0  0  0  0  0  0  0  0
    1.9697   11.9145   -3.9131 H   0  0  0  0  0  0  0  0  0  0  0  0
   -1.6461   12.6335   -1.6630 H   0  0  0  0  0  0  0  0  0  0  0  0
   -1.2628   13.4741   -3.2035 H   0  0  0  0  0  0  0  0  0  0  0  0
   -1.6046   11.7106   -3.2035 H   0  0  0  0  0  0  0  0  0  0  0  0
    1.6899   10.7323   -1.8170 H   0  0  0  0  0  0  0  0  0  0  0  0
    0.0361    9.9023   -3.6109 H   0  0  0  0  0  0  0  0  0  0  0  0
    0.6360    8.7835   -2.2776 H   0  0  0  0  0  0  0  0  0  0  0  0
   -1.9248    8.6165   -2.8752 H   0  0  0  0  0  0  0  0  0  0  0  0
   -1.7636   11.5479   -0.1031 H   0  0  0  0  0  0  0  0  0  0  0  0
   -1.2070    8.9641    1.4817 H   0  0  0  0  0  0  0  0  0  0  0  0
   -1.2655   10.6587    2.1413 H   0  0  0  0  0  0  0  0  0  0  0  0
   -3.3306    9.3889    2.6388 H   0  0  0  0  0  0  0  0  0  0  0  0
   -3.6234   10.8266    1.5840 H   0  0  0  0  0  0  0  0  0  0  0  0
   -4.9062    8.9802    0.7445 H   0  0  0  0  0  0  0  0  0  0  0  0
   -3.8140    7.0280    0.1320 H   0  0  0  0  0  0  0  0  0  0  0  0
   -4.6152   11.1817   -0.1791 H   0  0  0  0  0  0  0  0  0  0  0  0
   -3.7046   11.4086   -1.7107 H   0  0  0  0  0  0  0  0  0  0  0  0
   -5.2466   10.4874   -1.7107 H   0  0  0  0  0  0  0  0  0  0  0  0
   -4.5947    7.5270   -1.2437 H   0  0  0  0  0  0  0  0  0  0  0  0
   -4.9132    8.8069   -2.4631 H   0  0  0  0  0  0  0  0  0  0  0  0
   -3.3413    7.9376   -2.4631 H   0  0  0  0  0  0  0  0  0  0  0  0
    0.9816    9.6642    1.4865 H   0  0  0  0  0  0  0  0  0  0  0  0
    0.5952    8.6455    0.0583 H   0  0  0  0  0  0  0  0  0  0  0  0
    2.0710    9.6696    0.0583 H   0  0  0  0  0  0  0  0  0  0  0  0
    0.0200   12.1387    1.4609 H   0  0  0  0  0  0  0  0  0  0  0  0
    1.7161   11.9587    0.7366 H   0  0  0  0  0  0  0  0  0  0  0  0
   -0.5660   13.6620   -0.3007 H   0  0  0  0  0  0  0  0  0  0  0  0
    1.0214   14.1948    0.3807 H   0  0  0  0  0  0  0  0  0  0  0  0
    2.9036   13.0177   -0.3276 H   0  0  0  0  0  0  0  0  0  0  0  0
    2.9281   12.1009   -1.8721 H   0  0  0  0  0  0  0  0  0  0  0  0
    3.2444   13.8691   -1.8721 H   0  0  0  0  0  0  0  0  0  0  0  0
  1  2  1  0
  2  3  1  0
  3  4  1  0
  4  5  1  0
  5  6  1  0
  6  7  1  0
  7  8  1  0
  7  9  1  0
  2 10  1  0
 10 11  1  0
 11 12  1  0
 12 13  1  0
 13 14  1  6
 13 15  1  0
 15 16  1  0
 16 17  1  0
 17 18  2  0
 18 19  1  0
 19 20  1  0
 20 21  1  0
 21 22  1  0
 22 23  1  0
 22 24  1  0
 24 25  1  0
 24 26  1  0
 19 27  1  0
 27 28  1  1
 27 29  1  0
 29 30  1  0
 30 31  1  0
 31 32  1  1
  7  5  1  0
 31 10  1  0
 31 13  1  0
 27 15  1  0
 24 18  1  0
  1 33  1  0
  1 34  1  0
  1 35  1  0
  2 36  1  6
  3 37  1  0
  3 38  1  0
  4 39  1  0
  4 40  1  0
  5 41  1  6
  8 42  1  0
  8 43  1  0
  8 44  1  0
  9 45  1  0
  9 46  1  0
  9 47  1  0
 10 48  1  6
 11 49  1  0
 11 50  1  0
 12 51  1  0
 12 52  1  0
 14 53  1  0
 14 54  1  0
 14 55  1  0
 15 56  1  1
 16 57  1  0
 16 58  1  0
 17 59  1  0
 19 60  1  1
 20 61  1  0
 20 62  1  0
 21 63  1  0
 21 64  1  0
 22 65  1  1
 23 66  1  0
 25 67  1  0
 25 68  1  0
 25 69  1  0
 26 70  1  0
 26 71  1  0
 26 72  1  0
 28 73  1  0
 28 74  1  0
 28 75  1  0
 29 76  1  0
 29 77  1  0
 30 78  1  0
 30 79  1  0
 32 80  1  0
 32 81  1  0
 32 82  1  0
M  END
>  <meeko>  (19) 
{"is_sidechain": [false], "intermolecular_energy": 2.731, "internal_energy": -0.839}

$$$$
