EPH_relaxed_0001_pdb2pqr_Repair_21_r2_0001_out
     RDKit          3D

 82 86  0  0  0  0  0  0  0  0999 V2000
   -1.5830    8.5670   -1.8150 C   0  0  0  0  0  0  0  0  0  0  0  0
   -1.9930    9.1460   -0.4580 C   0  0  2  0  0  0  0  0  0  0  0  0
   -3.4830    9.5420   -0.4230 C   0  0  0  0  0  0  0  0  0  0  0  0
   -4.4340    8.3480   -0.3000 C   0  0  0  0  0  0  0  0  0  0  0  0
   -5.0680    8.0060   -1.6140 C   0  0  2  0  0  0  0  0  0  0  0  0
   -6.3360    8.6330   -1.8480 O   0  0  0  0  0  0  0  0  0  0  0  0
   -6.3470    7.2000   -1.7420 C   0  0  0  0  0  0  0  0  0  0  0  0
   -7.0680    6.6850   -0.5360 C   0  0  0  0  0  0  0  0  0  0  0  0
   -6.6260    6.5020   -3.0360 C   0  0  0  0  0  0  0  0  0  0  0  0
   -1.1250   10.3530   -0.1240 C   0  0  1  0  0  0  0  0  0  0  0  0
   -0.0540   10.0390    0.9540 C   0  0  0  0  0  0  0  0  0  0  0  0
    1.2010   10.8740    0.5940 C   0  0  0  0  0  0  0  0  0  0  0  0
    0.7070   11.8820   -0.4700 C   0  0  1  0  0  0  0  0  0  0  0  0
    0.0250   13.0250    0.3460 C   0  0  0  0  0  0  0  0  0  0  0  0
    1.7900   12.4390   -1.4500 C   0  0  2  0  0  0  0  0  0  0  0  0
    2.9160   13.2510   -0.7860 C   0  0  0  0  0  0  0  0  0  0  0  0
    2.6640   14.7190   -0.6760 C   0  0  0  0  0  0  0  0  0  0  0  0
    1.7140   15.4010   -1.3420 C   0  0  0  0  0  0  0  0  0  0  0  0
    0.8330   14.7070   -2.3890 C   0  0  1  0  0  0  0  0  0  0  0  0
    0.7570   15.5850   -3.6660 C   0  0  0  0  0  0  0  0  0  0  0  0
    0.2990   17.0100   -3.3700 C   0  0  0  0  0  0  0  0  0  0  0  0
    1.2330   17.6860   -2.3690 C   0  0  2  0  0  0  0  0  0  0  0  0
    2.5130   17.8670   -2.9830 O   0  0  0  0  0  0  0  0  0  0  0  0
    1.3960   16.8880   -1.0460 C   0  0  0  0  0  0  0  0  0  0  0  0
    0.0780   16.9500   -0.2350 C   0  0  0  0  0  0  0  0  0  0  0  0
    2.4700   17.6050   -0.1840 C   0  0  0  0  0  0  0  0  0  0  0  0
    1.1990   13.1940   -2.7090 C   0  0  1  0  0  0  0  0  0  0  0  0
    2.2930   13.1350   -3.8190 C   0  0  0  0  0  0  0  0  0  0  0  0
   -0.0710   12.4720   -3.2980 C   0  0  0  0  0  0  0  0  0  0  0  0
   -1.0420   11.8380   -2.2840 C   0  0  0  0  0  0  0  0  0  0  0  0
   -0.2880   10.9680   -1.2740 C   0  0  2  0  0  0  0  0  0  0  0  0
    0.3900    9.7960   -2.0630 C   0  0  0  0  0  0  0  0  0  0  0  0
   -0.9537    7.6783   -1.6594 H   0  0  0  0  0  0  0  0  0  0  0  0
   -2.4834    8.2843   -2.3802 H   0  0  0  0  0  0  0  0  0  0  0  0
   -1.0174    9.3224   -2.3802 H   0  0  0  0  0  0  0  0  0  0  0  0
   -1.8421    8.3602    0.2968 H   0  0  0  0  0  0  0  0  0  0  0  0
   -3.6458   10.2060    0.4387 H   0  0  0  0  0  0  0  0  0  0  0  0
   -3.7075   10.0348   -1.3805 H   0  0  0  0  0  0  0  0  0  0  0  0
   -3.8672    7.4766    0.0598 H   0  0  0  0  0  0  0  0  0  0  0  0
   -5.2331    8.6178    0.4061 H   0  0  0  0  0  0  0  0  0  0  0  0
   -4.0815    7.9044   -2.0900 H   0  0  0  0  0  0  0  0  0  0  0  0
   -6.5646    7.0446    0.3735 H   0  0  0  0  0  0  0  0  0  0  0  0
   -8.1067    7.0468   -0.5475 H   0  0  0  0  0  0  0  0  0  0  0  0
   -7.0627    5.5851   -0.5475 H   0  0  0  0  0  0  0  0  0  0  0  0
   -7.0272    5.4983   -2.8321 H   0  0  0  0  0  0  0  0  0  0  0  0
   -7.3619    7.0807   -3.6135 H   0  0  0  0  0  0  0  0  0  0  0  0
   -5.6939    6.4140   -3.6135 H   0  0  0  0  0  0  0  0  0  0  0  0
   -1.9066   11.0599    0.1913 H   0  0  0  0  0  0  0  0  0  0  0  0
   -0.4247   10.3225    1.9501 H   0  0  0  0  0  0  0  0  0  0  0  0
    0.1799    8.9644    0.9771 H   0  0  0  0  0  0  0  0  0  0  0  0
    1.5839   11.4013    1.4802 H   0  0  0  0  0  0  0  0  0  0  0  0
    2.0265   10.2481    0.2241 H   0  0  0  0  0  0  0  0  0  0  0  0
    0.1426   12.8280    1.4218 H   0  0  0  0  0  0  0  0  0  0  0  0
    0.4972   13.9864    0.0956 H   0  0  0  0  0  0  0  0  0  0  0  0
   -1.0453   13.0660    0.0956 H   0  0  0  0  0  0  0  0  0  0  0  0
    2.2645   11.5193   -1.8228 H   0  0  0  0  0  0  0  0  0  0  0  0
    3.0675   12.8551    0.2290 H   0  0  0  0  0  0  0  0  0  0  0  0
    3.7955   13.1411   -1.4375 H   0  0  0  0  0  0  0  0  0  0  0  0
    3.3093   15.2910    0.0070 H   0  0  0  0  0  0  0  0  0  0  0  0
   -0.1659   14.6195   -1.9368 H   0  0  0  0  0  0  0  0  0  0  0  0
    1.7550   15.6240   -4.1270 H   0  0  0  0  0  0  0  0  0  0  0  0
    0.0169   15.1298   -4.3406 H   0  0  0  0  0  0  0  0  0  0  0  0
    0.2944   17.5884   -4.3056 H   0  0  0  0  0  0  0  0  0  0  0  0
   -0.7115   16.9714   -2.9370 H   0  0  0  0  0  0  0  0  0  0  0  0
    0.7819   18.6519   -2.0978 H   0  0  0  0  0  0  0  0  0  0  0  0
    3.1270   17.2330   -2.5740 H   0  0  0  0  0  0  0  0  0  0  0  0
    0.3084   16.9392    0.8405 H   0  0  0  0  0  0  0  0  0  0  0  0
   -0.4631   17.8746   -0.4848 H   0  0  0  0  0  0  0  0  0  0  0  0
   -0.5475   16.0803   -0.4848 H   0  0  0  0  0  0  0  0  0  0  0  0
    2.2448   17.4546    0.8821 H   0  0  0  0  0  0  0  0  0  0  0  0
    3.4618   17.1872   -0.4117 H   0  0  0  0  0  0  0  0  0  0  0  0
    2.4644   18.6812   -0.4117 H   0  0  0  0  0  0  0  0  0  0  0  0
    3.2872   13.0814   -3.3514 H   0  0  0  0  0  0  0  0  0  0  0  0
    2.1333   12.2442   -4.4442 H   0  0  0  0  0  0  0  0  0  0  0  0
    2.2300   14.0378   -4.4442 H   0  0  0  0  0  0  0  0  0  0  0  0
   -0.6360   13.2148   -3.8803 H   0  0  0  0  0  0  0  0  0  0  0  0
    0.3232   11.6293   -3.8849 H   0  0  0  0  0  0  0  0  0  0  0  0
   -1.5724   12.6371   -1.7455 H   0  0  0  0  0  0  0  0  0  0  0  0
   -1.7551   11.2033   -2.8305 H   0  0  0  0  0  0  0  0  0  0  0  0
    0.8101    9.0698   -1.3516 H   0  0  0  0  0  0  0  0  0  0  0  0
   -0.3595    9.2980   -2.6956 H   0  0  0  0  0  0  0  0  0  0  0  0
    1.1953   10.1975   -2.6956 H   0  0  0  0  0  0  0  0  0  0  0  0
  1  2  1  0
  2  3  1  0
  3  4  1  0
  4  5  1  0
  5  6  1  0
  6  7  1  0
  7  8  1  0
  7  9  1  0
  2 10  1  0
 10 11  1  0
 11 12  1  0
 12 13  1  0
 13 14  1  1
 13 15  1  0
 15 16  1  0
 16 17  1  0
 17 18  2  0
 18 19  1  0
 19 20  1  0
 20 21  1  0
 21 22  1  0
 22 23  1  0
 22 24  1  0
 24 25  1  0
 24 26  1  0
 19 27  1  0
 27 28  1  6
 27 29  1  0
 29 30  1  0
 30 31  1  0
 31 32  1  6
  7  5  1  0
 31 10  1  0
 31 13  1  0
 27 15  1  0
 24 18  1  0
  1 33  1  0
  1 34  1  0
  1 35  1  0
  2 36  1  1
  3 37  1  0
  3 38  1  0
  4 39  1  0
  4 40  1  0
  5 41  1  6
  8 42  1  0
  8 43  1  0
  8 44  1  0
  9 45  1  0
  9 46  1  0
  9 47  1  0
 10 48  1  1
 11 49  1  0
 11 50  1  0
 12 51  1  0
 12 52  1  0
 14 53  1  0
 14 54  1  0
 14 55  1  0
 15 56  1  6
 16 57  1  0
 16 58  1  0
 17 59  1  0
 19 60  1  1
 20 61  1  0
 20 62  1  0
 21 63  1  0
 21 64  1  0
 22 65  1  1
 23 66  1  0
 25 67  1  0
 25 68  1  0
 25 69  1  0
 26 70  1  0
 26 71  1  0
 26 72  1  0
 28 73  1  0
 28 74  1  0
 28 75  1  0
 29 76  1  0
 29 77  1  0
 30 78  1  0
 30 79  1  0
 32 80  1  0
 32 81  1  0
 32 82  1  0
M  END
>  <meeko>  (1) 
{"is_sidechain": [false], "intermolecular_energy": 2.731, "internal_energy": -0.839}

$$$$
EPH_relaxed_0001_pdb2pqr_Repair_21_r2_0001_out
     RDKit          3D

 82 86  0  0  0  0  0  0  0  0999 V2000
    4.2120   17.5910   -0.6040 C   0  0  0  0  0  0  0  0  0  0  0  0
    2.8460   18.1500   -0.1940 C   0  0  2  0  0  0  0  0  0  0  0  0
    2.8890   18.8310    1.1890 C   0  0  0  0  0  0  0  0  0  0  0  0
    4.2370   18.6940    1.9010 C   0  0  0  0  0  0  0  0  0  0  0  0
    4.1860   19.2400    3.2960 C   0  0  2  0  0  0  0  0  0  0  0  0
    5.2150   20.1890    3.6060 O   0  0  0  0  0  0  0  0  0  0  0  0
    5.2440   18.9570    4.3450 C   0  0  0  0  0  0  0  0  0  0  0  0
    6.4300   18.0950    4.0440 C   0  0  0  0  0  0  0  0  0  0  0  0
    4.8800   19.1110    5.7890 C   0  0  0  0  0  0  0  0  0  0  0  0
    1.8070   17.0340   -0.1920 C   0  0  1  0  0  0  0  0  0  0  0  0
    0.3760   17.5510   -0.4970 C   0  0  0  0  0  0  0  0  0  0  0  0
   -0.3370   16.4400   -1.3110 C   0  0  0  0  0  0  0  0  0  0  0  0
    0.5780   15.2010   -1.1640 C   0  0  1  0  0  0  0  0  0  0  0  0
    0.2100   14.5940    0.2260 C   0  0  0  0  0  0  0  0  0  0  0  0
    0.4840   14.1340   -2.3030 C   0  0  2  0  0  0  0  0  0  0  0  0
   -0.8910   13.4610   -2.4550 C   0  0  0  0  0  0  0  0  0  0  0  0
   -1.0820   12.2150   -1.6550 C   0  0  0  0  0  0  0  0  0  0  0  0
   -0.1020   11.5010   -1.0720 C   0  0  0  0  0  0  0  0  0  0  0  0
    1.3720   11.8790   -1.2700 C   0  0  1  0  0  0  0  0  0  0  0  0
    2.1930   10.6050   -1.5990 C   0  0  0  0  0  0  0  0  0  0  0  0
    2.0080    9.5040   -0.5600 C   0  0  0  0  0  0  0  0  0  0  0  0
    0.5370    9.1150   -0.4330 C   0  0  2  0  0  0  0  0  0  0  0  0
    0.1170    8.4980   -1.6540 O   0  0  0  0  0  0  0  0  0  0  0  0
   -0.3900   10.3210   -0.1120 C   0  0  0  0  0  0  0  0  0  0  0  0
   -0.1360   10.8000    1.3390 C   0  0  0  0  0  0  0  0  0  0  0  0
   -1.8580    9.8180   -0.1520 C   0  0  0  0  0  0  0  0  0  0  0  0
    1.6520   13.0670   -2.2880 C   0  0  1  0  0  0  0  0  0  0  0  0
    1.7630   12.5080   -3.7390 C   0  0  0  0  0  0  0  0  0  0  0  0
    3.0490   13.7120   -1.9530 C   0  0  0  0  0  0  0  0  0  0  0  0
    3.0580   14.8430   -0.9070 C   0  0  0  0  0  0  0  0  0  0  0  0
    1.9890   15.8920   -1.2240 C   0  0  2  0  0  0  0  0  0  0  0  0
    2.3450   16.5360   -2.6070 C   0  0  0  0  0  0  0  0  0  0  0  0
    4.7959   17.3521    0.2971 H   0  0  0  0  0  0  0  0  0  0  0  0
    4.0704   16.6785   -1.2018 H   0  0  0  0  0  0  0  0  0  0  0  0
    4.7507   18.3410   -1.2018 H   0  0  0  0  0  0  0  0  0  0  0  0
    2.5672   18.9168   -0.9318 H   0  0  0  0  0  0  0  0  0  0  0  0
    2.6739   19.9015    1.0557 H   0  0  0  0  0  0  0  0  0  0  0  0
    2.1405   18.3275    1.8185 H   0  0  0  0  0  0  0  0  0  0  0  0
    4.5103   17.6294    1.9448 H   0  0  0  0  0  0  0  0  0  0  0  0
    4.9836   19.2701    1.3347 H   0  0  0  0  0  0  0  0  0  0  0  0
    3.0893   19.1560    3.3132 H   0  0  0  0  0  0  0  0  0  0  0  0
    6.8892   17.7612    4.9862 H   0  0  0  0  0  0  0  0  0  0  0  0
    6.1081   17.2186    3.4623 H   0  0  0  0  0  0  0  0  0  0  0  0
    7.1642   18.6717    3.4623 H   0  0  0  0  0  0  0  0  0  0  0  0
    5.7121   18.7590    6.4164 H   0  0  0  0  0  0  0  0  0  0  0  0
    4.6802   20.1708    6.0058 H   0  0  0  0  0  0  0  0  0  0  0  0
    3.9803   18.5164    6.0058 H   0  0  0  0  0  0  0  0  0  0  0  0
    1.9525   16.6466    0.8272 H   0  0  0  0  0  0  0  0  0  0  0  0
   -0.1663   17.7405    0.4411 H   0  0  0  0  0  0  0  0  0  0  0  0
    0.4089   18.4947   -1.0612 H   0  0  0  0  0  0  0  0  0  0  0  0
   -1.3360   16.2363   -0.8980 H   0  0  0  0  0  0  0  0  0  0  0  0
   -0.4880   16.7249   -2.3627 H   0  0  0  0  0  0  0  0  0  0  0  0
    0.6024   15.2412    1.0242 H   0  0  0  0  0  0  0  0  0  0  0  0
   -0.8839   14.5221    0.3167 H   0  0  0  0  0  0  0  0  0  0  0  0
    0.6522   13.5909    0.3167 H   0  0  0  0  0  0  0  0  0  0  0  0
    0.6192   14.7428   -3.2091 H   0  0  0  0  0  0  0  0  0  0  0  0
   -1.6598   14.1846   -2.1462 H   0  0  0  0  0  0  0  0  0  0  0  0
   -0.9682   13.1604   -3.5103 H   0  0  0  0  0  0  0  0  0  0  0  0
   -2.1121   11.8495   -1.5317 H   0  0  0  0  0  0  0  0  0  0  0  0
    1.7094   12.3028   -0.3126 H   0  0  0  0  0  0  0  0  0  0  0  0
    1.8720   10.2222   -2.5790 H   0  0  0  0  0  0  0  0  0  0  0  0
    3.2567   10.8854   -1.6018 H   0  0  0  0  0  0  0  0  0  0  0  0
    2.5889    8.6208   -0.8641 H   0  0  0  0  0  0  0  0  0  0  0  0
    2.3576    9.8778    0.4137 H   0  0  0  0  0  0  0  0  0  0  0  0
    0.4515    8.4190    0.4145 H   0  0  0  0  0  0  0  0  0  0  0  0
    0.0700    7.5390   -1.4980 H   0  0  0  0  0  0  0  0  0  0  0  0
   -0.5310   10.0551    2.0455 H   0  0  0  0  0  0  0  0  0  0  0  0
    0.9452   10.9218    1.5010 H   0  0  0  0  0  0  0  0  0  0  0  0
   -0.6418   11.7633    1.5010 H   0  0  0  0  0  0  0  0  0  0  0  0
   -2.2300    9.6905    0.8753 H   0  0  0  0  0  0  0  0  0  0  0  0
   -2.4832   10.5532   -0.6798 H   0  0  0  0  0  0  0  0  0  0  0  0
   -1.9010    8.8539   -0.6798 H   0  0  0  0  0  0  0  0  0  0  0  0
    1.9771   11.4297   -3.7011 H   0  0  0  0  0  0  0  0  0  0  0  0
    0.8142   12.6750   -4.2699 H   0  0  0  0  0  0  0  0  0  0  0  0
    2.5760   13.0249   -4.2699 H   0  0  0  0  0  0  0  0  0  0  0  0
    3.7054   12.9108   -1.5827 H   0  0  0  0  0  0  0  0  0  0  0  0
    3.3810   14.1832   -2.8899 H   0  0  0  0  0  0  0  0  0  0  0  0
    2.8589   14.4155    0.0868 H   0  0  0  0  0  0  0  0  0  0  0  0
    4.0439   15.3304   -0.9264 H   0  0  0  0  0  0  0  0  0  0  0  0
    2.8713   17.4880   -2.4436 H   0  0  0  0  0  0  0  0  0  0  0  0
    2.9929   15.8516   -3.1743 H   0  0  0  0  0  0  0  0  0  0  0  0
    1.4208   16.7206   -3.1743 H   0  0  0  0  0  0  0  0  0  0  0  0
  1  2  1  0
  2  3  1  0
  3  4  1  0
  4  5  1  0
  5  6  1  0
  6  7  1  0
  7  8  1  0
  7  9  1  0
  2 10  1  0
 10 11  1  0
 11 12  1  0
 12 13  1  0
 13 14  1  1
 13 15  1  0
 15 16  1  0
 16 17  1  0
 17 18  2  0
 18 19  1  0
 19 20  1  0
 20 21  1  0
 21 22  1  0
 22 23  1  0
 22 24  1  0
 24 25  1  0
 24 26  1  0
 19 27  1  0
 27 28  1  6
 27 29  1  0
 29 30  1  0
 30 31  1  0
 31 32  1  6
  7  5  1  0
 31 10  1  0
 31 13  1  0
 27 15  1  0
 24 18  1  0
  1 33  1  0
  1 34  1  0
  1 35  1  0
  2 36  1  6
  3 37  1  0
  3 38  1  0
  4 39  1  0
  4 40  1  0
  5 41  1  1
  8 42  1  0
  8 43  1  0
  8 44  1  0
  9 45  1  0
  9 46  1  0
  9 47  1  0
 10 48  1  1
 11 49  1  0
 11 50  1  0
 12 51  1  0
 12 52  1  0
 14 53  1  0
 14 54  1  0
 14 55  1  0
 15 56  1  6
 16 57  1  0
 16 58  1  0
 17 59  1  0
 19 60  1  1
 20 61  1  0
 20 62  1  0
 21 63  1  0
 21 64  1  0
 22 65  1  1
 23 66  1  0
 25 67  1  0
 25 68  1  0
 25 69  1  0
 26 70  1  0
 26 71  1  0
 26 72  1  0
 28 73  1  0
 28 74  1  0
 28 75  1  0
 29 76  1  0
 29 77  1  0
 30 78  1  0
 30 79  1  0
 32 80  1  0
 32 81  1  0
 32 82  1  0
M  END
>  <meeko>  (2) 
{"is_sidechain": [false], "intermolecular_energy": 2.731, "internal_energy": -0.839}

$$$$
EPH_relaxed_0001_pdb2pqr_Repair_21_r2_0001_out
     RDKit          3D

 82 86  0  0  0  0  0  0  0  0999 V2000
    0.5370   18.4580   -0.0270 C   0  0  0  0  0  0  0  0  0  0  0  0
    1.5920   17.3660   -0.2230 C   0  0  2  0  0  0  0  0  0  0  0  0
    2.8320   17.8850   -0.9770 C   0  0  0  0  0  0  0  0  0  0  0  0
    4.0520   18.1080   -0.0780 C   0  0  0  0  0  0  0  0  0  0  0  0
    3.6550   18.5840    1.2860 C   0  0  2  0  0  0  0  0  0  0  0  0
    3.8680   19.9830    1.5170 O   0  0  0  0  0  0  0  0  0  0  0  0
    4.6470   19.0820    2.3200 C   0  0  0  0  0  0  0  0  0  0  0  0
    6.1160   19.1270    2.0340 C   0  0  0  0  0  0  0  0  0  0  0  0
    4.2490   19.0610    3.7630 C   0  0  0  0  0  0  0  0  0  0  0  0
    0.9860   16.1840   -0.9690 C   0  0  1  0  0  0  0  0  0  0  0  0
    0.8090   16.4620   -2.4860 C   0  0  0  0  0  0  0  0  0  0  0  0
    1.0650   15.1210   -3.2200 C   0  0  0  0  0  0  0  0  0  0  0  0
    1.0520   14.0540   -2.0990 C   0  0  1  0  0  0  0  0  0  0  0  0
   -0.4600   13.7670   -1.8370 C   0  0  0  0  0  0  0  0  0  0  0  0
    1.8480   12.7400   -2.3870 C   0  0  2  0  0  0  0  0  0  0  0  0
    1.3330   11.9130   -3.5780 C   0  0  0  0  0  0  0  0  0  0  0  0
    0.3050   10.8840   -3.2430 C   0  0  0  0  0  0  0  0  0  0  0  0
    0.0200   10.4370   -2.0050 C   0  0  0  0  0  0  0  0  0  0  0  0
    0.8340   10.9040   -0.7920 C   0  0  1  0  0  0  0  0  0  0  0  0
    1.2100    9.6790    0.0820 C   0  0  0  0  0  0  0  0  0  0  0  0
   -0.0060    8.8490    0.4810 C   0  0  0  0  0  0  0  0  0  0  0  0
   -0.7570    8.3540   -0.7530 C   0  0  2  0  0  0  0  0  0  0  0  0
    0.0720    7.4200   -1.4520 O   0  0  0  0  0  0  0  0  0  0  0  0
   -1.1790    9.5000   -1.7150 C   0  0  0  0  0  0  0  0  0  0  0  0
   -2.3040   10.3400   -1.0610 C   0  0  0  0  0  0  0  0  0  0  0  0
   -1.7990    8.8550   -2.9830 C   0  0  0  0  0  0  0  0  0  0  0  0
    2.0840   11.8330   -1.1120 C   0  0  1  0  0  0  0  0  0  0  0  0
    3.3350   10.9540   -1.4160 C   0  0  0  0  0  0  0  0  0  0  0  0
    2.4360   12.6790    0.1680 C   0  0  0  0  0  0  0  0  0  0  0  0
    1.7040   14.0250    0.3340 C   0  0  0  0  0  0  0  0  0  0  0  0
    1.7750   14.8510   -0.9530 C   0  0  2  0  0  0  0  0  0  0  0  0
    3.2830   15.1740   -1.2310 C   0  0  0  0  0  0  0  0  0  0  0  0
    0.3766   18.6240    1.0485 H   0  0  0  0  0  0  0  0  0  0  0  0
    0.8841   19.3913   -0.4943 H   0  0  0  0  0  0  0  0  0  0  0  0
   -0.4077   18.1432   -0.4943 H   0  0  0  0  0  0  0  0  0  0  0  0
    1.9233   17.0443    0.7754 H   0  0  0  0  0  0  0  0  0  0  0  0
    3.1005   17.1504   -1.7505 H   0  0  0  0  0  0  0  0  0  0  0  0
    2.5632   18.8634   -1.4018 H   0  0  0  0  0  0  0  0  0  0  0  0
    4.6002   17.1595    0.0209 H   0  0  0  0  0  0  0  0  0  0  0  0
    4.6827   18.8811   -0.5411 H   0  0  0  0  0  0  0  0  0  0  0  0
    2.8479   17.8383    1.3372 H   0  0  0  0  0  0  0  0  0  0  0  0
    6.6738   19.1441    2.9820 H   0  0  0  0  0  0  0  0  0  0  0  0
    6.4042   18.2373    1.4550 H   0  0  0  0  0  0  0  0  0  0  0  0
    6.3492   20.0327    1.4550 H   0  0  0  0  0  0  0  0  0  0  0  0
    5.1498   19.1085    4.3925 H   0  0  0  0  0  0  0  0  0  0  0  0
    3.6051   19.9264    3.9784 H   0  0  0  0  0  0  0  0  0  0  0  0
    3.6997   18.1326    3.9784 H   0  0  0  0  0  0  0  0  0  0  0  0
    0.0483   16.0723   -0.4048 H   0  0  0  0  0  0  0  0  0  0  0  0
   -0.2124   16.8161   -2.6894 H   0  0  0  0  0  0  0  0  0  0  0  0
    1.5077   17.2393   -2.8289 H   0  0  0  0  0  0  0  0  0  0  0  0
    0.2705   14.9224   -3.9544 H   0  0  0  0  0  0  0  0  0  0  0  0
    2.0116   15.1261   -3.7803 H   0  0  0  0  0  0  0  0  0  0  0  0
   -0.6441   13.7321   -0.7531 H   0  0  0  0  0  0  0  0  0  0  0  0
   -1.0681   14.5658   -2.2867 H   0  0  0  0  0  0  0  0  0  0  0  0
   -0.7331   12.8010   -2.2867 H   0  0  0  0  0  0  0  0  0  0  0  0
    2.8328   13.1227   -2.6931 H   0  0  0  0  0  0  0  0  0  0  0  0
    0.8932   12.6074   -4.3090 H   0  0  0  0  0  0  0  0  0  0  0  0
    2.2025   11.3602   -3.9631 H   0  0  0  0  0  0  0  0  0  0  0  0
   -0.2682   10.4545   -4.0778 H   0  0  0  0  0  0  0  0  0  0  0  0
    0.1756   11.5785   -0.2250 H   0  0  0  0  0  0  0  0  0  0  0  0
    1.9021    9.0399   -0.4860 H   0  0  0  0  0  0  0  0  0  0  0  0
    1.6731   10.0574    1.0052 H   0  0  0  0  0  0  0  0  0  0  0  0
    0.3273    7.9827    1.0713 H   0  0  0  0  0  0  0  0  0  0  0  0
   -0.6832    9.4808    1.0744 H   0  0  0  0  0  0  0  0  0  0  0  0
   -1.6863    7.8790   -0.4054 H   0  0  0  0  0  0  0  0  0  0  0  0
   -0.3930    7.1680   -2.2680 H   0  0  0  0  0  0  0  0  0  0  0  0
   -2.2194   10.2769    0.0339 H   0  0  0  0  0  0  0  0  0  0  0  0
   -2.2084   11.3895   -1.3762 H   0  0  0  0  0  0  0  0  0  0  0  0
   -3.2831    9.9502   -1.3762 H   0  0  0  0  0  0  0  0  0  0  0  0
   -2.5327    8.0917   -2.6847 H   0  0  0  0  0  0  0  0  0  0  0  0
   -2.2994    9.6305   -3.5815 H   0  0  0  0  0  0  0  0  0  0  0  0
   -1.0044    8.3856   -3.5815 H   0  0  0  0  0  0  0  0  0  0  0  0
    3.7947   10.6310   -0.4703 H   0  0  0  0  0  0  0  0  0  0  0  0
    3.0302   10.0705   -1.9961 H   0  0  0  0  0  0  0  0  0  0  0  0
    4.0629   11.5403   -1.9961 H   0  0  0  0  0  0  0  0  0  0  0  0
    2.2030   12.0626    1.0488 H   0  0  0  0  0  0  0  0  0  0  0  0
    3.4986   12.9409    0.0568 H   0  0  0  0  0  0  0  0  0  0  0  0
    0.6493   13.8328    0.5803 H   0  0  0  0  0  0  0  0  0  0  0  0
    2.1914   14.5916    1.1411 H   0  0  0  0  0  0  0  0  0  0  0  0
    3.8157   15.2881   -0.2754 H   0  0  0  0  0  0  0  0  0  0  0  0
    3.7340   14.3521   -1.8064 H   0  0  0  0  0  0  0  0  0  0  0  0
    3.3578   16.1085   -1.8064 H   0  0  0  0  0  0  0  0  0  0  0  0
  1  2  1  0
  2  3  1  0
  3  4  1  0
  4  5  1  0
  5  6  1  0
  6  7  1  0
  7  8  1  0
  7  9  1  0
  2 10  1  0
 10 11  1  0
 11 12  1  0
 12 13  1  0
 13 14  1  1
 13 15  1  0
 15 16  1  0
 16 17  1  0
 17 18  2  0
 18 19  1  0
 19 20  1  0
 20 21  1  0
 21 22  1  0
 22 23  1  0
 22 24  1  0
 24 25  1  0
 24 26  1  0
 19 27  1  0
 27 28  1  6
 27 29  1  0
 29 30  1  0
 30 31  1  0
 31 32  1  6
  7  5  1  0
 31 10  1  0
 31 13  1  0
 27 15  1  0
 24 18  1  0
  1 33  1  0
  1 34  1  0
  1 35  1  0
  2 36  1  1
  3 37  1  0
  3 38  1  0
  4 39  1  0
  4 40  1  0
  5 41  1  1
  8 42  1  0
  8 43  1  0
  8 44  1  0
  9 45  1  0
  9 46  1  0
  9 47  1  0
 10 48  1  1
 11 49  1  0
 11 50  1  0
 12 51  1  0
 12 52  1  0
 14 53  1  0
 14 54  1  0
 14 55  1  0
 15 56  1  6
 16 57  1  0
 16 58  1  0
 17 59  1  0
 19 60  1  1
 20 61  1  0
 20 62  1  0
 21 63  1  0
 21 64  1  0
 22 65  1  1
 23 66  1  0
 25 67  1  0
 25 68  1  0
 25 69  1  0
 26 70  1  0
 26 71  1  0
 26 72  1  0
 28 73  1  0
 28 74  1  0
 28 75  1  0
 29 76  1  0
 29 77  1  0
 30 78  1  0
 30 79  1  0
 32 80  1  0
 32 81  1  0
 32 82  1  0
M  END
>  <meeko>  (3) 
{"is_sidechain": [false], "intermolecular_energy": 2.731, "internal_energy": -0.839}

$$$$
EPH_relaxed_0001_pdb2pqr_Repair_21_r2_0001_out
     RDKit          3D

 82 86  0  0  0  0  0  0  0  0999 V2000
    2.3570   18.0380   -2.7130 C   0  0  0  0  0  0  0  0  0  0  0  0
    1.0650   17.6480   -1.9890 C   0  0  2  0  0  0  0  0  0  0  0  0
    1.2180   17.7090   -0.4560 C   0  0  0  0  0  0  0  0  0  0  0  0
    0.8800   19.0770    0.1430 C   0  0  0  0  0  0  0  0  0  0  0  0
   -0.5690   19.1770    0.5140 C   0  0  2  0  0  0  0  0  0  0  0  0
   -1.4260   18.2470   -0.1610 O   0  0  0  0  0  0  0  0  0  0  0  0
   -1.6490   19.6370   -0.4470 C   0  0  0  0  0  0  0  0  0  0  0  0
   -1.3250   20.0290   -1.8550 C   0  0  0  0  0  0  0  0  0  0  0  0
   -2.9290   20.1710    0.1170 C   0  0  0  0  0  0  0  0  0  0  0  0
    0.6320   16.2510   -2.4150 C   0  0  1  0  0  0  0  0  0  0  0  0
    0.7390   16.0330   -3.9480 C   0  0  0  0  0  0  0  0  0  0  0  0
    1.1540   14.5550   -4.1620 C   0  0  0  0  0  0  0  0  0  0  0  0
    0.9500   13.8880   -2.7810 C   0  0  1  0  0  0  0  0  0  0  0  0
   -0.5790   13.5800   -2.7070 C   0  0  0  0  0  0  0  0  0  0  0  0
    1.8100   12.6150   -2.4940 C   0  0  2  0  0  0  0  0  0  0  0  0
    1.5450   11.4230   -3.4310 C   0  0  0  0  0  0  0  0  0  0  0  0
    0.4910   10.4720   -2.9700 C   0  0  0  0  0  0  0  0  0  0  0  0
   -0.0140   10.4080   -1.7230 C   0  0  0  0  0  0  0  0  0  0  0  0
    0.5480   11.2880   -0.6000 C   0  0  1  0  0  0  0  0  0  0  0  0
    0.7760   10.4260    0.6690 C   0  0  0  0  0  0  0  0  0  0  0  0
   -0.4780    9.6680    1.0940 C   0  0  0  0  0  0  0  0  0  0  0  0
   -0.9730    8.7600   -0.0290 C   0  0  2  0  0  0  0  0  0  0  0  0
   -0.0110    7.7220   -0.2410 O   0  0  0  0  0  0  0  0  0  0  0  0
   -1.2280    9.5170   -1.3620 C   0  0  0  0  0  0  0  0  0  0  0  0
   -2.4720   10.4280   -1.2140 C   0  0  0  0  0  0  0  0  0  0  0  0
   -1.5860    8.4660   -2.4470 C   0  0  0  0  0  0  0  0  0  0  0  0
    1.8180   12.1660   -0.9770 C   0  0  1  0  0  0  0  0  0  0  0  0
    3.1210   11.3360   -0.7650 C   0  0  0  0  0  0  0  0  0  0  0  0
    1.9070   13.3910    0.0090 C   0  0  0  0  0  0  0  0  0  0  0  0
    1.1320   14.6610   -0.3900 C   0  0  0  0  0  0  0  0  0  0  0  0
    1.4290   15.0530   -1.8400 C   0  0  2  0  0  0  0  0  0  0  0  0
    2.9560   15.3900   -1.9410 C   0  0  0  0  0  0  0  0  0  0  0  0
    3.1357   18.2730   -1.9724 H   0  0  0  0  0  0  0  0  0  0  0  0
    2.6912   17.2007   -3.3433 H   0  0  0  0  0  0  0  0  0  0  0  0
    2.1721   18.9204   -3.3433 H   0  0  0  0  0  0  0  0  0  0  0  0
    0.2928   18.3783   -2.2726 H   0  0  0  0  0  0  0  0  0  0  0  0
    0.5475   16.9595   -0.0101 H   0  0  0  0  0  0  0  0  0  0  0  0
    2.2766   17.5125   -0.2308 H   0  0  0  0  0  0  0  0  0  0  0  0
    1.4904   19.2319    1.0449 H   0  0  0  0  0  0  0  0  0  0  0  0
    1.0939   19.8454   -0.6145 H   0  0  0  0  0  0  0  0  0  0  0  0
   -0.3095   19.4888    1.5365 H   0  0  0  0  0  0  0  0  0  0  0  0
   -0.6242   20.8769   -1.8475 H   0  0  0  0  0  0  0  0  0  0  0  0
   -0.8641   19.1769   -2.3760 H   0  0  0  0  0  0  0  0  0  0  0  0
   -2.2486   20.3213   -2.3760 H   0  0  0  0  0  0  0  0  0  0  0  0
   -2.8819   20.1514    1.2158 H   0  0  0  0  0  0  0  0  0  0  0  0
   -3.0769   21.2059   -0.2252 H   0  0  0  0  0  0  0  0  0  0  0  0
   -3.7686   19.5481   -0.2252 H   0  0  0  0  0  0  0  0  0  0  0  0
   -0.3934   16.2469   -2.0167 H   0  0  0  0  0  0  0  0  0  0  0  0
   -0.2322   16.2268   -4.4268 H   0  0  0  0  0  0  0  0  0  0  0  0
    1.4750   16.7182   -4.3938 H   0  0  0  0  0  0  0  0  0  0  0  0
    0.5162   14.0787   -4.9212 H   0  0  0  0  0  0  0  0  0  0  0  0
    2.1892   14.4605   -4.5219 H   0  0  0  0  0  0  0  0  0  0  0  0
   -0.8899   13.5174   -1.6537 H   0  0  0  0  0  0  0  0  0  0  0  0
   -1.1395   14.3833   -3.2076 H   0  0  0  0  0  0  0  0  0  0  0  0
   -0.7848   12.6224   -3.2076 H   0  0  0  0  0  0  0  0  0  0  0  0
    2.8273   12.9606   -2.7300 H   0  0  0  0  0  0  0  0  0  0  0  0
    1.2390   11.8213   -4.4096 H   0  0  0  0  0  0  0  0  0  0  0  0
    2.4816   10.8471   -3.4633 H   0  0  0  0  0  0  0  0  0  0  0  0
    0.0930    9.7635   -3.7114 H   0  0  0  0  0  0  0  0  0  0  0  0
   -0.2184   12.0513   -0.3999 H   0  0  0  0  0  0  0  0  0  0  0  0
    1.5748    9.6985    0.4624 H   0  0  0  0  0  0  0  0  0  0  0  0
    1.0498   11.1054    1.4896 H   0  0  0  0  0  0  0  0  0  0  0  0
   -0.2460    9.0546    1.9772 H   0  0  0  0  0  0  0  0  0  0  0  0
   -1.2668   10.3977    1.3292 H   0  0  0  0  0  0  0  0  0  0  0  0
   -1.9419    8.3450    0.2856 H   0  0  0  0  0  0  0  0  0  0  0  0
    0.2380    7.3700    0.6300 H   0  0  0  0  0  0  0  0  0  0  0  0
   -2.6865   10.5851   -0.1466 H   0  0  0  0  0  0  0  0  0  0  0  0
   -2.2758   11.3975   -1.6951 H   0  0  0  0  0  0  0  0  0  0  0  0
   -3.3371    9.9483   -1.6951 H   0  0  0  0  0  0  0  0  0  0  0  0
   -1.9043    7.5316   -1.9615 H   0  0  0  0  0  0  0  0  0  0  0  0
   -2.4039    8.8504   -3.0741 H   0  0  0  0  0  0  0  0  0  0  0  0
   -0.7035    8.2712   -3.0741 H   0  0  0  0  0  0  0  0  0  0  0  0
    3.3085   11.2166    0.3123 H   0  0  0  0  0  0  0  0  0  0  0  0
    3.0043   10.3454   -1.2289 H   0  0  0  0  0  0  0  0  0  0  0  0
    3.9694   11.8605   -1.2289 H   0  0  0  0  0  0  0  0  0  0  0  0
    1.5241   13.0605    0.9858 H   0  0  0  0  0  0  0  0  0  0  0  0
    2.9664   13.6871    0.0055 H   0  0  0  0  0  0  0  0  0  0  0  0
    0.0536   14.4730   -0.2820 H   0  0  0  0  0  0  0  0  0  0  0  0
    1.4476   15.4848    0.2671 H   0  0  0  0  0  0  0  0  0  0  0  0
    3.3786   15.4833   -0.9297 H   0  0  0  0  0  0  0  0  0  0  0  0
    3.4742   14.5846   -2.4821 H   0  0  0  0  0  0  0  0  0  0  0  0
    3.0871   16.3387   -2.4821 H   0  0  0  0  0  0  0  0  0  0  0  0
  1  2  1  0
  2  3  1  0
  3  4  1  0
  4  5  1  0
  5  6  1  0
  6  7  1  0
  7  8  1  0
  7  9  1  0
  2 10  1  0
 10 11  1  0
 11 12  1  0
 12 13  1  0
 13 14  1  1
 13 15  1  0
 15 16  1  0
 16 17  1  0
 17 18  2  0
 18 19  1  0
 19 20  1  0
 20 21  1  0
 21 22  1  0
 22 23  1  0
 22 24  1  0
 24 25  1  0
 24 26  1  0
 19 27  1  0
 27 28  1  6
 27 29  1  0
 29 30  1  0
 30 31  1  0
 31 32  1  1
  7  5  1  0
 31 10  1  0
 31 13  1  0
 27 15  1  0
 24 18  1  0
  1 33  1  0
  1 34  1  0
  1 35  1  0
  2 36  1  6
  3 37  1  0
  3 38  1  0
  4 39  1  0
  4 40  1  0
  5 41  1  1
  8 42  1  0
  8 43  1  0
  8 44  1  0
  9 45  1  0
  9 46  1  0
  9 47  1  0
 10 48  1  1
 11 49  1  0
 11 50  1  0
 12 51  1  0
 12 52  1  0
 14 53  1  0
 14 54  1  0
 14 55  1  0
 15 56  1  6
 16 57  1  0
 16 58  1  0
 17 59  1  0
 19 60  1  1
 20 61  1  0
 20 62  1  0
 21 63  1  0
 21 64  1  0
 22 65  1  1
 23 66  1  0
 25 67  1  0
 25 68  1  0
 25 69  1  0
 26 70  1  0
 26 71  1  0
 26 72  1  0
 28 73  1  0
 28 74  1  0
 28 75  1  0
 29 76  1  0
 29 77  1  0
 30 78  1  0
 30 79  1  0
 32 80  1  0
 32 81  1  0
 32 82  1  0
M  END
>  <meeko>  (4) 
{"is_sidechain": [false], "intermolecular_energy": 2.731, "internal_energy": -0.839}

$$$$
EPH_relaxed_0001_pdb2pqr_Repair_21_r2_0001_out
     RDKit          3D

 82 86  0  0  0  0  0  0  0  0999 V2000
   -0.7160    8.6390   -2.3560 C   0  0  0  0  0  0  0  0  0  0  0  0
   -1.2980    9.2100   -1.0600 C   0  0  2  0  0  0  0  0  0  0  0  0
   -2.7840    9.5920   -1.2090 C   0  0  0  0  0  0  0  0  0  0  0  0
   -3.6970    8.9290   -0.1740 C   0  0  0  0  0  0  0  0  0  0  0  0
   -4.2280    7.6160   -0.6630 C   0  0  2  0  0  0  0  0  0  0  0  0
   -4.3080    7.4960   -2.0900 O   0  0  0  0  0  0  0  0  0  0  0  0
   -5.5570    7.4650   -1.3810 C   0  0  0  0  0  0  0  0  0  0  0  0
   -6.4370    8.6460   -1.6480 C   0  0  0  0  0  0  0  0  0  0  0  0
   -6.2200    6.1230   -1.3850 C   0  0  0  0  0  0  0  0  0  0  0  0
   -0.4900   10.4240   -0.6170 C   0  0  1  0  0  0  0  0  0  0  0  0
    0.7410   10.0410    0.2470 C   0  0  0  0  0  0  0  0  0  0  0  0
    1.8650   11.0490   -0.1030 C   0  0  0  0  0  0  0  0  0  0  0  0
    1.1510   12.1690   -0.8970 C   0  0  1  0  0  0  0  0  0  0  0  0
    0.5000   13.0790    0.1910 C   0  0  0  0  0  0  0  0  0  0  0  0
    2.0420   12.9940   -1.8820 C   0  0  2  0  0  0  0  0  0  0  0  0
    3.1800   13.7900   -1.2210 C   0  0  0  0  0  0  0  0  0  0  0  0
    2.8310   15.1840   -0.8140 C   0  0  0  0  0  0  0  0  0  0  0  0
    1.7480   15.8700   -1.2240 C   0  0  0  0  0  0  0  0  0  0  0  0
    0.7890   15.2790   -2.2660 C   0  0  1  0  0  0  0  0  0  0  0  0
    0.4700   16.3500   -3.3410 C   0  0  0  0  0  0  0  0  0  0  0  0
   -0.0540   17.6490   -2.7360 C   0  0  0  0  0  0  0  0  0  0  0  0
    0.9520   18.2360   -1.7490 C   0  0  2  0  0  0  0  0  0  0  0  0
    2.1170   18.6480   -2.4700 O   0  0  0  0  0  0  0  0  0  0  0  0
    1.3570   17.2430   -0.6240 C   0  0  0  0  0  0  0  0  0  0  0  0
    0.1620   17.0310    0.3380 C   0  0  0  0  0  0  0  0  0  0  0  0
    2.4790   17.9080    0.2180 C   0  0  0  0  0  0  0  0  0  0  0  0
    1.2260   13.8890   -2.9000 C   0  0  1  0  0  0  0  0  0  0  0  0
    2.1580   14.1320   -4.1260 C   0  0  0  0  0  0  0  0  0  0  0  0
   -0.0520   13.1530   -3.4530 C   0  0  0  0  0  0  0  0  0  0  0  0
   -0.8210   12.2580   -2.4620 C   0  0  0  0  0  0  0  0  0  0  0  0
    0.1300   11.3090   -1.7270 C   0  0  2  0  0  0  0  0  0  0  0  0
    0.7830   10.3650   -2.7940 C   0  0  0  0  0  0  0  0  0  0  0  0
    0.0500    7.8875   -2.1141 H   0  0  0  0  0  0  0  0  0  0  0  0
   -1.5189    8.1685   -2.9425 H   0  0  0  0  0  0  0  0  0  0  0  0
   -0.2609    9.4508   -2.9425 H   0  0  0  0  0  0  0  0  0  0  0  0
   -1.2350    8.4224   -0.2947 H   0  0  0  0  0  0  0  0  0  0  0  0
   -2.8743   10.6832   -1.1033 H   0  0  0  0  0  0  0  0  0  0  0  0
   -3.1092    9.2376   -2.1983 H   0  0  0  0  0  0  0  0  0  0  0  0
   -3.1246    8.7601    0.7500 H   0  0  0  0  0  0  0  0  0  0  0  0
   -4.5512    9.5978    0.0079 H   0  0  0  0  0  0  0  0  0  0  0  0
   -3.7918    7.0919    0.2002 H   0  0  0  0  0  0  0  0  0  0  0  0
   -6.7631    9.0836   -0.6929 H   0  0  0  0  0  0  0  0  0  0  0  0
   -5.8771    9.3978   -2.2236 H   0  0  0  0  0  0  0  0  0  0  0  0
   -7.3175    8.3245   -2.2236 H   0  0  0  0  0  0  0  0  0  0  0  0
   -6.3836    5.7918   -0.3489 H   0  0  0  0  0  0  0  0  0  0  0  0
   -7.1870    6.1933   -1.9045 H   0  0  0  0  0  0  0  0  0  0  0  0
   -5.5766    5.3977   -1.9045 H   0  0  0  0  0  0  0  0  0  0  0  0
   -1.2742   10.9820   -0.0844 H   0  0  0  0  0  0  0  0  0  0  0  0
    0.4898   10.1100    1.3157 H   0  0  0  0  0  0  0  0  0  0  0  0
    1.0599    9.0081    0.0436 H   0  0  0  0  0  0  0  0  0  0  0  0
    2.3231   11.4530    0.8118 H   0  0  0  0  0  0  0  0  0  0  0  0
    2.6788   10.5834   -0.6783 H   0  0  0  0  0  0  0  0  0  0  0  0
    0.7677   12.7048    1.1901 H   0  0  0  0  0  0  0  0  0  0  0  0
    0.8672   14.1094    0.0749 H   0  0  0  0  0  0  0  0  0  0  0  0
   -0.5938   13.0642    0.0749 H   0  0  0  0  0  0  0  0  0  0  0  0
    2.5323   12.2060   -2.4725 H   0  0  0  0  0  0  0  0  0  0  0  0
    3.4993   13.2432   -0.3215 H   0  0  0  0  0  0  0  0  0  0  0  0
    3.9680   13.8837   -1.9827 H   0  0  0  0  0  0  0  0  0  0  0  0
    3.5169   15.6929   -0.1207 H   0  0  0  0  0  0  0  0  0  0  0  0
   -0.1283   15.0133   -1.7201 H   0  0  0  0  0  0  0  0  0  0  0  0
    1.3892   16.5690   -3.9041 H   0  0  0  0  0  0  0  0  0  0  0  0
   -0.3175   15.9441   -3.9930 H   0  0  0  0  0  0  0  0  0  0  0  0
   -0.2328   18.3753   -3.5425 H   0  0  0  0  0  0  0  0  0  0  0  0
   -0.9890   17.4337   -2.1980 H   0  0  0  0  0  0  0  0  0  0  0  0
    0.4686   19.0907   -1.2532 H   0  0  0  0  0  0  0  0  0  0  0  0
    1.8420   18.8600   -3.3780 H   0  0  0  0  0  0  0  0  0  0  0  0
    0.5134   17.0933    1.3785 H   0  0  0  0  0  0  0  0  0  0  0  0
   -0.5950   17.8089    0.1594 H   0  0  0  0  0  0  0  0  0  0  0  0
   -0.2812   16.0402    0.1594 H   0  0  0  0  0  0  0  0  0  0  0  0
    2.2601   17.7783    1.2882 H   0  0  0  0  0  0  0  0  0  0  0  0
    3.4439   17.4358   -0.0188 H   0  0  0  0  0  0  0  0  0  0  0  0
    2.5280   18.9811   -0.0188 H   0  0  0  0  0  0  0  0  0  0  0  0
    3.1663   14.3949   -3.7736 H   0  0  0  0  0  0  0  0  0  0  0  0
    2.2092   13.2172   -4.7347 H   0  0  0  0  0  0  0  0  0  0  0  0
    1.7560   14.9554   -4.7347 H   0  0  0  0  0  0  0  0  0  0  0  0
   -0.7487   13.9230   -3.8158 H   0  0  0  0  0  0  0  0  0  0  0  0
    0.3226   12.4686   -4.2284 H   0  0  0  0  0  0  0  0  0  0  0  0
   -1.3338   12.8945   -1.7259 H   0  0  0  0  0  0  0  0  0  0  0  0
   -1.5494   11.6566   -3.0257 H   0  0  0  0  0  0  0  0  0  0  0  0
    1.3375    9.5634   -2.2840 H   0  0  0  0  0  0  0  0  0  0  0  0
   -0.0037    9.9235   -3.4234 H   0  0  0  0  0  0  0  0  0  0  0  0
    1.4736   10.9454   -3.4234 H   0  0  0  0  0  0  0  0  0  0  0  0
  1  2  1  0
  2  3  1  0
  3  4  1  0
  4  5  1  0
  5  6  1  0
  6  7  1  0
  7  8  1  0
  7  9  1  0
  2 10  1  0
 10 11  1  0
 11 12  1  0
 12 13  1  0
 13 14  1  1
 13 15  1  0
 15 16  1  0
 16 17  1  0
 17 18  2  0
 18 19  1  0
 19 20  1  0
 20 21  1  0
 21 22  1  0
 22 23  1  0
 22 24  1  0
 24 25  1  0
 24 26  1  0
 19 27  1  0
 27 28  1  6
 27 29  1  0
 29 30  1  0
 30 31  1  0
 31 32  1  6
  7  5  1  0
 31 10  1  0
 31 13  1  0
 27 15  1  0
 24 18  1  0
  1 33  1  0
  1 34  1  0
  1 35  1  0
  2 36  1  1
  3 37  1  0
  3 38  1  0
  4 39  1  0
  4 40  1  0
  5 41  1  1
  8 42  1  0
  8 43  1  0
  8 44  1  0
  9 45  1  0
  9 46  1  0
  9 47  1  0
 10 48  1  1
 11 49  1  0
 11 50  1  0
 12 51  1  0
 12 52  1  0
 14 53  1  0
 14 54  1  0
 14 55  1  0
 15 56  1  6
 16 57  1  0
 16 58  1  0
 17 59  1  0
 19 60  1  1
 20 61  1  0
 20 62  1  0
 21 63  1  0
 21 64  1  0
 22 65  1  1
 23 66  1  0
 25 67  1  0
 25 68  1  0
 25 69  1  0
 26 70  1  0
 26 71  1  0
 26 72  1  0
 28 73  1  0
 28 74  1  0
 28 75  1  0
 29 76  1  0
 29 77  1  0
 30 78  1  0
 30 79  1  0
 32 80  1  0
 32 81  1  0
 32 82  1  0
M  END
>  <meeko>  (5) 
{"is_sidechain": [false], "intermolecular_energy": 2.731, "internal_energy": -0.839}

$$$$
EPH_relaxed_0001_pdb2pqr_Repair_21_r2_0001_out
     RDKit          3D

 82 86  0  0  0  0  0  0  0  0999 V2000
    3.9980   17.8060    0.4230 C   0  0  0  0  0  0  0  0  0  0  0  0
    2.8460   18.2980   -0.4570 C   0  0  2  0  0  0  0  0  0  0  0  0
    2.1730   19.5600    0.1200 C   0  0  0  0  0  0  0  0  0  0  0  0
    0.9280   19.2640    0.9600 C   0  0  0  0  0  0  0  0  0  0  0  0
   -0.2730   20.0000    0.4490 C   0  0  2  0  0  0  0  0  0  0  0  0
   -1.3230   20.1720    1.4100 O   0  0  0  0  0  0  0  0  0  0  0  0
   -1.6350   19.3550    0.2700 C   0  0  0  0  0  0  0  0  0  0  0  0
   -1.8650   17.9130    0.5990 C   0  0  0  0  0  0  0  0  0  0  0  0
   -2.6070   19.9870   -0.6770 C   0  0  0  0  0  0  0  0  0  0  0  0
    1.8140   17.1900   -0.6290 C   0  0  1  0  0  0  0  0  0  0  0  0
    0.5810   17.6450   -1.4560 C   0  0  0  0  0  0  0  0  0  0  0  0
    0.1200   16.4180   -2.2840 C   0  0  0  0  0  0  0  0  0  0  0  0
    0.8830   15.2220   -1.6670 C   0  0  1  0  0  0  0  0  0  0  0  0
    0.0600   14.8340   -0.3990 C   0  0  0  0  0  0  0  0  0  0  0  0
    1.1140   13.9930   -2.6040 C   0  0  2  0  0  0  0  0  0  0  0  0
   -0.1670   13.2960   -3.0940 C   0  0  0  0  0  0  0  0  0  0  0  0
   -0.6610   12.1860   -2.2260 C   0  0  0  0  0  0  0  0  0  0  0  0
    0.0470   11.5760   -1.2570 C   0  0  0  0  0  0  0  0  0  0  0  0
    1.5210   11.9280   -1.0190 C   0  0  1  0  0  0  0  0  0  0  0  0
    2.3470   10.6240   -0.8720 C   0  0  0  0  0  0  0  0  0  0  0  0
    1.7880    9.6940    0.2010 C   0  0  0  0  0  0  0  0  0  0  0  0
    0.3400    9.3210   -0.1020 C   0  0  2  0  0  0  0  0  0  0  0  0
    0.3080    8.5200   -1.2880 O   0  0  0  0  0  0  0  0  0  0  0  0
   -0.5870   10.5550   -0.2800 C   0  0  0  0  0  0  0  0  0  0  0  0
   -0.7930   11.2540    1.0870 C   0  0  0  0  0  0  0  0  0  0  0  0
   -1.9850   10.0430   -0.7210 C   0  0  0  0  0  0  0  0  0  0  0  0
    2.1660   12.9470   -2.0530 C   0  0  1  0  0  0  0  0  0  0  0  0
    2.7140   12.1730   -3.2910 C   0  0  0  0  0  0  0  0  0  0  0  0
    3.4080   13.6450   -1.3820 C   0  0  0  0  0  0  0  0  0  0  0  0
    3.1300   14.9230   -0.5670 C   0  0  0  0  0  0  0  0  0  0  0  0
    2.2670   15.9050   -1.3660 C   0  0  2  0  0  0  0  0  0  0  0  0
    3.0780   16.3310   -2.6370 C   0  0  0  0  0  0  0  0  0  0  0  0
    3.7257   17.9223    1.4824 H   0  0  0  0  0  0  0  0  0  0  0  0
    4.1953   16.7451    0.2095 H   0  0  0  0  0  0  0  0  0  0  0  0
    4.9008   18.3971    0.2095 H   0  0  0  0  0  0  0  0  0  0  0  0
    3.2688   18.5675   -1.4361 H   0  0  0  0  0  0  0  0  0  0  0  0
    2.9033   20.0839    0.7542 H   0  0  0  0  0  0  0  0  0  0  0  0
    1.8462   20.1696   -0.7353 H   0  0  0  0  0  0  0  0  0  0  0  0
    0.7245   18.1835    0.9273 H   0  0  0  0  0  0  0  0  0  0  0  0
    1.1220   19.5976    1.9901 H   0  0  0  0  0  0  0  0  0  0  0  0
    0.3530   20.6018   -0.2262 H   0  0  0  0  0  0  0  0  0  0  0  0
   -1.8854   17.7849    1.6913 H   0  0  0  0  0  0  0  0  0  0  0  0
   -2.8262   17.5887    0.1737 H   0  0  0  0  0  0  0  0  0  0  0  0
   -1.0524   17.3057    0.1737 H   0  0  0  0  0  0  0  0  0  0  0  0
   -3.3951   20.4994   -0.1057 H   0  0  0  0  0  0  0  0  0  0  0  0
   -2.0805   20.7160   -1.3106 H   0  0  0  0  0  0  0  0  0  0  0  0
   -3.0597   19.2100   -1.3106 H   0  0  0  0  0  0  0  0  0  0  0  0
    1.6068   16.9651    0.4276 H   0  0  0  0  0  0  0  0  0  0  0  0
   -0.2257   17.9732   -0.7840 H   0  0  0  0  0  0  0  0  0  0  0  0
    0.8356   18.4907   -2.1117 H   0  0  0  0  0  0  0  0  0  0  0  0
   -0.9667   16.2741   -2.1928 H   0  0  0  0  0  0  0  0  0  0  0  0
    0.3286   16.5369   -3.3575 H   0  0  0  0  0  0  0  0  0  0  0  0
    0.6288   15.1022    0.5035 H   0  0  0  0  0  0  0  0  0  0  0  0
   -0.8974   15.3756   -0.4034 H   0  0  0  0  0  0  0  0  0  0  0  0
   -0.1314   13.7508   -0.4034 H   0  0  0  0  0  0  0  0  0  0  0  0
    1.5612   14.4569   -3.4955 H   0  0  0  0  0  0  0  0  0  0  0  0
   -0.9615   14.0537   -3.1619 H   0  0  0  0  0  0  0  0  0  0  0  0
    0.0873   12.8364   -4.0605 H   0  0  0  0  0  0  0  0  0  0  0  0
   -1.6908   11.8371   -2.3925 H   0  0  0  0  0  0  0  0  0  0  0  0
    1.5503   12.4959   -0.0774 H   0  0  0  0  0  0  0  0  0  0  0  0
    2.3424   10.0934   -1.8355 H   0  0  0  0  0  0  0  0  0  0  0  0
    3.3662   10.9070   -0.5700 H   0  0  0  0  0  0  0  0  0  0  0  0
    2.3960    8.7780    0.2360 H   0  0  0  0  0  0  0  0  0  0  0  0
    1.8214   10.2147    1.1694 H   0  0  0  0  0  0  0  0  0  0  0  0
   -0.0443    8.7631    0.7647 H   0  0  0  0  0  0  0  0  0  0  0  0
   -0.0780    9.0610   -1.9970 H   0  0  0  0  0  0  0  0  0  0  0  0
   -0.5831   10.5416    1.8984 H   0  0  0  0  0  0  0  0  0  0  0  0
   -0.1096   12.1123    1.1666 H   0  0  0  0  0  0  0  0  0  0  0  0
   -1.8326   11.6045    1.1666 H   0  0  0  0  0  0  0  0  0  0  0  0
   -2.5917    9.8208    0.1692 H   0  0  0  0  0  0  0  0  0  0  0  0
   -2.4857   10.8161   -1.3223 H   0  0  0  0  0  0  0  0  0  0  0  0
   -1.8680    9.1294   -1.3223 H   0  0  0  0  0  0  0  0  0  0  0  0
    3.3186   11.3191   -2.9514 H   0  0  0  0  0  0  0  0  0  0  0  0
    1.8720   11.8080   -3.8974 H   0  0  0  0  0  0  0  0  0  0  0  0
    3.3380   12.8460   -3.8974 H   0  0  0  0  0  0  0  0  0  0  0  0
    3.8755   12.9141   -0.7058 H   0  0  0  0  0  0  0  0  0  0  0  0
    4.0430   13.9699   -2.2194 H   0  0  0  0  0  0  0  0  0  0  0  0
    2.6026   14.6516    0.3594 H   0  0  0  0  0  0  0  0  0  0  0  0
    4.0900   15.4074   -0.3352 H   0  0  0  0  0  0  0  0  0  0  0  0
    4.0126   16.8219   -2.3281 H   0  0  0  0  0  0  0  0  0  0  0  0
    3.3130   15.4400   -3.2377 H   0  0  0  0  0  0  0  0  0  0  0  0
    2.4777   17.0302   -3.2377 H   0  0  0  0  0  0  0  0  0  0  0  0
  1  2  1  0
  2  3  1  0
  3  4  1  0
  4  5  1  0
  5  6  1  0
  6  7  1  0
  7  8  1  0
  7  9  1  0
  2 10  1  0
 10 11  1  0
 11 12  1  0
 12 13  1  0
 13 14  1  1
 13 15  1  0
 15 16  1  0
 16 17  1  0
 17 18  2  0
 18 19  1  0
 19 20  1  0
 20 21  1  0
 21 22  1  0
 22 23  1  0
 22 24  1  0
 24 25  1  0
 24 26  1  0
 19 27  1  0
 27 28  1  6
 27 29  1  0
 29 30  1  0
 30 31  1  0
 31 32  1  6
  7  5  1  0
 31 10  1  0
 31 13  1  0
 27 15  1  0
 24 18  1  0
  1 33  1  0
  1 34  1  0
  1 35  1  0
  2 36  1  6
  3 37  1  0
  3 38  1  0
  4 39  1  0
  4 40  1  0
  5 41  1  6
  8 42  1  0
  8 43  1  0
  8 44  1  0
  9 45  1  0
  9 46  1  0
  9 47  1  0
 10 48  1  1
 11 49  1  0
 11 50  1  0
 12 51  1  0
 12 52  1  0
 14 53  1  0
 14 54  1  0
 14 55  1  0
 15 56  1  6
 16 57  1  0
 16 58  1  0
 17 59  1  0
 19 60  1  1
 20 61  1  0
 20 62  1  0
 21 63  1  0
 21 64  1  0
 22 65  1  1
 23 66  1  0
 25 67  1  0
 25 68  1  0
 25 69  1  0
 26 70  1  0
 26 71  1  0
 26 72  1  0
 28 73  1  0
 28 74  1  0
 28 75  1  0
 29 76  1  0
 29 77  1  0
 30 78  1  0
 30 79  1  0
 32 80  1  0
 32 81  1  0
 32 82  1  0
M  END
>  <meeko>  (6) 
{"is_sidechain": [false], "intermolecular_energy": 2.731, "internal_energy": -0.839}

$$$$
EPH_relaxed_0001_pdb2pqr_Repair_21_r2_0001_out
     RDKit          3D

 82 86  0  0  0  0  0  0  0  0999 V2000
   -5.1380    5.8560   -1.7200 C   0  0  0  0  0  0  0  0  0  0  0  0
   -5.4450    7.3540   -1.7910 C   0  0  2  0  0  0  0  0  0  0  0  0
   -5.2210    8.0580   -0.4370 C   0  0  0  0  0  0  0  0  0  0  0  0
   -4.1790    9.1790   -0.4910 C   0  0  0  0  0  0  0  0  0  0  0  0
   -2.8190    8.6550   -0.8390 C   0  0  2  0  0  0  0  0  0  0  0  0
   -1.7930    8.9780    0.1090 O   0  0  0  0  0  0  0  0  0  0  0  0
   -1.6470    9.5480   -1.2020 C   0  0  0  0  0  0  0  0  0  0  0  0
   -1.7820   11.0380   -1.2360 C   0  0  0  0  0  0  0  0  0  0  0  0
   -0.5180    8.9610   -1.9920 C   0  0  0  0  0  0  0  0  0  0  0  0
   -6.8800    7.5690   -2.2590 C   0  0  1  0  0  0  0  0  0  0  0  0
   -7.1800    6.8630   -3.6070 C   0  0  0  0  0  0  0  0  0  0  0  0
   -8.6530    6.3820   -3.5420 C   0  0  0  0  0  0  0  0  0  0  0  0
   -9.2460    7.1090   -2.3120 C   0  0  1  0  0  0  0  0  0  0  0  0
   -9.6040    8.5390   -2.8240 C   0  0  0  0  0  0  0  0  0  0  0  0
  -10.4690    6.4180   -1.6260 C   0  0  2  0  0  0  0  0  0  0  0  0
  -11.7210    6.2800   -2.5100 C   0  0  0  0  0  0  0  0  0  0  0  0
  -12.6820    7.4200   -2.4380 C   0  0  0  0  0  0  0  0  0  0  0  0
  -12.6930    8.3760   -1.4890 C   0  0  0  0  0  0  0  0  0  0  0  0
  -11.7300    8.3120   -0.2970 C   0  0  1  0  0  0  0  0  0  0  0  0
  -12.5100    8.5950    1.0140 C   0  0  0  0  0  0  0  0  0  0  0  0
  -13.2870    9.9070    0.9610 C   0  0  0  0  0  0  0  0  0  0  0  0
  -14.2740    9.9090   -0.2030 C   0  0  2  0  0  0  0  0  0  0  0  0
  -15.2870    8.9300    0.0500 O   0  0  0  0  0  0  0  0  0  0  0  0
  -13.6040    9.6240   -1.5760 C   0  0  0  0  0  0  0  0  0  0  0  0
  -12.7320   10.8350   -1.9910 C   0  0  0  0  0  0  0  0  0  0  0  0
  -14.7270    9.5140   -2.6420 C   0  0  0  0  0  0  0  0  0  0  0  0
  -10.8300    7.0050   -0.2010 C   0  0  1  0  0  0  0  0  0  0  0  0
  -11.6000    5.8840    0.5610 C   0  0  0  0  0  0  0  0  0  0  0  0
   -9.5480    7.3260    0.6560 C   0  0  0  0  0  0  0  0  0  0  0  0
   -8.3320    7.8940   -0.0990 C   0  0  0  0  0  0  0  0  0  0  0  0
   -8.0130    7.0510   -1.3380 C   0  0  2  0  0  0  0  0  0  0  0  0
   -7.6270    5.6130   -0.8520 C   0  0  0  0  0  0  0  0  0  0  0  0
   -5.0741    5.5443   -0.6670 H   0  0  0  0  0  0  0  0  0  0  0  0
   -5.9395    5.2933   -2.2210 H   0  0  0  0  0  0  0  0  0  0  0  0
   -4.1798    5.6539   -2.2210 H   0  0  0  0  0  0  0  0  0  0  0  0
   -4.7471    7.8007   -2.5145 H   0  0  0  0  0  0  0  0  0  0  0  0
   -6.1778    8.4889   -0.1071 H   0  0  0  0  0  0  0  0  0  0  0  0
   -4.8399    7.2982    0.2612 H   0  0  0  0  0  0  0  0  0  0  0  0
   -4.4838    9.9127   -1.2518 H   0  0  0  0  0  0  0  0  0  0  0  0
   -4.1231    9.6436    0.5045 H   0  0  0  0  0  0  0  0  0  0  0  0
   -3.2576    7.7757   -1.3334 H   0  0  0  0  0  0  0  0  0  0  0  0
   -1.8172   11.4265   -0.2075 H   0  0  0  0  0  0  0  0  0  0  0  0
   -0.9195   11.4724   -1.7627 H   0  0  0  0  0  0  0  0  0  0  0  0
   -2.7085   11.3103   -1.7627 H   0  0  0  0  0  0  0  0  0  0  0  0
    0.2437    8.5650   -1.3043 H   0  0  0  0  0  0  0  0  0  0  0  0
   -0.8986    8.1466   -2.6259 H   0  0  0  0  0  0  0  0  0  0  0  0
   -0.0700    9.7403   -2.6259 H   0  0  0  0  0  0  0  0  0  0  0  0
   -6.8995    8.6682   -2.2972 H   0  0  0  0  0  0  0  0  0  0  0  0
   -7.0481    7.5677   -4.4413 H   0  0  0  0  0  0  0  0  0  0  0  0
   -6.4954    6.0178   -3.7712 H   0  0  0  0  0  0  0  0  0  0  0  0
   -9.1942    6.6629   -4.4575 H   0  0  0  0  0  0  0  0  0  0  0  0
   -8.7317    5.2880   -3.4584 H   0  0  0  0  0  0  0  0  0  0  0  0
   -9.7708    9.2051   -1.9646 H   0  0  0  0  0  0  0  0  0  0  0  0
   -8.7755    8.9281   -3.4341 H   0  0  0  0  0  0  0  0  0  0  0  0
  -10.5181    8.4918   -3.4341 H   0  0  0  0  0  0  0  0  0  0  0  0
  -10.1016    5.3936   -1.4659 H   0  0  0  0  0  0  0  0  0  0  0  0
  -11.3902    6.1799   -3.5543 H   0  0  0  0  0  0  0  0  0  0  0  0
  -12.2638    5.4006   -2.1332 H   0  0  0  0  0  0  0  0  0  0  0  0
  -13.4460    7.4849   -3.2268 H   0  0  0  0  0  0  0  0  0  0  0  0
  -10.9839    9.1023   -0.4664 H   0  0  0  0  0  0  0  0  0  0  0  0
  -13.2191    7.7720    1.1871 H   0  0  0  0  0  0  0  0  0  0  0  0
  -11.7755    8.6747    1.8289 H   0  0  0  0  0  0  0  0  0  0  0  0
  -13.8406   10.0360    1.9028 H   0  0  0  0  0  0  0  0  0  0  0  0
  -12.5738   10.7322    0.8183 H   0  0  0  0  0  0  0  0  0  0  0  0
  -14.7044   10.9192   -0.2681 H   0  0  0  0  0  0  0  0  0  0  0  0
  -15.6640    9.1170    0.9260 H   0  0  0  0  0  0  0  0  0  0  0  0
  -12.3632   11.3472   -1.0901 H   0  0  0  0  0  0  0  0  0  0  0  0
  -11.8779   10.4841   -2.5888 H   0  0  0  0  0  0  0  0  0  0  0  0
  -13.3356   11.5338   -2.5888 H   0  0  0  0  0  0  0  0  0  0  0  0
  -15.7011    9.4186   -2.1399 H   0  0  0  0  0  0  0  0  0  0  0  0
  -14.7254   10.4166   -3.2707 H   0  0  0  0  0  0  0  0  0  0  0  0
  -14.5503    8.6289   -3.2707 H   0  0  0  0  0  0  0  0  0  0  0  0
  -11.4941    6.0382    1.6450 H   0  0  0  0  0  0  0  0  0  0  0  0
  -12.6649    5.9199    0.2879 H   0  0  0  0  0  0  0  0  0  0  0  0
  -11.1843    4.9029    0.2879 H   0  0  0  0  0  0  0  0  0  0  0  0
   -9.8358    8.0599    1.4232 H   0  0  0  0  0  0  0  0  0  0  0  0
   -9.2143    6.3545    1.0494 H   0  0  0  0  0  0  0  0  0  0  0  0
   -8.5525    8.9251   -0.4123 H   0  0  0  0  0  0  0  0  0  0  0  0
   -7.4612    7.8736    0.5728 H   0  0  0  0  0  0  0  0  0  0  0  0
   -7.6201    5.5872    0.2477 H   0  0  0  0  0  0  0  0  0  0  0  0
   -8.3624    4.8881   -1.2312 H   0  0  0  0  0  0  0  0  0  0  0  0
   -6.6275    5.3538   -1.2312 H   0  0  0  0  0  0  0  0  0  0  0  0
  1  2  1  0
  2  3  1  0
  3  4  1  0
  4  5  1  0
  5  6  1  0
  6  7  1  0
  7  8  1  0
  7  9  1  0
  2 10  1  0
 10 11  1  0
 11 12  1  0
 12 13  1  0
 13 14  1  6
 13 15  1  0
 15 16  1  0
 16 17  1  0
 17 18  2  0
 18 19  1  0
 19 20  1  0
 20 21  1  0
 21 22  1  0
 22 23  1  0
 22 24  1  0
 24 25  1  0
 24 26  1  0
 19 27  1  0
 27 28  1  1
 27 29  1  0
 29 30  1  0
 30 31  1  0
 31 32  1  1
  7  5  1  0
 31 10  1  0
 31 13  1  0
 27 15  1  0
 24 18  1  0
  1 33  1  0
  1 34  1  0
  1 35  1  0
  2 36  1  6
  3 37  1  0
  3 38  1  0
  4 39  1  0
  4 40  1  0
  5 41  1  6
  8 42  1  0
  8 43  1  0
  8 44  1  0
  9 45  1  0
  9 46  1  0
  9 47  1  0
 10 48  1  6
 11 49  1  0
 11 50  1  0
 12 51  1  0
 12 52  1  0
 14 53  1  0
 14 54  1  0
 14 55  1  0
 15 56  1  1
 16 57  1  0
 16 58  1  0
 17 59  1  0
 19 60  1  6
 20 61  1  0
 20 62  1  0
 21 63  1  0
 21 64  1  0
 22 65  1  6
 23 66  1  0
 25 67  1  0
 25 68  1  0
 25 69  1  0
 26 70  1  0
 26 71  1  0
 26 72  1  0
 28 73  1  0
 28 74  1  0
 28 75  1  0
 29 76  1  0
 29 77  1  0
 30 78  1  0
 30 79  1  0
 32 80  1  0
 32 81  1  0
 32 82  1  0
M  END
>  <meeko>  (7) 
{"is_sidechain": [false], "intermolecular_energy": 2.731, "internal_energy": -0.839}

$$$$
EPH_relaxed_0001_pdb2pqr_Repair_21_r2_0001_out
     RDKit          3D

 82 86  0  0  0  0  0  0  0  0999 V2000
    0.4420    8.7980   -2.3580 C   0  0  0  0  0  0  0  0  0  0  0  0
    1.1790    9.9400   -3.0630 C   0  0  2  0  0  0  0  0  0  0  0  0
    2.6810    9.9640   -2.7160 C   0  0  0  0  0  0  0  0  0  0  0  0
    3.5550   10.5870   -3.8080 C   0  0  0  0  0  0  0  0  0  0  0  0
    4.9540   10.8290   -3.3280 C   0  0  2  0  0  0  0  0  0  0  0  0
    5.5530   12.0380   -3.8140 O   0  0  0  0  0  0  0  0  0  0  0  0
    6.1660   10.8100   -4.2390 C   0  0  0  0  0  0  0  0  0  0  0  0
    6.0360   10.5410   -5.7060 C   0  0  0  0  0  0  0  0  0  0  0  0
    7.5140   10.5680   -3.6330 C   0  0  0  0  0  0  0  0  0  0  0  0
    0.5390   11.2750   -2.6970 C   0  0  1  0  0  0  0  0  0  0  0  0
   -0.8370   11.1060   -2.0000 C   0  0  0  0  0  0  0  0  0  0  0  0
   -0.9530   12.2480   -0.9570 C   0  0  0  0  0  0  0  0  0  0  0  0
    0.1960   13.2200   -1.3140 C   0  0  1  0  0  0  0  0  0  0  0  0
   -0.3550   14.0750   -2.4970 C   0  0  0  0  0  0  0  0  0  0  0  0
    0.7270   14.1190   -0.1500 C   0  0  2  0  0  0  0  0  0  0  0  0
   -0.3040   15.0960    0.4420 C   0  0  0  0  0  0  0  0  0  0  0  0
   -0.3490   16.4420   -0.2020 C   0  0  0  0  0  0  0  0  0  0  0  0
    0.5920   16.9500   -1.0190 C   0  0  0  0  0  0  0  0  0  0  0  0
    1.8930   16.1860   -1.2930 C   0  0  1  0  0  0  0  0  0  0  0  0
    3.0990   17.1540   -1.1660 C   0  0  0  0  0  0  0  0  0  0  0  0
    2.9520   18.3910   -2.0470 C   0  0  0  0  0  0  0  0  0  0  0  0
    1.6760   19.1550   -1.7050 C   0  0  2  0  0  0  0  0  0  0  0  0
    1.8020   19.6970   -0.3870 O   0  0  0  0  0  0  0  0  0  0  0  0
    0.3950   18.2790   -1.7900 C   0  0  0  0  0  0  0  0  0  0  0  0
    0.0920   17.9420   -3.2710 C   0  0  0  0  0  0  0  0  0  0  0  0
   -0.8010   19.1310   -1.2850 C   0  0  0  0  0  0  0  0  0  0  0  0
    2.0970   14.8450   -0.4650 C   0  0  1  0  0  0  0  0  0  0  0  0
    2.7580   15.1640    0.9110 C   0  0  0  0  0  0  0  0  0  0  0  0
    3.1050   13.9130   -1.2360 C   0  0  0  0  0  0  0  0  0  0  0  0
    2.5050   12.9620   -2.2890 C   0  0  0  0  0  0  0  0  0  0  0  0
    1.3130   12.1890   -1.7150 C   0  0  2  0  0  0  0  0  0  0  0  0
    1.8410   11.3020   -0.5360 C   0  0  0  0  0  0  0  0  0  0  0  0
    0.5244    8.9257   -1.2686 H   0  0  0  0  0  0  0  0  0  0  0  0
   -0.6186    8.8109   -2.6495 H   0  0  0  0  0  0  0  0  0  0  0  0
    0.8907    7.8369   -2.6495 H   0  0  0  0  0  0  0  0  0  0  0  0
    1.0933    9.7701   -4.1464 H   0  0  0  0  0  0  0  0  0  0  0  0
    2.8145   10.5443   -1.7911 H   0  0  0  0  0  0  0  0  0  0  0  0
    3.0021    8.9178   -2.6051 H   0  0  0  0  0  0  0  0  0  0  0  0
    3.5871    9.9055   -4.6708 H   0  0  0  0  0  0  0  0  0  0  0  0
    3.1159   11.5562   -4.0871 H   0  0  0  0  0  0  0  0  0  0  0  0
    4.7396   10.3230   -2.3751 H   0  0  0  0  0  0  0  0  0  0  0  0
    5.5620    9.5601   -5.8583 H   0  0  0  0  0  0  0  0  0  0  0  0
    5.4166   11.3234   -6.1688 H   0  0  0  0  0  0  0  0  0  0  0  0
    7.0339   10.5418   -6.1688 H   0  0  0  0  0  0  0  0  0  0  0  0
    7.4310   10.5829   -2.5362 H   0  0  0  0  0  0  0  0  0  0  0  0
    7.8919    9.5877   -3.9588 H   0  0  0  0  0  0  0  0  0  0  0  0
    8.2093   11.3557   -3.9588 H   0  0  0  0  0  0  0  0  0  0  0  0
    0.5005   11.7405   -3.6929 H   0  0  0  0  0  0  0  0  0  0  0  0
   -1.6481   11.1839   -2.7389 H   0  0  0  0  0  0  0  0  0  0  0  0
   -0.9172   10.1207   -1.5176 H   0  0  0  0  0  0  0  0  0  0  0  0
   -1.9275   12.7516   -1.0392 H   0  0  0  0  0  0  0  0  0  0  0  0
   -0.8809   11.8782    0.0765 H   0  0  0  0  0  0  0  0  0  0  0  0
   -0.9105   14.9369   -2.0989 H   0  0  0  0  0  0  0  0  0  0  0  0
    0.4835   14.4320   -3.1131 H   0  0  0  0  0  0  0  0  0  0  0  0
   -1.0265   13.4589   -3.1131 H   0  0  0  0  0  0  0  0  0  0  0  0
    0.9307   13.3835    0.6422 H   0  0  0  0  0  0  0  0  0  0  0  0
   -1.3000   14.6392    0.3451 H   0  0  0  0  0  0  0  0  0  0  0  0
    0.0022   15.2672    1.4846 H   0  0  0  0  0  0  0  0  0  0  0  0
   -1.2256   17.0720    0.0092 H   0  0  0  0  0  0  0  0  0  0  0  0
    1.8174   15.8179   -2.3268 H   0  0  0  0  0  0  0  0  0  0  0  0
    3.1838   17.4759   -0.1176 H   0  0  0  0  0  0  0  0  0  0  0  0
    3.9976   16.6130   -1.4975 H   0  0  0  0  0  0  0  0  0  0  0  0
    3.8190   19.0497   -1.8905 H   0  0  0  0  0  0  0  0  0  0  0  0
    2.8982   18.0697   -3.0976 H   0  0  0  0  0  0  0  0  0  0  0  0
    1.5596   19.9531   -2.4530 H   0  0  0  0  0  0  0  0  0  0  0  0
    1.9820   18.9580    0.2190 H   0  0  0  0  0  0  0  0  0  0  0  0
   -0.6428   17.1248   -3.3182 H   0  0  0  0  0  0  0  0  0  0  0  0
   -0.3161   18.8314   -3.7734 H   0  0  0  0  0  0  0  0  0  0  0  0
    1.0197   17.6304   -3.7734 H   0  0  0  0  0  0  0  0  0  0  0  0
   -0.8087   19.1365   -0.1850 H   0  0  0  0  0  0  0  0  0  0  0  0
   -0.6996   20.1615   -1.6561 H   0  0  0  0  0  0  0  0  0  0  0  0
   -1.7419   18.6985   -1.6561 H   0  0  0  0  0  0  0  0  0  0  0  0
    2.0893   14.8413    1.7226 H   0  0  0  0  0  0  0  0  0  0  0  0
    3.7158   14.6290    0.9905 H   0  0  0  0  0  0  0  0  0  0  0  0
    2.9351   16.2467    0.9905 H   0  0  0  0  0  0  0  0  0  0  0  0
    3.8319   14.5606   -1.7481 H   0  0  0  0  0  0  0  0  0  0  0  0
    3.5355   13.2555   -0.4663 H   0  0  0  0  0  0  0  0  0  0  0  0
    2.1686   13.5507   -3.1552 H   0  0  0  0  0  0  0  0  0  0  0  0
    3.2784   12.2402   -2.5905 H   0  0  0  0  0  0  0  0  0  0  0  0
    1.5654   11.7649    0.4230 H   0  0  0  0  0  0  0  0  0  0  0  0
    1.3923   10.2998   -0.6017 H   0  0  0  0  0  0  0  0  0  0  0  0
    2.9359   11.2186   -0.6017 H   0  0  0  0  0  0  0  0  0  0  0  0
  1  2  1  0
  2  3  1  0
  3  4  1  0
  4  5  1  0
  5  6  1  0
  6  7  1  0
  7  8  1  0
  7  9  1  0
  2 10  1  0
 10 11  1  0
 11 12  1  0
 12 13  1  0
 13 14  1  6
 13 15  1  0
 15 16  1  0
 16 17  1  0
 17 18  2  0
 18 19  1  0
 19 20  1  0
 20 21  1  0
 21 22  1  0
 22 23  1  0
 22 24  1  0
 24 25  1  0
 24 26  1  0
 19 27  1  0
 27 28  1  1
 27 29  1  0
 29 30  1  0
 30 31  1  0
 31 32  1  1
  7  5  1  0
 31 10  1  0
 31 13  1  0
 27 15  1  0
 24 18  1  0
  1 33  1  0
  1 34  1  0
  1 35  1  0
  2 36  1  6
  3 37  1  0
  3 38  1  0
  4 39  1  0
  4 40  1  0
  5 41  1  1
  8 42  1  0
  8 43  1  0
  8 44  1  0
  9 45  1  0
  9 46  1  0
  9 47  1  0
 10 48  1  6
 11 49  1  0
 11 50  1  0
 12 51  1  0
 12 52  1  0
 14 53  1  0
 14 54  1  0
 14 55  1  0
 15 56  1  1
 16 57  1  0
 16 58  1  0
 17 59  1  0
 19 60  1  6
 20 61  1  0
 20 62  1  0
 21 63  1  0
 21 64  1  0
 22 65  1  6
 23 66  1  0
 25 67  1  0
 25 68  1  0
 25 69  1  0
 26 70  1  0
 26 71  1  0
 26 72  1  0
 28 73  1  0
 28 74  1  0
 28 75  1  0
 29 76  1  0
 29 77  1  0
 30 78  1  0
 30 79  1  0
 32 80  1  0
 32 81  1  0
 32 82  1  0
M  END
>  <meeko>  (8) 
{"is_sidechain": [false], "intermolecular_energy": 2.731, "internal_energy": -0.839}

$$$$
EPH_relaxed_0001_pdb2pqr_Repair_21_r2_0001_out
     RDKit          3D

 82 86  0  0  0  0  0  0  0  0999 V2000
    0.4740   10.8720   -4.4420 C   0  0  0  0  0  0  0  0  0  0  0  0
    1.0610   10.3980   -3.1100 C   0  0  2  0  0  0  0  0  0  0  0  0
    0.2770    9.2080   -2.5210 C   0  0  0  0  0  0  0  0  0  0  0  0
    0.0860    9.2870   -1.0040 C   0  0  0  0  0  0  0  0  0  0  0  0
   -1.2810    8.8290   -0.5920 C   0  0  2  0  0  0  0  0  0  0  0  0
   -2.2530    8.8240   -1.6460 O   0  0  0  0  0  0  0  0  0  0  0  0
   -2.4950    9.7390   -0.5660 C   0  0  0  0  0  0  0  0  0  0  0  0
   -2.3990   11.1810   -0.9560 C   0  0  0  0  0  0  0  0  0  0  0  0
   -3.6560    9.3570    0.2990 C   0  0  0  0  0  0  0  0  0  0  0  0
    1.0850   11.5500   -2.1130 C   0  0  1  0  0  0  0  0  0  0  0  0
    2.1150   11.3320   -0.9730 C   0  0  0  0  0  0  0  0  0  0  0  0
    2.6890   12.7280   -0.6160 C   0  0  0  0  0  0  0  0  0  0  0  0
    1.7430   13.7300   -1.3180 C   0  0  1  0  0  0  0  0  0  0  0  0
    0.5120   13.8530   -0.3660 C   0  0  0  0  0  0  0  0  0  0  0  0
    2.3510   15.1290   -1.6610 C   0  0  2  0  0  0  0  0  0  0  0  0
    2.8010   15.9600   -0.4470 C   0  0  0  0  0  0  0  0  0  0  0  0
    1.7610   16.8650    0.1280 C   0  0  0  0  0  0  0  0  0  0  0  0
    0.6120   17.2190   -0.4770 C   0  0  0  0  0  0  0  0  0  0  0  0
    0.3080   16.7740   -1.9130 C   0  0  1  0  0  0  0  0  0  0  0  0
   -0.2130   17.9840   -2.7310 C   0  0  0  0  0  0  0  0  0  0  0  0
   -1.4040   18.6690   -2.0680 C   0  0  0  0  0  0  0  0  0  0  0  0
   -1.0450   19.1490   -0.6640 C   0  0  2  0  0  0  0  0  0  0  0  0
   -0.0730   20.1940   -0.7690 O   0  0  0  0  0  0  0  0  0  0  0  0
   -0.4990   18.0170    0.2490 C   0  0  0  0  0  0  0  0  0  0  0  0
   -1.6450   17.0390    0.6080 C   0  0  0  0  0  0  0  0  0  0  0  0
   -0.0430   18.6610    1.5870 C   0  0  0  0  0  0  0  0  0  0  0  0
    1.4730   15.9900   -2.6570 C   0  0  1  0  0  0  0  0  0  0  0  0
    2.4410   17.0020   -3.3430 C   0  0  0  0  0  0  0  0  0  0  0  0
    0.8510   15.1190   -3.8120 C   0  0  0  0  0  0  0  0  0  0  0  0
    0.3790   13.7020   -3.4360 C   0  0  0  0  0  0  0  0  0  0  0  0
    1.4620   12.9520   -2.6550 C   0  0  2  0  0  0  0  0  0  0  0  0
    2.7060   12.7930   -3.5950 C   0  0  0  0  0  0  0  0  0  0  0  0
   -0.3687   11.5524   -4.2499 H   0  0  0  0  0  0  0  0  0  0  0  0
    1.2487   11.4008   -5.0166 H   0  0  0  0  0  0  0  0  0  0  0  0
    0.1202   10.0033   -5.0166 H   0  0  0  0  0  0  0  0  0  0  0  0
    2.0874   10.0536   -3.3047 H   0  0  0  0  0  0  0  0  0  0  0  0
   -0.7153    9.1773   -2.9948 H   0  0  0  0  0  0  0  0  0  0  0  0
    0.8673    8.3022   -2.7239 H   0  0  0  0  0  0  0  0  0  0  0  0
    0.8377    8.6488   -0.5165 H   0  0  0  0  0  0  0  0  0  0  0  0
    0.2021   10.3373   -0.6983 H   0  0  0  0  0  0  0  0  0  0  0  0
   -0.8531    8.1477    0.1581 H   0  0  0  0  0  0  0  0  0  0  0  0
   -2.3575   11.8038   -0.0503 H   0  0  0  0  0  0  0  0  0  0  0  0
   -1.4883   11.3398   -1.5522 H   0  0  0  0  0  0  0  0  0  0  0  0
   -3.2806   11.4591   -1.5522 H   0  0  0  0  0  0  0  0  0  0  0  0
   -3.3712    9.4507    1.3574 H   0  0  0  0  0  0  0  0  0  0  0  0
   -4.5056   10.0230    0.0876 H   0  0  0  0  0  0  0  0  0  0  0  0
   -3.9441    8.3167    0.0876 H   0  0  0  0  0  0  0  0  0  0  0  0
    0.0321   11.5403   -1.7947 H   0  0  0  0  0  0  0  0  0  0  0  0
    1.6208   10.8898   -0.0954 H   0  0  0  0  0  0  0  0  0  0  0  0
    2.9141   10.6451   -1.2886 H   0  0  0  0  0  0  0  0  0  0  0  0
    2.6813   12.8842    0.4728 H   0  0  0  0  0  0  0  0  0  0  0  0
    3.7340   12.8444   -0.9391 H   0  0  0  0  0  0  0  0  0  0  0  0
    0.8522   13.8190    0.6795 H   0  0  0  0  0  0  0  0  0  0  0  0
   -0.0025   14.8070   -0.5533 H   0  0  0  0  0  0  0  0  0  0  0  0
   -0.1811   13.0196   -0.5533 H   0  0  0  0  0  0  0  0  0  0  0  0
    3.2730   14.8608   -2.1977 H   0  0  0  0  0  0  0  0  0  0  0  0
    3.1194   15.2633    0.3425 H   0  0  0  0  0  0  0  0  0  0  0  0
    3.6076   16.6147   -0.8087 H   0  0  0  0  0  0  0  0  0  0  0  0
    1.9501   17.2768    1.1303 H   0  0  0  0  0  0  0  0  0  0  0  0
   -0.4798   16.0103   -1.8343 H   0  0  0  0  0  0  0  0  0  0  0  0
    0.6015   18.7159   -2.8355 H   0  0  0  0  0  0  0  0  0  0  0  0
   -0.5465   17.6071   -3.7091 H   0  0  0  0  0  0  0  0  0  0  0  0
   -1.7073   19.5331   -2.6773 H   0  0  0  0  0  0  0  0  0  0  0  0
   -2.2280   17.9443   -1.9914 H   0  0  0  0  0  0  0  0  0  0  0  0
   -1.9700   19.5128   -0.1927 H   0  0  0  0  0  0  0  0  0  0  0  0
    0.7950   19.7770   -0.8980 H   0  0  0  0  0  0  0  0  0  0  0  0
   -1.7335   16.9635    1.7018 H   0  0  0  0  0  0  0  0  0  0  0  0
   -2.5908   17.4126    0.1886 H   0  0  0  0  0  0  0  0  0  0  0  0
   -1.4247   16.0462    0.1886 H   0  0  0  0  0  0  0  0  0  0  0  0
   -0.4516   18.0840    2.4297 H   0  0  0  0  0  0  0  0  0  0  0  0
    1.0557   18.6585    1.6394 H   0  0  0  0  0  0  0  0  0  0  0  0
   -0.4102   19.6966    1.6394 H   0  0  0  0  0  0  0  0  0  0  0  0
    2.9840   17.5696   -2.5729 H   0  0  0  0  0  0  0  0  0  0  0  0
    3.1600   16.4543   -3.9700 H   0  0  0  0  0  0  0  0  0  0  0  0
    1.8619   17.6959   -3.9700 H   0  0  0  0  0  0  0  0  0  0  0  0
   -0.0176   15.6646   -4.2093 H   0  0  0  0  0  0  0  0  0  0  0  0
    1.6693   14.9683   -4.5315 H   0  0  0  0  0  0  0  0  0  0  0  0
   -0.5256   13.7772   -2.8147 H   0  0  0  0  0  0  0  0  0  0  0  0
    0.1660   13.1465   -4.3612 H   0  0  0  0  0  0  0  0  0  0  0  0
    3.6140   12.6769   -2.9850 H   0  0  0  0  0  0  0  0  0  0  0  0
    2.5747   11.9043   -4.2298 H   0  0  0  0  0  0  0  0  0  0  0  0
    2.8024   13.6861   -4.2298 H   0  0  0  0  0  0  0  0  0  0  0  0
  1  2  1  0
  2  3  1  0
  3  4  1  0
  4  5  1  0
  5  6  1  0
  6  7  1  0
  7  8  1  0
  7  9  1  0
  2 10  1  0
 10 11  1  0
 11 12  1  0
 12 13  1  0
 13 14  1  1
 13 15  1  0
 15 16  1  0
 16 17  1  0
 17 18  2  0
 18 19  1  0
 19 20  1  0
 20 21  1  0
 21 22  1  0
 22 23  1  0
 22 24  1  0
 24 25  1  0
 24 26  1  0
 19 27  1  0
 27 28  1  6
 27 29  1  0
 29 30  1  0
 30 31  1  0
 31 32  1  6
  7  5  1  0
 31 10  1  0
 31 13  1  0
 27 15  1  0
 24 18  1  0
  1 33  1  0
  1 34  1  0
  1 35  1  0
  2 36  1  6
  3 37  1  0
  3 38  1  0
  4 39  1  0
  4 40  1  0
  5 41  1  1
  8 42  1  0
  8 43  1  0
  8 44  1  0
  9 45  1  0
  9 46  1  0
  9 47  1  0
 10 48  1  1
 11 49  1  0
 11 50  1  0
 12 51  1  0
 12 52  1  0
 14 53  1  0
 14 54  1  0
 14 55  1  0
 15 56  1  6
 16 57  1  0
 16 58  1  0
 17 59  1  0
 19 60  1  1
 20 61  1  0
 20 62  1  0
 21 63  1  0
 21 64  1  0
 22 65  1  1
 23 66  1  0
 25 67  1  0
 25 68  1  0
 25 69  1  0
 26 70  1  0
 26 71  1  0
 26 72  1  0
 28 73  1  0
 28 74  1  0
 28 75  1  0
 29 76  1  0
 29 77  1  0
 30 78  1  0
 30 79  1  0
 32 80  1  0
 32 81  1  0
 32 82  1  0
M  END
>  <meeko>  (9) 
{"is_sidechain": [false], "intermolecular_energy": 2.731, "internal_energy": -0.839}

$$$$
EPH_relaxed_0001_pdb2pqr_Repair_21_r2_0001_out
     RDKit          3D

 82 86  0  0  0  0  0  0  0  0999 V2000
    1.6060   19.3310   -2.2520 C   0  0  0  0  0  0  0  0  0  0  0  0
    1.5050   19.1650   -0.7330 C   0  0  2  0  0  0  0  0  0  0  0  0
    2.8200   19.5340   -0.0190 C   0  0  0  0  0  0  0  0  0  0  0  0
    3.3510   18.4320    0.9020 C   0  0  0  0  0  0  0  0  0  0  0  0
    4.6390   18.8290    1.5570 C   0  0  2  0  0  0  0  0  0  0  0  0
    5.0220   18.0110    2.6700 O   0  0  0  0  0  0  0  0  0  0  0  0
    4.7240   19.3850    2.9670 C   0  0  0  0  0  0  0  0  0  0  0  0
    3.4990   19.5750    3.8060 C   0  0  0  0  0  0  0  0  0  0  0  0
    5.9250   20.1940    3.3450 C   0  0  0  0  0  0  0  0  0  0  0  0
    1.1110   17.7320   -0.3930 C   0  0  1  0  0  0  0  0  0  0  0  0
   -0.2430   17.6480    0.3610 C   0  0  0  0  0  0  0  0  0  0  0  0
   -0.9380   16.3450   -0.1130 C   0  0  0  0  0  0  0  0  0  0  0  0
    0.1680   15.5630   -0.8590 C   0  0  1  0  0  0  0  0  0  0  0  0
    0.9930   14.8630    0.2660 C   0  0  0  0  0  0  0  0  0  0  0  0
   -0.3180   14.5420   -1.9400 C   0  0  2  0  0  0  0  0  0  0  0  0
   -1.1780   13.3840   -1.4030 C   0  0  0  0  0  0  0  0  0  0  0  0
   -0.4220   12.1640   -0.9950 C   0  0  0  0  0  0  0  0  0  0  0  0
    0.8570   11.8910   -1.3160 C   0  0  0  0  0  0  0  0  0  0  0  0
    1.6470   12.8150   -2.2520 C   0  0  1  0  0  0  0  0  0  0  0  0
    2.3890   11.9620   -3.3150 C   0  0  0  0  0  0  0  0  0  0  0  0
    3.2620   10.8790   -2.6910 C   0  0  0  0  0  0  0  0  0  0  0  0
    2.4310    9.9460   -1.8140 C   0  0  2  0  0  0  0  0  0  0  0  0
    1.5300    9.2110   -2.6480 O   0  0  0  0  0  0  0  0  0  0  0  0
    1.6300   10.6940   -0.7110 C   0  0  0  0  0  0  0  0  0  0  0  0
    2.6060   11.2380    0.3620 C   0  0  0  0  0  0  0  0  0  0  0  0
    0.7270    9.6570    0.0090 C   0  0  0  0  0  0  0  0  0  0  0  0
    0.8290   14.0150   -2.8950 C   0  0  1  0  0  0  0  0  0  0  0  0
    0.1320   13.5420   -4.2070 C   0  0  0  0  0  0  0  0  0  0  0  0
    1.8310   15.1560   -3.3120 C   0  0  0  0  0  0  0  0  0  0  0  0
    2.1780   16.2030   -2.2370 C   0  0  0  0  0  0  0  0  0  0  0  0
    0.9100   16.7500   -1.5740 C   0  0  2  0  0  0  0  0  0  0  0  0
    0.0700   17.4790   -2.6770 C   0  0  0  0  0  0  0  0  0  0  0  0
    2.1649   20.2496   -2.4841 H   0  0  0  0  0  0  0  0  0  0  0  0
    2.1301   18.4645   -2.6815 H   0  0  0  0  0  0  0  0  0  0  0  0
    0.5955   19.3982   -2.6815 H   0  0  0  0  0  0  0  0  0  0  0  0
    0.7304   19.8591   -0.3748 H   0  0  0  0  0  0  0  0  0  0  0  0
    3.5825   19.7452   -0.7831 H   0  0  0  0  0  0  0  0  0  0  0  0
    2.6073   20.4076    0.6147 H   0  0  0  0  0  0  0  0  0  0  0  0
    2.6026   18.2281    1.6820 H   0  0  0  0  0  0  0  0  0  0  0  0
    3.5388   17.5364    0.2916 H   0  0  0  0  0  0  0  0  0  0  0  0
    5.0445   19.1839    0.5980 H   0  0  0  0  0  0  0  0  0  0  0  0
    3.7734   19.5324    4.8704 H   0  0  0  0  0  0  0  0  0  0  0  0
    3.0494   20.5536    3.5821 H   0  0  0  0  0  0  0  0  0  0  0  0
    2.7741   18.7786    3.5821 H   0  0  0  0  0  0  0  0  0  0  0  0
    6.0020   20.2459    4.4411 H   0  0  0  0  0  0  0  0  0  0  0  0
    6.8296   19.7205    2.9359 H   0  0  0  0  0  0  0  0  0  0  0  0
    5.8261   21.2103    2.9359 H   0  0  0  0  0  0  0  0  0  0  0  0
    1.9900   17.4343    0.1975 H   0  0  0  0  0  0  0  0  0  0  0  0
   -0.0705   17.6121    1.4468 H   0  0  0  0  0  0  0  0  0  0  0  0
   -0.8679   18.5284    0.1506 H   0  0  0  0  0  0  0  0  0  0  0  0
   -1.3093   15.7679    0.7467 H   0  0  0  0  0  0  0  0  0  0  0  0
   -1.8105   16.5460   -0.7520 H   0  0  0  0  0  0  0  0  0  0  0  0
    0.6168   15.1822    1.2492 H   0  0  0  0  0  0  0  0  0  0  0  0
    0.8907   13.7719    0.1708 H   0  0  0  0  0  0  0  0  0  0  0  0
    2.0529   15.1416    0.1708 H   0  0  0  0  0  0  0  0  0  0  0  0
   -0.9920   15.1539   -2.5575 H   0  0  0  0  0  0  0  0  0  0  0  0
   -1.7313   13.7501   -0.5256 H   0  0  0  0  0  0  0  0  0  0  0  0
   -1.8267   13.0753   -2.2360 H   0  0  0  0  0  0  0  0  0  0  0  0
   -0.9550   11.4244   -0.3794 H   0  0  0  0  0  0  0  0  0  0  0  0
    2.3768   13.3392   -1.6175 H   0  0  0  0  0  0  0  0  0  0  0  0
    1.6428   11.4821   -3.9653 H   0  0  0  0  0  0  0  0  0  0  0  0
    3.0478   12.6356   -3.8827 H   0  0  0  0  0  0  0  0  0  0  0  0
    3.7359   10.2928   -3.4921 H   0  0  0  0  0  0  0  0  0  0  0  0
    4.0260   11.3620   -2.0641 H   0  0  0  0  0  0  0  0  0  0  0  0
    3.1287    9.2736   -1.2934 H   0  0  0  0  0  0  0  0  0  0  0  0
    1.8760    8.3070   -2.7300 H   0  0  0  0  0  0  0  0  0  0  0  0
    2.2096   11.0170    1.3640 H   0  0  0  0  0  0  0  0  0  0  0  0
    3.5880   10.7571    0.2420 H   0  0  0  0  0  0  0  0  0  0  0  0
    2.7135   12.3261    0.2420 H   0  0  0  0  0  0  0  0  0  0  0  0
    0.8296    9.7748    1.0978 H   0  0  0  0  0  0  0  0  0  0  0  0
   -0.3216    9.8204   -0.2803 H   0  0  0  0  0  0  0  0  0  0  0  0
    1.0331    8.6408   -0.2803 H   0  0  0  0  0  0  0  0  0  0  0  0
   -0.7540   12.9407   -3.9552 H   0  0  0  0  0  0  0  0  0  0  0  0
   -0.1752   14.4190   -4.7957 H   0  0  0  0  0  0  0  0  0  0  0  0
    0.8335   12.9326   -4.7957 H   0  0  0  0  0  0  0  0  0  0  0  0
    2.7702   14.6762   -3.6245 H   0  0  0  0  0  0  0  0  0  0  0  0
    1.3141   15.7175   -4.1042 H   0  0  0  0  0  0  0  0  0  0  0  0
    2.8116   15.7343   -1.4696 H   0  0  0  0  0  0  0  0  0  0  0  0
    2.7093   17.0371   -2.7187 H   0  0  0  0  0  0  0  0  0  0  0  0
   -0.6782   18.1283   -2.1988 H   0  0  0  0  0  0  0  0  0  0  0  0
    0.7378   18.0886   -3.3034 H   0  0  0  0  0  0  0  0  0  0  0  0
   -0.4395   16.7320   -3.3034 H   0  0  0  0  0  0  0  0  0  0  0  0
  1  2  1  0
  2  3  1  0
  3  4  1  0
  4  5  1  0
  5  6  1  0
  6  7  1  0
  7  8  1  0
  7  9  1  0
  2 10  1  0
 10 11  1  0
 11 12  1  0
 12 13  1  0
 13 14  1  1
 13 15  1  0
 15 16  1  0
 16 17  1  0
 17 18  2  0
 18 19  1  0
 19 20  1  0
 20 21  1  0
 21 22  1  0
 22 23  1  0
 22 24  1  0
 24 25  1  0
 24 26  1  0
 19 27  1  0
 27 28  1  6
 27 29  1  0
 29 30  1  0
 30 31  1  0
 31 32  1  6
  7  5  1  0
 31 10  1  0
 31 13  1  0
 27 15  1  0
 24 18  1  0
  1 33  1  0
  1 34  1  0
  1 35  1  0
  2 36  1  1
  3 37  1  0
  3 38  1  0
  4 39  1  0
  4 40  1  0
  5 41  1  6
  8 42  1  0
  8 43  1  0
  8 44  1  0
  9 45  1  0
  9 46  1  0
  9 47  1  0
 10 48  1  1
 11 49  1  0
 11 50  1  0
 12 51  1  0
 12 52  1  0
 14 53  1  0
 14 54  1  0
 14 55  1  0
 15 56  1  6
 16 57  1  0
 16 58  1  0
 17 59  1  0
 19 60  1  1
 20 61  1  0
 20 62  1  0
 21 63  1  0
 21 64  1  0
 22 65  1  1
 23 66  1  0
 25 67  1  0
 25 68  1  0
 25 69  1  0
 26 70  1  0
 26 71  1  0
 26 72  1  0
 28 73  1  0
 28 74  1  0
 28 75  1  0
 29 76  1  0
 29 77  1  0
 30 78  1  0
 30 79  1  0
 32 80  1  0
 32 81  1  0
 32 82  1  0
M  END
>  <meeko>  (10) 
{"is_sidechain": [false], "intermolecular_energy": 2.731, "internal_energy": -0.839}

$$$$
EPH_relaxed_0001_pdb2pqr_Repair_21_r2_0001_out
     RDKit          3D

 82 86  0  0  0  0  0  0  0  0999 V2000
    2.9170   19.1590   -0.8790 C   0  0  0  0  0  0  0  0  0  0  0  0
    2.7070   18.1620   -2.0220 C   0  0  2  0  0  0  0  0  0  0  0  0
    1.3140   18.3030   -2.6670 C   0  0  0  0  0  0  0  0  0  0  0  0
    0.5170   19.5060   -2.1550 C   0  0  0  0  0  0  0  0  0  0  0  0
   -0.8170   19.0960   -1.6080 C   0  0  2  0  0  0  0  0  0  0  0  0
   -1.7150   20.1810   -1.3430 O   0  0  0  0  0  0  0  0  0  0  0  0
   -1.2820   19.4240   -0.2020 C   0  0  0  0  0  0  0  0  0  0  0  0
   -0.4160   20.1940    0.7460 C   0  0  0  0  0  0  0  0  0  0  0  0
   -2.3600   18.5850    0.4100 C   0  0  0  0  0  0  0  0  0  0  0  0
    2.9050   16.7390   -1.5130 C   0  0  1  0  0  0  0  0  0  0  0  0
    3.6290   16.6910   -0.1410 C   0  0  0  0  0  0  0  0  0  0  0  0
    3.0250   15.4960    0.6410 C   0  0  0  0  0  0  0  0  0  0  0  0
    2.2220   14.7030   -0.4160 C   0  0  1  0  0  0  0  0  0  0  0  0
    3.2860   13.8390   -1.1620 C   0  0  0  0  0  0  0  0  0  0  0  0
    1.0430   13.8290    0.1240 C   0  0  2  0  0  0  0  0  0  0  0  0
    1.4550   12.6970    1.0810 C   0  0  0  0  0  0  0  0  0  0  0  0
    1.7560   11.3890    0.4280 C   0  0  0  0  0  0  0  0  0  0  0  0
    1.4270   11.0490   -0.8320 C   0  0  0  0  0  0  0  0  0  0  0  0
    0.5930   11.9910   -1.7100 C   0  0  1  0  0  0  0  0  0  0  0  0
   -0.5360   11.1870   -2.4050 C   0  0  0  0  0  0  0  0  0  0  0  0
   -0.0060    9.9850   -3.1800 C   0  0  0  0  0  0  0  0  0  0  0  0
    0.7670    9.0420   -2.2620 C   0  0  2  0  0  0  0  0  0  0  0  0
   -0.1450    8.4610   -1.3250 O   0  0  0  0  0  0  0  0  0  0  0  0
    1.9250    9.7430   -1.4990 C   0  0  0  0  0  0  0  0  0  0  0  0
    3.0580   10.1060   -2.4910 C   0  0  0  0  0  0  0  0  0  0  0  0
    2.5320    8.7170   -0.5040 C   0  0  0  0  0  0  0  0  0  0  0  0
    0.0560   13.3070   -0.9980 C   0  0  1  0  0  0  0  0  0  0  0  0
   -1.3040   13.0150   -0.2940 C   0  0  0  0  0  0  0  0  0  0  0  0
   -0.2370   14.4000   -2.0930 C   0  0  0  0  0  0  0  0  0  0  0  0
    0.9380   15.3110   -2.4980 C   0  0  0  0  0  0  0  0  0  0  0  0
    1.6330   15.8910   -1.2620 C   0  0  2  0  0  0  0  0  0  0  0  0
    0.5930   16.7840   -0.5030 C   0  0  0  0  0  0  0  0  0  0  0  0
    2.8077   18.6402    0.0848 H   0  0  0  0  0  0  0  0  0  0  0  0
    3.9259   19.5914   -0.9503 H   0  0  0  0  0  0  0  0  0  0  0  0
    2.1682   19.9616   -0.9503 H   0  0  0  0  0  0  0  0  0  0  0  0
    3.4535   18.3860   -2.7983 H   0  0  0  0  0  0  0  0  0  0  0  0
    1.4440   18.4098   -3.7541 H   0  0  0  0  0  0  0  0  0  0  0  0
    0.7431   17.4018   -2.3989 H   0  0  0  0  0  0  0  0  0  0  0  0
    1.0917   20.0014   -1.3586 H   0  0  0  0  0  0  0  0  0  0  0  0
    0.3455   20.1883   -3.0006 H   0  0  0  0  0  0  0  0  0  0  0  0
   -0.7843   18.1528   -2.1730 H   0  0  0  0  0  0  0  0  0  0  0  0
   -0.6947   19.9462    1.7809 H   0  0  0  0  0  0  0  0  0  0  0  0
    0.6383   19.9296    0.5768 H   0  0  0  0  0  0  0  0  0  0  0  0
   -0.5553   21.2719    0.5768 H   0  0  0  0  0  0  0  0  0  0  0  0
   -2.2894   18.6399    1.5064 H   0  0  0  0  0  0  0  0  0  0  0  0
   -3.3430   18.9580    0.0867 H   0  0  0  0  0  0  0  0  0  0  0  0
   -2.2397   17.5405    0.0867 H   0  0  0  0  0  0  0  0  0  0  0  0
    3.4770   16.3195   -2.3537 H   0  0  0  0  0  0  0  0  0  0  0  0
    4.7089   16.5411   -0.2874 H   0  0  0  0  0  0  0  0  0  0  0  0
    3.4938   17.6331    0.4105 H   0  0  0  0  0  0  0  0  0  0  0  0
    3.8216   14.8718    1.0721 H   0  0  0  0  0  0  0  0  0  0  0  0
    2.3967   15.8234    1.4825 H   0  0  0  0  0  0  0  0  0  0  0  0
    3.9209   13.3235   -0.4264 H   0  0  0  0  0  0  0  0  0  0  0  0
    2.7774   13.0950   -1.7927 H   0  0  0  0  0  0  0  0  0  0  0  0
    3.9097   14.4895   -1.7927 H   0  0  0  0  0  0  0  0  0  0  0  0
    0.4785   14.5473    0.7366 H   0  0  0  0  0  0  0  0  0  0  0  0
    2.3552   13.0213    1.6237 H   0  0  0  0  0  0  0  0  0  0  0  0
    0.5877   12.5192    1.7338 H   0  0  0  0  0  0  0  0  0  0  0  0
    2.2925   10.6390    1.0277 H   0  0  0  0  0  0  0  0  0  0  0  0
    1.2833   12.3937   -2.4658 H   0  0  0  0  0  0  0  0  0  0  0  0
   -1.2384   10.8299   -1.6375 H   0  0  0  0  0  0  0  0  0  0  0  0
   -1.0290   11.8573   -3.1245 H   0  0  0  0  0  0  0  0  0  0  0  0
   -0.8527    9.4412   -3.6242 H   0  0  0  0  0  0  0  0  0  0  0  0
    0.6740   10.3459   -3.9657 H   0  0  0  0  0  0  0  0  0  0  0  0
    1.2306    8.2711   -2.8951 H   0  0  0  0  0  0  0  0  0  0  0  0
   -0.4290    9.1640   -0.7170 H   0  0  0  0  0  0  0  0  0  0  0  0
    3.9587   10.3946   -1.9293 H   0  0  0  0  0  0  0  0  0  0  0  0
    3.2840    9.2353   -3.1241 H   0  0  0  0  0  0  0  0  0  0  0  0
    2.7359   10.9459   -3.1241 H   0  0  0  0  0  0  0  0  0  0  0  0
    2.3370    9.0467    0.5271 H   0  0  0  0  0  0  0  0  0  0  0  0
    2.0715    7.7314   -0.6671 H   0  0  0  0  0  0  0  0  0  0  0  0
    3.6175    8.6461   -0.6671 H   0  0  0  0  0  0  0  0  0  0  0  0
   -1.1660   13.0446    0.7969 H   0  0  0  0  0  0  0  0  0  0  0  0
   -2.0413   13.7753   -0.5911 H   0  0  0  0  0  0  0  0  0  0  0  0
   -1.6643   12.0190   -0.5911 H   0  0  0  0  0  0  0  0  0  0  0  0
   -0.5819   13.8795   -2.9986 H   0  0  0  0  0  0  0  0  0  0  0  0
   -0.9784   15.0725   -1.6369 H   0  0  0  0  0  0  0  0  0  0  0  0
    1.6655   14.7238   -3.0776 H   0  0  0  0  0  0  0  0  0  0  0  0
    0.5455   16.1422   -3.1023 H   0  0  0  0  0  0  0  0  0  0  0  0
    0.7308   16.6657    0.5819 H   0  0  0  0  0  0  0  0  0  0  0  0
    0.7442   17.8380   -0.7790 H   0  0  0  0  0  0  0  0  0  0  0  0
   -0.4260   16.4752   -0.7790 H   0  0  0  0  0  0  0  0  0  0  0  0
  1  2  1  0
  2  3  1  0
  3  4  1  0
  4  5  1  0
  5  6  1  0
  6  7  1  0
  7  8  1  0
  7  9  1  0
  2 10  1  0
 10 11  1  0
 11 12  1  0
 12 13  1  0
 13 14  1  6
 13 15  1  0
 15 16  1  0
 16 17  1  0
 17 18  2  0
 18 19  1  0
 19 20  1  0
 20 21  1  0
 21 22  1  0
 22 23  1  0
 22 24  1  0
 24 25  1  0
 24 26  1  0
 19 27  1  0
 27 28  1  1
 27 29  1  0
 29 30  1  0
 30 31  1  0
 31 32  1  1
  7  5  1  0
 31 10  1  0
 31 13  1  0
 27 15  1  0
 24 18  1  0
  1 33  1  0
  1 34  1  0
  1 35  1  0
  2 36  1  6
  3 37  1  0
  3 38  1  0
  4 39  1  0
  4 40  1  0
  5 41  1  6
  8 42  1  0
  8 43  1  0
  8 44  1  0
  9 45  1  0
  9 46  1  0
  9 47  1  0
 10 48  1  6
 11 49  1  0
 11 50  1  0
 12 51  1  0
 12 52  1  0
 14 53  1  0
 14 54  1  0
 14 55  1  0
 15 56  1  1
 16 57  1  0
 16 58  1  0
 17 59  1  0
 19 60  1  6
 20 61  1  0
 20 62  1  0
 21 63  1  0
 21 64  1  0
 22 65  1  6
 23 66  1  0
 25 67  1  0
 25 68  1  0
 25 69  1  0
 26 70  1  0
 26 71  1  0
 26 72  1  0
 28 73  1  0
 28 74  1  0
 28 75  1  0
 29 76  1  0
 29 77  1  0
 30 78  1  0
 30 79  1  0
 32 80  1  0
 32 81  1  0
 32 82  1  0
M  END
>  <meeko>  (11) 
{"is_sidechain": [false], "intermolecular_energy": 2.731, "internal_energy": -0.839}

$$$$
EPH_relaxed_0001_pdb2pqr_Repair_21_r2_0001_out
     RDKit          3D

 82 86  0  0  0  0  0  0  0  0999 V2000
   -0.9570   16.3980   -5.9080 C   0  0  0  0  0  0  0  0  0  0  0  0
    0.1580   15.7140   -6.7040 C   0  0  2  0  0  0  0  0  0  0  0  0
   -0.2230   15.5180   -8.1850 C   0  0  0  0  0  0  0  0  0  0  0  0
    0.4390   16.5260   -9.1290 C   0  0  0  0  0  0  0  0  0  0  0  0
    1.8440   16.1290   -9.4670 C   0  0  2  0  0  0  0  0  0  0  0  0
    2.3400   16.6710  -10.6980 O   0  0  0  0  0  0  0  0  0  0  0  0
    2.2020   15.2420  -10.6450 C   0  0  0  0  0  0  0  0  0  0  0  0
    1.1510   14.6980  -11.5600 C   0  0  0  0  0  0  0  0  0  0  0  0
    3.5090   14.5110  -10.6190 C   0  0  0  0  0  0  0  0  0  0  0  0
    0.4980   14.3690   -6.0710 C   0  0  1  0  0  0  0  0  0  0  0  0
    1.7230   13.6890   -6.7380 C   0  0  0  0  0  0  0  0  0  0  0  0
    2.4840   12.9380   -5.6140 C   0  0  0  0  0  0  0  0  0  0  0  0
    1.5050   12.9330   -4.4170 C   0  0  1  0  0  0  0  0  0  0  0  0
    0.5210   11.7570   -4.7090 C   0  0  0  0  0  0  0  0  0  0  0  0
    2.1500   12.8070   -2.9980 C   0  0  2  0  0  0  0  0  0  0  0  0
    2.9210   11.5000   -2.7450 C   0  0  0  0  0  0  0  0  0  0  0  0
    2.1140   10.3840   -2.1690 C   0  0  0  0  0  0  0  0  0  0  0  0
    0.8990   10.5090   -1.6030 C   0  0  0  0  0  0  0  0  0  0  0  0
    0.2580   11.8890   -1.4110 C   0  0  1  0  0  0  0  0  0  0  0  0
   -0.3140   11.9990    0.0270 C   0  0  0  0  0  0  0  0  0  0  0  0
   -1.2690   10.8590    0.3660 C   0  0  0  0  0  0  0  0  0  0  0  0
   -0.5780    9.5060    0.2200 C   0  0  2  0  0  0  0  0  0  0  0  0
    0.4400    9.3990    1.2190 O   0  0  0  0  0  0  0  0  0  0  0  0
    0.0460    9.2860   -1.1870 C   0  0  0  0  0  0  0  0  0  0  0  0
   -1.0810    9.1010   -2.2330 C   0  0  0  0  0  0  0  0  0  0  0  0
    0.8320    7.9470   -1.1560 C   0  0  0  0  0  0  0  0  0  0  0  0
    1.1620   13.1350   -1.8060 C   0  0  1  0  0  0  0  0  0  0  0  0
    2.0500   13.5530   -0.5940 C   0  0  0  0  0  0  0  0  0  0  0  0
    0.2320   14.3660   -2.1210 C   0  0  0  0  0  0  0  0  0  0  0  0
   -0.2760   14.5010   -3.5690 C   0  0  0  0  0  0  0  0  0  0  0  0
    0.8770   14.3660   -4.5690 C   0  0  2  0  0  0  0  0  0  0  0  0
    1.8720   15.5480   -4.3140 C   0  0  0  0  0  0  0  0  0  0  0  0
   -0.7644   16.2799   -4.8314 H   0  0  0  0  0  0  0  0  0  0  0  0
   -0.9841   17.4683   -6.1604 H   0  0  0  0  0  0  0  0  0  0  0  0
   -1.9234   15.9372   -6.1604 H   0  0  0  0  0  0  0  0  0  0  0  0
    1.0387   16.3724   -6.6740 H   0  0  0  0  0  0  0  0  0  0  0  0
    0.0795   14.5055   -8.4905 H   0  0  0  0  0  0  0  0  0  0  0  0
   -1.3095   15.6719   -8.2607 H   0  0  0  0  0  0  0  0  0  0  0  0
   -0.1482   16.5838  -10.0574 H   0  0  0  0  0  0  0  0  0  0  0  0
    0.4710   17.5013   -8.6213 H   0  0  0  0  0  0  0  0  0  0  0  0
    2.1129   16.0848   -8.4013 H   0  0  0  0  0  0  0  0  0  0  0  0
    0.3300   14.2731  -10.9638 H   0  0  0  0  0  0  0  0  0  0  0  0
    0.7622   15.5081  -12.1945 H   0  0  0  0  0  0  0  0  0  0  0  0
    1.5879   13.9128  -12.1945 H   0  0  0  0  0  0  0  0  0  0  0  0
    3.8133   14.3408   -9.5757 H   0  0  0  0  0  0  0  0  0  0  0  0
    3.3984   13.5438  -11.1311 H   0  0  0  0  0  0  0  0  0  0  0  0
    4.2752   15.1115  -11.1311 H   0  0  0  0  0  0  0  0  0  0  0  0
   -0.4593   13.8475   -6.2181 H   0  0  0  0  0  0  0  0  0  0  0  0
    1.3891   12.9792   -7.5092 H   0  0  0  0  0  0  0  0  0  0  0  0
    2.3709   14.4323   -7.2255 H   0  0  0  0  0  0  0  0  0  0  0  0
    2.7218   11.9102   -5.9256 H   0  0  0  0  0  0  0  0  0  0  0  0
    3.4429   13.4171   -5.3670 H   0  0  0  0  0  0  0  0  0  0  0  0
    0.1654   11.3320   -3.7588 H   0  0  0  0  0  0  0  0  0  0  0  0
   -0.3367   12.1315   -5.2870 H   0  0  0  0  0  0  0  0  0  0  0  0
    1.0409   10.9788   -5.2870 H   0  0  0  0  0  0  0  0  0  0  0  0
    2.9090   13.6031   -3.0125 H   0  0  0  0  0  0  0  0  0  0  0  0
    3.3358   11.1590   -3.7050 H   0  0  0  0  0  0  0  0  0  0  0  0
    3.6877   11.7400   -1.9936 H   0  0  0  0  0  0  0  0  0  0  0  0
    2.5488    9.3744   -2.2106 H   0  0  0  0  0  0  0  0  0  0  0  0
   -0.5605   11.9484   -2.1435 H   0  0  0  0  0  0  0  0  0  0  0  0
    0.5224   11.9824    0.7413 H   0  0  0  0  0  0  0  0  0  0  0  0
   -0.8814   12.9393    0.0893 H   0  0  0  0  0  0  0  0  0  0  0  0
   -1.6153   10.9761    1.4035 H   0  0  0  0  0  0  0  0  0  0  0  0
   -2.1198   10.8953   -0.3303 H   0  0  0  0  0  0  0  0  0  0  0  0
   -1.3447    8.7278    0.3487 H   0  0  0  0  0  0  0  0  0  0  0  0
    1.2830    9.6600    0.8110 H   0  0  0  0  0  0  0  0  0  0  0  0
   -2.0390    8.9437   -1.7158 H   0  0  0  0  0  0  0  0  0  0  0  0
   -1.1477   10.0002   -2.8630 H   0  0  0  0  0  0  0  0  0  0  0  0
   -0.8567    8.2276   -2.8630 H   0  0  0  0  0  0  0  0  0  0  0  0
    1.0071    7.6487   -0.1118 H   0  0  0  0  0  0  0  0  0  0  0  0
    0.2483    7.1673   -1.6671 H   0  0  0  0  0  0  0  0  0  0  0  0
    1.7974    8.0766   -1.6671 H   0  0  0  0  0  0  0  0  0  0  0  0
    1.5296   13.3080    0.3436 H   0  0  0  0  0  0  0  0  0  0  0  0
    3.0059   13.0103   -0.6354 H   0  0  0  0  0  0  0  0  0  0  0  0
    2.2409   14.6355   -0.6354 H   0  0  0  0  0  0  0  0  0  0  0  0
   -0.6481   14.2945   -1.4650 H   0  0  0  0  0  0  0  0  0  0  0  0
    0.8616   15.2523   -1.9534 H   0  0  0  0  0  0  0  0  0  0  0  0
   -1.0171   13.7122   -3.7655 H   0  0  0  0  0  0  0  0  0  0  0  0
   -0.7310   15.4952   -3.6901 H   0  0  0  0  0  0  0  0  0  0  0  0
    1.9962   15.6956   -3.2310 H   0  0  0  0  0  0  0  0  0  0  0  0
    2.8465   15.3110   -4.7659 H   0  0  0  0  0  0  0  0  0  0  0  0
    1.4723   16.4678   -4.7659 H   0  0  0  0  0  0  0  0  0  0  0  0
  1  2  1  0
  2  3  1  0
  3  4  1  0
  4  5  1  0
  5  6  1  0
  6  7  1  0
  7  8  1  0
  7  9  1  0
  2 10  1  0
 10 11  1  0
 11 12  1  0
 12 13  1  0
 13 14  1  6
 13 15  1  0
 15 16  1  0
 16 17  1  0
 17 18  2  0
 18 19  1  0
 19 20  1  0
 20 21  1  0
 21 22  1  0
 22 23  1  0
 22 24  1  0
 24 25  1  0
 24 26  1  0
 19 27  1  0
 27 28  1  1
 27 29  1  0
 29 30  1  0
 30 31  1  0
 31 32  1  6
  7  5  1  0
 31 10  1  0
 31 13  1  0
 27 15  1  0
 24 18  1  0
  1 33  1  0
  1 34  1  0
  1 35  1  0
  2 36  1  6
  3 37  1  0
  3 38  1  0
  4 39  1  0
  4 40  1  0
  5 41  1  1
  8 42  1  0
  8 43  1  0
  8 44  1  0
  9 45  1  0
  9 46  1  0
  9 47  1  0
 10 48  1  1
 11 49  1  0
 11 50  1  0
 12 51  1  0
 12 52  1  0
 14 53  1  0
 14 54  1  0
 14 55  1  0
 15 56  1  6
 16 57  1  0
 16 58  1  0
 17 59  1  0
 19 60  1  6
 20 61  1  0
 20 62  1  0
 21 63  1  0
 21 64  1  0
 22 65  1  1
 23 66  1  0
 25 67  1  0
 25 68  1  0
 25 69  1  0
 26 70  1  0
 26 71  1  0
 26 72  1  0
 28 73  1  0
 28 74  1  0
 28 75  1  0
 29 76  1  0
 29 77  1  0
 30 78  1  0
 30 79  1  0
 32 80  1  0
 32 81  1  0
 32 82  1  0
M  END
>  <meeko>  (12) 
{"is_sidechain": [false], "intermolecular_energy": 2.731, "internal_energy": -0.839}

$$$$
EPH_relaxed_0001_pdb2pqr_Repair_21_r2_0001_out
     RDKit          3D

 82 86  0  0  0  0  0  0  0  0999 V2000
   -4.0860    7.3690   -3.5860 C   0  0  0  0  0  0  0  0  0  0  0  0
   -3.7030    7.2650   -2.1070 C   0  0  2  0  0  0  0  0  0  0  0  0
   -4.8830    6.7950   -1.2330 C   0  0  0  0  0  0  0  0  0  0  0  0
   -6.1770    6.5660   -2.0180 C   0  0  0  0  0  0  0  0  0  0  0  0
   -7.3520    6.3770   -1.1070 C   0  0  2  0  0  0  0  0  0  0  0  0
   -8.4150    5.5870   -1.6560 O   0  0  0  0  0  0  0  0  0  0  0  0
   -8.7250    6.9630   -1.3800 C   0  0  0  0  0  0  0  0  0  0  0  0
   -8.9940    7.7830   -2.6030 C   0  0  0  0  0  0  0  0  0  0  0  0
   -9.6650    7.1500   -0.2300 C   0  0  0  0  0  0  0  0  0  0  0  0
   -3.1870    8.6090   -1.6080 C   0  0  1  0  0  0  0  0  0  0  0  0
   -3.8540    9.0480   -0.2770 C   0  0  0  0  0  0  0  0  0  0  0  0
   -2.7720    9.8010    0.5390 C   0  0  0  0  0  0  0  0  0  0  0  0
   -1.6310   10.0610   -0.4730 C   0  0  1  0  0  0  0  0  0  0  0  0
   -2.0840   11.3210   -1.2740 C   0  0  0  0  0  0  0  0  0  0  0  0
   -0.2000   10.2440    0.1310 C   0  0  2  0  0  0  0  0  0  0  0  0
   -0.0370   11.4550    1.0660 C   0  0  0  0  0  0  0  0  0  0  0  0
    0.3870   12.7220    0.4000 C   0  0  0  0  0  0  0  0  0  0  0  0
    0.9010   12.8200   -0.8400 C   0  0  0  0  0  0  0  0  0  0  0  0
    1.1930   11.5650   -1.6730 C   0  0  1  0  0  0  0  0  0  0  0  0
    2.6050   11.6800   -2.3060 C   0  0  0  0  0  0  0  0  0  0  0  0
    2.7830   12.9660   -3.1070 C   0  0  0  0  0  0  0  0  0  0  0  0
    2.5420   14.1920   -2.2300 C   0  0  2  0  0  0  0  0  0  0  0  0
    3.5770   14.2650   -1.2440 O   0  0  0  0  0  0  0  0  0  0  0  0
    1.1540   14.1820   -1.5310 C   0  0  0  0  0  0  0  0  0  0  0  0
    0.0400   14.4070   -2.5840 C   0  0  0  0  0  0  0  0  0  0  0  0
    1.0950   15.3990   -0.5700 C   0  0  0  0  0  0  0  0  0  0  0  0
    0.9670   10.1750   -0.9360 C   0  0  1  0  0  0  0  0  0  0  0  0
    2.2560    9.7690   -0.1590 C   0  0  0  0  0  0  0  0  0  0  0  0
    0.7260    9.0540   -2.0150 C   0  0  0  0  0  0  0  0  0  0  0  0
   -0.7260    8.8400   -2.4830 C   0  0  0  0  0  0  0  0  0  0  0  0
   -1.6750    8.7160   -1.2870 C   0  0  2  0  0  0  0  0  0  0  0  0
   -1.2570    7.4440   -0.4750 C   0  0  0  0  0  0  0  0  0  0  0  0
   -5.1444    7.6564   -3.6714 H   0  0  0  0  0  0  0  0  0  0  0  0
   -3.4590    8.1294   -4.0745 H   0  0  0  0  0  0  0  0  0  0  0  0
   -3.9297    6.3959   -4.0745 H   0  0  0  0  0  0  0  0  0  0  0  0
   -2.9091    6.5082   -2.0232 H   0  0  0  0  0  0  0  0  0  0  0  0
   -4.6000    5.8499   -0.7465 H   0  0  0  0  0  0  0  0  0  0  0  0
   -5.0848    7.5966   -0.5072 H   0  0  0  0  0  0  0  0  0  0  0  0
   -6.3621    7.4381   -2.6623 H   0  0  0  0  0  0  0  0  0  0  0  0
   -6.0572    5.6514   -2.6173 H   0  0  0  0  0  0  0  0  0  0  0  0
   -6.6999    6.4063   -0.2216 H   0  0  0  0  0  0  0  0  0  0  0  0
   -9.3240    8.7890   -2.3047 H   0  0  0  0  0  0  0  0  0  0  0  0
   -8.0744    7.8613   -3.2016 H   0  0  0  0  0  0  0  0  0  0  0  0
   -9.7812    7.3013   -3.2016 H   0  0  0  0  0  0  0  0  0  0  0  0
   -9.1139    7.0404    0.7156 H   0  0  0  0  0  0  0  0  0  0  0  0
  -10.1107    8.1544   -0.2803 H   0  0  0  0  0  0  0  0  0  0  0  0
  -10.4612    6.3926   -0.2803 H   0  0  0  0  0  0  0  0  0  0  0  0
   -3.4320    9.2351   -2.4786 H   0  0  0  0  0  0  0  0  0  0  0  0
   -4.7055    9.7136   -0.4816 H   0  0  0  0  0  0  0  0  0  0  0  0
   -4.2343    8.1787    0.2795 H   0  0  0  0  0  0  0  0  0  0  0  0
   -3.1695   10.7499    0.9284 H   0  0  0  0  0  0  0  0  0  0  0  0
   -2.4320    9.2251    1.4123 H   0  0  0  0  0  0  0  0  0  0  0  0
   -2.3706   12.1181   -0.5722 H   0  0  0  0  0  0  0  0  0  0  0  0
   -1.2552   11.6705   -1.9072 H   0  0  0  0  0  0  0  0  0  0  0  0
   -2.9456   11.0627   -1.9072 H   0  0  0  0  0  0  0  0  0  0  0  0
   -0.0984    9.3562    0.7725 H   0  0  0  0  0  0  0  0  0  0  0  0
   -1.0037   11.6368    1.5584 H   0  0  0  0  0  0  0  0  0  0  0  0
    0.7710   11.1933    1.7650 H   0  0  0  0  0  0  0  0  0  0  0  0
    0.2693   13.6547    0.9712 H   0  0  0  0  0  0  0  0  0  0  0  0
    0.4295   11.5418   -2.4645 H   0  0  0  0  0  0  0  0  0  0  0  0
    3.3550   11.6587   -1.5016 H   0  0  0  0  0  0  0  0  0  0  0  0
    2.7307   10.8347   -2.9986 H   0  0  0  0  0  0  0  0  0  0  0  0
    3.8079   13.0036   -3.5047 H   0  0  0  0  0  0  0  0  0  0  0  0
    2.0515   12.9724   -3.9285 H   0  0  0  0  0  0  0  0  0  0  0  0
    2.5561   15.0746   -2.8864 H   0  0  0  0  0  0  0  0  0  0  0  0
    3.3600   14.9990   -0.6450 H   0  0  0  0  0  0  0  0  0  0  0  0
   -0.9145   14.5998   -2.0725 H   0  0  0  0  0  0  0  0  0  0  0  0
    0.2996   15.2708   -3.2136 H   0  0  0  0  0  0  0  0  0  0  0  0
   -0.0560   13.5101   -3.2136 H   0  0  0  0  0  0  0  0  0  0  0  0
    1.1122   15.0451    0.4714 H   0  0  0  0  0  0  0  0  0  0  0  0
    1.9626   16.0508   -0.7501 H   0  0  0  0  0  0  0  0  0  0  0  0
    0.1684   15.9638   -0.7501 H   0  0  0  0  0  0  0  0  0  0  0  0
    2.0661    9.8288    0.9228 H   0  0  0  0  0  0  0  0  0  0  0  0
    2.5359    8.7392   -0.4258 H   0  0  0  0  0  0  0  0  0  0  0  0
    3.0755   10.4525   -0.4258 H   0  0  0  0  0  0  0  0  0  0  0  0
    1.3265    9.3099   -2.9004 H   0  0  0  0  0  0  0  0  0  0  0  0
    1.0103    8.1133   -1.5207 H   0  0  0  0  0  0  0  0  0  0  0  0
   -1.0350    9.6964   -3.1003 H   0  0  0  0  0  0  0  0  0  0  0  0
   -0.7729    7.9083   -3.0659 H   0  0  0  0  0  0  0  0  0  0  0  0
   -1.3270    7.6571    0.6019 H   0  0  0  0  0  0  0  0  0  0  0  0
   -1.9284    6.6103   -0.7282 H   0  0  0  0  0  0  0  0  0  0  0  0
   -0.2219    7.1711   -0.7282 H   0  0  0  0  0  0  0  0  0  0  0  0
  1  2  1  0
  2  3  1  0
  3  4  1  0
  4  5  1  0
  5  6  1  0
  6  7  1  0
  7  8  1  0
  7  9  1  0
  2 10  1  0
 10 11  1  0
 11 12  1  0
 12 13  1  0
 13 14  1  6
 13 15  1  0
 15 16  1  0
 16 17  1  0
 17 18  2  0
 18 19  1  0
 19 20  1  0
 20 21  1  0
 21 22  1  0
 22 23  1  0
 22 24  1  0
 24 25  1  0
 24 26  1  0
 19 27  1  0
 27 28  1  1
 27 29  1  0
 29 30  1  0
 30 31  1  0
 31 32  1  1
  7  5  1  0
 31 10  1  0
 31 13  1  0
 27 15  1  0
 24 18  1  0
  1 33  1  0
  1 34  1  0
  1 35  1  0
  2 36  1  6
  3 37  1  0
  3 38  1  0
  4 39  1  0
  4 40  1  0
  5 41  1  1
  8 42  1  0
  8 43  1  0
  8 44  1  0
  9 45  1  0
  9 46  1  0
  9 47  1  0
 10 48  1  6
 11 49  1  0
 11 50  1  0
 12 51  1  0
 12 52  1  0
 14 53  1  0
 14 54  1  0
 14 55  1  0
 15 56  1  1
 16 57  1  0
 16 58  1  0
 17 59  1  0
 19 60  1  6
 20 61  1  0
 20 62  1  0
 21 63  1  0
 21 64  1  0
 22 65  1  6
 23 66  1  0
 25 67  1  0
 25 68  1  0
 25 69  1  0
 26 70  1  0
 26 71  1  0
 26 72  1  0
 28 73  1  0
 28 74  1  0
 28 75  1  0
 29 76  1  0
 29 77  1  0
 30 78  1  0
 30 79  1  0
 32 80  1  0
 32 81  1  0
 32 82  1  0
M  END
>  <meeko>  (13) 
{"is_sidechain": [false], "intermolecular_energy": 2.731, "internal_energy": -0.839}

$$$$
EPH_relaxed_0001_pdb2pqr_Repair_21_r2_0001_out
     RDKit          3D

 82 86  0  0  0  0  0  0  0  0999 V2000
   -2.2050    7.7710   -2.2830 C   0  0  0  0  0  0  0  0  0  0  0  0
   -2.1490    8.3600   -0.8700 C   0  0  2  0  0  0  0  0  0  0  0  0
   -3.5190    8.3110   -0.1660 C   0  0  0  0  0  0  0  0  0  0  0  0
   -4.6990    8.6200   -1.0920 C   0  0  0  0  0  0  0  0  0  0  0  0
   -5.8250    7.6500   -0.8980 C   0  0  2  0  0  0  0  0  0  0  0  0
   -5.4340    6.2700   -0.9000 O   0  0  0  0  0  0  0  0  0  0  0  0
   -6.2950    6.6880   -1.9720 C   0  0  0  0  0  0  0  0  0  0  0  0
   -5.6500    6.6490   -3.3220 C   0  0  0  0  0  0  0  0  0  0  0  0
   -7.6840    6.1350   -1.8800 C   0  0  0  0  0  0  0  0  0  0  0  0
   -1.6430    9.7970   -0.9260 C   0  0  1  0  0  0  0  0  0  0  0  0
   -1.2260   10.3380    0.4670 C   0  0  0  0  0  0  0  0  0  0  0  0
   -0.0170   11.2810    0.2370 C   0  0  0  0  0  0  0  0  0  0  0  0
    0.0130   11.5110   -1.2920 C   0  0  1  0  0  0  0  0  0  0  0  0
   -1.0580   12.6160   -1.5520 C   0  0  0  0  0  0  0  0  0  0  0  0
    1.3990   11.8950   -1.9060 C   0  0  2  0  0  0  0  0  0  0  0  0
    1.9900   13.2230   -1.4030 C   0  0  0  0  0  0  0  0  0  0  0  0
    1.6190   14.4290   -2.2010 C   0  0  0  0  0  0  0  0  0  0  0  0
    1.0790   14.4160   -3.4340 C   0  0  0  0  0  0  0  0  0  0  0  0
    0.8800   13.0970   -4.1920 C   0  0  1  0  0  0  0  0  0  0  0  0
    1.3870   13.2570   -5.6500 C   0  0  0  0  0  0  0  0  0  0  0  0
    0.7470   14.4440   -6.3650 C   0  0  0  0  0  0  0  0  0  0  0  0
    1.0160   15.7440   -5.6110 C   0  0  2  0  0  0  0  0  0  0  0  0
    2.4170   16.0300   -5.6730 O   0  0  0  0  0  0  0  0  0  0  0  0
    0.5570   15.6980   -4.1270 C   0  0  0  0  0  0  0  0  0  0  0  0
   -0.9910   15.6900   -4.0620 C   0  0  0  0  0  0  0  0  0  0  0  0
    1.0130   17.0160   -3.4450 C   0  0  0  0  0  0  0  0  0  0  0  0
    1.4570   11.7960   -3.4850 C   0  0  1  0  0  0  0  0  0  0  0  0
    2.9580   11.6060   -3.8640 C   0  0  0  0  0  0  0  0  0  0  0  0
    0.6970   10.5320   -4.0340 C   0  0  0  0  0  0  0  0  0  0  0  0
   -0.6030   10.1340   -3.3100 C   0  0  0  0  0  0  0  0  0  0  0  0
   -0.3910   10.0770   -1.7940 C   0  0  2  0  0  0  0  0  0  0  0  0
    0.6660    8.9580   -1.5000 C   0  0  0  0  0  0  0  0  0  0  0  0
   -2.3089    6.6777   -2.2207 H   0  0  0  0  0  0  0  0  0  0  0  0
   -3.0672    8.1912   -2.8215 H   0  0  0  0  0  0  0  0  0  0  0  0
   -1.2790    8.0212   -2.8215 H   0  0  0  0  0  0  0  0  0  0  0  0
   -1.4536    7.7435   -0.2816 H   0  0  0  0  0  0  0  0  0  0  0  0
   -3.6594    7.3027    0.2506 H   0  0  0  0  0  0  0  0  0  0  0  0
   -3.5086    9.0890    0.6116 H   0  0  0  0  0  0  0  0  0  0  0  0
   -5.0630    9.6359   -0.8787 H   0  0  0  0  0  0  0  0  0  0  0  0
   -4.3498    8.5364   -2.1318 H   0  0  0  0  0  0  0  0  0  0  0  0
   -6.3650    8.3680   -0.2634 H   0  0  0  0  0  0  0  0  0  0  0  0
   -4.5582    6.5830   -3.2050 H   0  0  0  0  0  0  0  0  0  0  0  0
   -6.0131    5.7712   -3.8766 H   0  0  0  0  0  0  0  0  0  0  0  0
   -5.9046    7.5642   -3.8766 H   0  0  0  0  0  0  0  0  0  0  0  0
   -7.9648    6.0232   -0.8223 H   0  0  0  0  0  0  0  0  0  0  0  0
   -8.3858    6.8223   -2.3750 H   0  0  0  0  0  0  0  0  0  0  0  0
   -7.7214    5.1534   -2.3750 H   0  0  0  0  0  0  0  0  0  0  0  0
   -2.5238   10.2853   -1.3684 H   0  0  0  0  0  0  0  0  0  0  0  0
   -2.0588   10.8940    0.9223 H   0  0  0  0  0  0  0  0  0  0  0  0
   -0.9612    9.5151    1.1472 H   0  0  0  0  0  0  0  0  0  0  0  0
   -0.1598   12.2325    0.7701 H   0  0  0  0  0  0  0  0  0  0  0  0
    0.9238   10.8524    0.6129 H   0  0  0  0  0  0  0  0  0  0  0  0
   -1.4299   12.9997   -0.5905 H   0  0  0  0  0  0  0  0  0  0  0  0
   -0.6046   13.4387   -2.1244 H   0  0  0  0  0  0  0  0  0  0  0  0
   -1.8944   12.1885   -2.1244 H   0  0  0  0  0  0  0  0  0  0  0  0
    2.0588   11.1078   -1.5123 H   0  0  0  0  0  0  0  0  0  0  0  0
    1.6446   13.3793   -0.3704 H   0  0  0  0  0  0  0  0  0  0  0  0
    3.0818   13.1233   -1.4920 H   0  0  0  0  0  0  0  0  0  0  0  0
    1.8025   15.4118   -1.7424 H   0  0  0  0  0  0  0  0  0  0  0  0
   -0.2034   12.9065   -4.1913 H   0  0  0  0  0  0  0  0  0  0  0  0
    2.4771   13.4031   -5.6303 H   0  0  0  0  0  0  0  0  0  0  0  0
    1.1107   12.3463   -6.2016 H   0  0  0  0  0  0  0  0  0  0  0  0
    1.1663   14.5224   -7.3789 H   0  0  0  0  0  0  0  0  0  0  0  0
   -0.3401   14.2825   -6.4101 H   0  0  0  0  0  0  0  0  0  0  0  0
    0.4265   16.5357   -6.0964 H   0  0  0  0  0  0  0  0  0  0  0  0
    2.7700   15.9680   -4.7690 H   0  0  0  0  0  0  0  0  0  0  0  0
   -1.3138   15.6883   -3.0104 H   0  0  0  0  0  0  0  0  0  0  0  0
   -1.3837   16.5861   -4.5647 H   0  0  0  0  0  0  0  0  0  0  0  0
   -1.3745   14.7899   -4.5647 H   0  0  0  0  0  0  0  0  0  0  0  0
    0.9717   16.8967   -2.3523 H   0  0  0  0  0  0  0  0  0  0  0  0
    2.0440   17.2489   -3.7498 H   0  0  0  0  0  0  0  0  0  0  0  0
    0.3464   17.8362   -3.7498 H   0  0  0  0  0  0  0  0  0  0  0  0
    3.5609   11.5297   -2.9471 H   0  0  0  0  0  0  0  0  0  0  0  0
    3.0731   10.6861   -4.4561 H   0  0  0  0  0  0  0  0  0  0  0  0
    3.2986   12.4682   -4.4561 H   0  0  0  0  0  0  0  0  0  0  0  0
    0.4452   10.7265   -5.0870 H   0  0  0  0  0  0  0  0  0  0  0  0
    1.3857    9.6896   -3.8725 H   0  0  0  0  0  0  0  0  0  0  0  0
   -1.3827   10.8761   -3.5366 H   0  0  0  0  0  0  0  0  0  0  0  0
   -0.9076    9.1364   -3.6593 H   0  0  0  0  0  0  0  0  0  0  0  0
    0.7797    8.8376   -0.4125 H   0  0  0  0  0  0  0  0  0  0  0  0
    0.3272    8.0087   -1.9405 H   0  0  0  0  0  0  0  0  0  0  0  0
    1.6330    9.2422   -1.9405 H   0  0  0  0  0  0  0  0  0  0  0  0
  1  2  1  0
  2  3  1  0
  3  4  1  0
  4  5  1  0
  5  6  1  0
  6  7  1  0
  7  8  1  0
  7  9  1  0
  2 10  1  0
 10 11  1  0
 11 12  1  0
 12 13  1  0
 13 14  1  1
 13 15  1  0
 15 16  1  0
 16 17  1  0
 17 18  2  0
 18 19  1  0
 19 20  1  0
 20 21  1  0
 21 22  1  0
 22 23  1  0
 22 24  1  0
 24 25  1  0
 24 26  1  0
 19 27  1  0
 27 28  1  1
 27 29  1  0
 29 30  1  0
 30 31  1  0
 31 32  1  6
  7  5  1  0
 31 10  1  0
 31 13  1  0
 27 15  1  0
 24 18  1  0
  1 33  1  0
  1 34  1  0
  1 35  1  0
  2 36  1  1
  3 37  1  0
  3 38  1  0
  4 39  1  0
  4 40  1  0
  5 41  1  1
  8 42  1  0
  8 43  1  0
  8 44  1  0
  9 45  1  0
  9 46  1  0
  9 47  1  0
 10 48  1  6
 11 49  1  0
 11 50  1  0
 12 51  1  0
 12 52  1  0
 14 53  1  0
 14 54  1  0
 14 55  1  0
 15 56  1  1
 16 57  1  0
 16 58  1  0
 17 59  1  0
 19 60  1  6
 20 61  1  0
 20 62  1  0
 21 63  1  0
 21 64  1  0
 22 65  1  6
 23 66  1  0
 25 67  1  0
 25 68  1  0
 25 69  1  0
 26 70  1  0
 26 71  1  0
 26 72  1  0
 28 73  1  0
 28 74  1  0
 28 75  1  0
 29 76  1  0
 29 77  1  0
 30 78  1  0
 30 79  1  0
 32 80  1  0
 32 81  1  0
 32 82  1  0
M  END
>  <meeko>  (14) 
{"is_sidechain": [false], "intermolecular_energy": 2.731, "internal_energy": -0.839}

$$$$
EPH_relaxed_0001_pdb2pqr_Repair_21_r2_0001_out
     RDKit          3D

 82 86  0  0  0  0  0  0  0  0999 V2000
   -0.3560    9.4210   -2.6570 C   0  0  0  0  0  0  0  0  0  0  0  0
    0.7640   10.3830   -3.0640 C   0  0  2  0  0  0  0  0  0  0  0  0
    2.1290    9.6740   -3.1670 C   0  0  0  0  0  0  0  0  0  0  0  0
    3.1490   10.4260   -4.0270 C   0  0  0  0  0  0  0  0  0  0  0  0
    4.5360   10.3090   -3.4710 C   0  0  2  0  0  0  0  0  0  0  0  0
    5.0780   11.5320   -2.9550 O   0  0  0  0  0  0  0  0  0  0  0  0
    5.7470   10.9740   -4.0980 C   0  0  0  0  0  0  0  0  0  0  0  0
    5.6280   11.8030   -5.3380 C   0  0  0  0  0  0  0  0  0  0  0  0
    7.1040   10.4220   -3.7920 C   0  0  0  0  0  0  0  0  0  0  0  0
    0.8480   11.5340   -2.0680 C   0  0  1  0  0  0  0  0  0  0  0  0
    1.9210   11.2970   -0.9720 C   0  0  0  0  0  0  0  0  0  0  0  0
    2.5320   12.6830   -0.6380 C   0  0  0  0  0  0  0  0  0  0  0  0
    1.5740   13.7010   -1.3000 C   0  0  1  0  0  0  0  0  0  0  0  0
    0.3860   13.8430   -0.2980 C   0  0  0  0  0  0  0  0  0  0  0  0
    2.1890   15.0910   -1.6670 C   0  0  2  0  0  0  0  0  0  0  0  0
    2.7030   15.9130   -0.4720 C   0  0  0  0  0  0  0  0  0  0  0  0
    1.7030   16.8330    0.1460 C   0  0  0  0  0  0  0  0  0  0  0  0
    0.5350   17.2070   -0.4100 C   0  0  0  0  0  0  0  0  0  0  0  0
    0.1640   16.7680   -1.8330 C   0  0  1  0  0  0  0  0  0  0  0  0
   -0.3710   17.9880   -2.6270 C   0  0  0  0  0  0  0  0  0  0  0  0
   -1.5220   18.6920   -1.9150 C   0  0  0  0  0  0  0  0  0  0  0  0
   -1.0970   19.1640   -0.5270 C   0  0  2  0  0  0  0  0  0  0  0  0
   -0.1130   20.1930   -0.6710 O   0  0  0  0  0  0  0  0  0  0  0  0
   -0.5310   18.0220    0.3630 C   0  0  0  0  0  0  0  0  0  0  0  0
   -1.6770   17.0620    0.7680 C   0  0  0  0  0  0  0  0  0  0  0  0
   -0.0100   18.6560    1.6800 C   0  0  0  0  0  0  0  0  0  0  0  0
    1.2850   15.9670   -2.6250 C   0  0  1  0  0  0  0  0  0  0  0  0
    2.2400   16.9640   -3.3500 C   0  0  0  0  0  0  0  0  0  0  0  0
    0.6010   15.1080   -3.7540 C   0  0  0  0  0  0  0  0  0  0  0  0
    0.1220   13.6980   -3.3590 C   0  0  0  0  0  0  0  0  0  0  0  0
    1.2250   12.9290   -2.6240 C   0  0  2  0  0  0  0  0  0  0  0  0
    2.4250   12.7520   -3.6150 C   0  0  0  0  0  0  0  0  0  0  0  0
   -0.4151    9.3703   -1.5598 H   0  0  0  0  0  0  0  0  0  0  0  0
   -1.3139    9.7822   -3.0595 H   0  0  0  0  0  0  0  0  0  0  0  0
   -0.1435    8.4196   -3.0595 H   0  0  0  0  0  0  0  0  0  0  0  0
    0.5188   10.7733   -4.0628 H   0  0  0  0  0  0  0  0  0  0  0  0
    2.5418    9.5660   -2.1531 H   0  0  0  0  0  0  0  0  0  0  0  0
    1.9516    8.7033   -3.6530 H   0  0  0  0  0  0  0  0  0  0  0  0
    3.1360   10.0068   -5.0439 H   0  0  0  0  0  0  0  0  0  0  0  0
    2.8717   11.4904   -4.0360 H   0  0  0  0  0  0  0  0  0  0  0  0
    4.3464    9.2740   -3.1503 H   0  0  0  0  0  0  0  0  0  0  0  0
    5.4767   12.8569   -5.0614 H   0  0  0  0  0  0  0  0  0  0  0  0
    6.5489   11.7084   -5.9321 H   0  0  0  0  0  0  0  0  0  0  0  0
    4.7709   11.4532   -5.9321 H   0  0  0  0  0  0  0  0  0  0  0  0
    7.2400   10.3667   -2.7018 H   0  0  0  0  0  0  0  0  0  0  0  0
    7.1963    9.4149   -4.2246 H   0  0  0  0  0  0  0  0  0  0  0  0
    7.8731   11.0788   -4.2246 H   0  0  0  0  0  0  0  0  0  0  0  0
   -0.1908   11.5420   -1.7063 H   0  0  0  0  0  0  0  0  0  0  0  0
    1.4566   10.8615   -0.0750 H   0  0  0  0  0  0  0  0  0  0  0  0
    2.6949   10.5976   -1.3211 H   0  0  0  0  0  0  0  0  0  0  0  0
    2.5717   12.8379    0.4503 H   0  0  0  0  0  0  0  0  0  0  0  0
    3.5646   12.7829   -1.0036 H   0  0  0  0  0  0  0  0  0  0  0  0
    0.7680   13.7973    0.7325 H   0  0  0  0  0  0  0  0  0  0  0  0
   -0.1171   14.8077   -0.4601 H   0  0  0  0  0  0  0  0  0  0  0  0
   -0.3303   13.0241   -0.4601 H   0  0  0  0  0  0  0  0  0  0  0  0
    3.0832   14.8089   -2.2421 H   0  0  0  0  0  0  0  0  0  0  0  0
    3.0428   15.2102    0.3030 H   0  0  0  0  0  0  0  0  0  0  0  0
    3.5044   16.5550   -0.8663 H   0  0  0  0  0  0  0  0  0  0  0  0
    1.9404   17.2400    1.1400 H   0  0  0  0  0  0  0  0  0  0  0  0
   -0.6317   16.0165   -1.7231 H   0  0  0  0  0  0  0  0  0  0  0  0
    0.4504   18.7066   -2.7646 H   0  0  0  0  0  0  0  0  0  0  0  0
   -0.7516   17.6178   -3.5904 H   0  0  0  0  0  0  0  0  0  0  0  0
   -1.8358   19.5619   -2.5107 H   0  0  0  0  0  0  0  0  0  0  0  0
   -2.3543   17.9812   -1.8048 H   0  0  0  0  0  0  0  0  0  0  0  0
   -1.9962   19.5417   -0.0183 H   0  0  0  0  0  0  0  0  0  0  0  0
   -0.5830   21.0420   -0.7340 H   0  0  0  0  0  0  0  0  0  0  0  0
   -1.7404   17.0089    1.8649 H   0  0  0  0  0  0  0  0  0  0  0  0
   -2.6290   17.4362    0.3634 H   0  0  0  0  0  0  0  0  0  0  0  0
   -1.4755   16.0592    0.3634 H   0  0  0  0  0  0  0  0  0  0  0  0
   -0.4457   18.1258    2.5396 H   0  0  0  0  0  0  0  0  0  0  0  0
    1.0864   18.5756    1.7170 H   0  0  0  0  0  0  0  0  0  0  0  0
   -0.3014   19.7161    1.7170 H   0  0  0  0  0  0  0  0  0  0  0  0
    2.7981   17.5466   -2.6023 H   0  0  0  0  0  0  0  0  0  0  0  0
    2.9464   16.4031   -3.9796 H   0  0  0  0  0  0  0  0  0  0  0  0
    1.6492   17.6456   -3.9796 H   0  0  0  0  0  0  0  0  0  0  0  0
   -0.2744   15.6682   -4.1143 H   0  0  0  0  0  0  0  0  0  0  0  0
    1.3857   14.9452   -4.5075 H   0  0  0  0  0  0  0  0  0  0  0  0
   -0.7544   13.7873   -2.7003 H   0  0  0  0  0  0  0  0  0  0  0  0
   -0.1386   13.1471   -4.2748 H   0  0  0  0  0  0  0  0  0  0  0  0
    3.3550   12.6148   -3.0439 H   0  0  0  0  0  0  0  0  0  0  0  0
    2.2503   11.8699   -4.2486 H   0  0  0  0  0  0  0  0  0  0  0  0
    2.5124   13.6470   -4.2486 H   0  0  0  0  0  0  0  0  0  0  0  0
  1  2  1  0
  2  3  1  0
  3  4  1  0
  4  5  1  0
  5  6  1  0
  6  7  1  0
  7  8  1  0
  7  9  1  0
  2 10  1  0
 10 11  1  0
 11 12  1  0
 12 13  1  0
 13 14  1  1
 13 15  1  0
 15 16  1  0
 16 17  1  0
 17 18  2  0
 18 19  1  0
 19 20  1  0
 20 21  1  0
 21 22  1  0
 22 23  1  0
 22 24  1  0
 24 25  1  0
 24 26  1  0
 19 27  1  0
 27 28  1  6
 27 29  1  0
 29 30  1  0
 30 31  1  0
 31 32  1  6
  7  5  1  0
 31 10  1  0
 31 13  1  0
 27 15  1  0
 24 18  1  0
  1 33  1  0
  1 34  1  0
  1 35  1  0
  2 36  1  6
  3 37  1  0
  3 38  1  0
  4 39  1  0
  4 40  1  0
  5 41  1  1
  8 42  1  0
  8 43  1  0
  8 44  1  0
  9 45  1  0
  9 46  1  0
  9 47  1  0
 10 48  1  1
 11 49  1  0
 11 50  1  0
 12 51  1  0
 12 52  1  0
 14 53  1  0
 14 54  1  0
 14 55  1  0
 15 56  1  6
 16 57  1  0
 16 58  1  0
 17 59  1  0
 19 60  1  1
 20 61  1  0
 20 62  1  0
 21 63  1  0
 21 64  1  0
 22 65  1  1
 23 66  1  0
 25 67  1  0
 25 68  1  0
 25 69  1  0
 26 70  1  0
 26 71  1  0
 26 72  1  0
 28 73  1  0
 28 74  1  0
 28 75  1  0
 29 76  1  0
 29 77  1  0
 30 78  1  0
 30 79  1  0
 32 80  1  0
 32 81  1  0
 32 82  1  0
M  END
>  <meeko>  (15) 
{"is_sidechain": [false], "intermolecular_energy": 2.731, "internal_energy": -0.839}

$$$$
EPH_relaxed_0001_pdb2pqr_Repair_21_r2_0001_out
     RDKit          3D

 82 86  0  0  0  0  0  0  0  0999 V2000
    0.5190   19.1960   -2.3510 C   0  0  0  0  0  0  0  0  0  0  0  0
   -0.1170   18.1460   -1.4360 C   0  0  2  0  0  0  0  0  0  0  0  0
    0.1990   18.4040    0.0510 C   0  0  0  0  0  0  0  0  0  0  0  0
    1.0690   19.6410    0.2900 C   0  0  0  0  0  0  0  0  0  0  0  0
    2.1880   19.3560    1.2460 C   0  0  2  0  0  0  0  0  0  0  0  0
    3.3400   20.1930    1.0850 O   0  0  0  0  0  0  0  0  0  0  0  0
    3.5310   18.7940    0.8180 C   0  0  0  0  0  0  0  0  0  0  0  0
    3.8260   18.4830   -0.6150 C   0  0  0  0  0  0  0  0  0  0  0  0
    4.3720   18.0950    1.8400 C   0  0  0  0  0  0  0  0  0  0  0  0
    0.3570   16.7530   -1.8350 C   0  0  1  0  0  0  0  0  0  0  0  0
    1.7620   16.7660   -2.4950 C   0  0  0  0  0  0  0  0  0  0  0  0
    2.4750   15.4630   -2.0540 C   0  0  0  0  0  0  0  0  0  0  0  0
    1.3550   14.5940   -1.4360 C   0  0  1  0  0  0  0  0  0  0  0  0
    0.6370   13.9380   -2.6570 C   0  0  0  0  0  0  0  0  0  0  0  0
    1.8070   13.5250   -0.3890 C   0  0  2  0  0  0  0  0  0  0  0  0
    2.7480   12.4360   -0.9330 C   0  0  0  0  0  0  0  0  0  0  0  0
    2.0710   11.2170   -1.4680 C   0  0  0  0  0  0  0  0  0  0  0  0
    0.7860   10.8790   -1.2540 C   0  0  0  0  0  0  0  0  0  0  0  0
   -0.1030   11.7110   -0.3210 C   0  0  1  0  0  0  0  0  0  0  0  0
   -0.8800   10.7660    0.6330 C   0  0  0  0  0  0  0  0  0  0  0  0
   -1.6640    9.6930   -0.1160 C   0  0  0  0  0  0  0  0  0  0  0  0
   -0.7370    8.8500   -0.9880 C   0  0  2  0  0  0  0  0  0  0  0  0
    0.1350    8.0960   -0.1390 O   0  0  0  0  0  0  0  0  0  0  0  0
    0.1050    9.6950   -1.9840 C   0  0  0  0  0  0  0  0  0  0  0  0
   -0.8170   10.2700   -3.0880 C   0  0  0  0  0  0  0  0  0  0  0  0
    1.0970    8.7400   -2.7010 C   0  0  0  0  0  0  0  0  0  0  0  0
    0.6210   12.8970    0.4500 C   0  0  1  0  0  0  0  0  0  0  0  0
    1.2460   12.3670    1.7760 C   0  0  0  0  0  0  0  0  0  0  0  0
   -0.4530   13.9720    0.8640 C   0  0  0  0  0  0  0  0  0  0  0  0
   -0.7690   15.0720   -0.1670 C   0  0  0  0  0  0  0  0  0  0  0  0
    0.5170   15.7060   -0.7050 C   0  0  2  0  0  0  0  0  0  0  0  0
    1.2500   16.3930    0.4970 C   0  0  0  0  0  0  0  0  0  0  0  0
    0.9924   19.9776   -1.7386 H   0  0  0  0  0  0  0  0  0  0  0  0
    1.2790   18.7171   -2.9859 H   0  0  0  0  0  0  0  0  0  0  0  0
   -0.2574   19.6477   -2.9859 H   0  0  0  0  0  0  0  0  0  0  0  0
   -1.2078   18.2170   -1.5590 H   0  0  0  0  0  0  0  0  0  0  0  0
   -0.7507   18.5381    0.5896 H   0  0  0  0  0  0  0  0  0  0  0  0
    0.7685   17.5356    0.4139 H   0  0  0  0  0  0  0  0  0  0  0  0
    1.4950   19.9680   -0.6700 H   0  0  0  0  0  0  0  0  0  0  0  0
    0.4354   20.4262    0.7282 H   0  0  0  0  0  0  0  0  0  0  0  0
    1.4754   19.0507    2.0264 H   0  0  0  0  0  0  0  0  0  0  0  0
    4.5821   17.6859   -0.6691 H   0  0  0  0  0  0  0  0  0  0  0  0
    2.9048   18.1491   -1.1149 H   0  0  0  0  0  0  0  0  0  0  0  0
    4.2081   19.3853   -1.1149 H   0  0  0  0  0  0  0  0  0  0  0  0
    4.0334   18.3764    2.8481 H   0  0  0  0  0  0  0  0  0  0  0  0
    4.2762   17.0067    1.7115 H   0  0  0  0  0  0  0  0  0  0  0  0
    5.4244   18.3882    1.7115 H   0  0  0  0  0  0  0  0  0  0  0  0
   -0.4667   16.4624   -2.5036 H   0  0  0  0  0  0  0  0  0  0  0  0
    1.6657   16.7930   -3.5904 H   0  0  0  0  0  0  0  0  0  0  0  0
    2.3348   17.6533   -2.1873 H   0  0  0  0  0  0  0  0  0  0  0  0
    2.9269   14.9559   -2.9192 H   0  0  0  0  0  0  0  0  0  0  0  0
    3.2929   15.6554   -1.3440 H   0  0  0  0  0  0  0  0  0  0  0  0
   -0.1305   13.2367   -2.2977 H   0  0  0  0  0  0  0  0  0  0  0  0
    0.1620   14.7206   -3.2669 H   0  0  0  0  0  0  0  0  0  0  0  0
    1.3736   13.3944   -3.2669 H   0  0  0  0  0  0  0  0  0  0  0  0
    2.4120   14.1211    0.3100 H   0  0  0  0  0  0  0  0  0  0  0  0
    3.3450   12.8771   -1.7448 H   0  0  0  0  0  0  0  0  0  0  0  0
    3.3502   12.0985   -0.0766 H   0  0  0  0  0  0  0  0  0  0  0  0
    2.6735   10.5381   -2.0894 H   0  0  0  0  0  0  0  0  0  0  0  0
   -0.8097   12.2469   -0.9716 H   0  0  0  0  0  0  0  0  0  0  0  0
   -0.1609   10.2733    1.3039 H   0  0  0  0  0  0  0  0  0  0  0  0
   -1.6029   11.3777    1.1927 H   0  0  0  0  0  0  0  0  0  0  0  0
   -2.1662    9.0394    0.6125 H   0  0  0  0  0  0  0  0  0  0  0  0
   -2.4038   10.1860   -0.7638 H   0  0  0  0  0  0  0  0  0  0  0  0
   -1.3696    8.1875   -1.5970 H   0  0  0  0  0  0  0  0  0  0  0  0
    0.5440    7.4000   -0.6810 H   0  0  0  0  0  0  0  0  0  0  0  0
   -1.6624   10.7972   -2.6218 H   0  0  0  0  0  0  0  0  0  0  0  0
   -0.2464   10.9726   -3.7131 H   0  0  0  0  0  0  0  0  0  0  0  0
   -1.1969    9.4485   -3.7131 H   0  0  0  0  0  0  0  0  0  0  0  0
    1.6763    8.1823   -1.9505 H   0  0  0  0  0  0  0  0  0  0  0  0
    0.5359    8.0335   -3.3303 H   0  0  0  0  0  0  0  0  0  0  0  0
    1.7817    9.3276   -3.3303 H   0  0  0  0  0  0  0  0  0  0  0  0
    0.7202   12.8129    2.6331 H   0  0  0  0  0  0  0  0  0  0  0  0
    1.1486   11.2720    1.8153 H   0  0  0  0  0  0  0  0  0  0  0  0
    2.3103   12.6420    1.8153 H   0  0  0  0  0  0  0  0  0  0  0  0
   -1.3908   13.4392    1.0800 H   0  0  0  0  0  0  0  0  0  0  0  0
   -0.0143   14.5007    1.7231 H   0  0  0  0  0  0  0  0  0  0  0  0
   -1.3296   14.6302   -1.0039 H   0  0  0  0  0  0  0  0  0  0  0  0
   -1.3652   15.8537    0.3263 H   0  0  0  0  0  0  0  0  0  0  0  0
    0.8410   16.0096    1.4434 H   0  0  0  0  0  0  0  0  0  0  0  0
    2.3261   16.1706    0.4458 H   0  0  0  0  0  0  0  0  0  0  0  0
    1.0977   17.4812    0.4458 H   0  0  0  0  0  0  0  0  0  0  0  0
  1  2  1  0
  2  3  1  0
  3  4  1  0
  4  5  1  0
  5  6  1  0
  6  7  1  0
  7  8  1  0
  7  9  1  0
  2 10  1  0
 10 11  1  0
 11 12  1  0
 12 13  1  0
 13 14  1  6
 13 15  1  0
 15 16  1  0
 16 17  1  0
 17 18  2  0
 18 19  1  0
 19 20  1  0
 20 21  1  0
 21 22  1  0
 22 23  1  0
 22 24  1  0
 24 25  1  0
 24 26  1  0
 19 27  1  0
 27 28  1  1
 27 29  1  0
 29 30  1  0
 30 31  1  0
 31 32  1  1
  7  5  1  0
 31 10  1  0
 31 13  1  0
 27 15  1  0
 24 18  1  0
  1 33  1  0
  1 34  1  0
  1 35  1  0
  2 36  1  1
  3 37  1  0
  3 38  1  0
  4 39  1  0
  4 40  1  0
  5 41  1  1
  8 42  1  0
  8 43  1  0
  8 44  1  0
  9 45  1  0
  9 46  1  0
  9 47  1  0
 10 48  1  6
 11 49  1  0
 11 50  1  0
 12 51  1  0
 12 52  1  0
 14 53  1  0
 14 54  1  0
 14 55  1  0
 15 56  1  1
 16 57  1  0
 16 58  1  0
 17 59  1  0
 19 60  1  6
 20 61  1  0
 20 62  1  0
 21 63  1  0
 21 64  1  0
 22 65  1  6
 23 66  1  0
 25 67  1  0
 25 68  1  0
 25 69  1  0
 26 70  1  0
 26 71  1  0
 26 72  1  0
 28 73  1  0
 28 74  1  0
 28 75  1  0
 29 76  1  0
 29 77  1  0
 30 78  1  0
 30 79  1  0
 32 80  1  0
 32 81  1  0
 32 82  1  0
M  END
>  <meeko>  (16) 
{"is_sidechain": [false], "intermolecular_energy": 2.731, "internal_energy": -0.839}

$$$$
EPH_relaxed_0001_pdb2pqr_Repair_21_r2_0001_out
     RDKit          3D

 82 86  0  0  0  0  0  0  0  0999 V2000
    1.7780   10.8020   -4.6830 C   0  0  0  0  0  0  0  0  0  0  0  0
    0.9130   10.5750   -3.4400 C   0  0  2  0  0  0  0  0  0  0  0  0
   -0.2240    9.5670   -3.7010 C   0  0  0  0  0  0  0  0  0  0  0  0
   -0.3350    8.4740   -2.6340 C   0  0  0  0  0  0  0  0  0  0  0  0
    0.1150    8.9630   -1.2910 C   0  0  2  0  0  0  0  0  0  0  0  0
   -0.1700    8.0740   -0.2040 O   0  0  0  0  0  0  0  0  0  0  0  0
   -0.8400    9.3440   -0.1760 C   0  0  0  0  0  0  0  0  0  0  0  0
   -2.3230    9.2540   -0.3540 C   0  0  0  0  0  0  0  0  0  0  0  0
   -0.3520   10.2600    0.9030 C   0  0  0  0  0  0  0  0  0  0  0  0
    0.3340   11.9000   -2.9600 C   0  0  1  0  0  0  0  0  0  0  0  0
   -1.0190   11.7290   -2.2210 C   0  0  0  0  0  0  0  0  0  0  0  0
   -1.0560   12.7990   -1.1000 C   0  0  0  0  0  0  0  0  0  0  0  0
    0.1120   13.7560   -1.4370 C   0  0  1  0  0  0  0  0  0  0  0  0
   -0.4550   14.7080   -2.5370 C   0  0  0  0  0  0  0  0  0  0  0  0
    0.7170   14.5560   -0.2380 C   0  0  2  0  0  0  0  0  0  0  0  0
   -0.2560   15.5230    0.4600 C   0  0  0  0  0  0  0  0  0  0  0  0
   -0.2790   16.9110   -0.0900 C   0  0  0  0  0  0  0  0  0  0  0  0
    0.6460   17.4430   -0.9090 C   0  0  0  0  0  0  0  0  0  0  0  0
    1.9090   16.6590   -1.2860 C   0  0  1  0  0  0  0  0  0  0  0  0
    3.1520   17.5770   -1.1430 C   0  0  0  0  0  0  0  0  0  0  0  0
    3.0140   18.8750   -1.9330 C   0  0  0  0  0  0  0  0  0  0  0  0
    1.7790   19.6550   -1.4890 C   0  0  2  0  0  0  0  0  0  0  0  0
    1.9740   20.1000   -0.1430 O   0  0  0  0  0  0  0  0  0  0  0  0
    0.4660   18.8270   -1.5800 C   0  0  0  0  0  0  0  0  0  0  0  0
    0.0950   18.6020   -3.0660 C   0  0  0  0  0  0  0  0  0  0  0  0
   -0.6790   19.6810   -0.9710 C   0  0  0  0  0  0  0  0  0  0  0  0
    2.0990   15.2580   -0.5590 C   0  0  1  0  0  0  0  0  0  0  0  0
    2.8230   15.4620    0.8070 C   0  0  0  0  0  0  0  0  0  0  0  0
    3.0430   14.3490   -1.4310 C   0  0  0  0  0  0  0  0  0  0  0  0
    2.3710   13.4920   -2.5200 C   0  0  0  0  0  0  0  0  0  0  0  0
    1.1760   12.7210   -1.9510 C   0  0  2  0  0  0  0  0  0  0  0  0
    1.7190   11.7390   -0.8570 C   0  0  0  0  0  0  0  0  0  0  0  0
    2.7994   11.0700   -4.3750 H   0  0  0  0  0  0  0  0  0  0  0  0
    1.8060    9.8808   -5.2835 H   0  0  0  0  0  0  0  0  0  0  0  0
    1.3500   11.6182   -5.2835 H   0  0  0  0  0  0  0  0  0  0  0  0
    1.5605   10.1484   -2.6597 H   0  0  0  0  0  0  0  0  0  0  0  0
   -1.1756   10.1178   -3.7341 H   0  0  0  0  0  0  0  0  0  0  0  0
    0.0038    9.0649   -4.6529 H   0  0  0  0  0  0  0  0  0  0  0  0
   -1.3840    8.1507   -2.5626 H   0  0  0  0  0  0  0  0  0  0  0  0
    0.3157    7.6381   -2.9303 H   0  0  0  0  0  0  0  0  0  0  0  0
    0.9688    9.4891   -1.7429 H   0  0  0  0  0  0  0  0  0  0  0  0
   -2.8095    9.2245    0.6321 H   0  0  0  0  0  0  0  0  0  0  0  0
   -2.6792   10.1322   -0.9125 H   0  0  0  0  0  0  0  0  0  0  0  0
   -2.5704    8.3392   -0.9125 H   0  0  0  0  0  0  0  0  0  0  0  0
   -0.5839    9.8247    1.8862 H   0  0  0  0  0  0  0  0  0  0  0  0
    0.7359   10.3919    0.8078 H   0  0  0  0  0  0  0  0  0  0  0  0
   -0.8494   11.2365    0.8078 H   0  0  0  0  0  0  0  0  0  0  0  0
    0.2735   12.4322   -3.9208 H   0  0  0  0  0  0  0  0  0  0  0  0
   -1.8543   11.8838   -2.9198 H   0  0  0  0  0  0  0  0  0  0  0  0
   -1.1148   10.7161   -1.8028 H   0  0  0  0  0  0  0  0  0  0  0  0
   -2.0149   13.3380   -1.1089 H   0  0  0  0  0  0  0  0  0  0  0  0
   -0.9579   12.3571   -0.0974 H   0  0  0  0  0  0  0  0  0  0  0  0
   -0.9620   15.5593   -2.0593 H   0  0  0  0  0  0  0  0  0  0  0  0
    0.3704   15.0773   -3.1633 H   0  0  0  0  0  0  0  0  0  0  0  0
   -1.1729   14.1581   -3.1633 H   0  0  0  0  0  0  0  0  0  0  0  0
    0.9243   13.7618    0.4943 H   0  0  0  0  0  0  0  0  0  0  0  0
   -1.2703   15.1061    0.3735 H   0  0  0  0  0  0  0  0  0  0  0  0
    0.0960   15.6126    1.4983 H   0  0  0  0  0  0  0  0  0  0  0  0
   -1.1241   17.5530    0.1991 H   0  0  0  0  0  0  0  0  0  0  0  0
    1.7807   16.3659   -2.3384 H   0  0  0  0  0  0  0  0  0  0  0  0
    3.2876   17.8240   -0.0797 H   0  0  0  0  0  0  0  0  0  0  0  0
    4.0183   17.0315   -1.5453 H   0  0  0  0  0  0  0  0  0  0  0  0
    3.9087   19.4934   -1.7686 H   0  0  0  0  0  0  0  0  0  0  0  0
    2.9083   18.6274   -2.9996 H   0  0  0  0  0  0  0  0  0  0  0  0
    1.6619   20.5061   -2.1760 H   0  0  0  0  0  0  0  0  0  0  0  0
    1.1090   20.3750    0.2050 H   0  0  0  0  0  0  0  0  0  0  0  0
   -0.8441   18.0325   -3.1273 H   0  0  0  0  0  0  0  0  0  0  0  0
   -0.0330   19.5748   -3.5633 H   0  0  0  0  0  0  0  0  0  0  0  0
    0.8985   18.0389   -3.5633 H   0  0  0  0  0  0  0  0  0  0  0  0
   -0.6233   19.6395    0.1268 H   0  0  0  0  0  0  0  0  0  0  0  0
   -0.5754   20.7242   -1.3042 H   0  0  0  0  0  0  0  0  0  0  0  0
   -1.6494   19.2843   -1.3042 H   0  0  0  0  0  0  0  0  0  0  0  0
    2.1188   15.2636    1.6284 H   0  0  0  0  0  0  0  0  0  0  0  0
    3.6740   14.7687    0.8781 H   0  0  0  0  0  0  0  0  0  0  0  0
    3.1869   16.4976    0.8781 H   0  0  0  0  0  0  0  0  0  0  0  0
    3.7719   15.0063   -1.9277 H   0  0  0  0  0  0  0  0  0  0  0  0
    3.4790   13.6268   -0.7251 H   0  0  0  0  0  0  0  0  0  0  0  0
    2.0225   14.1487   -3.3307 H   0  0  0  0  0  0  0  0  0  0  0  0
    3.1067   12.7680   -2.9003 H   0  0  0  0  0  0  0  0  0  0  0  0
    1.4957   12.1428    0.1415 H   0  0  0  0  0  0  0  0  0  0  0  0
    1.2352   10.7578   -0.9723 H   0  0  0  0  0  0  0  0  0  0  0  0
    2.8072   11.6271   -0.9723 H   0  0  0  0  0  0  0  0  0  0  0  0
  1  2  1  0
  2  3  1  0
  3  4  1  0
  4  5  1  0
  5  6  1  0
  6  7  1  0
  7  8  1  0
  7  9  1  0
  2 10  1  0
 10 11  1  0
 11 12  1  0
 12 13  1  0
 13 14  1  6
 13 15  1  0
 15 16  1  0
 16 17  1  0
 17 18  2  0
 18 19  1  0
 19 20  1  0
 20 21  1  0
 21 22  1  0
 22 23  1  0
 22 24  1  0
 24 25  1  0
 24 26  1  0
 19 27  1  0
 27 28  1  1
 27 29  1  0
 29 30  1  0
 30 31  1  0
 31 32  1  1
  7  5  1  0
 31 10  1  0
 31 13  1  0
 27 15  1  0
 24 18  1  0
  1 33  1  0
  1 34  1  0
  1 35  1  0
  2 36  1  1
  3 37  1  0
  3 38  1  0
  4 39  1  0
  4 40  1  0
  5 41  1  6
  8 42  1  0
  8 43  1  0
  8 44  1  0
  9 45  1  0
  9 46  1  0
  9 47  1  0
 10 48  1  6
 11 49  1  0
 11 50  1  0
 12 51  1  0
 12 52  1  0
 14 53  1  0
 14 54  1  0
 14 55  1  0
 15 56  1  1
 16 57  1  0
 16 58  1  0
 17 59  1  0
 19 60  1  6
 20 61  1  0
 20 62  1  0
 21 63  1  0
 21 64  1  0
 22 65  1  6
 23 66  1  0
 25 67  1  0
 25 68  1  0
 25 69  1  0
 26 70  1  0
 26 71  1  0
 26 72  1  0
 28 73  1  0
 28 74  1  0
 28 75  1  0
 29 76  1  0
 29 77  1  0
 30 78  1  0
 30 79  1  0
 32 80  1  0
 32 81  1  0
 32 82  1  0
M  END
>  <meeko>  (17) 
{"is_sidechain": [false], "intermolecular_energy": 2.731, "internal_energy": -0.839}

$$$$
EPH_relaxed_0001_pdb2pqr_Repair_21_r2_0001_out
     RDKit          3D

 82 86  0  0  0  0  0  0  0  0999 V2000
    0.9970   14.9710   -2.6840 C   0  0  0  0  0  0  0  0  0  0  0  0
    1.2220   14.3000   -4.0420 C   0  0  2  0  0  0  0  0  0  0  0  0
    0.4770   15.0280   -5.1800 C   0  0  0  0  0  0  0  0  0  0  0  0
    0.9200   14.5960   -6.5800 C   0  0  0  0  0  0  0  0  0  0  0  0
    0.7570   15.7020   -7.5790 C   0  0  2  0  0  0  0  0  0  0  0  0
    0.4140   15.2680   -8.9020 O   0  0  0  0  0  0  0  0  0  0  0  0
    1.6910   15.9110   -8.7560 C   0  0  0  0  0  0  0  0  0  0  0  0
    2.8590   15.0060   -8.9950 C   0  0  0  0  0  0  0  0  0  0  0  0
    1.7580   17.2680   -9.3840 C   0  0  0  0  0  0  0  0  0  0  0  0
    0.7810   12.8430   -3.9810 C   0  0  1  0  0  0  0  0  0  0  0  0
    1.9150   11.8590   -4.3760 C   0  0  0  0  0  0  0  0  0  0  0  0
    1.7340   10.5930   -3.4990 C   0  0  0  0  0  0  0  0  0  0  0  0
    0.3280   10.7480   -2.8750 C   0  0  1  0  0  0  0  0  0  0  0  0
   -0.6590   10.2720   -3.9860 C   0  0  0  0  0  0  0  0  0  0  0  0
    0.0840    9.9970   -1.5250 C   0  0  2  0  0  0  0  0  0  0  0  0
    0.1980    8.4640   -1.6020 C   0  0  0  0  0  0  0  0  0  0  0  0
   -1.0740    7.7450   -1.9080 C   0  0  0  0  0  0  0  0  0  0  0  0
   -2.3100    8.2740   -1.8330 C   0  0  0  0  0  0  0  0  0  0  0  0
   -2.5250    9.7010   -1.3120 C   0  0  1  0  0  0  0  0  0  0  0  0
   -3.6920    9.7080   -0.2900 C   0  0  0  0  0  0  0  0  0  0  0  0
   -4.9690    9.0940   -0.8560 C   0  0  0  0  0  0  0  0  0  0  0  0
   -4.7290    7.6570   -1.3100 C   0  0  2  0  0  0  0  0  0  0  0  0
   -4.4510    6.8510   -0.1610 O   0  0  0  0  0  0  0  0  0  0  0  0
   -3.5680    7.5240   -2.3350 C   0  0  0  0  0  0  0  0  0  0  0  0
   -3.9950    8.1430   -3.6890 C   0  0  0  0  0  0  0  0  0  0  0  0
   -3.3380    6.0120   -2.6030 C   0  0  0  0  0  0  0  0  0  0  0  0
   -1.2300   10.4420   -0.7640 C   0  0  1  0  0  0  0  0  0  0  0  0
   -1.0130   10.0920    0.7400 C   0  0  0  0  0  0  0  0  0  0  0  0
   -1.4620   11.9980   -0.8290 C   0  0  0  0  0  0  0  0  0  0  0  0
   -1.0900   12.7010   -2.1480 C   0  0  0  0  0  0  0  0  0  0  0  0
    0.3150   12.2980   -2.6080 C   0  0  2  0  0  0  0  0  0  0  0  0
    1.3320   12.7840   -1.5190 C   0  0  0  0  0  0  0  0  0  0  0  0
    1.2355   14.2597   -1.8795 H   0  0  0  0  0  0  0  0  0  0  0  0
    1.6485   15.8532   -2.5985 H   0  0  0  0  0  0  0  0  0  0  0  0
   -0.0546   15.2821   -2.5985 H   0  0  0  0  0  0  0  0  0  0  0  0
    2.2981   14.3542   -4.2635 H   0  0  0  0  0  0  0  0  0  0  0  0
   -0.5989   14.8233   -5.0775 H   0  0  0  0  0  0  0  0  0  0  0  0
    0.7113   16.0985   -5.0846 H   0  0  0  0  0  0  0  0  0  0  0  0
    1.9792   14.3016   -6.5437 H   0  0  0  0  0  0  0  0  0  0  0  0
    0.2872   13.7532   -6.8951 H   0  0  0  0  0  0  0  0  0  0  0  0
    0.3900   16.3846   -6.7984 H   0  0  0  0  0  0  0  0  0  0  0  0
    3.2760   14.6829   -8.0298 H   0  0  0  0  0  0  0  0  0  0  0  0
    2.5296   14.1250   -9.5654 H   0  0  0  0  0  0  0  0  0  0  0  0
    3.6298   15.5450   -9.5654 H   0  0  0  0  0  0  0  0  0  0  0  0
    1.7959   18.0350   -8.5964 H   0  0  0  0  0  0  0  0  0  0  0  0
    2.6607   17.3388  -10.0085 H   0  0  0  0  0  0  0  0  0  0  0  0
    0.8666   17.4274  -10.0085 H   0  0  0  0  0  0  0  0  0  0  0  0
   -0.0678   12.8776   -4.6798 H   0  0  0  0  0  0  0  0  0  0  0  0
    1.8349   11.5966   -5.4412 H   0  0  0  0  0  0  0  0  0  0  0  0
    2.9046   12.3120   -4.2164 H   0  0  0  0  0  0  0  0  0  0  0  0
    1.7873    9.6832   -4.1149 H   0  0  0  0  0  0  0  0  0  0  0  0
    2.5207   10.4984   -2.7360 H   0  0  0  0  0  0  0  0  0  0  0  0
   -1.5560    9.8394   -3.5188 H   0  0  0  0  0  0  0  0  0  0  0  0
   -0.9485   11.1295   -4.6112 H   0  0  0  0  0  0  0  0  0  0  0  0
   -0.1682    9.5115   -4.6112 H   0  0  0  0  0  0  0  0  0  0  0  0
    0.9349   10.3295   -0.9123 H   0  0  0  0  0  0  0  0  0  0  0  0
    0.9262    8.2163   -2.3884 H   0  0  0  0  0  0  0  0  0  0  0  0
    0.5026    8.1305   -0.5990 H   0  0  0  0  0  0  0  0  0  0  0  0
   -0.9948    6.6936   -2.2214 H   0  0  0  0  0  0  0  0  0  0  0  0
   -2.7927   10.3080   -2.1894 H   0  0  0  0  0  0  0  0  0  0  0  0
   -3.3874    9.1331    0.5970 H   0  0  0  0  0  0  0  0  0  0  0  0
   -3.9089   10.7565   -0.0380 H   0  0  0  0  0  0  0  0  0  0  0  0
   -5.7469    9.1006   -0.0783 H   0  0  0  0  0  0  0  0  0  0  0  0
   -5.2886    9.6878   -1.7250 H   0  0  0  0  0  0  0  0  0  0  0  0
   -5.6406    7.3165   -1.8230 H   0  0  0  0  0  0  0  0  0  0  0  0
   -4.7150    7.3580    0.6250 H   0  0  0  0  0  0  0  0  0  0  0  0
   -4.6109    9.0358   -3.5060 H   0  0  0  0  0  0  0  0  0  0  0  0
   -3.0994    8.4264   -4.2613 H   0  0  0  0  0  0  0  0  0  0  0  0
   -4.5780    7.4064   -4.2613 H   0  0  0  0  0  0  0  0  0  0  0  0
   -3.2568    5.4780   -1.6448 H   0  0  0  0  0  0  0  0  0  0  0  0
   -4.1851    5.6084   -3.1771 H   0  0  0  0  0  0  0  0  0  0  0  0
   -2.4092    5.8785   -3.1771 H   0  0  0  0  0  0  0  0  0  0  0  0
   -1.4891   10.8598    1.3675 H   0  0  0  0  0  0  0  0  0  0  0  0
   -1.4618    9.1114    0.9567 H   0  0  0  0  0  0  0  0  0  0  0  0
    0.0649   10.0579    0.9567 H   0  0  0  0  0  0  0  0  0  0  0  0
   -2.5302   12.1833   -0.6429 H   0  0  0  0  0  0  0  0  0  0  0  0
   -0.7824   12.4221   -0.0751 H   0  0  0  0  0  0  0  0  0  0  0  0
   -1.8172   12.4187   -2.9236 H   0  0  0  0  0  0  0  0  0  0  0  0
   -1.1059   13.7883   -1.9821 H   0  0  0  0  0  0  0  0  0  0  0  0
    0.9197   12.5870   -0.5184 H   0  0  0  0  0  0  0  0  0  0  0  0
    2.2823   12.2427   -1.6372 H   0  0  0  0  0  0  0  0  0  0  0  0
    1.5078   13.8634   -1.6372 H   0  0  0  0  0  0  0  0  0  0  0  0
  1  2  1  0
  2  3  1  0
  3  4  1  0
  4  5  1  0
  5  6  1  0
  6  7  1  0
  7  8  1  0
  7  9  1  0
  2 10  1  0
 10 11  1  0
 11 12  1  0
 12 13  1  0
 13 14  1  6
 13 15  1  0
 15 16  1  0
 16 17  1  0
 17 18  2  0
 18 19  1  0
 19 20  1  0
 20 21  1  0
 21 22  1  0
 22 23  1  0
 22 24  1  0
 24 25  1  0
 24 26  1  0
 19 27  1  0
 27 28  1  1
 27 29  1  0
 29 30  1  0
 30 31  1  0
 31 32  1  1
  7  5  1  0
 31 10  1  0
 31 13  1  0
 27 15  1  0
 24 18  1  0
  1 33  1  0
  1 34  1  0
  1 35  1  0
  2 36  1  6
  3 37  1  0
  3 38  1  0
  4 39  1  0
  4 40  1  0
  5 41  1  1
  8 42  1  0
  8 43  1  0
  8 44  1  0
  9 45  1  0
  9 46  1  0
  9 47  1  0
 10 48  1  6
 11 49  1  0
 11 50  1  0
 12 51  1  0
 12 52  1  0
 14 53  1  0
 14 54  1  0
 14 55  1  0
 15 56  1  1
 16 57  1  0
 16 58  1  0
 17 59  1  0
 19 60  1  6
 20 61  1  0
 20 62  1  0
 21 63  1  0
 21 64  1  0
 22 65  1  6
 23 66  1  0
 25 67  1  0
 25 68  1  0
 25 69  1  0
 26 70  1  0
 26 71  1  0
 26 72  1  0
 28 73  1  0
 28 74  1  0
 28 75  1  0
 29 76  1  0
 29 77  1  0
 30 78  1  0
 30 79  1  0
 32 80  1  0
 32 81  1  0
 32 82  1  0
M  END
>  <meeko>  (18) 
{"is_sidechain": [false], "intermolecular_energy": 2.731, "internal_energy": -0.839}

$$$$
EPH_relaxed_0001_pdb2pqr_Repair_21_r2_0001_out
     RDKit          3D

 82 86  0  0  0  0  0  0  0  0999 V2000
    3.1040   14.8490   -7.5610 C   0  0  0  0  0  0  0  0  0  0  0  0
    1.5820   14.8770   -7.4020 C   0  0  2  0  0  0  0  0  0  0  0  0
    0.9500   16.1130   -8.0730 C   0  0  0  0  0  0  0  0  0  0  0  0
    1.8780   16.8150   -9.0690 C   0  0  0  0  0  0  0  0  0  0  0  0
    1.5860   16.4080  -10.4810 C   0  0  2  0  0  0  0  0  0  0  0  0
    1.0570   15.0830  -10.6250 O   0  0  0  0  0  0  0  0  0  0  0  0
    2.3470   15.3180  -11.2130 C   0  0  0  0  0  0  0  0  0  0  0  0
    3.4620   14.5680  -10.5540 C   0  0  0  0  0  0  0  0  0  0  0  0
    2.3370   15.3190  -12.7100 C   0  0  0  0  0  0  0  0  0  0  0  0
    1.2120   14.8410   -5.9240 C   0  0  1  0  0  0  0  0  0  0  0  0
   -0.0400   15.6980   -5.6000 C   0  0  0  0  0  0  0  0  0  0  0  0
   -0.8070   14.9620   -4.4710 C   0  0  0  0  0  0  0  0  0  0  0  0
    0.1880   13.8950   -3.9570 C   0  0  1  0  0  0  0  0  0  0  0  0
    1.1350   14.6650   -2.9840 C   0  0  0  0  0  0  0  0  0  0  0  0
   -0.4410   12.6360   -3.2750 C   0  0  2  0  0  0  0  0  0  0  0  0
   -1.2460   12.9210   -1.9950 C   0  0  0  0  0  0  0  0  0  0  0  0
   -0.4620   12.8710   -0.7250 C   0  0  0  0  0  0  0  0  0  0  0  0
    0.7630   12.3320   -0.5820 C   0  0  0  0  0  0  0  0  0  0  0  0
    1.4450   11.6080   -1.7500 C   0  0  1  0  0  0  0  0  0  0  0  0
    2.0390   10.2640   -1.2510 C   0  0  0  0  0  0  0  0  0  0  0  0
    2.9670   10.4430   -0.0540 C   0  0  0  0  0  0  0  0  0  0  0  0
    2.2360   11.1130    1.1070 C   0  0  2  0  0  0  0  0  0  0  0  0
    1.2280   10.2210    1.5940 O   0  0  0  0  0  0  0  0  0  0  0  0
    1.5870   12.4720    0.7210 C   0  0  0  0  0  0  0  0  0  0  0  0
    2.6950   13.5280    0.4840 C   0  0  0  0  0  0  0  0  0  0  0  0
    0.7640   12.9720    1.9390 C   0  0  0  0  0  0  0  0  0  0  0  0
    0.5710   11.4380   -3.0670 C   0  0  1  0  0  0  0  0  0  0  0  0
   -0.2880   10.1400   -2.9700 C   0  0  0  0  0  0  0  0  0  0  0  0
    1.5310   11.2440   -4.3000 C   0  0  0  0  0  0  0  0  0  0  0  0
    2.0230   12.5230   -5.0050 C   0  0  0  0  0  0  0  0  0  0  0  0
    0.8540   13.4630   -5.3140 C   0  0  2  0  0  0  0  0  0  0  0  0
   -0.1050   12.7240   -6.3090 C   0  0  0  0  0  0  0  0  0  0  0  0
    3.5763   14.8403   -6.5676 H   0  0  0  0  0  0  0  0  0  0  0  0
    3.3982   13.9453   -8.1148 H   0  0  0  0  0  0  0  0  0  0  0  0
    3.4313   15.7413   -8.1148 H   0  0  0  0  0  0  0  0  0  0  0  0
    1.1811   13.9859   -7.9072 H   0  0  0  0  0  0  0  0  0  0  0  0
    0.0444   15.7923   -8.6088 H   0  0  0  0  0  0  0  0  0  0  0  0
    0.7308   16.8359   -7.2734 H   0  0  0  0  0  0  0  0  0  0  0  0
    1.7427   17.9027   -8.9764 H   0  0  0  0  0  0  0  0  0  0  0  0
    2.9131   16.5249   -8.8359 H   0  0  0  0  0  0  0  0  0  0  0  0
    1.3383   17.4447  -10.7530 H   0  0  0  0  0  0  0  0  0  0  0  0
    3.3563   14.6391   -9.4614 H   0  0  0  0  0  0  0  0  0  0  0  0
    3.4233   13.5116  -10.8581 H   0  0  0  0  0  0  0  0  0  0  0  0
    4.4259   15.0021  -10.8581 H   0  0  0  0  0  0  0  0  0  0  0  0
    1.3026   15.4225  -13.0697 H   0  0  0  0  0  0  0  0  0  0  0  0
    2.9399   16.1613  -13.0801 H   0  0  0  0  0  0  0  0  0  0  0  0
    2.7611   14.3739  -13.0801 H   0  0  0  0  0  0  0  0  0  0  0  0
    2.1523   15.2118   -5.4900 H   0  0  0  0  0  0  0  0  0  0  0  0
    0.2639   16.6993   -5.2608 H   0  0  0  0  0  0  0  0  0  0  0  0
   -0.6735   15.8236   -6.4905 H   0  0  0  0  0  0  0  0  0  0  0  0
   -1.0778   15.6607   -3.6657 H   0  0  0  0  0  0  0  0  0  0  0  0
   -1.7488   14.5183   -4.8262 H   0  0  0  0  0  0  0  0  0  0  0  0
    0.8559   14.4380   -1.9445 H   0  0  0  0  0  0  0  0  0  0  0  0
    2.1749   14.3529   -3.1609 H   0  0  0  0  0  0  0  0  0  0  0  0
    1.0416   15.7467   -3.1609 H   0  0  0  0  0  0  0  0  0  0  0  0
   -1.1768   12.3055   -4.0229 H   0  0  0  0  0  0  0  0  0  0  0  0
   -1.6835   13.9262   -2.0852 H   0  0  0  0  0  0  0  0  0  0  0  0
   -1.9959   12.1196   -1.9219 H   0  0  0  0  0  0  0  0  0  0  0  0
   -0.9251   13.3123    0.1699 H   0  0  0  0  0  0  0  0  0  0  0  0
    2.2549   12.2716   -2.0870 H   0  0  0  0  0  0  0  0  0  0  0  0
    1.2121    9.5996   -0.9598 H   0  0  0  0  0  0  0  0  0  0  0  0
    2.6324    9.8359   -2.0723 H   0  0  0  0  0  0  0  0  0  0  0  0
    3.3305    9.4568    0.2704 H   0  0  0  0  0  0  0  0  0  0  0  0
    3.8094   11.0831   -0.3551 H   0  0  0  0  0  0  0  0  0  0  0  0
    2.9833   11.3314    1.8841 H   0  0  0  0  0  0  0  0  0  0  0  0
    0.9150   10.5680    2.4460 H   0  0  0  0  0  0  0  0  0  0  0  0
    3.0722   13.8875    1.4528 H   0  0  0  0  0  0  0  0  0  0  0  0
    3.5195   13.0731   -0.0845 H   0  0  0  0  0  0  0  0  0  0  0  0
    2.2802   14.3734   -0.0845 H   0  0  0  0  0  0  0  0  0  0  0  0
    1.2649   12.6677    2.8698 H   0  0  0  0  0  0  0  0  0  0  0  0
    0.6883   14.0689    1.9050 H   0  0  0  0  0  0  0  0  0  0  0  0
   -0.2443   12.5337    1.9050 H   0  0  0  0  0  0  0  0  0  0  0  0
   -0.4544    9.8886   -1.9121 H   0  0  0  0  0  0  0  0  0  0  0  0
   -1.2567   10.3036   -3.4647 H   0  0  0  0  0  0  0  0  0  0  0  0
    0.2412    9.3123   -3.4647 H   0  0  0  0  0  0  0  0  0  0  0  0
    2.4175   10.6956   -3.9486 H   0  0  0  0  0  0  0  0  0  0  0  0
    0.9294   10.7134   -5.0527 H   0  0  0  0  0  0  0  0  0  0  0  0
    2.7387   13.0420   -4.3505 H   0  0  0  0  0  0  0  0  0  0  0  0
    2.5040   12.2383   -5.9524 H   0  0  0  0  0  0  0  0  0  0  0  0
   -0.8510   12.1492   -5.7406 H   0  0  0  0  0  0  0  0  0  0  0  0
   -0.6168   13.4635   -6.9424 H   0  0  0  0  0  0  0  0  0  0  0  0
    0.4796   12.0406   -6.9424 H   0  0  0  0  0  0  0  0  0  0  0  0
  1  2  1  0
  2  3  1  0
  3  4  1  0
  4  5  1  0
  5  6  1  0
  6  7  1  0
  7  8  1  0
  7  9  1  0
  2 10  1  0
 10 11  1  0
 11 12  1  0
 12 13  1  0
 13 14  1  1
 13 15  1  0
 15 16  1  0
 16 17  1  0
 17 18  2  0
 18 19  1  0
 19 20  1  0
 20 21  1  0
 21 22  1  0
 22 23  1  0
 22 24  1  0
 24 25  1  0
 24 26  1  0
 19 27  1  0
 27 28  1  1
 27 29  1  0
 29 30  1  0
 30 31  1  0
 31 32  1  6
  7  5  1  0
 31 10  1  0
 31 13  1  0
 27 15  1  0
 24 18  1  0
  1 33  1  0
  1 34  1  0
  1 35  1  0
  2 36  1  6
  3 37  1  0
  3 38  1  0
  4 39  1  0
  4 40  1  0
  5 41  1  6
  8 42  1  0
  8 43  1  0
  8 44  1  0
  9 45  1  0
  9 46  1  0
  9 47  1  0
 10 48  1  1
 11 49  1  0
 11 50  1  0
 12 51  1  0
 12 52  1  0
 14 53  1  0
 14 54  1  0
 14 55  1  0
 15 56  1  6
 16 57  1  0
 16 58  1  0
 17 59  1  0
 19 60  1  6
 20 61  1  0
 20 62  1  0
 21 63  1  0
 21 64  1  0
 22 65  1  1
 23 66  1  0
 25 67  1  0
 25 68  1  0
 25 69  1  0
 26 70  1  0
 26 71  1  0
 26 72  1  0
 28 73  1  0
 28 74  1  0
 28 75  1  0
 29 76  1  0
 29 77  1  0
 30 78  1  0
 30 79  1  0
 32 80  1  0
 32 81  1  0
 32 82  1  0
M  END
>  <meeko>  (19) 
{"is_sidechain": [false], "intermolecular_energy": 2.731, "internal_energy": -0.839}

$$$$
