EPH_relaxed_0001_pdb2pqr_Repair_26_r2_0001_out
     RDKit          3D

 82 86  0  0  0  0  0  0  0  0999 V2000
   -1.7320    8.5670   -1.8850 C   0  0  0  0  0  0  0  0  0  0  0  0
   -2.1110    9.0900   -0.4970 C   0  0  2  0  0  0  0  0  0  0  0  0
   -3.6050    9.4590   -0.4030 C   0  0  0  0  0  0  0  0  0  0  0  0
   -4.5290    8.2490   -0.2400 C   0  0  0  0  0  0  0  0  0  0  0  0
   -5.2210    7.9020   -1.5240 C   0  0  2  0  0  0  0  0  0  0  0  0
   -6.3370    8.7420   -1.8480 O   0  0  0  0  0  0  0  0  0  0  0  0
   -6.6360    7.3600   -1.5910 C   0  0  0  0  0  0  0  0  0  0  0  0
   -7.4450    7.1330   -0.3530 C   0  0  0  0  0  0  0  0  0  0  0  0
   -7.0520    6.5970   -2.8100 C   0  0  0  0  0  0  0  0  0  0  0  0
   -1.2530   10.3000   -0.1440 C   0  0  1  0  0  0  0  0  0  0  0  0
   -0.2320    9.9990    0.9850 C   0  0  0  0  0  0  0  0  0  0  0  0
    1.0420   10.8230    0.6670 C   0  0  0  0  0  0  0  0  0  0  0  0
    0.6000   11.8150   -0.4350 C   0  0  1  0  0  0  0  0  0  0  0  0
   -0.1110   12.9740    0.3300 C   0  0  0  0  0  0  0  0  0  0  0  0
    1.7290   12.3500   -1.3750 C   0  0  2  0  0  0  0  0  0  0  0  0
    2.8280   13.1690   -0.6750 C   0  0  0  0  0  0  0  0  0  0  0  0
    2.5780   14.6390   -0.6010 C   0  0  0  0  0  0  0  0  0  0  0  0
    1.6630   15.3140   -1.3210 C   0  0  0  0  0  0  0  0  0  0  0  0
    0.8260   14.6060   -2.3940 C   0  0  1  0  0  0  0  0  0  0  0  0
    0.8110   15.4620   -3.6880 C   0  0  0  0  0  0  0  0  0  0  0  0
    0.3470   16.8930   -3.4370 C   0  0  0  0  0  0  0  0  0  0  0  0
    1.2390   17.5830   -2.4080 C   0  0  2  0  0  0  0  0  0  0  0  0
    2.5460   17.7470   -2.9670 O   0  0  0  0  0  0  0  0  0  0  0  0
    1.3390   16.8070   -1.0650 C   0  0  0  0  0  0  0  0  0  0  0  0
   -0.0140   16.8890   -0.3150 C   0  0  0  0  0  0  0  0  0  0  0  0
    2.3770   17.5340   -0.1690 C   0  0  0  0  0  0  0  0  0  0  0  0
    1.1980   13.0860   -2.6720 C   0  0  1  0  0  0  0  0  0  0  0  0
    2.3400   13.0020   -3.7300 C   0  0  0  0  0  0  0  0  0  0  0  0
   -0.0480   12.3590   -3.3040 C   0  0  0  0  0  0  0  0  0  0  0  0
   -1.0660   11.7460   -2.3240 C   0  0  0  0  0  0  0  0  0  0  0  0
   -0.3630   10.8910   -1.2660 C   0  0  2  0  0  0  0  0  0  0  0  0
    0.3440    9.7030   -2.0040 C   0  0  0  0  0  0  0  0  0  0  0  0
   -1.0895    7.6804   -1.7799 H   0  0  0  0  0  0  0  0  0  0  0  0
   -2.6444    8.2954   -2.4362 H   0  0  0  0  0  0  0  0  0  0  0  0
   -1.1898    9.3494   -2.4362 H   0  0  0  0  0  0  0  0  0  0  0  0
   -1.9249    8.2795    0.2231 H   0  0  0  0  0  0  0  0  0  0  0  0
   -3.7451   10.1221    0.4634 H   0  0  0  0  0  0  0  0  0  0  0  0
   -3.8763    9.9450   -1.3518 H   0  0  0  0  0  0  0  0  0  0  0  0
   -3.9312    7.3856    0.0873 H   0  0  0  0  0  0  0  0  0  0  0  0
   -5.2971    8.5024    0.5056 H   0  0  0  0  0  0  0  0  0  0  0  0
   -4.2762    7.5543   -1.9672 H   0  0  0  0  0  0  0  0  0  0  0  0
   -6.8171    7.3092    0.5328 H   0  0  0  0  0  0  0  0  0  0  0  0
   -8.2990    7.8262   -0.3408 H   0  0  0  0  0  0  0  0  0  0  0  0
   -7.8137    6.0967   -0.3408 H   0  0  0  0  0  0  0  0  0  0  0  0
   -7.5581    5.6687   -2.5065 H   0  0  0  0  0  0  0  0  0  0  0  0
   -7.7403    7.2108   -3.4096 H   0  0  0  0  0  0  0  0  0  0  0  0
   -6.1632    6.3509   -3.4096 H   0  0  0  0  0  0  0  0  0  0  0  0
   -2.0438   11.0156    0.1253 H   0  0  0  0  0  0  0  0  0  0  0  0
   -0.6447   10.3003    1.9591 H   0  0  0  0  0  0  0  0  0  0  0  0
   -0.0047    8.9239    1.0357 H   0  0  0  0  0  0  0  0  0  0  0  0
    1.3878   11.3637    1.5603 H   0  0  0  0  0  0  0  0  0  0  0  0
    1.8801   10.1877    0.3447 H   0  0  0  0  0  0  0  0  0  0  0  0
   -0.0122   12.8129    1.4136 H   0  0  0  0  0  0  0  0  0  0  0  0
    0.3545   13.9328    0.0579 H   0  0  0  0  0  0  0  0  0  0  0  0
   -1.1766   12.9935    0.0579 H   0  0  0  0  0  0  0  0  0  0  0  0
    2.2156   11.4222   -1.7104 H   0  0  0  0  0  0  0  0  0  0  0  0
    2.9323   12.7898    0.3523 H   0  0  0  0  0  0  0  0  0  0  0  0
    3.7352   13.0448   -1.2846 H   0  0  0  0  0  0  0  0  0  0  0  0
    3.1939   15.2196    0.1016 H   0  0  0  0  0  0  0  0  0  0  0  0
   -0.1923   14.5308   -1.9848 H   0  0  0  0  0  0  0  0  0  0  0  0
    1.8287   15.4892   -4.1046 H   0  0  0  0  0  0  0  0  0  0  0  0
    0.0997   14.9980   -4.3871 H   0  0  0  0  0  0  0  0  0  0  0  0
    0.3859   17.4551   -4.3818 H   0  0  0  0  0  0  0  0  0  0  0  0
   -0.6816   16.8655   -3.0480 H   0  0  0  0  0  0  0  0  0  0  0  0
    0.7815   18.5558   -2.1747 H   0  0  0  0  0  0  0  0  0  0  0  0
    3.1430   17.1340   -2.5060 H   0  0  0  0  0  0  0  0  0  0  0  0
    0.1669   16.8780    0.7700 H   0  0  0  0  0  0  0  0  0  0  0  0
   -0.5305   17.8201   -0.5912 H   0  0  0  0  0  0  0  0  0  0  0  0
   -0.6392   16.0271   -0.5912 H   0  0  0  0  0  0  0  0  0  0  0  0
    2.1318   17.3623    0.8895 H   0  0  0  0  0  0  0  0  0  0  0  0
    3.3827   17.1418   -0.3807 H   0  0  0  0  0  0  0  0  0  0  0  0
    2.3522   18.6131   -0.3807 H   0  0  0  0  0  0  0  0  0  0  0  0
    3.3105   12.9306   -3.2171 H   0  0  0  0  0  0  0  0  0  0  0  0
    2.1918   12.1123   -4.3597 H   0  0  0  0  0  0  0  0  0  0  0  0
    2.3235   13.9038   -4.3597 H   0  0  0  0  0  0  0  0  0  0  0  0
   -0.5833   13.0940   -3.9231 H   0  0  0  0  0  0  0  0  0  0  0  0
    0.3681   11.5047   -3.8581 H   0  0  0  0  0  0  0  0  0  0  0  0
   -1.6167   12.5563   -1.8238 H   0  0  0  0  0  0  0  0  0  0  0  0
   -1.7560   11.1041   -2.8914 H   0  0  0  0  0  0  0  0  0  0  0  0
    0.7592    9.0053   -1.2618 H   0  0  0  0  0  0  0  0  0  0  0  0
   -0.3873    9.1756   -2.6341 H   0  0  0  0  0  0  0  0  0  0  0  0
    1.1563   10.0942   -2.6341 H   0  0  0  0  0  0  0  0  0  0  0  0
  1  2  1  0
  2  3  1  0
  3  4  1  0
  4  5  1  0
  5  6  1  0
  6  7  1  0
  7  8  1  0
  7  9  1  0
  2 10  1  0
 10 11  1  0
 11 12  1  0
 12 13  1  0
 13 14  1  1
 13 15  1  0
 15 16  1  0
 16 17  1  0
 17 18  2  0
 18 19  1  0
 19 20  1  0
 20 21  1  0
 21 22  1  0
 22 23  1  0
 22 24  1  0
 24 25  1  0
 24 26  1  0
 19 27  1  0
 27 28  1  6
 27 29  1  0
 29 30  1  0
 30 31  1  0
 31 32  1  6
  7  5  1  0
 31 10  1  0
 31 13  1  0
 27 15  1  0
 24 18  1  0
  1 33  1  0
  1 34  1  0
  1 35  1  0
  2 36  1  1
  3 37  1  0
  3 38  1  0
  4 39  1  0
  4 40  1  0
  5 41  1  6
  8 42  1  0
  8 43  1  0
  8 44  1  0
  9 45  1  0
  9 46  1  0
  9 47  1  0
 10 48  1  1
 11 49  1  0
 11 50  1  0
 12 51  1  0
 12 52  1  0
 14 53  1  0
 14 54  1  0
 14 55  1  0
 15 56  1  6
 16 57  1  0
 16 58  1  0
 17 59  1  0
 19 60  1  1
 20 61  1  0
 20 62  1  0
 21 63  1  0
 21 64  1  0
 22 65  1  1
 23 66  1  0
 25 67  1  0
 25 68  1  0
 25 69  1  0
 26 70  1  0
 26 71  1  0
 26 72  1  0
 28 73  1  0
 28 74  1  0
 28 75  1  0
 29 76  1  0
 29 77  1  0
 30 78  1  0
 30 79  1  0
 32 80  1  0
 32 81  1  0
 32 82  1  0
M  END
>  <meeko>  (1) 
{"is_sidechain": [false], "intermolecular_energy": 2.731, "internal_energy": -0.839}

$$$$
EPH_relaxed_0001_pdb2pqr_Repair_26_r2_0001_out
     RDKit          3D

 82 86  0  0  0  0  0  0  0  0999 V2000
    2.4350   18.0140   -2.7630 C   0  0  0  0  0  0  0  0  0  0  0  0
    1.1120   17.6550   -2.0810 C   0  0  2  0  0  0  0  0  0  0  0  0
    1.2060   17.7480   -0.5450 C   0  0  0  0  0  0  0  0  0  0  0  0
    0.8550   19.1310    0.0100 C   0  0  0  0  0  0  0  0  0  0  0  0
   -0.5730   19.2040    0.4580 C   0  0  2  0  0  0  0  0  0  0  0  0
   -1.4570   18.2960   -0.2130 O   0  0  0  0  0  0  0  0  0  0  0  0
   -1.7030   19.6950   -0.4280 C   0  0  0  0  0  0  0  0  0  0  0  0
   -1.4540   20.1480   -1.8320 C   0  0  0  0  0  0  0  0  0  0  0  0
   -2.9560   20.1930    0.2220 C   0  0  0  0  0  0  0  0  0  0  0  0
    0.6800   16.2520   -2.4920 C   0  0  1  0  0  0  0  0  0  0  0  0
    0.8220   16.0060   -4.0180 C   0  0  0  0  0  0  0  0  0  0  0  0
    1.2320   14.5220   -4.1950 C   0  0  0  0  0  0  0  0  0  0  0  0
    0.9900   13.8820   -2.8080 C   0  0  1  0  0  0  0  0  0  0  0  0
   -0.5420   13.5850   -2.7660 C   0  0  0  0  0  0  0  0  0  0  0  0
    1.8340   12.6080   -2.4780 C   0  0  2  0  0  0  0  0  0  0  0  0
    1.5840   11.4020   -3.4000 C   0  0  0  0  0  0  0  0  0  0  0  0
    0.5120   10.4660   -2.9470 C   0  0  0  0  0  0  0  0  0  0  0  0
   -0.0230   10.4270   -1.7130 C   0  0  0  0  0  0  0  0  0  0  0  0
    0.5180   11.3240   -0.5920 C   0  0  1  0  0  0  0  0  0  0  0  0
    0.7090   10.4830    0.6980 C   0  0  0  0  0  0  0  0  0  0  0  0
   -0.5600    9.7410    1.1050 C   0  0  0  0  0  0  0  0  0  0  0  0
   -1.0340    8.8160   -0.0130 C   0  0  2  0  0  0  0  0  0  0  0  0
   -0.0740    7.7690   -0.1830 O   0  0  0  0  0  0  0  0  0  0  0  0
   -1.2510    9.5510   -1.3650 C   0  0  0  0  0  0  0  0  0  0  0  0
   -2.4920   10.4720   -1.2630 C   0  0  0  0  0  0  0  0  0  0  0  0
   -1.5900    8.4830   -2.4400 C   0  0  0  0  0  0  0  0  0  0  0  0
    1.8030   12.1870   -0.9530 C   0  0  1  0  0  0  0  0  0  0  0  0
    3.0940   11.3520   -0.6950 C   0  0  0  0  0  0  0  0  0  0  0  0
    1.8760   13.4290    0.0120 C   0  0  0  0  0  0  0  0  0  0  0  0
    1.1190   14.6960   -0.4280 C   0  0  0  0  0  0  0  0  0  0  0  0
    1.4550   15.0600   -1.8770 C   0  0  2  0  0  0  0  0  0  0  0  0
    2.9860   15.3860   -1.9470 C   0  0  0  0  0  0  0  0  0  0  0  0
    3.1976   18.2209   -1.9978 H   0  0  0  0  0  0  0  0  0  0  0  0
    2.7641   17.1727   -3.3906 H   0  0  0  0  0  0  0  0  0  0  0  0
    2.2937   18.9063   -3.3906 H   0  0  0  0  0  0  0  0  0  0  0  0
    0.3605   18.3876   -2.4104 H   0  0  0  0  0  0  0  0  0  0  0  0
    0.5133   17.0129   -0.1095 H   0  0  0  0  0  0  0  0  0  0  0  0
    2.2534   17.5491   -0.2742 H   0  0  0  0  0  0  0  0  0  0  0  0
    1.5089   19.3470    0.8678 H   0  0  0  0  0  0  0  0  0  0  0  0
    0.9999   19.8688   -0.7929 H   0  0  0  0  0  0  0  0  0  0  0  0
   -0.2647   19.4748    1.4786 H   0  0  0  0  0  0  0  0  0  0  0  0
   -0.9242   21.1119   -1.8178 H   0  0  0  0  0  0  0  0  0  0  0  0
   -0.8403   19.4000   -2.3552 H   0  0  0  0  0  0  0  0  0  0  0  0
   -2.4145   20.2652   -2.3552 H   0  0  0  0  0  0  0  0  0  0  0  0
   -2.8444   20.1487    1.3154 H   0  0  0  0  0  0  0  0  0  0  0  0
   -3.1405   21.2328   -0.0859 H   0  0  0  0  0  0  0  0  0  0  0  0
   -3.8039   19.5635   -0.0859 H   0  0  0  0  0  0  0  0  0  0  0  0
   -0.3544   16.2610   -2.1179 H   0  0  0  0  0  0  0  0  0  0  0  0
   -0.1362   16.1972   -4.5234 H   0  0  0  0  0  0  0  0  0  0  0  0
    1.5728   16.6786   -4.4585 H   0  0  0  0  0  0  0  0  0  0  0  0
    0.6097   14.0359   -4.9608 H   0  0  0  0  0  0  0  0  0  0  0  0
    2.2749   14.4143   -4.5277 H   0  0  0  0  0  0  0  0  0  0  0  0
   -0.8744   13.5206   -1.7194 H   0  0  0  0  0  0  0  0  0  0  0  0
   -1.0865   14.3943   -3.2745 H   0  0  0  0  0  0  0  0  0  0  0  0
   -0.7446   12.6309   -3.2745 H   0  0  0  0  0  0  0  0  0  0  0  0
    2.8592   12.9418   -2.6959 H   0  0  0  0  0  0  0  0  0  0  0  0
    1.3043   11.7848   -4.3926 H   0  0  0  0  0  0  0  0  0  0  0  0
    2.5172   10.8197   -3.4003 H   0  0  0  0  0  0  0  0  0  0  0  0
    0.1269    9.7471   -3.6852 H   0  0  0  0  0  0  0  0  0  0  0  0
   -0.2476   12.0959   -0.4248 H   0  0  0  0  0  0  0  0  0  0  0  0
    1.5076    9.7468    0.5241 H   0  0  0  0  0  0  0  0  0  0  0  0
    0.9673   11.1752    1.5130 H   0  0  0  0  0  0  0  0  0  0  0  0
   -0.3540    9.1422    2.0045 H   0  0  0  0  0  0  0  0  0  0  0  0
   -1.3492   10.4802    1.3071 H   0  0  0  0  0  0  0  0  0  0  0  0
   -2.0129    8.4125    0.2851 H   0  0  0  0  0  0  0  0  0  0  0  0
    0.8070    8.1790   -0.2100 H   0  0  0  0  0  0  0  0  0  0  0  0
   -2.7310   10.6493   -0.2040 H   0  0  0  0  0  0  0  0  0  0  0  0
   -2.2780   11.4316   -1.7563 H   0  0  0  0  0  0  0  0  0  0  0  0
   -3.3485    9.9892   -1.7563 H   0  0  0  0  0  0  0  0  0  0  0  0
   -1.8873    7.5465   -1.9455 H   0  0  0  0  0  0  0  0  0  0  0  0
   -2.4175    8.8447   -3.0680 H   0  0  0  0  0  0  0  0  0  0  0  0
   -0.7054    8.3012   -3.0680 H   0  0  0  0  0  0  0  0  0  0  0  0
    3.2535   11.2488    0.3885 H   0  0  0  0  0  0  0  0  0  0  0  0
    2.9819   10.3549   -1.1457 H   0  0  0  0  0  0  0  0  0  0  0  0
    3.9575   11.8632   -1.1457 H   0  0  0  0  0  0  0  0  0  0  0  0
    1.4678   13.1187    0.9852 H   0  0  0  0  0  0  0  0  0  0  0  0
    2.9370   13.7188    0.0282 H   0  0  0  0  0  0  0  0  0  0  0  0
    0.0371   14.5162   -0.3438 H   0  0  0  0  0  0  0  0  0  0  0  0
    1.4226   15.5295    0.2224 H   0  0  0  0  0  0  0  0  0  0  0  0
    3.3896   15.4719   -0.9273 H   0  0  0  0  0  0  0  0  0  0  0  0
    3.5087   14.5790   -2.4814 H   0  0  0  0  0  0  0  0  0  0  0  0
    3.1346   16.3359   -2.4814 H   0  0  0  0  0  0  0  0  0  0  0  0
  1  2  1  0
  2  3  1  0
  3  4  1  0
  4  5  1  0
  5  6  1  0
  6  7  1  0
  7  8  1  0
  7  9  1  0
  2 10  1  0
 10 11  1  0
 11 12  1  0
 12 13  1  0
 13 14  1  1
 13 15  1  0
 15 16  1  0
 16 17  1  0
 17 18  2  0
 18 19  1  0
 19 20  1  0
 20 21  1  0
 21 22  1  0
 22 23  1  0
 22 24  1  0
 24 25  1  0
 24 26  1  0
 19 27  1  0
 27 28  1  1
 27 29  1  0
 29 30  1  0
 30 31  1  0
 31 32  1  1
  7  5  1  0
 31 10  1  0
 31 13  1  0
 27 15  1  0
 24 18  1  0
  1 33  1  0
  1 34  1  0
  1 35  1  0
  2 36  1  6
  3 37  1  0
  3 38  1  0
  4 39  1  0
  4 40  1  0
  5 41  1  1
  8 42  1  0
  8 43  1  0
  8 44  1  0
  9 45  1  0
  9 46  1  0
  9 47  1  0
 10 48  1  1
 11 49  1  0
 11 50  1  0
 12 51  1  0
 12 52  1  0
 14 53  1  0
 14 54  1  0
 14 55  1  0
 15 56  1  6
 16 57  1  0
 16 58  1  0
 17 59  1  0
 19 60  1  1
 20 61  1  0
 20 62  1  0
 21 63  1  0
 21 64  1  0
 22 65  1  1
 23 66  1  0
 25 67  1  0
 25 68  1  0
 25 69  1  0
 26 70  1  0
 26 71  1  0
 26 72  1  0
 28 73  1  0
 28 74  1  0
 28 75  1  0
 29 76  1  0
 29 77  1  0
 30 78  1  0
 30 79  1  0
 32 80  1  0
 32 81  1  0
 32 82  1  0
M  END
>  <meeko>  (2) 
{"is_sidechain": [false], "intermolecular_energy": 2.731, "internal_energy": -0.839}

$$$$
EPH_relaxed_0001_pdb2pqr_Repair_26_r2_0001_out
     RDKit          3D

 82 86  0  0  0  0  0  0  0  0999 V2000
    1.9720   19.6750   -0.6380 C   0  0  0  0  0  0  0  0  0  0  0  0
    2.3290   18.4640    0.2290 C   0  0  2  0  0  0  0  0  0  0  0  0
    3.7900   18.0150    0.0260 C   0  0  0  0  0  0  0  0  0  0  0  0
    4.6570   18.1560    1.2800 C   0  0  0  0  0  0  0  0  0  0  0  0
    3.9750   18.9720    2.3370 C   0  0  2  0  0  0  0  0  0  0  0  0
    4.6470   20.1910    2.6790 O   0  0  0  0  0  0  0  0  0  0  0  0
    4.5560   19.2040    3.7190 C   0  0  0  0  0  0  0  0  0  0  0  0
    5.8730   18.6190    4.1200 C   0  0  0  0  0  0  0  0  0  0  0  0
    3.6270   19.5840    4.8300 C   0  0  0  0  0  0  0  0  0  0  0  0
    1.3820   17.3090   -0.0770 C   0  0  1  0  0  0  0  0  0  0  0  0
    0.1300   17.7590   -0.8770 C   0  0  0  0  0  0  0  0  0  0  0  0
   -0.2300   16.5950   -1.8350 C   0  0  0  0  0  0  0  0  0  0  0  0
    0.6090   15.3980   -1.3280 C   0  0  1  0  0  0  0  0  0  0  0  0
   -0.2000   14.8240   -0.1230 C   0  0  0  0  0  0  0  0  0  0  0  0
    0.9410   14.2910   -2.3810 C   0  0  2  0  0  0  0  0  0  0  0  0
   -0.2800   13.5600   -2.9660 C   0  0  0  0  0  0  0  0  0  0  0  0
   -0.7040   12.3340   -2.2260 C   0  0  0  0  0  0  0  0  0  0  0  0
    0.0340   11.6800   -1.3100 C   0  0  0  0  0  0  0  0  0  0  0  0
    1.4760   12.1080   -1.0070 C   0  0  1  0  0  0  0  0  0  0  0  0
    2.3920   10.8570   -0.9780 C   0  0  0  0  0  0  0  0  0  0  0  0
    1.8890    9.7850   -0.0170 C   0  0  0  0  0  0  0  0  0  0  0  0
    0.4750    9.3430   -0.3860 C   0  0  2  0  0  0  0  0  0  0  0  0
    0.5170    8.6690   -1.6470 O   0  0  0  0  0  0  0  0  0  0  0  0
   -0.5370   10.5210   -0.4560 C   0  0  0  0  0  0  0  0  0  0  0  0
   -0.8100   11.0580    0.9710 C   0  0  0  0  0  0  0  0  0  0  0  0
   -1.8880    9.9600   -0.9740 C   0  0  0  0  0  0  0  0  0  0  0  0
    2.0590   13.2720   -1.9190 C   0  0  1  0  0  0  0  0  0  0  0  0
    2.6770   12.6700   -3.2180 C   0  0  0  0  0  0  0  0  0  0  0  0
    3.2380   13.9820   -1.1540 C   0  0  0  0  0  0  0  0  0  0  0  0
    2.8580   15.1470   -0.2200 C   0  0  0  0  0  0  0  0  0  0  0  0
    1.9360   16.1420   -0.9310 C   0  0  2  0  0  0  0  0  0  0  0  0
    2.7300   16.7530   -2.1350 C   0  0  0  0  0  0  0  0  0  0  0  0
    1.7205   20.5280    0.0094 H   0  0  0  0  0  0  0  0  0  0  0  0
    2.8310   19.9373   -1.2730 H   0  0  0  0  0  0  0  0  0  0  0  0
    1.1080   19.4294   -1.2730 H   0  0  0  0  0  0  0  0  0  0  0  0
    2.2197   18.7662    1.2810 H   0  0  0  0  0  0  0  0  0  0  0  0
    3.7893   16.9580   -0.2787 H   0  0  0  0  0  0  0  0  0  0  0  0
    4.2248   18.6726   -0.7411 H   0  0  0  0  0  0  0  0  0  0  0  0
    4.8666   17.1542    1.6830 H   0  0  0  0  0  0  0  0  0  0  0  0
    5.5876   18.6699    0.9974 H   0  0  0  0  0  0  0  0  0  0  0  0
    2.9869   18.6248    2.0007 H   0  0  0  0  0  0  0  0  0  0  0  0
    5.9417   18.5885    5.2174 H   0  0  0  0  0  0  0  0  0  0  0  0
    5.9583   17.5984    3.7187 H   0  0  0  0  0  0  0  0  0  0  0  0
    6.6875   19.2400    3.7187 H   0  0  0  0  0  0  0  0  0  0  0  0
    4.1118   19.3857    5.7973 H   0  0  0  0  0  0  0  0  0  0  0  0
    3.3834   20.6540    4.7545 H   0  0  0  0  0  0  0  0  0  0  0  0
    2.7033   18.9914    4.7545 H   0  0  0  0  0  0  0  0  0  0  0  0
    1.1782   16.9617    0.9467 H   0  0  0  0  0  0  0  0  0  0  0  0
   -0.7067   17.9577   -0.1911 H   0  0  0  0  0  0  0  0  0  0  0  0
    0.3305   18.6842   -1.4372 H   0  0  0  0  0  0  0  0  0  0  0  0
   -1.3046   16.3663   -1.7814 H   0  0  0  0  0  0  0  0  0  0  0  0
   -0.0161   16.8387   -2.8861 H   0  0  0  0  0  0  0  0  0  0  0  0
    0.2630   15.1525    0.8192 H   0  0  0  0  0  0  0  0  0  0  0  0
   -1.2363   15.1900   -0.1695 H   0  0  0  0  0  0  0  0  0  0  0  0
   -0.1968   13.7250   -0.1695 H   0  0  0  0  0  0  0  0  0  0  0  0
    1.3652   14.8745   -3.2114 H   0  0  0  0  0  0  0  0  0  0  0  0
   -1.1261   14.2629   -2.9724 H   0  0  0  0  0  0  0  0  0  0  0  0
    0.0193   13.2219   -3.9691 H   0  0  0  0  0  0  0  0  0  0  0  0
   -1.7034   11.9317   -2.4483 H   0  0  0  0  0  0  0  0  0  0  0  0
    1.4526   12.5754   -0.0115 H   0  0  0  0  0  0  0  0  0  0  0  0
    2.4370   10.4296   -1.9906 H   0  0  0  0  0  0  0  0  0  0  0  0
    3.3845   11.1784   -0.6293 H   0  0  0  0  0  0  0  0  0  0  0  0
    2.5616    8.9158   -0.0629 H   0  0  0  0  0  0  0  0  0  0  0  0
    1.8722   10.2043    0.9998 H   0  0  0  0  0  0  0  0  0  0  0  0
    0.1206    8.6727    0.4109 H   0  0  0  0  0  0  0  0  0  0  0  0
    0.0900    9.2460   -2.3030 H   0  0  0  0  0  0  0  0  0  0  0  0
   -0.4416   10.3334    1.7121 H   0  0  0  0  0  0  0  0  0  0  0  0
   -0.2905   12.0180    1.1071 H   0  0  0  0  0  0  0  0  0  0  0  0
   -1.8917   11.2039    1.1071 H   0  0  0  0  0  0  0  0  0  0  0  0
   -2.5269    9.6947   -0.1188 H   0  0  0  0  0  0  0  0  0  0  0  0
   -2.3918   10.7233   -1.5852 H   0  0  0  0  0  0  0  0  0  0  0  0
   -1.7029    9.0644   -1.5852 H   0  0  0  0  0  0  0  0  0  0  0  0
    3.4411   11.9256   -2.9497 H   0  0  0  0  0  0  0  0  0  0  0  0
    1.8862   12.1865   -3.8103 H   0  0  0  0  0  0  0  0  0  0  0  0
    3.1396   13.4732   -3.8103 H   0  0  0  0  0  0  0  0  0  0  0  0
    3.7466   13.2198   -0.5454 H   0  0  0  0  0  0  0  0  0  0  0  0
    3.8602   14.4345   -1.9402 H   0  0  0  0  0  0  0  0  0  0  0  0
    2.3407   14.7455    0.6638 H   0  0  0  0  0  0  0  0  0  0  0  0
    3.7777   15.6722    0.0773 H   0  0  0  0  0  0  0  0  0  0  0  0
    3.5477   17.3822   -1.7535 H   0  0  0  0  0  0  0  0  0  0  0  0
    3.1477   15.9412   -2.7485 H   0  0  0  0  0  0  0  0  0  0  0  0
    2.0522   17.3647   -2.7485 H   0  0  0  0  0  0  0  0  0  0  0  0
  1  2  1  0
  2  3  1  0
  3  4  1  0
  4  5  1  0
  5  6  1  0
  6  7  1  0
  7  8  1  0
  7  9  1  0
  2 10  1  0
 10 11  1  0
 11 12  1  0
 12 13  1  0
 13 14  1  1
 13 15  1  0
 15 16  1  0
 16 17  1  0
 17 18  2  0
 18 19  1  0
 19 20  1  0
 20 21  1  0
 21 22  1  0
 22 23  1  0
 22 24  1  0
 24 25  1  0
 24 26  1  0
 19 27  1  0
 27 28  1  6
 27 29  1  0
 29 30  1  0
 30 31  1  0
 31 32  1  6
  7  5  1  0
 31 10  1  0
 31 13  1  0
 27 15  1  0
 24 18  1  0
  1 33  1  0
  1 34  1  0
  1 35  1  0
  2 36  1  1
  3 37  1  0
  3 38  1  0
  4 39  1  0
  4 40  1  0
  5 41  1  1
  8 42  1  0
  8 43  1  0
  8 44  1  0
  9 45  1  0
  9 46  1  0
  9 47  1  0
 10 48  1  1
 11 49  1  0
 11 50  1  0
 12 51  1  0
 12 52  1  0
 14 53  1  0
 14 54  1  0
 14 55  1  0
 15 56  1  6
 16 57  1  0
 16 58  1  0
 17 59  1  0
 19 60  1  1
 20 61  1  0
 20 62  1  0
 21 63  1  0
 21 64  1  0
 22 65  1  1
 23 66  1  0
 25 67  1  0
 25 68  1  0
 25 69  1  0
 26 70  1  0
 26 71  1  0
 26 72  1  0
 28 73  1  0
 28 74  1  0
 28 75  1  0
 29 76  1  0
 29 77  1  0
 30 78  1  0
 30 79  1  0
 32 80  1  0
 32 81  1  0
 32 82  1  0
M  END
>  <meeko>  (3) 
{"is_sidechain": [false], "intermolecular_energy": 2.731, "internal_energy": -0.839}

$$$$
EPH_relaxed_0001_pdb2pqr_Repair_26_r2_0001_out
     RDKit          3D

 82 86  0  0  0  0  0  0  0  0999 V2000
   -3.4270    9.2890    0.5430 C   0  0  0  0  0  0  0  0  0  0  0  0
   -2.6040    9.6570   -0.6960 C   0  0  2  0  0  0  0  0  0  0  0  0
   -1.9320    8.4250   -1.3330 C   0  0  0  0  0  0  0  0  0  0  0  0
   -2.8390    7.6600   -2.3010 C   0  0  0  0  0  0  0  0  0  0  0  0
   -4.2750    7.7170   -1.8760 C   0  0  2  0  0  0  0  0  0  0  0  0
   -4.7950    6.4870   -1.3550 O   0  0  0  0  0  0  0  0  0  0  0  0
   -5.3860    6.9580   -2.5780 C   0  0  0  0  0  0  0  0  0  0  0  0
   -5.1080    6.0870   -3.7630 C   0  0  0  0  0  0  0  0  0  0  0  0
   -6.7940    7.4410   -2.4200 C   0  0  0  0  0  0  0  0  0  0  0  0
   -1.5500   10.6950   -0.3300 C   0  0  1  0  0  0  0  0  0  0  0  0
   -0.4590   10.1300    0.6190 C   0  0  0  0  0  0  0  0  0  0  0  0
    0.8730   10.8190    0.2290 C   0  0  0  0  0  0  0  0  0  0  0  0
    0.4530   11.9870   -0.6930 C   0  0  1  0  0  0  0  0  0  0  0  0
    0.0040   13.1230    0.2780 C   0  0  0  0  0  0  0  0  0  0  0  0
    1.5310   12.4880   -1.7080 C   0  0  2  0  0  0  0  0  0  0  0  0
    2.8070   13.0680   -1.0720 C   0  0  0  0  0  0  0  0  0  0  0  0
    2.7770   14.5370   -0.8090 C   0  0  0  0  0  0  0  0  0  0  0  0
    1.8900   15.4070   -1.3270 C   0  0  0  0  0  0  0  0  0  0  0  0
    0.8450   14.9490   -2.3520 C   0  0  1  0  0  0  0  0  0  0  0  0
    0.8030   15.9540   -3.5340 C   0  0  0  0  0  0  0  0  0  0  0  0
    0.5780   17.3900   -3.0720 C   0  0  0  0  0  0  0  0  0  0  0  0
    1.6690   17.8280   -2.0990 C   0  0  2  0  0  0  0  0  0  0  0  0
    2.9140   17.8940   -2.8010 O   0  0  0  0  0  0  0  0  0  0  0  0
    1.8110   16.8850   -0.8720 C   0  0  0  0  0  0  0  0  0  0  0  0
    0.5780   17.0440    0.0520 C   0  0  0  0  0  0  0  0  0  0  0  0
    3.0360   17.3580   -0.0450 C   0  0  0  0  0  0  0  0  0  0  0  0
    0.9650   13.4410   -2.8380 C   0  0  1  0  0  0  0  0  0  0  0  0
    1.9550   13.3450   -4.0390 C   0  0  0  0  0  0  0  0  0  0  0  0
   -0.4340   12.9620   -3.3780 C   0  0  0  0  0  0  0  0  0  0  0  0
   -1.4110   12.3660   -2.3460 C   0  0  0  0  0  0  0  0  0  0  0  0
   -0.7190   11.3030   -1.4870 C   0  0  2  0  0  0  0  0  0  0  0  0
   -0.2750   10.1360   -2.4340 C   0  0  0  0  0  0  0  0  0  0  0  0
   -2.8584    9.5432    1.4497 H   0  0  0  0  0  0  0  0  0  0  0  0
   -4.3733    9.8497    0.5344 H   0  0  0  0  0  0  0  0  0  0  0  0
   -3.6401    8.2099    0.5344 H   0  0  0  0  0  0  0  0  0  0  0  0
   -3.2961   10.0770   -1.4407 H   0  0  0  0  0  0  0  0  0  0  0  0
   -1.0414    8.7614   -1.8841 H   0  0  0  0  0  0  0  0  0  0  0  0
   -1.6829    7.7352   -0.5132 H   0  0  0  0  0  0  0  0  0  0  0  0
   -2.7458    8.1037   -3.3032 H   0  0  0  0  0  0  0  0  0  0  0  0
   -2.5241    6.6060   -2.3062 H   0  0  0  0  0  0  0  0  0  0  0  0
   -4.1716    8.7732   -1.5865 H   0  0  0  0  0  0  0  0  0  0  0  0
   -4.7902    5.0914   -3.4198 H   0  0  0  0  0  0  0  0  0  0  0  0
   -6.0203    5.9916   -4.3701 H   0  0  0  0  0  0  0  0  0  0  0  0
   -4.3091    6.5378   -4.3701 H   0  0  0  0  0  0  0  0  0  0  0  0
   -7.0353    7.5238   -1.3500 H   0  0  0  0  0  0  0  0  0  0  0  0
   -6.8992    8.4266   -2.8969 H   0  0  0  0  0  0  0  0  0  0  0  0
   -7.4821    6.7275   -2.8969 H   0  0  0  0  0  0  0  0  0  0  0  0
   -2.1970   11.4659    0.1141 H   0  0  0  0  0  0  0  0  0  0  0  0
   -0.7115   10.3583    1.6650 H   0  0  0  0  0  0  0  0  0  0  0  0
   -0.3808    9.0369    0.5244 H   0  0  0  0  0  0  0  0  0  0  0  0
    1.3909   11.1968    1.1228 H   0  0  0  0  0  0  0  0  0  0  0  0
    1.5710   10.1275   -0.2656 H   0  0  0  0  0  0  0  0  0  0  0  0
    0.1357   12.7898    1.3180 H   0  0  0  0  0  0  0  0  0  0  0  0
    0.6152   14.0202    0.1002 H   0  0  0  0  0  0  0  0  0  0  0  0
   -1.0554   13.3599    0.1002 H   0  0  0  0  0  0  0  0  0  0  0  0
    1.8402   11.5551   -2.2020 H   0  0  0  0  0  0  0  0  0  0  0  0
    2.9728   12.5544   -0.1135 H   0  0  0  0  0  0  0  0  0  0  0  0
    3.6124   12.9061   -1.8035 H   0  0  0  0  0  0  0  0  0  0  0  0
    3.5451   14.9432   -0.1345 H   0  0  0  0  0  0  0  0  0  0  0  0
   -0.1201   14.9529   -1.8242 H   0  0  0  0  0  0  0  0  0  0  0  0
    1.7597   15.9031   -4.0745 H   0  0  0  0  0  0  0  0  0  0  0  0
   -0.0420   15.6746   -4.1804 H   0  0  0  0  0  0  0  0  0  0  0  0
    0.5885   18.0556   -3.9477 H   0  0  0  0  0  0  0  0  0  0  0  0
   -0.3930   17.4451   -2.5581 H   0  0  0  0  0  0  0  0  0  0  0  0
    1.3821   18.8141   -1.7050 H   0  0  0  0  0  0  0  0  0  0  0  0
    3.2880   18.7790   -2.6550 H   0  0  0  0  0  0  0  0  0  0  0  0
    0.8997   17.0025    1.1031 H   0  0  0  0  0  0  0  0  0  0  0  0
    0.0942   18.0120   -0.1455 H   0  0  0  0  0  0  0  0  0  0  0  0
   -0.1355   16.2304   -0.1455 H   0  0  0  0  0  0  0  0  0  0  0  0
    2.8099   17.2707    1.0280 H   0  0  0  0  0  0  0  0  0  0  0  0
    3.9067   16.7314   -0.2884 H   0  0  0  0  0  0  0  0  0  0  0  0
    3.2597   18.4072   -0.2884 H   0  0  0  0  0  0  0  0  0  0  0  0
    2.9828   13.2453   -3.6599 H   0  0  0  0  0  0  0  0  0  0  0  0
    1.7036   12.4670   -4.6521 H   0  0  0  0  0  0  0  0  0  0  0  0
    1.8770   14.2549   -4.6521 H   0  0  0  0  0  0  0  0  0  0  0  0
   -0.9270   13.8299   -3.8402 H   0  0  0  0  0  0  0  0  0  0  0  0
   -0.2081   12.1371   -4.0698 H   0  0  0  0  0  0  0  0  0  0  0  0
   -1.7809   13.1709   -1.6939 H   0  0  0  0  0  0  0  0  0  0  0  0
   -2.2454   11.8933   -2.8848 H   0  0  0  0  0  0  0  0  0  0  0  0
    0.0517    9.2772   -1.8293 H   0  0  0  0  0  0  0  0  0  0  0  0
   -1.1220    9.8364   -3.0687 H   0  0  0  0  0  0  0  0  0  0  0  0
    0.5569   10.4752   -3.0687 H   0  0  0  0  0  0  0  0  0  0  0  0
  1  2  1  0
  2  3  1  0
  3  4  1  0
  4  5  1  0
  5  6  1  0
  6  7  1  0
  7  8  1  0
  7  9  1  0
  2 10  1  0
 10 11  1  0
 11 12  1  0
 12 13  1  0
 13 14  1  1
 13 15  1  0
 15 16  1  0
 16 17  1  0
 17 18  2  0
 18 19  1  0
 19 20  1  0
 20 21  1  0
 21 22  1  0
 22 23  1  0
 22 24  1  0
 24 25  1  0
 24 26  1  0
 19 27  1  0
 27 28  1  6
 27 29  1  0
 29 30  1  0
 30 31  1  0
 31 32  1  6
  7  5  1  0
 31 10  1  0
 31 13  1  0
 27 15  1  0
 24 18  1  0
  1 33  1  0
  1 34  1  0
  1 35  1  0
  2 36  1  6
  3 37  1  0
  3 38  1  0
  4 39  1  0
  4 40  1  0
  5 41  1  1
  8 42  1  0
  8 43  1  0
  8 44  1  0
  9 45  1  0
  9 46  1  0
  9 47  1  0
 10 48  1  1
 11 49  1  0
 11 50  1  0
 12 51  1  0
 12 52  1  0
 14 53  1  0
 14 54  1  0
 14 55  1  0
 15 56  1  6
 16 57  1  0
 16 58  1  0
 17 59  1  0
 19 60  1  1
 20 61  1  0
 20 62  1  0
 21 63  1  0
 21 64  1  0
 22 65  1  1
 23 66  1  0
 25 67  1  0
 25 68  1  0
 25 69  1  0
 26 70  1  0
 26 71  1  0
 26 72  1  0
 28 73  1  0
 28 74  1  0
 28 75  1  0
 29 76  1  0
 29 77  1  0
 30 78  1  0
 30 79  1  0
 32 80  1  0
 32 81  1  0
 32 82  1  0
M  END
>  <meeko>  (4) 
{"is_sidechain": [false], "intermolecular_energy": 2.731, "internal_energy": -0.839}

$$$$
EPH_relaxed_0001_pdb2pqr_Repair_26_r2_0001_out
     RDKit          3D

 82 86  0  0  0  0  0  0  0  0999 V2000
    3.6640   17.5430    0.4540 C   0  0  0  0  0  0  0  0  0  0  0  0
    2.7120   17.8170   -0.7130 C   0  0  2  0  0  0  0  0  0  0  0  0
    2.0500   19.2060   -0.6090 C   0  0  0  0  0  0  0  0  0  0  0  0
    1.1910   19.3860    0.6460 C   0  0  0  0  0  0  0  0  0  0  0  0
   -0.1110   20.0590    0.3340 C   0  0  2  0  0  0  0  0  0  0  0  0
   -0.9980   20.1930    1.4530 O   0  0  0  0  0  0  0  0  0  0  0  0
   -1.4520   19.3500    0.3810 C   0  0  0  0  0  0  0  0  0  0  0  0
   -1.5570   17.9030    0.7490 C   0  0  0  0  0  0  0  0  0  0  0  0
   -2.5940   19.9260   -0.3970 C   0  0  0  0  0  0  0  0  0  0  0  0
    1.6420   16.7330   -0.7760 C   0  0  1  0  0  0  0  0  0  0  0  0
    0.3450   17.2140   -1.4810 C   0  0  0  0  0  0  0  0  0  0  0  0
   -0.2240   15.9950   -2.2520 C   0  0  0  0  0  0  0  0  0  0  0  0
    0.5670   14.7840   -1.7040 C   0  0  1  0  0  0  0  0  0  0  0  0
   -0.1360   14.4210   -0.3590 C   0  0  0  0  0  0  0  0  0  0  0  0
    0.6760   13.5450   -2.6510 C   0  0  2  0  0  0  0  0  0  0  0  0
   -0.6630   12.8770   -3.0090 C   0  0  0  0  0  0  0  0  0  0  0  0
   -1.0950   11.7830   -2.0890 C   0  0  0  0  0  0  0  0  0  0  0  0
   -0.3100   11.1610   -1.1900 C   0  0  0  0  0  0  0  0  0  0  0  0
    1.1880   11.4780   -1.0990 C   0  0  1  0  0  0  0  0  0  0  0  0
    1.9940   10.1550   -1.0260 C   0  0  0  0  0  0  0  0  0  0  0  0
    1.5210    9.2440    0.1030 C   0  0  0  0  0  0  0  0  0  0  0  0
    0.0410    8.9040   -0.0540 C   0  0  2  0  0  0  0  0  0  0  0  0
   -0.1250    8.1000   -1.2260 O   0  0  0  0  0  0  0  0  0  0  0  0
   -0.8690   10.1600   -0.1490 C   0  0  0  0  0  0  0  0  0  0  0  0
   -0.9230   10.8690    1.2270 C   0  0  0  0  0  0  0  0  0  0  0  0
   -2.3160    9.6800   -0.4470 C   0  0  0  0  0  0  0  0  0  0  0  0
    1.7530   12.4770   -2.1990 C   0  0  1  0  0  0  0  0  0  0  0  0
    2.1580   11.6840   -3.4800 C   0  0  0  0  0  0  0  0  0  0  0  0
    3.0700   13.1470   -1.6570 C   0  0  0  0  0  0  0  0  0  0  0  0
    2.9040   14.4350   -0.8280 C   0  0  0  0  0  0  0  0  0  0  0  0
    1.9900   15.4340   -1.5450 C   0  0  2  0  0  0  0  0  0  0  0  0
    2.6820   15.8350   -2.8920 C   0  0  0  0  0  0  0  0  0  0  0  0
    3.1322   17.6960    1.4047 H   0  0  0  0  0  0  0  0  0  0  0  0
    4.0235   16.5049    0.3980 H   0  0  0  0  0  0  0  0  0  0  0  0
    4.5203   18.2311    0.3980 H   0  0  0  0  0  0  0  0  0  0  0  0
    3.3088   17.8046   -1.6370 H   0  0  0  0  0  0  0  0  0  0  0  0
    2.8426   19.9687   -0.5997 H   0  0  0  0  0  0  0  0  0  0  0  0
    1.3794   19.3082   -1.4750 H   0  0  0  0  0  0  0  0  0  0  0  0
    0.9858   18.3974    1.0825 H   0  0  0  0  0  0  0  0  0  0  0  0
    1.7450   20.0213    1.3527 H   0  0  0  0  0  0  0  0  0  0  0  0
    0.3677   20.6811   -0.4366 H   0  0  0  0  0  0  0  0  0  0  0  0
   -1.5643   17.8028    1.8444 H   0  0  0  0  0  0  0  0  0  0  0  0
   -2.4877   17.4864    0.3365 H   0  0  0  0  0  0  0  0  0  0  0  0
   -0.6962   17.3564    0.3365 H   0  0  0  0  0  0  0  0  0  0  0  0
   -3.3549   20.3098    0.2985 H   0  0  0  0  0  0  0  0  0  0  0  0
   -2.2286   20.7476   -1.0306 H   0  0  0  0  0  0  0  0  0  0  0  0
   -3.0376   19.1438   -1.0306 H   0  0  0  0  0  0  0  0  0  0  0  0
    1.5344   16.5177    0.2973 H   0  0  0  0  0  0  0  0  0  0  0  0
   -0.3838   17.5642   -0.7353 H   0  0  0  0  0  0  0  0  0  0  0  0
    0.5539   18.0506   -2.1640 H   0  0  0  0  0  0  0  0  0  0  0  0
   -1.2997   15.8780   -2.0543 H   0  0  0  0  0  0  0  0  0  0  0  0
   -0.1188   16.1040   -3.3415 H   0  0  0  0  0  0  0  0  0  0  0  0
    0.4931   14.7458    0.4829 H   0  0  0  0  0  0  0  0  0  0  0  0
   -1.1104   14.9287   -0.3059 H   0  0  0  0  0  0  0  0  0  0  0  0
   -0.2862   13.3326   -0.3059 H   0  0  0  0  0  0  0  0  0  0  0  0
    1.0441   13.9938   -3.5854 H   0  0  0  0  0  0  0  0  0  0  0  0
   -1.4424   13.6532   -3.0039 H   0  0  0  0  0  0  0  0  0  0  0  0
   -0.5159   12.4075   -3.9929 H   0  0  0  0  0  0  0  0  0  0  0  0
   -2.1440   11.4579   -2.1514 H   0  0  0  0  0  0  0  0  0  0  0  0
    1.3222   12.0482   -0.1680 H   0  0  0  0  0  0  0  0  0  0  0  0
    1.8820    9.6206   -1.9809 H   0  0  0  0  0  0  0  0  0  0  0  0
    3.0446   10.4142   -0.8283 H   0  0  0  0  0  0  0  0  0  0  0  0
    2.1079    8.3139    0.0849 H   0  0  0  0  0  0  0  0  0  0  0  0
    1.6611    9.7687    1.0596 H   0  0  0  0  0  0  0  0  0  0  0  0
   -0.2702    8.3589    0.8493 H   0  0  0  0  0  0  0  0  0  0  0  0
   -1.0780    8.0440   -1.4120 H   0  0  0  0  0  0  0  0  0  0  0  0
   -0.8658   10.1182    2.0289 H   0  0  0  0  0  0  0  0  0  0  0  0
   -0.0752   11.5644    1.3147 H   0  0  0  0  0  0  0  0  0  0  0  0
   -1.8663   11.4280    1.3147 H   0  0  0  0  0  0  0  0  0  0  0  0
   -2.8464    9.5041    0.5005 H   0  0  0  0  0  0  0  0  0  0  0  0
   -2.8459   10.4505   -1.0263 H   0  0  0  0  0  0  0  0  0  0  0  0
   -2.2804    8.7456   -1.0263 H   0  0  0  0  0  0  0  0  0  0  0  0
    2.6405   10.7392   -3.1891 H   0  0  0  0  0  0  0  0  0  0  0  0
    1.2597   11.4683   -4.0770 H   0  0  0  0  0  0  0  0  0  0  0  0
    2.8594   12.2853   -4.0770 H   0  0  0  0  0  0  0  0  0  0  0  0
    3.5833   12.4079   -1.0243 H   0  0  0  0  0  0  0  0  0  0  0  0
    3.6279   13.4524   -2.5545 H   0  0  0  0  0  0  0  0  0  0  0  0
    2.4642   14.1809    0.1477 H   0  0  0  0  0  0  0  0  0  0  0  0
    3.8934   14.8971   -0.6955 H   0  0  0  0  0  0  0  0  0  0  0  0
    3.6155   16.3760   -2.6778 H   0  0  0  0  0  0  0  0  0  0  0  0
    2.9085   14.9282   -3.4720 H   0  0  0  0  0  0  0  0  0  0  0  0
    2.0079   16.4824   -3.4720 H   0  0  0  0  0  0  0  0  0  0  0  0
  1  2  1  0
  2  3  1  0
  3  4  1  0
  4  5  1  0
  5  6  1  0
  6  7  1  0
  7  8  1  0
  7  9  1  0
  2 10  1  0
 10 11  1  0
 11 12  1  0
 12 13  1  0
 13 14  1  1
 13 15  1  0
 15 16  1  0
 16 17  1  0
 17 18  2  0
 18 19  1  0
 19 20  1  0
 20 21  1  0
 21 22  1  0
 22 23  1  0
 22 24  1  0
 24 25  1  0
 24 26  1  0
 19 27  1  0
 27 28  1  6
 27 29  1  0
 29 30  1  0
 30 31  1  0
 31 32  1  6
  7  5  1  0
 31 10  1  0
 31 13  1  0
 27 15  1  0
 24 18  1  0
  1 33  1  0
  1 34  1  0
  1 35  1  0
  2 36  1  6
  3 37  1  0
  3 38  1  0
  4 39  1  0
  4 40  1  0
  5 41  1  6
  8 42  1  0
  8 43  1  0
  8 44  1  0
  9 45  1  0
  9 46  1  0
  9 47  1  0
 10 48  1  1
 11 49  1  0
 11 50  1  0
 12 51  1  0
 12 52  1  0
 14 53  1  0
 14 54  1  0
 14 55  1  0
 15 56  1  6
 16 57  1  0
 16 58  1  0
 17 59  1  0
 19 60  1  1
 20 61  1  0
 20 62  1  0
 21 63  1  0
 21 64  1  0
 22 65  1  1
 23 66  1  0
 25 67  1  0
 25 68  1  0
 25 69  1  0
 26 70  1  0
 26 71  1  0
 26 72  1  0
 28 73  1  0
 28 74  1  0
 28 75  1  0
 29 76  1  0
 29 77  1  0
 30 78  1  0
 30 79  1  0
 32 80  1  0
 32 81  1  0
 32 82  1  0
M  END
>  <meeko>  (5) 
{"is_sidechain": [false], "intermolecular_energy": 2.731, "internal_energy": -0.839}

$$$$
EPH_relaxed_0001_pdb2pqr_Repair_26_r2_0001_out
     RDKit          3D

 82 86  0  0  0  0  0  0  0  0999 V2000
    2.2520   18.0740   -2.6930 C   0  0  0  0  0  0  0  0  0  0  0  0
    0.9340   17.7120   -2.0020 C   0  0  2  0  0  0  0  0  0  0  0  0
    1.0400   17.7980   -0.4660 C   0  0  0  0  0  0  0  0  0  0  0  0
    2.4470   18.1340    0.0350 C   0  0  0  0  0  0  0  0  0  0  0  0
    2.4240   19.2240    1.0640 C   0  0  2  0  0  0  0  0  0  0  0  0
    3.4700   20.1950    0.9310 O   0  0  0  0  0  0  0  0  0  0  0  0
    3.4940   19.3960    2.1250 C   0  0  0  0  0  0  0  0  0  0  0  0
    4.6630   18.4660    2.2120 C   0  0  0  0  0  0  0  0  0  0  0  0
    3.1540   20.1590    3.3670 C   0  0  0  0  0  0  0  0  0  0  0  0
    0.4970   16.3120   -2.4160 C   0  0  1  0  0  0  0  0  0  0  0  0
    0.5510   16.0990   -3.9530 C   0  0  0  0  0  0  0  0  0  0  0  0
    0.9700   14.6250   -4.1860 C   0  0  0  0  0  0  0  0  0  0  0  0
    0.8200   13.9530   -2.8010 C   0  0  1  0  0  0  0  0  0  0  0  0
   -0.7020   13.6330   -2.6730 C   0  0  0  0  0  0  0  0  0  0  0  0
    1.7000   12.6860   -2.5490 C   0  0  2  0  0  0  0  0  0  0  0  0
    1.4110   11.4950   -3.4790 C   0  0  0  0  0  0  0  0  0  0  0  0
    0.3820   10.5340   -2.9830 C   0  0  0  0  0  0  0  0  0  0  0  0
   -0.0770   10.4630   -1.7200 C   0  0  0  0  0  0  0  0  0  0  0  0
    0.5170   11.3440   -0.6140 C   0  0  1  0  0  0  0  0  0  0  0  0
    0.7970   10.4800    0.6430 C   0  0  0  0  0  0  0  0  0  0  0  0
   -0.4350    9.7110    1.1100 C   0  0  0  0  0  0  0  0  0  0  0  0
   -0.9630    8.8020    0.0030 C   0  0  2  0  0  0  0  0  0  0  0  0
   -0.0000    7.7730   -0.2470 O   0  0  0  0  0  0  0  0  0  0  0  0
   -1.2710    9.5610   -1.3180 C   0  0  0  0  0  0  0  0  0  0  0  0
   -2.5160   10.4610   -1.1230 C   0  0  0  0  0  0  0  0  0  0  0  0
   -1.6590    8.5100   -2.3930 C   0  0  0  0  0  0  0  0  0  0  0  0
    1.7660   12.2340   -1.0340 C   0  0  1  0  0  0  0  0  0  0  0  0
    3.0820   11.4130   -0.8710 C   0  0  0  0  0  0  0  0  0  0  0  0
    1.8800   13.4560   -0.0480 C   0  0  0  0  0  0  0  0  0  0  0  0
    1.0810   14.7210   -0.4150 C   0  0  0  0  0  0  0  0  0  0  0  0
    1.3240   15.1190   -1.8740 C   0  0  2  0  0  0  0  0  0  0  0  0
    2.8430   15.4690   -2.0280 C   0  0  0  0  0  0  0  0  0  0  0  0
    3.0187   18.2846   -1.9329 H   0  0  0  0  0  0  0  0  0  0  0  0
    2.5798   17.2326   -3.3212 H   0  0  0  0  0  0  0  0  0  0  0  0
    2.1041   18.9648   -3.3212 H   0  0  0  0  0  0  0  0  0  0  0  0
    0.1806   18.4467   -2.3224 H   0  0  0  0  0  0  0  0  0  0  0  0
    0.3499   18.5786   -0.1133 H   0  0  0  0  0  0  0  0  0  0  0  0
    0.7861   16.8038   -0.0697 H   0  0  0  0  0  0  0  0  0  0  0  0
    2.8913   17.2320    0.4811 H   0  0  0  0  0  0  0  0  0  0  0  0
    3.0414   18.4840   -0.8218 H   0  0  0  0  0  0  0  0  0  0  0  0
    1.3267   19.1758    1.1242 H   0  0  0  0  0  0  0  0  0  0  0  0
    4.9023   18.2757    3.2687 H   0  0  0  0  0  0  0  0  0  0  0  0
    4.4139   17.5165    1.7157 H   0  0  0  0  0  0  0  0  0  0  0  0
    5.5322   18.9222    1.7157 H   0  0  0  0  0  0  0  0  0  0  0  0
    3.4210   19.5599    4.2500 H   0  0  0  0  0  0  0  0  0  0  0  0
    3.7160   21.1045    3.3819 H   0  0  0  0  0  0  0  0  0  0  0  0
    2.0752   20.3734    3.3819 H   0  0  0  0  0  0  0  0  0  0  0  0
   -0.5132   16.2983   -1.9808 H   0  0  0  0  0  0  0  0  0  0  0  0
   -0.4382   16.2862   -4.3963 H   0  0  0  0  0  0  0  0  0  0  0  0
    1.2651   16.7914   -4.4227 H   0  0  0  0  0  0  0  0  0  0  0  0
    0.3098   14.1456   -4.9237 H   0  0  0  0  0  0  0  0  0  0  0  0
    1.9925   14.5397   -4.5824 H   0  0  0  0  0  0  0  0  0  0  0  0
   -0.9764   13.5753   -1.6093 H   0  0  0  0  0  0  0  0  0  0  0  0
   -1.2860   14.4280   -3.1597 H   0  0  0  0  0  0  0  0  0  0  0  0
   -0.9164   12.6701   -3.1597 H   0  0  0  0  0  0  0  0  0  0  0  0
    2.7056   13.0394   -2.8209 H   0  0  0  0  0  0  0  0  0  0  0  0
    1.0665   11.8935   -4.4447 H   0  0  0  0  0  0  0  0  0  0  0  0
    2.3505   10.9269   -3.5469 H   0  0  0  0  0  0  0  0  0  0  0  0
   -0.0364    9.8239   -3.7115 H   0  0  0  0  0  0  0  0  0  0  0  0
   -0.2480   12.0999   -0.3831 H   0  0  0  0  0  0  0  0  0  0  0  0
    1.5935    9.7594    0.4054 H   0  0  0  0  0  0  0  0  0  0  0  0
    1.0949   11.1590    1.4555 H   0  0  0  0  0  0  0  0  0  0  0  0
   -0.1668    9.0972    1.9825 H   0  0  0  0  0  0  0  0  0  0  0  0
   -1.2205   10.4340    1.3750 H   0  0  0  0  0  0  0  0  0  0  0  0
   -1.9165    8.3780    0.3509 H   0  0  0  0  0  0  0  0  0  0  0  0
    0.7250    8.1670   -0.7610 H   0  0  0  0  0  0  0  0  0  0  0  0
   -2.7050   10.5976   -0.0480 H   0  0  0  0  0  0  0  0  0  0  0  0
   -2.3375   11.4402   -1.5912 H   0  0  0  0  0  0  0  0  0  0  0  0
   -3.3899    9.9845   -1.5912 H   0  0  0  0  0  0  0  0  0  0  0  0
   -1.9993    7.5882   -1.8985 H   0  0  0  0  0  0  0  0  0  0  0  0
   -2.4689    8.9097   -3.0210 H   0  0  0  0  0  0  0  0  0  0  0  0
   -0.7837    8.2876   -3.0210 H   0  0  0  0  0  0  0  0  0  0  0  0
    3.2994   11.2774    0.1987 H   0  0  0  0  0  0  0  0  0  0  0  0
    2.9620   10.4293   -1.3484 H   0  0  0  0  0  0  0  0  0  0  0  0
    3.9128   11.9533   -1.3484 H   0  0  0  0  0  0  0  0  0  0  0  0
    1.5347   13.1193    0.9406 H   0  0  0  0  0  0  0  0  0  0  0  0
    2.9362   13.7608   -0.0879 H   0  0  0  0  0  0  0  0  0  0  0  0
    0.0086   14.5240   -0.2696 H   0  0  0  0  0  0  0  0  0  0  0  0
    1.4125   15.5455    0.2333 H   0  0  0  0  0  0  0  0  0  0  0  0
    3.2979   15.5738   -1.0320 H   0  0  0  0  0  0  0  0  0  0  0  0
    3.3506   14.6643   -2.5801 H   0  0  0  0  0  0  0  0  0  0  0  0
    2.9472   16.4147   -2.5801 H   0  0  0  0  0  0  0  0  0  0  0  0
  1  2  1  0
  2  3  1  0
  3  4  1  0
  4  5  1  0
  5  6  1  0
  6  7  1  0
  7  8  1  0
  7  9  1  0
  2 10  1  0
 10 11  1  0
 11 12  1  0
 12 13  1  0
 13 14  1  1
 13 15  1  0
 15 16  1  0
 16 17  1  0
 17 18  2  0
 18 19  1  0
 19 20  1  0
 20 21  1  0
 21 22  1  0
 22 23  1  0
 22 24  1  0
 24 25  1  0
 24 26  1  0
 19 27  1  0
 27 28  1  6
 27 29  1  0
 29 30  1  0
 30 31  1  0
 31 32  1  1
  7  5  1  0
 31 10  1  0
 31 13  1  0
 27 15  1  0
 24 18  1  0
  1 33  1  0
  1 34  1  0
  1 35  1  0
  2 36  1  6
  3 37  1  0
  3 38  1  0
  4 39  1  0
  4 40  1  0
  5 41  1  1
  8 42  1  0
  8 43  1  0
  8 44  1  0
  9 45  1  0
  9 46  1  0
  9 47  1  0
 10 48  1  1
 11 49  1  0
 11 50  1  0
 12 51  1  0
 12 52  1  0
 14 53  1  0
 14 54  1  0
 14 55  1  0
 15 56  1  6
 16 57  1  0
 16 58  1  0
 17 59  1  0
 19 60  1  1
 20 61  1  0
 20 62  1  0
 21 63  1  0
 21 64  1  0
 22 65  1  1
 23 66  1  0
 25 67  1  0
 25 68  1  0
 25 69  1  0
 26 70  1  0
 26 71  1  0
 26 72  1  0
 28 73  1  0
 28 74  1  0
 28 75  1  0
 29 76  1  0
 29 77  1  0
 30 78  1  0
 30 79  1  0
 32 80  1  0
 32 81  1  0
 32 82  1  0
M  END
>  <meeko>  (6) 
{"is_sidechain": [false], "intermolecular_energy": 2.731, "internal_energy": -0.839}

$$$$
EPH_relaxed_0001_pdb2pqr_Repair_26_r2_0001_out
     RDKit          3D

 82 86  0  0  0  0  0  0  0  0999 V2000
   -0.2780   10.4960   -4.0190 C   0  0  0  0  0  0  0  0  0  0  0  0
    0.9700   10.3710   -3.1410 C   0  0  2  0  0  0  0  0  0  0  0  0
    1.0150    9.0290   -2.3840 C   0  0  0  0  0  0  0  0  0  0  0  0
   -0.3520    8.5620   -1.8760 C   0  0  0  0  0  0  0  0  0  0  0  0
   -0.5660    8.9340   -0.4400 C   0  0  2  0  0  0  0  0  0  0  0  0
   -1.9300    8.8680   -0.0020 O   0  0  0  0  0  0  0  0  0  0  0  0
   -1.3260   10.1720   -0.0010 C   0  0  0  0  0  0  0  0  0  0  0  0
   -1.9200   11.1170   -0.9980 C   0  0  0  0  0  0  0  0  0  0  0  0
   -1.0730   10.7180    1.3690 C   0  0  0  0  0  0  0  0  0  0  0  0
    1.0270   11.5290   -2.1510 C   0  0  1  0  0  0  0  0  0  0  0  0
    2.0770   11.3060   -1.0300 C   0  0  0  0  0  0  0  0  0  0  0  0
    2.6740   12.6970   -0.6930 C   0  0  0  0  0  0  0  0  0  0  0  0
    1.7250   13.7050   -1.3820 C   0  0  1  0  0  0  0  0  0  0  0  0
    0.5150   13.8480   -0.4070 C   0  0  0  0  0  0  0  0  0  0  0  0
    2.3410   15.0960   -1.7450 C   0  0  2  0  0  0  0  0  0  0  0  0
    2.8250   15.9290   -0.5450 C   0  0  0  0  0  0  0  0  0  0  0  0
    1.8070   16.8480    0.0450 C   0  0  0  0  0  0  0  0  0  0  0  0
    0.6500   17.2110   -0.5390 C   0  0  0  0  0  0  0  0  0  0  0  0
    0.3120   16.7620   -1.9660 C   0  0  1  0  0  0  0  0  0  0  0  0
   -0.2120   17.9730   -2.7800 C   0  0  0  0  0  0  0  0  0  0  0  0
   -1.3820   18.6760   -2.0980 C   0  0  0  0  0  0  0  0  0  0  0  0
   -0.9890   19.1590   -0.7040 C   0  0  2  0  0  0  0  0  0  0  0  0
   -0.0080   20.1930   -0.8340 O   0  0  0  0  0  0  0  0  0  0  0  0
   -0.4370   18.0260    0.2050 C   0  0  0  0  0  0  0  0  0  0  0  0
   -1.5870   17.0630    0.5920 C   0  0  0  0  0  0  0  0  0  0  0  0
    0.0530   18.6720    1.5290 C   0  0  0  0  0  0  0  0  0  0  0  0
    1.4530   15.9610   -2.7290 C   0  0  1  0  0  0  0  0  0  0  0  0
    2.4190   16.9580   -3.4390 C   0  0  0  0  0  0  0  0  0  0  0  0
    0.7980   15.0900   -3.8660 C   0  0  0  0  0  0  0  0  0  0  0  0
    0.3180   13.6810   -3.4720 C   0  0  0  0  0  0  0  0  0  0  0  0
    1.4090   12.9230   -2.7080 C   0  0  2  0  0  0  0  0  0  0  0  0
    2.6310   12.7450   -3.6720 C   0  0  0  0  0  0  0  0  0  0  0  0
   -1.1687   10.5852   -3.3797 H   0  0  0  0  0  0  0  0  0  0  0  0
   -0.1915   11.3900   -4.6541 H   0  0  0  0  0  0  0  0  0  0  0  0
   -0.3705    9.6026   -4.6541 H   0  0  0  0  0  0  0  0  0  0  0  0
    1.8464   10.4054   -3.8048 H   0  0  0  0  0  0  0  0  0  0  0  0
    1.4141    8.2608   -3.0627 H   0  0  0  0  0  0  0  0  0  0  0  0
    1.6517    9.1802   -1.4998 H   0  0  0  0  0  0  0  0  0  0  0  0
   -1.1382    9.0301   -2.4866 H   0  0  0  0  0  0  0  0  0  0  0  0
   -0.3914    7.4656   -1.9559 H   0  0  0  0  0  0  0  0  0  0  0  0
    0.4235    8.5398   -0.1653 H   0  0  0  0  0  0  0  0  0  0  0  0
   -2.4332   11.9334   -0.4688 H   0  0  0  0  0  0  0  0  0  0  0  0
   -1.1213   11.5340   -1.6290 H   0  0  0  0  0  0  0  0  0  0  0  0
   -2.6421   10.5781   -1.6290 H   0  0  0  0  0  0  0  0  0  0  0  0
   -1.4102    9.9903    2.1218 H   0  0  0  0  0  0  0  0  0  0  0  0
    0.0035   10.9050    1.4962 H   0  0  0  0  0  0  0  0  0  0  0  0
   -1.6263   11.6602    1.4962 H   0  0  0  0  0  0  0  0  0  0  0  0
   -0.0195   11.5329   -1.8123 H   0  0  0  0  0  0  0  0  0  0  0  0
    1.5952   10.8749   -0.1400 H   0  0  0  0  0  0  0  0  0  0  0  0
    2.8618   10.6081   -1.3571 H   0  0  0  0  0  0  0  0  0  0  0  0
    2.6901   12.8597    0.3948 H   0  0  0  0  0  0  0  0  0  0  0  0
    3.7136   12.7998   -1.0375 H   0  0  0  0  0  0  0  0  0  0  0  0
    0.8742   13.8056    0.6318 H   0  0  0  0  0  0  0  0  0  0  0  0
    0.0144   14.8116   -0.5828 H   0  0  0  0  0  0  0  0  0  0  0  0
   -0.1965   13.0277   -0.5828 H   0  0  0  0  0  0  0  0  0  0  0  0
    3.2491   14.8146   -2.2983 H   0  0  0  0  0  0  0  0  0  0  0  0
    3.1518   15.2334    0.2420 H   0  0  0  0  0  0  0  0  0  0  0  0
    3.6314   16.5726   -0.9265 H   0  0  0  0  0  0  0  0  0  0  0  0
    2.0206   17.2634    1.0409 H   0  0  0  0  0  0  0  0  0  0  0  0
   -0.4826   16.0078   -1.8671 H   0  0  0  0  0  0  0  0  0  0  0  0
    0.6084   18.6950   -2.9051 H   0  0  0  0  0  0  0  0  0  0  0  0
   -0.5698   17.5938   -3.7486 H   0  0  0  0  0  0  0  0  0  0  0  0
   -1.6869   19.5404   -2.7061 H   0  0  0  0  0  0  0  0  0  0  0  0
   -2.2133   17.9621   -2.0015 H   0  0  0  0  0  0  0  0  0  0  0  0
   -1.9006   19.5349   -0.2165 H   0  0  0  0  0  0  0  0  0  0  0  0
    0.1700   20.5430    0.0550 H   0  0  0  0  0  0  0  0  0  0  0  0
   -1.6606   17.0014    1.6878 H   0  0  0  0  0  0  0  0  0  0  0  0
   -2.5352   17.4405    0.1815 H   0  0  0  0  0  0  0  0  0  0  0  0
   -1.3819   16.0633    0.1815 H   0  0  0  0  0  0  0  0  0  0  0  0
   -0.3658   18.1199    2.3833 H   0  0  0  0  0  0  0  0  0  0  0  0
    1.1515   18.6341    1.5709 H   0  0  0  0  0  0  0  0  0  0  0  0
   -0.2796   19.7197    1.5709 H   0  0  0  0  0  0  0  0  0  0  0  0
    2.9748   17.5316   -2.6826 H   0  0  0  0  0  0  0  0  0  0  0  0
    3.1269   16.3979   -4.0676 H   0  0  0  0  0  0  0  0  0  0  0  0
    1.8368   17.6479   -4.0676 H   0  0  0  0  0  0  0  0  0  0  0  0
   -0.0723   15.6430   -4.2492 H   0  0  0  0  0  0  0  0  0  0  0  0
    1.5999   14.9258   -4.6008 H   0  0  0  0  0  0  0  0  0  0  0  0
   -0.5729   13.7701   -2.8330 H   0  0  0  0  0  0  0  0  0  0  0  0
    0.0800   13.1225   -4.3893 H   0  0  0  0  0  0  0  0  0  0  0  0
    3.5485   12.6114   -3.0801 H   0  0  0  0  0  0  0  0  0  0  0  0
    2.4718   11.8606   -4.3064 H   0  0  0  0  0  0  0  0  0  0  0  0
    2.7307   13.6381   -4.3064 H   0  0  0  0  0  0  0  0  0  0  0  0
  1  2  1  0
  2  3  1  0
  3  4  1  0
  4  5  1  0
  5  6  1  0
  6  7  1  0
  7  8  1  0
  7  9  1  0
  2 10  1  0
 10 11  1  0
 11 12  1  0
 12 13  1  0
 13 14  1  1
 13 15  1  0
 15 16  1  0
 16 17  1  0
 17 18  2  0
 18 19  1  0
 19 20  1  0
 20 21  1  0
 21 22  1  0
 22 23  1  0
 22 24  1  0
 24 25  1  0
 24 26  1  0
 19 27  1  0
 27 28  1  6
 27 29  1  0
 29 30  1  0
 30 31  1  0
 31 32  1  6
  7  5  1  0
 31 10  1  0
 31 13  1  0
 27 15  1  0
 24 18  1  0
  1 33  1  0
  1 34  1  0
  1 35  1  0
  2 36  1  6
  3 37  1  0
  3 38  1  0
  4 39  1  0
  4 40  1  0
  5 41  1  1
  8 42  1  0
  8 43  1  0
  8 44  1  0
  9 45  1  0
  9 46  1  0
  9 47  1  0
 10 48  1  1
 11 49  1  0
 11 50  1  0
 12 51  1  0
 12 52  1  0
 14 53  1  0
 14 54  1  0
 14 55  1  0
 15 56  1  6
 16 57  1  0
 16 58  1  0
 17 59  1  0
 19 60  1  1
 20 61  1  0
 20 62  1  0
 21 63  1  0
 21 64  1  0
 22 65  1  1
 23 66  1  0
 25 67  1  0
 25 68  1  0
 25 69  1  0
 26 70  1  0
 26 71  1  0
 26 72  1  0
 28 73  1  0
 28 74  1  0
 28 75  1  0
 29 76  1  0
 29 77  1  0
 30 78  1  0
 30 79  1  0
 32 80  1  0
 32 81  1  0
 32 82  1  0
M  END
>  <meeko>  (7) 
{"is_sidechain": [false], "intermolecular_energy": 2.731, "internal_energy": -0.839}

$$$$
EPH_relaxed_0001_pdb2pqr_Repair_26_r2_0001_out
     RDKit          3D

 82 86  0  0  0  0  0  0  0  0999 V2000
   -5.1410    5.8490   -1.8290 C   0  0  0  0  0  0  0  0  0  0  0  0
   -5.4610    7.3460   -1.8350 C   0  0  2  0  0  0  0  0  0  0  0  0
   -5.2460    7.9920   -0.4520 C   0  0  0  0  0  0  0  0  0  0  0  0
   -4.2090    9.1180   -0.4520 C   0  0  0  0  0  0  0  0  0  0  0  0
   -2.8390    8.6090   -0.7830 C   0  0  2  0  0  0  0  0  0  0  0  0
   -1.8230    8.9650    0.1650 O   0  0  0  0  0  0  0  0  0  0  0  0
   -1.6780    9.5130   -1.1560 C   0  0  0  0  0  0  0  0  0  0  0  0
   -1.8360   11.0000   -1.2190 C   0  0  0  0  0  0  0  0  0  0  0  0
   -0.5360    8.9290   -1.9280 C   0  0  0  0  0  0  0  0  0  0  0  0
   -6.8960    7.5690   -2.2980 C   0  0  1  0  0  0  0  0  0  0  0  0
   -7.2080    6.8590   -3.6420 C   0  0  0  0  0  0  0  0  0  0  0  0
   -8.6830    6.3880   -3.5680 C   0  0  0  0  0  0  0  0  0  0  0  0
   -9.2660    7.1230   -2.3380 C   0  0  1  0  0  0  0  0  0  0  0  0
   -9.6170    8.5530   -2.8550 C   0  0  0  0  0  0  0  0  0  0  0  0
  -10.4900    6.4430   -1.6430 C   0  0  2  0  0  0  0  0  0  0  0  0
  -11.7470    6.3100   -2.5210 C   0  0  0  0  0  0  0  0  0  0  0  0
  -12.7000    7.4570   -2.4500 C   0  0  0  0  0  0  0  0  0  0  0  0
  -12.7000    8.4160   -1.5050 C   0  0  0  0  0  0  0  0  0  0  0  0
  -11.7320    8.3510   -0.3170 C   0  0  1  0  0  0  0  0  0  0  0  0
  -12.5040    8.6450    0.9960 C   0  0  0  0  0  0  0  0  0  0  0  0
  -13.2730    9.9620    0.9410 C   0  0  0  0  0  0  0  0  0  0  0  0
  -14.2660    9.9650   -0.2190 C   0  0  2  0  0  0  0  0  0  0  0  0
  -15.2840    8.9940    0.0430 O   0  0  0  0  0  0  0  0  0  0  0  0
  -13.6040    9.6700   -1.5940 C   0  0  0  0  0  0  0  0  0  0  0  0
  -12.7250   10.8730   -2.0170 C   0  0  0  0  0  0  0  0  0  0  0  0
  -14.7330    9.5620   -2.6540 C   0  0  0  0  0  0  0  0  0  0  0  0
  -10.8400    7.0390   -0.2200 C   0  0  1  0  0  0  0  0  0  0  0  0
  -11.6140    5.9260    0.5510 C   0  0  0  0  0  0  0  0  0  0  0  0
   -9.5530    7.3540    0.6300 C   0  0  0  0  0  0  0  0  0  0  0  0
   -8.3360    7.9120   -0.1330 C   0  0  0  0  0  0  0  0  0  0  0  0
   -8.0290    7.0620   -1.3700 C   0  0  2  0  0  0  0  0  0  0  0  0
   -7.6500    5.6230   -0.8790 C   0  0  0  0  0  0  0  0  0  0  0  0
   -5.0652    5.4944   -0.7905 H   0  0  0  0  0  0  0  0  0  0  0  0
   -5.9422    5.3007   -2.3461 H   0  0  0  0  0  0  0  0  0  0  0  0
   -4.1856    5.6762   -2.3461 H   0  0  0  0  0  0  0  0  0  0  0  0
   -4.7652    7.8301   -2.5360 H   0  0  0  0  0  0  0  0  0  0  0  0
   -6.2062    8.4045   -0.1086 H   0  0  0  0  0  0  0  0  0  0  0  0
   -4.8645    7.2043    0.2143 H   0  0  0  0  0  0  0  0  0  0  0  0
   -4.5000    9.8707   -1.1995 H   0  0  0  0  0  0  0  0  0  0  0  0
   -4.1780    9.5559    0.5566 H   0  0  0  0  0  0  0  0  0  0  0  0
   -3.2615    7.7144   -1.2638 H   0  0  0  0  0  0  0  0  0  0  0  0
   -1.8793   11.4077   -0.1983 H   0  0  0  0  0  0  0  0  0  0  0  0
   -0.9793   11.4375   -1.7525 H   0  0  0  0  0  0  0  0  0  0  0  0
   -2.7655   11.2477   -1.7525 H   0  0  0  0  0  0  0  0  0  0  0  0
    0.2199    8.5425   -1.2285 H   0  0  0  0  0  0  0  0  0  0  0  0
   -0.9033    8.1081   -2.5614 H   0  0  0  0  0  0  0  0  0  0  0  0
   -0.0854    9.7074   -2.5614 H   0  0  0  0  0  0  0  0  0  0  0  0
   -6.9070    8.6681   -2.3410 H   0  0  0  0  0  0  0  0  0  0  0  0
   -7.0757    7.5593   -4.4799 H   0  0  0  0  0  0  0  0  0  0  0  0
   -6.5299    6.0085   -3.8058 H   0  0  0  0  0  0  0  0  0  0  0  0
   -9.2267    6.6690   -4.4820 H   0  0  0  0  0  0  0  0  0  0  0  0
   -8.7679    5.2948   -3.4797 H   0  0  0  0  0  0  0  0  0  0  0  0
   -9.7814    9.2227   -1.9979 H   0  0  0  0  0  0  0  0  0  0  0  0
   -8.7863    8.9363   -3.4657 H   0  0  0  0  0  0  0  0  0  0  0  0
  -10.5308    8.5081   -3.4657 H   0  0  0  0  0  0  0  0  0  0  0  0
  -10.1292    5.4168   -1.4795 H   0  0  0  0  0  0  0  0  0  0  0  0
  -11.4215    6.2030   -3.5663 H   0  0  0  0  0  0  0  0  0  0  0  0
  -12.2942    5.4361   -2.1377 H   0  0  0  0  0  0  0  0  0  0  0  0
  -13.4667    7.5243   -3.2359 H   0  0  0  0  0  0  0  0  0  0  0  0
  -10.9815    9.1358   -0.4927 H   0  0  0  0  0  0  0  0  0  0  0  0
  -13.2175    7.8274    1.1760 H   0  0  0  0  0  0  0  0  0  0  0  0
  -11.7651    8.7237    1.8070 H   0  0  0  0  0  0  0  0  0  0  0  0
  -13.8213   10.0986    1.8848 H   0  0  0  0  0  0  0  0  0  0  0  0
  -12.5553   10.7821    0.7915 H   0  0  0  0  0  0  0  0  0  0  0  0
  -14.6905   10.9775   -0.2866 H   0  0  0  0  0  0  0  0  0  0  0  0
  -16.1440    9.4300   -0.0750 H   0  0  0  0  0  0  0  0  0  0  0  0
  -12.3498   11.3865   -1.1195 H   0  0  0  0  0  0  0  0  0  0  0  0
  -11.8753   10.5136   -2.6160 H   0  0  0  0  0  0  0  0  0  0  0  0
  -13.3256   11.5733   -2.6160 H   0  0  0  0  0  0  0  0  0  0  0  0
  -15.7046    9.4691   -2.1467 H   0  0  0  0  0  0  0  0  0  0  0  0
  -14.7327   10.4643   -3.2832 H   0  0  0  0  0  0  0  0  0  0  0  0
  -14.5617    8.6761   -3.2832 H   0  0  0  0  0  0  0  0  0  0  0  0
  -11.5033    6.0853    1.6338 H   0  0  0  0  0  0  0  0  0  0  0  0
  -12.6797    5.9666    0.2815 H   0  0  0  0  0  0  0  0  0  0  0  0
  -11.2050    4.9411    0.2815 H   0  0  0  0  0  0  0  0  0  0  0  0
   -9.8326    8.0922    1.3961 H   0  0  0  0  0  0  0  0  0  0  0  0
   -9.2239    6.3816    1.0253 H   0  0  0  0  0  0  0  0  0  0  0  0
   -8.5512    8.9434   -0.4492 H   0  0  0  0  0  0  0  0  0  0  0  0
   -7.4621    7.8890    0.5347 H   0  0  0  0  0  0  0  0  0  0  0  0
   -7.6441    5.6005    0.2208 H   0  0  0  0  0  0  0  0  0  0  0  0
   -8.3885    4.9004   -1.2565 H   0  0  0  0  0  0  0  0  0  0  0  0
   -6.6514    5.3579   -1.2565 H   0  0  0  0  0  0  0  0  0  0  0  0
  1  2  1  0
  2  3  1  0
  3  4  1  0
  4  5  1  0
  5  6  1  0
  6  7  1  0
  7  8  1  0
  7  9  1  0
  2 10  1  0
 10 11  1  0
 11 12  1  0
 12 13  1  0
 13 14  1  6
 13 15  1  0
 15 16  1  0
 16 17  1  0
 17 18  2  0
 18 19  1  0
 19 20  1  0
 20 21  1  0
 21 22  1  0
 22 23  1  0
 22 24  1  0
 24 25  1  0
 24 26  1  0
 19 27  1  0
 27 28  1  1
 27 29  1  0
 29 30  1  0
 30 31  1  0
 31 32  1  1
  7  5  1  0
 31 10  1  0
 31 13  1  0
 27 15  1  0
 24 18  1  0
  1 33  1  0
  1 34  1  0
  1 35  1  0
  2 36  1  6
  3 37  1  0
  3 38  1  0
  4 39  1  0
  4 40  1  0
  5 41  1  6
  8 42  1  0
  8 43  1  0
  8 44  1  0
  9 45  1  0
  9 46  1  0
  9 47  1  0
 10 48  1  6
 11 49  1  0
 11 50  1  0
 12 51  1  0
 12 52  1  0
 14 53  1  0
 14 54  1  0
 14 55  1  0
 15 56  1  1
 16 57  1  0
 16 58  1  0
 17 59  1  0
 19 60  1  6
 20 61  1  0
 20 62  1  0
 21 63  1  0
 21 64  1  0
 22 65  1  6
 23 66  1  0
 25 67  1  0
 25 68  1  0
 25 69  1  0
 26 70  1  0
 26 71  1  0
 26 72  1  0
 28 73  1  0
 28 74  1  0
 28 75  1  0
 29 76  1  0
 29 77  1  0
 30 78  1  0
 30 79  1  0
 32 80  1  0
 32 81  1  0
 32 82  1  0
M  END
>  <meeko>  (8) 
{"is_sidechain": [false], "intermolecular_energy": 2.731, "internal_energy": -0.839}

$$$$
EPH_relaxed_0001_pdb2pqr_Repair_26_r2_0001_out
     RDKit          3D

 82 86  0  0  0  0  0  0  0  0999 V2000
    0.4060    8.8410   -2.6400 C   0  0  0  0  0  0  0  0  0  0  0  0
    1.1760   10.0050   -3.2690 C   0  0  2  0  0  0  0  0  0  0  0  0
    2.6660    9.9980   -2.8710 C   0  0  0  0  0  0  0  0  0  0  0  0
    3.5910   10.5840   -3.9410 C   0  0  0  0  0  0  0  0  0  0  0  0
    4.9710   10.8250   -3.4080 C   0  0  2  0  0  0  0  0  0  0  0  0
    5.5780   12.0470   -3.8500 O   0  0  0  0  0  0  0  0  0  0  0  0
    6.2150   10.8320   -4.2780 C   0  0  0  0  0  0  0  0  0  0  0  0
    6.1360   10.5910   -5.7530 C   0  0  0  0  0  0  0  0  0  0  0  0
    7.5420   10.5870   -3.6310 C   0  0  0  0  0  0  0  0  0  0  0  0
    0.5370   11.3290   -2.8680 C   0  0  1  0  0  0  0  0  0  0  0  0
   -0.8480   11.1430   -2.1920 C   0  0  0  0  0  0  0  0  0  0  0  0
   -0.9710   12.2510   -1.1140 C   0  0  0  0  0  0  0  0  0  0  0  0
    0.1840   13.2300   -1.4270 C   0  0  1  0  0  0  0  0  0  0  0  0
   -0.3520   14.1250   -2.5890 C   0  0  0  0  0  0  0  0  0  0  0  0
    0.7050   14.0900   -0.2300 C   0  0  2  0  0  0  0  0  0  0  0  0
   -0.3290   15.0520    0.3810 C   0  0  0  0  0  0  0  0  0  0  0  0
   -0.3640   16.4180   -0.2200 C   0  0  0  0  0  0  0  0  0  0  0  0
    0.5880   16.9480   -1.0100 C   0  0  0  0  0  0  0  0  0  0  0  0
    1.8900   16.1890   -1.2940 C   0  0  1  0  0  0  0  0  0  0  0  0
    3.0970   17.1480   -1.1230 C   0  0  0  0  0  0  0  0  0  0  0  0
    2.9630   18.4130   -1.9660 C   0  0  0  0  0  0  0  0  0  0  0  0
    1.6860   19.1710   -1.6140 C   0  0  2  0  0  0  0  0  0  0  0  0
    1.8000   19.6690   -0.2780 O   0  0  0  0  0  0  0  0  0  0  0  0
    0.4030   18.3020   -1.7400 C   0  0  0  0  0  0  0  0  0  0  0  0
    0.1150   18.0130   -3.2340 C   0  0  0  0  0  0  0  0  0  0  0  0
   -0.7950   19.1410   -1.2220 C   0  0  0  0  0  0  0  0  0  0  0  0
    2.0810   14.8220   -0.5070 C   0  0  1  0  0  0  0  0  0  0  0  0
    2.7280   15.0950    0.8850 C   0  0  0  0  0  0  0  0  0  0  0  0
    3.0940   13.9110   -1.2960 C   0  0  0  0  0  0  0  0  0  0  0  0
    2.5030   12.9960   -2.3860 C   0  0  0  0  0  0  0  0  0  0  0  0
    1.3030   12.2090   -1.8490 C   0  0  2  0  0  0  0  0  0  0  0  0
    1.8150   11.2840   -0.6940 C   0  0  0  0  0  0  0  0  0  0  0  0
    0.4567    8.9176   -1.5438 H   0  0  0  0  0  0  0  0  0  0  0  0
   -0.6451    8.8800   -2.9621 H   0  0  0  0  0  0  0  0  0  0  0  0
    0.8531    7.8890   -2.9621 H   0  0  0  0  0  0  0  0  0  0  0  0
    1.1247    9.8832   -4.3610 H   0  0  0  0  0  0  0  0  0  0  0  0
    2.7824   10.5883   -1.9501 H   0  0  0  0  0  0  0  0  0  0  0  0
    2.9576    8.9462   -2.7346 H   0  0  0  0  0  0  0  0  0  0  0  0
    3.6522    9.8800   -4.7840 H   0  0  0  0  0  0  0  0  0  0  0  0
    3.1742   11.5495   -4.2637 H   0  0  0  0  0  0  0  0  0  0  0  0
    4.7276   10.2990   -2.4731 H   0  0  0  0  0  0  0  0  0  0  0  0
    5.7983    9.5607   -5.9386 H   0  0  0  0  0  0  0  0  0  0  0  0
    5.4224   11.2973   -6.2022 H   0  0  0  0  0  0  0  0  0  0  0  0
    7.1293   10.7378   -6.2022 H   0  0  0  0  0  0  0  0  0  0  0  0
    7.4262   10.6084   -2.5373 H   0  0  0  0  0  0  0  0  0  0  0  0
    7.9245    9.6031   -3.9401 H   0  0  0  0  0  0  0  0  0  0  0  0
    8.2507   11.3695   -3.9401 H   0  0  0  0  0  0  0  0  0  0  0  0
    0.5114   11.8260   -3.8490 H   0  0  0  0  0  0  0  0  0  0  0  0
   -1.6505   11.2483   -2.9369 H   0  0  0  0  0  0  0  0  0  0  0  0
   -0.9376   10.1428   -1.7430 H   0  0  0  0  0  0  0  0  0  0  0  0
   -1.9430   12.7603   -1.1898 H   0  0  0  0  0  0  0  0  0  0  0  0
   -0.9104   11.8475   -0.0925 H   0  0  0  0  0  0  0  0  0  0  0  0
   -0.8744   14.9972   -2.1690 H   0  0  0  0  0  0  0  0  0  0  0  0
    0.4909   14.4656   -3.2083 H   0  0  0  0  0  0  0  0  0  0  0  0
   -1.0501   13.5427   -3.2083 H   0  0  0  0  0  0  0  0  0  0  0  0
    0.8977   13.3286    0.5402 H   0  0  0  0  0  0  0  0  0  0  0  0
   -1.3252   14.6018    0.2593 H   0  0  0  0  0  0  0  0  0  0  0  0
   -0.0323   15.1897    1.4312 H   0  0  0  0  0  0  0  0  0  0  0  0
   -1.2412   17.0437    0.0013 H   0  0  0  0  0  0  0  0  0  0  0  0
    1.8246   15.8546   -2.3399 H   0  0  0  0  0  0  0  0  0  0  0  0
    3.1712   17.4361   -0.0640 H   0  0  0  0  0  0  0  0  0  0  0  0
    3.9977   16.6149   -1.4615 H   0  0  0  0  0  0  0  0  0  0  0  0
    3.8304   19.0632   -1.7796 H   0  0  0  0  0  0  0  0  0  0  0  0
    2.9188   18.1247   -3.0266 H   0  0  0  0  0  0  0  0  0  0  0  0
    1.5800   19.9931   -2.3372 H   0  0  0  0  0  0  0  0  0  0  0  0
    2.6030   19.2860    0.1120 H   0  0  0  0  0  0  0  0  0  0  0  0
   -0.6594   17.2359   -3.3145 H   0  0  0  0  0  0  0  0  0  0  0  0
   -0.2363   18.9329   -3.7243 H   0  0  0  0  0  0  0  0  0  0  0  0
    1.0361   17.6649   -3.7243 H   0  0  0  0  0  0  0  0  0  0  0  0
   -0.7945   19.1407   -0.1220 H   0  0  0  0  0  0  0  0  0  0  0  0
   -0.7047   20.1743   -1.5884 H   0  0  0  0  0  0  0  0  0  0  0  0
   -1.7351   18.7029   -1.5884 H   0  0  0  0  0  0  0  0  0  0  0  0
    2.0271   14.7992    1.6795 H   0  0  0  0  0  0  0  0  0  0  0  0
    3.6559   14.5117    0.9788 H   0  0  0  0  0  0  0  0  0  0  0  0
    2.9576   16.1667    0.9788 H   0  0  0  0  0  0  0  0  0  0  0  0
    3.8290   14.5717   -1.7789 H   0  0  0  0  0  0  0  0  0  0  0  0
    3.5128   13.2274   -0.5428 H   0  0  0  0  0  0  0  0  0  0  0  0
    2.1774   13.6131   -3.2364 H   0  0  0  0  0  0  0  0  0  0  0  0
    3.2775   12.2822   -2.7030 H   0  0  0  0  0  0  0  0  0  0  0  0
    1.5644   11.7367    0.2767 H   0  0  0  0  0  0  0  0  0  0  0  0
    1.3343   10.2978   -0.7737 H   0  0  0  0  0  0  0  0  0  0  0  0
    2.9059   11.1677   -0.7737 H   0  0  0  0  0  0  0  0  0  0  0  0
  1  2  1  0
  2  3  1  0
  3  4  1  0
  4  5  1  0
  5  6  1  0
  6  7  1  0
  7  8  1  0
  7  9  1  0
  2 10  1  0
 10 11  1  0
 11 12  1  0
 12 13  1  0
 13 14  1  6
 13 15  1  0
 15 16  1  0
 16 17  1  0
 17 18  2  0
 18 19  1  0
 19 20  1  0
 20 21  1  0
 21 22  1  0
 22 23  1  0
 22 24  1  0
 24 25  1  0
 24 26  1  0
 19 27  1  0
 27 28  1  1
 27 29  1  0
 29 30  1  0
 30 31  1  0
 31 32  1  1
  7  5  1  0
 31 10  1  0
 31 13  1  0
 27 15  1  0
 24 18  1  0
  1 33  1  0
  1 34  1  0
  1 35  1  0
  2 36  1  6
  3 37  1  0
  3 38  1  0
  4 39  1  0
  4 40  1  0
  5 41  1  1
  8 42  1  0
  8 43  1  0
  8 44  1  0
  9 45  1  0
  9 46  1  0
  9 47  1  0
 10 48  1  6
 11 49  1  0
 11 50  1  0
 12 51  1  0
 12 52  1  0
 14 53  1  0
 14 54  1  0
 14 55  1  0
 15 56  1  1
 16 57  1  0
 16 58  1  0
 17 59  1  0
 19 60  1  6
 20 61  1  0
 20 62  1  0
 21 63  1  0
 21 64  1  0
 22 65  1  6
 23 66  1  0
 25 67  1  0
 25 68  1  0
 25 69  1  0
 26 70  1  0
 26 71  1  0
 26 72  1  0
 28 73  1  0
 28 74  1  0
 28 75  1  0
 29 76  1  0
 29 77  1  0
 30 78  1  0
 30 79  1  0
 32 80  1  0
 32 81  1  0
 32 82  1  0
M  END
>  <meeko>  (9) 
{"is_sidechain": [false], "intermolecular_energy": 2.731, "internal_energy": -0.839}

$$$$
EPH_relaxed_0001_pdb2pqr_Repair_26_r2_0001_out
     RDKit          3D

 82 86  0  0  0  0  0  0  0  0999 V2000
    0.1820    9.4470   -2.7060 C   0  0  0  0  0  0  0  0  0  0  0  0
    1.2780   10.4600   -3.0480 C   0  0  2  0  0  0  0  0  0  0  0  0
    2.6790    9.8160   -3.0670 C   0  0  0  0  0  0  0  0  0  0  0  0
    3.6600   10.5040   -4.0200 C   0  0  0  0  0  0  0  0  0  0  0  0
    5.0240   10.6340   -3.4120 C   0  0  2  0  0  0  0  0  0  0  0  0
    5.6570   11.9020   -3.6270 O   0  0  0  0  0  0  0  0  0  0  0  0
    6.2960   10.7650   -4.2300 C   0  0  0  0  0  0  0  0  0  0  0  0
    6.2630   10.7710   -5.7260 C   0  0  0  0  0  0  0  0  0  0  0  0
    7.5980   10.3960   -3.5920 C   0  0  0  0  0  0  0  0  0  0  0  0
    1.2490   11.6140   -2.0530 C   0  0  1  0  0  0  0  0  0  0  0  0
    2.2900   11.4480   -0.9140 C   0  0  0  0  0  0  0  0  0  0  0  0
    2.7960   12.8700   -0.5600 C   0  0  0  0  0  0  0  0  0  0  0  0
    1.8020   13.8240   -1.2620 C   0  0  1  0  0  0  0  0  0  0  0  0
    0.5680   13.8900   -0.3090 C   0  0  0  0  0  0  0  0  0  0  0  0
    2.3410   15.2500   -1.6080 C   0  0  2  0  0  0  0  0  0  0  0  0
    2.7520   16.1040   -0.3960 C   0  0  0  0  0  0  0  0  0  0  0  0
    1.6710   16.9580    0.1780 C   0  0  0  0  0  0  0  0  0  0  0  0
    0.5050   17.2560   -0.4250 C   0  0  0  0  0  0  0  0  0  0  0  0
    0.2210   16.7940   -1.8600 C   0  0  1  0  0  0  0  0  0  0  0  0
   -0.3590   17.9770   -2.6800 C   0  0  0  0  0  0  0  0  0  0  0  0
   -1.5810   18.6050   -2.0160 C   0  0  0  0  0  0  0  0  0  0  0  0
   -1.2430   19.1040   -0.6130 C   0  0  2  0  0  0  0  0  0  0  0  0
   -0.3230   20.1940   -0.7210 O   0  0  0  0  0  0  0  0  0  0  0  0
   -0.6410   18.0010    0.3010 C   0  0  0  0  0  0  0  0  0  0  0  0
   -1.7390   16.9690    0.6630 C   0  0  0  0  0  0  0  0  0  0  0  0
   -0.2150   18.6680    1.6370 C   0  0  0  0  0  0  0  0  0  0  0  0
    1.4220   16.0660   -2.6050 C   0  0  1  0  0  0  0  0  0  0  0  0
    2.3390   17.1230   -3.2940 C   0  0  0  0  0  0  0  0  0  0  0  0
    0.8400   15.1640   -3.7580 C   0  0  0  0  0  0  0  0  0  0  0  0
    0.4380   13.7270   -3.3780 C   0  0  0  0  0  0  0  0  0  0  0  0
    1.5570   13.0310   -2.5980 C   0  0  2  0  0  0  0  0  0  0  0  0
    2.8060   12.9310   -3.5390 C   0  0  0  0  0  0  0  0  0  0  0  0
    0.0897    9.3616   -1.6132 H   0  0  0  0  0  0  0  0  0  0  0  0
   -0.7751    9.7854   -3.1295 H   0  0  0  0  0  0  0  0  0  0  0  0
    0.4441    8.4662   -3.1295 H   0  0  0  0  0  0  0  0  0  0  0  0
    1.0744   10.8375   -4.0609 H   0  0  0  0  0  0  0  0  0  0  0  0
    3.0950    9.8595   -2.0496 H   0  0  0  0  0  0  0  0  0  0  0  0
    2.5533    8.7837   -3.4254 H   0  0  0  0  0  0  0  0  0  0  0  0
    3.7361    9.9104   -4.9430 H   0  0  0  0  0  0  0  0  0  0  0  0
    3.2810   11.5147   -4.2317 H   0  0  0  0  0  0  0  0  0  0  0  0
    4.7445    9.9654   -2.5844 H   0  0  0  0  0  0  0  0  0  0  0  0
    5.2348   10.9579   -6.0693 H   0  0  0  0  0  0  0  0  0  0  0  0
    6.9256   11.5634   -6.1042 H   0  0  0  0  0  0  0  0  0  0  0  0
    6.6043    9.7961   -6.1042 H   0  0  0  0  0  0  0  0  0  0  0  0
    7.4916   10.4262   -2.4976 H   0  0  0  0  0  0  0  0  0  0  0  0
    7.8849    9.3812   -3.9047 H   0  0  0  0  0  0  0  0  0  0  0  0
    8.3747   11.1094   -3.9047 H   0  0  0  0  0  0  0  0  0  0  0  0
    0.1983   11.5543   -1.7328 H   0  0  0  0  0  0  0  0  0  0  0  0
    1.8190   10.9838   -0.0350 H   0  0  0  0  0  0  0  0  0  0  0  0
    3.1211   10.8002   -1.2297 H   0  0  0  0  0  0  0  0  0  0  0  0
    2.7821   13.0272    0.5286 H   0  0  0  0  0  0  0  0  0  0  0  0
    3.8337   13.0363   -0.8848 H   0  0  0  0  0  0  0  0  0  0  0  0
    0.9105   13.8717    0.7362 H   0  0  0  0  0  0  0  0  0  0  0  0
    0.0098   14.8193   -0.4957 H   0  0  0  0  0  0  0  0  0  0  0  0
   -0.0861   13.0256   -0.4957 H   0  0  0  0  0  0  0  0  0  0  0  0
    3.2742   15.0254   -2.1453 H   0  0  0  0  0  0  0  0  0  0  0  0
    3.1045   15.4250    0.3944 H   0  0  0  0  0  0  0  0  0  0  0  0
    3.5258   16.7961   -0.7597 H   0  0  0  0  0  0  0  0  0  0  0  0
    1.8417   17.3800    1.1794 H   0  0  0  0  0  0  0  0  0  0  0  0
   -0.5287   15.9931   -1.7786 H   0  0  0  0  0  0  0  0  0  0  0  0
    0.4191   18.7471   -2.7869 H   0  0  0  0  0  0  0  0  0  0  0  0
   -0.6752   17.5830   -3.6571 H   0  0  0  0  0  0  0  0  0  0  0  0
   -1.9266   19.4525   -2.6261 H   0  0  0  0  0  0  0  0  0  0  0  0
   -2.3691   17.8417   -1.9370 H   0  0  0  0  0  0  0  0  0  0  0  0
   -2.1838   19.4233   -0.1409 H   0  0  0  0  0  0  0  0  0  0  0  0
   -0.5310   20.6760   -1.5400 H   0  0  0  0  0  0  0  0  0  0  0  0
   -1.8223   16.8907    1.7570 H   0  0  0  0  0  0  0  0  0  0  0  0
   -2.7022   17.2963    0.2444 H   0  0  0  0  0  0  0  0  0  0  0  0
   -1.4719   15.9874    0.2444 H   0  0  0  0  0  0  0  0  0  0  0  0
   -0.5947   18.0735    2.4810 H   0  0  0  0  0  0  0  0  0  0  0  0
    0.8827   18.7181    1.6882 H   0  0  0  0  0  0  0  0  0  0  0  0
   -0.6312   19.6849    1.6882 H   0  0  0  0  0  0  0  0  0  0  0  0
    2.8548   17.7175   -2.5255 H   0  0  0  0  0  0  0  0  0  0  0  0
    3.0829   16.6099   -3.9212 H   0  0  0  0  0  0  0  0  0  0  0  0
    1.7260   17.7870   -3.9212 H   0  0  0  0  0  0  0  0  0  0  0  0
   -0.0548   15.6663   -4.1543 H   0  0  0  0  0  0  0  0  0  0  0  0
    1.6627   15.0520   -4.4796 H   0  0  0  0  0  0  0  0  0  0  0  0
   -0.4679   13.7600   -2.7548 H   0  0  0  0  0  0  0  0  0  0  0  0
    0.2505   13.1601   -4.3019 H   0  0  0  0  0  0  0  0  0  0  0  0
    3.7191   12.8579   -2.9299 H   0  0  0  0  0  0  0  0  0  0  0  0
    2.7162   12.0372   -4.1738 H   0  0  0  0  0  0  0  0  0  0  0  0
    2.8595   13.8277   -4.1738 H   0  0  0  0  0  0  0  0  0  0  0  0
  1  2  1  0
  2  3  1  0
  3  4  1  0
  4  5  1  0
  5  6  1  0
  6  7  1  0
  7  8  1  0
  7  9  1  0
  2 10  1  0
 10 11  1  0
 11 12  1  0
 12 13  1  0
 13 14  1  1
 13 15  1  0
 15 16  1  0
 16 17  1  0
 17 18  2  0
 18 19  1  0
 19 20  1  0
 20 21  1  0
 21 22  1  0
 22 23  1  0
 22 24  1  0
 24 25  1  0
 24 26  1  0
 19 27  1  0
 27 28  1  6
 27 29  1  0
 29 30  1  0
 30 31  1  0
 31 32  1  6
  7  5  1  0
 31 10  1  0
 31 13  1  0
 27 15  1  0
 24 18  1  0
  1 33  1  0
  1 34  1  0
  1 35  1  0
  2 36  1  6
  3 37  1  0
  3 38  1  0
  4 39  1  0
  4 40  1  0
  5 41  1  1
  8 42  1  0
  8 43  1  0
  8 44  1  0
  9 45  1  0
  9 46  1  0
  9 47  1  0
 10 48  1  1
 11 49  1  0
 11 50  1  0
 12 51  1  0
 12 52  1  0
 14 53  1  0
 14 54  1  0
 14 55  1  0
 15 56  1  6
 16 57  1  0
 16 58  1  0
 17 59  1  0
 19 60  1  1
 20 61  1  0
 20 62  1  0
 21 63  1  0
 21 64  1  0
 22 65  1  1
 23 66  1  0
 25 67  1  0
 25 68  1  0
 25 69  1  0
 26 70  1  0
 26 71  1  0
 26 72  1  0
 28 73  1  0
 28 74  1  0
 28 75  1  0
 29 76  1  0
 29 77  1  0
 30 78  1  0
 30 79  1  0
 32 80  1  0
 32 81  1  0
 32 82  1  0
M  END
>  <meeko>  (10) 
{"is_sidechain": [false], "intermolecular_energy": 2.731, "internal_energy": -0.839}

$$$$
EPH_relaxed_0001_pdb2pqr_Repair_26_r2_0001_out
     RDKit          3D

 82 86  0  0  0  0  0  0  0  0999 V2000
   -0.2730   15.0610   -7.6640 C   0  0  0  0  0  0  0  0  0  0  0  0
    1.0970   15.0560   -6.9810 C   0  0  2  0  0  0  0  0  0  0  0  0
    2.2540   15.1440   -7.9970 C   0  0  0  0  0  0  0  0  0  0  0  0
    2.2820   16.4560   -8.7850 C   0  0  0  0  0  0  0  0  0  0  0  0
    1.8400   16.2600  -10.2040 C   0  0  2  0  0  0  0  0  0  0  0  0
    1.1680   15.0180  -10.4550 O   0  0  0  0  0  0  0  0  0  0  0  0
    2.4260   15.2050  -11.1240 C   0  0  0  0  0  0  0  0  0  0  0  0
    3.5050   14.2780  -10.6610 C   0  0  0  0  0  0  0  0  0  0  0  0
    2.3000   15.3960  -12.6040 C   0  0  0  0  0  0  0  0  0  0  0  0
    1.2480   13.8020   -6.1270 C   0  0  1  0  0  0  0  0  0  0  0  0
    2.6840   13.2160   -6.1750 C   0  0  0  0  0  0  0  0  0  0  0  0
    2.9750   12.6300   -4.7690 C   0  0  0  0  0  0  0  0  0  0  0  0
    1.5980   12.5980   -4.0670 C   0  0  1  0  0  0  0  0  0  0  0  0
    0.9060   11.3050   -4.6010 C   0  0  0  0  0  0  0  0  0  0  0  0
    1.6170   12.6390   -2.5040 C   0  0  2  0  0  0  0  0  0  0  0  0
    2.3120   11.4440   -1.8290 C   0  0  0  0  0  0  0  0  0  0  0  0
    1.4240   10.2880   -1.5080 C   0  0  0  0  0  0  0  0  0  0  0  0
    0.0790   10.3160   -1.4890 C   0  0  0  0  0  0  0  0  0  0  0  0
   -0.6840   11.6280   -1.7150 C   0  0  1  0  0  0  0  0  0  0  0  0
   -1.7970   11.7710   -0.6440 C   0  0  0  0  0  0  0  0  0  0  0  0
   -2.7220   10.5590   -0.5960 C   0  0  0  0  0  0  0  0  0  0  0  0
   -1.9340    9.2830   -0.3110 C   0  0  2  0  0  0  0  0  0  0  0  0
   -1.4060    9.3540    1.0170 O   0  0  0  0  0  0  0  0  0  0  0  0
   -0.7790    9.0380   -1.3210 C   0  0  0  0  0  0  0  0  0  0  0  0
   -1.3670    8.6620   -2.7030 C   0  0  0  0  0  0  0  0  0  0  0  0
    0.0220    7.7990   -0.8380 C   0  0  0  0  0  0  0  0  0  0  0  0
    0.2090   12.9360   -1.8460 C   0  0  1  0  0  0  0  0  0  0  0  0
    0.4940   13.5290   -0.4320 C   0  0  0  0  0  0  0  0  0  0  0  0
   -0.6000   14.0340   -2.6330 C   0  0  0  0  0  0  0  0  0  0  0  0
   -0.4830   14.0150   -4.1690 C   0  0  0  0  0  0  0  0  0  0  0  0
    0.9830   13.9400   -4.6070 C   0  0  2  0  0  0  0  0  0  0  0  0
    1.6990   15.2390   -4.1030 C   0  0  0  0  0  0  0  0  0  0  0  0
   -1.0639   15.0639   -6.8994 H   0  0  0  0  0  0  0  0  0  0  0  0
   -0.3665   15.9595   -8.2917 H   0  0  0  0  0  0  0  0  0  0  0  0
   -0.3731   14.1632   -8.2917 H   0  0  0  0  0  0  0  0  0  0  0  0
    1.1506   15.9498   -6.3421 H   0  0  0  0  0  0  0  0  0  0  0  0
    3.2039   15.0464   -7.4510 H   0  0  0  0  0  0  0  0  0  0  0  0
    2.1041   14.3341   -8.7261 H   0  0  0  0  0  0  0  0  0  0  0  0
    1.6098   17.1783   -8.2988 H   0  0  0  0  0  0  0  0  0  0  0  0
    3.3175   16.8271   -8.7965 H   0  0  0  0  0  0  0  0  0  0  0  0
    1.6794   17.3410  -10.3289 H   0  0  0  0  0  0  0  0  0  0  0  0
    3.5260   14.2600   -9.5613 H   0  0  0  0  0  0  0  0  0  0  0  0
    3.3059   13.2650  -11.0406 H   0  0  0  0  0  0  0  0  0  0  0  0
    4.4765   14.6275  -11.0406 H   0  0  0  0  0  0  0  0  0  0  0  0
    1.7048   16.2983  -12.8079 H   0  0  0  0  0  0  0  0  0  0  0  0
    3.3010   15.5096  -13.0456 H   0  0  0  0  0  0  0  0  0  0  0  0
    1.8016   14.5204  -13.0456 H   0  0  0  0  0  0  0  0  0  0  0  0
    0.4737   13.1712   -6.5880 H   0  0  0  0  0  0  0  0  0  0  0  0
    2.7446   12.4237   -6.9356 H   0  0  0  0  0  0  0  0  0  0  0  0
    3.4183   13.9910   -6.4397 H   0  0  0  0  0  0  0  0  0  0  0  0
    3.3932   11.6158   -4.8500 H   0  0  0  0  0  0  0  0  0  0  0  0
    3.7129   13.2269   -4.2129 H   0  0  0  0  0  0  0  0  0  0  0  0
    0.5760   10.6884   -3.7520 H   0  0  0  0  0  0  0  0  0  0  0  0
    0.0353   11.5815   -5.2137 H   0  0  0  0  0  0  0  0  0  0  0  0
    1.6190   10.7339   -5.2137 H   0  0  0  0  0  0  0  0  0  0  0  0
    2.2551   13.5111   -2.2985 H   0  0  0  0  0  0  0  0  0  0  0  0
    3.1047   11.0868   -2.5029 H   0  0  0  0  0  0  0  0  0  0  0  0
    2.6881   11.8158   -0.8645 H   0  0  0  0  0  0  0  0  0  0  0  0
    1.9108    9.3316   -1.2664 H   0  0  0  0  0  0  0  0  0  0  0  0
   -1.1362   11.5483   -2.7146 H   0  0  0  0  0  0  0  0  0  0  0  0
   -1.3242   11.8930    0.3417 H   0  0  0  0  0  0  0  0  0  0  0  0
   -2.4072   12.6463   -0.9115 H   0  0  0  0  0  0  0  0  0  0  0  0
   -3.4680   10.7066    0.1988 H   0  0  0  0  0  0  0  0  0  0  0  0
   -3.2167   10.4556   -1.5730 H   0  0  0  0  0  0  0  0  0  0  0  0
   -2.6278    8.4360   -0.4173 H   0  0  0  0  0  0  0  0  0  0  0  0
   -0.5180    8.9590    1.0020 H   0  0  0  0  0  0  0  0  0  0  0  0
   -2.2862    8.0742   -2.5628 H   0  0  0  0  0  0  0  0  0  0  0  0
   -1.6002    9.5790   -3.2641 H   0  0  0  0  0  0  0  0  0  0  0  0
   -0.6324    8.0656   -3.2641 H   0  0  0  0  0  0  0  0  0  0  0  0
    0.0360    7.7773    0.2617 H   0  0  0  0  0  0  0  0  0  0  0  0
   -0.4555    6.8833   -1.2167 H   0  0  0  0  0  0  0  0  0  0  0  0
    1.0530    7.8585   -1.2167 H   0  0  0  0  0  0  0  0  0  0  0  0
    0.1537   12.8209    0.3380 H   0  0  0  0  0  0  0  0  0  0  0  0
    1.5742   13.7031   -0.3183 H   0  0  0  0  0  0  0  0  0  0  0  0
   -0.0448   14.4812   -0.3183 H   0  0  0  0  0  0  0  0  0  0  0  0
   -1.6630   13.9104   -2.3786 H   0  0  0  0  0  0  0  0  0  0  0  0
   -0.1604   14.9934   -2.3226 H   0  0  0  0  0  0  0  0  0  0  0  0
   -1.0205   13.1385   -4.5599 H   0  0  0  0  0  0  0  0  0  0  0  0
   -0.9201   14.9434   -4.5653 H   0  0  0  0  0  0  0  0  0  0  0  0
    1.7055   15.2508   -3.0031 H   0  0  0  0  0  0  0  0  0  0  0  0
    2.7337   15.2556   -4.4760 H   0  0  0  0  0  0  0  0  0  0  0  0
    1.1605   16.1227   -4.4760 H   0  0  0  0  0  0  0  0  0  0  0  0
  1  2  1  0
  2  3  1  0
  3  4  1  0
  4  5  1  0
  5  6  1  0
  6  7  1  0
  7  8  1  0
  7  9  1  0
  2 10  1  0
 10 11  1  0
 11 12  1  0
 12 13  1  0
 13 14  1  1
 13 15  1  0
 15 16  1  0
 16 17  1  0
 17 18  2  0
 18 19  1  0
 19 20  1  0
 20 21  1  0
 21 22  1  0
 22 23  1  0
 22 24  1  0
 24 25  1  0
 24 26  1  0
 19 27  1  0
 27 28  1  1
 27 29  1  0
 29 30  1  0
 30 31  1  0
 31 32  1  1
  7  5  1  0
 31 10  1  0
 31 13  1  0
 27 15  1  0
 24 18  1  0
  1 33  1  0
  1 34  1  0
  1 35  1  0
  2 36  1  1
  3 37  1  0
  3 38  1  0
  4 39  1  0
  4 40  1  0
  5 41  1  6
  8 42  1  0
  8 43  1  0
  8 44  1  0
  9 45  1  0
  9 46  1  0
  9 47  1  0
 10 48  1  6
 11 49  1  0
 11 50  1  0
 12 51  1  0
 12 52  1  0
 14 53  1  0
 14 54  1  0
 14 55  1  0
 15 56  1  6
 16 57  1  0
 16 58  1  0
 17 59  1  0
 19 60  1  6
 20 61  1  0
 20 62  1  0
 21 63  1  0
 21 64  1  0
 22 65  1  1
 23 66  1  0
 25 67  1  0
 25 68  1  0
 25 69  1  0
 26 70  1  0
 26 71  1  0
 26 72  1  0
 28 73  1  0
 28 74  1  0
 28 75  1  0
 29 76  1  0
 29 77  1  0
 30 78  1  0
 30 79  1  0
 32 80  1  0
 32 81  1  0
 32 82  1  0
M  END
>  <meeko>  (11) 
{"is_sidechain": [false], "intermolecular_energy": 2.731, "internal_energy": -0.839}

$$$$
EPH_relaxed_0001_pdb2pqr_Repair_26_r2_0001_out
     RDKit          3D

 82 86  0  0  0  0  0  0  0  0999 V2000
   -3.7660    7.1460   -3.3440 C   0  0  0  0  0  0  0  0  0  0  0  0
   -3.8320    7.2680   -1.8190 C   0  0  2  0  0  0  0  0  0  0  0  0
   -5.2670    7.0850   -1.2840 C   0  0  0  0  0  0  0  0  0  0  0  0
   -6.3530    7.4050   -2.3140 C   0  0  0  0  0  0  0  0  0  0  0  0
   -7.6940    7.5820   -1.6690 C   0  0  2  0  0  0  0  0  0  0  0  0
   -8.2390    6.3920   -1.0840 O   0  0  0  0  0  0  0  0  0  0  0  0
   -8.9660    6.9420   -2.1940 C   0  0  0  0  0  0  0  0  0  0  0  0
   -8.9580    6.0780   -3.4150 C   0  0  0  0  0  0  0  0  0  0  0  0
  -10.2810    7.5470   -1.8120 C   0  0  0  0  0  0  0  0  0  0  0  0
   -3.2810    8.6190   -1.3810 C   0  0  1  0  0  0  0  0  0  0  0  0
   -3.8820    9.1010   -0.0330 C   0  0  0  0  0  0  0  0  0  0  0  0
   -2.7570    9.8640    0.7110 C   0  0  0  0  0  0  0  0  0  0  0  0
   -1.6610   10.0840   -0.3580 C   0  0  1  0  0  0  0  0  0  0  0  0
   -2.1390   11.3270   -1.1720 C   0  0  0  0  0  0  0  0  0  0  0  0
   -0.2030   10.2680    0.1750 C   0  0  2  0  0  0  0  0  0  0  0  0
    0.0150   11.5010    1.0680 C   0  0  0  0  0  0  0  0  0  0  0  0
    0.4210   12.7450    0.3490 C   0  0  0  0  0  0  0  0  0  0  0  0
    0.8780   12.8040   -0.9150 C   0  0  0  0  0  0  0  0  0  0  0  0
    1.1190   11.5240   -1.7260 C   0  0  1  0  0  0  0  0  0  0  0  0
    2.5010   11.6070   -2.4260 C   0  0  0  0  0  0  0  0  0  0  0  0
    2.6560   12.8700   -3.2690 C   0  0  0  0  0  0  0  0  0  0  0  0
    2.4660   14.1220   -2.4160 C   0  0  2  0  0  0  0  0  0  0  0  0
    3.5460   14.2090   -1.4800 O   0  0  0  0  0  0  0  0  0  0  0  0
    1.1120   14.1450   -1.6540 C   0  0  0  0  0  0  0  0  0  0  0  0
   -0.0470   14.3540   -2.6600 C   0  0  0  0  0  0  0  0  0  0  0  0
    1.1080   15.3880   -0.7240 C   0  0  0  0  0  0  0  0  0  0  0  0
    0.9140   10.1580   -0.9420 C   0  0  1  0  0  0  0  0  0  0  0  0
    2.2330    9.7580   -0.2140 C   0  0  0  0  0  0  0  0  0  0  0  0
    0.6130    9.0110   -1.9780 C   0  0  0  0  0  0  0  0  0  0  0  0
   -0.8610    8.8000   -2.3730 C   0  0  0  0  0  0  0  0  0  0  0  0
   -1.7550    8.7190   -1.1320 C   0  0  2  0  0  0  0  0  0  0  0  0
   -1.3130    7.4640   -0.3050 C   0  0  0  0  0  0  0  0  0  0  0  0
   -3.2588    6.2084   -3.6152 H   0  0  0  0  0  0  0  0  0  0  0  0
   -4.7859    7.1436   -3.7561 H   0  0  0  0  0  0  0  0  0  0  0  0
   -3.2060    7.9983   -3.7561 H   0  0  0  0  0  0  0  0  0  0  0  0
   -3.2161    6.4611   -1.3953 H   0  0  0  0  0  0  0  0  0  0  0  0
   -5.3881    6.0392   -0.9652 H   0  0  0  0  0  0  0  0  0  0  0  0
   -5.3932    7.7944   -0.4528 H   0  0  0  0  0  0  0  0  0  0  0  0
   -6.0843    8.3339   -2.8384 H   0  0  0  0  0  0  0  0  0  0  0  0
   -6.4190    6.5608   -3.0161 H   0  0  0  0  0  0  0  0  0  0  0  0
   -7.4495    8.6177   -1.3905 H   0  0  0  0  0  0  0  0  0  0  0  0
   -8.9482    5.0197   -3.1152 H   0  0  0  0  0  0  0  0  0  0  0  0
   -9.8581    6.2812   -4.0138 H   0  0  0  0  0  0  0  0  0  0  0  0
   -8.0619    6.2978   -4.0138 H   0  0  0  0  0  0  0  0  0  0  0  0
  -10.3627    7.5846   -0.7157 H   0  0  0  0  0  0  0  0  0  0  0  0
  -10.3479    8.5664   -2.2198 H   0  0  0  0  0  0  0  0  0  0  0  0
  -11.0987    6.9346   -2.2198 H   0  0  0  0  0  0  0  0  0  0  0  0
   -3.5599    9.2236   -2.2566 H   0  0  0  0  0  0  0  0  0  0  0  0
   -4.7359    9.7697   -0.2166 H   0  0  0  0  0  0  0  0  0  0  0  0
   -4.2444    8.2512    0.5641 H   0  0  0  0  0  0  0  0  0  0  0  0
   -3.1272   10.8274    1.0914 H   0  0  0  0  0  0  0  0  0  0  0  0
   -2.3828    9.3083    1.5835 H   0  0  0  0  0  0  0  0  0  0  0  0
   -2.4454   12.1238   -0.4783 H   0  0  0  0  0  0  0  0  0  0  0  0
   -1.3159   11.6890   -1.8057 H   0  0  0  0  0  0  0  0  0  0  0  0
   -2.9925   11.0442   -1.8057 H   0  0  0  0  0  0  0  0  0  0  0  0
   -0.0817    9.3966    0.8353 H   0  0  0  0  0  0  0  0  0  0  0  0
   -0.9261   11.7070    1.5989 H   0  0  0  0  0  0  0  0  0  0  0  0
    0.8515   11.2488    1.7363 H   0  0  0  0  0  0  0  0  0  0  0  0
    0.3395   13.6938    0.8995 H   0  0  0  0  0  0  0  0  0  0  0  0
    0.3197   11.4874   -2.4808 H   0  0  0  0  0  0  0  0  0  0  0  0
    3.2870   11.5982   -1.6565 H   0  0  0  0  0  0  0  0  0  0  0  0
    2.5853   10.7428   -3.1013 H   0  0  0  0  0  0  0  0  0  0  0  0
    3.6626   12.8857   -3.7122 H   0  0  0  0  0  0  0  0  0  0  0  0
    1.8888   12.8624   -4.0572 H   0  0  0  0  0  0  0  0  0  0  0  0
    2.4575   14.9866   -3.0960 H   0  0  0  0  0  0  0  0  0  0  0  0
    4.1070   14.9560   -1.7490 H   0  0  0  0  0  0  0  0  0  0  0  0
   -0.9843   14.5230   -2.1096 H   0  0  0  0  0  0  0  0  0  0  0  0
    0.1695   15.2276   -3.2924 H   0  0  0  0  0  0  0  0  0  0  0  0
   -0.1493   13.4598   -3.2924 H   0  0  0  0  0  0  0  0  0  0  0  0
    1.1091   15.0603    0.3261 H   0  0  0  0  0  0  0  0  0  0  0  0
    2.0042   15.9951   -0.9195 H   0  0  0  0  0  0  0  0  0  0  0  0
    0.2079   15.9893   -0.9195 H   0  0  0  0  0  0  0  0  0  0  0  0
    2.0797    9.8045    0.8743 H   0  0  0  0  0  0  0  0  0  0  0  0
    2.5144    8.7341   -0.5013 H   0  0  0  0  0  0  0  0  0  0  0  0
    3.0357   10.4531   -0.5013 H   0  0  0  0  0  0  0  0  0  0  0  0
    1.1745    9.2367   -2.8966 H   0  0  0  0  0  0  0  0  0  0  0  0
    0.9110    8.0809   -1.4718 H   0  0  0  0  0  0  0  0  0  0  0  0
   -1.1899    9.6425   -2.9990 H   0  0  0  0  0  0  0  0  0  0  0  0
   -0.9435    7.8533   -2.9271 H   0  0  0  0  0  0  0  0  0  0  0  0
   -1.3914    7.6866    0.7694 H   0  0  0  0  0  0  0  0  0  0  0  0
   -1.9658    6.6137   -0.5518 H   0  0  0  0  0  0  0  0  0  0  0  0
   -0.2715    7.2104   -0.5518 H   0  0  0  0  0  0  0  0  0  0  0  0
  1  2  1  0
  2  3  1  0
  3  4  1  0
  4  5  1  0
  5  6  1  0
  6  7  1  0
  7  8  1  0
  7  9  1  0
  2 10  1  0
 10 11  1  0
 11 12  1  0
 12 13  1  0
 13 14  1  6
 13 15  1  0
 15 16  1  0
 16 17  1  0
 17 18  2  0
 18 19  1  0
 19 20  1  0
 20 21  1  0
 21 22  1  0
 22 23  1  0
 22 24  1  0
 24 25  1  0
 24 26  1  0
 19 27  1  0
 27 28  1  1
 27 29  1  0
 29 30  1  0
 30 31  1  0
 31 32  1  1
  7  5  1  0
 31 10  1  0
 31 13  1  0
 27 15  1  0
 24 18  1  0
  1 33  1  0
  1 34  1  0
  1 35  1  0
  2 36  1  1
  3 37  1  0
  3 38  1  0
  4 39  1  0
  4 40  1  0
  5 41  1  1
  8 42  1  0
  8 43  1  0
  8 44  1  0
  9 45  1  0
  9 46  1  0
  9 47  1  0
 10 48  1  6
 11 49  1  0
 11 50  1  0
 12 51  1  0
 12 52  1  0
 14 53  1  0
 14 54  1  0
 14 55  1  0
 15 56  1  1
 16 57  1  0
 16 58  1  0
 17 59  1  0
 19 60  1  6
 20 61  1  0
 20 62  1  0
 21 63  1  0
 21 64  1  0
 22 65  1  6
 23 66  1  0
 25 67  1  0
 25 68  1  0
 25 69  1  0
 26 70  1  0
 26 71  1  0
 26 72  1  0
 28 73  1  0
 28 74  1  0
 28 75  1  0
 29 76  1  0
 29 77  1  0
 30 78  1  0
 30 79  1  0
 32 80  1  0
 32 81  1  0
 32 82  1  0
M  END
>  <meeko>  (12) 
{"is_sidechain": [false], "intermolecular_energy": 2.731, "internal_energy": -0.839}

$$$$
EPH_relaxed_0001_pdb2pqr_Repair_26_r2_0001_out
     RDKit          3D

 82 86  0  0  0  0  0  0  0  0999 V2000
   -2.2340    7.8660   -2.0070 C   0  0  0  0  0  0  0  0  0  0  0  0
   -2.4320    8.5980   -0.6760 C   0  0  2  0  0  0  0  0  0  0  0  0
   -3.9200    8.7020   -0.2870 C   0  0  0  0  0  0  0  0  0  0  0  0
   -4.6940    7.3920   -0.4550 C   0  0  0  0  0  0  0  0  0  0  0  0
   -5.5030    7.3840   -1.7170 C   0  0  2  0  0  0  0  0  0  0  0  0
   -6.3720    8.5130   -1.8770 O   0  0  0  0  0  0  0  0  0  0  0  0
   -7.0130    7.2350   -1.7410 C   0  0  0  0  0  0  0  0  0  0  0  0
   -7.8020    7.0810   -0.4780 C   0  0  0  0  0  0  0  0  0  0  0  0
   -7.6640    6.7490   -2.9980 C   0  0  0  0  0  0  0  0  0  0  0  0
   -1.8150    9.9900   -0.7520 C   0  0  1  0  0  0  0  0  0  0  0  0
   -1.2930   10.4870    0.6220 C   0  0  0  0  0  0  0  0  0  0  0  0
   -0.0230   11.3300    0.3400 C   0  0  0  0  0  0  0  0  0  0  0  0
   -0.0430   11.5670   -1.1880 C   0  0  1  0  0  0  0  0  0  0  0  0
   -1.0320   12.7560   -1.3970 C   0  0  0  0  0  0  0  0  0  0  0  0
    1.3400   11.8400   -1.8640 C   0  0  2  0  0  0  0  0  0  0  0  0
    2.0590   13.1130   -1.3850 C   0  0  0  0  0  0  0  0  0  0  0  0
    1.7510   14.3500   -2.1620 C   0  0  0  0  0  0  0  0  0  0  0  0
    1.1570   14.3880   -3.3700 C   0  0  0  0  0  0  0  0  0  0  0  0
    0.8180   13.0940   -4.1210 C   0  0  1  0  0  0  0  0  0  0  0  0
    1.2700   13.2210   -5.6000 C   0  0  0  0  0  0  0  0  0  0  0  0
    0.6980   14.4600   -6.2820 C   0  0  0  0  0  0  0  0  0  0  0  0
    1.1050   15.7290   -5.5390 C   0  0  2  0  0  0  0  0  0  0  0  0
    2.5200   15.9020   -5.6630 O   0  0  0  0  0  0  0  0  0  0  0  0
    0.7100   15.7120   -4.0360 C   0  0  0  0  0  0  0  0  0  0  0  0
   -0.8280   15.8290   -3.9000 C   0  0  0  0  0  0  0  0  0  0  0  0
    1.3020   16.9850   -3.3720 C   0  0  0  0  0  0  0  0  0  0  0  0
    1.3190   11.7470   -3.4430 C   0  0  1  0  0  0  0  0  0  0  0  0
    2.7810   11.4380   -3.8900 C   0  0  0  0  0  0  0  0  0  0  0  0
    0.4350   10.5510   -3.9610 C   0  0  0  0  0  0  0  0  0  0  0  0
   -0.8590   10.2550   -3.1790 C   0  0  0  0  0  0  0  0  0  0  0  0
   -0.5840   10.1730   -1.6750 C   0  0  2  0  0  0  0  0  0  0  0  0
    0.3910    8.9700   -1.4320 C   0  0  0  0  0  0  0  0  0  0  0  0
   -1.9513    6.8209   -1.8122 H   0  0  0  0  0  0  0  0  0  0  0  0
   -3.1712    7.8912   -2.5823 H   0  0  0  0  0  0  0  0  0  0  0  0
   -1.4373    8.3602   -2.5823 H   0  0  0  0  0  0  0  0  0  0  0  0
   -1.9270    8.0095    0.1042 H   0  0  0  0  0  0  0  0  0  0  0  0
   -3.9825    9.0093    0.7674 H   0  0  0  0  0  0  0  0  0  0  0  0
   -4.3789    9.4354   -0.9664 H   0  0  0  0  0  0  0  0  0  0  0  0
   -3.9789    6.5567   -0.4847 H   0  0  0  0  0  0  0  0  0  0  0  0
   -5.3842    7.2900    0.3954 H   0  0  0  0  0  0  0  0  0  0  0  0
   -4.7010    6.8592   -2.2568 H   0  0  0  0  0  0  0  0  0  0  0  0
   -7.1365    7.2109    0.3882 H   0  0  0  0  0  0  0  0  0  0  0  0
   -8.5966    7.8410   -0.4471 H   0  0  0  0  0  0  0  0  0  0  0  0
   -8.2525    6.0780   -0.4471 H   0  0  0  0  0  0  0  0  0  0  0  0
   -8.5215    6.1089   -2.7430 H   0  0  0  0  0  0  0  0  0  0  0  0
   -8.0118    7.6102   -3.5874 H   0  0  0  0  0  0  0  0  0  0  0  0
   -6.9372    6.1708   -3.5874 H   0  0  0  0  0  0  0  0  0  0  0  0
   -2.6724   10.5504   -1.1531 H   0  0  0  0  0  0  0  0  0  0  0  0
   -2.0565   11.1060    1.1158 H   0  0  0  0  0  0  0  0  0  0  0  0
   -1.0657    9.6411    1.2875 H   0  0  0  0  0  0  0  0  0  0  0  0
   -0.0636   12.2864    0.8818 H   0  0  0  0  0  0  0  0  0  0  0  0
    0.8956   10.8238    0.6715 H   0  0  0  0  0  0  0  0  0  0  0  0
   -1.3532   13.1421   -0.4184 H   0  0  0  0  0  0  0  0  0  0  0  0
   -0.5295   13.5563   -1.9600 H   0  0  0  0  0  0  0  0  0  0  0  0
   -1.9105   12.4076   -1.9600 H   0  0  0  0  0  0  0  0  0  0  0  0
    1.9499   10.9985   -1.5036 H   0  0  0  0  0  0  0  0  0  0  0  0
    1.7747   13.2901   -0.3372 H   0  0  0  0  0  0  0  0  0  0  0  0
    3.1340   12.9260   -1.5242 H   0  0  0  0  0  0  0  0  0  0  0  0
    2.0332   15.3120   -1.7094 H   0  0  0  0  0  0  0  0  0  0  0  0
   -0.2761   12.9913   -4.0722 H   0  0  0  0  0  0  0  0  0  0  0  0
    2.3682   13.2775   -5.6295 H   0  0  0  0  0  0  0  0  0  0  0  0
    0.8954   12.3393   -6.1406 H   0  0  0  0  0  0  0  0  0  0  0  0
    1.0764   14.5100   -7.3137 H   0  0  0  0  0  0  0  0  0  0  0  0
   -0.3996   14.3877   -6.2777 H   0  0  0  0  0  0  0  0  0  0  0  0
    0.5608   16.5683   -5.9966 H   0  0  0  0  0  0  0  0  0  0  0  0
    2.6830   16.4160   -6.4720 H   0  0  0  0  0  0  0  0  0  0  0  0
   -1.1014   15.8498   -2.8347 H   0  0  0  0  0  0  0  0  0  0  0  0
   -1.1695   16.7557   -4.3843 H   0  0  0  0  0  0  0  0  0  0  0  0
   -1.3057   14.9646   -4.3843 H   0  0  0  0  0  0  0  0  0  0  0  0
    1.2548   16.8835   -2.2777 H   0  0  0  0  0  0  0  0  0  0  0  0
    2.3496   17.1079   -3.6840 H   0  0  0  0  0  0  0  0  0  0  0  0
    0.7209   17.8653   -3.6840 H   0  0  0  0  0  0  0  0  0  0  0  0
    3.4155   11.3039   -3.0015 H   0  0  0  0  0  0  0  0  0  0  0  0
    2.7936   10.5174   -4.4919 H   0  0  0  0  0  0  0  0  0  0  0  0
    3.1650   12.2748   -4.4919 H   0  0  0  0  0  0  0  0  0  0  0  0
    0.1524   10.7719   -5.0009 H   0  0  0  0  0  0  0  0  0  0  0  0
    1.0599    9.6547   -3.8340 H   0  0  0  0  0  0  0  0  0  0  0  0
   -1.5858   11.0586   -3.3686 H   0  0  0  0  0  0  0  0  0  0  0  0
   -1.2586    9.2870   -3.5157 H   0  0  0  0  0  0  0  0  0  0  0  0
    0.5178    8.8135   -0.3506 H   0  0  0  0  0  0  0  0  0  0  0  0
   -0.0281    8.0606   -1.8874 H   0  0  0  0  0  0  0  0  0  0  0  0
    1.3675    9.1916   -1.8874 H   0  0  0  0  0  0  0  0  0  0  0  0
  1  2  1  0
  2  3  1  0
  3  4  1  0
  4  5  1  0
  5  6  1  0
  6  7  1  0
  7  8  1  0
  7  9  1  0
  2 10  1  0
 10 11  1  0
 11 12  1  0
 12 13  1  0
 13 14  1  1
 13 15  1  0
 15 16  1  0
 16 17  1  0
 17 18  2  0
 18 19  1  0
 19 20  1  0
 20 21  1  0
 21 22  1  0
 22 23  1  0
 22 24  1  0
 24 25  1  0
 24 26  1  0
 19 27  1  0
 27 28  1  6
 27 29  1  0
 29 30  1  0
 30 31  1  0
 31 32  1  6
  7  5  1  0
 31 10  1  0
 31 13  1  0
 27 15  1  0
 24 18  1  0
  1 33  1  0
  1 34  1  0
  1 35  1  0
  2 36  1  1
  3 37  1  0
  3 38  1  0
  4 39  1  0
  4 40  1  0
  5 41  1  6
  8 42  1  0
  8 43  1  0
  8 44  1  0
  9 45  1  0
  9 46  1  0
  9 47  1  0
 10 48  1  6
 11 49  1  0
 11 50  1  0
 12 51  1  0
 12 52  1  0
 14 53  1  0
 14 54  1  0
 14 55  1  0
 15 56  1  1
 16 57  1  0
 16 58  1  0
 17 59  1  0
 19 60  1  6
 20 61  1  0
 20 62  1  0
 21 63  1  0
 21 64  1  0
 22 65  1  6
 23 66  1  0
 25 67  1  0
 25 68  1  0
 25 69  1  0
 26 70  1  0
 26 71  1  0
 26 72  1  0
 28 73  1  0
 28 74  1  0
 28 75  1  0
 29 76  1  0
 29 77  1  0
 30 78  1  0
 30 79  1  0
 32 80  1  0
 32 81  1  0
 32 82  1  0
M  END
>  <meeko>  (13) 
{"is_sidechain": [false], "intermolecular_energy": 2.731, "internal_energy": -0.839}

$$$$
EPH_relaxed_0001_pdb2pqr_Repair_26_r2_0001_out
     RDKit          3D

 82 86  0  0  0  0  0  0  0  0999 V2000
    1.6460   10.6790   -4.7370 C   0  0  0  0  0  0  0  0  0  0  0  0
    0.8680   10.4970   -3.4310 C   0  0  2  0  0  0  0  0  0  0  0  0
   -0.2750    9.4720   -3.5740 C   0  0  0  0  0  0  0  0  0  0  0  0
   -0.2480    8.3680   -2.5130 C   0  0  0  0  0  0  0  0  0  0  0  0
    0.0280    8.9190   -1.1470 C   0  0  2  0  0  0  0  0  0  0  0  0
   -0.3060    8.0380   -0.0670 O   0  0  0  0  0  0  0  0  0  0  0  0
   -1.0600    9.2590   -0.1460 C   0  0  0  0  0  0  0  0  0  0  0  0
   -2.5070    9.0600   -0.4690 C   0  0  0  0  0  0  0  0  0  0  0  0
   -0.7470   10.2320    0.9480 C   0  0  0  0  0  0  0  0  0  0  0  0
    0.3100   11.8380   -2.9670 C   0  0  1  0  0  0  0  0  0  0  0  0
   -1.0680   11.7010   -2.2670 C   0  0  0  0  0  0  0  0  0  0  0  0
   -1.1090   12.7720   -1.1470 C   0  0  0  0  0  0  0  0  0  0  0  0
    0.0920   13.6990   -1.4500 C   0  0  1  0  0  0  0  0  0  0  0  0
   -0.4170   14.6640   -2.5650 C   0  0  0  0  0  0  0  0  0  0  0  0
    0.6840   14.4830   -0.2330 C   0  0  2  0  0  0  0  0  0  0  0  0
   -0.2840   15.4750    0.4360 C   0  0  0  0  0  0  0  0  0  0  0  0
   -0.2550   16.8630   -0.1130 C   0  0  0  0  0  0  0  0  0  0  0  0
    0.7070   17.3710   -0.9050 C   0  0  0  0  0  0  0  0  0  0  0  0
    1.9600   16.5540   -1.2460 C   0  0  1  0  0  0  0  0  0  0  0  0
    3.2210   17.4390   -1.0670 C   0  0  0  0  0  0  0  0  0  0  0  0
    3.1390   18.7400   -1.8590 C   0  0  0  0  0  0  0  0  0  0  0  0
    1.9130   19.5520   -1.4510 C   0  0  2  0  0  0  0  0  0  0  0  0
    2.0810   19.9930   -0.1000 O   0  0  0  0  0  0  0  0  0  0  0  0
    0.5820   18.7590   -1.5800 C   0  0  0  0  0  0  0  0  0  0  0  0
    0.2480   18.5430   -3.0770 C   0  0  0  0  0  0  0  0  0  0  0  0
   -0.5570   19.6420   -1.0040 C   0  0  0  0  0  0  0  0  0  0  0  0
    2.0910   15.1490   -0.5140 C   0  0  1  0  0  0  0  0  0  0  0  0
    2.7810   15.3340    0.8720 C   0  0  0  0  0  0  0  0  0  0  0  0
    3.0370   14.2160   -1.3590 C   0  0  0  0  0  0  0  0  0  0  0  0
    2.3740   13.3760   -2.4680 C   0  0  0  0  0  0  0  0  0  0  0  0
    1.1440   12.6360   -1.9340 C   0  0  2  0  0  0  0  0  0  0  0  0
    1.6290   11.6410   -0.8250 C   0  0  0  0  0  0  0  0  0  0  0  0
    2.6937   10.9241   -4.5085 H   0  0  0  0  0  0  0  0  0  0  0  0
    1.6062    9.7473   -5.3204 H   0  0  0  0  0  0  0  0  0  0  0  0
    1.1970   11.4964   -5.3204 H   0  0  0  0  0  0  0  0  0  0  0  0
    1.5698   10.1062   -2.6795 H   0  0  0  0  0  0  0  0  0  0  0  0
   -1.2330   10.0067   -3.4945 H   0  0  0  0  0  0  0  0  0  0  0  0
   -0.1475    8.9824   -4.5508 H   0  0  0  0  0  0  0  0  0  0  0  0
   -1.2236    7.8601   -2.5021 H   0  0  0  0  0  0  0  0  0  0  0  0
    0.5590    7.6658   -2.7691 H   0  0  0  0  0  0  0  0  0  0  0  0
    0.8863    9.4927   -1.5267 H   0  0  0  0  0  0  0  0  0  0  0  0
   -3.0835    8.9807    0.4645 H   0  0  0  0  0  0  0  0  0  0  0  0
   -2.8731    9.9162   -1.0545 H   0  0  0  0  0  0  0  0  0  0  0  0
   -2.6284    8.1367   -1.0545 H   0  0  0  0  0  0  0  0  0  0  0  0
   -0.9024    9.7489    1.9239 H   0  0  0  0  0  0  0  0  0  0  0  0
    0.3007   10.5560    0.8619 H   0  0  0  0  0  0  0  0  0  0  0  0
   -1.4093   11.1060    0.8619 H   0  0  0  0  0  0  0  0  0  0  0  0
    0.2908   12.3726   -3.9282 H   0  0  0  0  0  0  0  0  0  0  0  0
   -1.8789   11.8769   -2.9892 H   0  0  0  0  0  0  0  0  0  0  0  0
   -1.2019   10.6908   -1.8527 H   0  0  0  0  0  0  0  0  0  0  0  0
   -2.0531   13.3353   -1.1826 H   0  0  0  0  0  0  0  0  0  0  0  0
   -1.0503   12.3278   -0.1424 H   0  0  0  0  0  0  0  0  0  0  0  0
   -0.8825   15.5465   -2.1018 H   0  0  0  0  0  0  0  0  0  0  0  0
    0.4307   14.9820   -3.1897 H   0  0  0  0  0  0  0  0  0  0  0  0
   -1.1581   14.1440   -3.1897 H   0  0  0  0  0  0  0  0  0  0  0  0
    0.8510   13.6842    0.5046 H   0  0  0  0  0  0  0  0  0  0  0  0
   -1.3056   15.0844    0.3188 H   0  0  0  0  0  0  0  0  0  0  0  0
    0.0393   15.5556    1.4843 H   0  0  0  0  0  0  0  0  0  0  0  0
   -1.0910   17.5268    0.1524 H   0  0  0  0  0  0  0  0  0  0  0  0
    1.8558   16.2639   -2.3019 H   0  0  0  0  0  0  0  0  0  0  0  0
    3.3328   17.6820   -0.0000 H   0  0  0  0  0  0  0  0  0  0  0  0
    4.0840   16.8714   -1.4452 H   0  0  0  0  0  0  0  0  0  0  0  0
    4.0443   19.3350   -1.6683 H   0  0  0  0  0  0  0  0  0  0  0  0
    3.0572   18.4949   -2.9282 H   0  0  0  0  0  0  0  0  0  0  0  0
    1.8379   20.4052   -2.1412 H   0  0  0  0  0  0  0  0  0  0  0  0
    1.4150   19.5390    0.4430 H   0  0  0  0  0  0  0  0  0  0  0  0
   -0.6727   17.9476   -3.1650 H   0  0  0  0  0  0  0  0  0  0  0  0
    0.1020   19.5182   -3.5645 H   0  0  0  0  0  0  0  0  0  0  0  0
    1.0775   18.0098   -3.5645 H   0  0  0  0  0  0  0  0  0  0  0  0
   -0.5219   19.6148    0.0951 H   0  0  0  0  0  0  0  0  0  0  0  0
   -0.4279   20.6783   -1.3494 H   0  0  0  0  0  0  0  0  0  0  0  0
   -1.5285   19.2587   -1.3494 H   0  0  0  0  0  0  0  0  0  0  0  0
    2.0529   15.1388    1.6731 H   0  0  0  0  0  0  0  0  0  0  0  0
    3.6210   14.6294    0.9604 H   0  0  0  0  0  0  0  0  0  0  0  0
    3.1559   16.3644    0.9604 H   0  0  0  0  0  0  0  0  0  0  0  0
    3.7964   14.8545   -1.8341 H   0  0  0  0  0  0  0  0  0  0  0  0
    3.4346   13.4832   -0.6414 H   0  0  0  0  0  0  0  0  0  0  0  0
    2.0658   14.0415   -3.2878 H   0  0  0  0  0  0  0  0  0  0  0  0
    3.1014   12.6333   -2.8277 H   0  0  0  0  0  0  0  0  0  0  0  0
    1.4209   12.0680    0.1672 H   0  0  0  0  0  0  0  0  0  0  0  0
    1.0960   10.6847   -0.9318 H   0  0  0  0  0  0  0  0  0  0  0  0
    2.7106   11.4718   -0.9318 H   0  0  0  0  0  0  0  0  0  0  0  0
  1  2  1  0
  2  3  1  0
  3  4  1  0
  4  5  1  0
  5  6  1  0
  6  7  1  0
  7  8  1  0
  7  9  1  0
  2 10  1  0
 10 11  1  0
 11 12  1  0
 12 13  1  0
 13 14  1  6
 13 15  1  0
 15 16  1  0
 16 17  1  0
 17 18  2  0
 18 19  1  0
 19 20  1  0
 20 21  1  0
 21 22  1  0
 22 23  1  0
 22 24  1  0
 24 25  1  0
 24 26  1  0
 19 27  1  0
 27 28  1  1
 27 29  1  0
 29 30  1  0
 30 31  1  0
 31 32  1  1
  7  5  1  0
 31 10  1  0
 31 13  1  0
 27 15  1  0
 24 18  1  0
  1 33  1  0
  1 34  1  0
  1 35  1  0
  2 36  1  1
  3 37  1  0
  3 38  1  0
  4 39  1  0
  4 40  1  0
  5 41  1  6
  8 42  1  0
  8 43  1  0
  8 44  1  0
  9 45  1  0
  9 46  1  0
  9 47  1  0
 10 48  1  6
 11 49  1  0
 11 50  1  0
 12 51  1  0
 12 52  1  0
 14 53  1  0
 14 54  1  0
 14 55  1  0
 15 56  1  1
 16 57  1  0
 16 58  1  0
 17 59  1  0
 19 60  1  6
 20 61  1  0
 20 62  1  0
 21 63  1  0
 21 64  1  0
 22 65  1  6
 23 66  1  0
 25 67  1  0
 25 68  1  0
 25 69  1  0
 26 70  1  0
 26 71  1  0
 26 72  1  0
 28 73  1  0
 28 74  1  0
 28 75  1  0
 29 76  1  0
 29 77  1  0
 30 78  1  0
 30 79  1  0
 32 80  1  0
 32 81  1  0
 32 82  1  0
M  END
>  <meeko>  (14) 
{"is_sidechain": [false], "intermolecular_energy": 2.731, "internal_energy": -0.839}

$$$$
EPH_relaxed_0001_pdb2pqr_Repair_26_r2_0001_out
     RDKit          3D

 82 86  0  0  0  0  0  0  0  0999 V2000
    3.1290   14.6300   -7.5690 C   0  0  0  0  0  0  0  0  0  0  0  0
    1.6960   15.1390   -7.3970 C   0  0  2  0  0  0  0  0  0  0  0  0
    1.5330   16.5920   -7.8850 C   0  0  0  0  0  0  0  0  0  0  0  0
    2.2040   16.8670   -9.2330 C   0  0  0  0  0  0  0  0  0  0  0  0
    1.4400   16.2540  -10.3680 C   0  0  2  0  0  0  0  0  0  0  0  0
    0.9540   14.9300  -10.1150 O   0  0  0  0  0  0  0  0  0  0  0  0
    1.9330   15.0570  -11.1590 C   0  0  0  0  0  0  0  0  0  0  0  0
    3.2430   14.4030  -10.8470 C   0  0  0  0  0  0  0  0  0  0  0  0
    1.3840   14.8320  -12.5330 C   0  0  0  0  0  0  0  0  0  0  0  0
    1.2780   15.0310   -5.9350 C   0  0  1  0  0  0  0  0  0  0  0  0
   -0.0110   15.8350   -5.6200 C   0  0  0  0  0  0  0  0  0  0  0  0
   -0.7910   15.0300   -4.5500 C   0  0  0  0  0  0  0  0  0  0  0  0
    0.2190   13.9730   -4.0440 C   0  0  1  0  0  0  0  0  0  0  0  0
    1.1070   14.7310   -3.0080 C   0  0  0  0  0  0  0  0  0  0  0  0
   -0.3920   12.6690   -3.4360 C   0  0  2  0  0  0  0  0  0  0  0  0
   -1.2480   12.8760   -2.1740 C   0  0  0  0  0  0  0  0  0  0  0  0
   -0.5070   12.7970   -0.8800 C   0  0  0  0  0  0  0  0  0  0  0  0
    0.7300   12.2910   -0.7170 C   0  0  0  0  0  0  0  0  0  0  0  0
    1.4740   11.6370   -1.8890 C   0  0  1  0  0  0  0  0  0  0  0  0
    2.0930   10.2930   -1.4240 C   0  0  0  0  0  0  0  0  0  0  0  0
    2.9740   10.4510   -0.1880 C   0  0  0  0  0  0  0  0  0  0  0  0
    2.1830   11.0490    0.9730 C   0  0  2  0  0  0  0  0  0  0  0  0
    1.1890   10.1070    1.3880 O   0  0  0  0  0  0  0  0  0  0  0  0
    1.5050   12.4020    0.6190 C   0  0  0  0  0  0  0  0  0  0  0  0
    2.5850   13.5010    0.4630 C   0  0  0  0  0  0  0  0  0  0  0  0
    0.6260   12.8260    1.8260 C   0  0  0  0  0  0  0  0  0  0  0  0
    0.6510   11.4950   -3.2400 C   0  0  1  0  0  0  0  0  0  0  0  0
   -0.1690   10.1680   -3.2260 C   0  0  0  0  0  0  0  0  0  0  0  0
    1.6570   11.3820   -4.4460 C   0  0  0  0  0  0  0  0  0  0  0  0
    2.1310   12.7020   -5.0810 C   0  0  0  0  0  0  0  0  0  0  0  0
    0.9440   13.6180   -5.3930 C   0  0  2  0  0  0  0  0  0  0  0  0
    0.0440   12.8920   -6.4500 C   0  0  0  0  0  0  0  0  0  0  0  0
    3.5822   14.4690   -6.5797 H   0  0  0  0  0  0  0  0  0  0  0  0
    3.1168   13.6812   -8.1255 H   0  0  0  0  0  0  0  0  0  0  0  0
    3.7180   15.3739   -8.1255 H   0  0  0  0  0  0  0  0  0  0  0  0
    1.0440   14.5072   -8.0181 H   0  0  0  0  0  0  0  0  0  0  0  0
    0.4586   16.8076   -7.9814 H   0  0  0  0  0  0  0  0  0  0  0  0
    2.0255   17.2376   -7.1430 H   0  0  0  0  0  0  0  0  0  0  0  0
    2.2607   17.9546   -9.3877 H   0  0  0  0  0  0  0  0  0  0  0  0
    3.2083   16.4187   -9.2139 H   0  0  0  0  0  0  0  0  0  0  0  0
    1.0654   17.2402  -10.6797 H   0  0  0  0  0  0  0  0  0  0  0  0
    3.3705   14.3394   -9.7563 H   0  0  0  0  0  0  0  0  0  0  0  0
    3.2594   13.3910  -11.2777 H   0  0  0  0  0  0  0  0  0  0  0  0
    4.0617   14.9981  -11.2777 H   0  0  0  0  0  0  0  0  0  0  0  0
    0.3685   14.4158  -12.4585 H   0  0  0  0  0  0  0  0  0  0  0  0
    1.3494   15.7885  -13.0752 H   0  0  0  0  0  0  0  0  0  0  0  0
    2.0306   14.1263  -13.0752 H   0  0  0  0  0  0  0  0  0  0  0  0
    2.1910   15.4126   -5.4546 H   0  0  0  0  0  0  0  0  0  0  0  0
    0.2493   16.8301   -5.2300 H   0  0  0  0  0  0  0  0  0  0  0  0
   -0.6180   15.9782   -6.5261 H   0  0  0  0  0  0  0  0  0  0  0  0
   -1.1112   15.6862   -3.7273 H   0  0  0  0  0  0  0  0  0  0  0  0
   -1.7052   14.5726   -4.9563 H   0  0  0  0  0  0  0  0  0  0  0  0
    0.7921   14.4622   -1.9889 H   0  0  0  0  0  0  0  0  0  0  0  0
    2.1605   14.4494   -3.1525 H   0  0  0  0  0  0  0  0  0  0  0  0
    0.9943   15.8156   -3.1525 H   0  0  0  0  0  0  0  0  0  0  0  0
   -1.0912   12.3476   -4.2220 H   0  0  0  0  0  0  0  0  0  0  0  0
   -1.7137   13.8704   -2.2387 H   0  0  0  0  0  0  0  0  0  0  0  0
   -1.9736   12.0494   -2.1598 H   0  0  0  0  0  0  0  0  0  0  0  0
   -1.0145   13.1849    0.0155 H   0  0  0  0  0  0  0  0  0  0  0  0
    2.2733   12.3382   -2.1709 H   0  0  0  0  0  0  0  0  0  0  0  0
    1.2784    9.5922   -1.1891 H   0  0  0  0  0  0  0  0  0  0  0  0
    2.7274    9.9174   -2.2404 H   0  0  0  0  0  0  0  0  0  0  0  0
    3.3583    9.4639    0.1088 H   0  0  0  0  0  0  0  0  0  0  0  0
    3.8046   11.1292   -0.4332 H   0  0  0  0  0  0  0  0  0  0  0  0
    2.8955   11.2576    1.7847 H   0  0  0  0  0  0  0  0  0  0  0  0
    0.5860   10.5650    1.9970 H   0  0  0  0  0  0  0  0  0  0  0  0
    2.9139   13.8357    1.4579 H   0  0  0  0  0  0  0  0  0  0  0  0
    3.4447   13.0944   -0.0898 H   0  0  0  0  0  0  0  0  0  0  0  0
    2.1635   14.3535   -0.0898 H   0  0  0  0  0  0  0  0  0  0  0  0
    1.1447   12.5758    2.7632 H   0  0  0  0  0  0  0  0  0  0  0  0
    0.4454   13.9103    1.7851 H   0  0  0  0  0  0  0  0  0  0  0  0
   -0.3350   12.2924    1.7851 H   0  0  0  0  0  0  0  0  0  0  0  0
   -0.3568    9.8640   -2.1857 H   0  0  0  0  0  0  0  0  0  0  0  0
   -1.1282   10.3243   -3.7412 H   0  0  0  0  0  0  0  0  0  0  0  0
    0.3999    9.3800   -3.7412 H   0  0  0  0  0  0  0  0  0  0  0  0
    2.5483   10.8467   -4.0868 H   0  0  0  0  0  0  0  0  0  0  0  0
    1.0976   10.8654   -5.2399 H   0  0  0  0  0  0  0  0  0  0  0  0
    2.8073   13.2152   -4.3816 H   0  0  0  0  0  0  0  0  0  0  0  0
    2.6524   12.4711   -6.0217 H   0  0  0  0  0  0  0  0  0  0  0  0
   -0.7113   12.2828   -5.9319 H   0  0  0  0  0  0  0  0  0  0  0  0
   -0.4582   13.6408   -7.0801 H   0  0  0  0  0  0  0  0  0  0  0  0
    0.6696   12.2427   -7.0801 H   0  0  0  0  0  0  0  0  0  0  0  0
  1  2  1  0
  2  3  1  0
  3  4  1  0
  4  5  1  0
  5  6  1  0
  6  7  1  0
  7  8  1  0
  7  9  1  0
  2 10  1  0
 10 11  1  0
 11 12  1  0
 12 13  1  0
 13 14  1  1
 13 15  1  0
 15 16  1  0
 16 17  1  0
 17 18  2  0
 18 19  1  0
 19 20  1  0
 20 21  1  0
 21 22  1  0
 22 23  1  0
 22 24  1  0
 24 25  1  0
 24 26  1  0
 19 27  1  0
 27 28  1  1
 27 29  1  0
 29 30  1  0
 30 31  1  0
 31 32  1  6
  7  5  1  0
 31 10  1  0
 31 13  1  0
 27 15  1  0
 24 18  1  0
  1 33  1  0
  1 34  1  0
  1 35  1  0
  2 36  1  6
  3 37  1  0
  3 38  1  0
  4 39  1  0
  4 40  1  0
  5 41  1  6
  8 42  1  0
  8 43  1  0
  8 44  1  0
  9 45  1  0
  9 46  1  0
  9 47  1  0
 10 48  1  1
 11 49  1  0
 11 50  1  0
 12 51  1  0
 12 52  1  0
 14 53  1  0
 14 54  1  0
 14 55  1  0
 15 56  1  6
 16 57  1  0
 16 58  1  0
 17 59  1  0
 19 60  1  6
 20 61  1  0
 20 62  1  0
 21 63  1  0
 21 64  1  0
 22 65  1  1
 23 66  1  0
 25 67  1  0
 25 68  1  0
 25 69  1  0
 26 70  1  0
 26 71  1  0
 26 72  1  0
 28 73  1  0
 28 74  1  0
 28 75  1  0
 29 76  1  0
 29 77  1  0
 30 78  1  0
 30 79  1  0
 32 80  1  0
 32 81  1  0
 32 82  1  0
M  END
>  <meeko>  (15) 
{"is_sidechain": [false], "intermolecular_energy": 2.731, "internal_energy": -0.839}

$$$$
EPH_relaxed_0001_pdb2pqr_Repair_26_r2_0001_out
     RDKit          3D

 82 86  0  0  0  0  0  0  0  0999 V2000
    0.5930   19.6130   -2.0210 C   0  0  0  0  0  0  0  0  0  0  0  0
   -0.1990   18.4360   -1.4460 C   0  0  2  0  0  0  0  0  0  0  0  0
   -0.3480   18.5280    0.0850 C   0  0  0  0  0  0  0  0  0  0  0  0
    0.4470   19.6760    0.7130 C   0  0  0  0  0  0  0  0  0  0  0  0
    1.5470   19.1710    1.5960 C   0  0  2  0  0  0  0  0  0  0  0  0
    2.3590   20.1940    2.1870 O   0  0  0  0  0  0  0  0  0  0  0  0
    3.0210   19.3150    1.2630 C   0  0  0  0  0  0  0  0  0  0  0  0
    3.4740   19.9850    0.0040 C   0  0  0  0  0  0  0  0  0  0  0  0
    3.9960   18.3830    1.9120 C   0  0  0  0  0  0  0  0  0  0  0  0
    0.4750   17.1220   -1.8260 C   0  0  1  0  0  0  0  0  0  0  0  0
    1.9940   17.2860   -2.0980 C   0  0  0  0  0  0  0  0  0  0  0  0
    2.6800   15.9880   -1.6000 C   0  0  0  0  0  0  0  0  0  0  0  0
    1.5170   14.9960   -1.3680 C   0  0  1  0  0  0  0  0  0  0  0  0
    1.1860   14.4280   -2.7840 C   0  0  0  0  0  0  0  0  0  0  0  0
    1.7790   13.8530   -0.3350 C   0  0  2  0  0  0  0  0  0  0  0  0
    2.9140   12.8840   -0.7080 C   0  0  0  0  0  0  0  0  0  0  0  0
    2.4980   11.6890   -1.5000 C   0  0  0  0  0  0  0  0  0  0  0  0
    1.2330   11.2550   -1.6540 C   0  0  0  0  0  0  0  0  0  0  0  0
    0.0720   11.9320   -0.9160 C   0  0  1  0  0  0  0  0  0  0  0  0
   -0.8380   10.8500   -0.2780 C   0  0  0  0  0  0  0  0  0  0  0  0
   -1.3160    9.8150   -1.2920 C   0  0  0  0  0  0  0  0  0  0  0  0
   -0.1330    9.1220   -1.9630 C   0  0  2  0  0  0  0  0  0  0  0  0
    0.5570    8.3380   -0.9860 O   0  0  0  0  0  0  0  0  0  0  0  0
    0.8590   10.1140   -2.6330 C   0  0  0  0  0  0  0  0  0  0  0  0
    0.1990   10.7450   -3.8840 C   0  0  0  0  0  0  0  0  0  0  0  0
    2.0750    9.2980   -3.1480 C   0  0  0  0  0  0  0  0  0  0  0  0
    0.4770   13.0730    0.1140 C   0  0  1  0  0  0  0  0  0  0  0  0
    0.7910   12.4460    1.5070 C   0  0  0  0  0  0  0  0  0  0  0  0
   -0.7520   14.0340    0.3270 C   0  0  0  0  0  0  0  0  0  0  0  0
   -0.8900   15.2140   -0.6550 C   0  0  0  0  0  0  0  0  0  0  0  0
    0.4330   15.9750   -0.7860 C   0  0  2  0  0  0  0  0  0  0  0  0
    0.7800   16.5770    0.6180 C   0  0  0  0  0  0  0  0  0  0  0  0
    1.0002   20.2181   -1.1976 H   0  0  0  0  0  0  0  0  0  0  0  0
    1.4191   19.2319   -2.6393 H   0  0  0  0  0  0  0  0  0  0  0  0
   -0.0712   20.2347   -2.6393 H   0  0  0  0  0  0  0  0  0  0  0  0
   -1.2099   18.4748   -1.8780 H   0  0  0  0  0  0  0  0  0  0  0  0
   -1.4124   18.6722    0.3223 H   0  0  0  0  0  0  0  0  0  0  0  0
    0.0525   17.5930    0.5037 H   0  0  0  0  0  0  0  0  0  0  0  0
    0.8863   20.2863   -0.0899 H   0  0  0  0  0  0  0  0  0  0  0  0
   -0.2414   20.2722    1.3301 H   0  0  0  0  0  0  0  0  0  0  0  0
    0.9394   18.3045    1.8959 H   0  0  0  0  0  0  0  0  0  0  0  0
    4.0737   20.8720    0.2560 H   0  0  0  0  0  0  0  0  0  0  0  0
    4.0847   19.2847   -0.5848 H   0  0  0  0  0  0  0  0  0  0  0  0
    2.5966   20.2908   -0.5848 H   0  0  0  0  0  0  0  0  0  0  0  0
    3.9098   18.4654    3.0055 H   0  0  0  0  0  0  0  0  0  0  0  0
    3.7768   17.3501    1.6037 H   0  0  0  0  0  0  0  0  0  0  0  0
    5.0180   18.6486    1.6037 H   0  0  0  0  0  0  0  0  0  0  0  0
   -0.1272   16.8540   -2.7066 H   0  0  0  0  0  0  0  0  0  0  0  0
    2.1737   17.4203   -3.1749 H   0  0  0  0  0  0  0  0  0  0  0  0
    2.3952   18.1690   -1.5790 H   0  0  0  0  0  0  0  0  0  0  0  0
    3.3753   15.6004   -2.3592 H   0  0  0  0  0  0  0  0  0  0  0  0
    3.2747   16.1536   -0.6896 H   0  0  0  0  0  0  0  0  0  0  0  0
    0.6346   13.4819   -2.6798 H   0  0  0  0  0  0  0  0  0  0  0  0
    0.5691   15.1532   -3.3349 H   0  0  0  0  0  0  0  0  0  0  0  0
    2.1211   14.2487   -3.3349 H   0  0  0  0  0  0  0  0  0  0  0  0
    2.1372   14.4082    0.5444 H   0  0  0  0  0  0  0  0  0  0  0  0
    3.6564   13.4412   -1.2982 H   0  0  0  0  0  0  0  0  0  0  0  0
    3.3080   12.4965    0.2431 H   0  0  0  0  0  0  0  0  0  0  0  0
    3.2919   11.1147   -1.9999 H   0  0  0  0  0  0  0  0  0  0  0  0
   -0.4902   12.4890   -1.6800 H   0  0  0  0  0  0  0  0  0  0  0  0
   -0.2721   10.3345    0.5119 H   0  0  0  0  0  0  0  0  0  0  0  0
   -1.7268   11.3571    0.1256 H   0  0  0  0  0  0  0  0  0  0  0  0
   -1.9290    9.0616   -0.7757 H   0  0  0  0  0  0  0  0  0  0  0  0
   -1.9072   10.3278   -2.0650 H   0  0  0  0  0  0  0  0  0  0  0  0
   -0.5350    8.4892   -2.7679 H   0  0  0  0  0  0  0  0  0  0  0  0
    0.0640    7.5080   -0.8720 H   0  0  0  0  0  0  0  0  0  0  0  0
   -0.5627   11.4733   -3.5687 H   0  0  0  0  0  0  0  0  0  0  0  0
    0.9662   11.2541   -4.4859 H   0  0  0  0  0  0  0  0  0  0  0  0
   -0.2752    9.9558   -4.4859 H   0  0  0  0  0  0  0  0  0  0  0  0
    2.6479    8.9135   -2.2913 H   0  0  0  0  0  0  0  0  0  0  0  0
    1.7189    8.4553   -3.7588 H   0  0  0  0  0  0  0  0  0  0  0  0
    2.7198    9.9469   -3.7588 H   0  0  0  0  0  0  0  0  0  0  0  0
    0.4500   13.1269    2.3008 H   0  0  0  0  0  0  0  0  0  0  0  0
    0.2692   11.4823    1.6014 H   0  0  0  0  0  0  0  0  0  0  0  0
    1.8753   12.2866    1.6014 H   0  0  0  0  0  0  0  0  0  0  0  0
   -1.6662   13.4273    0.2488 H   0  0  0  0  0  0  0  0  0  0  0  0
   -0.5884   14.4965    1.3115 H   0  0  0  0  0  0  0  0  0  0  0  0
   -1.1826   14.8281   -1.6426 H   0  0  0  0  0  0  0  0  0  0  0  0
   -1.6551   15.9039   -0.2695 H   0  0  0  0  0  0  0  0  0  0  0  0
    0.3970   15.9126    1.4066 H   0  0  0  0  0  0  0  0  0  0  0  0
    1.8714   16.6720    0.7166 H   0  0  0  0  0  0  0  0  0  0  0  0
    0.3152   17.5691    0.7166 H   0  0  0  0  0  0  0  0  0  0  0  0
  1  2  1  0
  2  3  1  0
  3  4  1  0
  4  5  1  0
  5  6  1  0
  6  7  1  0
  7  8  1  0
  7  9  1  0
  2 10  1  0
 10 11  1  0
 11 12  1  0
 12 13  1  0
 13 14  1  6
 13 15  1  0
 15 16  1  0
 16 17  1  0
 17 18  2  0
 18 19  1  0
 19 20  1  0
 20 21  1  0
 21 22  1  0
 22 23  1  0
 22 24  1  0
 24 25  1  0
 24 26  1  0
 19 27  1  0
 27 28  1  1
 27 29  1  0
 29 30  1  0
 30 31  1  0
 31 32  1  1
  7  5  1  0
 31 10  1  0
 31 13  1  0
 27 15  1  0
 24 18  1  0
  1 33  1  0
  1 34  1  0
  1 35  1  0
  2 36  1  6
  3 37  1  0
  3 38  1  0
  4 39  1  0
  4 40  1  0
  5 41  1  1
  8 42  1  0
  8 43  1  0
  8 44  1  0
  9 45  1  0
  9 46  1  0
  9 47  1  0
 10 48  1  6
 11 49  1  0
 11 50  1  0
 12 51  1  0
 12 52  1  0
 14 53  1  0
 14 54  1  0
 14 55  1  0
 15 56  1  1
 16 57  1  0
 16 58  1  0
 17 59  1  0
 19 60  1  6
 20 61  1  0
 20 62  1  0
 21 63  1  0
 21 64  1  0
 22 65  1  6
 23 66  1  0
 25 67  1  0
 25 68  1  0
 25 69  1  0
 26 70  1  0
 26 71  1  0
 26 72  1  0
 28 73  1  0
 28 74  1  0
 28 75  1  0
 29 76  1  0
 29 77  1  0
 30 78  1  0
 30 79  1  0
 32 80  1  0
 32 81  1  0
 32 82  1  0
M  END
>  <meeko>  (16) 
{"is_sidechain": [false], "intermolecular_energy": 2.731, "internal_energy": -0.839}

$$$$
EPH_relaxed_0001_pdb2pqr_Repair_26_r2_0001_out
     RDKit          3D

 82 86  0  0  0  0  0  0  0  0999 V2000
   -2.5400    7.7560    0.0340 C   0  0  0  0  0  0  0  0  0  0  0  0
   -3.2350    9.1180   -0.0550 C   0  0  2  0  0  0  0  0  0  0  0  0
   -4.6950    8.9950   -0.5370 C   0  0  0  0  0  0  0  0  0  0  0  0
   -5.1910    7.5500   -0.6350 C   0  0  0  0  0  0  0  0  0  0  0  0
   -5.9870    7.3210   -1.8840 C   0  0  2  0  0  0  0  0  0  0  0  0
   -6.8550    8.4030   -2.2470 O   0  0  0  0  0  0  0  0  0  0  0  0
   -7.4970    7.1670   -1.8960 C   0  0  0  0  0  0  0  0  0  0  0  0
   -8.2990    7.2340   -0.6350 C   0  0  0  0  0  0  0  0  0  0  0  0
   -8.1350    6.4680   -3.0570 C   0  0  0  0  0  0  0  0  0  0  0  0
   -2.4550   10.0400   -0.9850 C   0  0  1  0  0  0  0  0  0  0  0  0
   -3.0950   11.4490   -1.1040 C   0  0  0  0  0  0  0  0  0  0  0  0
   -1.9280   12.4590   -1.2510 C   0  0  0  0  0  0  0  0  0  0  0  0
   -0.6880   11.5830   -1.5440 C   0  0  1  0  0  0  0  0  0  0  0  0
   -0.7730   11.2660   -3.0700 C   0  0  0  0  0  0  0  0  0  0  0  0
    0.6980   12.1950   -1.1580 C   0  0  2  0  0  0  0  0  0  0  0  0
    1.0730   13.4850   -1.9080 C   0  0  0  0  0  0  0  0  0  0  0  0
    1.8300   13.2870   -3.1790 C   0  0  0  0  0  0  0  0  0  0  0  0
    2.4420   12.1480   -3.5550 C   0  0  0  0  0  0  0  0  0  0  0  0
    2.4900   10.9330   -2.6200 C   0  0  1  0  0  0  0  0  0  0  0  0
    3.9310   10.3600   -2.5890 C   0  0  0  0  0  0  0  0  0  0  0  0
    4.4650   10.0440   -3.9830 C   0  0  0  0  0  0  0  0  0  0  0  0
    4.4560   11.2900   -4.8650 C   0  0  2  0  0  0  0  0  0  0  0  0
    5.4040   12.2290   -4.3480 O   0  0  0  0  0  0  0  0  0  0  0  0
    3.0570   11.9610   -4.9640 C   0  0  0  0  0  0  0  0  0  0  0  0
    2.1060   11.0630   -5.7940 C   0  0  0  0  0  0  0  0  0  0  0  0
    3.2160   13.2810   -5.7650 C   0  0  0  0  0  0  0  0  0  0  0  0
    1.8900   11.1550   -1.1650 C   0  0  1  0  0  0  0  0  0  0  0  0
    2.9880   11.7300   -0.2180 C   0  0  0  0  0  0  0  0  0  0  0  0
    1.4720    9.7610   -0.5640 C   0  0  0  0  0  0  0  0  0  0  0  0
    0.0480    9.2660   -0.8820 C   0  0  0  0  0  0  0  0  0  0  0  0
   -0.9880   10.3590   -0.6040 C   0  0  2  0  0  0  0  0  0  0  0  0
   -0.9410   10.6830    0.9280 C   0  0  0  0  0  0  0  0  0  0  0  0
   -2.4010    7.4836    1.0906 H   0  0  0  0  0  0  0  0  0  0  0  0
   -3.1599    6.9949   -0.4624 H   0  0  0  0  0  0  0  0  0  0  0  0
   -1.5599    7.8113   -0.4624 H   0  0  0  0  0  0  0  0  0  0  0  0
   -3.2572    9.5449    0.9586 H   0  0  0  0  0  0  0  0  0  0  0  0
   -5.3408    9.5367    0.1697 H   0  0  0  0  0  0  0  0  0  0  0  0
   -4.7354    9.4182   -1.5515 H   0  0  0  0  0  0  0  0  0  0  0  0
   -4.3229    6.8744   -0.6366 H   0  0  0  0  0  0  0  0  0  0  0  0
   -5.8430    7.3518    0.2285 H   0  0  0  0  0  0  0  0  0  0  0  0
   -5.1794    6.7121   -2.3164 H   0  0  0  0  0  0  0  0  0  0  0  0
   -7.6244    7.1776    0.2320 H   0  0  0  0  0  0  0  0  0  0  0  0
   -8.8564    8.1818   -0.6049 H   0  0  0  0  0  0  0  0  0  0  0  0
   -9.0059    6.3918   -0.6049 H   0  0  0  0  0  0  0  0  0  0  0  0
   -8.8331    5.7032   -2.6859 H   0  0  0  0  0  0  0  0  0  0  0  0
   -8.6836    7.1992   -3.6688 H   0  0  0  0  0  0  0  0  0  0  0  0
   -7.3569    5.9883   -3.6688 H   0  0  0  0  0  0  0  0  0  0  0  0
   -2.4823    9.4388   -1.9058 H   0  0  0  0  0  0  0  0  0  0  0  0
   -3.7491   11.4946   -1.9872 H   0  0  0  0  0  0  0  0  0  0  0  0
   -3.7086   11.6801   -0.2208 H   0  0  0  0  0  0  0  0  0  0  0  0
   -2.1180   13.1535   -2.0826 H   0  0  0  0  0  0  0  0  0  0  0  0
   -1.7974   13.0791   -0.3519 H   0  0  0  0  0  0  0  0  0  0  0  0
   -1.0556   10.2122   -3.2104 H   0  0  0  0  0  0  0  0  0  0  0  0
   -1.5292   11.9138   -3.5375 H   0  0  0  0  0  0  0  0  0  0  0  0
    0.2058   11.4486   -3.5375 H   0  0  0  0  0  0  0  0  0  0  0  0
    0.5410   12.4932   -0.1109 H   0  0  0  0  0  0  0  0  0  0  0  0
    0.1430   14.0219   -2.1465 H   0  0  0  0  0  0  0  0  0  0  0  0
    1.7443   14.0421   -1.2379 H   0  0  0  0  0  0  0  0  0  0  0  0
    1.8933   14.1435   -3.8663 H   0  0  0  0  0  0  0  0  0  0  0  0
    1.8026   10.1900   -3.0505 H   0  0  0  0  0  0  0  0  0  0  0  0
    4.5944   11.0993   -2.1165 H   0  0  0  0  0  0  0  0  0  0  0  0
    3.9039    9.4187   -2.0205 H   0  0  0  0  0  0  0  0  0  0  0  0
    5.4962    9.6706   -3.8976 H   0  0  0  0  0  0  0  0  0  0  0  0
    3.8177    9.2829   -4.4432 H   0  0  0  0  0  0  0  0  0  0  0  0
    4.7253   10.9740   -5.8836 H   0  0  0  0  0  0  0  0  0  0  0  0
    5.4920   12.0620   -3.3940 H   0  0  0  0  0  0  0  0  0  0  0  0
    1.4769   10.4690   -5.1148 H   0  0  0  0  0  0  0  0  0  0  0  0
    1.4663   11.6942   -6.4283 H   0  0  0  0  0  0  0  0  0  0  0  0
    2.6995   10.3882   -6.4283 H   0  0  0  0  0  0  0  0  0  0  0  0
    3.3176   14.1242   -5.0659 H   0  0  0  0  0  0  0  0  0  0  0  0
    4.1133   13.2197   -6.3984 H   0  0  0  0  0  0  0  0  0  0  0  0
    2.3299   13.4346   -6.3984 H   0  0  0  0  0  0  0  0  0  0  0  0
    2.6883   11.5731    0.8287 H   0  0  0  0  0  0  0  0  0  0  0  0
    3.9417   11.2156   -0.4074 H   0  0  0  0  0  0  0  0  0  0  0  0
    3.1083   12.8069   -0.4074 H   0  0  0  0  0  0  0  0  0  0  0  0
    2.1785    9.0090   -0.9451 H   0  0  0  0  0  0  0  0  0  0  0  0
    1.4912    9.9006    0.5269 H   0  0  0  0  0  0  0  0  0  0  0  0
   -0.0053    8.9815   -1.9432 H   0  0  0  0  0  0  0  0  0  0  0  0
   -0.1740    8.4012   -0.2394 H   0  0  0  0  0  0  0  0  0  0  0  0
   -1.0756    9.7551    1.5033 H   0  0  0  0  0  0  0  0  0  0  0  0
    0.0316   11.1317    1.1782 H   0  0  0  0  0  0  0  0  0  0  0  0
   -1.7460   11.3896    1.1782 H   0  0  0  0  0  0  0  0  0  0  0  0
  1  2  1  0
  2  3  1  0
  3  4  1  0
  4  5  1  0
  5  6  1  0
  6  7  1  0
  7  8  1  0
  7  9  1  0
  2 10  1  0
 10 11  1  0
 11 12  1  0
 12 13  1  0
 13 14  1  6
 13 15  1  0
 15 16  1  0
 16 17  1  0
 17 18  2  0
 18 19  1  0
 19 20  1  0
 20 21  1  0
 21 22  1  0
 22 23  1  0
 22 24  1  0
 24 25  1  0
 24 26  1  0
 19 27  1  0
 27 28  1  1
 27 29  1  0
 29 30  1  0
 30 31  1  0
 31 32  1  1
  7  5  1  0
 31 10  1  0
 31 13  1  0
 27 15  1  0
 24 18  1  0
  1 33  1  0
  1 34  1  0
  1 35  1  0
  2 36  1  1
  3 37  1  0
  3 38  1  0
  4 39  1  0
  4 40  1  0
  5 41  1  6
  8 42  1  0
  8 43  1  0
  8 44  1  0
  9 45  1  0
  9 46  1  0
  9 47  1  0
 10 48  1  6
 11 49  1  0
 11 50  1  0
 12 51  1  0
 12 52  1  0
 14 53  1  0
 14 54  1  0
 14 55  1  0
 15 56  1  1
 16 57  1  0
 16 58  1  0
 17 59  1  0
 19 60  1  6
 20 61  1  0
 20 62  1  0
 21 63  1  0
 21 64  1  0
 22 65  1  6
 23 66  1  0
 25 67  1  0
 25 68  1  0
 25 69  1  0
 26 70  1  0
 26 71  1  0
 26 72  1  0
 28 73  1  0
 28 74  1  0
 28 75  1  0
 29 76  1  0
 29 77  1  0
 30 78  1  0
 30 79  1  0
 32 80  1  0
 32 81  1  0
 32 82  1  0
M  END
>  <meeko>  (17) 
{"is_sidechain": [false], "intermolecular_energy": 2.731, "internal_energy": -0.839}

$$$$
EPH_relaxed_0001_pdb2pqr_Repair_26_r2_0001_out
     RDKit          3D

 82 86  0  0  0  0  0  0  0  0999 V2000
    0.9020   14.7830   -2.6860 C   0  0  0  0  0  0  0  0  0  0  0  0
    1.1810   14.0920   -4.0240 C   0  0  2  0  0  0  0  0  0  0  0  0
    0.5090   14.8210   -5.2050 C   0  0  0  0  0  0  0  0  0  0  0  0
    1.1900   14.5660   -6.5520 C   0  0  0  0  0  0  0  0  0  0  0  0
    0.8780   15.6460   -7.5440 C   0  0  2  0  0  0  0  0  0  0  0  0
    0.4060   15.1760   -8.8130 O   0  0  0  0  0  0  0  0  0  0  0  0
    1.6680   15.8630   -8.8210 C   0  0  0  0  0  0  0  0  0  0  0  0
    2.8330   14.9930   -9.1750 C   0  0  0  0  0  0  0  0  0  0  0  0
    1.6170   17.2090   -9.4740 C   0  0  0  0  0  0  0  0  0  0  0  0
    0.7100   12.6440   -3.9690 C   0  0  1  0  0  0  0  0  0  0  0  0
    1.8260   11.6380   -4.3570 C   0  0  0  0  0  0  0  0  0  0  0  0
    1.6130   10.3750   -3.4840 C   0  0  0  0  0  0  0  0  0  0  0  0
    0.2050   10.5580   -2.8700 C   0  0  1  0  0  0  0  0  0  0  0  0
   -0.7830   10.1040   -3.9900 C   0  0  0  0  0  0  0  0  0  0  0  0
   -0.0650    9.8090   -1.5250 C   0  0  2  0  0  0  0  0  0  0  0  0
    0.0170    8.2740   -1.6040 C   0  0  0  0  0  0  0  0  0  0  0  0
   -1.2670    7.5820   -1.9210 C   0  0  0  0  0  0  0  0  0  0  0  0
   -2.4920    8.1370   -1.8550 C   0  0  0  0  0  0  0  0  0  0  0  0
   -2.6810    9.5660   -1.3320 C   0  0  1  0  0  0  0  0  0  0  0  0
   -3.8560    9.5950   -0.3190 C   0  0  0  0  0  0  0  0  0  0  0  0
   -5.1410    9.0100   -0.8970 C   0  0  0  0  0  0  0  0  0  0  0  0
   -4.9270    7.5690   -1.3520 C   0  0  2  0  0  0  0  0  0  0  0  0
   -4.6750    6.7550   -0.2030 O   0  0  0  0  0  0  0  0  0  0  0  0
   -3.7610    7.4140   -2.3680 C   0  0  0  0  0  0  0  0  0  0  0  0
   -4.1650    8.0440   -3.7240 C   0  0  0  0  0  0  0  0  0  0  0  0
   -3.5600    5.8980   -2.6370 C   0  0  0  0  0  0  0  0  0  0  0  0
   -1.3760   10.2790   -0.7730 C   0  0  1  0  0  0  0  0  0  0  0  0
   -1.1780    9.9220    0.7320 C   0  0  0  0  0  0  0  0  0  0  0  0
   -1.5750   11.8400   -0.8360 C   0  0  0  0  0  0  0  0  0  0  0  0
   -1.1780   12.5380   -2.1510 C   0  0  0  0  0  0  0  0  0  0  0  0
    0.2220   12.1060   -2.6000 C   0  0  2  0  0  0  0  0  0  0  0  0
    1.2400   12.5690   -1.5030 C   0  0  0  0  0  0  0  0  0  0  0  0
    1.1744   14.1083   -1.8610 H   0  0  0  0  0  0  0  0  0  0  0  0
    1.4984   15.7048   -2.6180 H   0  0  0  0  0  0  0  0  0  0  0  0
   -0.1672   15.0322   -2.6180 H   0  0  0  0  0  0  0  0  0  0  0  0
    2.2676   14.1229   -4.1926 H   0  0  0  0  0  0  0  0  0  0  0  0
   -0.5352   14.4819   -5.2738 H   0  0  0  0  0  0  0  0  0  0  0  0
    0.5871   15.8996   -5.0039 H   0  0  0  0  0  0  0  0  0  0  0  0
    2.2786   14.5259   -6.3992 H   0  0  0  0  0  0  0  0  0  0  0  0
    0.8129   13.6133   -6.9521 H   0  0  0  0  0  0  0  0  0  0  0  0
    0.5758   16.3308   -6.7380 H   0  0  0  0  0  0  0  0  0  0  0  0
    3.3150   14.6330   -8.2541 H   0  0  0  0  0  0  0  0  0  0  0  0
    2.4828   14.1336   -9.7656 H   0  0  0  0  0  0  0  0  0  0  0  0
    3.5576   15.5729   -9.7656 H   0  0  0  0  0  0  0  0  0  0  0  0
    1.5874   17.9908   -8.7007 H   0  0  0  0  0  0  0  0  0  0  0  0
    2.5106   17.3467  -10.1006 H   0  0  0  0  0  0  0  0  0  0  0  0
    0.7156   17.2787  -10.1006 H   0  0  0  0  0  0  0  0  0  0  0  0
   -0.1325   12.6973   -4.6743 H   0  0  0  0  0  0  0  0  0  0  0  0
    1.7485   11.3789   -5.4232 H   0  0  0  0  0  0  0  0  0  0  0  0
    2.8234   12.0705   -4.1891 H   0  0  0  0  0  0  0  0  0  0  0  0
    1.6523    9.4652   -4.1011 H   0  0  0  0  0  0  0  0  0  0  0  0
    2.3919   10.2629   -2.7154 H   0  0  0  0  0  0  0  0  0  0  0  0
   -1.6912    9.6867   -3.5307 H   0  0  0  0  0  0  0  0  0  0  0  0
   -1.0520   10.9688   -4.6143 H   0  0  0  0  0  0  0  0  0  0  0  0
   -0.3020    9.3366   -4.6143 H   0  0  0  0  0  0  0  0  0  0  0  0
    0.7886   10.1224   -0.9060 H   0  0  0  0  0  0  0  0  0  0  0  0
    0.7459    8.0124   -2.3852 H   0  0  0  0  0  0  0  0  0  0  0  0
    0.3063    7.9328   -0.5991 H   0  0  0  0  0  0  0  0  0  0  0  0
   -1.2074    6.5295   -2.2351 H   0  0  0  0  0  0  0  0  0  0  0  0
   -2.9290   10.1805   -2.2100 H   0  0  0  0  0  0  0  0  0  0  0  0
   -3.5708    9.0113    0.5687 H   0  0  0  0  0  0  0  0  0  0  0  0
   -4.0525   10.6472   -0.0655 H   0  0  0  0  0  0  0  0  0  0  0  0
   -5.9252    9.0315   -0.1259 H   0  0  0  0  0  0  0  0  0  0  0  0
   -5.4411    9.6124   -1.7671 H   0  0  0  0  0  0  0  0  0  0  0  0
   -5.8414    7.2486   -1.8727 H   0  0  0  0  0  0  0  0  0  0  0  0
   -4.5870    7.3470    0.5630 H   0  0  0  0  0  0  0  0  0  0  0  0
   -4.7508    8.9575   -3.5439 H   0  0  0  0  0  0  0  0  0  0  0  0
   -3.2595    8.2958   -4.2956 H   0  0  0  0  0  0  0  0  0  0  0  0
   -4.7716    7.3262   -4.2956 H   0  0  0  0  0  0  0  0  0  0  0  0
   -3.4889    5.3619   -1.6791 H   0  0  0  0  0  0  0  0  0  0  0  0
   -4.4147    5.5110   -3.2112 H   0  0  0  0  0  0  0  0  0  0  0  0
   -2.6340    5.7471   -3.2112 H   0  0  0  0  0  0  0  0  0  0  0  0
   -1.6169   10.7134    1.3574 H   0  0  0  0  0  0  0  0  0  0  0  0
   -1.6741    8.9648    0.9501 H   0  0  0  0  0  0  0  0  0  0  0  0
   -0.1033    9.8360    0.9501 H   0  0  0  0  0  0  0  0  0  0  0  0
   -2.6405   12.0472   -0.6577 H   0  0  0  0  0  0  0  0  0  0  0  0
   -0.8927   12.2482   -0.0758 H   0  0  0  0  0  0  0  0  0  0  0  0
   -1.9046   12.2725   -2.9330 H   0  0  0  0  0  0  0  0  0  0  0  0
   -1.1728   13.6252   -1.9835 H   0  0  0  0  0  0  0  0  0  0  0  0
    0.8172   12.3767   -0.5059 H   0  0  0  0  0  0  0  0  0  0  0  0
    2.1806   12.0101   -1.6164 H   0  0  0  0  0  0  0  0  0  0  0  0
    1.4370   13.6453   -1.6164 H   0  0  0  0  0  0  0  0  0  0  0  0
  1  2  1  0
  2  3  1  0
  3  4  1  0
  4  5  1  0
  5  6  1  0
  6  7  1  0
  7  8  1  0
  7  9  1  0
  2 10  1  0
 10 11  1  0
 11 12  1  0
 12 13  1  0
 13 14  1  6
 13 15  1  0
 15 16  1  0
 16 17  1  0
 17 18  2  0
 18 19  1  0
 19 20  1  0
 20 21  1  0
 21 22  1  0
 22 23  1  0
 22 24  1  0
 24 25  1  0
 24 26  1  0
 19 27  1  0
 27 28  1  1
 27 29  1  0
 29 30  1  0
 30 31  1  0
 31 32  1  1
  7  5  1  0
 31 10  1  0
 31 13  1  0
 27 15  1  0
 24 18  1  0
  1 33  1  0
  1 34  1  0
  1 35  1  0
  2 36  1  6
  3 37  1  0
  3 38  1  0
  4 39  1  0
  4 40  1  0
  5 41  1  1
  8 42  1  0
  8 43  1  0
  8 44  1  0
  9 45  1  0
  9 46  1  0
  9 47  1  0
 10 48  1  6
 11 49  1  0
 11 50  1  0
 12 51  1  0
 12 52  1  0
 14 53  1  0
 14 54  1  0
 14 55  1  0
 15 56  1  1
 16 57  1  0
 16 58  1  0
 17 59  1  0
 19 60  1  6
 20 61  1  0
 20 62  1  0
 21 63  1  0
 21 64  1  0
 22 65  1  6
 23 66  1  0
 25 67  1  0
 25 68  1  0
 25 69  1  0
 26 70  1  0
 26 71  1  0
 26 72  1  0
 28 73  1  0
 28 74  1  0
 28 75  1  0
 29 76  1  0
 29 77  1  0
 30 78  1  0
 30 79  1  0
 32 80  1  0
 32 81  1  0
 32 82  1  0
M  END
>  <meeko>  (18) 
{"is_sidechain": [false], "intermolecular_energy": 2.731, "internal_energy": -0.839}

$$$$
EPH_relaxed_0001_pdb2pqr_Repair_26_r2_0001_out
     RDKit          3D

 82 86  0  0  0  0  0  0  0  0999 V2000
    1.9400   16.1510   -0.8120 C   0  0  0  0  0  0  0  0  0  0  0  0
    1.8200   15.9380   -2.3240 C   0  0  2  0  0  0  0  0  0  0  0  0
    1.2330   17.1710   -3.0390 C   0  0  0  0  0  0  0  0  0  0  0  0
    1.1850   18.4260   -2.1640 C   0  0  0  0  0  0  0  0  0  0  0  0
   -0.2240   18.8200   -1.8370 C   0  0  2  0  0  0  0  0  0  0  0  0
   -0.3900   20.1940   -1.4650 O   0  0  0  0  0  0  0  0  0  0  0  0
   -0.6790   19.2230   -0.4470 C   0  0  0  0  0  0  0  0  0  0  0  0
    0.2730   19.2510    0.7080 C   0  0  0  0  0  0  0  0  0  0  0  0
   -2.1340   19.1160   -0.1110 C   0  0  0  0  0  0  0  0  0  0  0  0
    0.9600   14.7120   -2.6090 C   0  0  1  0  0  0  0  0  0  0  0  0
    1.1880   14.1400   -4.0330 C   0  0  0  0  0  0  0  0  0  0  0  0
    1.0470   12.6000   -3.9250 C   0  0  0  0  0  0  0  0  0  0  0  0
    0.4210   12.3630   -2.5310 C   0  0  1  0  0  0  0  0  0  0  0  0
   -1.1070   12.6150   -2.7290 C   0  0  0  0  0  0  0  0  0  0  0  0
    0.6960   10.9690   -1.8780 C   0  0  2  0  0  0  0  0  0  0  0  0
    0.1370    9.7640   -2.6530 C   0  0  0  0  0  0  0  0  0  0  0  0
   -1.2490    9.3520   -2.2800 C   0  0  0  0  0  0  0  0  0  0  0  0
   -1.9070    9.7380   -1.1710 C   0  0  0  0  0  0  0  0  0  0  0  0
   -1.2180   10.5990   -0.1050 C   0  0  1  0  0  0  0  0  0  0  0  0
   -1.5060   10.0120    1.3010 C   0  0  0  0  0  0  0  0  0  0  0  0
   -2.9980    9.8360    1.5680 C   0  0  0  0  0  0  0  0  0  0  0  0
   -3.6360    8.9270    0.5210 C   0  0  2  0  0  0  0  0  0  0  0  0
   -3.1100    7.6050    0.6770 O   0  0  0  0  0  0  0  0  0  0  0  0
   -3.4030    9.4130   -0.9370 C   0  0  0  0  0  0  0  0  0  0  0  0
   -4.2260   10.7010   -1.1930 C   0  0  0  0  0  0  0  0  0  0  0  0
   -3.9740    8.3350   -1.8970 C   0  0  0  0  0  0  0  0  0  0  0  0
    0.3270   10.8890   -0.3410 C   0  0  1  0  0  0  0  0  0  0  0  0
    1.1830    9.7350    0.2630 C   0  0  0  0  0  0  0  0  0  0  0  0
    0.7290   12.1960    0.4400 C   0  0  0  0  0  0  0  0  0  0  0  0
    0.5460   13.5330   -0.3030 C   0  0  0  0  0  0  0  0  0  0  0  0
    1.1660   13.4720   -1.7030 C   0  0  2  0  0  0  0  0  0  0  0  0
    2.7060   13.2420   -1.5340 C   0  0  0  0  0  0  0  0  0  0  0  0
    1.4662   15.3100   -0.2845 H   0  0  0  0  0  0  0  0  0  0  0  0
    3.0025   16.2071   -0.5328 H   0  0  0  0  0  0  0  0  0  0  0  0
    1.4375   17.0888   -0.5328 H   0  0  0  0  0  0  0  0  0  0  0  0
    2.8349   15.7802   -2.7179 H   0  0  0  0  0  0  0  0  0  0  0  0
    1.8518   17.3872   -3.9224 H   0  0  0  0  0  0  0  0  0  0  0  0
    0.1942   16.9243   -3.3037 H   0  0  0  0  0  0  0  0  0  0  0  0
    1.7265   18.2284   -1.2271 H   0  0  0  0  0  0  0  0  0  0  0  0
    1.6513   19.2513   -2.7221 H   0  0  0  0  0  0  0  0  0  0  0  0
   -0.6203   18.0929   -2.5611 H   0  0  0  0  0  0  0  0  0  0  0  0
   -0.2936   19.2343    1.6507 H   0  0  0  0  0  0  0  0  0  0  0  0
    0.9325   18.3719    0.6610 H   0  0  0  0  0  0  0  0  0  0  0  0
    0.8797   20.1674    0.6610 H   0  0  0  0  0  0  0  0  0  0  0  0
   -2.2582   19.1069    0.9819 H   0  0  0  0  0  0  0  0  0  0  0  0
   -2.6723   19.9770   -0.5340 H   0  0  0  0  0  0  0  0  0  0  0  0
   -2.5405   18.1855   -0.5340 H   0  0  0  0  0  0  0  0  0  0  0  0
   -0.0372   15.1429   -2.4363 H   0  0  0  0  0  0  0  0  0  0  0  0
    0.4352   14.5414   -4.7273 H   0  0  0  0  0  0  0  0  0  0  0  0
    2.1804   14.4195   -4.4164 H   0  0  0  0  0  0  0  0  0  0  0  0
    0.3888   12.2137   -4.7172 H   0  0  0  0  0  0  0  0  0  0  0  0
    2.0109   12.0833   -4.0430 H   0  0  0  0  0  0  0  0  0  0  0  0
   -1.5956   12.6956   -1.7468 H   0  0  0  0  0  0  0  0  0  0  0  0
   -1.2548   13.5497   -3.2899 H   0  0  0  0  0  0  0  0  0  0  0  0
   -1.5471   11.7773   -3.2899 H   0  0  0  0  0  0  0  0  0  0  0  0
    1.7907   10.8877   -1.9483 H   0  0  0  0  0  0  0  0  0  0  0  0
    0.1396   10.0176   -3.7234 H   0  0  0  0  0  0  0  0  0  0  0  0
    0.7857    8.9124   -2.4000 H   0  0  0  0  0  0  0  0  0  0  0  0
   -1.7765    8.6764   -2.9694 H   0  0  0  0  0  0  0  0  0  0  0  0
   -1.6638   11.6011   -0.1887 H   0  0  0  0  0  0  0  0  0  0  0  0
   -1.0155    9.0306    1.3805 H   0  0  0  0  0  0  0  0  0  0  0  0
   -1.1154   10.7217    2.0452 H   0  0  0  0  0  0  0  0  0  0  0  0
   -3.1353    9.3897    2.5640 H   0  0  0  0  0  0  0  0  0  0  0  0
   -3.4823   10.8224    1.5185 H   0  0  0  0  0  0  0  0  0  0  0  0
   -4.7232    8.9449    0.6872 H   0  0  0  0  0  0  0  0  0  0  0  0
   -3.5090    7.0470   -0.0120 H   0  0  0  0  0  0  0  0  0  0  0  0
   -4.5130   11.1501   -0.2307 H   0  0  0  0  0  0  0  0  0  0  0  0
   -3.6178   11.4172   -1.7650 H   0  0  0  0  0  0  0  0  0  0  0  0
   -5.1314   10.4500   -1.7650 H   0  0  0  0  0  0  0  0  0  0  0  0
   -4.4091    7.5136   -1.3088 H   0  0  0  0  0  0  0  0  0  0  0  0
   -4.7525    8.7842   -2.5313 H   0  0  0  0  0  0  0  0  0  0  0  0
   -3.1651    7.9434   -2.5313 H   0  0  0  0  0  0  0  0  0  0  0  0
    1.1449    9.7863    1.3611 H   0  0  0  0  0  0  0  0  0  0  0  0
    0.7827    8.7670   -0.0729 H   0  0  0  0  0  0  0  0  0  0  0  0
    2.2255    9.8372   -0.0729 H   0  0  0  0  0  0  0  0  0  0  0  0
    0.1198   12.2376    1.3549 H   0  0  0  0  0  0  0  0  0  0  0  0
    1.8120   12.1076    0.6110 H   0  0  0  0  0  0  0  0  0  0  0  0
   -0.5286   13.7496   -0.3945 H   0  0  0  0  0  0  0  0  0  0  0  0
    1.0510   14.3246    0.2700 H   0  0  0  0  0  0  0  0  0  0  0  0
    2.9558   13.2047   -0.4634 H   0  0  0  0  0  0  0  0  0  0  0  0
    2.9892   12.2916   -2.0100 H   0  0  0  0  0  0  0  0  0  0  0  0
    3.2545   14.0682   -2.0100 H   0  0  0  0  0  0  0  0  0  0  0  0
  1  2  1  0
  2  3  1  0
  3  4  1  0
  4  5  1  0
  5  6  1  0
  6  7  1  0
  7  8  1  0
  7  9  1  0
  2 10  1  0
 10 11  1  0
 11 12  1  0
 12 13  1  0
 13 14  1  6
 13 15  1  0
 15 16  1  0
 16 17  1  0
 17 18  2  0
 18 19  1  0
 19 20  1  0
 20 21  1  0
 21 22  1  0
 22 23  1  0
 22 24  1  0
 24 25  1  0
 24 26  1  0
 19 27  1  0
 27 28  1  1
 27 29  1  0
 29 30  1  0
 30 31  1  0
 31 32  1  1
  7  5  1  0
 31 10  1  0
 31 13  1  0
 27 15  1  0
 24 18  1  0
  1 33  1  0
  1 34  1  0
  1 35  1  0
  2 36  1  6
  3 37  1  0
  3 38  1  0
  4 39  1  0
  4 40  1  0
  5 41  1  6
  8 42  1  0
  8 43  1  0
  8 44  1  0
  9 45  1  0
  9 46  1  0
  9 47  1  0
 10 48  1  6
 11 49  1  0
 11 50  1  0
 12 51  1  0
 12 52  1  0
 14 53  1  0
 14 54  1  0
 14 55  1  0
 15 56  1  1
 16 57  1  0
 16 58  1  0
 17 59  1  0
 19 60  1  1
 20 61  1  0
 20 62  1  0
 21 63  1  0
 21 64  1  0
 22 65  1  1
 23 66  1  0
 25 67  1  0
 25 68  1  0
 25 69  1  0
 26 70  1  0
 26 71  1  0
 26 72  1  0
 28 73  1  0
 28 74  1  0
 28 75  1  0
 29 76  1  0
 29 77  1  0
 30 78  1  0
 30 79  1  0
 32 80  1  0
 32 81  1  0
 32 82  1  0
M  END
>  <meeko>  (19) 
{"is_sidechain": [false], "intermolecular_energy": 2.731, "internal_energy": -0.839}

$$$$
EPH_relaxed_0001_pdb2pqr_Repair_26_r2_0001_out
     RDKit          3D

 82 86  0  0  0  0  0  0  0  0999 V2000
    3.2930   11.2720   -4.2160 C   0  0  0  0  0  0  0  0  0  0  0  0
    2.1660   11.8130   -5.1000 C   0  0  2  0  0  0  0  0  0  0  0  0
    2.7050   12.5210   -6.3600 C   0  0  0  0  0  0  0  0  0  0  0  0
    2.0070   13.8490   -6.6650 C   0  0  0  0  0  0  0  0  0  0  0  0
    2.4360   14.4090   -7.9880 C   0  0  2  0  0  0  0  0  0  0  0  0
    2.5680   15.8360   -8.0190 O   0  0  0  0  0  0  0  0  0  0  0  0
    1.5450   15.2750   -8.8580 C   0  0  0  0  0  0  0  0  0  0  0  0
    0.1520   15.6300   -8.4400 C   0  0  0  0  0  0  0  0  0  0  0  0
    1.8470   15.3690  -10.3210 C   0  0  0  0  0  0  0  0  0  0  0  0
    1.2910   12.7700   -4.2990 C   0  0  1  0  0  0  0  0  0  0  0  0
   -0.1050   12.1730   -3.9750 C   0  0  0  0  0  0  0  0  0  0  0  0
   -0.5030   12.7030   -2.5730 C   0  0  0  0  0  0  0  0  0  0  0  0
    0.5080   13.8370   -2.2830 C   0  0  1  0  0  0  0  0  0  0  0  0
   -0.0500   15.0770   -3.0500 C   0  0  0  0  0  0  0  0  0  0  0  0
    0.7710   14.1600   -0.7760 C   0  0  2  0  0  0  0  0  0  0  0  0
   -0.4550   14.6600    0.0070 C   0  0  0  0  0  0  0  0  0  0  0  0
   -0.6470   16.1400    0.0140 C   0  0  0  0  0  0  0  0  0  0  0  0
    0.2790   17.0510   -0.3400 C   0  0  0  0  0  0  0  0  0  0  0  0
    1.7060   16.6220   -0.7060 C   0  0  1  0  0  0  0  0  0  0  0  0
    2.7250   17.5390    0.0200 C   0  0  0  0  0  0  0  0  0  0  0  0
    2.4740   19.0200   -0.2480 C   0  0  0  0  0  0  0  0  0  0  0  0
    1.0650   19.4210    0.1830 C   0  0  2  0  0  0  0  0  0  0  0  0
    0.9720   19.3180    1.6070 O   0  0  0  0  0  0  0  0  0  0  0  0
   -0.0470   18.5590   -0.4770 C   0  0  0  0  0  0  0  0  0  0  0  0
   -0.1430   18.8990   -1.9850 C   0  0  0  0  0  0  0  0  0  0  0  0
   -1.4060   18.9710    0.1490 C   0  0  0  0  0  0  0  0  0  0  0  0
    2.0350   15.0780   -0.5210 C   0  0  1  0  0  0  0  0  0  0  0  0
    2.4960   14.8040    0.9430 C   0  0  0  0  0  0  0  0  0  0  0  0
    3.2490   14.6970   -1.4480 C   0  0  0  0  0  0  0  0  0  0  0  0
    2.9150   14.2710   -2.8910 C   0  0  0  0  0  0  0  0  0  0  0  0
    1.8090   13.2120   -2.9080 C   0  0  2  0  0  0  0  0  0  0  0  0
    2.3490   11.9440   -2.1630 C   0  0  0  0  0  0  0  0  0  0  0  0
    3.0231   11.4016   -3.1575 H   0  0  0  0  0  0  0  0  0  0  0  0
    3.4441   10.2032   -4.4277 H   0  0  0  0  0  0  0  0  0  0  0  0
    4.2215   11.8226   -4.4277 H   0  0  0  0  0  0  0  0  0  0  0  0
    1.5668   10.9536   -5.4352 H   0  0  0  0  0  0  0  0  0  0  0  0
    3.7777   12.7174   -6.2161 H   0  0  0  0  0  0  0  0  0  0  0  0
    2.5116   11.8528   -7.2121 H   0  0  0  0  0  0  0  0  0  0  0  0
    0.9195   13.6844   -6.6831 H   0  0  0  0  0  0  0  0  0  0  0  0
    2.2831   14.5698   -5.8813 H   0  0  0  0  0  0  0  0  0  0  0  0
    3.0269   13.5070   -8.2052 H   0  0  0  0  0  0  0  0  0  0  0  0
    0.0914   15.6454   -7.3418 H   0  0  0  0  0  0  0  0  0  0  0  0
   -0.1077   16.6230   -8.8355 H   0  0  0  0  0  0  0  0  0  0  0  0
   -0.5513   14.8824   -8.8355 H   0  0  0  0  0  0  0  0  0  0  0  0
    2.8889   15.6933  -10.4602 H   0  0  0  0  0  0  0  0  0  0  0  0
    1.7040   14.3838  -10.7890 H   0  0  0  0  0  0  0  0  0  0  0  0
    1.1701   16.0990  -10.7890 H   0  0  0  0  0  0  0  0  0  0  0  0
    1.2800   13.6291   -4.9859 H   0  0  0  0  0  0  0  0  0  0  0  0
   -0.8399   12.4987   -4.7259 H   0  0  0  0  0  0  0  0  0  0  0  0
   -0.0775   11.0734   -3.9887 H   0  0  0  0  0  0  0  0  0  0  0  0
   -1.5315   13.0929   -2.5829 H   0  0  0  0  0  0  0  0  0  0  0  0
   -0.4769   11.9147   -1.8062 H   0  0  0  0  0  0  0  0  0  0  0  0
   -0.3901   15.8329   -2.3268 H   0  0  0  0  0  0  0  0  0  0  0  0
    0.7425   15.5045   -3.6818 H   0  0  0  0  0  0  0  0  0  0  0  0
   -0.8955   14.7673   -3.6818 H   0  0  0  0  0  0  0  0  0  0  0  0
    1.0073   13.1697   -0.3595 H   0  0  0  0  0  0  0  0  0  0  0  0
   -1.3515   14.2031   -0.4373 H   0  0  0  0  0  0  0  0  0  0  0  0
   -0.2858   14.3702    1.0546 H   0  0  0  0  0  0  0  0  0  0  0  0
   -1.6284   16.5187    0.3357 H   0  0  0  0  0  0  0  0  0  0  0  0
    1.7935   16.7551   -1.7944 H   0  0  0  0  0  0  0  0  0  0  0  0
    2.6520   17.3593    1.1028 H   0  0  0  0  0  0  0  0  0  0  0  0
    3.7264   17.2952   -0.3643 H   0  0  0  0  0  0  0  0  0  0  0  0
    3.2064   19.6170    0.3152 H   0  0  0  0  0  0  0  0  0  0  0  0
    2.5768   19.2040   -1.3276 H   0  0  0  0  0  0  0  0  0  0  0  0
    0.8996   20.4555   -0.1524 H   0  0  0  0  0  0  0  0  0  0  0  0
    0.0450   19.4730    1.8530 H   0  0  0  0  0  0  0  0  0  0  0  0
   -0.4401   19.9512   -2.1054 H   0  0  0  0  0  0  0  0  0  0  0  0
    0.8358   18.7377   -2.4603 H   0  0  0  0  0  0  0  0  0  0  0  0
   -0.8929   18.2496   -2.4603 H   0  0  0  0  0  0  0  0  0  0  0  0
   -1.3267   18.9470    1.2459 H   0  0  0  0  0  0  0  0  0  0  0  0
   -1.6667   19.9885   -0.1776 H   0  0  0  0  0  0  0  0  0  0  0  0
   -2.1878   18.2695   -0.1776 H   0  0  0  0  0  0  0  0  0  0  0  0
    1.7673   15.2371    1.6440 H   0  0  0  0  0  0  0  0  0  0  0  0
    2.5641   13.7187    1.1089 H   0  0  0  0  0  0  0  0  0  0  0  0
    3.4819   15.2629    1.1089 H   0  0  0  0  0  0  0  0  0  0  0  0
    3.9120   15.5729   -1.5047 H   0  0  0  0  0  0  0  0  0  0  0  0
    3.6986   13.8076   -0.9823 H   0  0  0  0  0  0  0  0  0  0  0  0
    2.5785   15.1518   -3.4574 H   0  0  0  0  0  0  0  0  0  0  0  0
    3.8188   13.8415   -3.3479 H   0  0  0  0  0  0  0  0  0  0  0  0
    2.2821   12.1010   -1.0763 H   0  0  0  0  0  0  0  0  0  0  0  0
    1.7457   11.0685   -2.4448 H   0  0  0  0  0  0  0  0  0  0  0  0
    3.3983   11.7723   -2.4448 H   0  0  0  0  0  0  0  0  0  0  0  0
  1  2  1  0
  2  3  1  0
  3  4  1  0
  4  5  1  0
  5  6  1  0
  6  7  1  0
  7  8  1  0
  7  9  1  0
  2 10  1  0
 10 11  1  0
 11 12  1  0
 12 13  1  0
 13 14  1  6
 13 15  1  0
 15 16  1  0
 16 17  1  0
 17 18  2  0
 18 19  1  0
 19 20  1  0
 20 21  1  0
 21 22  1  0
 22 23  1  0
 22 24  1  0
 24 25  1  0
 24 26  1  0
 19 27  1  0
 27 28  1  1
 27 29  1  0
 29 30  1  0
 30 31  1  0
 31 32  1  1
  7  5  1  0
 31 10  1  0
 31 13  1  0
 27 15  1  0
 24 18  1  0
  1 33  1  0
  1 34  1  0
  1 35  1  0
  2 36  1  6
  3 37  1  0
  3 38  1  0
  4 39  1  0
  4 40  1  0
  5 41  1  6
  8 42  1  0
  8 43  1  0
  8 44  1  0
  9 45  1  0
  9 46  1  0
  9 47  1  0
 10 48  1  6
 11 49  1  0
 11 50  1  0
 12 51  1  0
 12 52  1  0
 14 53  1  0
 14 54  1  0
 14 55  1  0
 15 56  1  1
 16 57  1  0
 16 58  1  0
 17 59  1  0
 19 60  1  6
 20 61  1  0
 20 62  1  0
 21 63  1  0
 21 64  1  0
 22 65  1  1
 23 66  1  0
 25 67  1  0
 25 68  1  0
 25 69  1  0
 26 70  1  0
 26 71  1  0
 26 72  1  0
 28 73  1  0
 28 74  1  0
 28 75  1  0
 29 76  1  0
 29 77  1  0
 30 78  1  0
 30 79  1  0
 32 80  1  0
 32 81  1  0
 32 82  1  0
M  END
>  <meeko>  (20) 
{"is_sidechain": [false], "intermolecular_energy": 2.731, "internal_energy": -0.839}

$$$$
