EPH_relaxed_0001_pdb2pqr_Repair_17_r2_0001_out
     RDKit          3D

 82 86  0  0  0  0  0  0  0  0999 V2000
   -1.5640    8.5390   -1.8610 C   0  0  0  0  0  0  0  0  0  0  0  0
   -1.9900    9.1300   -0.5140 C   0  0  2  0  0  0  0  0  0  0  0  0
   -3.4750    9.5420   -0.5050 C   0  0  0  0  0  0  0  0  0  0  0  0
   -4.4400    8.3640   -0.3480 C   0  0  0  0  0  0  0  0  0  0  0  0
   -5.0890    8.0020   -1.6500 C   0  0  2  0  0  0  0  0  0  0  0  0
   -6.3550    8.6320   -1.8830 O   0  0  0  0  0  0  0  0  0  0  0  0
   -6.3740    7.2020   -1.7500 C   0  0  0  0  0  0  0  0  0  0  0  0
   -7.0870    6.7140   -0.5270 C   0  0  0  0  0  0  0  0  0  0  0  0
   -6.6710    6.4810   -3.0280 C   0  0  0  0  0  0  0  0  0  0  0  0
   -1.1140   10.3300   -0.1730 C   0  0  1  0  0  0  0  0  0  0  0  0
   -0.0330    9.9980    0.8890 C   0  0  0  0  0  0  0  0  0  0  0  0
    1.2220   10.8330    0.5270 C   0  0  0  0  0  0  0  0  0  0  0  0
    0.7210   11.8560   -0.5180 C   0  0  1  0  0  0  0  0  0  0  0  0
    0.0520   12.9910    0.3190 C   0  0  0  0  0  0  0  0  0  0  0  0
    1.7960   12.4230   -1.5020 C   0  0  2  0  0  0  0  0  0  0  0  0
    2.9310   13.2220   -0.8380 C   0  0  0  0  0  0  0  0  0  0  0  0
    2.6860   14.6890   -0.7070 C   0  0  0  0  0  0  0  0  0  0  0  0
    1.7320   15.3830   -1.3550 C   0  0  0  0  0  0  0  0  0  0  0  0
    0.8380   14.7060   -2.4010 C   0  0  1  0  0  0  0  0  0  0  0  0
    0.7530   15.6000   -3.6660 C   0  0  0  0  0  0  0  0  0  0  0  0
    0.3030   17.0230   -3.3470 C   0  0  0  0  0  0  0  0  0  0  0  0
    1.2490   17.6830   -2.3480 C   0  0  2  0  0  0  0  0  0  0  0  0
    2.5240   17.8670   -2.9720 O   0  0  0  0  0  0  0  0  0  0  0  0
    1.4220   16.8670   -1.0370 C   0  0  0  0  0  0  0  0  0  0  0  0
    0.1120   16.9240   -0.2120 C   0  0  0  0  0  0  0  0  0  0  0  0
    2.5070   17.5690   -0.1770 C   0  0  0  0  0  0  0  0  0  0  0  0
    1.1950   13.1960   -2.7450 C   0  0  1  0  0  0  0  0  0  0  0  0
    2.2770   13.1460   -3.8660 C   0  0  0  0  0  0  0  0  0  0  0  0
   -0.0830   12.4860   -3.3300 C   0  0  0  0  0  0  0  0  0  0  0  0
   -1.0460   11.8420   -2.3150 C   0  0  0  0  0  0  0  0  0  0  0  0
   -0.2860   10.9560   -1.3230 C   0  0  2  0  0  0  0  0  0  0  0  0
    0.3800    9.7920   -2.1340 C   0  0  0  0  0  0  0  0  0  0  0  0
   -0.9286    7.6575   -1.6901 H   0  0  0  0  0  0  0  0  0  0  0  0
   -2.4573    8.2423   -2.4302 H   0  0  0  0  0  0  0  0  0  0  0  0
   -1.0001    9.2927   -2.4302 H   0  0  0  0  0  0  0  0  0  0  0  0
   -1.8603    8.3468    0.2474 H   0  0  0  0  0  0  0  0  0  0  0  0
   -3.6373   10.2376    0.3316 H   0  0  0  0  0  0  0  0  0  0  0  0
   -3.6865   10.0026   -1.4813 H   0  0  0  0  0  0  0  0  0  0  0  0
   -3.8818    7.4932    0.0264 H   0  0  0  0  0  0  0  0  0  0  0  0
   -5.2297    8.6593    0.3585 H   0  0  0  0  0  0  0  0  0  0  0  0
   -4.1080    7.8858   -2.1339 H   0  0  0  0  0  0  0  0  0  0  0  0
   -6.5626    7.0729    0.3709 H   0  0  0  0  0  0  0  0  0  0  0  0
   -8.1184    7.0965   -0.5267 H   0  0  0  0  0  0  0  0  0  0  0  0
   -7.1038    5.6141   -0.5267 H   0  0  0  0  0  0  0  0  0  0  0  0
   -7.0809    5.4858   -2.8008 H   0  0  0  0  0  0  0  0  0  0  0  0
   -7.4056    7.0558   -3.6111 H   0  0  0  0  0  0  0  0  0  0  0  0
   -5.7447    6.3716   -3.6111 H   0  0  0  0  0  0  0  0  0  0  0  0
   -1.8897   11.0355    0.1595 H   0  0  0  0  0  0  0  0  0  0  0  0
   -0.3921   10.2698    1.8926 H   0  0  0  0  0  0  0  0  0  0  0  0
    0.1970    8.9223    0.8952 H   0  0  0  0  0  0  0  0  0  0  0  0
    1.6161   11.3472    1.4160 H   0  0  0  0  0  0  0  0  0  0  0  0
    2.0413   10.2089    0.1406 H   0  0  0  0  0  0  0  0  0  0  0  0
    0.1772   12.7785    1.3910 H   0  0  0  0  0  0  0  0  0  0  0  0
    0.5274   13.9532    0.0779 H   0  0  0  0  0  0  0  0  0  0  0  0
   -1.0201   13.0411    0.0779 H   0  0  0  0  0  0  0  0  0  0  0  0
    2.2638   11.5073   -1.8926 H   0  0  0  0  0  0  0  0  0  0  0  0
    3.0901   12.8125    0.1705 H   0  0  0  0  0  0  0  0  0  0  0  0
    3.8041   13.1170   -1.4988 H   0  0  0  0  0  0  0  0  0  0  0  0
    3.3403   15.2499   -0.0233 H   0  0  0  0  0  0  0  0  0  0  0  0
   -0.1563   14.6167   -1.9390 H   0  0  0  0  0  0  0  0  0  0  0  0
    1.7466   15.6413   -4.1362 H   0  0  0  0  0  0  0  0  0  0  0  0
    0.0050   15.1560   -4.3393 H   0  0  0  0  0  0  0  0  0  0  0  0
    0.2906   17.6133   -4.2751 H   0  0  0  0  0  0  0  0  0  0  0  0
   -0.7029   16.9821   -2.9038 H   0  0  0  0  0  0  0  0  0  0  0  0
    0.8045   18.6473   -2.0608 H   0  0  0  0  0  0  0  0  0  0  0  0
    3.1490   17.2540   -2.5490 H   0  0  0  0  0  0  0  0  0  0  0  0
    0.3537   16.9135    0.8611 H   0  0  0  0  0  0  0  0  0  0  0  0
   -0.4349   17.8468   -0.4556 H   0  0  0  0  0  0  0  0  0  0  0  0
   -0.5130   16.0522   -0.4556 H   0  0  0  0  0  0  0  0  0  0  0  0
    2.2809   17.4227    0.8895 H   0  0  0  0  0  0  0  0  0  0  0  0
    3.4924   17.1368   -0.4056 H   0  0  0  0  0  0  0  0  0  0  0  0
    2.5166   18.6450   -0.4056 H   0  0  0  0  0  0  0  0  0  0  0  0
    3.2765   13.0998   -3.4090 H   0  0  0  0  0  0  0  0  0  0  0  0
    2.1175   12.2543   -4.4900 H   0  0  0  0  0  0  0  0  0  0  0  0
    2.2005   14.0486   -4.4900 H   0  0  0  0  0  0  0  0  0  0  0  0
   -0.6513   13.2381   -3.8968 H   0  0  0  0  0  0  0  0  0  0  0  0
    0.3026   11.6495   -3.9314 H   0  0  0  0  0  0  0  0  0  0  0  0
   -1.5685   12.6359   -1.7611 H   0  0  0  0  0  0  0  0  0  0  0  0
   -1.7660   11.2166   -2.8631 H   0  0  0  0  0  0  0  0  0  0  0  0
    0.8023    9.0539   -1.4363 H   0  0  0  0  0  0  0  0  0  0  0  0
   -0.3770    9.3065   -2.7675 H   0  0  0  0  0  0  0  0  0  0  0  0
    1.1821   10.1986   -2.7675 H   0  0  0  0  0  0  0  0  0  0  0  0
  1  2  1  0
  2  3  1  0
  3  4  1  0
  4  5  1  0
  5  6  1  0
  6  7  1  0
  7  8  1  0
  7  9  1  0
  2 10  1  0
 10 11  1  0
 11 12  1  0
 12 13  1  0
 13 14  1  1
 13 15  1  0
 15 16  1  0
 16 17  1  0
 17 18  2  0
 18 19  1  0
 19 20  1  0
 20 21  1  0
 21 22  1  0
 22 23  1  0
 22 24  1  0
 24 25  1  0
 24 26  1  0
 19 27  1  0
 27 28  1  6
 27 29  1  0
 29 30  1  0
 30 31  1  0
 31 32  1  6
  7  5  1  0
 31 10  1  0
 31 13  1  0
 27 15  1  0
 24 18  1  0
  1 33  1  0
  1 34  1  0
  1 35  1  0
  2 36  1  1
  3 37  1  0
  3 38  1  0
  4 39  1  0
  4 40  1  0
  5 41  1  6
  8 42  1  0
  8 43  1  0
  8 44  1  0
  9 45  1  0
  9 46  1  0
  9 47  1  0
 10 48  1  1
 11 49  1  0
 11 50  1  0
 12 51  1  0
 12 52  1  0
 14 53  1  0
 14 54  1  0
 14 55  1  0
 15 56  1  6
 16 57  1  0
 16 58  1  0
 17 59  1  0
 19 60  1  1
 20 61  1  0
 20 62  1  0
 21 63  1  0
 21 64  1  0
 22 65  1  1
 23 66  1  0
 25 67  1  0
 25 68  1  0
 25 69  1  0
 26 70  1  0
 26 71  1  0
 26 72  1  0
 28 73  1  0
 28 74  1  0
 28 75  1  0
 29 76  1  0
 29 77  1  0
 30 78  1  0
 30 79  1  0
 32 80  1  0
 32 81  1  0
 32 82  1  0
M  END
>  <meeko>  (1) 
{"is_sidechain": [false], "intermolecular_energy": 2.731, "internal_energy": -0.839}

$$$$
EPH_relaxed_0001_pdb2pqr_Repair_17_r2_0001_out
     RDKit          3D

 82 86  0  0  0  0  0  0  0  0999 V2000
    2.0820   19.5700   -0.6940 C   0  0  0  0  0  0  0  0  0  0  0  0
    2.4490   18.3750    0.1900 C   0  0  2  0  0  0  0  0  0  0  0  0
    3.8940   17.8960   -0.0510 C   0  0  0  0  0  0  0  0  0  0  0  0
    4.8490   18.2150    1.1020 C   0  0  0  0  0  0  0  0  0  0  0  0
    4.1460   18.9120    2.2270 C   0  0  2  0  0  0  0  0  0  0  0  0
    4.6880   20.1940    2.5690 O   0  0  0  0  0  0  0  0  0  0  0  0
    4.7860   19.1760    3.5780 C   0  0  0  0  0  0  0  0  0  0  0  0
    6.1880   18.7460    3.8740 C   0  0  0  0  0  0  0  0  0  0  0  0
    3.8950   19.4090    4.7580 C   0  0  0  0  0  0  0  0  0  0  0  0
    1.4730   17.2300   -0.0530 C   0  0  1  0  0  0  0  0  0  0  0  0
    0.1690   17.6950   -0.7540 C   0  0  0  0  0  0  0  0  0  0  0  0
   -0.2710   16.5420   -1.6920 C   0  0  0  0  0  0  0  0  0  0  0  0
    0.5940   15.3350   -1.2580 C   0  0  1  0  0  0  0  0  0  0  0  0
   -0.1270   14.7570   -0.0000 C   0  0  0  0  0  0  0  0  0  0  0  0
    0.8380   14.2340   -2.3410 C   0  0  2  0  0  0  0  0  0  0  0  0
   -0.4290   13.5170   -2.8380 C   0  0  0  0  0  0  0  0  0  0  0  0
   -0.8060   12.2880   -2.0780 C   0  0  0  0  0  0  0  0  0  0  0  0
   -0.0070   11.6210   -1.2250 C   0  0  0  0  0  0  0  0  0  0  0  0
    1.4560   12.0360   -1.0270 C   0  0  1  0  0  0  0  0  0  0  0  0
    2.3630   10.7790   -1.0750 C   0  0  0  0  0  0  0  0  0  0  0  0
    1.9230    9.7020   -0.0880 C   0  0  0  0  0  0  0  0  0  0  0  0
    0.4830    9.2730   -0.3540 C   0  0  2  0  0  0  0  0  0  0  0  0
    0.4250    8.6100   -1.6200 O   0  0  0  0  0  0  0  0  0  0  0  0
   -0.5220   10.4590   -0.3390 C   0  0  0  0  0  0  0  0  0  0  0  0
   -0.6840   10.9870    1.1080 C   0  0  0  0  0  0  0  0  0  0  0  0
   -1.9130    9.9120   -0.7600 C   0  0  0  0  0  0  0  0  0  0  0  0
    1.9790   13.2030   -1.9710 C   0  0  1  0  0  0  0  0  0  0  0  0
    2.4940   12.6070   -3.3170 C   0  0  0  0  0  0  0  0  0  0  0  0
    3.2170   13.8990   -1.2910 C   0  0  0  0  0  0  0  0  0  0  0  0
    2.9170   15.0580   -0.3220 C   0  0  0  0  0  0  0  0  0  0  0  0
    1.9530   16.0660   -0.9550 C   0  0  2  0  0  0  0  0  0  0  0  0
    2.6600   16.6810   -2.2100 C   0  0  0  0  0  0  0  0  0  0  0  0
    1.8183   20.4286   -0.0589 H   0  0  0  0  0  0  0  0  0  0  0  0
    2.9406   19.8337   -1.3291 H   0  0  0  0  0  0  0  0  0  0  0  0
    1.2234   19.3063   -1.3291 H   0  0  0  0  0  0  0  0  0  0  0  0
    2.3817   18.7051    1.2371 H   0  0  0  0  0  0  0  0  0  0  0  0
    3.8785   16.8059   -0.1975 H   0  0  0  0  0  0  0  0  0  0  0  0
    4.2673   18.4334   -0.9353 H   0  0  0  0  0  0  0  0  0  0  0  0
    5.2798   17.2755    1.4784 H   0  0  0  0  0  0  0  0  0  0  0  0
    5.6347   18.8842    0.7214 H   0  0  0  0  0  0  0  0  0  0  0  0
    3.1866   18.4559    1.9413 H   0  0  0  0  0  0  0  0  0  0  0  0
    6.3354   18.7008    4.9631 H   0  0  0  0  0  0  0  0  0  0  0  0
    6.3664   17.7519    3.4383 H   0  0  0  0  0  0  0  0  0  0  0  0
    6.8931   19.4692    3.4383 H   0  0  0  0  0  0  0  0  0  0  0  0
    4.4677   19.2592    5.6851 H   0  0  0  0  0  0  0  0  0  0  0  0
    3.5085   20.4384    4.7280 H   0  0  0  0  0  0  0  0  0  0  0  0
    3.0540   18.7006    4.7280 H   0  0  0  0  0  0  0  0  0  0  0  0
    1.3430   16.8762    0.9804 H   0  0  0  0  0  0  0  0  0  0  0  0
   -0.6127   17.8940   -0.0061 H   0  0  0  0  0  0  0  0  0  0  0  0
    0.3349   18.6232   -1.3205 H   0  0  0  0  0  0  0  0  0  0  0  0
   -1.3405   16.3208   -1.5603 H   0  0  0  0  0  0  0  0  0  0  0  0
   -0.1344   16.7929   -2.7543 H   0  0  0  0  0  0  0  0  0  0  0  0
    0.3558   15.1440    0.9095 H   0  0  0  0  0  0  0  0  0  0  0  0
   -1.1842   15.0606   -0.0115 H   0  0  0  0  0  0  0  0  0  0  0  0
   -0.0607   13.6591   -0.0115 H   0  0  0  0  0  0  0  0  0  0  0  0
    1.2042   14.8205   -3.1965 H   0  0  0  0  0  0  0  0  0  0  0  0
   -1.2676   14.2261   -2.7752 H   0  0  0  0  0  0  0  0  0  0  0  0
   -0.2085   13.1851   -3.8633 H   0  0  0  0  0  0  0  0  0  0  0  0
   -1.8223   11.8949   -2.2281 H   0  0  0  0  0  0  0  0  0  0  0  0
    1.5091   12.4953   -0.0289 H   0  0  0  0  0  0  0  0  0  0  0  0
    2.3313   10.3599   -2.0915 H   0  0  0  0  0  0  0  0  0  0  0  0
    3.3807   11.0908   -0.7972 H   0  0  0  0  0  0  0  0  0  0  0  0
    2.5835    8.8284   -0.1905 H   0  0  0  0  0  0  0  0  0  0  0  0
    1.9840   10.1134    0.9304 H   0  0  0  0  0  0  0  0  0  0  0  0
    0.1845    8.5979    0.4615 H   0  0  0  0  0  0  0  0  0  0  0  0
    0.7780    9.2210   -2.2890 H   0  0  0  0  0  0  0  0  0  0  0  0
   -0.4381   10.1857    1.8204 H   0  0  0  0  0  0  0  0  0  0  0  0
   -0.0058   11.8386    1.2657 H   0  0  0  0  0  0  0  0  0  0  0  0
   -1.7231   11.3117    1.2657 H   0  0  0  0  0  0  0  0  0  0  0  0
   -2.5031    9.6799    0.1388 H   0  0  0  0  0  0  0  0  0  0  0  0
   -2.4393   10.6701   -1.3585 H   0  0  0  0  0  0  0  0  0  0  0  0
   -1.7819    8.9984   -1.3585 H   0  0  0  0  0  0  0  0  0  0  0  0
    3.2003   11.7896   -3.1097 H   0  0  0  0  0  0  0  0  0  0  0  0
    1.6429   12.2183   -3.8954 H   0  0  0  0  0  0  0  0  0  0  0  0
    3.0021   13.3927   -3.8954 H   0  0  0  0  0  0  0  0  0  0  0  0
    3.7645   13.1283   -0.7285 H   0  0  0  0  0  0  0  0  0  0  0  0
    3.7812   14.3544   -2.1182 H   0  0  0  0  0  0  0  0  0  0  0  0
    2.4632   14.6526    0.5944 H   0  0  0  0  0  0  0  0  0  0  0  0
    3.8604   15.5735   -0.0889 H   0  0  0  0  0  0  0  0  0  0  0  0
    3.4525   17.3704   -1.8833 H   0  0  0  0  0  0  0  0  0  0  0  0
    3.1015   15.8746   -2.8140 H   0  0  0  0  0  0  0  0  0  0  0  0
    1.9226   17.2299   -2.8140 H   0  0  0  0  0  0  0  0  0  0  0  0
  1  2  1  0
  2  3  1  0
  3  4  1  0
  4  5  1  0
  5  6  1  0
  6  7  1  0
  7  8  1  0
  7  9  1  0
  2 10  1  0
 10 11  1  0
 11 12  1  0
 12 13  1  0
 13 14  1  1
 13 15  1  0
 15 16  1  0
 16 17  1  0
 17 18  2  0
 18 19  1  0
 19 20  1  0
 20 21  1  0
 21 22  1  0
 22 23  1  0
 22 24  1  0
 24 25  1  0
 24 26  1  0
 19 27  1  0
 27 28  1  6
 27 29  1  0
 29 30  1  0
 30 31  1  0
 31 32  1  6
  7  5  1  0
 31 10  1  0
 31 13  1  0
 27 15  1  0
 24 18  1  0
  1 33  1  0
  1 34  1  0
  1 35  1  0
  2 36  1  1
  3 37  1  0
  3 38  1  0
  4 39  1  0
  4 40  1  0
  5 41  1  1
  8 42  1  0
  8 43  1  0
  8 44  1  0
  9 45  1  0
  9 46  1  0
  9 47  1  0
 10 48  1  1
 11 49  1  0
 11 50  1  0
 12 51  1  0
 12 52  1  0
 14 53  1  0
 14 54  1  0
 14 55  1  0
 15 56  1  6
 16 57  1  0
 16 58  1  0
 17 59  1  0
 19 60  1  1
 20 61  1  0
 20 62  1  0
 21 63  1  0
 21 64  1  0
 22 65  1  1
 23 66  1  0
 25 67  1  0
 25 68  1  0
 25 69  1  0
 26 70  1  0
 26 71  1  0
 26 72  1  0
 28 73  1  0
 28 74  1  0
 28 75  1  0
 29 76  1  0
 29 77  1  0
 30 78  1  0
 30 79  1  0
 32 80  1  0
 32 81  1  0
 32 82  1  0
M  END
>  <meeko>  (2) 
{"is_sidechain": [false], "intermolecular_energy": 2.731, "internal_energy": -0.839}

$$$$
EPH_relaxed_0001_pdb2pqr_Repair_17_r2_0001_out
     RDKit          3D

 82 86  0  0  0  0  0  0  0  0999 V2000
    0.3780   18.4820    0.0150 C   0  0  0  0  0  0  0  0  0  0  0  0
    1.4660   17.4250   -0.1900 C   0  0  2  0  0  0  0  0  0  0  0  0
    2.6870   17.9860   -0.9450 C   0  0  0  0  0  0  0  0  0  0  0  0
    3.9220   18.1780   -0.0610 C   0  0  0  0  0  0  0  0  0  0  0  0
    3.5560   18.6790    1.3030 C   0  0  2  0  0  0  0  0  0  0  0  0
    3.8420   20.0650    1.5290 O   0  0  0  0  0  0  0  0  0  0  0  0
    4.5770   19.1270    2.3320 C   0  0  0  0  0  0  0  0  0  0  0  0
    6.0440   19.0950    2.0400 C   0  0  0  0  0  0  0  0  0  0  0  0
    4.1820   19.1320    3.7760 C   0  0  0  0  0  0  0  0  0  0  0  0
    0.8930   16.2290   -0.9420 C   0  0  1  0  0  0  0  0  0  0  0  0
    0.7170   16.5060   -2.4590 C   0  0  0  0  0  0  0  0  0  0  0  0
    1.0110   15.1730   -3.1940 C   0  0  0  0  0  0  0  0  0  0  0  0
    1.0190   14.1040   -2.0760 C   0  0  1  0  0  0  0  0  0  0  0  0
   -0.4870   13.7780   -1.8220 C   0  0  0  0  0  0  0  0  0  0  0  0
    1.8490   12.8110   -2.3620 C   0  0  2  0  0  0  0  0  0  0  0  0
    1.3620   11.9730   -3.5570 C   0  0  0  0  0  0  0  0  0  0  0  0
    0.3580   10.9180   -3.2290 C   0  0  0  0  0  0  0  0  0  0  0  0
    0.0780   10.4620   -1.9940 C   0  0  0  0  0  0  0  0  0  0  0  0
    0.8730   10.9470   -0.7760 C   0  0  1  0  0  0  0  0  0  0  0  0
    1.2760    9.7300    0.0980 C   0  0  0  0  0  0  0  0  0  0  0  0
    0.0790    8.8690    0.4890 C   0  0  0  0  0  0  0  0  0  0  0  0
   -0.6520    8.3580   -0.7500 C   0  0  2  0  0  0  0  0  0  0  0  0
    0.2030    7.4460   -1.4460 O   0  0  0  0  0  0  0  0  0  0  0  0
   -1.0980    9.4950   -1.7110 C   0  0  0  0  0  0  0  0  0  0  0  0
   -2.2480   10.3040   -1.0620 C   0  0  0  0  0  0  0  0  0  0  0  0
   -1.6960    8.8370   -2.9840 C   0  0  0  0  0  0  0  0  0  0  0  0
    2.1010   11.9070   -1.0870 C   0  0  1  0  0  0  0  0  0  0  0  0
    3.3760   11.0610   -1.3860 C   0  0  0  0  0  0  0  0  0  0  0  0
    2.4250   12.7600    0.1960 C   0  0  0  0  0  0  0  0  0  0  0  0
    1.6580   14.0860    0.3610 C   0  0  0  0  0  0  0  0  0  0  0  0
    1.7160   14.9170   -0.9240 C   0  0  2  0  0  0  0  0  0  0  0  0
    3.2160   15.2790   -1.1930 C   0  0  0  0  0  0  0  0  0  0  0  0
    0.2170   18.6384    1.0919 H   0  0  0  0  0  0  0  0  0  0  0  0
    0.6934   19.4278   -0.4498 H   0  0  0  0  0  0  0  0  0  0  0  0
   -0.5583   18.1394   -0.4498 H   0  0  0  0  0  0  0  0  0  0  0  0
    1.8111   17.1085    0.8053 H   0  0  0  0  0  0  0  0  0  0  0  0
    2.9450   17.2882   -1.7553 H   0  0  0  0  0  0  0  0  0  0  0  0
    2.4034   18.9799   -1.3215 H   0  0  0  0  0  0  0  0  0  0  0  0
    4.4406   17.2133    0.0411 H   0  0  0  0  0  0  0  0  0  0  0  0
    4.5715   18.9267   -0.5380 H   0  0  0  0  0  0  0  0  0  0  0  0
    2.7111   17.9769    1.3592 H   0  0  0  0  0  0  0  0  0  0  0  0
    6.6059   19.0827    2.9856 H   0  0  0  0  0  0  0  0  0  0  0  0
    6.2828   18.1914    1.4599 H   0  0  0  0  0  0  0  0  0  0  0  0
    6.3219   19.9873    1.4599 H   0  0  0  0  0  0  0  0  0  0  0  0
    5.0855   19.1206    4.4033 H   0  0  0  0  0  0  0  0  0  0  0  0
    3.5965   20.0376    3.9928 H   0  0  0  0  0  0  0  0  0  0  0  0
    3.5738   18.2415    3.9928 H   0  0  0  0  0  0  0  0  0  0  0  0
   -0.0449   16.0921   -0.3837 H   0  0  0  0  0  0  0  0  0  0  0  0
   -0.3120   16.8345   -2.6672 H   0  0  0  0  0  0  0  0  0  0  0  0
    1.3973   17.3017   -2.7968 H   0  0  0  0  0  0  0  0  0  0  0  0
    0.2259   14.9559   -3.9332 H   0  0  0  0  0  0  0  0  0  0  0  0
    1.9604   15.2033   -3.7487 H   0  0  0  0  0  0  0  0  0  0  0  0
   -0.6757   13.7371   -0.7391 H   0  0  0  0  0  0  0  0  0  0  0  0
   -1.1130   14.5614   -2.2740 H   0  0  0  0  0  0  0  0  0  0  0  0
   -0.7330   12.8058   -2.2740 H   0  0  0  0  0  0  0  0  0  0  0  0
    2.8251   13.2198   -2.6622 H   0  0  0  0  0  0  0  0  0  0  0  0
    0.9092   12.6571   -4.2898 H   0  0  0  0  0  0  0  0  0  0  0  0
    2.2473   11.4427   -3.9378 H   0  0  0  0  0  0  0  0  0  0  0  0
   -0.2001   10.4760   -4.0675 H   0  0  0  0  0  0  0  0  0  0  0  0
    0.1940   11.6034   -0.2120 H   0  0  0  0  0  0  0  0  0  0  0  0
    1.9869    9.1097   -0.4675 H   0  0  0  0  0  0  0  0  0  0  0  0
    1.7251   10.1180    1.0242 H   0  0  0  0  0  0  0  0  0  0  0  0
    0.4306    8.0102    1.0796 H   0  0  0  0  0  0  0  0  0  0  0  0
   -0.6171    9.4823    1.0800 H   0  0  0  0  0  0  0  0  0  0  0  0
   -1.5708    7.8587   -0.4087 H   0  0  0  0  0  0  0  0  0  0  0  0
    0.9750    7.9480   -1.7590 H   0  0  0  0  0  0  0  0  0  0  0  0
   -2.1648   10.2455    0.0333 H   0  0  0  0  0  0  0  0  0  0  0  0
   -2.1813   11.3552   -1.3791 H   0  0  0  0  0  0  0  0  0  0  0  0
   -3.2148    9.8860   -1.3791 H   0  0  0  0  0  0  0  0  0  0  0  0
   -2.4090    8.0524   -2.6907 H   0  0  0  0  0  0  0  0  0  0  0  0
   -2.2160    9.6003   -3.5815 H   0  0  0  0  0  0  0  0  0  0  0  0
   -0.8866    8.3922   -3.5815 H   0  0  0  0  0  0  0  0  0  0  0  0
    3.8416   10.7521   -0.4385 H   0  0  0  0  0  0  0  0  0  0  0  0
    3.0964   10.1686   -1.9652 H   0  0  0  0  0  0  0  0  0  0  0  0
    4.0896   11.6654   -1.9652 H   0  0  0  0  0  0  0  0  0  0  0  0
    2.2041   12.1363    1.0747 H   0  0  0  0  0  0  0  0  0  0  0  0
    3.4808   13.0497    0.0898 H   0  0  0  0  0  0  0  0  0  0  0  0
    0.6070   13.8663    0.6002 H   0  0  0  0  0  0  0  0  0  0  0  0
    2.1255   14.6627    1.1727 H   0  0  0  0  0  0  0  0  0  0  0  0
    3.7403   15.4055   -0.2343 H   0  0  0  0  0  0  0  0  0  0  0  0
    3.6913   14.4698   -1.7668 H   0  0  0  0  0  0  0  0  0  0  0  0
    3.2699   16.2159   -1.7668 H   0  0  0  0  0  0  0  0  0  0  0  0
  1  2  1  0
  2  3  1  0
  3  4  1  0
  4  5  1  0
  5  6  1  0
  6  7  1  0
  7  8  1  0
  7  9  1  0
  2 10  1  0
 10 11  1  0
 11 12  1  0
 12 13  1  0
 13 14  1  1
 13 15  1  0
 15 16  1  0
 16 17  1  0
 17 18  2  0
 18 19  1  0
 19 20  1  0
 20 21  1  0
 21 22  1  0
 22 23  1  0
 22 24  1  0
 24 25  1  0
 24 26  1  0
 19 27  1  0
 27 28  1  6
 27 29  1  0
 29 30  1  0
 30 31  1  0
 31 32  1  6
  7  5  1  0
 31 10  1  0
 31 13  1  0
 27 15  1  0
 24 18  1  0
  1 33  1  0
  1 34  1  0
  1 35  1  0
  2 36  1  1
  3 37  1  0
  3 38  1  0
  4 39  1  0
  4 40  1  0
  5 41  1  1
  8 42  1  0
  8 43  1  0
  8 44  1  0
  9 45  1  0
  9 46  1  0
  9 47  1  0
 10 48  1  1
 11 49  1  0
 11 50  1  0
 12 51  1  0
 12 52  1  0
 14 53  1  0
 14 54  1  0
 14 55  1  0
 15 56  1  6
 16 57  1  0
 16 58  1  0
 17 59  1  0
 19 60  1  1
 20 61  1  0
 20 62  1  0
 21 63  1  0
 21 64  1  0
 22 65  1  1
 23 66  1  0
 25 67  1  0
 25 68  1  0
 25 69  1  0
 26 70  1  0
 26 71  1  0
 26 72  1  0
 28 73  1  0
 28 74  1  0
 28 75  1  0
 29 76  1  0
 29 77  1  0
 30 78  1  0
 30 79  1  0
 32 80  1  0
 32 81  1  0
 32 82  1  0
M  END
>  <meeko>  (3) 
{"is_sidechain": [false], "intermolecular_energy": 2.731, "internal_energy": -0.839}

$$$$
EPH_relaxed_0001_pdb2pqr_Repair_17_r2_0001_out
     RDKit          3D

 82 86  0  0  0  0  0  0  0  0999 V2000
    2.0560   18.1470   -2.5870 C   0  0  0  0  0  0  0  0  0  0  0  0
    0.5360   17.9650   -2.6310 C   0  0  2  0  0  0  0  0  0  0  0  0
   -0.1410   18.4250   -1.3240 C   0  0  0  0  0  0  0  0  0  0  0  0
    0.6070   17.9960   -0.0590 C   0  0  0  0  0  0  0  0  0  0  0  0
    1.1980   19.1700    0.6610 C   0  0  2  0  0  0  0  0  0  0  0  0
    2.1240   19.9430   -0.1140 O   0  0  0  0  0  0  0  0  0  0  0  0
    2.6650   19.2700    1.0340 C   0  0  0  0  0  0  0  0  0  0  0  0
    3.6320   18.1780    0.7000 C   0  0  0  0  0  0  0  0  0  0  0  0
    3.0600   20.1940    2.1440 C   0  0  0  0  0  0  0  0  0  0  0  0
    0.1950   16.5060   -2.9090 C   0  0  1  0  0  0  0  0  0  0  0  0
    0.1840   16.1750   -4.4250 C   0  0  0  0  0  0  0  0  0  0  0  0
    0.7100   14.7230   -4.5690 C   0  0  0  0  0  0  0  0  0  0  0  0
    0.6900   14.1570   -3.1300 C   0  0  1  0  0  0  0  0  0  0  0  0
   -0.7910   13.7300   -2.8870 C   0  0  0  0  0  0  0  0  0  0  0  0
    1.6840   12.9870   -2.8350 C   0  0  2  0  0  0  0  0  0  0  0  0
    1.4450   11.7050   -3.6520 C   0  0  0  0  0  0  0  0  0  0  0  0
    0.5260   10.7100   -3.0230 C   0  0  0  0  0  0  0  0  0  0  0  0
    0.1420   10.7060   -1.7330 C   0  0  0  0  0  0  0  0  0  0  0  0
    0.7210   11.7180   -0.7360 C   0  0  1  0  0  0  0  0  0  0  0  0
    1.1370   10.9840    0.5650 C   0  0  0  0  0  0  0  0  0  0  0  0
   -0.0010   10.1610    1.1630 C   0  0  0  0  0  0  0  0  0  0  0  0
   -0.5100    9.1270    0.1620 C   0  0  2  0  0  0  0  0  0  0  0  0
    0.5190    8.1600   -0.0650 O   0  0  0  0  0  0  0  0  0  0  0  0
   -0.9500    9.7500   -1.1930 C   0  0  0  0  0  0  0  0  0  0  0  0
   -2.2520   10.5630   -0.9930 C   0  0  0  0  0  0  0  0  0  0  0  0
   -1.3070    8.5880   -2.1590 C   0  0  0  0  0  0  0  0  0  0  0  0
    1.8680   12.6650   -1.2960 C   0  0  1  0  0  0  0  0  0  0  0  0
    3.2540   11.9660   -1.1500 C   0  0  0  0  0  0  0  0  0  0  0  0
    1.9330   13.9690   -0.4160 C   0  0  0  0  0  0  0  0  0  0  0  0
    1.0140   15.1340   -0.8310 C   0  0  0  0  0  0  0  0  0  0  0  0
    1.1450   15.4300   -2.3280 C   0  0  2  0  0  0  0  0  0  0  0  0
    2.6200   15.8840   -2.5990 C   0  0  0  0  0  0  0  0  0  0  0  0
    2.3903   18.1870   -1.5398 H   0  0  0  0  0  0  0  0  0  0  0  0
    2.5415   17.3006   -3.0948 H   0  0  0  0  0  0  0  0  0  0  0  0
    2.3279   19.0841   -3.0948 H   0  0  0  0  0  0  0  0  0  0  0  0
    0.1498   18.5978   -3.4436 H   0  0  0  0  0  0  0  0  0  0  0  0
   -0.2050   19.5231   -1.3340 H   0  0  0  0  0  0  0  0  0  0  0  0
   -1.1311   17.9470   -1.2895 H   0  0  0  0  0  0  0  0  0  0  0  0
   -0.0956   17.4823    0.6136 H   0  0  0  0  0  0  0  0  0  0  0  0
    1.4283   17.3275   -0.3566 H   0  0  0  0  0  0  0  0  0  0  0  0
    0.2768   19.3048    1.2469 H   0  0  0  0  0  0  0  0  0  0  0  0
    4.0224   17.7371    1.6291 H   0  0  0  0  0  0  0  0  0  0  0  0
    3.1198   17.4016    0.1127 H   0  0  0  0  0  0  0  0  0  0  0  0
    4.4646   18.5925    0.1127 H   0  0  0  0  0  0  0  0  0  0  0  0
    2.8545   19.7133    3.1118 H   0  0  0  0  0  0  0  0  0  0  0  0
    4.1337   20.4207    2.0678 H   0  0  0  0  0  0  0  0  0  0  0  0
    2.4820   21.1268    2.0678 H   0  0  0  0  0  0  0  0  0  0  0  0
   -0.7855   16.4478   -2.4138 H   0  0  0  0  0  0  0  0  0  0  0  0
   -0.8394   16.2483   -4.8215 H   0  0  0  0  0  0  0  0  0  0  0  0
    0.8123   16.8807   -4.9882 H   0  0  0  0  0  0  0  0  0  0  0  0
    0.0528   14.1352   -5.2267 H   0  0  0  0  0  0  0  0  0  0  0  0
    1.7133   14.6852   -5.0185 H   0  0  0  0  0  0  0  0  0  0  0  0
   -0.9838   13.6744   -1.8055 H   0  0  0  0  0  0  0  0  0  0  0  0
   -1.4654   14.4703   -3.3421 H   0  0  0  0  0  0  0  0  0  0  0  0
   -0.9678   12.7443   -3.3421 H   0  0  0  0  0  0  0  0  0  0  0  0
    2.6406   13.3953   -3.1930 H   0  0  0  0  0  0  0  0  0  0  0  0
    1.0181   11.9955   -4.6233 H   0  0  0  0  0  0  0  0  0  0  0  0
    2.4231   11.2081   -3.7317 H   0  0  0  0  0  0  0  0  0  0  0  0
    0.1293    9.9127   -3.6687 H   0  0  0  0  0  0  0  0  0  0  0  0
   -0.0899   12.4292   -0.5199 H   0  0  0  0  0  0  0  0  0  0  0  0
    1.9767   10.3110    0.3369 H   0  0  0  0  0  0  0  0  0  0  0  0
    1.4196   11.7486    1.3036 H   0  0  0  0  0  0  0  0  0  0  0  0
    0.3633    9.6428    2.0623 H   0  0  0  0  0  0  0  0  0  0  0  0
   -0.8283   10.8392    1.4190 H   0  0  0  0  0  0  0  0  0  0  0  0
   -1.4055    8.6596    0.5975 H   0  0  0  0  0  0  0  0  0  0  0  0
    1.3250    8.4780    0.3760 H   0  0  0  0  0  0  0  0  0  0  0  0
   -2.4467   10.6846    0.0828 H   0  0  0  0  0  0  0  0  0  0  0  0
   -2.1415   11.5529   -1.4598 H   0  0  0  0  0  0  0  0  0  0  0  0
   -3.0929   10.0292   -1.4598 H   0  0  0  0  0  0  0  0  0  0  0  0
   -1.5808    7.6968   -1.5752 H   0  0  0  0  0  0  0  0  0  0  0  0
   -2.1551    8.8857   -2.7931 H   0  0  0  0  0  0  0  0  0  0  0  0
   -0.4380    8.3582   -2.7931 H   0  0  0  0  0  0  0  0  0  0  0  0
    3.4932   11.8453   -0.0831 H   0  0  0  0  0  0  0  0  0  0  0  0
    3.2189   10.9778   -1.6319 H   0  0  0  0  0  0  0  0  0  0  0  0
    4.0277   12.5817   -1.6319 H   0  0  0  0  0  0  0  0  0  0  0  0
    1.6698   13.6884    0.6145 H   0  0  0  0  0  0  0  0  0  0  0  0
    2.9568   14.3509   -0.5428 H   0  0  0  0  0  0  0  0  0  0  0  0
   -0.0292   14.8665   -0.6071 H   0  0  0  0  0  0  0  0  0  0  0  0
    1.3108   16.0318   -0.2690 H   0  0  0  0  0  0  0  0  0  0  0  0
    3.1366   16.0430   -1.6410 H   0  0  0  0  0  0  0  0  0  0  0  0
    3.1437   15.1055   -3.1731 H   0  0  0  0  0  0  0  0  0  0  0  0
    2.6152   16.8223   -3.1731 H   0  0  0  0  0  0  0  0  0  0  0  0
  1  2  1  0
  2  3  1  0
  3  4  1  0
  4  5  1  0
  5  6  1  0
  6  7  1  0
  7  8  1  0
  7  9  1  0
  2 10  1  0
 10 11  1  0
 11 12  1  0
 12 13  1  0
 13 14  1  1
 13 15  1  0
 15 16  1  0
 16 17  1  0
 17 18  2  0
 18 19  1  0
 19 20  1  0
 20 21  1  0
 21 22  1  0
 22 23  1  0
 22 24  1  0
 24 25  1  0
 24 26  1  0
 19 27  1  0
 27 28  1  6
 27 29  1  0
 29 30  1  0
 30 31  1  0
 31 32  1  1
  7  5  1  0
 31 10  1  0
 31 13  1  0
 27 15  1  0
 24 18  1  0
  1 33  1  0
  1 34  1  0
  1 35  1  0
  2 36  1  6
  3 37  1  0
  3 38  1  0
  4 39  1  0
  4 40  1  0
  5 41  1  1
  8 42  1  0
  8 43  1  0
  8 44  1  0
  9 45  1  0
  9 46  1  0
  9 47  1  0
 10 48  1  1
 11 49  1  0
 11 50  1  0
 12 51  1  0
 12 52  1  0
 14 53  1  0
 14 54  1  0
 14 55  1  0
 15 56  1  6
 16 57  1  0
 16 58  1  0
 17 59  1  0
 19 60  1  1
 20 61  1  0
 20 62  1  0
 21 63  1  0
 21 64  1  0
 22 65  1  1
 23 66  1  0
 25 67  1  0
 25 68  1  0
 25 69  1  0
 26 70  1  0
 26 71  1  0
 26 72  1  0
 28 73  1  0
 28 74  1  0
 28 75  1  0
 29 76  1  0
 29 77  1  0
 30 78  1  0
 30 79  1  0
 32 80  1  0
 32 81  1  0
 32 82  1  0
M  END
>  <meeko>  (4) 
{"is_sidechain": [false], "intermolecular_energy": 2.731, "internal_energy": -0.839}

$$$$
EPH_relaxed_0001_pdb2pqr_Repair_17_r2_0001_out
     RDKit          3D

 82 86  0  0  0  0  0  0  0  0999 V2000
    1.9910   18.4260   -2.7950 C   0  0  0  0  0  0  0  0  0  0  0  0
    1.0340   17.8160   -1.7670 C   0  0  2  0  0  0  0  0  0  0  0  0
    1.6660   17.7320   -0.3640 C   0  0  0  0  0  0  0  0  0  0  0  0
    1.1520   18.7970    0.6080 C   0  0  0  0  0  0  0  0  0  0  0  0
    0.0340   19.5980    0.0120 C   0  0  2  0  0  0  0  0  0  0  0  0
   -0.8560   20.1880    0.9680 O   0  0  0  0  0  0  0  0  0  0  0  0
   -1.4260   19.1920    0.1020 C   0  0  0  0  0  0  0  0  0  0  0  0
   -1.8460   17.9410    0.8070 C   0  0  0  0  0  0  0  0  0  0  0  0
   -2.3860   19.7470   -0.9030 C   0  0  0  0  0  0  0  0  0  0  0  0
    0.5950   16.4300   -2.2250 C   0  0  1  0  0  0  0  0  0  0  0  0
    0.5880   16.2860   -3.7700 C   0  0  0  0  0  0  0  0  0  0  0  0
    1.0120   14.8280   -4.0850 C   0  0  0  0  0  0  0  0  0  0  0  0
    0.9260   14.0950   -2.7260 C   0  0  1  0  0  0  0  0  0  0  0  0
   -0.5860   13.7500   -2.5510 C   0  0  0  0  0  0  0  0  0  0  0  0
    1.8290   12.8280   -2.5670 C   0  0  2  0  0  0  0  0  0  0  0  0
    1.5140   11.6760   -3.5360 C   0  0  0  0  0  0  0  0  0  0  0  0
    0.5160   10.6820   -3.0420 C   0  0  0  0  0  0  0  0  0  0  0  0
    0.1100   10.5490   -1.7650 C   0  0  0  0  0  0  0  0  0  0  0  0
    0.7410   11.3890   -0.6470 C   0  0  1  0  0  0  0  0  0  0  0  0
    1.0800   10.4740    0.5590 C   0  0  0  0  0  0  0  0  0  0  0  0
   -0.1230    9.6710    1.0410 C   0  0  0  0  0  0  0  0  0  0  0  0
   -0.6870    8.8050   -0.0830 C   0  0  2  0  0  0  0  0  0  0  0  0
    0.2750    7.7990   -0.4170 O   0  0  0  0  0  0  0  0  0  0  0  0
   -1.0570    9.6170   -1.3550 C   0  0  0  0  0  0  0  0  0  0  0  0
   -2.3020   10.4930   -1.0700 C   0  0  0  0  0  0  0  0  0  0  0  0
   -1.4780    8.6100   -2.4590 C   0  0  0  0  0  0  0  0  0  0  0  0
    1.9620   12.3110   -1.0770 C   0  0  1  0  0  0  0  0  0  0  0  0
    3.2920   11.5000   -1.0040 C   0  0  0  0  0  0  0  0  0  0  0  0
    2.1040   13.4910   -0.0440 C   0  0  0  0  0  0  0  0  0  0  0  0
    1.2770   14.7610   -0.3220 C   0  0  0  0  0  0  0  0  0  0  0  0
    1.4560   15.2250   -1.7700 C   0  0  2  0  0  0  0  0  0  0  0  0
    2.9640   15.6000   -1.9700 C   0  0  0  0  0  0  0  0  0  0  0  0
    2.8073   18.9463   -2.2725 H   0  0  0  0  0  0  0  0  0  0  0  0
    2.4094   17.6276   -3.4255 H   0  0  0  0  0  0  0  0  0  0  0  0
    1.4438   19.1423   -3.4255 H   0  0  0  0  0  0  0  0  0  0  0  0
    0.1588   18.4784   -1.6951 H   0  0  0  0  0  0  0  0  0  0  0  0
    1.4439   16.7407    0.0580 H   0  0  0  0  0  0  0  0  0  0  0  0
    2.7455   17.9039   -0.4872 H   0  0  0  0  0  0  0  0  0  0  0  0
    0.7886   18.3014    1.5203 H   0  0  0  0  0  0  0  0  0  0  0  0
    1.9816   19.4825    0.8357 H   0  0  0  0  0  0  0  0  0  0  0  0
    0.6669   19.8931   -0.8380 H   0  0  0  0  0  0  0  0  0  0  0  0
   -1.7934   18.0977    1.8945 H   0  0  0  0  0  0  0  0  0  0  0  0
   -2.8781   17.6886    0.5224 H   0  0  0  0  0  0  0  0  0  0  0  0
   -1.1753   17.1169    0.5224 H   0  0  0  0  0  0  0  0  0  0  0  0
   -3.2242   20.2316   -0.3808 H   0  0  0  0  0  0  0  0  0  0  0  0
   -1.8702   20.4862   -1.5335 H   0  0  0  0  0  0  0  0  0  0  0  0
   -2.7693   18.9311   -1.5335 H   0  0  0  0  0  0  0  0  0  0  0  0
   -0.3964   16.3843   -1.7507 H   0  0  0  0  0  0  0  0  0  0  0  0
   -0.4203   16.4809   -4.1641 H   0  0  0  0  0  0  0  0  0  0  0  0
    1.2750   17.0069   -4.2371 H   0  0  0  0  0  0  0  0  0  0  0  0
    0.3267   14.3734   -4.8155 H   0  0  0  0  0  0  0  0  0  0  0  0
    2.0180   14.7720   -4.5264 H   0  0  0  0  0  0  0  0  0  0  0  0
   -0.8278   13.6948   -1.4793 H   0  0  0  0  0  0  0  0  0  0  0  0
   -1.1977   14.5317   -3.0252 H   0  0  0  0  0  0  0  0  0  0  0  0
   -0.7981   12.7804   -3.0252 H   0  0  0  0  0  0  0  0  0  0  0  0
    2.8189   13.2045   -2.8643 H   0  0  0  0  0  0  0  0  0  0  0  0
    1.1262   12.1125   -4.4682 H   0  0  0  0  0  0  0  0  0  0  0  0
    2.4555   11.1225   -3.6669 H   0  0  0  0  0  0  0  0  0  0  0  0
    0.0748   10.0003   -3.7841 H   0  0  0  0  0  0  0  0  0  0  0  0
   -0.0206   12.1264   -0.3534 H   0  0  0  0  0  0  0  0  0  0  0  0
    1.8734    9.7740    0.2582 H   0  0  0  0  0  0  0  0  0  0  0  0
    1.4031   11.1209    1.3880 H   0  0  0  0  0  0  0  0  0  0  0  0
    0.1872    9.0228    1.8738 H   0  0  0  0  0  0  0  0  0  0  0  0
   -0.9042   10.3722    1.3697 H   0  0  0  0  0  0  0  0  0  0  0  0
   -1.6211    8.3550    0.2843 H   0  0  0  0  0  0  0  0  0  0  0  0
    0.9210    7.7580    0.3090 H   0  0  0  0  0  0  0  0  0  0  0  0
   -2.4407   10.5906    0.0169 H   0  0  0  0  0  0  0  0  0  0  0  0
   -2.1580   11.4898   -1.5122 H   0  0  0  0  0  0  0  0  0  0  0  0
   -3.1916   10.0208   -1.5122 H   0  0  0  0  0  0  0  0  0  0  0  0
   -1.8619    7.6917   -1.9906 H   0  0  0  0  0  0  0  0  0  0  0  0
   -2.2638    9.0588   -3.0843 H   0  0  0  0  0  0  0  0  0  0  0  0
   -0.6066    8.3659   -3.0843 H   0  0  0  0  0  0  0  0  0  0  0  0
    3.5633   11.3346    0.0491 H   0  0  0  0  0  0  0  0  0  0  0  0
    3.1578   10.5299   -1.5048 H   0  0  0  0  0  0  0  0  0  0  0  0
    4.0930   12.0635   -1.5048 H   0  0  0  0  0  0  0  0  0  0  0  0
    1.8038   13.1077    0.9424 H   0  0  0  0  0  0  0  0  0  0  0  0
    3.1543   13.8103   -0.1144 H   0  0  0  0  0  0  0  0  0  0  0  0
    0.2136   14.5445   -0.1423 H   0  0  0  0  0  0  0  0  0  0  0  0
    1.6256   15.5605    0.3483 H   0  0  0  0  0  0  0  0  0  0  0  0
    3.4454   15.7197   -0.9882 H   0  0  0  0  0  0  0  0  0  0  0  0
    3.4694   14.8002   -2.5311 H   0  0  0  0  0  0  0  0  0  0  0  0
    3.0359   16.5434   -2.5311 H   0  0  0  0  0  0  0  0  0  0  0  0
  1  2  1  0
  2  3  1  0
  3  4  1  0
  4  5  1  0
  5  6  1  0
  6  7  1  0
  7  8  1  0
  7  9  1  0
  2 10  1  0
 10 11  1  0
 11 12  1  0
 12 13  1  0
 13 14  1  1
 13 15  1  0
 15 16  1  0
 16 17  1  0
 17 18  2  0
 18 19  1  0
 19 20  1  0
 20 21  1  0
 21 22  1  0
 22 23  1  0
 22 24  1  0
 24 25  1  0
 24 26  1  0
 19 27  1  0
 27 28  1  6
 27 29  1  0
 29 30  1  0
 30 31  1  0
 31 32  1  6
  7  5  1  0
 31 10  1  0
 31 13  1  0
 27 15  1  0
 24 18  1  0
  1 33  1  0
  1 34  1  0
  1 35  1  0
  2 36  1  1
  3 37  1  0
  3 38  1  0
  4 39  1  0
  4 40  1  0
  5 41  1  6
  8 42  1  0
  8 43  1  0
  8 44  1  0
  9 45  1  0
  9 46  1  0
  9 47  1  0
 10 48  1  1
 11 49  1  0
 11 50  1  0
 12 51  1  0
 12 52  1  0
 14 53  1  0
 14 54  1  0
 14 55  1  0
 15 56  1  6
 16 57  1  0
 16 58  1  0
 17 59  1  0
 19 60  1  1
 20 61  1  0
 20 62  1  0
 21 63  1  0
 21 64  1  0
 22 65  1  1
 23 66  1  0
 25 67  1  0
 25 68  1  0
 25 69  1  0
 26 70  1  0
 26 71  1  0
 26 72  1  0
 28 73  1  0
 28 74  1  0
 28 75  1  0
 29 76  1  0
 29 77  1  0
 30 78  1  0
 30 79  1  0
 32 80  1  0
 32 81  1  0
 32 82  1  0
M  END
>  <meeko>  (5) 
{"is_sidechain": [false], "intermolecular_energy": 2.731, "internal_energy": -0.839}

$$$$
EPH_relaxed_0001_pdb2pqr_Repair_17_r2_0001_out
     RDKit          3D

 82 86  0  0  0  0  0  0  0  0999 V2000
    3.6940   17.9300    0.6720 C   0  0  0  0  0  0  0  0  0  0  0  0
    2.6940   18.3070   -0.4250 C   0  0  2  0  0  0  0  0  0  0  0  0
    1.9660   19.6300   -0.1180 C   0  0  0  0  0  0  0  0  0  0  0  0
    0.8580   19.4940    0.9310 C   0  0  0  0  0  0  0  0  0  0  0  0
   -0.4260   20.1120    0.4640 C   0  0  2  0  0  0  0  0  0  0  0  0
   -1.4500   20.1910    1.4630 O   0  0  0  0  0  0  0  0  0  0  0  0
   -1.7270   19.3420    0.3380 C   0  0  0  0  0  0  0  0  0  0  0  0
   -1.8090   17.8870    0.6790 C   0  0  0  0  0  0  0  0  0  0  0  0
   -2.7890   19.8750   -0.5730 C   0  0  0  0  0  0  0  0  0  0  0  0
    1.6790   17.1840   -0.6100 C   0  0  1  0  0  0  0  0  0  0  0  0
    0.4290   17.6360   -1.4100 C   0  0  0  0  0  0  0  0  0  0  0  0
   -0.0210   16.4200   -2.2600 C   0  0  0  0  0  0  0  0  0  0  0  0
    0.7700   15.2240   -1.6800 C   0  0  1  0  0  0  0  0  0  0  0  0
   -0.0300   14.7930   -0.4100 C   0  0  0  0  0  0  0  0  0  0  0  0
    1.0110   14.0200   -2.6470 C   0  0  2  0  0  0  0  0  0  0  0  0
   -0.2640   13.3110   -3.1370 C   0  0  0  0  0  0  0  0  0  0  0  0
   -0.7280   12.1740   -2.2880 C   0  0  0  0  0  0  0  0  0  0  0  0
    0.0030   11.5550   -1.3420 C   0  0  0  0  0  0  0  0  0  0  0  0
    1.4740   11.9280   -1.1130 C   0  0  1  0  0  0  0  0  0  0  0  0
    2.3250   10.6350   -1.0060 C   0  0  0  0  0  0  0  0  0  0  0  0
    1.7960    9.6730    0.0520 C   0  0  0  0  0  0  0  0  0  0  0  0
    0.3500    9.2800   -0.2420 C   0  0  2  0  0  0  0  0  0  0  0  0
    0.3180    8.5060   -1.4450 O   0  0  0  0  0  0  0  0  0  0  0  0
   -0.6010   10.5020   -0.3810 C   0  0  0  0  0  0  0  0  0  0  0  0
   -0.8010   11.1660    1.0040 C   0  0  0  0  0  0  0  0  0  0  0  0
   -1.9950    9.9750   -0.8150 C   0  0  0  0  0  0  0  0  0  0  0  0
    2.0880   12.9810   -2.1330 C   0  0  1  0  0  0  0  0  0  0  0  0
    2.6340   12.2440   -3.3940 C   0  0  0  0  0  0  0  0  0  0  0  0
    3.3250   13.6850   -1.4610 C   0  0  0  0  0  0  0  0  0  0  0  0
    3.0360   14.9400   -0.6150 C   0  0  0  0  0  0  0  0  0  0  0  0
    2.1450   15.9240   -1.3800 C   0  0  2  0  0  0  0  0  0  0  0  0
    2.9330   16.3920   -2.6510 C   0  0  0  0  0  0  0  0  0  0  0  0
    3.2383   18.1018    1.6583 H   0  0  0  0  0  0  0  0  0  0  0  0
    3.9641   16.8683    0.5728 H   0  0  0  0  0  0  0  0  0  0  0  0
    4.5978   18.5491    0.5728 H   0  0  0  0  0  0  0  0  0  0  0  0
    3.2623   18.4523   -1.3555 H   0  0  0  0  0  0  0  0  0  0  0  0
    2.7057   20.3561    0.2503 H   0  0  0  0  0  0  0  0  0  0  0  0
    1.4860   19.9571   -1.0521 H   0  0  0  0  0  0  0  0  0  0  0  0
    0.6871   18.4263    1.1328 H   0  0  0  0  0  0  0  0  0  0  0  0
    1.1809   20.0202    1.8414 H   0  0  0  0  0  0  0  0  0  0  0  0
    0.1153   20.7656   -0.2358 H   0  0  0  0  0  0  0  0  0  0  0  0
   -1.8158   17.7665    1.7724 H   0  0  0  0  0  0  0  0  0  0  0  0
   -2.7325   17.4631    0.2576 H   0  0  0  0  0  0  0  0  0  0  0  0
   -0.9390   17.3620    0.2576 H   0  0  0  0  0  0  0  0  0  0  0  0
   -3.6130   20.2886    0.0269 H   0  0  0  0  0  0  0  0  0  0  0  0
   -2.3642   20.6667   -1.2076 H   0  0  0  0  0  0  0  0  0  0  0  0
   -3.1700   19.0613   -1.2076 H   0  0  0  0  0  0  0  0  0  0  0  0
    1.4890   16.9311    0.4435 H   0  0  0  0  0  0  0  0  0  0  0  0
   -0.3745   17.9346   -0.7206 H   0  0  0  0  0  0  0  0  0  0  0  0
    0.6602   18.5010   -2.0490 H   0  0  0  0  0  0  0  0  0  0  0  0
   -1.1038   16.2550   -2.1589 H   0  0  0  0  0  0  0  0  0  0  0  0
    0.1722   16.5668   -3.3329 H   0  0  0  0  0  0  0  0  0  0  0  0
    0.5247   15.0918    0.4917 H   0  0  0  0  0  0  0  0  0  0  0  0
   -1.0151   15.2825   -0.4135 H   0  0  0  0  0  0  0  0  0  0  0  0
   -0.1631   13.7011   -0.4135 H   0  0  0  0  0  0  0  0  0  0  0  0
    1.4390   14.5118   -3.5330 H   0  0  0  0  0  0  0  0  0  0  0  0
   -1.0723   14.0559   -3.1788 H   0  0  0  0  0  0  0  0  0  0  0  0
   -0.0135   12.8770   -4.1162 H   0  0  0  0  0  0  0  0  0  0  0  0
   -1.7539   11.8113   -2.4490 H   0  0  0  0  0  0  0  0  0  0  0  0
    1.5053   12.4748   -0.1590 H   0  0  0  0  0  0  0  0  0  0  0  0
    2.3171   10.1259   -1.9811 H   0  0  0  0  0  0  0  0  0  0  0  0
    3.3432   10.9288   -0.7111 H   0  0  0  0  0  0  0  0  0  0  0  0
    2.4207    8.7676    0.0599 H   0  0  0  0  0  0  0  0  0  0  0  0
    1.8318   10.1734    1.0309 H   0  0  0  0  0  0  0  0  0  0  0  0
   -0.0139    8.6956    0.6159 H   0  0  0  0  0  0  0  0  0  0  0  0
    0.9460    7.7710   -1.3390 H   0  0  0  0  0  0  0  0  0  0  0  0
   -0.5809   10.4352    1.7962 H   0  0  0  0  0  0  0  0  0  0  0  0
   -0.1221   12.0262    1.0997 H   0  0  0  0  0  0  0  0  0  0  0  0
   -1.8421   11.5081    1.0997 H   0  0  0  0  0  0  0  0  0  0  0  0
   -2.5955    9.7480    0.0782 H   0  0  0  0  0  0  0  0  0  0  0  0
   -2.5063   10.7419   -1.4154 H   0  0  0  0  0  0  0  0  0  0  0  0
   -1.8711    9.0617   -1.4154 H   0  0  0  0  0  0  0  0  0  0  0  0
    3.2616   11.3968   -3.0805 H   0  0  0  0  0  0  0  0  0  0  0  0
    1.7911   11.8730   -3.9955 H   0  0  0  0  0  0  0  0  0  0  0  0
    3.2344   12.9423   -3.9955 H   0  0  0  0  0  0  0  0  0  0  0  0
    3.8123   12.9475   -0.8063 H   0  0  0  0  0  0  0  0  0  0  0  0
    3.9443   14.0390   -2.2984 H   0  0  0  0  0  0  0  0  0  0  0  0
    2.5264   14.6393    0.3123 H   0  0  0  0  0  0  0  0  0  0  0  0
    3.9907   15.4362   -0.3863 H   0  0  0  0  0  0  0  0  0  0  0  0
    3.8406   16.9311   -2.3418 H   0  0  0  0  0  0  0  0  0  0  0  0
    3.2144   15.5145   -3.2517 H   0  0  0  0  0  0  0  0  0  0  0  0
    2.2971   17.0590   -3.2517 H   0  0  0  0  0  0  0  0  0  0  0  0
  1  2  1  0
  2  3  1  0
  3  4  1  0
  4  5  1  0
  5  6  1  0
  6  7  1  0
  7  8  1  0
  7  9  1  0
  2 10  1  0
 10 11  1  0
 11 12  1  0
 12 13  1  0
 13 14  1  1
 13 15  1  0
 15 16  1  0
 16 17  1  0
 17 18  2  0
 18 19  1  0
 19 20  1  0
 20 21  1  0
 21 22  1  0
 22 23  1  0
 22 24  1  0
 24 25  1  0
 24 26  1  0
 19 27  1  0
 27 28  1  6
 27 29  1  0
 29 30  1  0
 30 31  1  0
 31 32  1  6
  7  5  1  0
 31 10  1  0
 31 13  1  0
 27 15  1  0
 24 18  1  0
  1 33  1  0
  1 34  1  0
  1 35  1  0
  2 36  1  6
  3 37  1  0
  3 38  1  0
  4 39  1  0
  4 40  1  0
  5 41  1  6
  8 42  1  0
  8 43  1  0
  8 44  1  0
  9 45  1  0
  9 46  1  0
  9 47  1  0
 10 48  1  1
 11 49  1  0
 11 50  1  0
 12 51  1  0
 12 52  1  0
 14 53  1  0
 14 54  1  0
 14 55  1  0
 15 56  1  6
 16 57  1  0
 16 58  1  0
 17 59  1  0
 19 60  1  1
 20 61  1  0
 20 62  1  0
 21 63  1  0
 21 64  1  0
 22 65  1  1
 23 66  1  0
 25 67  1  0
 25 68  1  0
 25 69  1  0
 26 70  1  0
 26 71  1  0
 26 72  1  0
 28 73  1  0
 28 74  1  0
 28 75  1  0
 29 76  1  0
 29 77  1  0
 30 78  1  0
 30 79  1  0
 32 80  1  0
 32 81  1  0
 32 82  1  0
M  END
>  <meeko>  (6) 
{"is_sidechain": [false], "intermolecular_energy": 2.731, "internal_energy": -0.839}

$$$$
EPH_relaxed_0001_pdb2pqr_Repair_17_r2_0001_out
     RDKit          3D

 82 86  0  0  0  0  0  0  0  0999 V2000
   -5.0470    5.9910   -1.8060 C   0  0  0  0  0  0  0  0  0  0  0  0
   -5.3990    7.4810   -1.8350 C   0  0  2  0  0  0  0  0  0  0  0  0
   -5.2000    8.1520   -0.4610 C   0  0  0  0  0  0  0  0  0  0  0  0
   -4.1180    9.2350   -0.4560 C   0  0  0  0  0  0  0  0  0  0  0  0
   -2.8000    8.7060   -0.9360 C   0  0  2  0  0  0  0  0  0  0  0  0
   -1.7060    8.9190   -0.0350 O   0  0  0  0  0  0  0  0  0  0  0  0
   -1.6250    9.5930   -1.3010 C   0  0  0  0  0  0  0  0  0  0  0  0
   -1.7130   11.0840   -1.2040 C   0  0  0  0  0  0  0  0  0  0  0  0
   -0.5700    9.0440   -2.2110 C   0  0  0  0  0  0  0  0  0  0  0  0
   -6.8380    7.6670   -2.3010 C   0  0  1  0  0  0  0  0  0  0  0  0
   -7.1260    6.9510   -3.6480 C   0  0  0  0  0  0  0  0  0  0  0  0
   -8.5890    6.4410   -3.5790 C   0  0  0  0  0  0  0  0  0  0  0  0
   -9.1950    7.1580   -2.3500 C   0  0  1  0  0  0  0  0  0  0  0  0
   -9.5820    8.5790   -2.8650 C   0  0  0  0  0  0  0  0  0  0  0  0
  -10.4030    6.4450   -1.6600 C   0  0  2  0  0  0  0  0  0  0  0  0
  -11.6530    6.2790   -2.5420 C   0  0  0  0  0  0  0  0  0  0  0  0
  -12.6360    7.4000   -2.4720 C   0  0  0  0  0  0  0  0  0  0  0  0
  -12.6650    8.3570   -1.5260 C   0  0  0  0  0  0  0  0  0  0  0  0
  -11.7000    8.3160   -0.3340 C   0  0  1  0  0  0  0  0  0  0  0  0
  -12.4830    8.5870    0.9770 C   0  0  0  0  0  0  0  0  0  0  0  0
  -13.2870    9.8820    0.9210 C   0  0  0  0  0  0  0  0  0  0  0  0
  -14.2760    9.8620   -0.2410 C   0  0  2  0  0  0  0  0  0  0  0  0
  -15.2680    8.8630    0.0160 O   0  0  0  0  0  0  0  0  0  0  0  0
  -13.6020    9.5870   -1.6140 C   0  0  0  0  0  0  0  0  0  0  0  0
  -12.7540   10.8140   -2.0330 C   0  0  0  0  0  0  0  0  0  0  0  0
  -14.7240    9.4520   -2.6790 C   0  0  0  0  0  0  0  0  0  0  0  0
  -10.7730    7.0280   -0.2370 C   0  0  1  0  0  0  0  0  0  0  0  0
  -11.5190    5.8930    0.5290 C   0  0  0  0  0  0  0  0  0  0  0  0
   -9.4980    7.3760    0.6180 C   0  0  0  0  0  0  0  0  0  0  0  0
   -8.2940    7.9670   -0.1400 C   0  0  0  0  0  0  0  0  0  0  0  0
   -7.9600    7.1280   -1.3780 C   0  0  2  0  0  0  0  0  0  0  0  0
   -7.5440    5.6980   -0.8890 C   0  0  0  0  0  0  0  0  0  0  0  0
   -4.9672    5.6533   -0.7622 H   0  0  0  0  0  0  0  0  0  0  0  0
   -5.8345    5.4182   -2.3175 H   0  0  0  0  0  0  0  0  0  0  0  0
   -4.0864    5.8312   -2.3175 H   0  0  0  0  0  0  0  0  0  0  0  0
   -4.7129    7.9684   -2.5433 H   0  0  0  0  0  0  0  0  0  0  0  0
   -6.1524    8.6112   -0.1576 H   0  0  0  0  0  0  0  0  0  0  0  0
   -4.8720    7.3666    0.2358 H   0  0  0  0  0  0  0  0  0  0  0  0
   -4.4335   10.0569   -1.1155 H   0  0  0  0  0  0  0  0  0  0  0  0
   -3.9897    9.5860    0.5786 H   0  0  0  0  0  0  0  0  0  0  0  0
   -3.2982    7.8845   -1.4716 H   0  0  0  0  0  0  0  0  0  0  0  0
   -1.7306   11.3822   -0.1453 H   0  0  0  0  0  0  0  0  0  0  0  0
   -0.8400   11.5357   -1.6977 H   0  0  0  0  0  0  0  0  0  0  0  0
   -2.6331   11.4299   -1.6977 H   0  0  0  0  0  0  0  0  0  0  0  0
    0.2474    8.6187   -1.6102 H   0  0  0  0  0  0  0  0  0  0  0  0
   -1.0058    8.2583   -2.8456 H   0  0  0  0  0  0  0  0  0  0  0  0
   -0.1766    9.8518   -2.8456 H   0  0  0  0  0  0  0  0  0  0  0  0
   -6.8789    8.7655   -2.3408 H   0  0  0  0  0  0  0  0  0  0  0  0
   -7.0095    7.6560   -4.4843 H   0  0  0  0  0  0  0  0  0  0  0  0
   -6.4248    6.1193   -3.8113 H   0  0  0  0  0  0  0  0  0  0  0  0
   -9.1372    6.7090   -4.4942 H   0  0  0  0  0  0  0  0  0  0  0  0
   -8.6452    5.3458   -3.4925 H   0  0  0  0  0  0  0  0  0  0  0  0
   -9.7629    9.2432   -2.0071 H   0  0  0  0  0  0  0  0  0  0  0  0
   -8.7614    8.9838   -3.4755 H   0  0  0  0  0  0  0  0  0  0  0  0
  -10.4946    8.5118   -3.4755 H   0  0  0  0  0  0  0  0  0  0  0  0
  -10.0152    5.4286   -1.4971 H   0  0  0  0  0  0  0  0  0  0  0  0
  -11.3216    6.1822   -3.5864 H   0  0  0  0  0  0  0  0  0  0  0  0
  -12.1777    5.3900   -2.1621 H   0  0  0  0  0  0  0  0  0  0  0  0
  -13.4016    7.4481   -3.2604 H   0  0  0  0  0  0  0  0  0  0  0  0
  -10.9709    9.1217   -0.5053 H   0  0  0  0  0  0  0  0  0  0  0  0
  -13.1745    7.7500    1.1542 H   0  0  0  0  0  0  0  0  0  0  0  0
  -11.7488    8.6847    1.7903 H   0  0  0  0  0  0  0  0  0  0  0  0
  -13.8416   10.0021    1.8633 H   0  0  0  0  0  0  0  0  0  0  0  0
  -12.5906   10.7207    0.7740 H   0  0  0  0  0  0  0  0  0  0  0  0
  -14.7273   10.8629   -0.3078 H   0  0  0  0  0  0  0  0  0  0  0  0
  -14.8560    8.1720    0.5610 H   0  0  0  0  0  0  0  0  0  0  0  0
  -12.3938   11.3351   -1.1337 H   0  0  0  0  0  0  0  0  0  0  0  0
  -11.8942   10.4784   -2.6314 H   0  0  0  0  0  0  0  0  0  0  0  0
  -13.3719   11.4997   -2.6314 H   0  0  0  0  0  0  0  0  0  0  0  0
  -15.6951    9.3352   -2.1757 H   0  0  0  0  0  0  0  0  0  0  0  0
  -14.7431   10.3543   -3.3078 H   0  0  0  0  0  0  0  0  0  0  0  0
  -14.5286    8.5709   -3.3078 H   0  0  0  0  0  0  0  0  0  0  0  0
  -11.4146    6.0518    1.6125 H   0  0  0  0  0  0  0  0  0  0  0  0
  -12.5849    5.9066    0.2575 H   0  0  0  0  0  0  0  0  0  0  0  0
  -11.0838    4.9199    0.2575 H   0  0  0  0  0  0  0  0  0  0  0  0
   -9.7998    8.1055    1.3840 H   0  0  0  0  0  0  0  0  0  0  0  0
   -9.1446    6.4123    1.0135 H   0  0  0  0  0  0  0  0  0  0  0  0
   -8.5354    8.9929   -0.4550 H   0  0  0  0  0  0  0  0  0  0  0  0
   -7.4221    7.9653    0.5306 H   0  0  0  0  0  0  0  0  0  0  0  0
   -7.5371    5.6742    0.2107 H   0  0  0  0  0  0  0  0  0  0  0  0
   -8.2639    4.9573   -1.2673 H   0  0  0  0  0  0  0  0  0  0  0  0
   -6.5391    5.4590   -1.2673 H   0  0  0  0  0  0  0  0  0  0  0  0
  1  2  1  0
  2  3  1  0
  3  4  1  0
  4  5  1  0
  5  6  1  0
  6  7  1  0
  7  8  1  0
  7  9  1  0
  2 10  1  0
 10 11  1  0
 11 12  1  0
 12 13  1  0
 13 14  1  6
 13 15  1  0
 15 16  1  0
 16 17  1  0
 17 18  2  0
 18 19  1  0
 19 20  1  0
 20 21  1  0
 21 22  1  0
 22 23  1  0
 22 24  1  0
 24 25  1  0
 24 26  1  0
 19 27  1  0
 27 28  1  1
 27 29  1  0
 29 30  1  0
 30 31  1  0
 31 32  1  1
  7  5  1  0
 31 10  1  0
 31 13  1  0
 27 15  1  0
 24 18  1  0
  1 33  1  0
  1 34  1  0
  1 35  1  0
  2 36  1  6
  3 37  1  0
  3 38  1  0
  4 39  1  0
  4 40  1  0
  5 41  1  6
  8 42  1  0
  8 43  1  0
  8 44  1  0
  9 45  1  0
  9 46  1  0
  9 47  1  0
 10 48  1  6
 11 49  1  0
 11 50  1  0
 12 51  1  0
 12 52  1  0
 14 53  1  0
 14 54  1  0
 14 55  1  0
 15 56  1  1
 16 57  1  0
 16 58  1  0
 17 59  1  0
 19 60  1  6
 20 61  1  0
 20 62  1  0
 21 63  1  0
 21 64  1  0
 22 65  1  6
 23 66  1  0
 25 67  1  0
 25 68  1  0
 25 69  1  0
 26 70  1  0
 26 71  1  0
 26 72  1  0
 28 73  1  0
 28 74  1  0
 28 75  1  0
 29 76  1  0
 29 77  1  0
 30 78  1  0
 30 79  1  0
 32 80  1  0
 32 81  1  0
 32 82  1  0
M  END
>  <meeko>  (7) 
{"is_sidechain": [false], "intermolecular_energy": 2.731, "internal_energy": -0.839}

$$$$
EPH_relaxed_0001_pdb2pqr_Repair_17_r2_0001_out
     RDKit          3D

 82 86  0  0  0  0  0  0  0  0999 V2000
    0.4420    8.8190   -2.3860 C   0  0  0  0  0  0  0  0  0  0  0  0
    1.1870    9.9630   -3.0780 C   0  0  2  0  0  0  0  0  0  0  0  0
    2.6870    9.9800   -2.7180 C   0  0  0  0  0  0  0  0  0  0  0  0
    3.5730   10.5960   -3.8040 C   0  0  0  0  0  0  0  0  0  0  0  0
    4.9700   10.8270   -3.3150 C   0  0  2  0  0  0  0  0  0  0  0  0
    5.5690   12.0480   -3.7680 O   0  0  0  0  0  0  0  0  0  0  0  0
    6.1850   10.8320   -4.2230 C   0  0  0  0  0  0  0  0  0  0  0  0
    6.0590   10.6010   -5.6970 C   0  0  0  0  0  0  0  0  0  0  0  0
    7.5310   10.5760   -3.6200 C   0  0  0  0  0  0  0  0  0  0  0  0
    0.5480   11.2970   -2.7100 C   0  0  1  0  0  0  0  0  0  0  0  0
   -0.8300   11.1280   -2.0160 C   0  0  0  0  0  0  0  0  0  0  0  0
   -0.9470   12.2660   -0.9710 C   0  0  0  0  0  0  0  0  0  0  0  0
    0.2030   13.2390   -1.3220 C   0  0  1  0  0  0  0  0  0  0  0  0
   -0.3440   14.0980   -2.5040 C   0  0  0  0  0  0  0  0  0  0  0  0
    0.7320   14.1340   -0.1540 C   0  0  2  0  0  0  0  0  0  0  0  0
   -0.2990   15.1100    0.4380 C   0  0  0  0  0  0  0  0  0  0  0  0
   -0.3410   16.4580   -0.2020 C   0  0  0  0  0  0  0  0  0  0  0  0
    0.6020   16.9680   -1.0160 C   0  0  0  0  0  0  0  0  0  0  0  0
    1.9030   16.2030   -1.2890 C   0  0  1  0  0  0  0  0  0  0  0  0
    3.1100   17.1690   -1.1560 C   0  0  0  0  0  0  0  0  0  0  0  0
    2.9660   18.4090   -2.0340 C   0  0  0  0  0  0  0  0  0  0  0  0
    1.6900   19.1740   -1.6930 C   0  0  2  0  0  0  0  0  0  0  0  0
    1.8140   19.7110   -0.3730 O   0  0  0  0  0  0  0  0  0  0  0  0
    0.4080   18.2990   -1.7830 C   0  0  0  0  0  0  0  0  0  0  0  0
    0.1080   17.9660   -3.2650 C   0  0  0  0  0  0  0  0  0  0  0  0
   -0.7880   19.1510   -1.2790 C   0  0  0  0  0  0  0  0  0  0  0  0
    2.1040   14.8590   -0.4640 C   0  0  1  0  0  0  0  0  0  0  0  0
    2.7620   15.1740    0.9140 C   0  0  0  0  0  0  0  0  0  0  0  0
    3.1130   13.9280   -1.2350 C   0  0  0  0  0  0  0  0  0  0  0  0
    2.5140   12.9810   -2.2930 C   0  0  0  0  0  0  0  0  0  0  0  0
    1.3210   12.2080   -1.7230 C   0  0  2  0  0  0  0  0  0  0  0  0
    1.8450   11.3170   -0.5460 C   0  0  0  0  0  0  0  0  0  0  0  0
    0.5194    8.9379   -1.2952 H   0  0  0  0  0  0  0  0  0  0  0  0
   -0.6170    8.8386   -2.6827 H   0  0  0  0  0  0  0  0  0  0  0  0
    0.8882    7.8584   -2.6827 H   0  0  0  0  0  0  0  0  0  0  0  0
    1.1093    9.8005   -4.1632 H   0  0  0  0  0  0  0  0  0  0  0  0
    2.8158   10.5617   -1.7933 H   0  0  0  0  0  0  0  0  0  0  0  0
    3.0019    8.9324   -2.6018 H   0  0  0  0  0  0  0  0  0  0  0  0
    3.6055    9.9142   -4.6666 H   0  0  0  0  0  0  0  0  0  0  0  0
    3.1434   11.5686   -4.0859 H   0  0  0  0  0  0  0  0  0  0  0  0
    4.7533   10.2967   -2.3759 H   0  0  0  0  0  0  0  0  0  0  0  0
    5.5393    9.6481   -5.8757 H   0  0  0  0  0  0  0  0  0  0  0  0
    5.4841   11.4227   -6.1491 H   0  0  0  0  0  0  0  0  0  0  0  0
    7.0611   10.5625   -6.1491 H   0  0  0  0  0  0  0  0  0  0  0  0
    7.4503   10.5914   -2.5231 H   0  0  0  0  0  0  0  0  0  0  0  0
    7.8981    9.5919   -3.9469 H   0  0  0  0  0  0  0  0  0  0  0  0
    8.2337   11.3566   -3.9469 H   0  0  0  0  0  0  0  0  0  0  0  0
    0.5123   11.7649   -3.7049 H   0  0  0  0  0  0  0  0  0  0  0  0
   -1.6395   11.2090   -2.7564 H   0  0  0  0  0  0  0  0  0  0  0  0
   -0.9122   10.1415   -1.5364 H   0  0  0  0  0  0  0  0  0  0  0  0
   -1.9211   12.7703   -1.0537 H   0  0  0  0  0  0  0  0  0  0  0  0
   -0.8767   11.8927    0.0613 H   0  0  0  0  0  0  0  0  0  0  0  0
   -0.8946   14.9626   -2.1048 H   0  0  0  0  0  0  0  0  0  0  0  0
    0.4960   14.4509   -3.1203 H   0  0  0  0  0  0  0  0  0  0  0  0
   -1.0191   13.4861   -3.1203 H   0  0  0  0  0  0  0  0  0  0  0  0
    0.9327   13.3964    0.6370 H   0  0  0  0  0  0  0  0  0  0  0  0
   -1.2952   14.6546    0.3372 H   0  0  0  0  0  0  0  0  0  0  0  0
    0.0049   15.2778    1.4818 H   0  0  0  0  0  0  0  0  0  0  0  0
   -1.2173   17.0883    0.0096 H   0  0  0  0  0  0  0  0  0  0  0  0
    1.8289   15.8381   -2.3241 H   0  0  0  0  0  0  0  0  0  0  0  0
    3.1927   17.4877   -0.1064 H   0  0  0  0  0  0  0  0  0  0  0  0
    4.0089   16.6280   -1.4866 H   0  0  0  0  0  0  0  0  0  0  0  0
    3.8334   19.0662   -1.8737 H   0  0  0  0  0  0  0  0  0  0  0  0
    2.9138   18.0903   -3.0855 H   0  0  0  0  0  0  0  0  0  0  0  0
    1.5759   19.9745   -2.4388 H   0  0  0  0  0  0  0  0  0  0  0  0
    1.0020   20.2100   -0.1810 H   0  0  0  0  0  0  0  0  0  0  0  0
   -0.6275   17.1496   -3.3157 H   0  0  0  0  0  0  0  0  0  0  0  0
   -0.2981   18.8571   -3.7661 H   0  0  0  0  0  0  0  0  0  0  0  0
    1.0365   17.6547   -3.7661 H   0  0  0  0  0  0  0  0  0  0  0  0
   -0.7963   19.1569   -0.1790 H   0  0  0  0  0  0  0  0  0  0  0  0
   -0.6865   20.1814   -1.6504 H   0  0  0  0  0  0  0  0  0  0  0  0
   -1.7287   18.7184   -1.6504 H   0  0  0  0  0  0  0  0  0  0  0  0
    2.0900   14.8523    1.7233 H   0  0  0  0  0  0  0  0  0  0  0  0
    3.7179   14.6359    0.9954 H   0  0  0  0  0  0  0  0  0  0  0  0
    2.9423   16.2561    0.9954 H   0  0  0  0  0  0  0  0  0  0  0  0
    3.8423   14.5761   -1.7431 H   0  0  0  0  0  0  0  0  0  0  0  0
    3.5407   13.2676   -0.4663 H   0  0  0  0  0  0  0  0  0  0  0  0
    2.1795   13.5729   -3.1577 H   0  0  0  0  0  0  0  0  0  0  0  0
    3.2871   12.2597   -2.5965 H   0  0  0  0  0  0  0  0  0  0  0  0
    1.5726   11.7801    0.4139 H   0  0  0  0  0  0  0  0  0  0  0  0
    1.3910   10.3173   -0.6127 H   0  0  0  0  0  0  0  0  0  0  0  0
    2.9394   11.2279   -0.6127 H   0  0  0  0  0  0  0  0  0  0  0  0
  1  2  1  0
  2  3  1  0
  3  4  1  0
  4  5  1  0
  5  6  1  0
  6  7  1  0
  7  8  1  0
  7  9  1  0
  2 10  1  0
 10 11  1  0
 11 12  1  0
 12 13  1  0
 13 14  1  6
 13 15  1  0
 15 16  1  0
 16 17  1  0
 17 18  2  0
 18 19  1  0
 19 20  1  0
 20 21  1  0
 21 22  1  0
 22 23  1  0
 22 24  1  0
 24 25  1  0
 24 26  1  0
 19 27  1  0
 27 28  1  1
 27 29  1  0
 29 30  1  0
 30 31  1  0
 31 32  1  1
  7  5  1  0
 31 10  1  0
 31 13  1  0
 27 15  1  0
 24 18  1  0
  1 33  1  0
  1 34  1  0
  1 35  1  0
  2 36  1  6
  3 37  1  0
  3 38  1  0
  4 39  1  0
  4 40  1  0
  5 41  1  1
  8 42  1  0
  8 43  1  0
  8 44  1  0
  9 45  1  0
  9 46  1  0
  9 47  1  0
 10 48  1  6
 11 49  1  0
 11 50  1  0
 12 51  1  0
 12 52  1  0
 14 53  1  0
 14 54  1  0
 14 55  1  0
 15 56  1  1
 16 57  1  0
 16 58  1  0
 17 59  1  0
 19 60  1  6
 20 61  1  0
 20 62  1  0
 21 63  1  0
 21 64  1  0
 22 65  1  6
 23 66  1  0
 25 67  1  0
 25 68  1  0
 25 69  1  0
 26 70  1  0
 26 71  1  0
 26 72  1  0
 28 73  1  0
 28 74  1  0
 28 75  1  0
 29 76  1  0
 29 77  1  0
 30 78  1  0
 30 79  1  0
 32 80  1  0
 32 81  1  0
 32 82  1  0
M  END
>  <meeko>  (8) 
{"is_sidechain": [false], "intermolecular_energy": 2.731, "internal_energy": -0.839}

$$$$
EPH_relaxed_0001_pdb2pqr_Repair_17_r2_0001_out
     RDKit          3D

 82 86  0  0  0  0  0  0  0  0999 V2000
    3.0160   18.6840   -0.9960 C   0  0  0  0  0  0  0  0  0  0  0  0
    2.7550   17.6410   -2.0870 C   0  0  2  0  0  0  0  0  0  0  0  0
    1.3960   17.8570   -2.7830 C   0  0  0  0  0  0  0  0  0  0  0  0
    0.7270   19.1880   -2.4290 C   0  0  0  0  0  0  0  0  0  0  0  0
   -0.6210   18.9820   -1.8070 C   0  0  2  0  0  0  0  0  0  0  0  0
   -1.2910   20.1890   -1.4190 O   0  0  0  0  0  0  0  0  0  0  0  0
   -0.9280   19.2940   -0.3540 C   0  0  0  0  0  0  0  0  0  0  0  0
    0.1200   19.8370    0.5660 C   0  0  0  0  0  0  0  0  0  0  0  0
   -2.0980   18.6190    0.2900 C   0  0  0  0  0  0  0  0  0  0  0  0
    2.8190   16.2400   -1.4910 C   0  0  1  0  0  0  0  0  0  0  0  0
    3.4170   16.2260   -0.0590 C   0  0  0  0  0  0  0  0  0  0  0  0
    2.6740   15.1140    0.7260 C   0  0  0  0  0  0  0  0  0  0  0  0
    1.9180   14.3110   -0.3580 C   0  0  1  0  0  0  0  0  0  0  0  0
    2.9860   13.3460   -0.9610 C   0  0  0  0  0  0  0  0  0  0  0  0
    0.6450   13.5380    0.1170 C   0  0  2  0  0  0  0  0  0  0  0  0
    0.9010   12.4390    1.1630 C   0  0  0  0  0  0  0  0  0  0  0  0
    1.1750   11.0810    0.6080 C   0  0  0  0  0  0  0  0  0  0  0  0
    0.9350   10.6910   -0.6580 C   0  0  0  0  0  0  0  0  0  0  0  0
    0.2410   11.6300   -1.6530 C   0  0  1  0  0  0  0  0  0  0  0  0
   -0.8720   10.8540   -2.4060 C   0  0  0  0  0  0  0  0  0  0  0  0
   -0.3530    9.5820   -3.0690 C   0  0  0  0  0  0  0  0  0  0  0  0
    0.2780    8.6490   -2.0390 C   0  0  2  0  0  0  0  0  0  0  0  0
   -0.7460    8.1750   -1.1580 O   0  0  0  0  0  0  0  0  0  0  0  0
    1.4070    9.3230   -1.2110 C   0  0  0  0  0  0  0  0  0  0  0  0
    2.6420    9.5640   -2.1150 C   0  0  0  0  0  0  0  0  0  0  0  0
    1.8600    8.3210   -0.1160 C   0  0  0  0  0  0  0  0  0  0  0  0
   -0.2720   13.0120   -1.0610 C   0  0  1  0  0  0  0  0  0  0  0  0
   -1.7030   12.8380   -0.4670 C   0  0  0  0  0  0  0  0  0  0  0  0
   -0.4010   14.0570   -2.2310 C   0  0  0  0  0  0  0  0  0  0  0  0
    0.8590   14.8750   -2.5740 C   0  0  0  0  0  0  0  0  0  0  0  0
    1.4800   15.4810   -1.3120 C   0  0  2  0  0  0  0  0  0  0  0  0
    0.4360   16.4740   -0.6950 C   0  0  0  0  0  0  0  0  0  0  0  0
    2.8992   18.2171   -0.0069 H   0  0  0  0  0  0  0  0  0  0  0  0
    4.0394   19.0739   -1.0988 H   0  0  0  0  0  0  0  0  0  0  0  0
    2.2969   19.5100   -1.0988 H   0  0  0  0  0  0  0  0  0  0  0  0
    3.5384   17.7562   -2.8506 H   0  0  0  0  0  0  0  0  0  0  0  0
    1.5546   17.8268   -3.8711 H   0  0  0  0  0  0  0  0  0  0  0  0
    0.7257   17.0578   -2.4338 H   0  0  0  0  0  0  0  0  0  0  0  0
    1.3679   19.7316   -1.7193 H   0  0  0  0  0  0  0  0  0  0  0  0
    0.5924   19.7621   -3.3576 H   0  0  0  0  0  0  0  0  0  0  0  0
   -0.7947   18.0864   -2.4216 H   0  0  0  0  0  0  0  0  0  0  0  0
   -0.1893   19.6767    1.6094 H   0  0  0  0  0  0  0  0  0  0  0  0
    1.0730   19.3192    0.3824 H   0  0  0  0  0  0  0  0  0  0  0  0
    0.2466   20.9142    0.3824 H   0  0  0  0  0  0  0  0  0  0  0  0
   -1.9981   18.6766    1.3839 H   0  0  0  0  0  0  0  0  0  0  0  0
   -3.0268   19.1200   -0.0203 H   0  0  0  0  0  0  0  0  0  0  0  0
   -2.1292   17.5641   -0.0203 H   0  0  0  0  0  0  0  0  0  0  0  0
    3.4343   15.7432   -2.2556 H   0  0  0  0  0  0  0  0  0  0  0  0
    4.4938   16.0053   -0.1005 H   0  0  0  0  0  0  0  0  0  0  0  0
    3.2938   17.2037    0.4297 H   0  0  0  0  0  0  0  0  0  0  0  0
    3.3895   14.4700    1.2583 H   0  0  0  0  0  0  0  0  0  0  0  0
    1.9971   15.5236    1.4902 H   0  0  0  0  0  0  0  0  0  0  0  0
    3.5343   12.8506   -0.1461 H   0  0  0  0  0  0  0  0  0  0  0  0
    2.4861   12.5872   -1.5810 H   0  0  0  0  0  0  0  0  0  0  0  0
    3.6904   13.9200   -1.5810 H   0  0  0  0  0  0  0  0  0  0  0  0
    0.0758   14.3210    0.6393 H   0  0  0  0  0  0  0  0  0  0  0  0
    1.7693   12.7406    1.7672 H   0  0  0  0  0  0  0  0  0  0  0  0
   -0.0295   12.3484    1.7426 H   0  0  0  0  0  0  0  0  0  0  0  0
    1.6096   10.3361    1.2908 H   0  0  0  0  0  0  0  0  0  0  0  0
    1.0186   11.9504   -2.3620 H   0  0  0  0  0  0  0  0  0  0  0  0
   -1.6592   10.5812   -1.6877 H   0  0  0  0  0  0  0  0  0  0  0  0
   -1.2577   11.5105   -3.1999 H   0  0  0  0  0  0  0  0  0  0  0  0
   -1.1905    9.0638   -3.5589 H   0  0  0  0  0  0  0  0  0  0  0  0
    0.4131    9.8586   -3.8083 H   0  0  0  0  0  0  0  0  0  0  0  0
    0.7454    7.8191   -2.5893 H   0  0  0  0  0  0  0  0  0  0  0  0
   -1.1020    8.9430   -0.6800 H   0  0  0  0  0  0  0  0  0  0  0  0
    3.5282    9.7369   -1.4867 H   0  0  0  0  0  0  0  0  0  0  0  0
    2.8093    8.6816   -2.7501 H   0  0  0  0  0  0  0  0  0  0  0  0
    2.4653   10.4446   -2.7501 H   0  0  0  0  0  0  0  0  0  0  0  0
    1.6656    8.7511    0.8776 H   0  0  0  0  0  0  0  0  0  0  0  0
    1.2994    7.3809   -0.2247 H   0  0  0  0  0  0  0  0  0  0  0  0
    2.9362    8.1208   -0.2247 H   0  0  0  0  0  0  0  0  0  0  0  0
   -1.6473   12.8448    0.6316 H   0  0  0  0  0  0  0  0  0  0  0  0
   -2.3441   13.6648   -0.8067 H   0  0  0  0  0  0  0  0  0  0  0  0
   -2.1272   11.8817   -0.8067 H   0  0  0  0  0  0  0  0  0  0  0  0
   -0.6979   13.5077   -3.1366 H   0  0  0  0  0  0  0  0  0  0  0  0
   -1.1361   14.7952   -1.8779 H   0  0  0  0  0  0  0  0  0  0  0  0
    1.5956   14.2158   -3.0565 H   0  0  0  0  0  0  0  0  0  0  0  0
    0.5723   15.6931   -3.2512 H   0  0  0  0  0  0  0  0  0  0  0  0
    0.4876   16.4249    0.4027 H   0  0  0  0  0  0  0  0  0  0  0  0
    0.6629   17.4978   -1.0273 H   0  0  0  0  0  0  0  0  0  0  0  0
   -0.5751   16.1962   -1.0273 H   0  0  0  0  0  0  0  0  0  0  0  0
  1  2  1  0
  2  3  1  0
  3  4  1  0
  4  5  1  0
  5  6  1  0
  6  7  1  0
  7  8  1  0
  7  9  1  0
  2 10  1  0
 10 11  1  0
 11 12  1  0
 12 13  1  0
 13 14  1  6
 13 15  1  0
 15 16  1  0
 16 17  1  0
 17 18  2  0
 18 19  1  0
 19 20  1  0
 20 21  1  0
 21 22  1  0
 22 23  1  0
 22 24  1  0
 24 25  1  0
 24 26  1  0
 19 27  1  0
 27 28  1  1
 27 29  1  0
 29 30  1  0
 30 31  1  0
 31 32  1  1
  7  5  1  0
 31 10  1  0
 31 13  1  0
 27 15  1  0
 24 18  1  0
  1 33  1  0
  1 34  1  0
  1 35  1  0
  2 36  1  6
  3 37  1  0
  3 38  1  0
  4 39  1  0
  4 40  1  0
  5 41  1  6
  8 42  1  0
  8 43  1  0
  8 44  1  0
  9 45  1  0
  9 46  1  0
  9 47  1  0
 10 48  1  6
 11 49  1  0
 11 50  1  0
 12 51  1  0
 12 52  1  0
 14 53  1  0
 14 54  1  0
 14 55  1  0
 15 56  1  1
 16 57  1  0
 16 58  1  0
 17 59  1  0
 19 60  1  6
 20 61  1  0
 20 62  1  0
 21 63  1  0
 21 64  1  0
 22 65  1  6
 23 66  1  0
 25 67  1  0
 25 68  1  0
 25 69  1  0
 26 70  1  0
 26 71  1  0
 26 72  1  0
 28 73  1  0
 28 74  1  0
 28 75  1  0
 29 76  1  0
 29 77  1  0
 30 78  1  0
 30 79  1  0
 32 80  1  0
 32 81  1  0
 32 82  1  0
M  END
>  <meeko>  (9) 
{"is_sidechain": [false], "intermolecular_energy": 2.731, "internal_energy": -0.839}

$$$$
EPH_relaxed_0001_pdb2pqr_Repair_17_r2_0001_out
     RDKit          3D

 82 86  0  0  0  0  0  0  0  0999 V2000
   -1.0110   16.3980   -5.9070 C   0  0  0  0  0  0  0  0  0  0  0  0
    0.1200   15.7240   -6.6910 C   0  0  2  0  0  0  0  0  0  0  0  0
   -0.2440   15.5220   -8.1750 C   0  0  0  0  0  0  0  0  0  0  0  0
    0.4290   16.5260   -9.1160 C   0  0  0  0  0  0  0  0  0  0  0  0
    1.8350   16.1230   -9.4420 C   0  0  2  0  0  0  0  0  0  0  0  0
    2.3500   16.6770  -10.6600 O   0  0  0  0  0  0  0  0  0  0  0  0
    2.2020   15.2480  -10.6260 C   0  0  0  0  0  0  0  0  0  0  0  0
    1.1580   14.7220  -11.5610 C   0  0  0  0  0  0  0  0  0  0  0  0
    3.5030   14.5080  -10.5940 C   0  0  0  0  0  0  0  0  0  0  0  0
    0.4680   14.3850   -6.0520 C   0  0  1  0  0  0  0  0  0  0  0  0
    1.6730   13.6910   -6.7400 C   0  0  0  0  0  0  0  0  0  0  0  0
    2.4570   12.9480   -5.6280 C   0  0  0  0  0  0  0  0  0  0  0  0
    1.5070   12.9600   -4.4070 C   0  0  1  0  0  0  0  0  0  0  0  0
    0.5100   11.7860   -4.6630 C   0  0  0  0  0  0  0  0  0  0  0  0
    2.1840   12.8460   -3.0030 C   0  0  2  0  0  0  0  0  0  0  0  0
    2.9550   11.5370   -2.7550 C   0  0  0  0  0  0  0  0  0  0  0  0
    2.1560   10.4320   -2.1480 C   0  0  0  0  0  0  0  0  0  0  0  0
    0.9560   10.5690   -1.5540 C   0  0  0  0  0  0  0  0  0  0  0  0
    0.3260   11.9540   -1.3620 C   0  0  1  0  0  0  0  0  0  0  0  0
   -0.2110   12.0820    0.0880 C   0  0  0  0  0  0  0  0  0  0  0  0
   -1.1640   10.9510    0.4610 C   0  0  0  0  0  0  0  0  0  0  0  0
   -0.4830    9.5930    0.3130 C   0  0  2  0  0  0  0  0  0  0  0  0
    0.5580    9.4900    1.2900 O   0  0  0  0  0  0  0  0  0  0  0  0
    0.1060    9.3540   -1.1060 C   0  0  0  0  0  0  0  0  0  0  0  0
   -1.0470    9.1650   -2.1220 C   0  0  0  0  0  0  0  0  0  0  0  0
    0.8860    8.0120   -1.0790 C   0  0  0  0  0  0  0  0  0  0  0  0
    1.2270   13.1910   -1.7910 C   0  0  1  0  0  0  0  0  0  0  0  0
    2.1450   13.6170   -0.6050 C   0  0  0  0  0  0  0  0  0  0  0  0
    0.2960   14.4240   -2.0970 C   0  0  0  0  0  0  0  0  0  0  0  0
   -0.2460   14.5460   -3.5340 C   0  0  0  0  0  0  0  0  0  0  0  0
    0.8820   14.3950   -4.5590 C   0  0  2  0  0  0  0  0  0  0  0  0
    1.8890   15.5750   -4.3410 C   0  0  0  0  0  0  0  0  0  0  0  0
   -0.8258   16.2876   -4.8283 H   0  0  0  0  0  0  0  0  0  0  0  0
   -1.0498   17.4666   -6.1649 H   0  0  0  0  0  0  0  0  0  0  0  0
   -1.9693   15.9236   -6.1649 H   0  0  0  0  0  0  0  0  0  0  0  0
    0.9936   16.3914   -6.6537 H   0  0  0  0  0  0  0  0  0  0  0  0
    0.0617   14.5081   -8.4727 H   0  0  0  0  0  0  0  0  0  0  0  0
   -1.3296   15.6759   -8.2637 H   0  0  0  0  0  0  0  0  0  0  0  0
   -0.1507   16.5841  -10.0490 H   0  0  0  0  0  0  0  0  0  0  0  0
    0.4605   17.5023   -8.6103 H   0  0  0  0  0  0  0  0  0  0  0  0
    2.0901   16.0635   -8.3736 H   0  0  0  0  0  0  0  0  0  0  0  0
    0.3238   14.3017  -10.9801 H   0  0  0  0  0  0  0  0  0  0  0  0
    0.7874   15.5410  -12.1950 H   0  0  0  0  0  0  0  0  0  0  0  0
    1.5956   13.9368  -12.1950 H   0  0  0  0  0  0  0  0  0  0  0  0
    3.8024   14.3377   -9.5493 H   0  0  0  0  0  0  0  0  0  0  0  0
    3.3872   13.5406  -11.1046 H   0  0  0  0  0  0  0  0  0  0  0  0
    4.2753   15.1020  -11.1046 H   0  0  0  0  0  0  0  0  0  0  0  0
   -0.4955   13.8678   -6.1711 H   0  0  0  0  0  0  0  0  0  0  0  0
    1.3169   12.9749   -7.4952 H   0  0  0  0  0  0  0  0  0  0  0  0
    2.3130   14.4259   -7.2503 H   0  0  0  0  0  0  0  0  0  0  0  0
    2.6822   11.9159   -5.9348 H   0  0  0  0  0  0  0  0  0  0  0  0
    3.4239   13.4247   -5.4093 H   0  0  0  0  0  0  0  0  0  0  0  0
    0.1658   11.3807   -3.7001 H   0  0  0  0  0  0  0  0  0  0  0  0
   -0.3537   12.1565   -5.2346 H   0  0  0  0  0  0  0  0  0  0  0  0
    1.0155   10.9937   -5.2346 H   0  0  0  0  0  0  0  0  0  0  0  0
    2.9453   13.6389   -3.0437 H   0  0  0  0  0  0  0  0  0  0  0  0
    3.3447   11.1837   -3.7211 H   0  0  0  0  0  0  0  0  0  0  0  0
    3.7414   11.7804   -2.0254 H   0  0  0  0  0  0  0  0  0  0  0  0
    2.5843    9.4197   -2.1897 H   0  0  0  0  0  0  0  0  0  0  0  0
   -0.5094   12.0099   -2.0755 H   0  0  0  0  0  0  0  0  0  0  0  0
    0.6420   12.0678    0.7824 H   0  0  0  0  0  0  0  0  0  0  0  0
   -0.7714   13.0262    0.1543 H   0  0  0  0  0  0  0  0  0  0  0  0
   -1.4855   11.0807    1.5049 H   0  0  0  0  0  0  0  0  0  0  0  0
   -2.0308   10.9847   -0.2153 H   0  0  0  0  0  0  0  0  0  0  0  0
   -1.2507    8.8206    0.4678 H   0  0  0  0  0  0  0  0  0  0  0  0
    1.1080   10.2890    1.2190 H   0  0  0  0  0  0  0  0  0  0  0  0
   -1.9916    9.0102   -1.5800 H   0  0  0  0  0  0  0  0  0  0  0  0
   -1.1296   10.0616   -2.7539 H   0  0  0  0  0  0  0  0  0  0  0  0
   -0.8390    8.2890   -2.7539 H   0  0  0  0  0  0  0  0  0  0  0  0
    1.0612    7.7106   -0.0357 H   0  0  0  0  0  0  0  0  0  0  0  0
    0.2982    7.2359   -1.5911 H   0  0  0  0  0  0  0  0  0  0  0  0
    1.8513    8.1386   -1.5911 H   0  0  0  0  0  0  0  0  0  0  0  0
    1.6453   13.3851    0.3471 H   0  0  0  0  0  0  0  0  0  0  0  0
    3.0968   13.0685   -0.6627 H   0  0  0  0  0  0  0  0  0  0  0  0
    2.3406   14.6979   -0.6627 H   0  0  0  0  0  0  0  0  0  0  0  0
   -0.5684   14.3645   -1.4193 H   0  0  0  0  0  0  0  0  0  0  0  0
    0.9340   15.3086   -1.9541 H   0  0  0  0  0  0  0  0  0  0  0  0
   -0.9950   13.7586   -3.7043 H   0  0  0  0  0  0  0  0  0  0  0  0
   -0.6995   15.5408   -3.6550 H   0  0  0  0  0  0  0  0  0  0  0  0
    2.0310   15.7414   -3.2630 H   0  0  0  0  0  0  0  0  0  0  0  0
    2.8547   15.3231   -4.8035 H   0  0  0  0  0  0  0  0  0  0  0  0
    1.4884   16.4891   -4.8035 H   0  0  0  0  0  0  0  0  0  0  0  0
  1  2  1  0
  2  3  1  0
  3  4  1  0
  4  5  1  0
  5  6  1  0
  6  7  1  0
  7  8  1  0
  7  9  1  0
  2 10  1  0
 10 11  1  0
 11 12  1  0
 12 13  1  0
 13 14  1  6
 13 15  1  0
 15 16  1  0
 16 17  1  0
 17 18  2  0
 18 19  1  0
 19 20  1  0
 20 21  1  0
 21 22  1  0
 22 23  1  0
 22 24  1  0
 24 25  1  0
 24 26  1  0
 19 27  1  0
 27 28  1  1
 27 29  1  0
 29 30  1  0
 30 31  1  0
 31 32  1  6
  7  5  1  0
 31 10  1  0
 31 13  1  0
 27 15  1  0
 24 18  1  0
  1 33  1  0
  1 34  1  0
  1 35  1  0
  2 36  1  6
  3 37  1  0
  3 38  1  0
  4 39  1  0
  4 40  1  0
  5 41  1  1
  8 42  1  0
  8 43  1  0
  8 44  1  0
  9 45  1  0
  9 46  1  0
  9 47  1  0
 10 48  1  1
 11 49  1  0
 11 50  1  0
 12 51  1  0
 12 52  1  0
 14 53  1  0
 14 54  1  0
 14 55  1  0
 15 56  1  6
 16 57  1  0
 16 58  1  0
 17 59  1  0
 19 60  1  6
 20 61  1  0
 20 62  1  0
 21 63  1  0
 21 64  1  0
 22 65  1  1
 23 66  1  0
 25 67  1  0
 25 68  1  0
 25 69  1  0
 26 70  1  0
 26 71  1  0
 26 72  1  0
 28 73  1  0
 28 74  1  0
 28 75  1  0
 29 76  1  0
 29 77  1  0
 30 78  1  0
 30 79  1  0
 32 80  1  0
 32 81  1  0
 32 82  1  0
M  END
>  <meeko>  (10) 
{"is_sidechain": [false], "intermolecular_energy": 2.731, "internal_energy": -0.839}

$$$$
EPH_relaxed_0001_pdb2pqr_Repair_17_r2_0001_out
     RDKit          3D

 82 86  0  0  0  0  0  0  0  0999 V2000
    0.1680    9.3500   -2.2690 C   0  0  0  0  0  0  0  0  0  0  0  0
    1.2380   10.3490   -2.7190 C   0  0  2  0  0  0  0  0  0  0  0  0
    2.6400    9.7100   -2.7790 C   0  0  0  0  0  0  0  0  0  0  0  0
    3.5720   10.3660   -3.8010 C   0  0  0  0  0  0  0  0  0  0  0  0
    4.9620   10.5230   -3.2630 C   0  0  2  0  0  0  0  0  0  0  0  0
    5.5280   11.8290   -3.4360 O   0  0  0  0  0  0  0  0  0  0  0  0
    6.1770   10.7580   -4.1400 C   0  0  0  0  0  0  0  0  0  0  0  0
    6.0590   10.8490   -5.6290 C   0  0  0  0  0  0  0  0  0  0  0  0
    7.5290   10.4130   -3.5980 C   0  0  0  0  0  0  0  0  0  0  0  0
    1.2520   11.5510   -1.7830 C   0  0  1  0  0  0  0  0  0  0  0  0
    2.3400   11.4390   -0.6820 C   0  0  0  0  0  0  0  0  0  0  0  0
    2.8640   12.8740   -0.4220 C   0  0  0  0  0  0  0  0  0  0  0  0
    1.8430   13.7960   -1.1290 C   0  0  1  0  0  0  0  0  0  0  0  0
    0.6500   13.9150   -0.1300 C   0  0  0  0  0  0  0  0  0  0  0  0
    2.3690   15.2010   -1.5690 C   0  0  2  0  0  0  0  0  0  0  0  0
    2.8330   16.1130   -0.4200 C   0  0  0  0  0  0  0  0  0  0  0  0
    1.7790   17.0000    0.1560 C   0  0  0  0  0  0  0  0  0  0  0  0
    0.5890   17.2710   -0.4130 C   0  0  0  0  0  0  0  0  0  0  0  0
    0.2440   16.7390   -1.8090 C   0  0  1  0  0  0  0  0  0  0  0  0
   -0.3680   17.8810   -2.6620 C   0  0  0  0  0  0  0  0  0  0  0  0
   -1.5590   18.5470   -1.9800 C   0  0  0  0  0  0  0  0  0  0  0  0
   -1.1620   19.1150   -0.6200 C   0  0  2  0  0  0  0  0  0  0  0  0
   -0.2450   20.1940   -0.8210 O   0  0  0  0  0  0  0  0  0  0  0  0
   -0.5240   18.0560    0.3230 C   0  0  0  0  0  0  0  0  0  0  0  0
   -1.6070   17.0490    0.7830 C   0  0  0  0  0  0  0  0  0  0  0  0
   -0.0410   18.7880    1.6040 C   0  0  0  0  0  0  0  0  0  0  0  0
    1.4100   15.9700   -2.5660 C   0  0  1  0  0  0  0  0  0  0  0  0
    2.3000   16.9860   -3.3450 C   0  0  0  0  0  0  0  0  0  0  0  0
    0.7790   15.0130   -3.6460 C   0  0  0  0  0  0  0  0  0  0  0  0
    0.3900   13.5980   -3.1780 C   0  0  0  0  0  0  0  0  0  0  0  0
    1.5400   12.9380   -2.4110 C   0  0  2  0  0  0  0  0  0  0  0  0
    2.7480   12.7850   -3.3980 C   0  0  0  0  0  0  0  0  0  0  0  0
    0.1346    9.3188   -1.1700 H   0  0  0  0  0  0  0  0  0  0  0  0
   -0.8125    9.6633   -2.6569 H   0  0  0  0  0  0  0  0  0  0  0  0
    0.4134    8.3503   -2.6569 H   0  0  0  0  0  0  0  0  0  0  0  0
    0.9805   10.6745   -3.7377 H   0  0  0  0  0  0  0  0  0  0  0  0
    3.1022    9.7927   -1.7842 H   0  0  0  0  0  0  0  0  0  0  0  0
    2.5036    8.6646   -3.0928 H   0  0  0  0  0  0  0  0  0  0  0  0
    3.6081    9.7393   -4.7043 H   0  0  0  0  0  0  0  0  0  0  0  0
    3.1783   11.3670   -4.0311 H   0  0  0  0  0  0  0  0  0  0  0  0
    4.7590    9.7960   -2.4628 H   0  0  0  0  0  0  0  0  0  0  0  0
    5.2129   11.5015   -5.8906 H   0  0  0  0  0  0  0  0  0  0  0  0
    6.9872   11.2674   -6.0455 H   0  0  0  0  0  0  0  0  0  0  0  0
    5.8902    9.8450   -6.0455 H   0  0  0  0  0  0  0  0  0  0  0  0
    7.4963   10.4213   -2.4985 H   0  0  0  0  0  0  0  0  0  0  0  0
    7.8200    9.4118   -3.9486 H   0  0  0  0  0  0  0  0  0  0  0  0
    8.2642   11.1523   -3.9486 H   0  0  0  0  0  0  0  0  0  0  0  0
    0.2156   11.5109   -1.4167 H   0  0  0  0  0  0  0  0  0  0  0  0
    1.9056   11.0220    0.2385 H   0  0  0  0  0  0  0  0  0  0  0  0
    3.1556   10.7727   -0.9997 H   0  0  0  0  0  0  0  0  0  0  0  0
    2.8967   13.0860    0.6569 H   0  0  0  0  0  0  0  0  0  0  0  0
    3.8875   13.0190   -0.7981 H   0  0  0  0  0  0  0  0  0  0  0  0
    1.0303   13.8771    0.9015 H   0  0  0  0  0  0  0  0  0  0  0  0
    0.1285   14.8696   -0.2937 H   0  0  0  0  0  0  0  0  0  0  0  0
   -0.0498   13.0822   -0.2937 H   0  0  0  0  0  0  0  0  0  0  0  0
    3.2777   14.9458   -2.1339 H   0  0  0  0  0  0  0  0  0  0  0  0
    3.2173   15.4730    0.3879 H   0  0  0  0  0  0  0  0  0  0  0  0
    3.5920   16.7826   -0.8507 H   0  0  0  0  0  0  0  0  0  0  0  0
    1.9925   17.4716    1.1266 H   0  0  0  0  0  0  0  0  0  0  0  0
   -0.5029   15.9462   -1.6556 H   0  0  0  0  0  0  0  0  0  0  0  0
    0.4065   18.6414   -2.8408 H   0  0  0  0  0  0  0  0  0  0  0  0
   -0.7266   17.4391   -3.6034 H   0  0  0  0  0  0  0  0  0  0  0  0
   -1.9281   19.3640   -2.6174 H   0  0  0  0  0  0  0  0  0  0  0  0
   -2.3443   17.7917   -1.8291 H   0  0  0  0  0  0  0  0  0  0  0  0
   -2.0815   19.4621   -0.1261 H   0  0  0  0  0  0  0  0  0  0  0  0
    0.5040   20.0610   -0.2160 H   0  0  0  0  0  0  0  0  0  0  0  0
   -1.6378   17.0203    1.8822 H   0  0  0  0  0  0  0  0  0  0  0  0
   -2.5878   17.3635    0.3968 H   0  0  0  0  0  0  0  0  0  0  0  0
   -1.3646   16.0480    0.3968 H   0  0  0  0  0  0  0  0  0  0  0  0
   -0.3982   18.2466    2.4924 H   0  0  0  0  0  0  0  0  0  0  0  0
    1.0584   18.8234    1.6136 H   0  0  0  0  0  0  0  0  0  0  0  0
   -0.4409   19.8127    1.6136 H   0  0  0  0  0  0  0  0  0  0  0  0
    2.8507   17.6147   -2.6298 H   0  0  0  0  0  0  0  0  0  0  0  0
    3.0142   16.4382   -3.9774 H   0  0  0  0  0  0  0  0  0  0  0  0
    1.6630   17.6219   -3.9774 H   0  0  0  0  0  0  0  0  0  0  0  0
   -0.1305   15.4983   -4.0298 H   0  0  0  0  0  0  0  0  0  0  0  0
    1.5713   14.8611   -4.3938 H   0  0  0  0  0  0  0  0  0  0  0  0
   -0.4890   13.6656   -2.5202 H   0  0  0  0  0  0  0  0  0  0  0  0
    0.1626   12.9862   -4.0634 H   0  0  0  0  0  0  0  0  0  0  0  0
    3.6785   12.6672   -2.8232 H   0  0  0  0  0  0  0  0  0  0  0  0
    2.5938   11.8992   -4.0317 H   0  0  0  0  0  0  0  0  0  0  0  0
    2.8195   13.6813   -4.0317 H   0  0  0  0  0  0  0  0  0  0  0  0
  1  2  1  0
  2  3  1  0
  3  4  1  0
  4  5  1  0
  5  6  1  0
  6  7  1  0
  7  8  1  0
  7  9  1  0
  2 10  1  0
 10 11  1  0
 11 12  1  0
 12 13  1  0
 13 14  1  1
 13 15  1  0
 15 16  1  0
 16 17  1  0
 17 18  2  0
 18 19  1  0
 19 20  1  0
 20 21  1  0
 21 22  1  0
 22 23  1  0
 22 24  1  0
 24 25  1  0
 24 26  1  0
 19 27  1  0
 27 28  1  6
 27 29  1  0
 29 30  1  0
 30 31  1  0
 31 32  1  6
  7  5  1  0
 31 10  1  0
 31 13  1  0
 27 15  1  0
 24 18  1  0
  1 33  1  0
  1 34  1  0
  1 35  1  0
  2 36  1  6
  3 37  1  0
  3 38  1  0
  4 39  1  0
  4 40  1  0
  5 41  1  1
  8 42  1  0
  8 43  1  0
  8 44  1  0
  9 45  1  0
  9 46  1  0
  9 47  1  0
 10 48  1  1
 11 49  1  0
 11 50  1  0
 12 51  1  0
 12 52  1  0
 14 53  1  0
 14 54  1  0
 14 55  1  0
 15 56  1  6
 16 57  1  0
 16 58  1  0
 17 59  1  0
 19 60  1  1
 20 61  1  0
 20 62  1  0
 21 63  1  0
 21 64  1  0
 22 65  1  1
 23 66  1  0
 25 67  1  0
 25 68  1  0
 25 69  1  0
 26 70  1  0
 26 71  1  0
 26 72  1  0
 28 73  1  0
 28 74  1  0
 28 75  1  0
 29 76  1  0
 29 77  1  0
 30 78  1  0
 30 79  1  0
 32 80  1  0
 32 81  1  0
 32 82  1  0
M  END
>  <meeko>  (11) 
{"is_sidechain": [false], "intermolecular_energy": 2.731, "internal_energy": -0.839}

$$$$
EPH_relaxed_0001_pdb2pqr_Repair_17_r2_0001_out
     RDKit          3D

 82 86  0  0  0  0  0  0  0  0999 V2000
   -4.0730    7.3780   -3.7480 C   0  0  0  0  0  0  0  0  0  0  0  0
   -3.6560    7.2510   -2.2800 C   0  0  2  0  0  0  0  0  0  0  0  0
   -4.8040    6.7280   -1.3930 C   0  0  0  0  0  0  0  0  0  0  0  0
   -6.1490    6.6380   -2.1180 C   0  0  0  0  0  0  0  0  0  0  0  0
   -7.2840    6.4410   -1.1590 C   0  0  2  0  0  0  0  0  0  0  0  0
   -8.3550    5.6290   -1.6580 O   0  0  0  0  0  0  0  0  0  0  0  0
   -8.6760    7.0030   -1.3820 C   0  0  0  0  0  0  0  0  0  0  0  0
   -9.0060    7.8070   -2.6000 C   0  0  0  0  0  0  0  0  0  0  0  0
   -9.5710    7.1860   -0.1970 C   0  0  0  0  0  0  0  0  0  0  0  0
   -3.1680    8.5980   -1.7600 C   0  0  1  0  0  0  0  0  0  0  0  0
   -3.8860    9.0290   -0.4530 C   0  0  0  0  0  0  0  0  0  0  0  0
   -2.8390    9.7880    0.4020 C   0  0  0  0  0  0  0  0  0  0  0  0
   -1.6640   10.0580   -0.5670 C   0  0  1  0  0  0  0  0  0  0  0  0
   -2.0970   11.3170   -1.3820 C   0  0  0  0  0  0  0  0  0  0  0  0
   -0.2580   10.2500    0.0880 C   0  0  2  0  0  0  0  0  0  0  0  0
   -0.1370   11.4600    1.0310 C   0  0  0  0  0  0  0  0  0  0  0  0
    0.3020   12.7310    0.3830 C   0  0  0  0  0  0  0  0  0  0  0  0
    0.8600   12.8350   -0.8380 C   0  0  0  0  0  0  0  0  0  0  0  0
    1.1910   11.5840   -1.6620 C   0  0  1  0  0  0  0  0  0  0  0  0
    2.6230   11.7110   -2.2430 C   0  0  0  0  0  0  0  0  0  0  0  0
    2.8210   13.0000   -3.0350 C   0  0  0  0  0  0  0  0  0  0  0  0
    2.5400   14.2230   -2.1650 C   0  0  2  0  0  0  0  0  0  0  0  0
    3.5380   14.3010   -1.1420 O   0  0  0  0  0  0  0  0  0  0  0  0
    1.1270   14.2010   -1.5170 C   0  0  0  0  0  0  0  0  0  0  0  0
    0.0500   14.4210   -2.6080 C   0  0  0  0  0  0  0  0  0  0  0  0
    1.0250   15.4160   -0.5550 C   0  0  0  0  0  0  0  0  0  0  0  0
    0.9480   10.1920   -0.9360 C   0  0  1  0  0  0  0  0  0  0  0  0
    2.2110    9.7930   -0.1140 C   0  0  0  0  0  0  0  0  0  0  0  0
    0.7540    9.0710   -2.0250 C   0  0  0  0  0  0  0  0  0  0  0  0
   -0.6790    8.8480   -2.5450 C   0  0  0  0  0  0  0  0  0  0  0  0
   -1.6690    8.7150   -1.3850 C   0  0  2  0  0  0  0  0  0  0  0  0
   -1.2720    7.4440   -0.5600 C   0  0  0  0  0  0  0  0  0  0  0  0
   -5.1239    7.6981   -3.8043 H   0  0  0  0  0  0  0  0  0  0  0  0
   -3.4356    8.1228   -4.2471 H   0  0  0  0  0  0  0  0  0  0  0  0
   -3.9590    6.4044   -4.2471 H   0  0  0  0  0  0  0  0  0  0  0  0
   -2.8396    6.5154   -2.2305 H   0  0  0  0  0  0  0  0  0  0  0  0
   -4.5353    5.7237   -1.0334 H   0  0  0  0  0  0  0  0  0  0  0  0
   -4.9292    7.4482   -0.5710 H   0  0  0  0  0  0  0  0  0  0  0  0
   -6.3143    7.5694   -2.6794 H   0  0  0  0  0  0  0  0  0  0  0  0
   -6.1168    5.7706   -2.7938 H   0  0  0  0  0  0  0  0  0  0  0  0
   -6.5979    6.4899   -0.3006 H   0  0  0  0  0  0  0  0  0  0  0  0
   -9.4074    8.7850   -2.2961 H   0  0  0  0  0  0  0  0  0  0  0  0
   -8.0957    7.9546   -3.1997 H   0  0  0  0  0  0  0  0  0  0  0  0
   -9.7575    7.2725   -3.1997 H   0  0  0  0  0  0  0  0  0  0  0  0
   -8.9856    7.0663    0.7266 H   0  0  0  0  0  0  0  0  0  0  0  0
  -10.0128    8.1931   -0.2232 H   0  0  0  0  0  0  0  0  0  0  0  0
  -10.3726    6.4332   -0.2232 H   0  0  0  0  0  0  0  0  0  0  0  0
   -3.3860    9.2247   -2.6373 H   0  0  0  0  0  0  0  0  0  0  0  0
   -4.7346    9.6888   -0.6867 H   0  0  0  0  0  0  0  0  0  0  0  0
   -4.2801    8.1560    0.0879 H   0  0  0  0  0  0  0  0  0  0  0  0
   -3.2569   10.7334    0.7782 H   0  0  0  0  0  0  0  0  0  0  0  0
   -2.5265    9.2124    1.2858 H   0  0  0  0  0  0  0  0  0  0  0  0
   -2.3748   12.1247   -0.6889 H   0  0  0  0  0  0  0  0  0  0  0  0
   -1.2613   11.6488   -2.0157 H   0  0  0  0  0  0  0  0  0  0  0  0
   -2.9600   11.0646   -2.0157 H   0  0  0  0  0  0  0  0  0  0  0  0
   -0.1741    9.3611    0.7305 H   0  0  0  0  0  0  0  0  0  0  0  0
   -1.1220   11.6342    1.4887 H   0  0  0  0  0  0  0  0  0  0  0  0
    0.6470   11.2022    1.7583 H   0  0  0  0  0  0  0  0  0  0  0  0
    0.1574   13.6617    0.9512 H   0  0  0  0  0  0  0  0  0  0  0  0
    0.4573   11.5561   -2.4811 H   0  0  0  0  0  0  0  0  0  0  0  0
    3.3435   11.6936   -1.4120 H   0  0  0  0  0  0  0  0  0  0  0  0
    2.7795   10.8682   -2.9324 H   0  0  0  0  0  0  0  0  0  0  0  0
    3.8593   13.0453   -3.3954 H   0  0  0  0  0  0  0  0  0  0  0  0
    2.1196   13.0030   -3.8824 H   0  0  0  0  0  0  0  0  0  0  0  0
    2.5721   15.1074   -2.8183 H   0  0  0  0  0  0  0  0  0  0  0  0
    3.1580   14.7980   -0.3980 H   0  0  0  0  0  0  0  0  0  0  0  0
   -0.9208   14.6193   -2.1302 H   0  0  0  0  0  0  0  0  0  0  0  0
    0.3327   15.2800   -3.2343 H   0  0  0  0  0  0  0  0  0  0  0  0
   -0.0268   13.5200   -3.2343 H   0  0  0  0  0  0  0  0  0  0  0  0
    1.0547   15.0627    0.4863 H   0  0  0  0  0  0  0  0  0  0  0  0
    1.8690   16.0981   -0.7350 H   0  0  0  0  0  0  0  0  0  0  0  0
    0.0791   15.9478   -0.7350 H   0  0  0  0  0  0  0  0  0  0  0  0
    1.9866    9.8639    0.9605 H   0  0  0  0  0  0  0  0  0  0  0  0
    2.4983    8.7604   -0.3612 H   0  0  0  0  0  0  0  0  0  0  0  0
    3.0394   10.4732   -0.3612 H   0  0  0  0  0  0  0  0  0  0  0  0
    1.3841    9.3327   -2.8878 H   0  0  0  0  0  0  0  0  0  0  0  0
    1.0273    8.1314   -1.5226 H   0  0  0  0  0  0  0  0  0  0  0  0
   -0.9716    9.7036   -3.1713 H   0  0  0  0  0  0  0  0  0  0  0  0
   -0.6984    7.9171   -3.1308 H   0  0  0  0  0  0  0  0  0  0  0  0
   -1.3419    7.6679    0.5147 H   0  0  0  0  0  0  0  0  0  0  0  0
   -1.9549    6.6180   -0.8077 H   0  0  0  0  0  0  0  0  0  0  0  0
   -0.2403    7.1536   -0.8077 H   0  0  0  0  0  0  0  0  0  0  0  0
  1  2  1  0
  2  3  1  0
  3  4  1  0
  4  5  1  0
  5  6  1  0
  6  7  1  0
  7  8  1  0
  7  9  1  0
  2 10  1  0
 10 11  1  0
 11 12  1  0
 12 13  1  0
 13 14  1  6
 13 15  1  0
 15 16  1  0
 16 17  1  0
 17 18  2  0
 18 19  1  0
 19 20  1  0
 20 21  1  0
 21 22  1  0
 22 23  1  0
 22 24  1  0
 24 25  1  0
 24 26  1  0
 19 27  1  0
 27 28  1  1
 27 29  1  0
 29 30  1  0
 30 31  1  0
 31 32  1  1
  7  5  1  0
 31 10  1  0
 31 13  1  0
 27 15  1  0
 24 18  1  0
  1 33  1  0
  1 34  1  0
  1 35  1  0
  2 36  1  6
  3 37  1  0
  3 38  1  0
  4 39  1  0
  4 40  1  0
  5 41  1  1
  8 42  1  0
  8 43  1  0
  8 44  1  0
  9 45  1  0
  9 46  1  0
  9 47  1  0
 10 48  1  6
 11 49  1  0
 11 50  1  0
 12 51  1  0
 12 52  1  0
 14 53  1  0
 14 54  1  0
 14 55  1  0
 15 56  1  1
 16 57  1  0
 16 58  1  0
 17 59  1  0
 19 60  1  6
 20 61  1  0
 20 62  1  0
 21 63  1  0
 21 64  1  0
 22 65  1  6
 23 66  1  0
 25 67  1  0
 25 68  1  0
 25 69  1  0
 26 70  1  0
 26 71  1  0
 26 72  1  0
 28 73  1  0
 28 74  1  0
 28 75  1  0
 29 76  1  0
 29 77  1  0
 30 78  1  0
 30 79  1  0
 32 80  1  0
 32 81  1  0
 32 82  1  0
M  END
>  <meeko>  (12) 
{"is_sidechain": [false], "intermolecular_energy": 2.731, "internal_energy": -0.839}

$$$$
EPH_relaxed_0001_pdb2pqr_Repair_17_r2_0001_out
     RDKit          3D

 82 86  0  0  0  0  0  0  0  0999 V2000
   -2.3070    7.7680   -2.4640 C   0  0  0  0  0  0  0  0  0  0  0  0
   -2.2600    8.3390   -1.0450 C   0  0  2  0  0  0  0  0  0  0  0  0
   -3.6320    8.2700   -0.3450 C   0  0  0  0  0  0  0  0  0  0  0  0
   -4.8040    8.0580   -1.3080 C   0  0  0  0  0  0  0  0  0  0  0  0
   -5.9240    7.3010   -0.6600 C   0  0  2  0  0  0  0  0  0  0  0  0
   -6.3650    6.1470   -1.3870 O   0  0  0  0  0  0  0  0  0  0  0  0
   -7.3210    7.2110   -1.2460 C   0  0  0  0  0  0  0  0  0  0  0  0
   -7.6730    7.8880   -2.5330 C   0  0  0  0  0  0  0  0  0  0  0  0
   -8.4590    6.8800   -0.3320 C   0  0  0  0  0  0  0  0  0  0  0  0
   -1.7660    9.7810   -1.0810 C   0  0  1  0  0  0  0  0  0  0  0  0
   -1.4180   10.3280    0.3290 C   0  0  0  0  0  0  0  0  0  0  0  0
   -0.2080   11.2820    0.1520 C   0  0  0  0  0  0  0  0  0  0  0  0
   -0.1110   11.5100   -1.3740 C   0  0  1  0  0  0  0  0  0  0  0  0
   -1.1790   12.6040   -1.6850 C   0  0  0  0  0  0  0  0  0  0  0  0
    1.2980   11.9050   -1.9260 C   0  0  2  0  0  0  0  0  0  0  0  0
    1.8530   13.2400   -1.3990 C   0  0  0  0  0  0  0  0  0  0  0  0
    1.5070   14.4410   -2.2150 C   0  0  0  0  0  0  0  0  0  0  0  0
    1.0250   14.4200   -3.4710 C   0  0  0  0  0  0  0  0  0  0  0  0
    0.8730   13.0990   -4.2350 C   0  0  1  0  0  0  0  0  0  0  0  0
    1.4440   13.2600   -5.6690 C   0  0  0  0  0  0  0  0  0  0  0  0
    0.8260   14.4400   -6.4150 C   0  0  0  0  0  0  0  0  0  0  0  0
    1.0490   15.7440   -5.6530 C   0  0  2  0  0  0  0  0  0  0  0  0
    2.4480   16.0440   -5.6510 O   0  0  0  0  0  0  0  0  0  0  0  0
    0.5220   15.6960   -4.1910 C   0  0  0  0  0  0  0  0  0  0  0  0
   -1.0260   15.6740   -4.1960 C   0  0  0  0  0  0  0  0  0  0  0  0
    0.9350   17.0200   -3.4920 C   0  0  0  0  0  0  0  0  0  0  0  0
    1.4290   11.8050   -3.4990 C   0  0  1  0  0  0  0  0  0  0  0  0
    2.9470   11.6280   -3.8090 C   0  0  0  0  0  0  0  0  0  0  0  0
    0.7070   10.5320   -4.0800 C   0  0  0  0  0  0  0  0  0  0  0  0
   -0.6210   10.1230   -3.4150 C   0  0  0  0  0  0  0  0  0  0  0  0
   -0.4780   10.0710   -1.8910 C   0  0  2  0  0  0  0  0  0  0  0  0
    0.5750    8.9630   -1.5470 C   0  0  0  0  0  0  0  0  0  0  0  0
   -2.3972    6.6728   -2.4157 H   0  0  0  0  0  0  0  0  0  0  0  0
   -3.1739    8.1841   -2.9981 H   0  0  0  0  0  0  0  0  0  0  0  0
   -1.3837    8.0367   -2.9981 H   0  0  0  0  0  0  0  0  0  0  0  0
   -1.5610    7.7205   -0.4628 H   0  0  0  0  0  0  0  0  0  0  0  0
   -3.6152    7.4349    0.3708 H   0  0  0  0  0  0  0  0  0  0  0  0
   -3.7914    9.2409    0.1468 H   0  0  0  0  0  0  0  0  0  0  0  0
   -5.1790    9.0392   -1.6346 H   0  0  0  0  0  0  0  0  0  0  0  0
   -4.4424    7.4694   -2.1640 H   0  0  0  0  0  0  0  0  0  0  0  0
   -5.5604    7.5727    0.3420 H   0  0  0  0  0  0  0  0  0  0  0  0
   -8.1708    8.8454   -2.3195 H   0  0  0  0  0  0  0  0  0  0  0  0
   -6.7566    8.0725   -3.1129 H   0  0  0  0  0  0  0  0  0  0  0  0
   -8.3504    7.2438   -3.1129 H   0  0  0  0  0  0  0  0  0  0  0  0
   -8.1297    6.9758    0.7132 H   0  0  0  0  0  0  0  0  0  0  0  0
   -9.2927    7.5729   -0.5187 H   0  0  0  0  0  0  0  0  0  0  0  0
   -8.7910    5.8481   -0.5187 H   0  0  0  0  0  0  0  0  0  0  0  0
   -2.6301   10.2605   -1.5642 H   0  0  0  0  0  0  0  0  0  0  0  0
   -2.2757   10.8770    0.7448 H   0  0  0  0  0  0  0  0  0  0  0  0
   -1.1772    9.5087    1.0224 H   0  0  0  0  0  0  0  0  0  0  0  0
   -0.3833   12.2330    0.6763 H   0  0  0  0  0  0  0  0  0  0  0  0
    0.7186   10.8625    0.5708 H   0  0  0  0  0  0  0  0  0  0  0  0
   -1.5744   13.0090   -0.7418 H   0  0  0  0  0  0  0  0  0  0  0  0
   -0.7151   13.4145   -2.2662 H   0  0  0  0  0  0  0  0  0  0  0  0
   -2.0005   12.1597   -2.2662 H   0  0  0  0  0  0  0  0  0  0  0  0
    1.9459   11.1235   -1.5023 H   0  0  0  0  0  0  0  0  0  0  0  0
    1.4597   13.3943   -0.3834 H   0  0  0  0  0  0  0  0  0  0  0  0
    2.9487   13.1508   -1.4384 H   0  0  0  0  0  0  0  0  0  0  0  0
    1.6589   15.4264   -1.7503 H   0  0  0  0  0  0  0  0  0  0  0  0
   -0.2076   12.8995   -4.2843 H   0  0  0  0  0  0  0  0  0  0  0  0
    2.5307   13.4159   -5.6006 H   0  0  0  0  0  0  0  0  0  0  0  0
    1.2013   12.3455   -6.2301 H   0  0  0  0  0  0  0  0  0  0  0  0
    1.2897   14.5201   -7.4093 H   0  0  0  0  0  0  0  0  0  0  0  0
   -0.2565   14.2685   -6.5084 H   0  0  0  0  0  0  0  0  0  0  0  0
    0.4760   16.5293   -6.1677 H   0  0  0  0  0  0  0  0  0  0  0  0
    2.6380   16.5660   -6.4480 H   0  0  0  0  0  0  0  0  0  0  0  0
   -1.3960   15.6687   -3.1601 H   0  0  0  0  0  0  0  0  0  0  0  0
   -1.4037   16.5669   -4.7157 H   0  0  0  0  0  0  0  0  0  0  0  0
   -1.3782   14.7708   -4.7157 H   0  0  0  0  0  0  0  0  0  0  0  0
    0.8935   16.8870   -2.4009 H   0  0  0  0  0  0  0  0  0  0  0  0
    1.9594   17.2879   -3.7900 H   0  0  0  0  0  0  0  0  0  0  0  0
    0.2446   17.8228   -3.7900 H   0  0  0  0  0  0  0  0  0  0  0  0
    3.5087   11.5625   -2.8655 H   0  0  0  0  0  0  0  0  0  0  0  0
    3.0975   10.7062   -4.3901 H   0  0  0  0  0  0  0  0  0  0  0  0
    3.3056   12.4904   -4.3901 H   0  0  0  0  0  0  0  0  0  0  0  0
    0.5018   10.7222   -5.1438 H   0  0  0  0  0  0  0  0  0  0  0  0
    1.3957    9.6965   -3.8857 H   0  0  0  0  0  0  0  0  0  0  0  0
   -1.3966   10.8571   -3.6788 H   0  0  0  0  0  0  0  0  0  0  0  0
   -0.8999    9.1218   -3.7754 H   0  0  0  0  0  0  0  0  0  0  0  0
    0.6646    8.8688   -0.4547 H   0  0  0  0  0  0  0  0  0  0  0  0
    0.2488    8.0025   -1.9724 H   0  0  0  0  0  0  0  0  0  0  0  0
    1.5509    9.2399   -1.9724 H   0  0  0  0  0  0  0  0  0  0  0  0
  1  2  1  0
  2  3  1  0
  3  4  1  0
  4  5  1  0
  5  6  1  0
  6  7  1  0
  7  8  1  0
  7  9  1  0
  2 10  1  0
 10 11  1  0
 11 12  1  0
 12 13  1  0
 13 14  1  6
 13 15  1  0
 15 16  1  0
 16 17  1  0
 17 18  2  0
 18 19  1  0
 19 20  1  0
 20 21  1  0
 21 22  1  0
 22 23  1  0
 22 24  1  0
 24 25  1  0
 24 26  1  0
 19 27  1  0
 27 28  1  1
 27 29  1  0
 29 30  1  0
 30 31  1  0
 31 32  1  6
  7  5  1  0
 31 10  1  0
 31 13  1  0
 27 15  1  0
 24 18  1  0
  1 33  1  0
  1 34  1  0
  1 35  1  0
  2 36  1  1
  3 37  1  0
  3 38  1  0
  4 39  1  0
  4 40  1  0
  5 41  1  1
  8 42  1  0
  8 43  1  0
  8 44  1  0
  9 45  1  0
  9 46  1  0
  9 47  1  0
 10 48  1  6
 11 49  1  0
 11 50  1  0
 12 51  1  0
 12 52  1  0
 14 53  1  0
 14 54  1  0
 14 55  1  0
 15 56  1  1
 16 57  1  0
 16 58  1  0
 17 59  1  0
 19 60  1  6
 20 61  1  0
 20 62  1  0
 21 63  1  0
 21 64  1  0
 22 65  1  6
 23 66  1  0
 25 67  1  0
 25 68  1  0
 25 69  1  0
 26 70  1  0
 26 71  1  0
 26 72  1  0
 28 73  1  0
 28 74  1  0
 28 75  1  0
 29 76  1  0
 29 77  1  0
 30 78  1  0
 30 79  1  0
 32 80  1  0
 32 81  1  0
 32 82  1  0
M  END
>  <meeko>  (13) 
{"is_sidechain": [false], "intermolecular_energy": 2.731, "internal_energy": -0.839}

$$$$
EPH_relaxed_0001_pdb2pqr_Repair_17_r2_0001_out
     RDKit          3D

 82 86  0  0  0  0  0  0  0  0999 V2000
    1.7830   10.8430   -4.6980 C   0  0  0  0  0  0  0  0  0  0  0  0
    0.9340   10.6160   -3.4440 C   0  0  2  0  0  0  0  0  0  0  0  0
   -0.1960    9.5950   -3.6850 C   0  0  0  0  0  0  0  0  0  0  0  0
   -0.2370    8.4680   -2.6490 C   0  0  0  0  0  0  0  0  0  0  0  0
    0.1880    8.9450   -1.2930 C   0  0  2  0  0  0  0  0  0  0  0  0
   -0.1560    8.0650   -0.2150 O   0  0  0  0  0  0  0  0  0  0  0  0
   -0.7880    9.3560   -0.2070 C   0  0  0  0  0  0  0  0  0  0  0  0
   -2.2680    9.3090   -0.4290 C   0  0  0  0  0  0  0  0  0  0  0  0
   -0.3050   10.2570    0.8850 C   0  0  0  0  0  0  0  0  0  0  0  0
    0.3470   11.9400   -2.9680 C   0  0  1  0  0  0  0  0  0  0  0  0
   -1.0050   11.7620   -2.2290 C   0  0  0  0  0  0  0  0  0  0  0  0
   -1.0490   12.8350   -1.1100 C   0  0  0  0  0  0  0  0  0  0  0  0
    0.1130   13.7980   -1.4490 C   0  0  1  0  0  0  0  0  0  0  0  0
   -0.4580   14.7430   -2.5520 C   0  0  0  0  0  0  0  0  0  0  0  0
    0.7130   14.6050   -0.2520 C   0  0  2  0  0  0  0  0  0  0  0  0
   -0.2660   15.5670    0.4430 C   0  0  0  0  0  0  0  0  0  0  0  0
   -0.2970   16.9540   -0.1100 C   0  0  0  0  0  0  0  0  0  0  0  0
    0.6260   17.4900   -0.9300 C   0  0  0  0  0  0  0  0  0  0  0  0
    1.8940   16.7110   -1.3050 C   0  0  1  0  0  0  0  0  0  0  0  0
    3.1310   17.6370   -1.1640 C   0  0  0  0  0  0  0  0  0  0  0  0
    2.9860   18.9320   -1.9570 C   0  0  0  0  0  0  0  0  0  0  0  0
    1.7460   19.7060   -1.5150 C   0  0  2  0  0  0  0  0  0  0  0  0
    1.9380   20.1560   -0.1710 O   0  0  0  0  0  0  0  0  0  0  0  0
    0.4380   18.8710   -1.6050 C   0  0  0  0  0  0  0  0  0  0  0  0
    0.0690   18.6400   -3.0910 C   0  0  0  0  0  0  0  0  0  0  0  0
   -0.7120   19.7190   -0.9990 C   0  0  0  0  0  0  0  0  0  0  0  0
    2.0910   15.3140   -0.5740 C   0  0  1  0  0  0  0  0  0  0  0  0
    2.8130   15.5250    0.7920 C   0  0  0  0  0  0  0  0  0  0  0  0
    3.0410   14.4080   -1.4430 C   0  0  0  0  0  0  0  0  0  0  0  0
    2.3750   13.5450   -2.5310 C   0  0  0  0  0  0  0  0  0  0  0  0
    1.1840   12.7670   -1.9610 C   0  0  2  0  0  0  0  0  0  0  0  0
    1.7320   11.7920   -0.8640 C   0  0  0  0  0  0  0  0  0  0  0  0
    2.8068   11.1167   -4.4031 H   0  0  0  0  0  0  0  0  0  0  0  0
    1.8080    9.9200   -5.2959 H   0  0  0  0  0  0  0  0  0  0  0  0
    1.3441   11.6553   -5.2959 H   0  0  0  0  0  0  0  0  0  0  0  0
    1.5937   10.2009   -2.6678 H   0  0  0  0  0  0  0  0  0  0  0  0
   -1.1578   10.1281   -3.6569 H   0  0  0  0  0  0  0  0  0  0  0  0
   -0.0045    9.1274   -4.6621 H   0  0  0  0  0  0  0  0  0  0  0  0
   -1.2644    8.0803   -2.5846 H   0  0  0  0  0  0  0  0  0  0  0  0
    0.4619    7.6817   -2.9702 H   0  0  0  0  0  0  0  0  0  0  0  0
    1.0704    9.4449   -1.7190 H   0  0  0  0  0  0  0  0  0  0  0  0
   -2.7841    9.2926    0.5423 H   0  0  0  0  0  0  0  0  0  0  0  0
   -2.5821   10.1976   -0.9962 H   0  0  0  0  0  0  0  0  0  0  0  0
   -2.5251    8.4022   -0.9962 H   0  0  0  0  0  0  0  0  0  0  0  0
   -0.5443    9.8106    1.8614 H   0  0  0  0  0  0  0  0  0  0  0  0
    0.7838   10.3871    0.7983 H   0  0  0  0  0  0  0  0  0  0  0  0
   -0.7993   11.2358    0.7983 H   0  0  0  0  0  0  0  0  0  0  0  0
    0.2835   12.4704   -3.9296 H   0  0  0  0  0  0  0  0  0  0  0  0
   -1.8411   11.9098   -2.9284 H   0  0  0  0  0  0  0  0  0  0  0  0
   -1.0945   10.7495   -1.8085 H   0  0  0  0  0  0  0  0  0  0  0  0
   -2.0111   13.3681   -1.1205 H   0  0  0  0  0  0  0  0  0  0  0  0
   -0.9486   12.3962   -0.1063 H   0  0  0  0  0  0  0  0  0  0  0  0
   -0.9712   15.5924   -2.0774 H   0  0  0  0  0  0  0  0  0  0  0  0
    0.3661   15.1158   -3.1780 H   0  0  0  0  0  0  0  0  0  0  0  0
   -1.1713   14.1869   -3.1780 H   0  0  0  0  0  0  0  0  0  0  0  0
    0.9253   13.8142    0.4825 H   0  0  0  0  0  0  0  0  0  0  0  0
   -1.2776   15.1438    0.3565 H   0  0  0  0  0  0  0  0  0  0  0  0
    0.0846   15.6608    1.4814 H   0  0  0  0  0  0  0  0  0  0  0  0
   -1.1461   17.5916    0.1772 H   0  0  0  0  0  0  0  0  0  0  0  0
    1.7684   16.4133   -2.3565 H   0  0  0  0  0  0  0  0  0  0  0  0
    3.2646   17.8874   -0.1013 H   0  0  0  0  0  0  0  0  0  0  0  0
    4.0006   17.0957   -1.5650 H   0  0  0  0  0  0  0  0  0  0  0  0
    3.8771   19.5559   -1.7937 H   0  0  0  0  0  0  0  0  0  0  0  0
    2.8823   18.6814   -3.0231 H   0  0  0  0  0  0  0  0  0  0  0  0
    1.6241   20.5546   -2.2042 H   0  0  0  0  0  0  0  0  0  0  0  0
    2.8420   19.9160    0.0940 H   0  0  0  0  0  0  0  0  0  0  0  0
   -0.8620   18.0572   -3.1513 H   0  0  0  0  0  0  0  0  0  0  0  0
   -0.0732   19.6106   -3.5887 H   0  0  0  0  0  0  0  0  0  0  0  0
    0.8800   18.0881   -3.5887 H   0  0  0  0  0  0  0  0  0  0  0  0
   -0.6578   19.6790    0.0989 H   0  0  0  0  0  0  0  0  0  0  0  0
   -0.6136   20.7624   -1.3332 H   0  0  0  0  0  0  0  0  0  0  0  0
   -1.6797   19.3166   -1.3332 H   0  0  0  0  0  0  0  0  0  0  0  0
    2.1108   15.3198    1.6134 H   0  0  0  0  0  0  0  0  0  0  0  0
    3.6707   14.8399    0.8631 H   0  0  0  0  0  0  0  0  0  0  0  0
    3.1668   16.5641    0.8631 H   0  0  0  0  0  0  0  0  0  0  0  0
    3.7670   15.0681   -1.9402 H   0  0  0  0  0  0  0  0  0  0  0  0
    3.4799   13.6896   -0.7350 H   0  0  0  0  0  0  0  0  0  0  0  0
    2.0228   14.1982   -3.3430 H   0  0  0  0  0  0  0  0  0  0  0  0
    3.1154   12.8251   -2.9098 H   0  0  0  0  0  0  0  0  0  0  0  0
    1.5044   12.1969    0.1331 H   0  0  0  0  0  0  0  0  0  0  0  0
    1.2552   10.8072   -0.9774 H   0  0  0  0  0  0  0  0  0  0  0  0
    2.8211   11.6873   -0.9774 H   0  0  0  0  0  0  0  0  0  0  0  0
  1  2  1  0
  2  3  1  0
  3  4  1  0
  4  5  1  0
  5  6  1  0
  6  7  1  0
  7  8  1  0
  7  9  1  0
  2 10  1  0
 10 11  1  0
 11 12  1  0
 12 13  1  0
 13 14  1  6
 13 15  1  0
 15 16  1  0
 16 17  1  0
 17 18  2  0
 18 19  1  0
 19 20  1  0
 20 21  1  0
 21 22  1  0
 22 23  1  0
 22 24  1  0
 24 25  1  0
 24 26  1  0
 19 27  1  0
 27 28  1  1
 27 29  1  0
 29 30  1  0
 30 31  1  0
 31 32  1  1
  7  5  1  0
 31 10  1  0
 31 13  1  0
 27 15  1  0
 24 18  1  0
  1 33  1  0
  1 34  1  0
  1 35  1  0
  2 36  1  1
  3 37  1  0
  3 38  1  0
  4 39  1  0
  4 40  1  0
  5 41  1  6
  8 42  1  0
  8 43  1  0
  8 44  1  0
  9 45  1  0
  9 46  1  0
  9 47  1  0
 10 48  1  6
 11 49  1  0
 11 50  1  0
 12 51  1  0
 12 52  1  0
 14 53  1  0
 14 54  1  0
 14 55  1  0
 15 56  1  1
 16 57  1  0
 16 58  1  0
 17 59  1  0
 19 60  1  6
 20 61  1  0
 20 62  1  0
 21 63  1  0
 21 64  1  0
 22 65  1  6
 23 66  1  0
 25 67  1  0
 25 68  1  0
 25 69  1  0
 26 70  1  0
 26 71  1  0
 26 72  1  0
 28 73  1  0
 28 74  1  0
 28 75  1  0
 29 76  1  0
 29 77  1  0
 30 78  1  0
 30 79  1  0
 32 80  1  0
 32 81  1  0
 32 82  1  0
M  END
>  <meeko>  (14) 
{"is_sidechain": [false], "intermolecular_energy": 2.731, "internal_energy": -0.839}

$$$$
EPH_relaxed_0001_pdb2pqr_Repair_17_r2_0001_out
     RDKit          3D

 82 86  0  0  0  0  0  0  0  0999 V2000
    3.1020   14.8150   -7.5330 C   0  0  0  0  0  0  0  0  0  0  0  0
    1.5790   14.8570   -7.3820 C   0  0  2  0  0  0  0  0  0  0  0  0
    0.9630   16.1020   -8.0510 C   0  0  0  0  0  0  0  0  0  0  0  0
    1.8890   16.7770   -9.0670 C   0  0  0  0  0  0  0  0  0  0  0  0
    1.5570   16.3750  -10.4720 C   0  0  2  0  0  0  0  0  0  0  0  0
    0.9840   15.0670  -10.6010 O   0  0  0  0  0  0  0  0  0  0  0  0
    2.2700   15.2590  -11.2130 C   0  0  0  0  0  0  0  0  0  0  0  0
    3.3720   14.4760  -10.5720 C   0  0  0  0  0  0  0  0  0  0  0  0
    2.2320   15.2560  -12.7100 C   0  0  0  0  0  0  0  0  0  0  0  0
    1.2020   14.8190   -5.9060 C   0  0  1  0  0  0  0  0  0  0  0  0
   -0.0520   15.6750   -5.5870 C   0  0  0  0  0  0  0  0  0  0  0  0
   -0.8240   14.9370   -4.4630 C   0  0  0  0  0  0  0  0  0  0  0  0
    0.1680   13.8700   -3.9450 C   0  0  1  0  0  0  0  0  0  0  0  0
    1.1100   14.6390   -2.9660 C   0  0  0  0  0  0  0  0  0  0  0  0
   -0.4640   12.6100   -3.2680 C   0  0  2  0  0  0  0  0  0  0  0  0
   -1.2750   12.8930   -1.9910 C   0  0  0  0  0  0  0  0  0  0  0  0
   -0.4980   12.8410   -0.7170 C   0  0  0  0  0  0  0  0  0  0  0  0
    0.7270   12.3030   -0.5690 C   0  0  0  0  0  0  0  0  0  0  0  0
    1.4160   11.5810   -1.7350 C   0  0  1  0  0  0  0  0  0  0  0  0
    2.0070   10.2370   -1.2340 C   0  0  0  0  0  0  0  0  0  0  0  0
    2.9290   10.4150   -0.0320 C   0  0  0  0  0  0  0  0  0  0  0  0
    2.1920   11.0830    1.1260 C   0  0  2  0  0  0  0  0  0  0  0  0
    1.1820   10.1900    1.6070 O   0  0  0  0  0  0  0  0  0  0  0  0
    1.5450   12.4420    0.7380 C   0  0  0  0  0  0  0  0  0  0  0  0
    2.6530   13.4990    0.5080 C   0  0  0  0  0  0  0  0  0  0  0  0
    0.7150   12.9400    1.9520 C   0  0  0  0  0  0  0  0  0  0  0  0
    0.5480   11.4120   -3.0560 C   0  0  1  0  0  0  0  0  0  0  0  0
   -0.3110   10.1140   -2.9650 C   0  0  0  0  0  0  0  0  0  0  0  0
    1.5140   11.2200   -4.2840 C   0  0  0  0  0  0  0  0  0  0  0  0
    2.0090   12.5000   -4.9850 C   0  0  0  0  0  0  0  0  0  0  0  0
    0.8410   13.4400   -5.2990 C   0  0  2  0  0  0  0  0  0  0  0  0
   -0.1120   12.7010   -6.2990 C   0  0  0  0  0  0  0  0  0  0  0  0
    3.5690   14.8021   -6.5371 H   0  0  0  0  0  0  0  0  0  0  0  0
    3.3909   13.9085   -8.0852 H   0  0  0  0  0  0  0  0  0  0  0  0
    3.4404   15.7042   -8.0852 H   0  0  0  0  0  0  0  0  0  0  0  0
    1.1715   13.9722   -7.8929 H   0  0  0  0  0  0  0  0  0  0  0  0
    0.0418   15.7976   -8.5694 H   0  0  0  0  0  0  0  0  0  0  0  0
    0.7731   16.8348   -7.2529 H   0  0  0  0  0  0  0  0  0  0  0  0
    1.7849   17.8681   -8.9743 H   0  0  0  0  0  0  0  0  0  0  0  0
    2.9206   16.4600   -8.8543 H   0  0  0  0  0  0  0  0  0  0  0  0
    1.3364   17.4179  -10.7436 H   0  0  0  0  0  0  0  0  0  0  0  0
    3.2799   14.5415   -9.4778 H   0  0  0  0  0  0  0  0  0  0  0  0
    3.3030   13.4233  -10.8834 H   0  0  0  0  0  0  0  0  0  0  0  0
    4.3434   14.8876  -10.8834 H   0  0  0  0  0  0  0  0  0  0  0  0
    1.1892   15.1737  -13.0501 H   0  0  0  0  0  0  0  0  0  0  0  0
    2.6688   16.1914  -13.0897 H   0  0  0  0  0  0  0  0  0  0  0  0
    2.8102   14.4007  -13.0897 H   0  0  0  0  0  0  0  0  0  0  0  0
    2.1403   15.1894   -5.4673 H   0  0  0  0  0  0  0  0  0  0  0  0
    0.2498   16.6760   -5.2449 H   0  0  0  0  0  0  0  0  0  0  0  0
   -0.6811   15.8017   -6.4804 H   0  0  0  0  0  0  0  0  0  0  0  0
   -1.0993   15.6346   -3.6583 H   0  0  0  0  0  0  0  0  0  0  0  0
   -1.7635   14.4931   -4.8240 H   0  0  0  0  0  0  0  0  0  0  0  0
    0.8274   14.4083   -1.9282 H   0  0  0  0  0  0  0  0  0  0  0  0
    2.1511   14.3295   -3.1400 H   0  0  0  0  0  0  0  0  0  0  0  0
    1.0152   15.7210   -3.1400 H   0  0  0  0  0  0  0  0  0  0  0  0
   -1.1960   12.2805   -4.0200 H   0  0  0  0  0  0  0  0  0  0  0  0
   -1.7120   13.8984   -2.0818 H   0  0  0  0  0  0  0  0  0  0  0  0
   -2.0248   12.0911   -1.9229 H   0  0  0  0  0  0  0  0  0  0  0  0
   -0.9664   13.2796    0.1765 H   0  0  0  0  0  0  0  0  0  0  0  0
    2.2276   12.2449   -2.0677 H   0  0  0  0  0  0  0  0  0  0  0  0
    1.1785    9.5726   -0.9475 H   0  0  0  0  0  0  0  0  0  0  0  0
    2.6046    9.8094   -2.0526 H   0  0  0  0  0  0  0  0  0  0  0  0
    3.2915    9.4286    0.2930 H   0  0  0  0  0  0  0  0  0  0  0  0
    3.7725   11.0560   -0.3281 H   0  0  0  0  0  0  0  0  0  0  0  0
    2.9350   11.3006    1.9074 H   0  0  0  0  0  0  0  0  0  0  0  0
    0.8330   10.5580    2.4360 H   0  0  0  0  0  0  0  0  0  0  0  0
    3.0268   13.8556    1.4791 H   0  0  0  0  0  0  0  0  0  0  0  0
    3.4796   13.0463   -0.0593 H   0  0  0  0  0  0  0  0  0  0  0  0
    2.2397   14.3460   -0.0593 H   0  0  0  0  0  0  0  0  0  0  0  0
    1.2143   12.6404    2.8852 H   0  0  0  0  0  0  0  0  0  0  0  0
    0.6334   14.0364    1.9154 H   0  0  0  0  0  0  0  0  0  0  0  0
   -0.2908   12.4961    1.9154 H   0  0  0  0  0  0  0  0  0  0  0  0
   -0.4796    9.8592   -1.9083 H   0  0  0  0  0  0  0  0  0  0  0  0
   -1.2787   10.2792   -3.4613 H   0  0  0  0  0  0  0  0  0  0  0  0
    0.2193    9.2878   -3.4613 H   0  0  0  0  0  0  0  0  0  0  0  0
    2.3989   10.6716   -3.9288 H   0  0  0  0  0  0  0  0  0  0  0  0
    0.9164   10.6901   -5.0404 H   0  0  0  0  0  0  0  0  0  0  0  0
    2.7211   13.0186   -4.3262 H   0  0  0  0  0  0  0  0  0  0  0  0
    2.4949   12.2166   -5.9303 H   0  0  0  0  0  0  0  0  0  0  0  0
   -0.8582   12.1224   -5.7347 H   0  0  0  0  0  0  0  0  0  0  0  0
   -0.6239   13.4406   -6.9322 H   0  0  0  0  0  0  0  0  0  0  0  0
    0.4769   12.0211   -6.9322 H   0  0  0  0  0  0  0  0  0  0  0  0
  1  2  1  0
  2  3  1  0
  3  4  1  0
  4  5  1  0
  5  6  1  0
  6  7  1  0
  7  8  1  0
  7  9  1  0
  2 10  1  0
 10 11  1  0
 11 12  1  0
 12 13  1  0
 13 14  1  1
 13 15  1  0
 15 16  1  0
 16 17  1  0
 17 18  2  0
 18 19  1  0
 19 20  1  0
 20 21  1  0
 21 22  1  0
 22 23  1  0
 22 24  1  0
 24 25  1  0
 24 26  1  0
 19 27  1  0
 27 28  1  1
 27 29  1  0
 29 30  1  0
 30 31  1  0
 31 32  1  6
  7  5  1  0
 31 10  1  0
 31 13  1  0
 27 15  1  0
 24 18  1  0
  1 33  1  0
  1 34  1  0
  1 35  1  0
  2 36  1  6
  3 37  1  0
  3 38  1  0
  4 39  1  0
  4 40  1  0
  5 41  1  6
  8 42  1  0
  8 43  1  0
  8 44  1  0
  9 45  1  0
  9 46  1  0
  9 47  1  0
 10 48  1  1
 11 49  1  0
 11 50  1  0
 12 51  1  0
 12 52  1  0
 14 53  1  0
 14 54  1  0
 14 55  1  0
 15 56  1  6
 16 57  1  0
 16 58  1  0
 17 59  1  0
 19 60  1  6
 20 61  1  0
 20 62  1  0
 21 63  1  0
 21 64  1  0
 22 65  1  1
 23 66  1  0
 25 67  1  0
 25 68  1  0
 25 69  1  0
 26 70  1  0
 26 71  1  0
 26 72  1  0
 28 73  1  0
 28 74  1  0
 28 75  1  0
 29 76  1  0
 29 77  1  0
 30 78  1  0
 30 79  1  0
 32 80  1  0
 32 81  1  0
 32 82  1  0
M  END
>  <meeko>  (15) 
{"is_sidechain": [false], "intermolecular_energy": 2.731, "internal_energy": -0.839}

$$$$
EPH_relaxed_0001_pdb2pqr_Repair_17_r2_0001_out
     RDKit          3D

 82 86  0  0  0  0  0  0  0  0999 V2000
   -0.0560    9.3140   -4.1880 C   0  0  0  0  0  0  0  0  0  0  0  0
    0.1040    9.5250   -2.6800 C   0  0  2  0  0  0  0  0  0  0  0  0
   -0.6940    8.4910   -1.8610 C   0  0  0  0  0  0  0  0  0  0  0  0
   -2.2080    8.5700   -2.0770 C   0  0  0  0  0  0  0  0  0  0  0  0
   -2.7500    7.3060   -2.6710 C   0  0  2  0  0  0  0  0  0  0  0  0
   -3.7970    7.4960   -3.6320 O   0  0  0  0  0  0  0  0  0  0  0  0
   -4.1610    6.8040   -2.4260 C   0  0  0  0  0  0  0  0  0  0  0  0
   -5.1170    7.5580   -1.5570 C   0  0  0  0  0  0  0  0  0  0  0  0
   -4.4490    5.3490   -2.6300 C   0  0  0  0  0  0  0  0  0  0  0  0
   -0.3330   10.9360   -2.3040 C   0  0  1  0  0  0  0  0  0  0  0  0
   -1.5500   10.9490   -1.3410 C   0  0  0  0  0  0  0  0  0  0  0  0
   -1.3550   12.1570   -0.3900 C   0  0  0  0  0  0  0  0  0  0  0  0
   -0.2230   12.9870   -1.0400 C   0  0  1  0  0  0  0  0  0  0  0  0
   -0.9260   13.8190   -2.1570 C   0  0  0  0  0  0  0  0  0  0  0  0
    0.6060   13.8980   -0.0770 C   0  0  2  0  0  0  0  0  0  0  0  0
   -0.1970   15.0070    0.6250 C   0  0  0  0  0  0  0  0  0  0  0  0
   -0.2560   16.3090   -0.1030 C   0  0  0  0  0  0  0  0  0  0  0  0
    0.5410   16.6700   -1.1260 C   0  0  0  0  0  0  0  0  0  0  0  0
    1.6900   15.7650   -1.5860 C   0  0  1  0  0  0  0  0  0  0  0  0
    2.9750   16.6140   -1.7740 C   0  0  0  0  0  0  0  0  0  0  0  0
    2.7600   17.8030   -2.7050 C   0  0  0  0  0  0  0  0  0  0  0  0
    1.6490   18.7110   -2.1830 C   0  0  2  0  0  0  0  0  0  0  0  0
    2.0840   19.3160   -0.9620 O   0  0  0  0  0  0  0  0  0  0  0  0
    0.3070   17.9630   -1.9470 C   0  0  0  0  0  0  0  0  0  0  0  0
   -0.3160   17.5680   -3.3080 C   0  0  0  0  0  0  0  0  0  0  0  0
   -0.6850   18.9590   -1.2880 C   0  0  0  0  0  0  0  0  0  0  0  0
    1.9420   14.4640   -0.7100 C   0  0  1  0  0  0  0  0  0  0  0  0
    2.8910   14.7990    0.4810 C   0  0  0  0  0  0  0  0  0  0  0  0
    2.6900   13.3900   -1.5860 C   0  0  0  0  0  0  0  0  0  0  0  0
    1.8110   12.4410   -2.4230 C   0  0  0  0  0  0  0  0  0  0  0  0
    0.6980   11.8280   -1.5680 C   0  0  2  0  0  0  0  0  0  0  0  0
    1.3760   10.9660   -0.4480 C   0  0  0  0  0  0  0  0  0  0  0  0
   -0.7115    8.4496   -4.3698 H   0  0  0  0  0  0  0  0  0  0  0  0
   -0.5014   10.2131   -4.6388 H   0  0  0  0  0  0  0  0  0  0  0  0
    0.9299    9.1277   -4.6388 H   0  0  0  0  0  0  0  0  0  0  0  0
    1.1682    9.3878   -2.4376 H   0  0  0  0  0  0  0  0  0  0  0  0
   -0.3545    7.4846   -2.1472 H   0  0  0  0  0  0  0  0  0  0  0  0
   -0.5091    8.7103   -0.7991 H   0  0  0  0  0  0  0  0  0  0  0  0
   -2.6975    8.7469   -1.1080 H   0  0  0  0  0  0  0  0  0  0  0  0
   -2.4118    9.3930   -2.7779 H   0  0  0  0  0  0  0  0  0  0  0  0
   -1.7680    6.8177   -2.5861 H   0  0  0  0  0  0  0  0  0  0  0  0
   -4.8783    7.3697   -0.4999 H   0  0  0  0  0  0  0  0  0  0  0  0
   -5.0317    8.6346   -1.7661 H   0  0  0  0  0  0  0  0  0  0  0  0
   -6.1441    7.2242   -1.7661 H   0  0  0  0  0  0  0  0  0  0  0  0
   -4.5470    4.8541   -1.6525 H   0  0  0  0  0  0  0  0  0  0  0  0
   -5.3869    5.2364   -3.1937 H   0  0  0  0  0  0  0  0  0  0  0  0
   -3.6248    4.8876   -3.1937 H   0  0  0  0  0  0  0  0  0  0  0  0
   -0.5316   11.3399   -3.3077 H   0  0  0  0  0  0  0  0  0  0  0  0
   -2.4834   11.0631   -1.9117 H   0  0  0  0  0  0  0  0  0  0  0  0
   -1.6161   10.0078   -0.7754 H   0  0  0  0  0  0  0  0  0  0  0  0
   -2.2794   12.7491   -0.3198 H   0  0  0  0  0  0  0  0  0  0  0  0
   -1.1073   11.8449    0.6353 H   0  0  0  0  0  0  0  0  0  0  0  0
   -1.5704   14.5817   -1.6955 H   0  0  0  0  0  0  0  0  0  0  0  0
   -0.1656   14.3106   -2.7815 H   0  0  0  0  0  0  0  0  0  0  0  0
   -1.5376   13.1513   -2.7815 H   0  0  0  0  0  0  0  0  0  0  0  0
    0.9011   13.1954    0.7162 H   0  0  0  0  0  0  0  0  0  0  0  0
   -1.2273   14.6466    0.7611 H   0  0  0  0  0  0  0  0  0  0  0  0
    0.3268   15.2103    1.5707 H   0  0  0  0  0  0  0  0  0  0  0  0
   -1.0150   17.0348    0.2242 H   0  0  0  0  0  0  0  0  0  0  0  0
    1.3758   15.3436   -2.5523 H   0  0  0  0  0  0  0  0  0  0  0  0
    3.2964   16.9894   -0.7913 H   0  0  0  0  0  0  0  0  0  0  0  0
    3.7387   15.9669   -2.2301 H   0  0  0  0  0  0  0  0  0  0  0  0
    3.6940   18.3800   -2.7736 H   0  0  0  0  0  0  0  0  0  0  0  0
    2.4678   17.4248   -3.6957 H   0  0  0  0  0  0  0  0  0  0  0  0
    1.4532   19.4702   -2.9545 H   0  0  0  0  0  0  0  0  0  0  0  0
    1.3300   19.8050   -0.5910 H   0  0  0  0  0  0  0  0  0  0  0  0
   -1.2336   16.9862   -3.1362 H   0  0  0  0  0  0  0  0  0  0  0  0
   -0.5595   18.4771   -3.8775 H   0  0  0  0  0  0  0  0  0  0  0  0
    0.4024   16.9600   -3.8775 H   0  0  0  0  0  0  0  0  0  0  0  0
   -0.6086   18.8823   -0.1933 H   0  0  0  0  0  0  0  0  0  0  0  0
   -0.4382   19.9840   -1.6019 H   0  0  0  0  0  0  0  0  0  0  0  0
   -1.7110   18.7164   -1.6019 H   0  0  0  0  0  0  0  0  0  0  0  0
    2.3672   14.6141    1.4304 H   0  0  0  0  0  0  0  0  0  0  0  0
    3.7866   14.1627    0.4264 H   0  0  0  0  0  0  0  0  0  0  0  0
    3.1887   15.8565    0.4264 H   0  0  0  0  0  0  0  0  0  0  0  0
    3.3518   13.9290   -2.2798 H   0  0  0  0  0  0  0  0  0  0  0  0
    3.2081   12.7409   -0.8648 H   0  0  0  0  0  0  0  0  0  0  0  0
    1.3587   13.0062   -3.2512 H   0  0  0  0  0  0  0  0  0  0  0  0
    2.4429   11.6286   -2.8112 H   0  0  0  0  0  0  0  0  0  0  0  0
    1.0765   11.3468    0.5396 H   0  0  0  0  0  0  0  0  0  0  0  0
    1.0577    9.9179   -0.5488 H   0  0  0  0  0  0  0  0  0  0  0  0
    2.4696   11.0284   -0.5488 H   0  0  0  0  0  0  0  0  0  0  0  0
  1  2  1  0
  2  3  1  0
  3  4  1  0
  4  5  1  0
  5  6  1  0
  6  7  1  0
  7  8  1  0
  7  9  1  0
  2 10  1  0
 10 11  1  0
 11 12  1  0
 12 13  1  0
 13 14  1  6
 13 15  1  0
 15 16  1  0
 16 17  1  0
 17 18  2  0
 18 19  1  0
 19 20  1  0
 20 21  1  0
 21 22  1  0
 22 23  1  0
 22 24  1  0
 24 25  1  0
 24 26  1  0
 19 27  1  0
 27 28  1  1
 27 29  1  0
 29 30  1  0
 30 31  1  0
 31 32  1  1
  7  5  1  0
 31 10  1  0
 31 13  1  0
 27 15  1  0
 24 18  1  0
  1 33  1  0
  1 34  1  0
  1 35  1  0
  2 36  1  1
  3 37  1  0
  3 38  1  0
  4 39  1  0
  4 40  1  0
  5 41  1  6
  8 42  1  0
  8 43  1  0
  8 44  1  0
  9 45  1  0
  9 46  1  0
  9 47  1  0
 10 48  1  6
 11 49  1  0
 11 50  1  0
 12 51  1  0
 12 52  1  0
 14 53  1  0
 14 54  1  0
 14 55  1  0
 15 56  1  1
 16 57  1  0
 16 58  1  0
 17 59  1  0
 19 60  1  6
 20 61  1  0
 20 62  1  0
 21 63  1  0
 21 64  1  0
 22 65  1  6
 23 66  1  0
 25 67  1  0
 25 68  1  0
 25 69  1  0
 26 70  1  0
 26 71  1  0
 26 72  1  0
 28 73  1  0
 28 74  1  0
 28 75  1  0
 29 76  1  0
 29 77  1  0
 30 78  1  0
 30 79  1  0
 32 80  1  0
 32 81  1  0
 32 82  1  0
M  END
>  <meeko>  (16) 
{"is_sidechain": [false], "intermolecular_energy": 2.731, "internal_energy": -0.839}

$$$$
EPH_relaxed_0001_pdb2pqr_Repair_17_r2_0001_out
     RDKit          3D

 82 86  0  0  0  0  0  0  0  0999 V2000
   -1.7360   14.8090    0.4480 C   0  0  0  0  0  0  0  0  0  0  0  0
   -0.3900   15.5130    0.2600 C   0  0  2  0  0  0  0  0  0  0  0  0
   -0.4270   16.5410   -0.8880 C   0  0  0  0  0  0  0  0  0  0  0  0
   -0.0480   17.9600   -0.4560 C   0  0  0  0  0  0  0  0  0  0  0  0
    1.3900   18.0480   -0.0420 C   0  0  2  0  0  0  0  0  0  0  0  0
    2.0480   19.2640   -0.4180 O   0  0  0  0  0  0  0  0  0  0  0  0
    2.5450   18.0610   -1.0260 C   0  0  0  0  0  0  0  0  0  0  0  0
    2.3130   17.9830   -2.5020 C   0  0  0  0  0  0  0  0  0  0  0  0
    3.9020   17.6560   -0.5410 C   0  0  0  0  0  0  0  0  0  0  0  0
    0.7040   14.4830    0.0010 C   0  0  1  0  0  0  0  0  0  0  0  0
    0.8350   13.4490    1.1520 C   0  0  0  0  0  0  0  0  0  0  0  0
    1.2140   12.0970    0.4960 C   0  0  0  0  0  0  0  0  0  0  0  0
    1.6120   12.4630   -0.9530 C   0  0  1  0  0  0  0  0  0  0  0  0
    3.0850   12.9700   -0.8490 C   0  0  0  0  0  0  0  0  0  0  0  0
    1.4660   11.3270   -2.0170 C   0  0  2  0  0  0  0  0  0  0  0  0
    2.3520   10.0920   -1.7800 C   0  0  0  0  0  0  0  0  0  0  0  0
    3.6970   10.1390   -2.4240 C   0  0  0  0  0  0  0  0  0  0  0  0
    4.0710   10.9950   -3.3930 C   0  0  0  0  0  0  0  0  0  0  0  0
    3.0650   11.9770   -4.0070 C   0  0  1  0  0  0  0  0  0  0  0  0
    3.1920   11.9500   -5.5530 C   0  0  0  0  0  0  0  0  0  0  0  0
    4.6200   12.2040   -6.0270 C   0  0  0  0  0  0  0  0  0  0  0  0
    5.5810   11.1720   -5.4420 C   0  0  2  0  0  0  0  0  0  0  0  0
    5.2690    9.8880   -5.9910 O   0  0  0  0  0  0  0  0  0  0  0  0
    5.5340   11.1020   -3.8900 C   0  0  0  0  0  0  0  0  0  0  0  0
    6.1570   12.3870   -3.2920 C   0  0  0  0  0  0  0  0  0  0  0  0
    6.4430    9.9280   -3.4380 C   0  0  0  0  0  0  0  0  0  0  0  0
    1.5610   11.8280   -3.5160 C   0  0  1  0  0  0  0  0  0  0  0  0
    0.8200   10.7680   -4.3870 C   0  0  0  0  0  0  0  0  0  0  0  0
    0.8090   13.1920   -3.7400 C   0  0  0  0  0  0  0  0  0  0  0  0
    0.8920   14.2270   -2.6020 C   0  0  0  0  0  0  0  0  0  0  0  0
    0.5530   13.5860   -1.2520 C   0  0  2  0  0  0  0  0  0  0  0  0
   -0.9310   13.0860   -1.3190 C   0  0  0  0  0  0  0  0  0  0  0  0
   -1.9456   14.6994    1.5223 H   0  0  0  0  0  0  0  0  0  0  0  0
   -2.5311   15.4067   -0.0216 H   0  0  0  0  0  0  0  0  0  0  0  0
   -1.6986   13.8150   -0.0216 H   0  0  0  0  0  0  0  0  0  0  0  0
   -0.1721   16.0621    1.1879 H   0  0  0  0  0  0  0  0  0  0  0  0
    0.2770   16.2158   -1.6682 H   0  0  0  0  0  0  0  0  0  0  0  0
   -1.4650   16.5816   -1.2498 H   0  0  0  0  0  0  0  0  0  0  0  0
   -0.2192   18.6467   -1.2981 H   0  0  0  0  0  0  0  0  0  0  0  0
   -0.6710   18.2332    0.4084 H   0  0  0  0  0  0  0  0  0  0  0  0
    1.1925   17.4440    0.8559 H   0  0  0  0  0  0  0  0  0  0  0  0
    1.2864   17.6378   -2.6941 H   0  0  0  0  0  0  0  0  0  0  0  0
    2.4548   18.9782   -2.9486 H   0  0  0  0  0  0  0  0  0  0  0  0
    3.0273   17.2756   -2.9486 H   0  0  0  0  0  0  0  0  0  0  0  0
    3.9124   17.6529    0.5589 H   0  0  0  0  0  0  0  0  0  0  0  0
    4.1385   16.6481   -0.9128 H   0  0  0  0  0  0  0  0  0  0  0  0
    4.6523   18.3694   -0.9128 H   0  0  0  0  0  0  0  0  0  0  0  0
    1.5663   15.1553   -0.1192 H   0  0  0  0  0  0  0  0  0  0  0  0
    1.6205   13.7624    1.8554 H   0  0  0  0  0  0  0  0  0  0  0  0
   -0.1052   13.3647    1.7167 H   0  0  0  0  0  0  0  0  0  0  0  0
    2.0591   11.6323    1.0250 H   0  0  0  0  0  0  0  0  0  0  0  0
    0.3882   11.3711    0.5306 H   0  0  0  0  0  0  0  0  0  0  0  0
    3.3656   13.0666    0.2102 H   0  0  0  0  0  0  0  0  0  0  0  0
    3.7559   12.2511   -1.3420 H   0  0  0  0  0  0  0  0  0  0  0  0
    3.1713   13.9496   -1.3420 H   0  0  0  0  0  0  0  0  0  0  0  0
    0.4322   10.9864   -1.8582 H   0  0  0  0  0  0  0  0  0  0  0  0
    2.4983    9.9818   -0.6953 H   0  0  0  0  0  0  0  0  0  0  0  0
    1.8232    9.2452   -2.2418 H   0  0  0  0  0  0  0  0  0  0  0  0
    4.4466    9.4124   -2.0775 H   0  0  0  0  0  0  0  0  0  0  0  0
    3.3414   12.9715   -3.6267 H   0  0  0  0  0  0  0  0  0  0  0  0
    2.8702   10.9628   -5.9161 H   0  0  0  0  0  0  0  0  0  0  0  0
    2.5587   12.7549   -5.9543 H   0  0  0  0  0  0  0  0  0  0  0  0
    4.6510   12.1431   -7.1249 H   0  0  0  0  0  0  0  0  0  0  0  0
    4.9297   13.2037   -5.6882 H   0  0  0  0  0  0  0  0  0  0  0  0
    6.6015   11.4818   -5.7113 H   0  0  0  0  0  0  0  0  0  0  0  0
    5.2610    9.2490   -5.2590 H   0  0  0  0  0  0  0  0  0  0  0  0
    6.1298   12.3309   -2.1938 H   0  0  0  0  0  0  0  0  0  0  0  0
    7.2001   12.4797   -3.6287 H   0  0  0  0  0  0  0  0  0  0  0  0
    5.5838   13.2634   -3.6287 H   0  0  0  0  0  0  0  0  0  0  0  0
    6.4728    9.8895   -2.3391 H   0  0  0  0  0  0  0  0  0  0  0  0
    6.0400    8.9814   -3.8273 H   0  0  0  0  0  0  0  0  0  0  0  0
    7.4604   10.0811   -3.8273 H   0  0  0  0  0  0  0  0  0  0  0  0
    0.3138   10.0439   -3.7316 H   0  0  0  0  0  0  0  0  0  0  0  0
    0.0756   11.2707   -5.0219 H   0  0  0  0  0  0  0  0  0  0  0  0
    1.5478   10.2416   -5.0219 H   0  0  0  0  0  0  0  0  0  0  0  0
    1.2274   13.6578   -4.6444 H   0  0  0  0  0  0  0  0  0  0  0  0
   -0.2559   12.9252   -3.8087 H   0  0  0  0  0  0  0  0  0  0  0  0
    1.9127   14.6351   -2.5604 H   0  0  0  0  0  0  0  0  0  0  0  0
    0.1651   15.0279   -2.8025 H   0  0  0  0  0  0  0  0  0  0  0  0
   -1.3202   12.9549   -0.2985 H   0  0  0  0  0  0  0  0  0  0  0  0
   -1.5439   13.8272   -1.8527 H   0  0  0  0  0  0  0  0  0  0  0  0
   -0.9704   12.1250   -1.8527 H   0  0  0  0  0  0  0  0  0  0  0  0
  1  2  1  0
  2  3  1  0
  3  4  1  0
  4  5  1  0
  5  6  1  0
  6  7  1  0
  7  8  1  0
  7  9  1  0
  2 10  1  0
 10 11  1  0
 11 12  1  0
 12 13  1  0
 13 14  1  1
 13 15  1  0
 15 16  1  0
 16 17  1  0
 17 18  2  0
 18 19  1  0
 19 20  1  0
 20 21  1  0
 21 22  1  0
 22 23  1  0
 22 24  1  0
 24 25  1  0
 24 26  1  0
 19 27  1  0
 27 28  1  6
 27 29  1  0
 29 30  1  0
 30 31  1  0
 31 32  1  6
  7  5  1  0
 31 10  1  0
 31 13  1  0
 27 15  1  0
 24 18  1  0
  1 33  1  0
  1 34  1  0
  1 35  1  0
  2 36  1  1
  3 37  1  0
  3 38  1  0
  4 39  1  0
  4 40  1  0
  5 41  1  1
  8 42  1  0
  8 43  1  0
  8 44  1  0
  9 45  1  0
  9 46  1  0
  9 47  1  0
 10 48  1  6
 11 49  1  0
 11 50  1  0
 12 51  1  0
 12 52  1  0
 14 53  1  0
 14 54  1  0
 14 55  1  0
 15 56  1  6
 16 57  1  0
 16 58  1  0
 17 59  1  0
 19 60  1  1
 20 61  1  0
 20 62  1  0
 21 63  1  0
 21 64  1  0
 22 65  1  1
 23 66  1  0
 25 67  1  0
 25 68  1  0
 25 69  1  0
 26 70  1  0
 26 71  1  0
 26 72  1  0
 28 73  1  0
 28 74  1  0
 28 75  1  0
 29 76  1  0
 29 77  1  0
 30 78  1  0
 30 79  1  0
 32 80  1  0
 32 81  1  0
 32 82  1  0
M  END
>  <meeko>  (17) 
{"is_sidechain": [false], "intermolecular_energy": 2.731, "internal_energy": -0.839}

$$$$
EPH_relaxed_0001_pdb2pqr_Repair_17_r2_0001_out
     RDKit          3D

 82 86  0  0  0  0  0  0  0  0999 V2000
    0.9910   14.9520   -2.7480 C   0  0  0  0  0  0  0  0  0  0  0  0
    1.2120   14.2710   -4.1010 C   0  0  2  0  0  0  0  0  0  0  0  0
    0.4670   14.9910   -5.2430 C   0  0  0  0  0  0  0  0  0  0  0  0
    0.9610   14.6060   -6.6400 C   0  0  0  0  0  0  0  0  0  0  0  0
    0.7850   15.7280   -7.6190 C   0  0  2  0  0  0  0  0  0  0  0  0
    0.4190   15.3150   -8.9420 O   0  0  0  0  0  0  0  0  0  0  0  0
    1.7000   15.9510   -8.8080 C   0  0  0  0  0  0  0  0  0  0  0  0
    2.8610   15.0470   -9.0800 C   0  0  0  0  0  0  0  0  0  0  0  0
    1.7610   17.3180   -9.4160 C   0  0  0  0  0  0  0  0  0  0  0  0
    0.7700   12.8140   -4.0290 C   0  0  1  0  0  0  0  0  0  0  0  0
    1.9030   11.8260   -4.4130 C   0  0  0  0  0  0  0  0  0  0  0  0
    1.7200   10.5680   -3.5260 C   0  0  0  0  0  0  0  0  0  0  0  0
    0.3120   10.7300   -2.9060 C   0  0  1  0  0  0  0  0  0  0  0  0
   -0.6730   10.2450   -4.0150 C   0  0  0  0  0  0  0  0  0  0  0  0
    0.0650    9.9900   -1.5510 C   0  0  2  0  0  0  0  0  0  0  0  0
    0.1770    8.4570   -1.6140 C   0  0  0  0  0  0  0  0  0  0  0  0
   -1.0950    7.7360   -1.9170 C   0  0  0  0  0  0  0  0  0  0  0  0
   -2.3300    8.2670   -1.8500 C   0  0  0  0  0  0  0  0  0  0  0  0
   -2.5450    9.6980   -1.3400 C   0  0  1  0  0  0  0  0  0  0  0  0
   -3.7150    9.7150   -0.3210 C   0  0  0  0  0  0  0  0  0  0  0  0
   -4.9910    9.0980   -0.8850 C   0  0  0  0  0  0  0  0  0  0  0  0
   -4.7520    7.6570   -1.3270 C   0  0  2  0  0  0  0  0  0  0  0  0
   -4.4770    6.8600   -0.1700 O   0  0  0  0  0  0  0  0  0  0  0  0
   -3.5880    7.5140   -2.3480 C   0  0  0  0  0  0  0  0  0  0  0  0
   -4.0120    8.1220   -3.7080 C   0  0  0  0  0  0  0  0  0  0  0  0
   -3.3590    6.0000   -2.6020 C   0  0  0  0  0  0  0  0  0  0  0  0
   -1.2510   10.4420   -0.7960 C   0  0  1  0  0  0  0  0  0  0  0  0
   -1.0370   10.1050    0.7110 C   0  0  0  0  0  0  0  0  0  0  0  0
   -1.4810   11.9980   -0.8750 C   0  0  0  0  0  0  0  0  0  0  0  0
   -1.1050   12.6900   -2.1990 C   0  0  0  0  0  0  0  0  0  0  0  0
    0.3000   12.2810   -2.6520 C   0  0  2  0  0  0  0  0  0  0  0  0
    1.3150   12.7750   -1.5660 C   0  0  0  0  0  0  0  0  0  0  0  0
    1.2210   14.2432   -1.9388 H   0  0  0  0  0  0  0  0  0  0  0  0
    1.6509   15.8283   -2.6664 H   0  0  0  0  0  0  0  0  0  0  0  0
   -0.0577   15.2738   -2.6664 H   0  0  0  0  0  0  0  0  0  0  0  0
    2.2878   14.3226   -4.3244 H   0  0  0  0  0  0  0  0  0  0  0  0
   -0.6019   14.7413   -5.1718 H   0  0  0  0  0  0  0  0  0  0  0  0
    0.6560   16.0678   -5.1210 H   0  0  0  0  0  0  0  0  0  0  0  0
    2.0287   14.3477   -6.5820 H   0  0  0  0  0  0  0  0  0  0  0  0
    0.3666   13.7491   -6.9899 H   0  0  0  0  0  0  0  0  0  0  0  0
    0.4333   16.4002   -6.8225 H   0  0  0  0  0  0  0  0  0  0  0  0
    3.2942   14.7097   -8.1268 H   0  0  0  0  0  0  0  0  0  0  0  0
    2.5193   14.1747   -9.6566 H   0  0  0  0  0  0  0  0  0  0  0  0
    3.6229   15.5921   -9.6566 H   0  0  0  0  0  0  0  0  0  0  0  0
    1.7947   18.0734   -8.6171 H   0  0  0  0  0  0  0  0  0  0  0  0
    2.6638   17.4024  -10.0388 H   0  0  0  0  0  0  0  0  0  0  0  0
    0.8693   17.4824  -10.0388 H   0  0  0  0  0  0  0  0  0  0  0  0
   -0.0768   12.8434   -4.7305 H   0  0  0  0  0  0  0  0  0  0  0  0
    1.8245   11.5545   -5.4761 H   0  0  0  0  0  0  0  0  0  0  0  0
    2.8926   12.2797   -4.2551 H   0  0  0  0  0  0  0  0  0  0  0  0
    1.7738    9.6529   -4.1340 H   0  0  0  0  0  0  0  0  0  0  0  0
    2.5053   10.4789   -2.7609 H   0  0  0  0  0  0  0  0  0  0  0  0
   -1.5656    9.8055   -3.5459 H   0  0  0  0  0  0  0  0  0  0  0  0
   -0.9706   11.0996   -4.6404 H   0  0  0  0  0  0  0  0  0  0  0  0
   -0.1771    9.4881   -4.6404 H   0  0  0  0  0  0  0  0  0  0  0  0
    0.9159   10.3268   -0.9407 H   0  0  0  0  0  0  0  0  0  0  0  0
    0.9070    8.2015   -2.3962 H   0  0  0  0  0  0  0  0  0  0  0  0
    0.4781    8.1325   -0.6070 H   0  0  0  0  0  0  0  0  0  0  0  0
   -1.0161    6.6817   -2.2207 H   0  0  0  0  0  0  0  0  0  0  0  0
   -2.8106   10.2983   -2.2227 H   0  0  0  0  0  0  0  0  0  0  0  0
   -3.4135    9.1472    0.5716 H   0  0  0  0  0  0  0  0  0  0  0  0
   -3.9312   10.7659   -0.0784 H   0  0  0  0  0  0  0  0  0  0  0  0
   -5.7707    9.1118   -0.1092 H   0  0  0  0  0  0  0  0  0  0  0  0
   -5.3076    9.6852   -1.7596 H   0  0  0  0  0  0  0  0  0  0  0  0
   -5.6628    7.3137   -1.8395 H   0  0  0  0  0  0  0  0  0  0  0  0
   -3.7790    6.2270   -0.4080 H   0  0  0  0  0  0  0  0  0  0  0  0
   -4.6333    9.0129   -3.5336 H   0  0  0  0  0  0  0  0  0  0  0  0
   -3.1152    8.4062   -4.2781 H   0  0  0  0  0  0  0  0  0  0  0  0
   -4.5886    7.3787   -4.2781 H   0  0  0  0  0  0  0  0  0  0  0  0
   -3.2795    5.4745   -1.6389 H   0  0  0  0  0  0  0  0  0  0  0  0
   -4.2056    5.5919   -3.1736 H   0  0  0  0  0  0  0  0  0  0  0  0
   -2.4295    5.8606   -3.1736 H   0  0  0  0  0  0  0  0  0  0  0  0
   -1.5241   10.8720    1.3310 H   0  0  0  0  0  0  0  0  0  0  0  0
   -1.4762    9.1211    0.9327 H   0  0  0  0  0  0  0  0  0  0  0  0
    0.0402   10.0841    0.9327 H   0  0  0  0  0  0  0  0  0  0  0  0
   -2.5494   12.1860   -0.6931 H   0  0  0  0  0  0  0  0  0  0  0  0
   -0.8025   12.4275   -0.1232 H   0  0  0  0  0  0  0  0  0  0  0  0
   -1.8308   12.4026   -2.9740 H   0  0  0  0  0  0  0  0  0  0  0  0
   -1.1198   13.7787   -2.0422 H   0  0  0  0  0  0  0  0  0  0  0  0
    0.9061   12.5760   -0.5644 H   0  0  0  0  0  0  0  0  0  0  0  0
    2.2689   12.2404   -1.6855 H   0  0  0  0  0  0  0  0  0  0  0  0
    1.4828   13.8555   -1.6855 H   0  0  0  0  0  0  0  0  0  0  0  0
  1  2  1  0
  2  3  1  0
  3  4  1  0
  4  5  1  0
  5  6  1  0
  6  7  1  0
  7  8  1  0
  7  9  1  0
  2 10  1  0
 10 11  1  0
 11 12  1  0
 12 13  1  0
 13 14  1  6
 13 15  1  0
 15 16  1  0
 16 17  1  0
 17 18  2  0
 18 19  1  0
 19 20  1  0
 20 21  1  0
 21 22  1  0
 22 23  1  0
 22 24  1  0
 24 25  1  0
 24 26  1  0
 19 27  1  0
 27 28  1  1
 27 29  1  0
 29 30  1  0
 30 31  1  0
 31 32  1  1
  7  5  1  0
 31 10  1  0
 31 13  1  0
 27 15  1  0
 24 18  1  0
  1 33  1  0
  1 34  1  0
  1 35  1  0
  2 36  1  6
  3 37  1  0
  3 38  1  0
  4 39  1  0
  4 40  1  0
  5 41  1  1
  8 42  1  0
  8 43  1  0
  8 44  1  0
  9 45  1  0
  9 46  1  0
  9 47  1  0
 10 48  1  6
 11 49  1  0
 11 50  1  0
 12 51  1  0
 12 52  1  0
 14 53  1  0
 14 54  1  0
 14 55  1  0
 15 56  1  1
 16 57  1  0
 16 58  1  0
 17 59  1  0
 19 60  1  6
 20 61  1  0
 20 62  1  0
 21 63  1  0
 21 64  1  0
 22 65  1  6
 23 66  1  0
 25 67  1  0
 25 68  1  0
 25 69  1  0
 26 70  1  0
 26 71  1  0
 26 72  1  0
 28 73  1  0
 28 74  1  0
 28 75  1  0
 29 76  1  0
 29 77  1  0
 30 78  1  0
 30 79  1  0
 32 80  1  0
 32 81  1  0
 32 82  1  0
M  END
>  <meeko>  (18) 
{"is_sidechain": [false], "intermolecular_energy": 2.731, "internal_energy": -0.839}

$$$$
EPH_relaxed_0001_pdb2pqr_Repair_17_r2_0001_out
     RDKit          3D

 82 86  0  0  0  0  0  0  0  0999 V2000
    1.8440   18.4950   -2.1880 C   0  0  0  0  0  0  0  0  0  0  0  0
    2.2260   17.3060   -3.0750 C   0  0  2  0  0  0  0  0  0  0  0  0
    1.2190   17.0900   -4.2220 C   0  0  0  0  0  0  0  0  0  0  0  0
    1.6040   15.9550   -5.1740 C   0  0  0  0  0  0  0  0  0  0  0  0
    0.5930   15.7800   -6.2660 C   0  0  2  0  0  0  0  0  0  0  0  0
    0.5640   14.4720   -6.8520 O   0  0  0  0  0  0  0  0  0  0  0  0
    0.9630   15.5460   -7.7190 C   0  0  0  0  0  0  0  0  0  0  0  0
    2.3920   15.4750   -8.1590 C   0  0  0  0  0  0  0  0  0  0  0  0
   -0.0450   15.8740   -8.7760 C   0  0  0  0  0  0  0  0  0  0  0  0
    2.3340   16.0420   -2.2310 C   0  0  1  0  0  0  0  0  0  0  0  0
    2.8760   16.3200   -0.8040 C   0  0  0  0  0  0  0  0  0  0  0  0
    2.1570   15.3310    0.1490 C   0  0  0  0  0  0  0  0  0  0  0  0
    1.4830   14.3040   -0.7920 C   0  0  1  0  0  0  0  0  0  0  0  0
    2.6200   13.3060   -1.1760 C   0  0  0  0  0  0  0  0  0  0  0  0
    0.2320   13.5610   -0.2210 C   0  0  2  0  0  0  0  0  0  0  0  0
    0.4990   12.6860    1.0160 C   0  0  0  0  0  0  0  0  0  0  0  0
    0.8600   11.2670    0.7260 C   0  0  0  0  0  0  0  0  0  0  0  0
    0.6900   10.6410   -0.4530 C   0  0  0  0  0  0  0  0  0  0  0  0
   -0.0090   11.3440   -1.6240 C   0  0  1  0  0  0  0  0  0  0  0  0
   -1.0530   10.3860   -2.2550 C   0  0  0  0  0  0  0  0  0  0  0  0
   -0.4470    9.0450   -2.6580 C   0  0  0  0  0  0  0  0  0  0  0  0
    0.1870    8.3500   -1.4550 C   0  0  2  0  0  0  0  0  0  0  0  0
   -0.8470    7.9880   -0.5340 O   0  0  0  0  0  0  0  0  0  0  0  0
    1.2490    9.2240   -0.7320 C   0  0  0  0  0  0  0  0  0  0  0  0
    2.5050    9.3640   -1.6270 C   0  0  0  0  0  0  0  0  0  0  0  0
    1.7060    8.4630    0.5420 C   0  0  0  0  0  0  0  0  0  0  0  0
   -0.6110   12.7810   -1.3100 C   0  0  1  0  0  0  0  0  0  0  0  0
   -2.0550   12.6390   -0.7380 C   0  0  0  0  0  0  0  0  0  0  0  0
   -0.7440   13.5880   -2.6550 C   0  0  0  0  0  0  0  0  0  0  0  0
    0.4870   14.3980   -3.1040 C   0  0  0  0  0  0  0  0  0  0  0  0
    1.0270   15.2560   -1.9570 C   0  0  2  0  0  0  0  0  0  0  0  0
   -0.0870   16.2850   -1.5640 C   0  0  0  0  0  0  0  0  0  0  0  0
    1.9363   18.2079   -1.1302 H   0  0  0  0  0  0  0  0  0  0  0  0
    2.5158   19.3402   -2.3984 H   0  0  0  0  0  0  0  0  0  0  0  0
    0.8056   18.7908   -2.3984 H   0  0  0  0  0  0  0  0  0  0  0  0
    3.2010   17.5328   -3.5309 H   0  0  0  0  0  0  0  0  0  0  0  0
    0.2376   16.8571   -3.7831 H   0  0  0  0  0  0  0  0  0  0  0  0
    1.2047   18.0161   -4.8155 H   0  0  0  0  0  0  0  0  0  0  0  0
    2.5804   16.1845   -5.6257 H   0  0  0  0  0  0  0  0  0  0  0  0
    1.6473   15.0212   -4.5942 H   0  0  0  0  0  0  0  0  0  0  0  0
   -0.0864   16.4983   -5.7839 H   0  0  0  0  0  0  0  0  0  0  0  0
    3.0465   15.4425   -7.2755 H   0  0  0  0  0  0  0  0  0  0  0  0
    2.5452   14.5681   -8.7624 H   0  0  0  0  0  0  0  0  0  0  0  0
    2.6344   16.3622   -8.7624 H   0  0  0  0  0  0  0  0  0  0  0  0
   -0.9882   16.1809   -8.3005 H   0  0  0  0  0  0  0  0  0  0  0  0
    0.3342   16.6951   -9.4021 H   0  0  0  0  0  0  0  0  0  0  0  0
   -0.2216   14.9870   -9.4021 H   0  0  0  0  0  0  0  0  0  0  0  0
    3.0022   15.4489   -2.8727 H   0  0  0  0  0  0  0  0  0  0  0  0
    3.9629   16.1535   -0.7727 H   0  0  0  0  0  0  0  0  0  0  0  0
    2.6877   17.3621   -0.5065 H   0  0  0  0  0  0  0  0  0  0  0  0
    2.8810   14.8341    0.8116 H   0  0  0  0  0  0  0  0  0  0  0  0
    1.4318   15.8354    0.8046 H   0  0  0  0  0  0  0  0  0  0  0  0
    3.0789   12.9032   -0.2610 H   0  0  0  0  0  0  0  0  0  0  0  0
    2.1987   12.4807   -1.7688 H   0  0  0  0  0  0  0  0  0  0  0  0
    3.3837   13.8307   -1.7688 H   0  0  0  0  0  0  0  0  0  0  0  0
   -0.3944   14.3931    0.1330 H   0  0  0  0  0  0  0  0  0  0  0  0
    1.3272   13.1390    1.5807 H   0  0  0  0  0  0  0  0  0  0  0  0
   -0.4477   12.6515    1.5751 H   0  0  0  0  0  0  0  0  0  0  0  0
    1.3029   10.6830    1.5462 H   0  0  0  0  0  0  0  0  0  0  0  0
    0.7795   11.5710   -2.3566 H   0  0  0  0  0  0  0  0  0  0  0  0
   -1.8539   10.2054   -1.5229 H   0  0  0  0  0  0  0  0  0  0  0  0
   -1.4389   10.8658   -3.1665 H   0  0  0  0  0  0  0  0  0  0  0  0
   -1.2383    8.4015   -3.0700 H   0  0  0  0  0  0  0  0  0  0  0  0
    0.3336    9.2245   -3.4119 H   0  0  0  0  0  0  0  0  0  0  0  0
    0.7153    7.4604   -1.8285 H   0  0  0  0  0  0  0  0  0  0  0  0
   -1.3900    7.3010   -0.9570 H   0  0  0  0  0  0  0  0  0  0  0  0
    3.3981    9.4635   -0.9926 H   0  0  0  0  0  0  0  0  0  0  0  0
    2.6040    8.4713   -2.2621 H   0  0  0  0  0  0  0  0  0  0  0  0
    2.4050   10.2566   -2.2621 H   0  0  0  0  0  0  0  0  0  0  0  0
    1.3758    9.0128    1.4357 H   0  0  0  0  0  0  0  0  0  0  0  0
    1.2630    7.4562    0.5464 H   0  0  0  0  0  0  0  0  0  0  0  0
    2.8029    8.3809    0.5464 H   0  0  0  0  0  0  0  0  0  0  0  0
   -2.0159   12.6428    0.3613 H   0  0  0  0  0  0  0  0  0  0  0  0
   -2.6716   13.4808   -1.0859 H   0  0  0  0  0  0  0  0  0  0  0  0
   -2.4958   11.6932   -1.0859 H   0  0  0  0  0  0  0  0  0  0  0  0
   -0.9778   12.8681   -3.4532 H   0  0  0  0  0  0  0  0  0  0  0  0
   -1.5273   14.3366   -2.4651 H   0  0  0  0  0  0  0  0  0  0  0  0
    1.2734   13.7037   -3.4350 H   0  0  0  0  0  0  0  0  0  0  0  0
    0.1879   15.0624   -3.9281 H   0  0  0  0  0  0  0  0  0  0  0  0
   -0.1566   16.3493   -0.4681 H   0  0  0  0  0  0  0  0  0  0  0  0
    0.1661   17.2739   -1.9740 H   0  0  0  0  0  0  0  0  0  0  0  0
   -1.0527   15.9543   -1.9740 H   0  0  0  0  0  0  0  0  0  0  0  0
  1  2  1  0
  2  3  1  0
  3  4  1  0
  4  5  1  0
  5  6  1  0
  6  7  1  0
  7  8  1  0
  7  9  1  0
  2 10  1  0
 10 11  1  0
 11 12  1  0
 12 13  1  0
 13 14  1  6
 13 15  1  0
 15 16  1  0
 16 17  1  0
 17 18  2  0
 18 19  1  0
 19 20  1  0
 20 21  1  0
 21 22  1  0
 22 23  1  0
 22 24  1  0
 24 25  1  0
 24 26  1  0
 19 27  1  0
 27 28  1  1
 27 29  1  0
 29 30  1  0
 30 31  1  0
 31 32  1  1
  7  5  1  0
 31 10  1  0
 31 13  1  0
 27 15  1  0
 24 18  1  0
  1 33  1  0
  1 34  1  0
  1 35  1  0
  2 36  1  6
  3 37  1  0
  3 38  1  0
  4 39  1  0
  4 40  1  0
  5 41  1  6
  8 42  1  0
  8 43  1  0
  8 44  1  0
  9 45  1  0
  9 46  1  0
  9 47  1  0
 10 48  1  6
 11 49  1  0
 11 50  1  0
 12 51  1  0
 12 52  1  0
 14 53  1  0
 14 54  1  0
 14 55  1  0
 15 56  1  1
 16 57  1  0
 16 58  1  0
 17 59  1  0
 19 60  1  6
 20 61  1  0
 20 62  1  0
 21 63  1  0
 21 64  1  0
 22 65  1  6
 23 66  1  0
 25 67  1  0
 25 68  1  0
 25 69  1  0
 26 70  1  0
 26 71  1  0
 26 72  1  0
 28 73  1  0
 28 74  1  0
 28 75  1  0
 29 76  1  0
 29 77  1  0
 30 78  1  0
 30 79  1  0
 32 80  1  0
 32 81  1  0
 32 82  1  0
M  END
>  <meeko>  (19) 
{"is_sidechain": [false], "intermolecular_energy": 2.731, "internal_energy": -0.839}

$$$$
