EPH_relaxed_0001_pdb2pqr_Repair_276_r2_0001_out
     RDKit          3D

 82 86  0  0  0  0  0  0  0  0999 V2000
   -1.6990    8.5800   -1.8580 C   0  0  0  0  0  0  0  0  0  0  0  0
   -2.0850    9.1160   -0.4760 C   0  0  2  0  0  0  0  0  0  0  0  0
   -3.5780    9.4930   -0.3960 C   0  0  0  0  0  0  0  0  0  0  0  0
   -4.5090    8.2880   -0.2340 C   0  0  0  0  0  0  0  0  0  0  0  0
   -5.2020    7.9480   -1.5180 C   0  0  2  0  0  0  0  0  0  0  0  0
   -6.3540    8.7510   -1.8080 O   0  0  0  0  0  0  0  0  0  0  0  0
   -6.5970    7.3520   -1.5840 C   0  0  0  0  0  0  0  0  0  0  0  0
   -7.3800    7.0620   -0.3420 C   0  0  0  0  0  0  0  0  0  0  0  0
   -6.9980    6.6050   -2.8170 C   0  0  0  0  0  0  0  0  0  0  0  0
   -1.2230   10.3240   -0.1280 C   0  0  1  0  0  0  0  0  0  0  0  0
   -0.1910   10.0190    0.9900 C   0  0  0  0  0  0  0  0  0  0  0  0
    1.0800   10.8440    0.6630 C   0  0  0  0  0  0  0  0  0  0  0  0
    0.6280   11.8390   -0.4310 C   0  0  1  0  0  0  0  0  0  0  0  0
   -0.0760   12.9960    0.3450 C   0  0  0  0  0  0  0  0  0  0  0  0
    1.7470   12.3780   -1.3800 C   0  0  2  0  0  0  0  0  0  0  0  0
    2.8530   13.1940   -0.6870 C   0  0  0  0  0  0  0  0  0  0  0  0
    2.6050   14.6640   -0.6060 C   0  0  0  0  0  0  0  0  0  0  0  0
    1.6820   15.3420   -1.3140 C   0  0  0  0  0  0  0  0  0  0  0  0
    0.8350   14.6380   -2.3820 C   0  0  1  0  0  0  0  0  0  0  0  0
    0.8080   15.4980   -3.6720 C   0  0  0  0  0  0  0  0  0  0  0  0
    0.3470   16.9290   -3.4120 C   0  0  0  0  0  0  0  0  0  0  0  0
    1.2490   17.6150   -2.3890 C   0  0  2  0  0  0  0  0  0  0  0  0
    2.5500   17.7810   -2.9590 O   0  0  0  0  0  0  0  0  0  0  0  0
    1.3610   16.8340   -1.0500 C   0  0  0  0  0  0  0  0  0  0  0  0
    0.0160   16.9130   -0.2860 C   0  0  0  0  0  0  0  0  0  0  0  0
    2.4080   17.5580   -0.1610 C   0  0  0  0  0  0  0  0  0  0  0  0
    1.2040   13.1190   -2.6690 C   0  0  1  0  0  0  0  0  0  0  0  0
    2.3350   13.0390   -3.7390 C   0  0  0  0  0  0  0  0  0  0  0  0
   -0.0480   12.3950   -3.2910 C   0  0  0  0  0  0  0  0  0  0  0  0
   -1.0570   11.7780   -2.3040 C   0  0  0  0  0  0  0  0  0  0  0  0
   -0.3430   10.9190   -1.2560 C   0  0  2  0  0  0  0  0  0  0  0  0
    0.3560    9.7330   -2.0050 C   0  0  0  0  0  0  0  0  0  0  0  0
   -1.0598    7.6924   -1.7416 H   0  0  0  0  0  0  0  0  0  0  0  0
   -2.6088    8.3065   -2.4124 H   0  0  0  0  0  0  0  0  0  0  0  0
   -1.1512    9.3562   -2.4124 H   0  0  0  0  0  0  0  0  0  0  0  0
   -1.9084    8.3111    0.2527 H   0  0  0  0  0  0  0  0  0  0  0  0
   -3.7218   10.1614    0.4658 H   0  0  0  0  0  0  0  0  0  0  0  0
   -3.8394    9.9755   -1.3493 H   0  0  0  0  0  0  0  0  0  0  0  0
   -3.9163    7.4206    0.0920 H   0  0  0  0  0  0  0  0  0  0  0  0
   -5.2753    8.5440    0.5125 H   0  0  0  0  0  0  0  0  0  0  0  0
   -4.2495    7.6497   -1.9803 H   0  0  0  0  0  0  0  0  0  0  0  0
   -6.7647    7.2899    0.5409 H   0  0  0  0  0  0  0  0  0  0  0  0
   -8.2873    7.6837   -0.3270 H   0  0  0  0  0  0  0  0  0  0  0  0
   -7.6634    5.9993   -0.3270 H   0  0  0  0  0  0  0  0  0  0  0  0
   -7.5004    5.6690   -2.5315 H   0  0  0  0  0  0  0  0  0  0  0  0
   -7.6855    7.2232   -3.4129 H   0  0  0  0  0  0  0  0  0  0  0  0
   -6.1028    6.3736   -3.4129 H   0  0  0  0  0  0  0  0  0  0  0  0
   -2.0114   11.0387    0.1506 H   0  0  0  0  0  0  0  0  0  0  0  0
   -0.5943   10.3167    1.9692 H   0  0  0  0  0  0  0  0  0  0  0  0
    0.0368    8.9438    1.0344 H   0  0  0  0  0  0  0  0  0  0  0  0
    1.4340   11.3818    1.5549 H   0  0  0  0  0  0  0  0  0  0  0  0
    1.9152   10.2098    0.3309 H   0  0  0  0  0  0  0  0  0  0  0  0
    0.0266   12.8273    1.4271 H   0  0  0  0  0  0  0  0  0  0  0  0
    0.3919   13.9549    0.0774 H   0  0  0  0  0  0  0  0  0  0  0  0
   -1.1426   13.0212    0.0774 H   0  0  0  0  0  0  0  0  0  0  0  0
    2.2297   11.4515   -1.7245 H   0  0  0  0  0  0  0  0  0  0  0  0
    2.9661   12.8114    0.3381 H   0  0  0  0  0  0  0  0  0  0  0  0
    3.7546   13.0710   -1.3050 H   0  0  0  0  0  0  0  0  0  0  0  0
    3.2292   15.2422    0.0912 H   0  0  0  0  0  0  0  0  0  0  0  0
   -0.1794   14.5616   -1.9635 H   0  0  0  0  0  0  0  0  0  0  0  0
    1.8217   15.5261   -4.0983 H   0  0  0  0  0  0  0  0  0  0  0  0
    0.0896   15.0367   -4.3656 H   0  0  0  0  0  0  0  0  0  0  0  0
    0.3775   17.4941   -4.3552 H   0  0  0  0  0  0  0  0  0  0  0  0
   -0.6780   16.9010   -3.0137 H   0  0  0  0  0  0  0  0  0  0  0  0
    0.7942   18.5872   -2.1481 H   0  0  0  0  0  0  0  0  0  0  0  0
    2.9260   18.6030   -2.6010 H   0  0  0  0  0  0  0  0  0  0  0  0
    0.2083   16.9017    0.7970 H   0  0  0  0  0  0  0  0  0  0  0  0
   -0.5051   17.8433   -0.5562 H   0  0  0  0  0  0  0  0  0  0  0  0
   -0.6104   16.0501   -0.5562 H   0  0  0  0  0  0  0  0  0  0  0  0
    2.1668   17.3912    0.8992 H   0  0  0  0  0  0  0  0  0  0  0  0
    3.4103   17.1591   -0.3762 H   0  0  0  0  0  0  0  0  0  0  0  0
    2.3886   18.6366   -0.3762 H   0  0  0  0  0  0  0  0  0  0  0  0
    3.3110   12.9700   -3.2364 H   0  0  0  0  0  0  0  0  0  0  0  0
    2.1826   12.1494   -4.3678 H   0  0  0  0  0  0  0  0  0  0  0  0
    2.3094   13.9412   -4.3678 H   0  0  0  0  0  0  0  0  0  0  0  0
   -0.5891   13.1326   -3.9019 H   0  0  0  0  0  0  0  0  0  0  0  0
    0.3627   11.5426   -3.8521 H   0  0  0  0  0  0  0  0  0  0  0  0
   -1.6032   12.5861   -1.7955 H   0  0  0  0  0  0  0  0  0  0  0  0
   -1.7525   11.1384   -2.8672 H   0  0  0  0  0  0  0  0  0  0  0  0
    0.7712    9.0285   -1.2692 H   0  0  0  0  0  0  0  0  0  0  0  0
   -0.3800    9.2130   -2.6357 H   0  0  0  0  0  0  0  0  0  0  0  0
    1.1675   10.1251   -2.6357 H   0  0  0  0  0  0  0  0  0  0  0  0
  1  2  1  0
  2  3  1  0
  3  4  1  0
  4  5  1  0
  5  6  1  0
  6  7  1  0
  7  8  1  0
  7  9  1  0
  2 10  1  0
 10 11  1  0
 11 12  1  0
 12 13  1  0
 13 14  1  1
 13 15  1  0
 15 16  1  0
 16 17  1  0
 17 18  2  0
 18 19  1  0
 19 20  1  0
 20 21  1  0
 21 22  1  0
 22 23  1  0
 22 24  1  0
 24 25  1  0
 24 26  1  0
 19 27  1  0
 27 28  1  6
 27 29  1  0
 29 30  1  0
 30 31  1  0
 31 32  1  6
  7  5  1  0
 31 10  1  0
 31 13  1  0
 27 15  1  0
 24 18  1  0
  1 33  1  0
  1 34  1  0
  1 35  1  0
  2 36  1  1
  3 37  1  0
  3 38  1  0
  4 39  1  0
  4 40  1  0
  5 41  1  6
  8 42  1  0
  8 43  1  0
  8 44  1  0
  9 45  1  0
  9 46  1  0
  9 47  1  0
 10 48  1  1
 11 49  1  0
 11 50  1  0
 12 51  1  0
 12 52  1  0
 14 53  1  0
 14 54  1  0
 14 55  1  0
 15 56  1  6
 16 57  1  0
 16 58  1  0
 17 59  1  0
 19 60  1  1
 20 61  1  0
 20 62  1  0
 21 63  1  0
 21 64  1  0
 22 65  1  1
 23 66  1  0
 25 67  1  0
 25 68  1  0
 25 69  1  0
 26 70  1  0
 26 71  1  0
 26 72  1  0
 28 73  1  0
 28 74  1  0
 28 75  1  0
 29 76  1  0
 29 77  1  0
 30 78  1  0
 30 79  1  0
 32 80  1  0
 32 81  1  0
 32 82  1  0
M  END
>  <meeko>  (1) 
{"is_sidechain": [false], "intermolecular_energy": 2.731, "internal_energy": -0.839}

$$$$
EPH_relaxed_0001_pdb2pqr_Repair_276_r2_0001_out
     RDKit          3D

 82 86  0  0  0  0  0  0  0  0999 V2000
    4.2290   17.5570   -0.6700 C   0  0  0  0  0  0  0  0  0  0  0  0
    2.8690   18.1350   -0.2700 C   0  0  2  0  0  0  0  0  0  0  0  0
    2.9220   18.8510    1.0950 C   0  0  0  0  0  0  0  0  0  0  0  0
    4.2270   18.6200    1.8610 C   0  0  0  0  0  0  0  0  0  0  0  0
    4.1780   19.2200    3.2340 C   0  0  2  0  0  0  0  0  0  0  0  0
    5.1950   20.1950    3.4980 O   0  0  0  0  0  0  0  0  0  0  0  0
    5.2490   18.9930    4.2840 C   0  0  0  0  0  0  0  0  0  0  0  0
    6.4450   18.1380    4.0080 C   0  0  0  0  0  0  0  0  0  0  0  0
    4.8940   19.1990    5.7240 C   0  0  0  0  0  0  0  0  0  0  0  0
    1.8220   17.0280   -0.2370 C   0  0  1  0  0  0  0  0  0  0  0  0
    0.3930   17.5480   -0.5440 C   0  0  0  0  0  0  0  0  0  0  0  0
   -0.3330   16.4250   -1.3280 C   0  0  0  0  0  0  0  0  0  0  0  0
    0.5730   15.1830   -1.1600 C   0  0  1  0  0  0  0  0  0  0  0  0
    0.2100   14.6100    0.2450 C   0  0  0  0  0  0  0  0  0  0  0  0
    0.4640   14.0920   -2.2750 C   0  0  2  0  0  0  0  0  0  0  0  0
   -0.9170   13.4260   -2.4030 C   0  0  0  0  0  0  0  0  0  0  0  0
   -1.1120   12.1990   -1.5750 C   0  0  0  0  0  0  0  0  0  0  0  0
   -0.1330   11.4910   -0.9820 C   0  0  0  0  0  0  0  0  0  0  0  0
    1.3420   11.8540   -1.1980 C   0  0  1  0  0  0  0  0  0  0  0  0
    2.1520   10.5670   -1.5050 C   0  0  0  0  0  0  0  0  0  0  0  0
    1.9660    9.4900   -0.4410 C   0  0  0  0  0  0  0  0  0  0  0  0
    0.4930    9.1150   -0.2960 C   0  0  2  0  0  0  0  0  0  0  0  0
    0.0610    8.4740   -1.5000 O   0  0  0  0  0  0  0  0  0  0  0  0
   -0.4230   10.3340    0.0050 C   0  0  0  0  0  0  0  0  0  0  0  0
   -0.1550   10.8440    1.4430 C   0  0  0  0  0  0  0  0  0  0  0  0
   -1.8950    9.8410   -0.0140 C   0  0  0  0  0  0  0  0  0  0  0  0
    1.6240   13.0170   -2.2440 C   0  0  1  0  0  0  0  0  0  0  0  0
    1.7210   12.4260   -3.6840 C   0  0  0  0  0  0  0  0  0  0  0  0
    3.0280   13.6590   -1.9330 C   0  0  0  0  0  0  0  0  0  0  0  0
    3.0530   14.8130   -0.9110 C   0  0  0  0  0  0  0  0  0  0  0  0
    1.9880   15.8630   -1.2440 C   0  0  2  0  0  0  0  0  0  0  0  0
    2.3400   16.4740   -2.6440 C   0  0  0  0  0  0  0  0  0  0  0  0
    4.8041   17.3126    0.2353 H   0  0  0  0  0  0  0  0  0  0  0  0
    4.0787   16.6450   -1.2663 H   0  0  0  0  0  0  0  0  0  0  0  0
    4.7813   18.2981   -1.2663 H   0  0  0  0  0  0  0  0  0  0  0  0
    2.5928   18.8845   -1.0263 H   0  0  0  0  0  0  0  0  0  0  0  0
    2.8057   19.9316    0.9251 H   0  0  0  0  0  0  0  0  0  0  0  0
    2.1107   18.4329    1.7089 H   0  0  0  0  0  0  0  0  0  0  0  0
    4.4006   17.5375    1.9510 H   0  0  0  0  0  0  0  0  0  0  0  0
    5.0420   19.1051    1.3038 H   0  0  0  0  0  0  0  0  0  0  0  0
    3.0828   19.1214    3.2638 H   0  0  0  0  0  0  0  0  0  0  0  0
    6.8938   17.8171    4.9596 H   0  0  0  0  0  0  0  0  0  0  0  0
    6.1380   17.2534    3.4307 H   0  0  0  0  0  0  0  0  0  0  0  0
    7.1827   18.7147    3.4307 H   0  0  0  0  0  0  0  0  0  0  0  0
    5.6697   18.7489    6.3609 H   0  0  0  0  0  0  0  0  0  0  0  0
    4.8265   20.2766    5.9345 H   0  0  0  0  0  0  0  0  0  0  0  0
    3.9250   18.7229    5.9345 H   0  0  0  0  0  0  0  0  0  0  0  0
    1.9719   16.6628    0.7897 H   0  0  0  0  0  0  0  0  0  0  0  0
   -0.1416   17.7621    0.3932 H   0  0  0  0  0  0  0  0  0  0  0  0
    0.4287   18.4786   -1.1294 H   0  0  0  0  0  0  0  0  0  0  0  0
   -1.3306   16.2380   -0.9040 H   0  0  0  0  0  0  0  0  0  0  0  0
   -0.4886   16.6878   -2.3848 H   0  0  0  0  0  0  0  0  0  0  0  0
    0.6245   15.2643    1.0261 H   0  0  0  0  0  0  0  0  0  0  0  0
   -0.8839   14.5615    0.3498 H   0  0  0  0  0  0  0  0  0  0  0  0
    0.6335   13.6002    0.3498 H   0  0  0  0  0  0  0  0  0  0  0  0
    0.5980   14.6797   -3.1951 H   0  0  0  0  0  0  0  0  0  0  0  0
   -1.6783   14.1619   -2.1048 H   0  0  0  0  0  0  0  0  0  0  0  0
   -1.0034   13.1031   -3.4510 H   0  0  0  0  0  0  0  0  0  0  0  0
   -2.1438   11.8433   -1.4379 H   0  0  0  0  0  0  0  0  0  0  0  0
    1.6882   12.2963   -0.2522 H   0  0  0  0  0  0  0  0  0  0  0  0
    1.8217   10.1655   -2.4744 H   0  0  0  0  0  0  0  0  0  0  0  0
    3.2176   10.8395   -1.5210 H   0  0  0  0  0  0  0  0  0  0  0  0
    2.5383    8.5961   -0.7297 H   0  0  0  0  0  0  0  0  0  0  0  0
    2.3250    9.8821    0.5220 H   0  0  0  0  0  0  0  0  0  0  0  0
    0.4077    8.4387    0.5673 H   0  0  0  0  0  0  0  0  0  0  0  0
   -0.5560    7.7650   -1.2510 H   0  0  0  0  0  0  0  0  0  0  0  0
   -0.5394   10.1125    2.1691 H   0  0  0  0  0  0  0  0  0  0  0  0
    0.9274   10.9730    1.5905 H   0  0  0  0  0  0  0  0  0  0  0  0
   -0.6627   11.8086    1.5905 H   0  0  0  0  0  0  0  0  0  0  0  0
   -2.2547    9.7205    1.0185 H   0  0  0  0  0  0  0  0  0  0  0  0
   -2.5219   10.5782   -0.5370 H   0  0  0  0  0  0  0  0  0  0  0  0
   -1.9514    8.8749   -0.5370 H   0  0  0  0  0  0  0  0  0  0  0  0
    1.8989   11.3421   -3.6243 H   0  0  0  0  0  0  0  0  0  0  0  0
    0.7800   12.6141   -4.2217 H   0  0  0  0  0  0  0  0  0  0  0  0
    2.5525   12.9050   -4.2217 H   0  0  0  0  0  0  0  0  0  0  0  0
    3.6814   12.8612   -1.5503 H   0  0  0  0  0  0  0  0  0  0  0  0
    3.3562   14.1076   -2.8822 H   0  0  0  0  0  0  0  0  0  0  0  0
    2.8582   14.4087    0.0933 H   0  0  0  0  0  0  0  0  0  0  0  0
    4.0422   15.2927   -0.9474 H   0  0  0  0  0  0  0  0  0  0  0  0
    2.8847   17.4195   -2.5049 H   0  0  0  0  0  0  0  0  0  0  0  0
    2.9694   15.7673   -3.2047 H   0  0  0  0  0  0  0  0  0  0  0  0
    1.4129   16.6640   -3.2047 H   0  0  0  0  0  0  0  0  0  0  0  0
  1  2  1  0
  2  3  1  0
  3  4  1  0
  4  5  1  0
  5  6  1  0
  6  7  1  0
  7  8  1  0
  7  9  1  0
  2 10  1  0
 10 11  1  0
 11 12  1  0
 12 13  1  0
 13 14  1  1
 13 15  1  0
 15 16  1  0
 16 17  1  0
 17 18  2  0
 18 19  1  0
 19 20  1  0
 20 21  1  0
 21 22  1  0
 22 23  1  0
 22 24  1  0
 24 25  1  0
 24 26  1  0
 19 27  1  0
 27 28  1  6
 27 29  1  0
 29 30  1  0
 30 31  1  0
 31 32  1  6
  7  5  1  0
 31 10  1  0
 31 13  1  0
 27 15  1  0
 24 18  1  0
  1 33  1  0
  1 34  1  0
  1 35  1  0
  2 36  1  6
  3 37  1  0
  3 38  1  0
  4 39  1  0
  4 40  1  0
  5 41  1  1
  8 42  1  0
  8 43  1  0
  8 44  1  0
  9 45  1  0
  9 46  1  0
  9 47  1  0
 10 48  1  1
 11 49  1  0
 11 50  1  0
 12 51  1  0
 12 52  1  0
 14 53  1  0
 14 54  1  0
 14 55  1  0
 15 56  1  6
 16 57  1  0
 16 58  1  0
 17 59  1  0
 19 60  1  1
 20 61  1  0
 20 62  1  0
 21 63  1  0
 21 64  1  0
 22 65  1  1
 23 66  1  0
 25 67  1  0
 25 68  1  0
 25 69  1  0
 26 70  1  0
 26 71  1  0
 26 72  1  0
 28 73  1  0
 28 74  1  0
 28 75  1  0
 29 76  1  0
 29 77  1  0
 30 78  1  0
 30 79  1  0
 32 80  1  0
 32 81  1  0
 32 82  1  0
M  END
>  <meeko>  (2) 
{"is_sidechain": [false], "intermolecular_energy": 2.731, "internal_energy": -0.839}

$$$$
EPH_relaxed_0001_pdb2pqr_Repair_276_r2_0001_out
     RDKit          3D

 82 86  0  0  0  0  0  0  0  0999 V2000
    2.4120   18.0180   -2.6740 C   0  0  0  0  0  0  0  0  0  0  0  0
    1.1040   17.6400   -1.9730 C   0  0  2  0  0  0  0  0  0  0  0  0
    1.2280   17.7060   -0.4370 C   0  0  0  0  0  0  0  0  0  0  0  0
    0.8870   19.0790    0.1490 C   0  0  0  0  0  0  0  0  0  0  0  0
   -0.5540   19.1660    0.5530 C   0  0  2  0  0  0  0  0  0  0  0  0
   -1.4300   18.2800   -0.1570 O   0  0  0  0  0  0  0  0  0  0  0  0
   -1.6490   19.6860   -0.3610 C   0  0  0  0  0  0  0  0  0  0  0  0
   -1.3490   20.1530   -1.7500 C   0  0  0  0  0  0  0  0  0  0  0  0
   -2.9140   20.1940    0.2570 C   0  0  0  0  0  0  0  0  0  0  0  0
    0.6700   16.2430   -2.4010 C   0  0  1  0  0  0  0  0  0  0  0  0
    0.8250   16.0110   -3.9270 C   0  0  0  0  0  0  0  0  0  0  0  0
    1.2310   14.5270   -4.1150 C   0  0  0  0  0  0  0  0  0  0  0  0
    0.9740   13.8750   -2.7360 C   0  0  1  0  0  0  0  0  0  0  0  0
   -0.5590   13.5830   -2.7100 C   0  0  0  0  0  0  0  0  0  0  0  0
    1.8110   12.5950   -2.4110 C   0  0  2  0  0  0  0  0  0  0  0  0
    1.5640   11.3980   -3.3460 C   0  0  0  0  0  0  0  0  0  0  0  0
    0.4850   10.4620   -2.9110 C   0  0  0  0  0  0  0  0  0  0  0  0
   -0.0610   10.4140   -1.6820 C   0  0  0  0  0  0  0  0  0  0  0  0
    0.4730   11.2980   -0.5480 C   0  0  1  0  0  0  0  0  0  0  0  0
    0.6500   10.4440    0.7350 C   0  0  0  0  0  0  0  0  0  0  0  0
   -0.6260    9.7030    1.1250 C   0  0  0  0  0  0  0  0  0  0  0  0
   -1.0930    8.7910   -0.0060 C   0  0  2  0  0  0  0  0  0  0  0  0
   -0.1360    7.7420   -0.1780 O   0  0  0  0  0  0  0  0  0  0  0  0
   -1.2960    9.5390   -1.3530 C   0  0  0  0  0  0  0  0  0  0  0  0
   -2.5340   10.4640   -1.2540 C   0  0  0  0  0  0  0  0  0  0  0  0
   -1.6300    8.4830   -2.4410 C   0  0  0  0  0  0  0  0  0  0  0  0
    1.7650   12.1590   -0.8900 C   0  0  1  0  0  0  0  0  0  0  0  0
    3.0510   11.3170   -0.6280 C   0  0  0  0  0  0  0  0  0  0  0  0
    1.8340   13.3920    0.0870 C   0  0  0  0  0  0  0  0  0  0  0  0
    1.0860   14.6670   -0.3470 C   0  0  0  0  0  0  0  0  0  0  0  0
    1.4360   15.0420   -1.7900 C   0  0  2  0  0  0  0  0  0  0  0  0
    2.9680   15.3630   -1.8430 C   0  0  0  0  0  0  0  0  0  0  0  0
    3.1812   18.2403   -1.9198 H   0  0  0  0  0  0  0  0  0  0  0  0
    2.7465   17.1798   -3.3029 H   0  0  0  0  0  0  0  0  0  0  0  0
    2.2478   18.9054   -3.3029 H   0  0  0  0  0  0  0  0  0  0  0  0
    0.3427   18.3745   -2.2744 H   0  0  0  0  0  0  0  0  0  0  0  0
    0.5443   16.9627   -0.0010 H   0  0  0  0  0  0  0  0  0  0  0  0
    2.2806   17.5032   -0.1902 H   0  0  0  0  0  0  0  0  0  0  0  0
    1.5167   19.2557    1.0335 H   0  0  0  0  0  0  0  0  0  0  0  0
    1.0731   19.8384   -0.6248 H   0  0  0  0  0  0  0  0  0  0  0  0
   -0.2736   19.4181    1.5864 H   0  0  0  0  0  0  0  0  0  0  0  0
   -0.7549   21.0777   -1.7056 H   0  0  0  0  0  0  0  0  0  0  0  0
   -0.7801   19.3769   -2.2829 H   0  0  0  0  0  0  0  0  0  0  0  0
   -2.2914   20.3478   -2.2829 H   0  0  0  0  0  0  0  0  0  0  0  0
   -2.8265   20.1589    1.3530 H   0  0  0  0  0  0  0  0  0  0  0  0
   -3.0879   21.2317   -0.0639 H   0  0  0  0  0  0  0  0  0  0  0  0
   -3.7573   19.5648   -0.0639 H   0  0  0  0  0  0  0  0  0  0  0  0
   -0.3678   16.2523   -2.0365 H   0  0  0  0  0  0  0  0  0  0  0  0
   -0.1278   16.2108   -4.4392 H   0  0  0  0  0  0  0  0  0  0  0  0
    1.5825   16.6847   -4.3539 H   0  0  0  0  0  0  0  0  0  0  0  0
    0.6137   14.0507   -4.8909 H   0  0  0  0  0  0  0  0  0  0  0  0
    2.2763   14.4182   -4.4398 H   0  0  0  0  0  0  0  0  0  0  0  0
   -0.9022   13.5176   -1.6669 H   0  0  0  0  0  0  0  0  0  0  0  0
   -1.0957   14.3951   -3.2224 H   0  0  0  0  0  0  0  0  0  0  0  0
   -0.7596   12.6305   -3.2224 H   0  0  0  0  0  0  0  0  0  0  0  0
    2.8390   12.9277   -2.6172 H   0  0  0  0  0  0  0  0  0  0  0  0
    1.2941   11.7909   -4.3374 H   0  0  0  0  0  0  0  0  0  0  0  0
    2.4950   10.8121   -3.3433 H   0  0  0  0  0  0  0  0  0  0  0  0
    0.1039    9.7511   -3.6589 H   0  0  0  0  0  0  0  0  0  0  0  0
   -0.2913   12.0710   -0.3797 H   0  0  0  0  0  0  0  0  0  0  0  0
    1.4470    9.7062    0.5604 H   0  0  0  0  0  0  0  0  0  0  0  0
    0.9045   11.1273    1.5586 H   0  0  0  0  0  0  0  0  0  0  0  0
   -0.4300    9.0949    2.0205 H   0  0  0  0  0  0  0  0  0  0  0  0
   -1.4142   10.4430    1.3282 H   0  0  0  0  0  0  0  0  0  0  0  0
   -2.0760    8.3888    0.2803 H   0  0  0  0  0  0  0  0  0  0  0  0
    0.3690    7.9340   -0.9860 H   0  0  0  0  0  0  0  0  0  0  0  0
   -2.7740   10.6433   -0.1956 H   0  0  0  0  0  0  0  0  0  0  0  0
   -2.3161   11.4224   -1.7480 H   0  0  0  0  0  0  0  0  0  0  0  0
   -3.3913    9.9834   -1.7480 H   0  0  0  0  0  0  0  0  0  0  0  0
   -1.9280    7.5407   -1.9581 H   0  0  0  0  0  0  0  0  0  0  0  0
   -2.4556    8.8509   -3.0679 H   0  0  0  0  0  0  0  0  0  0  0  0
   -0.7430    8.3092   -3.0679 H   0  0  0  0  0  0  0  0  0  0  0  0
    3.2076   11.2145    0.4560 H   0  0  0  0  0  0  0  0  0  0  0  0
    2.9343   10.3199   -1.0776 H   0  0  0  0  0  0  0  0  0  0  0  0
    3.9183   11.8227   -1.0776 H   0  0  0  0  0  0  0  0  0  0  0  0
    1.4160   13.0741    1.0536 H   0  0  0  0  0  0  0  0  0  0  0  0
    2.8960   13.6775    0.1144 H   0  0  0  0  0  0  0  0  0  0  0  0
    0.0026   14.4916   -0.2732 H   0  0  0  0  0  0  0  0  0  0  0  0
    1.3875   15.4932    0.3136 H   0  0  0  0  0  0  0  0  0  0  0  0
    3.3610   15.4453   -0.8189 H   0  0  0  0  0  0  0  0  0  0  0  0
    3.4937   14.5555   -2.3737 H   0  0  0  0  0  0  0  0  0  0  0  0
    3.1253   16.3136   -2.3737 H   0  0  0  0  0  0  0  0  0  0  0  0
  1  2  1  0
  2  3  1  0
  3  4  1  0
  4  5  1  0
  5  6  1  0
  6  7  1  0
  7  8  1  0
  7  9  1  0
  2 10  1  0
 10 11  1  0
 11 12  1  0
 12 13  1  0
 13 14  1  1
 13 15  1  0
 15 16  1  0
 16 17  1  0
 17 18  2  0
 18 19  1  0
 19 20  1  0
 20 21  1  0
 21 22  1  0
 22 23  1  0
 22 24  1  0
 24 25  1  0
 24 26  1  0
 19 27  1  0
 27 28  1  1
 27 29  1  0
 29 30  1  0
 30 31  1  0
 31 32  1  1
  7  5  1  0
 31 10  1  0
 31 13  1  0
 27 15  1  0
 24 18  1  0
  1 33  1  0
  1 34  1  0
  1 35  1  0
  2 36  1  6
  3 37  1  0
  3 38  1  0
  4 39  1  0
  4 40  1  0
  5 41  1  1
  8 42  1  0
  8 43  1  0
  8 44  1  0
  9 45  1  0
  9 46  1  0
  9 47  1  0
 10 48  1  6
 11 49  1  0
 11 50  1  0
 12 51  1  0
 12 52  1  0
 14 53  1  0
 14 54  1  0
 14 55  1  0
 15 56  1  6
 16 57  1  0
 16 58  1  0
 17 59  1  0
 19 60  1  1
 20 61  1  0
 20 62  1  0
 21 63  1  0
 21 64  1  0
 22 65  1  1
 23 66  1  0
 25 67  1  0
 25 68  1  0
 25 69  1  0
 26 70  1  0
 26 71  1  0
 26 72  1  0
 28 73  1  0
 28 74  1  0
 28 75  1  0
 29 76  1  0
 29 77  1  0
 30 78  1  0
 30 79  1  0
 32 80  1  0
 32 81  1  0
 32 82  1  0
M  END
>  <meeko>  (3) 
{"is_sidechain": [false], "intermolecular_energy": 2.731, "internal_energy": -0.839}

$$$$
EPH_relaxed_0001_pdb2pqr_Repair_276_r2_0001_out
     RDKit          3D

 82 86  0  0  0  0  0  0  0  0999 V2000
    0.4100   18.3820   -0.0170 C   0  0  0  0  0  0  0  0  0  0  0  0
    1.4990   17.3310   -0.2500 C   0  0  2  0  0  0  0  0  0  0  0  0
    2.7020   17.9040   -1.0270 C   0  0  0  0  0  0  0  0  0  0  0  0
    3.9340   18.1570   -0.1550 C   0  0  0  0  0  0  0  0  0  0  0  0
    3.5560   18.6300    1.2160 C   0  0  2  0  0  0  0  0  0  0  0  0
    3.7980   20.0220    1.4570 O   0  0  0  0  0  0  0  0  0  0  0  0
    4.5650   19.0990    2.2470 C   0  0  0  0  0  0  0  0  0  0  0  0
    6.0320   19.1170    1.9520 C   0  0  0  0  0  0  0  0  0  0  0  0
    4.1750   19.0740    3.6930 C   0  0  0  0  0  0  0  0  0  0  0  0
    0.9180   16.1360   -0.9960 C   0  0  1  0  0  0  0  0  0  0  0  0
    0.7800   16.3940   -2.5200 C   0  0  0  0  0  0  0  0  0  0  0  0
    1.0610   15.0440   -3.2290 C   0  0  0  0  0  0  0  0  0  0  0  0
    1.0230   13.9920   -2.0950 C   0  0  1  0  0  0  0  0  0  0  0  0
   -0.4940   13.7020   -1.8690 C   0  0  0  0  0  0  0  0  0  0  0  0
    1.8320   12.6780   -2.3430 C   0  0  2  0  0  0  0  0  0  0  0  0
    1.3520   11.8320   -3.5360 C   0  0  0  0  0  0  0  0  0  0  0  0
    0.3200   10.8030   -3.2140 C   0  0  0  0  0  0  0  0  0  0  0  0
    0.0040   10.3720   -1.9790 C   0  0  0  0  0  0  0  0  0  0  0  0
    0.7840   10.8590   -0.7510 C   0  0  1  0  0  0  0  0  0  0  0  0
    1.1420    9.6480    0.1490 C   0  0  0  0  0  0  0  0  0  0  0  0
   -0.0820    8.8180    0.5270 C   0  0  0  0  0  0  0  0  0  0  0  0
   -0.7970    8.3030   -0.7200 C   0  0  2  0  0  0  0  0  0  0  0  0
    0.0540    7.3630   -1.3840 O   0  0  0  0  0  0  0  0  0  0  0  0
   -1.1980    9.4340   -1.7070 C   0  0  0  0  0  0  0  0  0  0  0  0
   -2.3440   10.2770   -1.0960 C   0  0  0  0  0  0  0  0  0  0  0  0
   -1.7820    8.7690   -2.9830 C   0  0  0  0  0  0  0  0  0  0  0  0
    2.0370   11.7890   -1.0500 C   0  0  1  0  0  0  0  0  0  0  0  0
    3.3000   10.9120   -1.3090 C   0  0  0  0  0  0  0  0  0  0  0  0
    2.3520   12.6550    0.2270 C   0  0  0  0  0  0  0  0  0  0  0  0
    1.6100   13.9980    0.3550 C   0  0  0  0  0  0  0  0  0  0  0  0
    1.7120   14.8080   -0.9410 C   0  0  2  0  0  0  0  0  0  0  0  0
    3.2260   15.1340   -1.1830 C   0  0  0  0  0  0  0  0  0  0  0  0
    0.2628   18.5241    1.0638 H   0  0  0  0  0  0  0  0  0  0  0  0
    0.7162   19.3347   -0.4737 H   0  0  0  0  0  0  0  0  0  0  0  0
   -0.5312   18.0422   -0.4737 H   0  0  0  0  0  0  0  0  0  0  0  0
    1.8655   17.0101    0.7363 H   0  0  0  0  0  0  0  0  0  0  0  0
    2.9768   17.1900   -1.8174 H   0  0  0  0  0  0  0  0  0  0  0  0
    2.3890   18.8780   -1.4312 H   0  0  0  0  0  0  0  0  0  0  0  0
    4.5047   17.2210   -0.0643 H   0  0  0  0  0  0  0  0  0  0  0  0
    4.5374   18.9422   -0.6340 H   0  0  0  0  0  0  0  0  0  0  0  0
    2.7344   17.9003    1.2666 H   0  0  0  0  0  0  0  0  0  0  0  0
    6.5959   19.1239    2.8965 H   0  0  0  0  0  0  0  0  0  0  0  0
    6.3003   18.2221    1.3713 H   0  0  0  0  0  0  0  0  0  0  0  0
    6.2782   20.0182    1.3713 H   0  0  0  0  0  0  0  0  0  0  0  0
    5.0787   19.1319    4.3175 H   0  0  0  0  0  0  0  0  0  0  0  0
    3.5225   19.9322    3.9117 H   0  0  0  0  0  0  0  0  0  0  0  0
    3.6374   18.1395    3.9117 H   0  0  0  0  0  0  0  0  0  0  0  0
   -0.0339   16.0264   -0.4557 H   0  0  0  0  0  0  0  0  0  0  0  0
   -0.2371   16.7409   -2.7550 H   0  0  0  0  0  0  0  0  0  0  0  0
    1.4840   17.1702   -2.8547 H   0  0  0  0  0  0  0  0  0  0  0  0
    0.2870   14.8321   -3.9814 H   0  0  0  0  0  0  0  0  0  0  0  0
    2.0221   15.0460   -3.7640 H   0  0  0  0  0  0  0  0  0  0  0  0
   -0.7029   13.6621   -0.7897 H   0  0  0  0  0  0  0  0  0  0  0  0
   -1.0927   14.5020   -2.3290 H   0  0  0  0  0  0  0  0  0  0  0  0
   -0.7555   12.7376   -2.3290 H   0  0  0  0  0  0  0  0  0  0  0  0
    2.8231   13.0612   -2.6272 H   0  0  0  0  0  0  0  0  0  0  0  0
    0.9286   12.5142   -4.2879 H   0  0  0  0  0  0  0  0  0  0  0  0
    2.2338   11.2780   -3.8904 H   0  0  0  0  0  0  0  0  0  0  0  0
   -0.2288   10.3593   -4.0578 H   0  0  0  0  0  0  0  0  0  0  0  0
    0.1077   11.5379   -0.2108 H   0  0  0  0  0  0  0  0  0  0  0  0
    1.8514    9.0042   -0.3917 H   0  0  0  0  0  0  0  0  0  0  0  0
    1.5795   10.0406    1.0788 H   0  0  0  0  0  0  0  0  0  0  0  0
    0.2384    7.9613    1.1381 H   0  0  0  0  0  0  0  0  0  0  0  0
   -0.7775    9.4549    1.0932 H   0  0  0  0  0  0  0  0  0  0  0  0
   -1.7331    7.8279   -0.3914 H   0  0  0  0  0  0  0  0  0  0  0  0
   -0.4890    6.8790   -2.0290 H   0  0  0  0  0  0  0  0  0  0  0  0
   -2.2857   10.2341    0.0016 H   0  0  0  0  0  0  0  0  0  0  0  0
   -2.2480   11.3214   -1.4278 H   0  0  0  0  0  0  0  0  0  0  0  0
   -3.3124    9.8744   -1.4278 H   0  0  0  0  0  0  0  0  0  0  0  0
   -2.4822    7.9717   -2.6932 H   0  0  0  0  0  0  0  0  0  0  0  0
   -2.3136    9.5248   -3.5798 H   0  0  0  0  0  0  0  0  0  0  0  0
   -0.9639    8.3395   -3.5798 H   0  0  0  0  0  0  0  0  0  0  0  0
    3.7385   10.6075   -0.3472 H   0  0  0  0  0  0  0  0  0  0  0  0
    3.0140   10.0172   -1.8812 H   0  0  0  0  0  0  0  0  0  0  0  0
    4.0385   11.4926   -1.8812 H   0  0  0  0  0  0  0  0  0  0  0  0
    2.0995   12.0498    1.1102 H   0  0  0  0  0  0  0  0  0  0  0  0
    3.4158   12.9209    0.1394 H   0  0  0  0  0  0  0  0  0  0  0  0
    0.5499   13.8036    0.5750 H   0  0  0  0  0  0  0  0  0  0  0  0
    2.0726   14.5776    1.1675 H   0  0  0  0  0  0  0  0  0  0  0  0
    3.7367   15.2440   -0.2150 H   0  0  0  0  0  0  0  0  0  0  0  0
    3.6910   14.3154   -1.7519 H   0  0  0  0  0  0  0  0  0  0  0  0
    3.3128   16.0714   -1.7519 H   0  0  0  0  0  0  0  0  0  0  0  0
  1  2  1  0
  2  3  1  0
  3  4  1  0
  4  5  1  0
  5  6  1  0
  6  7  1  0
  7  8  1  0
  7  9  1  0
  2 10  1  0
 10 11  1  0
 11 12  1  0
 12 13  1  0
 13 14  1  1
 13 15  1  0
 15 16  1  0
 16 17  1  0
 17 18  2  0
 18 19  1  0
 19 20  1  0
 20 21  1  0
 21 22  1  0
 22 23  1  0
 22 24  1  0
 24 25  1  0
 24 26  1  0
 19 27  1  0
 27 28  1  6
 27 29  1  0
 29 30  1  0
 30 31  1  0
 31 32  1  6
  7  5  1  0
 31 10  1  0
 31 13  1  0
 27 15  1  0
 24 18  1  0
  1 33  1  0
  1 34  1  0
  1 35  1  0
  2 36  1  1
  3 37  1  0
  3 38  1  0
  4 39  1  0
  4 40  1  0
  5 41  1  1
  8 42  1  0
  8 43  1  0
  8 44  1  0
  9 45  1  0
  9 46  1  0
  9 47  1  0
 10 48  1  1
 11 49  1  0
 11 50  1  0
 12 51  1  0
 12 52  1  0
 14 53  1  0
 14 54  1  0
 14 55  1  0
 15 56  1  6
 16 57  1  0
 16 58  1  0
 17 59  1  0
 19 60  1  1
 20 61  1  0
 20 62  1  0
 21 63  1  0
 21 64  1  0
 22 65  1  1
 23 66  1  0
 25 67  1  0
 25 68  1  0
 25 69  1  0
 26 70  1  0
 26 71  1  0
 26 72  1  0
 28 73  1  0
 28 74  1  0
 28 75  1  0
 29 76  1  0
 29 77  1  0
 30 78  1  0
 30 79  1  0
 32 80  1  0
 32 81  1  0
 32 82  1  0
M  END
>  <meeko>  (4) 
{"is_sidechain": [false], "intermolecular_energy": 2.731, "internal_energy": -0.839}

$$$$
EPH_relaxed_0001_pdb2pqr_Repair_276_r2_0001_out
     RDKit          3D

 82 86  0  0  0  0  0  0  0  0999 V2000
    3.8850   17.8590    0.6000 C   0  0  0  0  0  0  0  0  0  0  0  0
    2.7020   18.3920   -0.2140 C   0  0  2  0  0  0  0  0  0  0  0  0
    2.0040   19.5770    0.4840 C   0  0  0  0  0  0  0  0  0  0  0  0
    0.6550   19.2140    1.1110 C   0  0  0  0  0  0  0  0  0  0  0  0
   -0.4740   19.9640    0.4720 C   0  0  2  0  0  0  0  0  0  0  0  0
   -1.6010   20.1930    1.3280 O   0  0  0  0  0  0  0  0  0  0  0  0
   -1.8320   19.3500    0.1870 C   0  0  0  0  0  0  0  0  0  0  0  0
   -2.1320   17.9250    0.5340 C   0  0  0  0  0  0  0  0  0  0  0  0
   -2.6950   19.9780   -0.8620 C   0  0  0  0  0  0  0  0  0  0  0  0
    1.6990   17.2720   -0.4660 C   0  0  1  0  0  0  0  0  0  0  0  0
    0.5100   17.7240   -1.3550 C   0  0  0  0  0  0  0  0  0  0  0  0
    0.1170   16.5070   -2.2310 C   0  0  0  0  0  0  0  0  0  0  0  0
    0.8610   15.3110   -1.5930 C   0  0  1  0  0  0  0  0  0  0  0  0
   -0.0270   14.8860   -0.3820 C   0  0  0  0  0  0  0  0  0  0  0  0
    1.1660   14.1030   -2.5370 C   0  0  2  0  0  0  0  0  0  0  0  0
   -0.0730   13.3970   -3.1140 C   0  0  0  0  0  0  0  0  0  0  0  0
   -0.5980   12.2630   -2.2970 C   0  0  0  0  0  0  0  0  0  0  0  0
    0.0620   11.6460   -1.3000 C   0  0  0  0  0  0  0  0  0  0  0  0
    1.5140   12.0150   -0.9690 C   0  0  1  0  0  0  0  0  0  0  0  0
    2.3510   10.7200   -0.7990 C   0  0  0  0  0  0  0  0  0  0  0  0
    1.7460    9.7620    0.2220 C   0  0  0  0  0  0  0  0  0  0  0  0
    0.3230    9.3720   -0.1720 C   0  0  2  0  0  0  0  0  0  0  0  0
    0.3740    8.5950   -1.3720 O   0  0  0  0  0  0  0  0  0  0  0  0
   -0.6110   10.5970   -0.3810 C   0  0  0  0  0  0  0  0  0  0  0  0
   -0.9070   11.2650    0.9850 C   0  0  0  0  0  0  0  0  0  0  0  0
   -1.9730   10.0720   -0.9110 C   0  0  0  0  0  0  0  0  0  0  0  0
    2.2020   13.0630   -1.9460 C   0  0  1  0  0  0  0  0  0  0  0  0
    2.8330   12.3210   -3.1640 C   0  0  0  0  0  0  0  0  0  0  0  0
    3.3910   13.7660   -1.1900 C   0  0  0  0  0  0  0  0  0  0  0  0
    3.0460   15.0240   -0.3700 C   0  0  0  0  0  0  0  0  0  0  0  0
    2.2150   16.0080   -1.1990 C   0  0  2  0  0  0  0  0  0  0  0  0
    3.0910   16.4700   -2.4120 C   0  0  0  0  0  0  0  0  0  0  0  0
    3.6657   17.9578    1.6734 H   0  0  0  0  0  0  0  0  0  0  0  0
    4.0505   16.7993    0.3556 H   0  0  0  0  0  0  0  0  0  0  0  0
    4.7884   18.4371    0.3556 H   0  0  0  0  0  0  0  0  0  0  0  0
    3.0978   18.7599   -1.1721 H   0  0  0  0  0  0  0  0  0  0  0  0
    2.6666   19.9515    1.2782 H   0  0  0  0  0  0  0  0  0  0  0  0
    1.8059   20.3341   -0.2890 H   0  0  0  0  0  0  0  0  0  0  0  0
    0.4824   18.1350    0.9850 H   0  0  0  0  0  0  0  0  0  0  0  0
    0.6879   19.4868    2.1761 H   0  0  0  0  0  0  0  0  0  0  0  0
    0.2277   20.5279   -0.1602 H   0  0  0  0  0  0  0  0  0  0  0  0
   -2.1560   17.8112    1.6278 H   0  0  0  0  0  0  0  0  0  0  0  0
   -3.1091   17.6434    0.1146 H   0  0  0  0  0  0  0  0  0  0  0  0
   -1.3514   17.2733    0.1146 H   0  0  0  0  0  0  0  0  0  0  0  0
   -3.4942   20.5596   -0.3794 H   0  0  0  0  0  0  0  0  0  0  0  0
   -2.0841   20.6442   -1.4888 H   0  0  0  0  0  0  0  0  0  0  0  0
   -3.1410   19.1918   -1.4888 H   0  0  0  0  0  0  0  0  0  0  0  0
    1.4339   17.0241    0.5724 H   0  0  0  0  0  0  0  0  0  0  0  0
   -0.3395   18.0274   -0.7255 H   0  0  0  0  0  0  0  0  0  0  0  0
    0.7894   18.5855   -1.9792 H   0  0  0  0  0  0  0  0  0  0  0  0
   -0.9708   16.3457   -2.2061 H   0  0  0  0  0  0  0  0  0  0  0  0
    0.3857   16.6497   -3.2881 H   0  0  0  0  0  0  0  0  0  0  0  0
    0.4903   15.1336    0.5567 H   0  0  0  0  0  0  0  0  0  0  0  0
   -0.9863   15.4226   -0.4246 H   0  0  0  0  0  0  0  0  0  0  0  0
   -0.2108   13.8023   -0.4246 H   0  0  0  0  0  0  0  0  0  0  0  0
    1.6570   14.5905   -3.3921 H   0  0  0  0  0  0  0  0  0  0  0  0
   -0.8744   14.1439   -3.2137 H   0  0  0  0  0  0  0  0  0  0  0  0
    0.2438   12.9607   -4.0728 H   0  0  0  0  0  0  0  0  0  0  0  0
   -1.6103   11.9012   -2.5299 H   0  0  0  0  0  0  0  0  0  0  0  0
    1.4796   12.5645   -0.0167 H   0  0  0  0  0  0  0  0  0  0  0  0
    2.4100   10.2082   -1.7709 H   0  0  0  0  0  0  0  0  0  0  0  0
    3.3467   11.0117   -0.4338 H   0  0  0  0  0  0  0  0  0  0  0  0
    2.3660    8.8550    0.2761 H   0  0  0  0  0  0  0  0  0  0  0  0
    1.7143   10.2650    1.1997 H   0  0  0  0  0  0  0  0  0  0  0  0
   -0.1030    8.7908    0.6591 H   0  0  0  0  0  0  0  0  0  0  0  0
    0.9360    7.8210   -1.1980 H   0  0  0  0  0  0  0  0  0  0  0  0
   -0.6066   10.5870    1.7975 H   0  0  0  0  0  0  0  0  0  0  0  0
   -0.3412   12.2050    1.0638 H   0  0  0  0  0  0  0  0  0  0  0  0
   -1.9834   11.4773    1.0638 H   0  0  0  0  0  0  0  0  0  0  0  0
   -2.6248    9.8207   -0.0613 H   0  0  0  0  0  0  0  0  0  0  0  0
   -2.4525   10.8497   -1.5236 H   0  0  0  0  0  0  0  0  0  0  0  0
   -1.8064    9.1736   -1.5236 H   0  0  0  0  0  0  0  0  0  0  0  0
    3.5061   11.5295   -2.8026 H   0  0  0  0  0  0  0  0  0  0  0  0
    2.0348   11.8732   -3.7742 H   0  0  0  0  0  0  0  0  0  0  0  0
    3.4032   13.0369   -3.7742 H   0  0  0  0  0  0  0  0  0  0  0  0
    3.8290   13.0292   -0.5006 H   0  0  0  0  0  0  0  0  0  0  0  0
    4.0690   14.1160   -1.9824 H   0  0  0  0  0  0  0  0  0  0  0  0
    2.4706   14.7272    0.5193 H   0  0  0  0  0  0  0  0  0  0  0  0
    3.9833   15.5183   -0.0749 H   0  0  0  0  0  0  0  0  0  0  0  0
    4.0067   16.9529   -2.0401 H   0  0  0  0  0  0  0  0  0  0  0  0
    3.3598   15.5964   -3.0240 H   0  0  0  0  0  0  0  0  0  0  0  0
    2.5218   17.1852   -3.0240 H   0  0  0  0  0  0  0  0  0  0  0  0
  1  2  1  0
  2  3  1  0
  3  4  1  0
  4  5  1  0
  5  6  1  0
  6  7  1  0
  7  8  1  0
  7  9  1  0
  2 10  1  0
 10 11  1  0
 11 12  1  0
 12 13  1  0
 13 14  1  1
 13 15  1  0
 15 16  1  0
 16 17  1  0
 17 18  2  0
 18 19  1  0
 19 20  1  0
 20 21  1  0
 21 22  1  0
 22 23  1  0
 22 24  1  0
 24 25  1  0
 24 26  1  0
 19 27  1  0
 27 28  1  6
 27 29  1  0
 29 30  1  0
 30 31  1  0
 31 32  1  6
  7  5  1  0
 31 10  1  0
 31 13  1  0
 27 15  1  0
 24 18  1  0
  1 33  1  0
  1 34  1  0
  1 35  1  0
  2 36  1  6
  3 37  1  0
  3 38  1  0
  4 39  1  0
  4 40  1  0
  5 41  1  6
  8 42  1  0
  8 43  1  0
  8 44  1  0
  9 45  1  0
  9 46  1  0
  9 47  1  0
 10 48  1  1
 11 49  1  0
 11 50  1  0
 12 51  1  0
 12 52  1  0
 14 53  1  0
 14 54  1  0
 14 55  1  0
 15 56  1  6
 16 57  1  0
 16 58  1  0
 17 59  1  0
 19 60  1  1
 20 61  1  0
 20 62  1  0
 21 63  1  0
 21 64  1  0
 22 65  1  1
 23 66  1  0
 25 67  1  0
 25 68  1  0
 25 69  1  0
 26 70  1  0
 26 71  1  0
 26 72  1  0
 28 73  1  0
 28 74  1  0
 28 75  1  0
 29 76  1  0
 29 77  1  0
 30 78  1  0
 30 79  1  0
 32 80  1  0
 32 81  1  0
 32 82  1  0
M  END
>  <meeko>  (5) 
{"is_sidechain": [false], "intermolecular_energy": 2.731, "internal_energy": -0.839}

$$$$
EPH_relaxed_0001_pdb2pqr_Repair_276_r2_0001_out
     RDKit          3D

 82 86  0  0  0  0  0  0  0  0999 V2000
   -5.2150    5.8280   -1.6130 C   0  0  0  0  0  0  0  0  0  0  0  0
   -5.4650    7.3260   -1.8100 C   0  0  2  0  0  0  0  0  0  0  0  0
   -5.1870    8.1340   -0.5260 C   0  0  0  0  0  0  0  0  0  0  0  0
   -4.2110    9.2960   -0.7300 C   0  0  0  0  0  0  0  0  0  0  0  0
   -2.8100    8.9140   -0.3610 C   0  0  2  0  0  0  0  0  0  0  0  0
   -2.2470    9.6720    0.7180 O   0  0  0  0  0  0  0  0  0  0  0  0
   -1.6140    9.8260   -0.5620 C   0  0  0  0  0  0  0  0  0  0  0  0
   -1.7650   11.1920   -1.1560 C   0  0  0  0  0  0  0  0  0  0  0  0
   -0.2510    9.2120   -0.6390 C   0  0  0  0  0  0  0  0  0  0  0  0
   -6.8990    7.5570   -2.2710 C   0  0  1  0  0  0  0  0  0  0  0  0
   -7.2100    6.8650   -3.6250 C   0  0  0  0  0  0  0  0  0  0  0  0
   -8.6860    6.3960   -3.5590 C   0  0  0  0  0  0  0  0  0  0  0  0
   -9.2690    7.1170   -2.3210 C   0  0  1  0  0  0  0  0  0  0  0  0
   -9.6170    8.5540   -2.8200 C   0  0  0  0  0  0  0  0  0  0  0  0
  -10.4960    6.4310   -1.6360 C   0  0  2  0  0  0  0  0  0  0  0  0
  -11.7520    6.3110   -2.5170 C   0  0  0  0  0  0  0  0  0  0  0  0
  -12.7030    7.4590   -2.4330 C   0  0  0  0  0  0  0  0  0  0  0  0
  -12.7020    8.4060   -1.4760 C   0  0  0  0  0  0  0  0  0  0  0  0
  -11.7360    8.3240   -0.2870 C   0  0  1  0  0  0  0  0  0  0  0  0
  -12.5100    8.6030    1.0280 C   0  0  0  0  0  0  0  0  0  0  0  0
  -13.2760    9.9220    0.9880 C   0  0  0  0  0  0  0  0  0  0  0  0
  -14.2670    9.9420   -0.1720 C   0  0  2  0  0  0  0  0  0  0  0  0
  -15.2870    8.9700    0.0760 O   0  0  0  0  0  0  0  0  0  0  0  0
  -13.6030    9.6640   -1.5500 C   0  0  0  0  0  0  0  0  0  0  0  0
  -12.7220   10.8700   -1.9570 C   0  0  0  0  0  0  0  0  0  0  0  0
  -14.7310    9.5720   -2.6130 C   0  0  0  0  0  0  0  0  0  0  0  0
  -10.8470    7.0090   -0.2050 C   0  0  1  0  0  0  0  0  0  0  0  0
  -11.6240    5.8880    0.5500 C   0  0  0  0  0  0  0  0  0  0  0  0
   -9.5610    7.3110    0.6500 C   0  0  0  0  0  0  0  0  0  0  0  0
   -8.3410    7.8760   -0.1040 C   0  0  0  0  0  0  0  0  0  0  0  0
   -8.0340    7.0410   -1.3510 C   0  0  2  0  0  0  0  0  0  0  0  0
   -7.6590    5.5950   -0.8790 C   0  0  0  0  0  0  0  0  0  0  0  0
   -5.1771    5.6009   -0.5374 H   0  0  0  0  0  0  0  0  0  0  0  0
   -6.0301    5.2557   -2.0801 H   0  0  0  0  0  0  0  0  0  0  0  0
   -4.2583    5.5514   -2.0801 H   0  0  0  0  0  0  0  0  0  0  0  0
   -4.7653    7.6805   -2.5812 H   0  0  0  0  0  0  0  0  0  0  0  0
   -6.1404    8.5415   -0.1587 H   0  0  0  0  0  0  0  0  0  0  0  0
   -4.7207    7.4447    0.1933 H   0  0  0  0  0  0  0  0  0  0  0  0
   -4.2315    9.5973   -1.7877 H   0  0  0  0  0  0  0  0  0  0  0  0
   -4.5235   10.1249   -0.0779 H   0  0  0  0  0  0  0  0  0  0  0  0
   -2.9958    7.8673   -0.6436 H   0  0  0  0  0  0  0  0  0  0  0  0
   -1.8472   11.9355   -0.3495 H   0  0  0  0  0  0  0  0  0  0  0  0
   -0.8867   11.4207   -1.7775 H   0  0  0  0  0  0  0  0  0  0  0  0
   -2.6721   11.2234   -1.7775 H   0  0  0  0  0  0  0  0  0  0  0  0
    0.1315    9.0397    0.3779 H   0  0  0  0  0  0  0  0  0  0  0  0
   -0.3103    8.2537   -1.1757 H   0  0  0  0  0  0  0  0  0  0  0  0
    0.4274    9.8914   -1.1757 H   0  0  0  0  0  0  0  0  0  0  0  0
   -6.9086    8.6566   -2.2992 H   0  0  0  0  0  0  0  0  0  0  0  0
   -7.0751    7.5759   -4.4535 H   0  0  0  0  0  0  0  0  0  0  0  0
   -6.5331    6.0156   -3.7990 H   0  0  0  0  0  0  0  0  0  0  0  0
   -9.2279    6.6893   -4.4702 H   0  0  0  0  0  0  0  0  0  0  0  0
   -8.7733    5.3020   -3.4844 H   0  0  0  0  0  0  0  0  0  0  0  0
   -9.7768    9.2140   -1.9546 H   0  0  0  0  0  0  0  0  0  0  0  0
   -8.7868    8.9419   -3.4286 H   0  0  0  0  0  0  0  0  0  0  0  0
  -10.5327    8.5191   -3.4286 H   0  0  0  0  0  0  0  0  0  0  0  0
  -10.1370    5.4022   -1.4852 H   0  0  0  0  0  0  0  0  0  0  0  0
  -11.4254    6.2162   -3.5631 H   0  0  0  0  0  0  0  0  0  0  0  0
  -12.3013    5.4335   -2.1452 H   0  0  0  0  0  0  0  0  0  0  0  0
  -13.4686    7.5376   -3.2189 H   0  0  0  0  0  0  0  0  0  0  0  0
  -10.9834    9.1092   -0.4513 H   0  0  0  0  0  0  0  0  0  0  0  0
  -13.2256    7.7847    1.1963 H   0  0  0  0  0  0  0  0  0  0  0  0
  -11.7726    8.6699    1.8415 H   0  0  0  0  0  0  0  0  0  0  0  0
  -13.8251   10.0483    1.9328 H   0  0  0  0  0  0  0  0  0  0  0  0
  -12.5561   10.7420    0.8490 H   0  0  0  0  0  0  0  0  0  0  0  0
  -14.6901   10.9559   -0.2270 H   0  0  0  0  0  0  0  0  0  0  0  0
  -15.1330    8.6020    0.9630 H   0  0  0  0  0  0  0  0  0  0  0  0
  -12.3525   11.3758   -1.0528 H   0  0  0  0  0  0  0  0  0  0  0  0
  -11.8685   10.5158   -2.5537 H   0  0  0  0  0  0  0  0  0  0  0  0
  -13.3190   11.5754   -2.5537 H   0  0  0  0  0  0  0  0  0  0  0  0
  -15.7050    9.4926   -2.1081 H   0  0  0  0  0  0  0  0  0  0  0  0
  -14.7166   10.4743   -3.2420 H   0  0  0  0  0  0  0  0  0  0  0  0
  -14.5705    8.6840   -3.2420 H   0  0  0  0  0  0  0  0  0  0  0  0
  -11.5206    6.0371    1.6349 H   0  0  0  0  0  0  0  0  0  0  0  0
  -12.6880    5.9296    0.2739 H   0  0  0  0  0  0  0  0  0  0  0  0
  -11.2116    4.9063    0.2739 H   0  0  0  0  0  0  0  0  0  0  0  0
   -9.8403    8.0403    1.4246 H   0  0  0  0  0  0  0  0  0  0  0  0
   -9.2344    6.3330    1.0333 H   0  0  0  0  0  0  0  0  0  0  0  0
   -8.5533    8.9118   -0.4075 H   0  0  0  0  0  0  0  0  0  0  0  0
   -7.4683    7.8426    0.5648 H   0  0  0  0  0  0  0  0  0  0  0  0
   -7.6497    5.5590    0.2204 H   0  0  0  0  0  0  0  0  0  0  0  0
   -8.4014    4.8799   -1.2630 H   0  0  0  0  0  0  0  0  0  0  0  0
   -6.6626    5.3308   -1.2630 H   0  0  0  0  0  0  0  0  0  0  0  0
  1  2  1  0
  2  3  1  0
  3  4  1  0
  4  5  1  0
  5  6  1  0
  6  7  1  0
  7  8  1  0
  7  9  1  0
  2 10  1  0
 10 11  1  0
 11 12  1  0
 12 13  1  0
 13 14  1  6
 13 15  1  0
 15 16  1  0
 16 17  1  0
 17 18  2  0
 18 19  1  0
 19 20  1  0
 20 21  1  0
 21 22  1  0
 22 23  1  0
 22 24  1  0
 24 25  1  0
 24 26  1  0
 19 27  1  0
 27 28  1  1
 27 29  1  0
 29 30  1  0
 30 31  1  0
 31 32  1  1
  7  5  1  0
 31 10  1  0
 31 13  1  0
 27 15  1  0
 24 18  1  0
  1 33  1  0
  1 34  1  0
  1 35  1  0
  2 36  1  6
  3 37  1  0
  3 38  1  0
  4 39  1  0
  4 40  1  0
  5 41  1  1
  8 42  1  0
  8 43  1  0
  8 44  1  0
  9 45  1  0
  9 46  1  0
  9 47  1  0
 10 48  1  6
 11 49  1  0
 11 50  1  0
 12 51  1  0
 12 52  1  0
 14 53  1  0
 14 54  1  0
 14 55  1  0
 15 56  1  1
 16 57  1  0
 16 58  1  0
 17 59  1  0
 19 60  1  6
 20 61  1  0
 20 62  1  0
 21 63  1  0
 21 64  1  0
 22 65  1  6
 23 66  1  0
 25 67  1  0
 25 68  1  0
 25 69  1  0
 26 70  1  0
 26 71  1  0
 26 72  1  0
 28 73  1  0
 28 74  1  0
 28 75  1  0
 29 76  1  0
 29 77  1  0
 30 78  1  0
 30 79  1  0
 32 80  1  0
 32 81  1  0
 32 82  1  0
M  END
>  <meeko>  (6) 
{"is_sidechain": [false], "intermolecular_energy": 2.731, "internal_energy": -0.839}

$$$$
EPH_relaxed_0001_pdb2pqr_Repair_276_r2_0001_out
     RDKit          3D

 82 86  0  0  0  0  0  0  0  0999 V2000
    0.4660    8.8520   -2.4760 C   0  0  0  0  0  0  0  0  0  0  0  0
    1.2170   10.0090   -3.1400 C   0  0  2  0  0  0  0  0  0  0  0  0
    2.7120   10.0230   -2.7630 C   0  0  0  0  0  0  0  0  0  0  0  0
    3.6160   10.6030   -3.8550 C   0  0  0  0  0  0  0  0  0  0  0  0
    5.0090   10.8380   -3.3540 C   0  0  2  0  0  0  0  0  0  0  0  0
    5.6150   12.0510   -3.8170 O   0  0  0  0  0  0  0  0  0  0  0  0
    6.2330   10.8290   -4.2500 C   0  0  0  0  0  0  0  0  0  0  0  0
    6.1210   10.5780   -5.7210 C   0  0  0  0  0  0  0  0  0  0  0  0
    7.5720   10.5780   -3.6300 C   0  0  0  0  0  0  0  0  0  0  0  0
    0.5710   11.3350   -2.7560 C   0  0  1  0  0  0  0  0  0  0  0  0
   -0.8050   11.1520   -2.0630 C   0  0  0  0  0  0  0  0  0  0  0  0
   -0.9270   12.2770   -1.0040 C   0  0  0  0  0  0  0  0  0  0  0  0
    0.2180   13.2590   -1.3460 C   0  0  1  0  0  0  0  0  0  0  0  0
   -0.3350   14.1290   -2.5180 C   0  0  0  0  0  0  0  0  0  0  0  0
    0.7440   14.1440   -0.1690 C   0  0  2  0  0  0  0  0  0  0  0  0
   -0.2920   15.1080    0.4360 C   0  0  0  0  0  0  0  0  0  0  0  0
   -0.3420   16.4630   -0.1890 C   0  0  0  0  0  0  0  0  0  0  0  0
    0.5980   16.9870   -0.9980 C   0  0  0  0  0  0  0  0  0  0  0  0
    1.9030   16.2320   -1.2810 C   0  0  1  0  0  0  0  0  0  0  0  0
    3.1050   17.2030   -1.1390 C   0  0  0  0  0  0  0  0  0  0  0  0
    2.9530   18.4510   -2.0030 C   0  0  0  0  0  0  0  0  0  0  0  0
    1.6740   19.2060   -1.6510 C   0  0  2  0  0  0  0  0  0  0  0  0
    1.7970   19.7290   -0.3250 O   0  0  0  0  0  0  0  0  0  0  0  0
    0.3970   18.3260   -1.7500 C   0  0  0  0  0  0  0  0  0  0  0  0
    0.0970   18.0080   -3.2360 C   0  0  0  0  0  0  0  0  0  0  0  0
   -0.8030   19.1660   -1.2350 C   0  0  0  0  0  0  0  0  0  0  0  0
    2.1120   14.8800   -0.4720 C   0  0  1  0  0  0  0  0  0  0  0  0
    2.7700   15.1830    0.9090 C   0  0  0  0  0  0  0  0  0  0  0  0
    3.1240   13.9630   -1.2550 C   0  0  0  0  0  0  0  0  0  0  0  0
    2.5290   13.0250   -2.3220 C   0  0  0  0  0  0  0  0  0  0  0  0
    1.3400   12.2390   -1.7600 C   0  0  2  0  0  0  0  0  0  0  0  0
    1.8710   11.3380   -0.5940 C   0  0  0  0  0  0  0  0  0  0  0  0
    0.5310    8.9522   -1.3825 H   0  0  0  0  0  0  0  0  0  0  0  0
   -0.5897    8.8752   -2.7842 H   0  0  0  0  0  0  0  0  0  0  0  0
    0.9170    7.8972   -2.7842 H   0  0  0  0  0  0  0  0  0  0  0  0
    1.1524    9.8647   -4.2286 H   0  0  0  0  0  0  0  0  0  0  0  0
    2.8351   10.6279   -1.8525 H   0  0  0  0  0  0  0  0  0  0  0  0
    3.0165    8.9764   -2.6153 H   0  0  0  0  0  0  0  0  0  0  0  0
    3.6546    9.8974   -4.6980 H   0  0  0  0  0  0  0  0  0  0  0  0
    3.1968   11.5701   -4.1696 H   0  0  0  0  0  0  0  0  0  0  0  0
    4.7818   10.3208   -2.4101 H   0  0  0  0  0  0  0  0  0  0  0  0
    5.6781    9.5855   -5.8909 H   0  0  0  0  0  0  0  0  0  0  0  0
    5.4811   11.3480   -6.1767 H   0  0  0  0  0  0  0  0  0  0  0  0
    7.1215   10.6160   -6.1767 H   0  0  0  0  0  0  0  0  0  0  0  0
    7.4778   10.5957   -2.5342 H   0  0  0  0  0  0  0  0  0  0  0  0
    7.9457    9.5942   -3.9501 H   0  0  0  0  0  0  0  0  0  0  0  0
    8.2766   11.3597   -3.9501 H   0  0  0  0  0  0  0  0  0  0  0  0
    0.5317   11.8131   -3.7459 H   0  0  0  0  0  0  0  0  0  0  0  0
   -1.6154   11.2381   -2.8018 H   0  0  0  0  0  0  0  0  0  0  0  0
   -0.8819   10.1596   -1.5948 H   0  0  0  0  0  0  0  0  0  0  0  0
   -1.9036   12.7775   -1.0796 H   0  0  0  0  0  0  0  0  0  0  0  0
   -0.8543   11.8925    0.0240 H   0  0  0  0  0  0  0  0  0  0  0  0
   -0.8826   14.9906   -2.1084 H   0  0  0  0  0  0  0  0  0  0  0  0
    0.5019   14.4866   -3.1358 H   0  0  0  0  0  0  0  0  0  0  0  0
   -1.0140   13.5230   -3.1358 H   0  0  0  0  0  0  0  0  0  0  0  0
    0.9500   13.3983    0.6130 H   0  0  0  0  0  0  0  0  0  0  0  0
   -1.2859   14.6484    0.3315 H   0  0  0  0  0  0  0  0  0  0  0  0
    0.0122   15.2655    1.4813 H   0  0  0  0  0  0  0  0  0  0  0  0
   -1.2216   17.0861    0.0301 H   0  0  0  0  0  0  0  0  0  0  0  0
    1.8297   15.8782   -2.3200 H   0  0  0  0  0  0  0  0  0  0  0  0
    3.1874   17.5107   -0.0861 H   0  0  0  0  0  0  0  0  0  0  0  0
    4.0065   16.6706   -1.4765 H   0  0  0  0  0  0  0  0  0  0  0  0
    3.8175   19.1107   -1.8377 H   0  0  0  0  0  0  0  0  0  0  0  0
    2.9000   18.1433   -3.0578 H   0  0  0  0  0  0  0  0  0  0  0  0
    1.5551   20.0150   -2.3868 H   0  0  0  0  0  0  0  0  0  0  0  0
    1.6050   19.0060    0.2950 H   0  0  0  0  0  0  0  0  0  0  0  0
   -0.6568   17.2090   -3.2951 H   0  0  0  0  0  0  0  0  0  0  0  0
   -0.2860   18.9109   -3.7341 H   0  0  0  0  0  0  0  0  0  0  0  0
    1.0207   17.6783   -3.7341 H   0  0  0  0  0  0  0  0  0  0  0  0
   -0.8046   19.1671   -0.1350 H   0  0  0  0  0  0  0  0  0  0  0  0
   -0.7122   20.1988   -1.6026 H   0  0  0  0  0  0  0  0  0  0  0  0
   -1.7423   18.7272   -1.6026 H   0  0  0  0  0  0  0  0  0  0  0  0
    2.0905   14.8701    1.7155 H   0  0  0  0  0  0  0  0  0  0  0  0
    3.7175   14.6305    0.9928 H   0  0  0  0  0  0  0  0  0  0  0  0
    2.9661   16.2621    0.9928 H   0  0  0  0  0  0  0  0  0  0  0  0
    3.8490   14.6205   -1.7570 H   0  0  0  0  0  0  0  0  0  0  0  0
    3.5560   13.2962   -0.4943 H   0  0  0  0  0  0  0  0  0  0  0  0
    2.1907   13.6247   -3.1799 H   0  0  0  0  0  0  0  0  0  0  0  0
    3.3056   12.3110   -2.6335 H   0  0  0  0  0  0  0  0  0  0  0  0
    1.6033   11.7922    0.3714 H   0  0  0  0  0  0  0  0  0  0  0  0
    1.4175   10.3385   -0.6673 H   0  0  0  0  0  0  0  0  0  0  0  0
    2.9651   11.2505   -0.6673 H   0  0  0  0  0  0  0  0  0  0  0  0
  1  2  1  0
  2  3  1  0
  3  4  1  0
  4  5  1  0
  5  6  1  0
  6  7  1  0
  7  8  1  0
  7  9  1  0
  2 10  1  0
 10 11  1  0
 11 12  1  0
 12 13  1  0
 13 14  1  6
 13 15  1  0
 15 16  1  0
 16 17  1  0
 17 18  2  0
 18 19  1  0
 19 20  1  0
 20 21  1  0
 21 22  1  0
 22 23  1  0
 22 24  1  0
 24 25  1  0
 24 26  1  0
 19 27  1  0
 27 28  1  1
 27 29  1  0
 29 30  1  0
 30 31  1  0
 31 32  1  1
  7  5  1  0
 31 10  1  0
 31 13  1  0
 27 15  1  0
 24 18  1  0
  1 33  1  0
  1 34  1  0
  1 35  1  0
  2 36  1  6
  3 37  1  0
  3 38  1  0
  4 39  1  0
  4 40  1  0
  5 41  1  1
  8 42  1  0
  8 43  1  0
  8 44  1  0
  9 45  1  0
  9 46  1  0
  9 47  1  0
 10 48  1  6
 11 49  1  0
 11 50  1  0
 12 51  1  0
 12 52  1  0
 14 53  1  0
 14 54  1  0
 14 55  1  0
 15 56  1  1
 16 57  1  0
 16 58  1  0
 17 59  1  0
 19 60  1  6
 20 61  1  0
 20 62  1  0
 21 63  1  0
 21 64  1  0
 22 65  1  6
 23 66  1  0
 25 67  1  0
 25 68  1  0
 25 69  1  0
 26 70  1  0
 26 71  1  0
 26 72  1  0
 28 73  1  0
 28 74  1  0
 28 75  1  0
 29 76  1  0
 29 77  1  0
 30 78  1  0
 30 79  1  0
 32 80  1  0
 32 81  1  0
 32 82  1  0
M  END
>  <meeko>  (7) 
{"is_sidechain": [false], "intermolecular_energy": 2.731, "internal_energy": -0.839}

$$$$
EPH_relaxed_0001_pdb2pqr_Repair_276_r2_0001_out
     RDKit          3D

 82 86  0  0  0  0  0  0  0  0999 V2000
   -0.2790   10.4910   -3.9880 C   0  0  0  0  0  0  0  0  0  0  0  0
    0.9480   10.3520   -3.0830 C   0  0  2  0  0  0  0  0  0  0  0  0
    0.9580    9.0130   -2.3200 C   0  0  0  0  0  0  0  0  0  0  0  0
   -0.4260    8.5670   -1.8390 C   0  0  0  0  0  0  0  0  0  0  0  0
   -0.6640    8.9460   -0.4090 C   0  0  2  0  0  0  0  0  0  0  0  0
   -2.0380    8.9060    0.0000 O   0  0  0  0  0  0  0  0  0  0  0  0
   -1.4110   10.1990    0.0110 C   0  0  0  0  0  0  0  0  0  0  0  0
   -1.9660   11.1530   -1.0000 C   0  0  0  0  0  0  0  0  0  0  0  0
   -1.1780   10.7440    1.3860 C   0  0  0  0  0  0  0  0  0  0  0  0
    1.0000   11.5140   -2.0980 C   0  0  1  0  0  0  0  0  0  0  0  0
    2.0280   11.2840   -0.9580 C   0  0  0  0  0  0  0  0  0  0  0  0
    2.6340   12.6700   -0.6160 C   0  0  0  0  0  0  0  0  0  0  0  0
    1.7080   13.6860   -1.3260 C   0  0  1  0  0  0  0  0  0  0  0  0
    0.4830   13.8460   -0.3730 C   0  0  0  0  0  0  0  0  0  0  0  0
    2.3460   15.0680   -1.6840 C   0  0  2  0  0  0  0  0  0  0  0  0
    2.8170   15.9010   -0.4790 C   0  0  0  0  0  0  0  0  0  0  0  0
    1.7990   16.8340    0.0880 C   0  0  0  0  0  0  0  0  0  0  0  0
    0.6570   17.2070   -0.5170 C   0  0  0  0  0  0  0  0  0  0  0  0
    0.3390   16.7550   -1.9480 C   0  0  1  0  0  0  0  0  0  0  0  0
   -0.1570   17.9680   -2.7770 C   0  0  0  0  0  0  0  0  0  0  0  0
   -1.3310   18.6860   -2.1180 C   0  0  0  0  0  0  0  0  0  0  0  0
   -0.9580   19.1720   -0.7200 C   0  0  2  0  0  0  0  0  0  0  0  0
    0.0370   20.1940   -0.8380 O   0  0  0  0  0  0  0  0  0  0  0  0
   -0.4340   18.0370    0.2040 C   0  0  0  0  0  0  0  0  0  0  0  0
   -1.6010   17.0890    0.5750 C   0  0  0  0  0  0  0  0  0  0  0  0
    0.0390   18.6840    1.5330 C   0  0  0  0  0  0  0  0  0  0  0  0
    1.4850   15.9380   -2.6870 C   0  0  1  0  0  0  0  0  0  0  0  0
    2.4740   16.9210   -3.3850 C   0  0  0  0  0  0  0  0  0  0  0  0
    0.8410   15.0700   -3.8320 C   0  0  0  0  0  0  0  0  0  0  0  0
    0.3380   13.6670   -3.4400 C   0  0  0  0  0  0  0  0  0  0  0  0
    1.4070   12.9010   -2.6540 C   0  0  2  0  0  0  0  0  0  0  0  0
    2.6440   12.7050   -3.5950 C   0  0  0  0  0  0  0  0  0  0  0  0
   -1.1820   10.5933   -3.3682 H   0  0  0  0  0  0  0  0  0  0  0  0
   -0.1672   11.3822   -4.6230 H   0  0  0  0  0  0  0  0  0  0  0  0
   -0.3694    9.5973   -4.6230 H   0  0  0  0  0  0  0  0  0  0  0  0
    1.8392   10.3703   -3.7275 H   0  0  0  0  0  0  0  0  0  0  0  0
    1.3605    8.2364   -2.9870 H   0  0  0  0  0  0  0  0  0  0  0  0
    1.5779    9.1592   -1.4231 H   0  0  0  0  0  0  0  0  0  0  0  0
   -1.1927    9.0446   -2.4668 H   0  0  0  0  0  0  0  0  0  0  0  0
   -0.4796    7.4711   -1.9169 H   0  0  0  0  0  0  0  0  0  0  0  0
    0.3120    8.5344   -0.1123 H   0  0  0  0  0  0  0  0  0  0  0  0
   -2.4542   11.9922   -0.4829 H   0  0  0  0  0  0  0  0  0  0  0  0
   -1.1495   11.5356   -1.6300 H   0  0  0  0  0  0  0  0  0  0  0  0
   -2.7022   10.6323   -1.6300 H   0  0  0  0  0  0  0  0  0  0  0  0
   -1.4953   10.0018    2.1332 H   0  0  0  0  0  0  0  0  0  0  0  0
   -0.1079   10.9622    1.5174 H   0  0  0  0  0  0  0  0  0  0  0  0
   -1.7596   11.6684    1.5174 H   0  0  0  0  0  0  0  0  0  0  0  0
   -0.0523   11.5317   -1.7782 H   0  0  0  0  0  0  0  0  0  0  0  0
    1.5262   10.8616   -0.0749 H   0  0  0  0  0  0  0  0  0  0  0  0
    2.8108   10.5764   -1.2687 H   0  0  0  0  0  0  0  0  0  0  0  0
    2.6326   12.8370    0.4713 H   0  0  0  0  0  0  0  0  0  0  0  0
    3.6806   12.7600   -0.9425 H   0  0  0  0  0  0  0  0  0  0  0  0
    0.8232   13.8016    0.6721 H   0  0  0  0  0  0  0  0  0  0  0  0
   -0.0026   14.8152   -0.5596 H   0  0  0  0  0  0  0  0  0  0  0  0
   -0.2353   13.0340   -0.5596 H   0  0  0  0  0  0  0  0  0  0  0  0
    3.2608   14.7744   -2.2196 H   0  0  0  0  0  0  0  0  0  0  0  0
    3.1213   15.2054    0.3170 H   0  0  0  0  0  0  0  0  0  0  0  0
    3.6375   16.5337   -0.8484 H   0  0  0  0  0  0  0  0  0  0  0  0
    1.9998   17.2521    1.0854 H   0  0  0  0  0  0  0  0  0  0  0  0
   -0.4658   16.0103   -1.8598 H   0  0  0  0  0  0  0  0  0  0  0  0
    0.6733   18.6806   -2.8908 H   0  0  0  0  0  0  0  0  0  0  0  0
   -0.5013   17.5889   -3.7505 H   0  0  0  0  0  0  0  0  0  0  0  0
   -1.6167   19.5505   -2.7353 H   0  0  0  0  0  0  0  0  0  0  0  0
   -2.1705   17.9805   -2.0321 H   0  0  0  0  0  0  0  0  0  0  0  0
   -1.8737   19.5607   -0.2505 H   0  0  0  0  0  0  0  0  0  0  0  0
   -0.2370   20.7910   -1.5540 H   0  0  0  0  0  0  0  0  0  0  0  0
   -1.6845   17.0212    1.6697 H   0  0  0  0  0  0  0  0  0  0  0  0
   -2.5400   17.4833    0.1594 H   0  0  0  0  0  0  0  0  0  0  0  0
   -1.4074   16.0891    0.1594 H   0  0  0  0  0  0  0  0  0  0  0  0
   -0.3734   18.1199    2.3826 H   0  0  0  0  0  0  0  0  0  0  0  0
    1.1379   18.6653    1.5792 H   0  0  0  0  0  0  0  0  0  0  0  0
   -0.3122   19.7254    1.5792 H   0  0  0  0  0  0  0  0  0  0  0  0
    3.0358   17.4794   -2.6217 H   0  0  0  0  0  0  0  0  0  0  0  0
    3.1751   16.3515   -4.0128 H   0  0  0  0  0  0  0  0  0  0  0  0
    1.9088   17.6255   -4.0128 H   0  0  0  0  0  0  0  0  0  0  0  0
   -0.0161   15.6309   -4.2330 H   0  0  0  0  0  0  0  0  0  0  0  0
    1.6538   14.8940   -4.5520 H   0  0  0  0  0  0  0  0  0  0  0  0
   -0.5629   13.7688   -2.8170 H   0  0  0  0  0  0  0  0  0  0  0  0
    0.1095   13.1069   -4.3588 H   0  0  0  0  0  0  0  0  0  0  0  0
    3.5488   12.5616   -2.9861 H   0  0  0  0  0  0  0  0  0  0  0  0
    2.4853   11.8208   -4.2298 H   0  0  0  0  0  0  0  0  0  0  0  0
    2.7664   13.5949   -4.2298 H   0  0  0  0  0  0  0  0  0  0  0  0
  1  2  1  0
  2  3  1  0
  3  4  1  0
  4  5  1  0
  5  6  1  0
  6  7  1  0
  7  8  1  0
  7  9  1  0
  2 10  1  0
 10 11  1  0
 11 12  1  0
 12 13  1  0
 13 14  1  1
 13 15  1  0
 15 16  1  0
 16 17  1  0
 17 18  2  0
 18 19  1  0
 19 20  1  0
 20 21  1  0
 21 22  1  0
 22 23  1  0
 22 24  1  0
 24 25  1  0
 24 26  1  0
 19 27  1  0
 27 28  1  6
 27 29  1  0
 29 30  1  0
 30 31  1  0
 31 32  1  6
  7  5  1  0
 31 10  1  0
 31 13  1  0
 27 15  1  0
 24 18  1  0
  1 33  1  0
  1 34  1  0
  1 35  1  0
  2 36  1  6
  3 37  1  0
  3 38  1  0
  4 39  1  0
  4 40  1  0
  5 41  1  1
  8 42  1  0
  8 43  1  0
  8 44  1  0
  9 45  1  0
  9 46  1  0
  9 47  1  0
 10 48  1  1
 11 49  1  0
 11 50  1  0
 12 51  1  0
 12 52  1  0
 14 53  1  0
 14 54  1  0
 14 55  1  0
 15 56  1  6
 16 57  1  0
 16 58  1  0
 17 59  1  0
 19 60  1  1
 20 61  1  0
 20 62  1  0
 21 63  1  0
 21 64  1  0
 22 65  1  1
 23 66  1  0
 25 67  1  0
 25 68  1  0
 25 69  1  0
 26 70  1  0
 26 71  1  0
 26 72  1  0
 28 73  1  0
 28 74  1  0
 28 75  1  0
 29 76  1  0
 29 77  1  0
 30 78  1  0
 30 79  1  0
 32 80  1  0
 32 81  1  0
 32 82  1  0
M  END
>  <meeko>  (8) 
{"is_sidechain": [false], "intermolecular_energy": 2.731, "internal_energy": -0.839}

$$$$
EPH_relaxed_0001_pdb2pqr_Repair_276_r2_0001_out
     RDKit          3D

 82 86  0  0  0  0  0  0  0  0999 V2000
    3.1240   18.2980   -3.5150 C   0  0  0  0  0  0  0  0  0  0  0  0
    2.1630   18.0350   -2.3520 C   0  0  2  0  0  0  0  0  0  0  0  0
    2.2770   19.1070   -1.2500 C   0  0  0  0  0  0  0  0  0  0  0  0
    1.2020   20.1940   -1.3350 C   0  0  0  0  0  0  0  0  0  0  0  0
    0.1480   20.0140   -0.2850 C   0  0  2  0  0  0  0  0  0  0  0  0
   -0.5040   18.7370   -0.3040 O   0  0  0  0  0  0  0  0  0  0  0  0
   -1.3300   19.8750   -0.5990 C   0  0  0  0  0  0  0  0  0  0  0  0
   -1.8360   19.9110   -2.0080 C   0  0  0  0  0  0  0  0  0  0  0  0
   -2.3230   20.1940    0.4750 C   0  0  0  0  0  0  0  0  0  0  0  0
    2.4250   16.6530   -1.7640 C   0  0  1  0  0  0  0  0  0  0  0  0
    3.0870   16.7160   -0.3620 C   0  0  0  0  0  0  0  0  0  0  0  0
    2.5230   15.5240    0.4530 C   0  0  0  0  0  0  0  0  0  0  0  0
    1.8200   14.6320   -0.5970 C   0  0  1  0  0  0  0  0  0  0  0  0
    2.9690   13.8030   -1.2520 C   0  0  0  0  0  0  0  0  0  0  0  0
    0.6750   13.7100   -0.0650 C   0  0  2  0  0  0  0  0  0  0  0  0
    1.1120   12.6540    0.9650 C   0  0  0  0  0  0  0  0  0  0  0  0
    1.5240   11.3380    0.3930 C   0  0  0  0  0  0  0  0  0  0  0  0
    1.2750   10.9180   -0.8610 C   0  0  0  0  0  0  0  0  0  0  0  0
    0.4250   11.7620   -1.8200 C   0  0  1  0  0  0  0  0  0  0  0  0
   -0.6190   10.8540   -2.5230 C   0  0  0  0  0  0  0  0  0  0  0  0
    0.0200    9.6530   -3.2120 C   0  0  0  0  0  0  0  0  0  0  0  0
    0.8080    8.8070   -2.2150 C   0  0  2  0  0  0  0  0  0  0  0  0
   -0.1080    8.2140   -1.2900 O   0  0  0  0  0  0  0  0  0  0  0  0
    1.8840    9.6170   -1.4390 C   0  0  0  0  0  0  0  0  0  0  0  0
    3.0360   10.0040   -2.3990 C   0  0  0  0  0  0  0  0  0  0  0  0
    2.5070    8.6800   -0.3690 C   0  0  0  0  0  0  0  0  0  0  0  0
   -0.2250   13.0730   -1.2000 C   0  0  1  0  0  0  0  0  0  0  0  0
   -1.5950   12.7270   -0.5410 C   0  0  0  0  0  0  0  0  0  0  0  0
   -0.5350   14.0910   -2.3600 C   0  0  0  0  0  0  0  0  0  0  0  0
    0.5980   15.0560   -2.7590 C   0  0  0  0  0  0  0  0  0  0  0  0
    1.1980   15.7370   -1.5260 C   0  0  2  0  0  0  0  0  0  0  0  0
    0.0710   16.5960   -0.8580 C   0  0  0  0  0  0  0  0  0  0  0  0
    4.1137   18.5689   -3.1187 H   0  0  0  0  0  0  0  0  0  0  0  0
    3.2113   17.3907   -4.1308 H   0  0  0  0  0  0  0  0  0  0  0  0
    2.7372   19.1233   -4.1308 H   0  0  0  0  0  0  0  0  0  0  0  0
    1.1393   18.0812   -2.7518 H   0  0  0  0  0  0  0  0  0  0  0  0
    2.1920   18.6103   -0.2722 H   0  0  0  0  0  0  0  0  0  0  0  0
    3.2487   19.6046   -1.3850 H   0  0  0  0  0  0  0  0  0  0  0  0
    1.6770   21.1767   -1.1986 H   0  0  0  0  0  0  0  0  0  0  0  0
    0.7196   20.1231   -2.3210 H   0  0  0  0  0  0  0  0  0  0  0  0
    0.6964   20.6657    0.4111 H   0  0  0  0  0  0  0  0  0  0  0  0
   -2.9332   19.9891   -2.0017 H   0  0  0  0  0  0  0  0  0  0  0  0
   -1.4095   20.7811   -2.5286 H   0  0  0  0  0  0  0  0  0  0  0  0
   -1.5370   18.9893   -2.5286 H   0  0  0  0  0  0  0  0  0  0  0  0
   -1.8579   20.0446    1.4606 H   0  0  0  0  0  0  0  0  0  0  0  0
   -2.6457   21.2410    0.3768 H   0  0  0  0  0  0  0  0  0  0  0  0
   -3.1951   19.5308    0.3768 H   0  0  0  0  0  0  0  0  0  0  0  0
    3.0598   16.2322   -2.5577 H   0  0  0  0  0  0  0  0  0  0  0  0
    4.1796   16.6283   -0.4547 H   0  0  0  0  0  0  0  0  0  0  0  0
    2.8688   17.6727    0.1351 H   0  0  0  0  0  0  0  0  0  0  0  0
    3.3359   14.9732    0.9488 H   0  0  0  0  0  0  0  0  0  0  0  0
    1.8380   15.8500    1.2495 H   0  0  0  0  0  0  0  0  0  0  0  0
    3.5918   13.3536   -0.4645 H   0  0  0  0  0  0  0  0  0  0  0  0
    2.5369   13.0072   -1.8765 H   0  0  0  0  0  0  0  0  0  0  0  0
    3.5880   14.4639   -1.8765 H   0  0  0  0  0  0  0  0  0  0  0  0
    0.0394   14.4188    0.4860 H   0  0  0  0  0  0  0  0  0  0  0  0
    1.9641   13.0613    1.5289 H   0  0  0  0  0  0  0  0  0  0  0  0
    0.2280   12.4520    1.5877 H   0  0  0  0  0  0  0  0  0  0  0  0
    2.0780   10.6537    1.0524 H   0  0  0  0  0  0  0  0  0  0  0  0
    1.1235   12.1725   -2.5640 H   0  0  0  0  0  0  0  0  0  0  0  0
   -1.3333   10.4896   -1.7700 H   0  0  0  0  0  0  0  0  0  0  0  0
   -1.1180   11.4561   -3.2966 H   0  0  0  0  0  0  0  0  0  0  0  0
   -0.7699    9.0347   -3.6634 H   0  0  0  0  0  0  0  0  0  0  0  0
    0.7114   10.0190   -3.9853 H   0  0  0  0  0  0  0  0  0  0  0  0
    1.3478    8.0387   -2.7880 H   0  0  0  0  0  0  0  0  0  0  0  0
   -0.8230    8.8540   -1.1320 H   0  0  0  0  0  0  0  0  0  0  0  0
    3.9181   10.3003   -1.8125 H   0  0  0  0  0  0  0  0  0  0  0  0
    3.2901    9.1419   -3.0332 H   0  0  0  0  0  0  0  0  0  0  0  0
    2.7180   10.8447   -3.0332 H   0  0  0  0  0  0  0  0  0  0  0  0
    2.2584    9.0539    0.6352 H   0  0  0  0  0  0  0  0  0  0  0  0
    2.1040    7.6639   -0.4921 H   0  0  0  0  0  0  0  0  0  0  0  0
    3.5999    8.6585   -0.4921 H   0  0  0  0  0  0  0  0  0  0  0  0
   -1.4922   12.7530    0.5539 H   0  0  0  0  0  0  0  0  0  0  0  0
   -2.3496   13.4628   -0.8560 H   0  0  0  0  0  0  0  0  0  0  0  0
   -1.9098   11.7212   -0.8560 H   0  0  0  0  0  0  0  0  0  0  0  0
   -0.8041   13.5068   -3.2523 H   0  0  0  0  0  0  0  0  0  0  0  0
   -1.3376   14.7348   -1.9710 H   0  0  0  0  0  0  0  0  0  0  0  0
    1.3865   14.4904   -3.2771 H   0  0  0  0  0  0  0  0  0  0  0  0
    0.1821   15.8308   -3.4198 H   0  0  0  0  0  0  0  0  0  0  0  0
    0.1589   16.5290    0.2364 H   0  0  0  0  0  0  0  0  0  0  0  0
    0.1758   17.6454   -1.1707 H   0  0  0  0  0  0  0  0  0  0  0  0
   -0.9131   16.2168   -1.1707 H   0  0  0  0  0  0  0  0  0  0  0  0
  1  2  1  0
  2  3  1  0
  3  4  1  0
  4  5  1  0
  5  6  1  0
  6  7  1  0
  7  8  1  0
  7  9  1  0
  2 10  1  0
 10 11  1  0
 11 12  1  0
 12 13  1  0
 13 14  1  6
 13 15  1  0
 15 16  1  0
 16 17  1  0
 17 18  2  0
 18 19  1  0
 19 20  1  0
 20 21  1  0
 21 22  1  0
 22 23  1  0
 22 24  1  0
 24 25  1  0
 24 26  1  0
 19 27  1  0
 27 28  1  1
 27 29  1  0
 29 30  1  0
 30 31  1  0
 31 32  1  1
  7  5  1  0
 31 10  1  0
 31 13  1  0
 27 15  1  0
 24 18  1  0
  1 33  1  0
  1 34  1  0
  1 35  1  0
  2 36  1  6
  3 37  1  0
  3 38  1  0
  4 39  1  0
  4 40  1  0
  5 41  1  1
  8 42  1  0
  8 43  1  0
  8 44  1  0
  9 45  1  0
  9 46  1  0
  9 47  1  0
 10 48  1  6
 11 49  1  0
 11 50  1  0
 12 51  1  0
 12 52  1  0
 14 53  1  0
 14 54  1  0
 14 55  1  0
 15 56  1  1
 16 57  1  0
 16 58  1  0
 17 59  1  0
 19 60  1  6
 20 61  1  0
 20 62  1  0
 21 63  1  0
 21 64  1  0
 22 65  1  6
 23 66  1  0
 25 67  1  0
 25 68  1  0
 25 69  1  0
 26 70  1  0
 26 71  1  0
 26 72  1  0
 28 73  1  0
 28 74  1  0
 28 75  1  0
 29 76  1  0
 29 77  1  0
 30 78  1  0
 30 79  1  0
 32 80  1  0
 32 81  1  0
 32 82  1  0
M  END
>  <meeko>  (9) 
{"is_sidechain": [false], "intermolecular_energy": 2.731, "internal_energy": -0.839}

$$$$
EPH_relaxed_0001_pdb2pqr_Repair_276_r2_0001_out
     RDKit          3D

 82 86  0  0  0  0  0  0  0  0999 V2000
    4.5160   16.3780    0.5270 C   0  0  0  0  0  0  0  0  0  0  0  0
    3.3920   16.7470   -0.4460 C   0  0  2  0  0  0  0  0  0  0  0  0
    2.9070   18.1970   -0.2490 C   0  0  0  0  0  0  0  0  0  0  0  0
    2.5570   18.9120   -1.5580 C   0  0  0  0  0  0  0  0  0  0  0  0
    1.2610   19.6560   -1.4530 C   0  0  2  0  0  0  0  0  0  0  0  0
    0.2400   18.9790   -0.7080 O   0  0  0  0  0  0  0  0  0  0  0  0
   -0.0280   19.1870   -2.1040 C   0  0  0  0  0  0  0  0  0  0  0  0
   -0.0820   17.9250   -2.9070 C   0  0  0  0  0  0  0  0  0  0  0  0
   -1.1040   20.1940   -2.3680 C   0  0  0  0  0  0  0  0  0  0  0  0
    2.2250   15.7800   -0.2830 C   0  0  1  0  0  0  0  0  0  0  0  0
    0.8740   16.5090   -0.0570 C   0  0  0  0  0  0  0  0  0  0  0  0
   -0.2150   15.6580   -0.7600 C   0  0  0  0  0  0  0  0  0  0  0  0
    0.4830   14.3150   -1.0770 C   0  0  1  0  0  0  0  0  0  0  0  0
    0.4280   13.5090    0.2590 C   0  0  0  0  0  0  0  0  0  0  0  0
   -0.1060   13.4950   -2.2710 C   0  0  2  0  0  0  0  0  0  0  0  0
   -1.5600   13.0270   -2.0860 C   0  0  0  0  0  0  0  0  0  0  0  0
   -1.7230   11.6860   -1.4510 C   0  0  0  0  0  0  0  0  0  0  0  0
   -0.7500   10.7670   -1.3030 C   0  0  0  0  0  0  0  0  0  0  0  0
    0.6480   10.9990   -1.8890 C   0  0  1  0  0  0  0  0  0  0  0  0
    1.1180    9.7210   -2.6310 C   0  0  0  0  0  0  0  0  0  0  0  0
    1.0540    8.4760   -1.7500 C   0  0  0  0  0  0  0  0  0  0  0  0
   -0.3640    8.2460   -1.2350 C   0  0  2  0  0  0  0  0  0  0  0  0
   -1.2100    7.9170   -2.3410 O   0  0  0  0  0  0  0  0  0  0  0  0
   -0.9480    9.4720   -0.4770 C   0  0  0  0  0  0  0  0  0  0  0  0
   -0.2170    9.6430    0.8770 C   0  0  0  0  0  0  0  0  0  0  0  0
   -2.4290    9.1600   -0.1340 C   0  0  0  0  0  0  0  0  0  0  0  0
    0.8230   12.3130   -2.7660 C   0  0  1  0  0  0  0  0  0  0  0  0
    0.4230   12.0220   -4.2450 C   0  0  0  0  0  0  0  0  0  0  0  0
    2.3450   12.7180   -2.7890 C   0  0  0  0  0  0  0  0  0  0  0  0
    2.8390   13.6270   -1.6480 C   0  0  0  0  0  0  0  0  0  0  0  0
    1.9140   14.8350   -1.4700 C   0  0  2  0  0  0  0  0  0  0  0  0
    1.9660   15.6770   -2.7900 C   0  0  0  0  0  0  0  0  0  0  0  0
    4.1591   16.4952    1.5609 H   0  0  0  0  0  0  0  0  0  0  0  0
    4.8179   15.3336    0.3594 H   0  0  0  0  0  0  0  0  0  0  0  0
    5.3782   17.0403    0.3594 H   0  0  0  0  0  0  0  0  0  0  0  0
    3.7979   16.6705   -1.4655 H   0  0  0  0  0  0  0  0  0  0  0  0
    2.0103   18.1799    0.3880 H   0  0  0  0  0  0  0  0  0  0  0  0
    3.7369   18.7543    0.2100 H   0  0  0  0  0  0  0  0  0  0  0  0
    3.3588   19.6250   -1.8003 H   0  0  0  0  0  0  0  0  0  0  0  0
    2.4536   18.1524   -2.3469 H   0  0  0  0  0  0  0  0  0  0  0  0
    1.7871   20.6219   -1.4687 H   0  0  0  0  0  0  0  0  0  0  0  0
   -0.1190   17.0600   -2.2285 H   0  0  0  0  0  0  0  0  0  0  0  0
   -0.9807   17.9322   -3.5413 H   0  0  0  0  0  0  0  0  0  0  0  0
    0.8140   17.8554   -3.5413 H   0  0  0  0  0  0  0  0  0  0  0  0
   -1.5010   20.5656   -1.4118 H   0  0  0  0  0  0  0  0  0  0  0  0
   -0.6870   21.0339   -2.9431 H   0  0  0  0  0  0  0  0  0  0  0  0
   -1.9145   19.7224   -2.9431 H   0  0  0  0  0  0  0  0  0  0  0  0
    2.5863   15.1964    0.5766 H   0  0  0  0  0  0  0  0  0  0  0  0
    0.6596   16.5849    1.0192 H   0  0  0  0  0  0  0  0  0  0  0  0
    0.9025   17.5302   -0.4649 H   0  0  0  0  0  0  0  0  0  0  0  0
   -1.0753   15.5004   -0.0929 H   0  0  0  0  0  0  0  0  0  0  0  0
   -0.6077   16.1473   -1.6635 H   0  0  0  0  0  0  0  0  0  0  0  0
    0.4755   14.2051    1.1094 H   0  0  0  0  0  0  0  0  0  0  0  0
   -0.5112   12.9382    0.3044 H   0  0  0  0  0  0  0  0  0  0  0  0
    1.2809   12.8159    0.3044 H   0  0  0  0  0  0  0  0  0  0  0  0
   -0.1324   14.2404   -3.0795 H   0  0  0  0  0  0  0  0  0  0  0  0
   -2.0773   13.7661   -1.4566 H   0  0  0  0  0  0  0  0  0  0  0  0
   -1.9816   12.9374   -3.0980 H   0  0  0  0  0  0  0  0  0  0  0  0
   -2.7225   11.4266   -1.0719 H   0  0  0  0  0  0  0  0  0  0  0  0
    1.3078   11.1958   -1.0311 H   0  0  0  0  0  0  0  0  0  0  0  0
    0.4733    9.5655   -3.5086 H   0  0  0  0  0  0  0  0  0  0  0  0
    2.1682    9.8708   -2.9218 H   0  0  0  0  0  0  0  0  0  0  0  0
    1.3698    7.6018   -2.3383 H   0  0  0  0  0  0  0  0  0  0  0  0
    1.7220    8.6205   -0.8881 H   0  0  0  0  0  0  0  0  0  0  0  0
   -0.3202    7.4203   -0.5095 H   0  0  0  0  0  0  0  0  0  0  0  0
   -1.0450    8.5710   -3.0420 H   0  0  0  0  0  0  0  0  0  0  0  0
   -0.9270    9.4769    1.7006 H   0  0  0  0  0  0  0  0  0  0  0  0
    0.6023    8.9123    0.9462 H   0  0  0  0  0  0  0  0  0  0  0  0
    0.1931   10.6613    0.9462 H   0  0  0  0  0  0  0  0  0  0  0  0
   -2.5546    9.1335    0.9585 H   0  0  0  0  0  0  0  0  0  0  0  0
   -3.0762    9.9415   -0.5587 H   0  0  0  0  0  0  0  0  0  0  0  0
   -2.7059    8.1838   -0.5587 H   0  0  0  0  0  0  0  0  0  0  0  0
   -0.4664   11.3750   -4.2638 H   0  0  0  0  0  0  0  0  0  0  0  0
    0.1983   12.9692   -4.7572 H   0  0  0  0  0  0  0  0  0  0  0  0
    1.2550   11.5166   -4.7572 H   0  0  0  0  0  0  0  0  0  0  0  0
    2.9365   11.7912   -2.7559 H   0  0  0  0  0  0  0  0  0  0  0  0
    2.4708   13.3127   -3.7058 H   0  0  0  0  0  0  0  0  0  0  0  0
    2.8612   13.0497   -0.7119 H   0  0  0  0  0  0  0  0  0  0  0  0
    3.8461   13.9905   -1.9001 H   0  0  0  0  0  0  0  0  0  0  0  0
    2.0320   16.7463   -2.5405 H   0  0  0  0  0  0  0  0  0  0  0  0
    2.8477   15.3826   -3.3782 H   0  0  0  0  0  0  0  0  0  0  0  0
    1.0548   15.4933   -3.3782 H   0  0  0  0  0  0  0  0  0  0  0  0
  1  2  1  0
  2  3  1  0
  3  4  1  0
  4  5  1  0
  5  6  1  0
  6  7  1  0
  7  8  1  0
  7  9  1  0
  2 10  1  0
 10 11  1  0
 11 12  1  0
 12 13  1  0
 13 14  1  1
 13 15  1  0
 15 16  1  0
 16 17  1  0
 17 18  2  0
 18 19  1  0
 19 20  1  0
 20 21  1  0
 21 22  1  0
 22 23  1  0
 22 24  1  0
 24 25  1  0
 24 26  1  0
 19 27  1  0
 27 28  1  6
 27 29  1  0
 29 30  1  0
 30 31  1  0
 31 32  1  6
  7  5  1  0
 31 10  1  0
 31 13  1  0
 27 15  1  0
 24 18  1  0
  1 33  1  0
  1 34  1  0
  1 35  1  0
  2 36  1  6
  3 37  1  0
  3 38  1  0
  4 39  1  0
  4 40  1  0
  5 41  1  1
  8 42  1  0
  8 43  1  0
  8 44  1  0
  9 45  1  0
  9 46  1  0
  9 47  1  0
 10 48  1  1
 11 49  1  0
 11 50  1  0
 12 51  1  0
 12 52  1  0
 14 53  1  0
 14 54  1  0
 14 55  1  0
 15 56  1  6
 16 57  1  0
 16 58  1  0
 17 59  1  0
 19 60  1  1
 20 61  1  0
 20 62  1  0
 21 63  1  0
 21 64  1  0
 22 65  1  1
 23 66  1  0
 25 67  1  0
 25 68  1  0
 25 69  1  0
 26 70  1  0
 26 71  1  0
 26 72  1  0
 28 73  1  0
 28 74  1  0
 28 75  1  0
 29 76  1  0
 29 77  1  0
 30 78  1  0
 30 79  1  0
 32 80  1  0
 32 81  1  0
 32 82  1  0
M  END
>  <meeko>  (10) 
{"is_sidechain": [false], "intermolecular_energy": 2.731, "internal_energy": -0.839}

$$$$
EPH_relaxed_0001_pdb2pqr_Repair_276_r2_0001_out
     RDKit          3D

 82 86  0  0  0  0  0  0  0  0999 V2000
   -3.7380    7.2230   -3.4120 C   0  0  0  0  0  0  0  0  0  0  0  0
   -3.7590    7.3000   -1.8830 C   0  0  2  0  0  0  0  0  0  0  0  0
   -5.1750    7.0840   -1.3100 C   0  0  0  0  0  0  0  0  0  0  0  0
   -6.2900    7.2530   -2.3450 C   0  0  0  0  0  0  0  0  0  0  0  0
   -7.6220    7.4720   -1.6950 C   0  0  2  0  0  0  0  0  0  0  0  0
   -8.2170    6.2930   -1.1370 O   0  0  0  0  0  0  0  0  0  0  0  0
   -8.9200    6.9000   -2.2330 C   0  0  0  0  0  0  0  0  0  0  0  0
   -8.9500    6.0650   -3.4740 C   0  0  0  0  0  0  0  0  0  0  0  0
  -10.2080    7.5520   -1.8360 C   0  0  0  0  0  0  0  0  0  0  0  0
   -3.2110    8.6460   -1.4220 C   0  0  1  0  0  0  0  0  0  0  0  0
   -3.8290    9.1140   -0.0780 C   0  0  0  0  0  0  0  0  0  0  0  0
   -2.7110    9.8660    0.6900 C   0  0  0  0  0  0  0  0  0  0  0  0
   -1.6010   10.0940   -0.3620 C   0  0  1  0  0  0  0  0  0  0  0  0
   -2.0640   11.3480   -1.1690 C   0  0  0  0  0  0  0  0  0  0  0  0
   -0.1490   10.2680    0.1920 C   0  0  2  0  0  0  0  0  0  0  0  0
    0.0600   11.4920    1.1010 C   0  0  0  0  0  0  0  0  0  0  0  0
    0.4790   12.7420    0.4010 C   0  0  0  0  0  0  0  0  0  0  0  0
    0.9530   12.8130   -0.8570 C   0  0  0  0  0  0  0  0  0  0  0  0
    1.2020   11.5420   -1.6780 C   0  0  1  0  0  0  0  0  0  0  0  0
    2.5940   11.6280   -2.3580 C   0  0  0  0  0  0  0  0  0  0  0  0
    2.7630   12.8990   -3.1850 C   0  0  0  0  0  0  0  0  0  0  0  0
    2.5650   14.1420   -2.3210 C   0  0  2  0  0  0  0  0  0  0  0  0
    3.6320   14.2170   -1.3710 O   0  0  0  0  0  0  0  0  0  0  0  0
    1.2000   14.1610   -1.5780 C   0  0  0  0  0  0  0  0  0  0  0  0
    0.0560   14.3840   -2.5970 C   0  0  0  0  0  0  0  0  0  0  0  0
    1.1880   15.3950   -0.6350 C   0  0  0  0  0  0  0  0  0  0  0  0
    0.9820   10.1670   -0.9110 C   0  0  1  0  0  0  0  0  0  0  0  0
    2.2910    9.7560   -0.1690 C   0  0  0  0  0  0  0  0  0  0  0  0
    0.6920    9.0320   -1.9630 C   0  0  0  0  0  0  0  0  0  0  0  0
   -0.7770    8.8300   -2.3800 C   0  0  0  0  0  0  0  0  0  0  0  0
   -1.6880    8.7380   -1.1530 C   0  0  2  0  0  0  0  0  0  0  0  0
   -1.2600    7.4730   -0.3330 C   0  0  0  0  0  0  0  0  0  0  0  0
   -3.4605    6.2054   -3.7241 H   0  0  0  0  0  0  0  0  0  0  0  0
   -4.7357    7.4678   -3.8052 H   0  0  0  0  0  0  0  0  0  0  0  0
   -3.0027    7.9405   -3.8052 H   0  0  0  0  0  0  0  0  0  0  0  0
   -3.1209    6.4888   -1.5025 H   0  0  0  0  0  0  0  0  0  0  0  0
   -5.2324    6.0644   -0.9011 H   0  0  0  0  0  0  0  0  0  0  0  0
   -5.3313    7.8543   -0.5404 H   0  0  0  0  0  0  0  0  0  0  0  0
   -6.0572    8.1196   -2.9813 H   0  0  0  0  0  0  0  0  0  0  0  0
   -6.3472    6.3301   -2.9407 H   0  0  0  0  0  0  0  0  0  0  0  0
   -7.3334    8.4896   -1.3930 H   0  0  0  0  0  0  0  0  0  0  0  0
   -8.9882    5.0006   -3.1989 H   0  0  0  0  0  0  0  0  0  0  0  0
   -9.8395    6.3225   -4.0678 H   0  0  0  0  0  0  0  0  0  0  0  0
   -8.0443    6.2580   -4.0678 H   0  0  0  0  0  0  0  0  0  0  0  0
  -10.2781    7.5875   -0.7388 H   0  0  0  0  0  0  0  0  0  0  0  0
  -10.2405    8.5751   -2.2388 H   0  0  0  0  0  0  0  0  0  0  0  0
  -11.0517    6.9724   -2.2388 H   0  0  0  0  0  0  0  0  0  0  0  0
   -3.4771    9.2625   -2.2933 H   0  0  0  0  0  0  0  0  0  0  0  0
   -4.6785    9.7871   -0.2656 H   0  0  0  0  0  0  0  0  0  0  0  0
   -4.2021    8.2587    0.5045 H   0  0  0  0  0  0  0  0  0  0  0  0
   -3.0834   10.8264    1.0760 H   0  0  0  0  0  0  0  0  0  0  0  0
   -2.3501    9.3000    1.5614 H   0  0  0  0  0  0  0  0  0  0  0  0
   -2.3584   12.1453   -0.4707 H   0  0  0  0  0  0  0  0  0  0  0  0
   -1.2373   11.7021   -1.8024 H   0  0  0  0  0  0  0  0  0  0  0  0
   -2.9224   11.0800   -1.8024 H   0  0  0  0  0  0  0  0  0  0  0  0
   -0.0382    9.3892    0.8442 H   0  0  0  0  0  0  0  0  0  0  0  0
   -0.8879   11.6950    1.6209 H   0  0  0  0  0  0  0  0  0  0  0  0
    0.8867   11.2306    1.7780 H   0  0  0  0  0  0  0  0  0  0  0  0
    0.3932   13.6852    0.9605 H   0  0  0  0  0  0  0  0  0  0  0  0
    0.4134   11.5164   -2.4444 H   0  0  0  0  0  0  0  0  0  0  0  0
    3.3694   11.6090   -1.5780 H   0  0  0  0  0  0  0  0  0  0  0  0
    2.6859   10.7704   -3.0407 H   0  0  0  0  0  0  0  0  0  0  0  0
    3.7753   12.9169   -3.6150 H   0  0  0  0  0  0  0  0  0  0  0  0
    2.0062   12.9019   -3.9833 H   0  0  0  0  0  0  0  0  0  0  0  0
    2.5682   15.0141   -2.9914 H   0  0  0  0  0  0  0  0  0  0  0  0
    4.4680   14.1210   -1.8580 H   0  0  0  0  0  0  0  0  0  0  0  0
   -0.8849   14.5674   -2.0576 H   0  0  0  0  0  0  0  0  0  0  0  0
    0.2919   15.2531   -3.2287 H   0  0  0  0  0  0  0  0  0  0  0  0
   -0.0518   13.4900   -3.2287 H   0  0  0  0  0  0  0  0  0  0  0  0
    1.1913   15.0567    0.4117 H   0  0  0  0  0  0  0  0  0  0  0  0
    2.0802   16.0099   -0.8244 H   0  0  0  0  0  0  0  0  0  0  0  0
    0.2840   15.9924   -0.8244 H   0  0  0  0  0  0  0  0  0  0  0  0
    2.1280    9.8072    0.9177 H   0  0  0  0  0  0  0  0  0  0  0  0
    2.5650    8.7286   -0.4507 H   0  0  0  0  0  0  0  0  0  0  0  0
    3.1031   10.4424   -0.4507 H   0  0  0  0  0  0  0  0  0  0  0  0
    1.2666    9.2656   -2.8714 H   0  0  0  0  0  0  0  0  0  0  0  0
    0.9805    8.0957   -1.4629 H   0  0  0  0  0  0  0  0  0  0  0  0
   -1.0948    9.6805   -3.0010 H   0  0  0  0  0  0  0  0  0  0  0  0
   -0.8546    7.8896   -2.9454 H   0  0  0  0  0  0  0  0  0  0  0  0
   -1.3338    7.6911    0.7426 H   0  0  0  0  0  0  0  0  0  0  0  0
   -1.9237    6.6321   -0.5830 H   0  0  0  0  0  0  0  0  0  0  0  0
   -0.2221    7.2078   -0.5830 H   0  0  0  0  0  0  0  0  0  0  0  0
  1  2  1  0
  2  3  1  0
  3  4  1  0
  4  5  1  0
  5  6  1  0
  6  7  1  0
  7  8  1  0
  7  9  1  0
  2 10  1  0
 10 11  1  0
 11 12  1  0
 12 13  1  0
 13 14  1  6
 13 15  1  0
 15 16  1  0
 16 17  1  0
 17 18  2  0
 18 19  1  0
 19 20  1  0
 20 21  1  0
 21 22  1  0
 22 23  1  0
 22 24  1  0
 24 25  1  0
 24 26  1  0
 19 27  1  0
 27 28  1  1
 27 29  1  0
 29 30  1  0
 30 31  1  0
 31 32  1  1
  7  5  1  0
 31 10  1  0
 31 13  1  0
 27 15  1  0
 24 18  1  0
  1 33  1  0
  1 34  1  0
  1 35  1  0
  2 36  1  1
  3 37  1  0
  3 38  1  0
  4 39  1  0
  4 40  1  0
  5 41  1  1
  8 42  1  0
  8 43  1  0
  8 44  1  0
  9 45  1  0
  9 46  1  0
  9 47  1  0
 10 48  1  6
 11 49  1  0
 11 50  1  0
 12 51  1  0
 12 52  1  0
 14 53  1  0
 14 54  1  0
 14 55  1  0
 15 56  1  1
 16 57  1  0
 16 58  1  0
 17 59  1  0
 19 60  1  6
 20 61  1  0
 20 62  1  0
 21 63  1  0
 21 64  1  0
 22 65  1  6
 23 66  1  0
 25 67  1  0
 25 68  1  0
 25 69  1  0
 26 70  1  0
 26 71  1  0
 26 72  1  0
 28 73  1  0
 28 74  1  0
 28 75  1  0
 29 76  1  0
 29 77  1  0
 30 78  1  0
 30 79  1  0
 32 80  1  0
 32 81  1  0
 32 82  1  0
M  END
>  <meeko>  (11) 
{"is_sidechain": [false], "intermolecular_energy": 2.731, "internal_energy": -0.839}

$$$$
EPH_relaxed_0001_pdb2pqr_Repair_276_r2_0001_out
     RDKit          3D

 82 86  0  0  0  0  0  0  0  0999 V2000
   -0.9300   16.3700   -5.8650 C   0  0  0  0  0  0  0  0  0  0  0  0
    0.1730   15.6670   -6.6610 C   0  0  2  0  0  0  0  0  0  0  0  0
   -0.2200   15.4570   -8.1370 C   0  0  0  0  0  0  0  0  0  0  0  0
    0.4140   16.4700   -9.0940 C   0  0  0  0  0  0  0  0  0  0  0  0
    1.8230   16.0960   -9.4430 C   0  0  2  0  0  0  0  0  0  0  0  0
    2.3080   16.6670  -10.6650 O   0  0  0  0  0  0  0  0  0  0  0  0
    2.1880   15.2360  -10.6380 C   0  0  0  0  0  0  0  0  0  0  0  0
    1.1400   14.6950  -11.5600 C   0  0  0  0  0  0  0  0  0  0  0  0
    3.5030   14.5200  -10.6290 C   0  0  0  0  0  0  0  0  0  0  0  0
    0.5070   14.3270   -6.0160 C   0  0  1  0  0  0  0  0  0  0  0  0
    1.7300   13.6350   -6.6740 C   0  0  0  0  0  0  0  0  0  0  0  0
    2.4860   12.8920   -5.5430 C   0  0  0  0  0  0  0  0  0  0  0  0
    1.5060   12.9030   -4.3460 C   0  0  1  0  0  0  0  0  0  0  0  0
    0.5170   11.7280   -4.6280 C   0  0  0  0  0  0  0  0  0  0  0  0
    2.1500   12.7880   -2.9260 C   0  0  2  0  0  0  0  0  0  0  0  0
    2.9150   11.4800   -2.6600 C   0  0  0  0  0  0  0  0  0  0  0  0
    2.1030   10.3740   -2.0730 C   0  0  0  0  0  0  0  0  0  0  0  0
    0.8880   10.5090   -1.5090 C   0  0  0  0  0  0  0  0  0  0  0  0
    0.2520   11.8940   -1.3320 C   0  0  1  0  0  0  0  0  0  0  0  0
   -0.3200   12.0210    0.1050 C   0  0  0  0  0  0  0  0  0  0  0  0
   -1.2800   10.8880    0.4540 C   0  0  0  0  0  0  0  0  0  0  0  0
   -0.5950    9.5310    0.3220 C   0  0  2  0  0  0  0  0  0  0  0  0
    0.4220    9.4290    1.3230 O   0  0  0  0  0  0  0  0  0  0  0  0
    0.0290    9.2940   -1.0820 C   0  0  0  0  0  0  0  0  0  0  0  0
   -1.0980    9.1040   -2.1270 C   0  0  0  0  0  0  0  0  0  0  0  0
    0.8090    7.9520   -1.0370 C   0  0  0  0  0  0  0  0  0  0  0  0
    1.1620   13.1320   -1.7380 C   0  0  1  0  0  0  0  0  0  0  0  0
    2.0510   13.5580   -0.5300 C   0  0  0  0  0  0  0  0  0  0  0  0
    0.2380   14.3640   -2.0650 C   0  0  0  0  0  0  0  0  0  0  0  0
   -0.2680   14.4860   -3.5150 C   0  0  0  0  0  0  0  0  0  0  0  0
    0.8850   14.3370   -4.5130 C   0  0  2  0  0  0  0  0  0  0  0  0
    1.8850   15.5180   -4.2690 C   0  0  0  0  0  0  0  0  0  0  0  0
   -0.7395   16.2486   -4.7885 H   0  0  0  0  0  0  0  0  0  0  0  0
   -0.9387   17.4406   -6.1173 H   0  0  0  0  0  0  0  0  0  0  0  0
   -1.9042   15.9258   -6.1173 H   0  0  0  0  0  0  0  0  0  0  0  0
    1.0590   16.3187   -6.6443 H   0  0  0  0  0  0  0  0  0  0  0  0
    0.0963   14.4480   -8.4402 H   0  0  0  0  0  0  0  0  0  0  0  0
   -1.3097   15.5930   -8.2015 H   0  0  0  0  0  0  0  0  0  0  0  0
   -0.1831   16.5106  -10.0169 H   0  0  0  0  0  0  0  0  0  0  0  0
    0.4330   17.4494   -8.5935 H   0  0  0  0  0  0  0  0  0  0  0  0
    2.0958   16.0349   -8.3791 H   0  0  0  0  0  0  0  0  0  0  0  0
    0.3157   14.2695  -10.9688 H   0  0  0  0  0  0  0  0  0  0  0  0
    0.7551   15.5071  -12.1944 H   0  0  0  0  0  0  0  0  0  0  0  0
    1.5791   13.9109  -12.1944 H   0  0  0  0  0  0  0  0  0  0  0  0
    3.8195   14.3476   -9.5897 H   0  0  0  0  0  0  0  0  0  0  0  0
    3.3983   13.5544  -11.1453 H   0  0  0  0  0  0  0  0  0  0  0  0
    4.2572   15.1320  -11.1453 H   0  0  0  0  0  0  0  0  0  0  0  0
   -0.4522   13.8083   -6.1606 H   0  0  0  0  0  0  0  0  0  0  0  0
    1.3941   12.9192   -7.4387 H   0  0  0  0  0  0  0  0  0  0  0  0
    2.3819   14.3710   -7.1673 H   0  0  0  0  0  0  0  0  0  0  0  0
    2.7192   11.8601   -5.8445 H   0  0  0  0  0  0  0  0  0  0  0  0
    3.4468   13.3692   -5.2999 H   0  0  0  0  0  0  0  0  0  0  0  0
    0.1642   11.3088   -3.6742 H   0  0  0  0  0  0  0  0  0  0  0  0
   -0.3421   12.1021   -5.2042 H   0  0  0  0  0  0  0  0  0  0  0  0
    1.0322   10.9454   -5.2042 H   0  0  0  0  0  0  0  0  0  0  0  0
    2.9130   13.5801   -2.9474 H   0  0  0  0  0  0  0  0  0  0  0  0
    3.3281   11.1275   -3.6166 H   0  0  0  0  0  0  0  0  0  0  0  0
    3.6830   11.7238   -1.9112 H   0  0  0  0  0  0  0  0  0  0  0  0
    2.5339    9.3624   -2.1038 H   0  0  0  0  0  0  0  0  0  0  0  0
   -0.5656   11.9493   -2.0658 H   0  0  0  0  0  0  0  0  0  0  0  0
    0.5160   12.0078    0.8199 H   0  0  0  0  0  0  0  0  0  0  0  0
   -0.8830   12.9645    0.1584 H   0  0  0  0  0  0  0  0  0  0  0  0
   -1.6269   11.0166    1.4899 H   0  0  0  0  0  0  0  0  0  0  0  0
   -2.1297   10.9211   -0.2438 H   0  0  0  0  0  0  0  0  0  0  0  0
   -1.3655    8.7578    0.4578 H   0  0  0  0  0  0  0  0  0  0  0  0
    0.2770   10.1450    1.9650 H   0  0  0  0  0  0  0  0  0  0  0  0
   -2.0549    8.9427   -1.6090 H   0  0  0  0  0  0  0  0  0  0  0  0
   -1.1691   10.0028   -2.7571 H   0  0  0  0  0  0  0  0  0  0  0  0
   -0.8705    8.2315   -2.7571 H   0  0  0  0  0  0  0  0  0  0  0  0
    0.9781    7.6611    0.0103 H   0  0  0  0  0  0  0  0  0  0  0  0
    0.2242    7.1708   -1.5447 H   0  0  0  0  0  0  0  0  0  0  0  0
    1.7772    8.0735   -1.5447 H   0  0  0  0  0  0  0  0  0  0  0  0
    1.5355   13.3110    0.4098 H   0  0  0  0  0  0  0  0  0  0  0  0
    3.0105   13.0218   -0.5738 H   0  0  0  0  0  0  0  0  0  0  0  0
    2.2342   14.6417   -0.5738 H   0  0  0  0  0  0  0  0  0  0  0  0
   -0.6429   14.3030   -1.4090 H   0  0  0  0  0  0  0  0  0  0  0  0
    0.8708   15.2494   -1.9050 H   0  0  0  0  0  0  0  0  0  0  0  0
   -1.0116   13.6978   -3.7041 H   0  0  0  0  0  0  0  0  0  0  0  0
   -0.7190   15.4806   -3.6464 H   0  0  0  0  0  0  0  0  0  0  0  0
    2.0147   15.6711   -3.1875 H   0  0  0  0  0  0  0  0  0  0  0  0
    2.8567   15.2757   -4.7241 H   0  0  0  0  0  0  0  0  0  0  0  0
    1.4858   16.4364   -4.7241 H   0  0  0  0  0  0  0  0  0  0  0  0
  1  2  1  0
  2  3  1  0
  3  4  1  0
  4  5  1  0
  5  6  1  0
  6  7  1  0
  7  8  1  0
  7  9  1  0
  2 10  1  0
 10 11  1  0
 11 12  1  0
 12 13  1  0
 13 14  1  6
 13 15  1  0
 15 16  1  0
 16 17  1  0
 17 18  2  0
 18 19  1  0
 19 20  1  0
 20 21  1  0
 21 22  1  0
 22 23  1  0
 22 24  1  0
 24 25  1  0
 24 26  1  0
 19 27  1  0
 27 28  1  1
 27 29  1  0
 29 30  1  0
 30 31  1  0
 31 32  1  6
  7  5  1  0
 31 10  1  0
 31 13  1  0
 27 15  1  0
 24 18  1  0
  1 33  1  0
  1 34  1  0
  1 35  1  0
  2 36  1  6
  3 37  1  0
  3 38  1  0
  4 39  1  0
  4 40  1  0
  5 41  1  1
  8 42  1  0
  8 43  1  0
  8 44  1  0
  9 45  1  0
  9 46  1  0
  9 47  1  0
 10 48  1  1
 11 49  1  0
 11 50  1  0
 12 51  1  0
 12 52  1  0
 14 53  1  0
 14 54  1  0
 14 55  1  0
 15 56  1  6
 16 57  1  0
 16 58  1  0
 17 59  1  0
 19 60  1  6
 20 61  1  0
 20 62  1  0
 21 63  1  0
 21 64  1  0
 22 65  1  1
 23 66  1  0
 25 67  1  0
 25 68  1  0
 25 69  1  0
 26 70  1  0
 26 71  1  0
 26 72  1  0
 28 73  1  0
 28 74  1  0
 28 75  1  0
 29 76  1  0
 29 77  1  0
 30 78  1  0
 30 79  1  0
 32 80  1  0
 32 81  1  0
 32 82  1  0
M  END
>  <meeko>  (12) 
{"is_sidechain": [false], "intermolecular_energy": 2.731, "internal_energy": -0.839}

$$$$
EPH_relaxed_0001_pdb2pqr_Repair_276_r2_0001_out
     RDKit          3D

 82 86  0  0  0  0  0  0  0  0999 V2000
    0.0550    9.3700   -2.5120 C   0  0  0  0  0  0  0  0  0  0  0  0
    1.1060   10.3960   -2.9440 C   0  0  2  0  0  0  0  0  0  0  0  0
    2.5130    9.7760   -3.0520 C   0  0  0  0  0  0  0  0  0  0  0  0
    3.4560   10.5470   -3.9790 C   0  0  0  0  0  0  0  0  0  0  0  0
    4.8250   10.6870   -3.3860 C   0  0  2  0  0  0  0  0  0  0  0  0
    5.4970   11.9110   -3.7120 O   0  0  0  0  0  0  0  0  0  0  0  0
    6.0970   10.7060   -4.2140 C   0  0  0  0  0  0  0  0  0  0  0  0
    6.0600   10.5830   -5.7050 C   0  0  0  0  0  0  0  0  0  0  0  0
    7.3900   10.3530   -3.5460 C   0  0  0  0  0  0  0  0  0  0  0  0
    1.1240   11.5640   -1.9650 C   0  0  1  0  0  0  0  0  0  0  0  0
    2.1890   11.3910   -0.8490 C   0  0  0  0  0  0  0  0  0  0  0  0
    2.7340   12.8060   -0.5270 C   0  0  0  0  0  0  0  0  0  0  0  0
    1.7440   13.7720   -1.2190 C   0  0  1  0  0  0  0  0  0  0  0  0
    0.5350   13.8780   -0.2380 C   0  0  0  0  0  0  0  0  0  0  0  0
    2.3050   15.1820   -1.5980 C   0  0  2  0  0  0  0  0  0  0  0  0
    2.7640   16.0430   -0.4080 C   0  0  0  0  0  0  0  0  0  0  0  0
    1.7150   16.9280    0.1800 C   0  0  0  0  0  0  0  0  0  0  0  0
    0.5420   17.2420   -0.4000 C   0  0  0  0  0  0  0  0  0  0  0  0
    0.2130   16.7680   -1.8210 C   0  0  1  0  0  0  0  0  0  0  0  0
   -0.3610   17.9510   -2.6430 C   0  0  0  0  0  0  0  0  0  0  0  0
   -1.5520   18.6150   -1.9590 C   0  0  0  0  0  0  0  0  0  0  0  0
   -1.1710   19.1260   -0.5720 C   0  0  2  0  0  0  0  0  0  0  0  0
   -0.2300   20.1940   -0.7170 O   0  0  0  0  0  0  0  0  0  0  0  0
   -0.5710   18.0220    0.3440 C   0  0  0  0  0  0  0  0  0  0  0  0
   -1.6810   17.0200    0.7460 C   0  0  0  0  0  0  0  0  0  0  0  0
   -0.0990   18.6980    1.6590 C   0  0  0  0  0  0  0  0  0  0  0  0
    1.3800   16.0040   -2.5840 C   0  0  1  0  0  0  0  0  0  0  0  0
    2.3030   17.0300   -3.3090 C   0  0  0  0  0  0  0  0  0  0  0  0
    0.7520   15.0990   -3.7090 C   0  0  0  0  0  0  0  0  0  0  0  0
    0.3270   13.6760   -3.3000 C   0  0  0  0  0  0  0  0  0  0  0  0
    1.4500   12.9670   -2.5370 C   0  0  2  0  0  0  0  0  0  0  0  0
    2.6730   12.8260   -3.5060 C   0  0  0  0  0  0  0  0  0  0  0  0
    0.0127    9.3287   -1.4136 H   0  0  0  0  0  0  0  0  0  0  0  0
   -0.9288    9.6647   -2.9060 H   0  0  0  0  0  0  0  0  0  0  0  0
    0.3260    8.3794   -2.9060 H   0  0  0  0  0  0  0  0  0  0  0  0
    0.8268   10.7548   -3.9457 H   0  0  0  0  0  0  0  0  0  0  0  0
    2.9590    9.7498   -2.0468 H   0  0  0  0  0  0  0  0  0  0  0  0
    2.3893    8.7715   -3.4828 H   0  0  0  0  0  0  0  0  0  0  0  0
    3.5351   10.0085   -4.9349 H   0  0  0  0  0  0  0  0  0  0  0  0
    3.0421   11.5553   -4.1273 H   0  0  0  0  0  0  0  0  0  0  0  0
    4.5278   10.1028   -2.5026 H   0  0  0  0  0  0  0  0  0  0  0  0
    5.7533    9.5634   -5.9813 H   0  0  0  0  0  0  0  0  0  0  0  0
    5.3397   11.3063   -6.1148 H   0  0  0  0  0  0  0  0  0  0  0  0
    7.0598   10.7889   -6.1148 H   0  0  0  0  0  0  0  0  0  0  0  0
    7.2603   10.3884   -2.4542 H   0  0  0  0  0  0  0  0  0  0  0  0
    7.6932    9.3392   -3.8465 H   0  0  0  0  0  0  0  0  0  0  0  0
    8.1663   11.0721   -3.8465 H   0  0  0  0  0  0  0  0  0  0  0  0
    0.0801   11.5316   -1.6199 H   0  0  0  0  0  0  0  0  0  0  0  0
    1.7298   10.9490    0.0475 H   0  0  0  0  0  0  0  0  0  0  0  0
    2.9981   10.7213   -1.1759 H   0  0  0  0  0  0  0  0  0  0  0  0
    2.7495   12.9783    0.5593 H   0  0  0  0  0  0  0  0  0  0  0  0
    3.7671   12.9451   -0.8783 H   0  0  0  0  0  0  0  0  0  0  0  0
    0.9004   13.8460    0.7990 H   0  0  0  0  0  0  0  0  0  0  0  0
    0.0046   14.8261   -0.4108 H   0  0  0  0  0  0  0  0  0  0  0  0
   -0.1522   13.0367   -0.4108 H   0  0  0  0  0  0  0  0  0  0  0  0
    3.2198   14.9302   -2.1546 H   0  0  0  0  0  0  0  0  0  0  0  0
    3.1212   15.3671    0.3830 H   0  0  0  0  0  0  0  0  0  0  0  0
    3.5435   16.7131   -0.7995 H   0  0  0  0  0  0  0  0  0  0  0  0
    1.9182   17.3598    1.1711 H   0  0  0  0  0  0  0  0  0  0  0  0
   -0.5522   15.9855   -1.7106 H   0  0  0  0  0  0  0  0  0  0  0  0
    0.4308   18.7022   -2.7801 H   0  0  0  0  0  0  0  0  0  0  0  0
   -0.7098   17.5502   -3.6062 H   0  0  0  0  0  0  0  0  0  0  0  0
   -1.8935   19.4614   -2.5730 H   0  0  0  0  0  0  0  0  0  0  0  0
   -2.3538   17.8699   -1.8500 H   0  0  0  0  0  0  0  0  0  0  0  0
   -2.0934   19.4726   -0.0830 H   0  0  0  0  0  0  0  0  0  0  0  0
    0.0150   20.2450   -1.6560 H   0  0  0  0  0  0  0  0  0  0  0  0
   -1.7440   16.9631    1.8427 H   0  0  0  0  0  0  0  0  0  0  0  0
   -2.6456   17.3592    0.3404 H   0  0  0  0  0  0  0  0  0  0  0  0
   -1.4420   16.0258    0.3404 H   0  0  0  0  0  0  0  0  0  0  0  0
   -0.4905   18.1373    2.5206 H   0  0  0  0  0  0  0  0  0  0  0  0
    1.0004   18.7037    1.6942 H   0  0  0  0  0  0  0  0  0  0  0  0
   -0.4724   19.7321    1.6942 H   0  0  0  0  0  0  0  0  0  0  0  0
    2.8427   17.6299   -2.5614 H   0  0  0  0  0  0  0  0  0  0  0  0
    3.0265   16.4914   -3.9386 H   0  0  0  0  0  0  0  0  0  0  0  0
    1.6911   17.6927   -3.9386 H   0  0  0  0  0  0  0  0  0  0  0  0
   -0.1405   15.6156   -4.0919 H   0  0  0  0  0  0  0  0  0  0  0  0
    1.5557   14.9582   -4.4468 H   0  0  0  0  0  0  0  0  0  0  0  0
   -0.5628   13.7372   -2.6561 H   0  0  0  0  0  0  0  0  0  0  0  0
    0.1041   13.1009   -4.2108 H   0  0  0  0  0  0  0  0  0  0  0  0
    3.5964   12.7195   -2.9178 H   0  0  0  0  0  0  0  0  0  0  0  0
    2.5378   11.9375   -4.1403 H   0  0  0  0  0  0  0  0  0  0  0  0
    2.7435   13.7220   -4.1403 H   0  0  0  0  0  0  0  0  0  0  0  0
  1  2  1  0
  2  3  1  0
  3  4  1  0
  4  5  1  0
  5  6  1  0
  6  7  1  0
  7  8  1  0
  7  9  1  0
  2 10  1  0
 10 11  1  0
 11 12  1  0
 12 13  1  0
 13 14  1  1
 13 15  1  0
 15 16  1  0
 16 17  1  0
 17 18  2  0
 18 19  1  0
 19 20  1  0
 20 21  1  0
 21 22  1  0
 22 23  1  0
 22 24  1  0
 24 25  1  0
 24 26  1  0
 19 27  1  0
 27 28  1  6
 27 29  1  0
 29 30  1  0
 30 31  1  0
 31 32  1  6
  7  5  1  0
 31 10  1  0
 31 13  1  0
 27 15  1  0
 24 18  1  0
  1 33  1  0
  1 34  1  0
  1 35  1  0
  2 36  1  6
  3 37  1  0
  3 38  1  0
  4 39  1  0
  4 40  1  0
  5 41  1  1
  8 42  1  0
  8 43  1  0
  8 44  1  0
  9 45  1  0
  9 46  1  0
  9 47  1  0
 10 48  1  1
 11 49  1  0
 11 50  1  0
 12 51  1  0
 12 52  1  0
 14 53  1  0
 14 54  1  0
 14 55  1  0
 15 56  1  6
 16 57  1  0
 16 58  1  0
 17 59  1  0
 19 60  1  1
 20 61  1  0
 20 62  1  0
 21 63  1  0
 21 64  1  0
 22 65  1  1
 23 66  1  0
 25 67  1  0
 25 68  1  0
 25 69  1  0
 26 70  1  0
 26 71  1  0
 26 72  1  0
 28 73  1  0
 28 74  1  0
 28 75  1  0
 29 76  1  0
 29 77  1  0
 30 78  1  0
 30 79  1  0
 32 80  1  0
 32 81  1  0
 32 82  1  0
M  END
>  <meeko>  (13) 
{"is_sidechain": [false], "intermolecular_energy": 2.731, "internal_energy": -0.839}

$$$$
EPH_relaxed_0001_pdb2pqr_Repair_276_r2_0001_out
     RDKit          3D

 82 86  0  0  0  0  0  0  0  0999 V2000
   -2.0770    7.7840   -2.1350 C   0  0  0  0  0  0  0  0  0  0  0  0
   -2.1990    8.4530   -0.7630 C   0  0  2  0  0  0  0  0  0  0  0  0
   -3.6470    8.4370   -0.2350 C   0  0  0  0  0  0  0  0  0  0  0  0
   -4.7010    8.2840   -1.3350 C   0  0  0  0  0  0  0  0  0  0  0  0
   -5.8530    7.4370   -0.8850 C   0  0  2  0  0  0  0  0  0  0  0  0
   -5.6230    6.0240   -0.9630 O   0  0  0  0  0  0  0  0  0  0  0  0
   -6.6520    6.5470   -1.8190 C   0  0  0  0  0  0  0  0  0  0  0  0
   -6.3310    6.4600   -3.2780 C   0  0  0  0  0  0  0  0  0  0  0  0
   -8.0350    6.1440   -1.4140 C   0  0  0  0  0  0  0  0  0  0  0  0
   -1.6870    9.8870   -0.8370 C   0  0  1  0  0  0  0  0  0  0  0  0
   -1.2760   10.4470    0.5500 C   0  0  0  0  0  0  0  0  0  0  0  0
   -0.0610   11.3810    0.3130 C   0  0  0  0  0  0  0  0  0  0  0  0
   -0.0210   11.5890   -1.2190 C   0  0  1  0  0  0  0  0  0  0  0  0
   -1.0870   12.6940   -1.5020 C   0  0  0  0  0  0  0  0  0  0  0  0
    1.3690   11.9570   -1.8300 C   0  0  2  0  0  0  0  0  0  0  0  0
    1.9640   13.2910   -1.3440 C   0  0  0  0  0  0  0  0  0  0  0  0
    1.6020   14.4860   -2.1610 C   0  0  0  0  0  0  0  0  0  0  0  0
    1.0690   14.4570   -3.3970 C   0  0  0  0  0  0  0  0  0  0  0  0
    0.8700   13.1280   -4.1370 C   0  0  1  0  0  0  0  0  0  0  0  0
    1.3850   13.2630   -5.5940 C   0  0  0  0  0  0  0  0  0  0  0  0
    0.7550   14.4420   -6.3300 C   0  0  0  0  0  0  0  0  0  0  0  0
    1.0250   15.7520   -5.5950 C   0  0  2  0  0  0  0  0  0  0  0  0
    2.4270   16.0320   -5.6520 O   0  0  0  0  0  0  0  0  0  0  0  0
    0.5560   15.7300   -4.1130 C   0  0  0  0  0  0  0  0  0  0  0  0
   -0.9910   15.7300   -4.0570 C   0  0  0  0  0  0  0  0  0  0  0  0
    1.0140   17.0570   -3.4480 C   0  0  0  0  0  0  0  0  0  0  0  0
    1.4370   11.8350   -3.4070 C   0  0  1  0  0  0  0  0  0  0  0  0
    2.9390   11.6330   -3.7730 C   0  0  0  0  0  0  0  0  0  0  0  0
    0.6750   10.5660   -3.9420 C   0  0  0  0  0  0  0  0  0  0  0  0
   -0.6310   10.1840   -3.2190 C   0  0  0  0  0  0  0  0  0  0  0  0
   -0.4280   10.1490   -1.7020 C   0  0  2  0  0  0  0  0  0  0  0  0
    0.6220    9.0300   -1.3850 C   0  0  0  0  0  0  0  0  0  0  0  0
   -1.8811    6.7097   -2.0030 H   0  0  0  0  0  0  0  0  0  0  0  0
   -3.0147    7.9197   -2.6938 H   0  0  0  0  0  0  0  0  0  0  0  0
   -1.2476    8.2420   -2.6938 H   0  0  0  0  0  0  0  0  0  0  0  0
   -1.5848    7.8745   -0.0572 H   0  0  0  0  0  0  0  0  0  0  0  0
   -3.7519    7.5958    0.4660 H   0  0  0  0  0  0  0  0  0  0  0  0
   -3.8243    9.4096    0.2474 H   0  0  0  0  0  0  0  0  0  0  0  0
   -5.0771    9.2806   -1.6095 H   0  0  0  0  0  0  0  0  0  0  0  0
   -4.2282    7.7901   -2.1967 H   0  0  0  0  0  0  0  0  0  0  0  0
   -6.1572    8.1983   -0.1516 H   0  0  0  0  0  0  0  0  0  0  0  0
   -5.2764    6.1742   -3.4050 H   0  0  0  0  0  0  0  0  0  0  0  0
   -6.9753    5.7041   -3.7507 H   0  0  0  0  0  0  0  0  0  0  0  0
   -6.5054    7.4378   -3.7507 H   0  0  0  0  0  0  0  0  0  0  0  0
   -8.1044    6.1238   -0.3164 H   0  0  0  0  0  0  0  0  0  0  0  0
   -8.7599    6.8683   -1.8140 H   0  0  0  0  0  0  0  0  0  0  0  0
   -8.2574    5.1437   -1.8140 H   0  0  0  0  0  0  0  0  0  0  0  0
   -2.5633   10.3723   -1.2915 H   0  0  0  0  0  0  0  0  0  0  0  0
   -2.1089   11.0136    0.9917 H   0  0  0  0  0  0  0  0  0  0  0  0
   -1.0193    9.6333    1.2443 H   0  0  0  0  0  0  0  0  0  0  0  0
   -0.2022   12.3408    0.8315 H   0  0  0  0  0  0  0  0  0  0  0  0
    0.8755   10.9532    0.7002 H   0  0  0  0  0  0  0  0  0  0  0  0
   -1.4679   13.0888   -0.5486 H   0  0  0  0  0  0  0  0  0  0  0  0
   -0.6257   13.5094   -2.0784 H   0  0  0  0  0  0  0  0  0  0  0  0
   -1.9185   12.2623   -2.0784 H   0  0  0  0  0  0  0  0  0  0  0  0
    2.0213   11.1719   -1.4200 H   0  0  0  0  0  0  0  0  0  0  0  0
    1.6148   13.4641   -0.3154 H   0  0  0  0  0  0  0  0  0  0  0  0
    3.0558   13.1852   -1.4269 H   0  0  0  0  0  0  0  0  0  0  0  0
    1.7863   15.4747   -1.7155 H   0  0  0  0  0  0  0  0  0  0  0  0
   -0.2143   12.9428   -4.1402 H   0  0  0  0  0  0  0  0  0  0  0  0
    2.4757   13.4037   -5.5709 H   0  0  0  0  0  0  0  0  0  0  0  0
    1.1067   12.3454   -6.1331 H   0  0  0  0  0  0  0  0  0  0  0  0
    1.1806   14.5031   -7.3425 H   0  0  0  0  0  0  0  0  0  0  0  0
   -0.3326   14.2846   -6.3784 H   0  0  0  0  0  0  0  0  0  0  0  0
    0.4424   16.5386   -6.0969 H   0  0  0  0  0  0  0  0  0  0  0  0
    2.7520   15.7300   -6.5170 H   0  0  0  0  0  0  0  0  0  0  0  0
   -1.3574   14.6929   -4.0437 H   0  0  0  0  0  0  0  0  0  0  0  0
   -1.3249   16.2485   -3.1462 H   0  0  0  0  0  0  0  0  0  0  0  0
   -1.3899   16.2485   -4.9413 H   0  0  0  0  0  0  0  0  0  0  0  0
    0.9773   16.9505   -2.3538 H   0  0  0  0  0  0  0  0  0  0  0  0
    2.0435   17.2871   -3.7597 H   0  0  0  0  0  0  0  0  0  0  0  0
    0.3455   17.8731   -3.7597 H   0  0  0  0  0  0  0  0  0  0  0  0
    3.5335   11.5530   -2.8510 H   0  0  0  0  0  0  0  0  0  0  0  0
    3.0519   10.7116   -4.3631 H   0  0  0  0  0  0  0  0  0  0  0  0
    3.2913   12.4919   -4.3631 H   0  0  0  0  0  0  0  0  0  0  0  0
    0.4298   10.7461   -4.9991 H   0  0  0  0  0  0  0  0  0  0  0  0
    1.3593    9.7232   -3.7648 H   0  0  0  0  0  0  0  0  0  0  0  0
   -1.4065   10.9256   -3.4612 H   0  0  0  0  0  0  0  0  0  0  0  0
   -0.9375    9.1824   -3.5548 H   0  0  0  0  0  0  0  0  0  0  0  0
    0.7241    8.9212   -0.2952 H   0  0  0  0  0  0  0  0  0  0  0  0
    0.2845    8.0771   -1.8186 H   0  0  0  0  0  0  0  0  0  0  0  0
    1.5945    9.3062   -1.8186 H   0  0  0  0  0  0  0  0  0  0  0  0
  1  2  1  0
  2  3  1  0
  3  4  1  0
  4  5  1  0
  5  6  1  0
  6  7  1  0
  7  8  1  0
  7  9  1  0
  2 10  1  0
 10 11  1  0
 11 12  1  0
 12 13  1  0
 13 14  1  1
 13 15  1  0
 15 16  1  0
 16 17  1  0
 17 18  2  0
 18 19  1  0
 19 20  1  0
 20 21  1  0
 21 22  1  0
 22 23  1  0
 22 24  1  0
 24 25  1  0
 24 26  1  0
 19 27  1  0
 27 28  1  1
 27 29  1  0
 29 30  1  0
 30 31  1  0
 31 32  1  6
  7  5  1  0
 31 10  1  0
 31 13  1  0
 27 15  1  0
 24 18  1  0
  1 33  1  0
  1 34  1  0
  1 35  1  0
  2 36  1  1
  3 37  1  0
  3 38  1  0
  4 39  1  0
  4 40  1  0
  5 41  1  1
  8 42  1  0
  8 43  1  0
  8 44  1  0
  9 45  1  0
  9 46  1  0
  9 47  1  0
 10 48  1  6
 11 49  1  0
 11 50  1  0
 12 51  1  0
 12 52  1  0
 14 53  1  0
 14 54  1  0
 14 55  1  0
 15 56  1  1
 16 57  1  0
 16 58  1  0
 17 59  1  0
 19 60  1  6
 20 61  1  0
 20 62  1  0
 21 63  1  0
 21 64  1  0
 22 65  1  6
 23 66  1  0
 25 67  1  0
 25 68  1  0
 25 69  1  0
 26 70  1  0
 26 71  1  0
 26 72  1  0
 28 73  1  0
 28 74  1  0
 28 75  1  0
 29 76  1  0
 29 77  1  0
 30 78  1  0
 30 79  1  0
 32 80  1  0
 32 81  1  0
 32 82  1  0
M  END
>  <meeko>  (14) 
{"is_sidechain": [false], "intermolecular_energy": 2.731, "internal_energy": -0.839}

$$$$
EPH_relaxed_0001_pdb2pqr_Repair_276_r2_0001_out
     RDKit          3D

 82 86  0  0  0  0  0  0  0  0999 V2000
    0.2730    9.8640   -4.7270 C   0  0  0  0  0  0  0  0  0  0  0  0
    1.3150   10.5430   -3.8330 C   0  0  2  0  0  0  0  0  0  0  0  0
    1.6700    9.6870   -2.6010 C   0  0  0  0  0  0  0  0  0  0  0  0
    0.5880    8.6700   -2.2250 C   0  0  0  0  0  0  0  0  0  0  0  0
   -0.2340    9.1390   -1.0640 C   0  0  2  0  0  0  0  0  0  0  0  0
   -0.7550    8.0900   -0.2360 O   0  0  0  0  0  0  0  0  0  0  0  0
   -1.7250    8.8850   -0.9370 C   0  0  0  0  0  0  0  0  0  0  0  0
   -2.4810    8.1360   -1.9890 C   0  0  0  0  0  0  0  0  0  0  0  0
   -2.5300    9.7790   -0.0450 C   0  0  0  0  0  0  0  0  0  0  0  0
    0.8060   11.9100   -3.3890 C   0  0  1  0  0  0  0  0  0  0  0  0
   -0.7110   11.9060   -3.0650 C   0  0  0  0  0  0  0  0  0  0  0  0
   -0.9200   12.8940   -1.8880 C   0  0  0  0  0  0  0  0  0  0  0  0
    0.4120   13.6740   -1.7940 C   0  0  1  0  0  0  0  0  0  0  0  0
    0.3120   14.7730   -2.8980 C   0  0  0  0  0  0  0  0  0  0  0  0
    0.7550   14.2890   -0.3980 C   0  0  2  0  0  0  0  0  0  0  0  0
   -0.2370   15.3500    0.1100 C   0  0  0  0  0  0  0  0  0  0  0  0
    0.0810   16.7570   -0.2750 C   0  0  0  0  0  0  0  0  0  0  0  0
    1.2630   17.1890   -0.7520 C   0  0  0  0  0  0  0  0  0  0  0  0
    2.4650   16.2400   -0.8550 C   0  0  1  0  0  0  0  0  0  0  0  0
    3.7270   16.9390   -0.2850 C   0  0  0  0  0  0  0  0  0  0  0  0
    3.9930   18.2920   -0.9400 C   0  0  0  0  0  0  0  0  0  0  0  0
    2.7980   19.2260   -0.7660 C   0  0  2  0  0  0  0  0  0  0  0  0
    2.6630   19.5470    0.6220 O   0  0  0  0  0  0  0  0  0  0  0  0
    1.4670   18.6240   -1.2950 C   0  0  0  0  0  0  0  0  0  0  0  0
    1.5050   18.5580   -2.8420 C   0  0  0  0  0  0  0  0  0  0  0  0
    0.3210   19.6060   -0.9310 C   0  0  0  0  0  0  0  0  0  0  0  0
    2.2520   14.7830   -0.2570 C   0  0  1  0  0  0  0  0  0  0  0  0
    2.5800   14.7810    1.2670 C   0  0  0  0  0  0  0  0  0  0  0  0
    3.2740   13.7950   -0.9330 C   0  0  0  0  0  0  0  0  0  0  0  0
    2.8290   13.1280   -2.2490 C   0  0  0  0  0  0  0  0  0  0  0  0
    1.4310   12.5190   -2.1090 C   0  0  2  0  0  0  0  0  0  0  0  0
    1.5050   11.3950   -1.0200 C   0  0  0  0  0  0  0  0  0  0  0  0
   -0.4836    9.3710   -4.0989 H   0  0  0  0  0  0  0  0  0  0  0  0
   -0.2132   10.6192   -5.3621 H   0  0  0  0  0  0  0  0  0  0  0  0
    0.7675    9.1142   -5.3621 H   0  0  0  0  0  0  0  0  0  0  0  0
    2.2333   10.6625   -4.4266 H   0  0  0  0  0  0  0  0  0  0  0  0
    2.6008    9.1409   -2.8141 H   0  0  0  0  0  0  0  0  0  0  0  0
    1.7730   10.3761   -1.7498 H   0  0  0  0  0  0  0  0  0  0  0  0
   -0.0730    8.5163   -3.0907 H   0  0  0  0  0  0  0  0  0  0  0  0
    1.0847    7.7319   -1.9366 H   0  0  0  0  0  0  0  0  0  0  0  0
    0.3685   10.0553   -0.9777 H   0  0  0  0  0  0  0  0  0  0  0  0
   -3.1842    7.4393   -1.5092 H   0  0  0  0  0  0  0  0  0  0  0  0
   -3.0394    8.8471   -2.6156 H   0  0  0  0  0  0  0  0  0  0  0  0
   -1.7752    7.5710   -2.6156 H   0  0  0  0  0  0  0  0  0  0  0  0
   -2.3138    9.5388    1.0065 H   0  0  0  0  0  0  0  0  0  0  0  0
   -2.2663   10.8284   -0.2431 H   0  0  0  0  0  0  0  0  0  0  0  0
   -3.6012    9.6264   -0.2431 H   0  0  0  0  0  0  0  0  0  0  0  0
    1.0903   12.5076   -4.2677 H   0  0  0  0  0  0  0  0  0  0  0  0
   -1.2866   12.2353   -3.9426 H   0  0  0  0  0  0  0  0  0  0  0  0
   -1.0552   10.8958   -2.7984 H   0  0  0  0  0  0  0  0  0  0  0  0
   -1.7563   13.5771   -2.0979 H   0  0  0  0  0  0  0  0  0  0  0  0
   -1.1691   12.3782   -0.9489 H   0  0  0  0  0  0  0  0  0  0  0  0
    0.2220   15.7616   -2.4241 H   0  0  0  0  0  0  0  0  0  0  0  0
    1.2162   14.7473   -3.5239 H   0  0  0  0  0  0  0  0  0  0  0  0
   -0.5727   14.5845   -3.5239 H   0  0  0  0  0  0  0  0  0  0  0  0
    0.6389   13.4259    0.2740 H   0  0  0  0  0  0  0  0  0  0  0  0
   -1.2317   15.1046   -0.2905 H   0  0  0  0  0  0  0  0  0  0  0  0
   -0.1833   15.3156    1.2081 H   0  0  0  0  0  0  0  0  0  0  0  0
   -0.7184   17.5037   -0.1590 H   0  0  0  0  0  0  0  0  0  0  0  0
    2.6020   16.0387   -1.9277 H   0  0  0  0  0  0  0  0  0  0  0  0
    3.5879   17.0916    0.7955 H   0  0  0  0  0  0  0  0  0  0  0  0
    4.5909   16.2911   -0.4945 H   0  0  0  0  0  0  0  0  0  0  0  0
    4.8784   18.7496   -0.4746 H   0  0  0  0  0  0  0  0  0  0  0  0
    4.1623   18.1346   -2.0154 H   0  0  0  0  0  0  0  0  0  0  0  0
    2.9937   20.1273   -1.3655 H   0  0  0  0  0  0  0  0  0  0  0  0
    2.6320   18.7100    1.1160 H   0  0  0  0  0  0  0  0  0  0  0  0
    2.0308   17.6447   -3.1572 H   0  0  0  0  0  0  0  0  0  0  0  0
    0.4772   18.5431   -3.2337 H   0  0  0  0  0  0  0  0  0  0  0  0
    2.0339   19.4394   -3.2337 H   0  0  0  0  0  0  0  0  0  0  0  0
    0.2350   19.6797    0.1632 H   0  0  0  0  0  0  0  0  0  0  0  0
    0.5424   20.5991   -1.3491 H   0  0  0  0  0  0  0  0  0  0  0  0
   -0.6264   19.2350   -1.3491 H   0  0  0  0  0  0  0  0  0  0  0  0
    1.6433   14.7867    1.8437 H   0  0  0  0  0  0  0  0  0  0  0  0
    3.1586   13.8793    1.5164 H   0  0  0  0  0  0  0  0  0  0  0  0
    3.1696   15.6756    1.5164 H   0  0  0  0  0  0  0  0  0  0  0  0
    4.1948   14.3596   -1.1409 H   0  0  0  0  0  0  0  0  0  0  0  0
    3.3918   12.9684   -0.2169 H   0  0  0  0  0  0  0  0  0  0  0  0
    2.8140   13.8835   -3.0483 H   0  0  0  0  0  0  0  0  0  0  0  0
    3.5392   12.3241   -2.4926 H   0  0  0  0  0  0  0  0  0  0  0  0
    1.4750   11.8512   -0.0195 H   0  0  0  0  0  0  0  0  0  0  0  0
    0.6498   10.7133   -1.1380 H   0  0  0  0  0  0  0  0  0  0  0  0
    2.4422   10.8313   -1.1380 H   0  0  0  0  0  0  0  0  0  0  0  0
  1  2  1  0
  2  3  1  0
  3  4  1  0
  4  5  1  0
  5  6  1  0
  6  7  1  0
  7  8  1  0
  7  9  1  0
  2 10  1  0
 10 11  1  0
 11 12  1  0
 12 13  1  0
 13 14  1  6
 13 15  1  0
 15 16  1  0
 16 17  1  0
 17 18  2  0
 18 19  1  0
 19 20  1  0
 20 21  1  0
 21 22  1  0
 22 23  1  0
 22 24  1  0
 24 25  1  0
 24 26  1  0
 19 27  1  0
 27 28  1  1
 27 29  1  0
 29 30  1  0
 30 31  1  0
 31 32  1  1
  7  5  1  0
 31 10  1  0
 31 13  1  0
 27 15  1  0
 24 18  1  0
  1 33  1  0
  1 34  1  0
  1 35  1  0
  2 36  1  6
  3 37  1  0
  3 38  1  0
  4 39  1  0
  4 40  1  0
  5 41  1  1
  8 42  1  0
  8 43  1  0
  8 44  1  0
  9 45  1  0
  9 46  1  0
  9 47  1  0
 10 48  1  6
 11 49  1  0
 11 50  1  0
 12 51  1  0
 12 52  1  0
 14 53  1  0
 14 54  1  0
 14 55  1  0
 15 56  1  1
 16 57  1  0
 16 58  1  0
 17 59  1  0
 19 60  1  6
 20 61  1  0
 20 62  1  0
 21 63  1  0
 21 64  1  0
 22 65  1  6
 23 66  1  0
 25 67  1  0
 25 68  1  0
 25 69  1  0
 26 70  1  0
 26 71  1  0
 26 72  1  0
 28 73  1  0
 28 74  1  0
 28 75  1  0
 29 76  1  0
 29 77  1  0
 30 78  1  0
 30 79  1  0
 32 80  1  0
 32 81  1  0
 32 82  1  0
M  END
>  <meeko>  (15) 
{"is_sidechain": [false], "intermolecular_energy": 2.731, "internal_energy": -0.839}

$$$$
EPH_relaxed_0001_pdb2pqr_Repair_276_r2_0001_out
     RDKit          3D

 82 86  0  0  0  0  0  0  0  0999 V2000
    0.9090   14.9290   -2.5970 C   0  0  0  0  0  0  0  0  0  0  0  0
    1.1890   14.2560   -3.9430 C   0  0  2  0  0  0  0  0  0  0  0  0
    0.5010   14.9880   -5.1130 C   0  0  0  0  0  0  0  0  0  0  0  0
    1.0600   14.6130   -6.4880 C   0  0  0  0  0  0  0  0  0  0  0  0
    0.8200   15.6950   -7.4970 C   0  0  2  0  0  0  0  0  0  0  0  0
    0.4150   15.2280   -8.7900 O   0  0  0  0  0  0  0  0  0  0  0  0
    1.6840   15.8970   -8.7280 C   0  0  0  0  0  0  0  0  0  0  0  0
    2.8550   15.0100   -9.0140 C   0  0  0  0  0  0  0  0  0  0  0  0
    1.6890   17.2420   -9.3850 C   0  0  0  0  0  0  0  0  0  0  0  0
    0.7370   12.8010   -3.9010 C   0  0  1  0  0  0  0  0  0  0  0  0
    1.8650   11.8130   -4.2990 C   0  0  0  0  0  0  0  0  0  0  0  0
    1.6700   10.5390   -3.4370 C   0  0  0  0  0  0  0  0  0  0  0  0
    0.2600   10.6980   -2.8210 C   0  0  1  0  0  0  0  0  0  0  0  0
   -0.7230   10.2420   -3.9440 C   0  0  0  0  0  0  0  0  0  0  0  0
    0.0010    9.9340   -1.4820 C   0  0  2  0  0  0  0  0  0  0  0  0
    0.1040    8.4010   -1.5750 C   0  0  0  0  0  0  0  0  0  0  0  0
   -1.1720    7.6950   -1.8980 C   0  0  0  0  0  0  0  0  0  0  0  0
   -2.4030    8.2330   -1.8250 C   0  0  0  0  0  0  0  0  0  0  0  0
   -2.6110    9.6560   -1.2890 C   0  0  1  0  0  0  0  0  0  0  0  0
   -3.7850    9.6600   -0.2750 C   0  0  0  0  0  0  0  0  0  0  0  0
   -5.0630    9.0630   -0.8560 C   0  0  0  0  0  0  0  0  0  0  0  0
   -4.8310    7.6290   -1.3250 C   0  0  2  0  0  0  0  0  0  0  0  0
   -4.5670    6.8080   -0.1830 O   0  0  0  0  0  0  0  0  0  0  0  0
   -3.6640    7.4990   -2.3430 C   0  0  0  0  0  0  0  0  0  0  0  0
   -4.0780    8.1360   -3.6930 C   0  0  0  0  0  0  0  0  0  0  0  0
   -3.4440    5.9880   -2.6260 C   0  0  0  0  0  0  0  0  0  0  0  0
   -1.3140   10.3800   -0.7240 C   0  0  1  0  0  0  0  0  0  0  0  0
   -1.1100   10.0120    0.7770 C   0  0  0  0  0  0  0  0  0  0  0  0
   -1.5340   11.9390   -0.7740 C   0  0  0  0  0  0  0  0  0  0  0  0
   -1.1470   12.6530   -2.0830 C   0  0  0  0  0  0  0  0  0  0  0  0
    0.2570   12.2440   -2.5370 C   0  0  2  0  0  0  0  0  0  0  0  0
    1.2710   12.7110   -1.4370 C   0  0  0  0  0  0  0  0  0  0  0  0
    1.1922   14.2482   -1.7807 H   0  0  0  0  0  0  0  0  0  0  0  0
    1.4960   15.8562   -2.5215 H   0  0  0  0  0  0  0  0  0  0  0  0
   -0.1625   15.1662   -2.5215 H   0  0  0  0  0  0  0  0  0  0  0  0
    2.2742   14.3032   -4.1167 H   0  0  0  0  0  0  0  0  0  0  0  0
   -0.5708   14.7411   -5.0948 H   0  0  0  0  0  0  0  0  0  0  0  0
    0.6867   16.0631   -4.9730 H   0  0  0  0  0  0  0  0  0  0  0  0
    2.1431   14.4428   -6.3983 H   0  0  0  0  0  0  0  0  0  0  0  0
    0.5455   13.7033   -6.8312 H   0  0  0  0  0  0  0  0  0  0  0  0
    0.4822   16.3863   -6.7108 H   0  0  0  0  0  0  0  0  0  0  0  0
    3.2999   14.6730   -8.0661 H   0  0  0  0  0  0  0  0  0  0  0  0
    2.5206   14.1366   -9.5931 H   0  0  0  0  0  0  0  0  0  0  0  0
    3.6052   15.5685   -9.5931 H   0  0  0  0  0  0  0  0  0  0  0  0
    1.6919   18.0266   -8.6141 H   0  0  0  0  0  0  0  0  0  0  0  0
    2.5875   17.3405  -10.0119 H   0  0  0  0  0  0  0  0  0  0  0  0
    0.7912   17.3472  -10.0119 H   0  0  0  0  0  0  0  0  0  0  0  0
   -0.1065   12.8502   -4.6054 H   0  0  0  0  0  0  0  0  0  0  0  0
    1.7893   11.5625   -5.3674 H   0  0  0  0  0  0  0  0  0  0  0  0
    2.8568   12.2570   -4.1281 H   0  0  0  0  0  0  0  0  0  0  0  0
    1.7212    9.6354   -4.0621 H   0  0  0  0  0  0  0  0  0  0  0  0
    2.4509   10.4302   -2.6700 H   0  0  0  0  0  0  0  0  0  0  0  0
   -1.6310    9.8208   -3.4877 H   0  0  0  0  0  0  0  0  0  0  0  0
   -0.9934   11.1066   -4.5679 H   0  0  0  0  0  0  0  0  0  0  0  0
   -0.2375    9.4771   -4.5679 H   0  0  0  0  0  0  0  0  0  0  0  0
    0.8505   10.2537   -0.8607 H   0  0  0  0  0  0  0  0  0  0  0  0
    0.8359    8.1563   -2.3589 H   0  0  0  0  0  0  0  0  0  0  0  0
    0.3990    8.0542   -0.5737 H   0  0  0  0  0  0  0  0  0  0  0  0
   -1.0991    6.6466   -2.2230 H   0  0  0  0  0  0  0  0  0  0  0  0
   -2.8684   10.2756   -2.1607 H   0  0  0  0  0  0  0  0  0  0  0  0
   -3.4908    9.0724    0.6071 H   0  0  0  0  0  0  0  0  0  0  0  0
   -3.9954   10.7073   -0.0126 H   0  0  0  0  0  0  0  0  0  0  0  0
   -5.8458    9.0668   -0.0832 H   0  0  0  0  0  0  0  0  0  0  0  0
   -5.3726    9.6693   -1.7201 H   0  0  0  0  0  0  0  0  0  0  0  0
   -5.7414    7.3012   -1.8482 H   0  0  0  0  0  0  0  0  0  0  0  0
   -4.9180    5.9210   -0.3710 H   0  0  0  0  0  0  0  0  0  0  0  0
   -4.6685    9.0446   -3.5039 H   0  0  0  0  0  0  0  0  0  0  0  0
   -3.1767    8.3973   -4.2669 H   0  0  0  0  0  0  0  0  0  0  0  0
   -4.6828    7.4184   -4.2669 H   0  0  0  0  0  0  0  0  0  0  0  0
   -3.3648    5.4442   -1.6731 H   0  0  0  0  0  0  0  0  0  0  0  0
   -4.2944    5.5953   -3.2027 H   0  0  0  0  0  0  0  0  0  0  0  0
   -2.5169    5.8541   -3.2027 H   0  0  0  0  0  0  0  0  0  0  0  0
   -1.5462   10.7988    1.4100 H   0  0  0  0  0  0  0  0  0  0  0  0
   -1.6055    9.0533    0.9901 H   0  0  0  0  0  0  0  0  0  0  0  0
   -0.0344    9.9242    0.9901 H   0  0  0  0  0  0  0  0  0  0  0  0
   -2.6021   12.1304   -0.5937 H   0  0  0  0  0  0  0  0  0  0  0  0
   -0.8570   12.3500   -0.0107 H   0  0  0  0  0  0  0  0  0  0  0  0
   -1.8708   12.3847   -2.8666 H   0  0  0  0  0  0  0  0  0  0  0  0
   -1.1555   13.7386   -1.9057 H   0  0  0  0  0  0  0  0  0  0  0  0
    0.8471   12.5158   -0.4409 H   0  0  0  0  0  0  0  0  0  0  0  0
    2.2145   12.1567   -1.5490 H   0  0  0  0  0  0  0  0  0  0  0  0
    1.4631   13.7883   -1.5490 H   0  0  0  0  0  0  0  0  0  0  0  0
  1  2  1  0
  2  3  1  0
  3  4  1  0
  4  5  1  0
  5  6  1  0
  6  7  1  0
  7  8  1  0
  7  9  1  0
  2 10  1  0
 10 11  1  0
 11 12  1  0
 12 13  1  0
 13 14  1  6
 13 15  1  0
 15 16  1  0
 16 17  1  0
 17 18  2  0
 18 19  1  0
 19 20  1  0
 20 21  1  0
 21 22  1  0
 22 23  1  0
 22 24  1  0
 24 25  1  0
 24 26  1  0
 19 27  1  0
 27 28  1  1
 27 29  1  0
 29 30  1  0
 30 31  1  0
 31 32  1  1
  7  5  1  0
 31 10  1  0
 31 13  1  0
 27 15  1  0
 24 18  1  0
  1 33  1  0
  1 34  1  0
  1 35  1  0
  2 36  1  6
  3 37  1  0
  3 38  1  0
  4 39  1  0
  4 40  1  0
  5 41  1  1
  8 42  1  0
  8 43  1  0
  8 44  1  0
  9 45  1  0
  9 46  1  0
  9 47  1  0
 10 48  1  6
 11 49  1  0
 11 50  1  0
 12 51  1  0
 12 52  1  0
 14 53  1  0
 14 54  1  0
 14 55  1  0
 15 56  1  1
 16 57  1  0
 16 58  1  0
 17 59  1  0
 19 60  1  6
 20 61  1  0
 20 62  1  0
 21 63  1  0
 21 64  1  0
 22 65  1  6
 23 66  1  0
 25 67  1  0
 25 68  1  0
 25 69  1  0
 26 70  1  0
 26 71  1  0
 26 72  1  0
 28 73  1  0
 28 74  1  0
 28 75  1  0
 29 76  1  0
 29 77  1  0
 30 78  1  0
 30 79  1  0
 32 80  1  0
 32 81  1  0
 32 82  1  0
M  END
>  <meeko>  (16) 
{"is_sidechain": [false], "intermolecular_energy": 2.731, "internal_energy": -0.839}

$$$$
EPH_relaxed_0001_pdb2pqr_Repair_276_r2_0001_out
     RDKit          3D

 82 86  0  0  0  0  0  0  0  0999 V2000
   -1.7530   14.8130    0.4040 C   0  0  0  0  0  0  0  0  0  0  0  0
   -0.4030   15.5200    0.2490 C   0  0  2  0  0  0  0  0  0  0  0  0
   -0.4220   16.5650   -0.8840 C   0  0  0  0  0  0  0  0  0  0  0  0
   -0.0510   17.9780   -0.4240 C   0  0  0  0  0  0  0  0  0  0  0  0
    1.3840   18.0630    0.0030 C   0  0  2  0  0  0  0  0  0  0  0  0
    2.0380   19.2910   -0.3410 O   0  0  0  0  0  0  0  0  0  0  0  0
    2.5450   18.1050   -0.9730 C   0  0  0  0  0  0  0  0  0  0  0  0
    2.3240   18.0610   -2.4520 C   0  0  0  0  0  0  0  0  0  0  0  0
    3.9010   17.6960   -0.4880 C   0  0  0  0  0  0  0  0  0  0  0  0
    0.6940   14.4930   -0.0070 C   0  0  1  0  0  0  0  0  0  0  0  0
    0.8340   13.4670    1.1490 C   0  0  0  0  0  0  0  0  0  0  0  0
    1.2180   12.1120    0.5010 C   0  0  0  0  0  0  0  0  0  0  0  0
    1.6090   12.4720   -0.9520 C   0  0  1  0  0  0  0  0  0  0  0  0
    3.0790   12.9860   -0.8560 C   0  0  0  0  0  0  0  0  0  0  0  0
    1.4640   11.3290   -2.0090 C   0  0  2  0  0  0  0  0  0  0  0  0
    2.3570   10.0990   -1.7670 C   0  0  0  0  0  0  0  0  0  0  0  0
    3.7000   10.1480   -2.4160 C   0  0  0  0  0  0  0  0  0  0  0  0
    4.0660   11.0000   -3.3920 C   0  0  0  0  0  0  0  0  0  0  0  0
    3.0540   11.9740   -4.0080 C   0  0  1  0  0  0  0  0  0  0  0  0
    3.1760   11.9380   -5.5540 C   0  0  0  0  0  0  0  0  0  0  0  0
    4.6010   12.1960   -6.0350 C   0  0  0  0  0  0  0  0  0  0  0  0
    5.5680   11.1720   -5.4470 C   0  0  2  0  0  0  0  0  0  0  0  0
    5.2610    9.8830   -5.9870 O   0  0  0  0  0  0  0  0  0  0  0  0
    5.5270   11.1110   -3.8940 C   0  0  0  0  0  0  0  0  0  0  0  0
    6.1460   12.4030   -3.3060 C   0  0  0  0  0  0  0  0  0  0  0  0
    6.4430    9.9440   -3.4380 C   0  0  0  0  0  0  0  0  0  0  0  0
    1.5530   11.8200   -3.5110 C   0  0  1  0  0  0  0  0  0  0  0  0
    0.8130   10.7520   -4.3730 C   0  0  0  0  0  0  0  0  0  0  0  0
    0.7930   13.1800   -3.7410 C   0  0  0  0  0  0  0  0  0  0  0  0
    0.8740   14.2220   -2.6090 C   0  0  0  0  0  0  0  0  0  0  0  0
    0.5430   13.5870   -1.2550 C   0  0  2  0  0  0  0  0  0  0  0  0
   -0.9380   13.0810   -1.3140 C   0  0  0  0  0  0  0  0  0  0  0  0
   -1.9832   14.6925    1.4729 H   0  0  0  0  0  0  0  0  0  0  0  0
   -2.5393   15.4151   -0.0748 H   0  0  0  0  0  0  0  0  0  0  0  0
   -1.7060   13.8238   -0.0748 H   0  0  0  0  0  0  0  0  0  0  0  0
   -0.1992   16.0556    1.1879 H   0  0  0  0  0  0  0  0  0  0  0  0
    0.2950   16.2520   -1.6573 H   0  0  0  0  0  0  0  0  0  0  0  0
   -1.4539   16.6105   -1.2624 H   0  0  0  0  0  0  0  0  0  0  0  0
   -0.2178   18.6789   -1.2552 H   0  0  0  0  0  0  0  0  0  0  0  0
   -0.6818   18.2342    0.4400 H   0  0  0  0  0  0  0  0  0  0  0  0
    1.1841   17.4375    0.8855 H   0  0  0  0  0  0  0  0  0  0  0  0
    1.2643   17.8500   -2.6583 H   0  0  0  0  0  0  0  0  0  0  0  0
    2.5972   19.0312   -2.8926 H   0  0  0  0  0  0  0  0  0  0  0  0
    2.9480   17.2695   -2.8926 H   0  0  0  0  0  0  0  0  0  0  0  0
    3.9114   17.6928    0.6119 H   0  0  0  0  0  0  0  0  0  0  0  0
    4.1346   16.6874   -0.8598 H   0  0  0  0  0  0  0  0  0  0  0  0
    4.6533   18.4072   -0.8598 H   0  0  0  0  0  0  0  0  0  0  0  0
    1.5526   15.1687   -0.1339 H   0  0  0  0  0  0  0  0  0  0  0  0
    1.6201   13.7888    1.8479 H   0  0  0  0  0  0  0  0  0  0  0  0
   -0.1044   13.3813    1.7166 H   0  0  0  0  0  0  0  0  0  0  0  0
    2.0674   11.6553    1.0300 H   0  0  0  0  0  0  0  0  0  0  0  0
    0.3968   11.3814    0.5435 H   0  0  0  0  0  0  0  0  0  0  0  0
    3.3642   13.0857    0.2017 H   0  0  0  0  0  0  0  0  0  0  0  0
    3.7510   12.2695   -1.3510 H   0  0  0  0  0  0  0  0  0  0  0  0
    3.1581   13.9651   -1.3510 H   0  0  0  0  0  0  0  0  0  0  0  0
    0.4317   10.9863   -1.8451 H   0  0  0  0  0  0  0  0  0  0  0  0
    2.5074    9.9965   -0.6822 H   0  0  0  0  0  0  0  0  0  0  0  0
    1.8305    9.2468   -2.2216 H   0  0  0  0  0  0  0  0  0  0  0  0
    4.4544    9.4273   -2.0675 H   0  0  0  0  0  0  0  0  0  0  0  0
    3.3268   12.9723   -3.6351 H   0  0  0  0  0  0  0  0  0  0  0  0
    2.8578   10.9470   -5.9098 H   0  0  0  0  0  0  0  0  0  0  0  0
    2.5375   12.7375   -5.9579 H   0  0  0  0  0  0  0  0  0  0  0  0
    4.6284   12.1285   -7.1326 H   0  0  0  0  0  0  0  0  0  0  0  0
    4.9074   13.1993   -5.7041 H   0  0  0  0  0  0  0  0  0  0  0  0
    6.5860   11.4853   -5.7220 H   0  0  0  0  0  0  0  0  0  0  0  0
    5.3750    9.2310   -5.2760 H   0  0  0  0  0  0  0  0  0  0  0  0
    6.1224   12.3538   -2.2074 H   0  0  0  0  0  0  0  0  0  0  0  0
    7.1876   12.4984   -3.6465 H   0  0  0  0  0  0  0  0  0  0  0  0
    5.5677   13.2745   -3.6465 H   0  0  0  0  0  0  0  0  0  0  0  0
    6.4713    9.9080   -2.3390 H   0  0  0  0  0  0  0  0  0  0  0  0
    6.0470    8.9939   -3.8259 H   0  0  0  0  0  0  0  0  0  0  0  0
    7.4600   10.1030   -3.8259 H   0  0  0  0  0  0  0  0  0  0  0  0
    0.3125   10.0296   -3.7115 H   0  0  0  0  0  0  0  0  0  0  0  0
    0.0640   11.2480   -5.0078 H   0  0  0  0  0  0  0  0  0  0  0  0
    1.5405   10.2250   -5.0078 H   0  0  0  0  0  0  0  0  0  0  0  0
    1.2066   13.6427   -4.6492 H   0  0  0  0  0  0  0  0  0  0  0  0
   -0.2708   12.9075   -3.8054 H   0  0  0  0  0  0  0  0  0  0  0  0
    1.8925   14.6359   -2.5730 H   0  0  0  0  0  0  0  0  0  0  0  0
    0.1421   15.0178   -2.8116 H   0  0  0  0  0  0  0  0  0  0  0  0
   -1.3217   12.9499   -0.2915 H   0  0  0  0  0  0  0  0  0  0  0  0
   -1.5566   13.8188   -1.8460 H   0  0  0  0  0  0  0  0  0  0  0  0
   -0.9759   12.1189   -1.8460 H   0  0  0  0  0  0  0  0  0  0  0  0
  1  2  1  0
  2  3  1  0
  3  4  1  0
  4  5  1  0
  5  6  1  0
  6  7  1  0
  7  8  1  0
  7  9  1  0
  2 10  1  0
 10 11  1  0
 11 12  1  0
 12 13  1  0
 13 14  1  1
 13 15  1  0
 15 16  1  0
 16 17  1  0
 17 18  2  0
 18 19  1  0
 19 20  1  0
 20 21  1  0
 21 22  1  0
 22 23  1  0
 22 24  1  0
 24 25  1  0
 24 26  1  0
 19 27  1  0
 27 28  1  6
 27 29  1  0
 29 30  1  0
 30 31  1  0
 31 32  1  6
  7  5  1  0
 31 10  1  0
 31 13  1  0
 27 15  1  0
 24 18  1  0
  1 33  1  0
  1 34  1  0
  1 35  1  0
  2 36  1  1
  3 37  1  0
  3 38  1  0
  4 39  1  0
  4 40  1  0
  5 41  1  1
  8 42  1  0
  8 43  1  0
  8 44  1  0
  9 45  1  0
  9 46  1  0
  9 47  1  0
 10 48  1  6
 11 49  1  0
 11 50  1  0
 12 51  1  0
 12 52  1  0
 14 53  1  0
 14 54  1  0
 14 55  1  0
 15 56  1  6
 16 57  1  0
 16 58  1  0
 17 59  1  0
 19 60  1  1
 20 61  1  0
 20 62  1  0
 21 63  1  0
 21 64  1  0
 22 65  1  1
 23 66  1  0
 25 67  1  0
 25 68  1  0
 25 69  1  0
 26 70  1  0
 26 71  1  0
 26 72  1  0
 28 73  1  0
 28 74  1  0
 28 75  1  0
 29 76  1  0
 29 77  1  0
 30 78  1  0
 30 79  1  0
 32 80  1  0
 32 81  1  0
 32 82  1  0
M  END
>  <meeko>  (17) 
{"is_sidechain": [false], "intermolecular_energy": 2.731, "internal_energy": -0.839}

$$$$
EPH_relaxed_0001_pdb2pqr_Repair_276_r2_0001_out
     RDKit          3D

 82 86  0  0  0  0  0  0  0  0999 V2000
    3.1470   14.8550   -7.5470 C   0  0  0  0  0  0  0  0  0  0  0  0
    1.6220   14.8700   -7.4080 C   0  0  2  0  0  0  0  0  0  0  0  0
    0.9890   16.1000   -8.0880 C   0  0  0  0  0  0  0  0  0  0  0  0
    1.9110   16.7880   -9.0970 C   0  0  0  0  0  0  0  0  0  0  0  0
    1.5900   16.3870  -10.5050 C   0  0  2  0  0  0  0  0  0  0  0  0
    1.0050   15.0850  -10.6380 O   0  0  0  0  0  0  0  0  0  0  0  0
    2.2990   15.2630  -11.2370 C   0  0  0  0  0  0  0  0  0  0  0  0
    3.3870   14.4700  -10.5840 C   0  0  0  0  0  0  0  0  0  0  0  0
    2.2760   15.2580  -12.7340 C   0  0  0  0  0  0  0  0  0  0  0  0
    1.2350   14.8320   -5.9340 C   0  0  1  0  0  0  0  0  0  0  0  0
   -0.0200   15.6920   -5.6240 C   0  0  0  0  0  0  0  0  0  0  0  0
   -0.8010   14.9560   -4.5060 C   0  0  0  0  0  0  0  0  0  0  0  0
    0.1840   13.8860   -3.9810 C   0  0  1  0  0  0  0  0  0  0  0  0
    1.1210   14.6520   -2.9950 C   0  0  0  0  0  0  0  0  0  0  0  0
   -0.4560   12.6270   -3.3080 C   0  0  2  0  0  0  0  0  0  0  0  0
   -1.2750   12.9120   -2.0380 C   0  0  0  0  0  0  0  0  0  0  0  0
   -0.5070   12.8580   -0.7580 C   0  0  0  0  0  0  0  0  0  0  0  0
    0.7150   12.3160   -0.6020 C   0  0  0  0  0  0  0  0  0  0  0  0
    1.4100   11.5930   -1.7630 C   0  0  1  0  0  0  0  0  0  0  0  0
    1.9950   10.2470   -1.2580 C   0  0  0  0  0  0  0  0  0  0  0  0
    2.9080   10.4220   -0.0490 C   0  0  0  0  0  0  0  0  0  0  0  0
    2.1640   11.0920    1.1040 C   0  0  2  0  0  0  0  0  0  0  0  0
    1.1490   10.2010    1.5770 O   0  0  0  0  0  0  0  0  0  0  0  0
    1.5240   12.4530    0.7110 C   0  0  0  0  0  0  0  0  0  0  0  0
    2.6370   13.5070    0.4900 C   0  0  0  0  0  0  0  0  0  0  0  0
    0.6870   12.9530    1.9200 C   0  0  0  0  0  0  0  0  0  0  0  0
    0.5520   11.4270   -3.0900 C   0  0  1  0  0  0  0  0  0  0  0  0
   -0.3120   10.1310   -3.0060 C   0  0  0  0  0  0  0  0  0  0  0  0
    1.5260   11.2330   -4.3110 C   0  0  0  0  0  0  0  0  0  0  0  0
    2.0290   12.5110   -5.0080 C   0  0  0  0  0  0  0  0  0  0  0  0
    0.8660   13.4540   -5.3300 C   0  0  2  0  0  0  0  0  0  0  0  0
   -0.0820   12.7180   -6.3380 C   0  0  0  0  0  0  0  0  0  0  0  0
    3.6063   14.8505   -6.5475 H   0  0  0  0  0  0  0  0  0  0  0  0
    3.4562   13.9538   -8.0967 H   0  0  0  0  0  0  0  0  0  0  0  0
    3.4739   15.7500   -8.0967 H   0  0  0  0  0  0  0  0  0  0  0  0
    1.2339   13.9758   -7.9176 H   0  0  0  0  0  0  0  0  0  0  0  0
    0.0789   15.7759   -8.6140 H   0  0  0  0  0  0  0  0  0  0  0  0
    0.7774   16.8322   -7.2949 H   0  0  0  0  0  0  0  0  0  0  0  0
    1.7942   17.8776   -9.0013 H   0  0  0  0  0  0  0  0  0  0  0  0
    2.9451   16.4817   -8.8807 H   0  0  0  0  0  0  0  0  0  0  0  0
    1.3832   17.4317  -10.7804 H   0  0  0  0  0  0  0  0  0  0  0  0
    3.2879   14.5423   -9.4909 H   0  0  0  0  0  0  0  0  0  0  0  0
    3.3075   13.4166  -10.8905 H   0  0  0  0  0  0  0  0  0  0  0  0
    4.3655   14.8682  -10.8905 H   0  0  0  0  0  0  0  0  0  0  0  0
    1.2571   15.0365  -13.0843 H   0  0  0  0  0  0  0  0  0  0  0  0
    2.5863   16.2446  -13.1088 H   0  0  0  0  0  0  0  0  0  0  0  0
    2.9678   14.4892  -13.1088 H   0  0  0  0  0  0  0  0  0  0  0  0
    2.1713   15.1990   -5.4882 H   0  0  0  0  0  0  0  0  0  0  0  0
    0.2818   16.6923   -5.2798 H   0  0  0  0  0  0  0  0  0  0  0  0
   -0.6424   15.8205   -6.5218 H   0  0  0  0  0  0  0  0  0  0  0  0
   -1.0800   15.6542   -3.7031 H   0  0  0  0  0  0  0  0  0  0  0  0
   -1.7390   14.5146   -4.8739 H   0  0  0  0  0  0  0  0  0  0  0  0
    0.8339   14.4173   -1.9594 H   0  0  0  0  0  0  0  0  0  0  0  0
    2.1631   14.3439   -3.1654 H   0  0  0  0  0  0  0  0  0  0  0  0
    1.0262   15.7346   -3.1654 H   0  0  0  0  0  0  0  0  0  0  0  0
   -1.1841   12.2986   -4.0643 H   0  0  0  0  0  0  0  0  0  0  0  0
   -1.7087   13.9185   -2.1320 H   0  0  0  0  0  0  0  0  0  0  0  0
   -2.0275   12.1121   -1.9753 H   0  0  0  0  0  0  0  0  0  0  0  0
   -0.9800   13.2983    0.1321 H   0  0  0  0  0  0  0  0  0  0  0  0
    2.2253   12.2552   -2.0898 H   0  0  0  0  0  0  0  0  0  0  0  0
    1.1631    9.5839   -0.9783 H   0  0  0  0  0  0  0  0  0  0  0  0
    2.5982    9.8191   -2.0723 H   0  0  0  0  0  0  0  0  0  0  0  0
    3.2651    9.4344    0.2784 H   0  0  0  0  0  0  0  0  0  0  0  0
    3.7555   11.0608   -0.3384 H   0  0  0  0  0  0  0  0  0  0  0  0
    2.9009   11.3081    1.8916 H   0  0  0  0  0  0  0  0  0  0  0  0
    1.2570    9.3570    1.1070 H   0  0  0  0  0  0  0  0  0  0  0  0
    3.0080   13.8583    1.4642 H   0  0  0  0  0  0  0  0  0  0  0  0
    3.4643   13.0535   -0.0756 H   0  0  0  0  0  0  0  0  0  0  0  0
    2.2292   14.3578   -0.0756 H   0  0  0  0  0  0  0  0  0  0  0  0
    1.1825   12.6570    2.8564 H   0  0  0  0  0  0  0  0  0  0  0  0
    0.6035   14.0491    1.8799 H   0  0  0  0  0  0  0  0  0  0  0  0
   -0.3177   12.5070    1.8799 H   0  0  0  0  0  0  0  0  0  0  0  0
   -0.4841    9.8728   -1.9507 H   0  0  0  0  0  0  0  0  0  0  0  0
   -1.2779   10.3013   -3.5040 H   0  0  0  0  0  0  0  0  0  0  0  0
    0.2167    9.3049   -3.5040 H   0  0  0  0  0  0  0  0  0  0  0  0
    2.4070   10.6823   -3.9497 H   0  0  0  0  0  0  0  0  0  0  0  0
    0.9323   10.7049   -5.0717 H   0  0  0  0  0  0  0  0  0  0  0  0
    2.7379   13.0276   -4.3442 H   0  0  0  0  0  0  0  0  0  0  0  0
    2.5207   12.2263   -5.9499 H   0  0  0  0  0  0  0  0  0  0  0  0
   -0.8306   12.1368   -5.7797 H   0  0  0  0  0  0  0  0  0  0  0  0
   -0.5911   13.4598   -6.9709 H   0  0  0  0  0  0  0  0  0  0  0  0
    0.5104   12.0409   -6.9709 H   0  0  0  0  0  0  0  0  0  0  0  0
  1  2  1  0
  2  3  1  0
  3  4  1  0
  4  5  1  0
  5  6  1  0
  6  7  1  0
  7  8  1  0
  7  9  1  0
  2 10  1  0
 10 11  1  0
 11 12  1  0
 12 13  1  0
 13 14  1  1
 13 15  1  0
 15 16  1  0
 16 17  1  0
 17 18  2  0
 18 19  1  0
 19 20  1  0
 20 21  1  0
 21 22  1  0
 22 23  1  0
 22 24  1  0
 24 25  1  0
 24 26  1  0
 19 27  1  0
 27 28  1  1
 27 29  1  0
 29 30  1  0
 30 31  1  0
 31 32  1  6
  7  5  1  0
 31 10  1  0
 31 13  1  0
 27 15  1  0
 24 18  1  0
  1 33  1  0
  1 34  1  0
  1 35  1  0
  2 36  1  6
  3 37  1  0
  3 38  1  0
  4 39  1  0
  4 40  1  0
  5 41  1  6
  8 42  1  0
  8 43  1  0
  8 44  1  0
  9 45  1  0
  9 46  1  0
  9 47  1  0
 10 48  1  1
 11 49  1  0
 11 50  1  0
 12 51  1  0
 12 52  1  0
 14 53  1  0
 14 54  1  0
 14 55  1  0
 15 56  1  6
 16 57  1  0
 16 58  1  0
 17 59  1  0
 19 60  1  6
 20 61  1  0
 20 62  1  0
 21 63  1  0
 21 64  1  0
 22 65  1  1
 23 66  1  0
 25 67  1  0
 25 68  1  0
 25 69  1  0
 26 70  1  0
 26 71  1  0
 26 72  1  0
 28 73  1  0
 28 74  1  0
 28 75  1  0
 29 76  1  0
 29 77  1  0
 30 78  1  0
 30 79  1  0
 32 80  1  0
 32 81  1  0
 32 82  1  0
M  END
>  <meeko>  (18) 
{"is_sidechain": [false], "intermolecular_energy": 2.731, "internal_energy": -0.839}

$$$$
EPH_relaxed_0001_pdb2pqr_Repair_276_r2_0001_out
     RDKit          3D

 82 86  0  0  0  0  0  0  0  0999 V2000
    0.8610   14.7150   -4.8690 C   0  0  0  0  0  0  0  0  0  0  0  0
    0.5900   14.1850   -3.4580 C   0  0  2  0  0  0  0  0  0  0  0  0
    1.7950   14.3890   -2.5190 C   0  0  0  0  0  0  0  0  0  0  0  0
    1.5420   15.4110   -1.4070 C   0  0  0  0  0  0  0  0  0  0  0  0
    1.1470   16.7460   -1.9600 C   0  0  2  0  0  0  0  0  0  0  0  0
    2.0740   17.3030   -2.9000 O   0  0  0  0  0  0  0  0  0  0  0  0
    1.9050   18.0290   -1.6720 C   0  0  0  0  0  0  0  0  0  0  0  0
    3.1200   18.0380   -0.7980 C   0  0  0  0  0  0  0  0  0  0  0  0
    1.1910   19.3340   -1.8360 C   0  0  0  0  0  0  0  0  0  0  0  0
    0.2230   12.7060   -3.5200 C   0  0  1  0  0  0  0  0  0  0  0  0
    1.4430   11.8010   -3.8390 C   0  0  0  0  0  0  0  0  0  0  0  0
    1.2370   10.4810   -3.0520 C   0  0  0  0  0  0  0  0  0  0  0  0
   -0.2340   10.5340   -2.5790 C   0  0  1  0  0  0  0  0  0  0  0  0
   -1.0700   10.0750   -3.8150 C   0  0  0  0  0  0  0  0  0  0  0  0
   -0.5810    9.6960   -1.3050 C   0  0  2  0  0  0  0  0  0  0  0  0
   -0.3790    8.1780   -1.4480 C   0  0  0  0  0  0  0  0  0  0  0  0
   -1.5710    7.4180   -1.9280 C   0  0  0  0  0  0  0  0  0  0  0  0
   -2.8330    7.8830   -1.9620 C   0  0  0  0  0  0  0  0  0  0  0  0
   -3.1790    9.2660   -1.3950 C   0  0  1  0  0  0  0  0  0  0  0  0
   -4.4470    9.1600   -0.5080 C   0  0  0  0  0  0  0  0  0  0  0  0
   -5.6220    8.5200   -1.2420 C   0  0  0  0  0  0  0  0  0  0  0  0
   -5.2580    7.1240   -1.7400 C   0  0  2  0  0  0  0  0  0  0  0  0
   -5.0630    6.2680   -0.6110 O   0  0  0  0  0  0  0  0  0  0  0  0
   -3.9890    7.1040   -2.6370 C   0  0  0  0  0  0  0  0  0  0  0  0
   -4.3010    7.7780   -3.9960 C   0  0  0  0  0  0  0  0  0  0  0  0
   -3.6520    5.6220   -2.9550 C   0  0  0  0  0  0  0  0  0  0  0  0
   -1.9910   10.0350   -0.6710 C   0  0  1  0  0  0  0  0  0  0  0  0
   -1.9180    9.6110    0.8280 C   0  0  0  0  0  0  0  0  0  0  0  0
   -2.2960   11.5790   -0.6810 C   0  0  0  0  0  0  0  0  0  0  0  0
   -1.8230   12.3730   -1.9140 C   0  0  0  0  0  0  0  0  0  0  0  0
   -0.3580   12.0630   -2.2360 C   0  0  2  0  0  0  0  0  0  0  0  0
    0.5100   12.5340   -1.0200 C   0  0  0  0  0  0  0  0  0  0  0  0
    1.3609   15.6927   -4.8037 H   0  0  0  0  0  0  0  0  0  0  0  0
    1.5080   14.0076   -5.4084 H   0  0  0  0  0  0  0  0  0  0  0  0
   -0.0913   14.8254   -5.4084 H   0  0  0  0  0  0  0  0  0  0  0  0
   -0.2514   14.7606   -3.0447 H   0  0  0  0  0  0  0  0  0  0  0  0
    2.0403   13.4229   -2.0537 H   0  0  0  0  0  0  0  0  0  0  0  0
    2.6193   14.7798   -3.1337 H   0  0  0  0  0  0  0  0  0  0  0  0
    0.7338   15.0403   -0.7594 H   0  0  0  0  0  0  0  0  0  0  0  0
    2.4756   15.5379   -0.8394 H   0  0  0  0  0  0  0  0  0  0  0  0
    0.0805   16.4867   -1.8866 H   0  0  0  0  0  0  0  0  0  0  0  0
    2.8121   18.0357    0.2580 H   0  0  0  0  0  0  0  0  0  0  0  0
    3.7271   17.1443   -1.0048 H   0  0  0  0  0  0  0  0  0  0  0  0
    3.7138   18.9406   -1.0048 H   0  0  0  0  0  0  0  0  0  0  0  0
    0.9615   19.7534   -0.8453 H   0  0  0  0  0  0  0  0  0  0  0  0
    1.8313   20.0350   -2.3916 H   0  0  0  0  0  0  0  0  0  0  0  0
    0.2554   19.1728   -2.3916 H   0  0  0  0  0  0  0  0  0  0  0  0
   -0.5471   12.7395   -4.3048 H   0  0  0  0  0  0  0  0  0  0  0  0
    1.4903   11.5952   -4.9185 H   0  0  0  0  0  0  0  0  0  0  0  0
    2.3848   12.2906   -3.5505 H   0  0  0  0  0  0  0  0  0  0  0  0
    1.4043    9.6105   -3.7033 H   0  0  0  0  0  0  0  0  0  0  0  0
    1.9415   10.3814   -2.2131 H   0  0  0  0  0  0  0  0  0  0  0  0
   -1.9861    9.5720   -3.4717 H   0  0  0  0  0  0  0  0  0  0  0  0
   -1.3387   10.9521   -4.4221 H   0  0  0  0  0  0  0  0  0  0  0  0
   -0.4742    9.3775   -4.4221 H   0  0  0  0  0  0  0  0  0  0  0  0
    0.1811   10.0318   -0.5863 H   0  0  0  0  0  0  0  0  0  0  0  0
    0.4410    8.0101   -2.1617 H   0  0  0  0  0  0  0  0  0  0  0  0
   -0.1665    7.8028   -0.4360 H   0  0  0  0  0  0  0  0  0  0  0  0
   -1.4032    6.3908   -2.2840 H   0  0  0  0  0  0  0  0  0  0  0  0
   -3.3843    9.9082   -2.2642 H   0  0  0  0  0  0  0  0  0  0  0  0
   -4.2091    8.5503    0.3761 H   0  0  0  0  0  0  0  0  0  0  0  0
   -4.7446   10.1810   -0.2271 H   0  0  0  0  0  0  0  0  0  0  0  0
   -6.4781    8.4455   -0.5553 H   0  0  0  0  0  0  0  0  0  0  0  0
   -5.8782    9.1467   -2.1090 H   0  0  0  0  0  0  0  0  0  0  0  0
   -6.0899    6.7708   -2.3671 H   0  0  0  0  0  0  0  0  0  0  0  0
   -5.9220    5.8670   -0.3930 H   0  0  0  0  0  0  0  0  0  0  0  0
   -4.7572    8.7634   -3.8204 H   0  0  0  0  0  0  0  0  0  0  0  0
   -3.3687    7.9019   -4.5664 H   0  0  0  0  0  0  0  0  0  0  0  0
   -4.9988    7.1473   -4.5664 H   0  0  0  0  0  0  0  0  0  0  0  0
   -3.5253    5.0649   -2.0150 H   0  0  0  0  0  0  0  0  0  0  0  0
   -4.4718    5.1764   -3.5376 H   0  0  0  0  0  0  0  0  0  0  0  0
   -2.7202    5.5747   -3.5376 H   0  0  0  0  0  0  0  0  0  0  0  0
   -2.0700   10.4937    1.4665 H   0  0  0  0  0  0  0  0  0  0  0  0
   -2.7014    8.8677    1.0374 H   0  0  0  0  0  0  0  0  0  0  0  0
   -0.9311    9.1725    1.0374 H   0  0  0  0  0  0  0  0  0  0  0  0
   -3.3862   11.7033   -0.6034 H   0  0  0  0  0  0  0  0  0  0  0  0
   -1.7236   11.9908    0.1633 H   0  0  0  0  0  0  0  0  0  0  0  0
   -2.4468   12.1011   -2.7782 H   0  0  0  0  0  0  0  0  0  0  0  0
   -1.9147   13.4473   -1.6961 H   0  0  0  0  0  0  0  0  0  0  0  0
    0.0056   12.2603   -0.0816 H   0  0  0  0  0  0  0  0  0  0  0  0
    1.4953   12.0468   -1.0623 H   0  0  0  0  0  0  0  0  0  0  0  0
    0.6386   13.6256   -1.0623 H   0  0  0  0  0  0  0  0  0  0  0  0
  1  2  1  0
  2  3  1  0
  3  4  1  0
  4  5  1  0
  5  6  1  0
  6  7  1  0
  7  8  1  0
  7  9  1  0
  2 10  1  0
 10 11  1  0
 11 12  1  0
 12 13  1  0
 13 14  1  6
 13 15  1  0
 15 16  1  0
 16 17  1  0
 17 18  2  0
 18 19  1  0
 19 20  1  0
 20 21  1  0
 21 22  1  0
 22 23  1  0
 22 24  1  0
 24 25  1  0
 24 26  1  0
 19 27  1  0
 27 28  1  1
 27 29  1  0
 29 30  1  0
 30 31  1  0
 31 32  1  1
  7  5  1  0
 31 10  1  0
 31 13  1  0
 27 15  1  0
 24 18  1  0
  1 33  1  0
  1 34  1  0
  1 35  1  0
  2 36  1  1
  3 37  1  0
  3 38  1  0
  4 39  1  0
  4 40  1  0
  5 41  1  6
  8 42  1  0
  8 43  1  0
  8 44  1  0
  9 45  1  0
  9 46  1  0
  9 47  1  0
 10 48  1  6
 11 49  1  0
 11 50  1  0
 12 51  1  0
 12 52  1  0
 14 53  1  0
 14 54  1  0
 14 55  1  0
 15 56  1  1
 16 57  1  0
 16 58  1  0
 17 59  1  0
 19 60  1  6
 20 61  1  0
 20 62  1  0
 21 63  1  0
 21 64  1  0
 22 65  1  6
 23 66  1  0
 25 67  1  0
 25 68  1  0
 25 69  1  0
 26 70  1  0
 26 71  1  0
 26 72  1  0
 28 73  1  0
 28 74  1  0
 28 75  1  0
 29 76  1  0
 29 77  1  0
 30 78  1  0
 30 79  1  0
 32 80  1  0
 32 81  1  0
 32 82  1  0
M  END
>  <meeko>  (19) 
{"is_sidechain": [false], "intermolecular_energy": 2.731, "internal_energy": -0.839}

$$$$
