EPH_relaxed_0001_pdb2pqr_Repair_387_r2_0001_out
     RDKit          3D

 82 86  0  0  0  0  0  0  0  0999 V2000
   -1.8410    8.7950   -1.8960 C   0  0  0  0  0  0  0  0  0  0  0  0
   -1.8170    9.0420   -0.3850 C   0  0  2  0  0  0  0  0  0  0  0  0
   -3.2350    9.2090    0.1980 C   0  0  0  0  0  0  0  0  0  0  0  0
   -4.3410    9.1990   -0.8600 C   0  0  0  0  0  0  0  0  0  0  0  0
   -5.1110    7.9120   -0.8450 C   0  0  2  0  0  0  0  0  0  0  0  0
   -5.4160    7.3820   -2.1410 O   0  0  0  0  0  0  0  0  0  0  0  0
   -6.5390    7.7860   -1.3410 C   0  0  0  0  0  0  0  0  0  0  0  0
   -7.2820    8.9650   -1.8870 C   0  0  0  0  0  0  0  0  0  0  0  0
   -7.3700    6.6430   -0.8470 C   0  0  0  0  0  0  0  0  0  0  0  0
   -0.9770   10.2750   -0.0730 C   0  0  1  0  0  0  0  0  0  0  0  0
    0.1120   10.0010    0.9980 C   0  0  0  0  0  0  0  0  0  0  0  0
    1.3420   10.8640    0.6160 C   0  0  0  0  0  0  0  0  0  0  0  0
    0.8130   11.8450   -0.4550 C   0  0  1  0  0  0  0  0  0  0  0  0
    0.1100   12.9810    0.3530 C   0  0  0  0  0  0  0  0  0  0  0  0
    1.8720   12.4180   -1.4520 C   0  0  2  0  0  0  0  0  0  0  0  0
    2.9830   13.2660   -0.8070 C   0  0  0  0  0  0  0  0  0  0  0  0
    2.6950   14.7280   -0.7130 C   0  0  0  0  0  0  0  0  0  0  0  0
    1.7220   15.3780   -1.3780 C   0  0  0  0  0  0  0  0  0  0  0  0
    0.8500   14.6500   -2.4080 C   0  0  1  0  0  0  0  0  0  0  0  0
    0.7400   15.5100   -3.6950 C   0  0  0  0  0  0  0  0  0  0  0  0
    0.2490   16.9260   -3.4120 C   0  0  0  0  0  0  0  0  0  0  0  0
    1.1740   17.6380   -2.4280 C   0  0  2  0  0  0  0  0  0  0  0  0
    2.4440   17.8430   -3.0560 O   0  0  0  0  0  0  0  0  0  0  0  0
    1.3690   16.8600   -1.0970 C   0  0  0  0  0  0  0  0  0  0  0  0
    0.0570   16.8990   -0.2750 C   0  0  0  0  0  0  0  0  0  0  0  0
    2.4320   17.6140   -0.2540 C   0  0  0  0  0  0  0  0  0  0  0  0
    1.2510   13.1420   -2.7140 C   0  0  1  0  0  0  0  0  0  0  0  0
    2.3360   13.0970   -3.8330 C   0  0  0  0  0  0  0  0  0  0  0  0
   -0.0050   12.3820   -3.2820 C   0  0  0  0  0  0  0  0  0  0  0  0
   -0.9510   11.7350   -2.2520 C   0  0  0  0  0  0  0  0  0  0  0  0
   -0.1660   10.8960   -1.2380 C   0  0  2  0  0  0  0  0  0  0  0  0
    0.5340    9.7330   -2.0200 C   0  0  0  0  0  0  0  0  0  0  0  0
   -1.9457    7.7173   -2.0897 H   0  0  0  0  0  0  0  0  0  0  0  0
   -2.6912    9.3320   -2.3419 H   0  0  0  0  0  0  0  0  0  0  0  0
   -0.9033    9.1583   -2.3419 H   0  0  0  0  0  0  0  0  0  0  0  0
   -1.3673    8.1567    0.0882 H   0  0  0  0  0  0  0  0  0  0  0  0
   -3.4204    8.3842    0.9018 H   0  0  0  0  0  0  0  0  0  0  0  0
   -3.2673   10.1938    0.6871 H   0  0  0  0  0  0  0  0  0  0  0  0
   -5.0327   10.0307   -0.6605 H   0  0  0  0  0  0  0  0  0  0  0  0
   -3.8709    9.3060   -1.8487 H   0  0  0  0  0  0  0  0  0  0  0  0
   -4.6264    7.6056    0.0938 H   0  0  0  0  0  0  0  0  0  0  0  0
   -7.6657    9.5739   -1.0551 H   0  0  0  0  0  0  0  0  0  0  0  0
   -6.6033    9.5726   -2.5036 H   0  0  0  0  0  0  0  0  0  0  0  0
   -8.1230    8.6149   -2.5036 H   0  0  0  0  0  0  0  0  0  0  0  0
   -7.3723    6.6399    0.2530 H   0  0  0  0  0  0  0  0  0  0  0  0
   -8.4006    6.7528   -1.2155 H   0  0  0  0  0  0  0  0  0  0  0  0
   -6.9477    5.6965   -1.2155 H   0  0  0  0  0  0  0  0  0  0  0  0
   -1.7732   10.9656    0.2417 H   0  0  0  0  0  0  0  0  0  0  0  0
   -0.2563   10.2865    1.9944 H   0  0  0  0  0  0  0  0  0  0  0  0
    0.3737    8.9331    1.0311 H   0  0  0  0  0  0  0  0  0  0  0  0
    1.7190   11.4120    1.4921 H   0  0  0  0  0  0  0  0  0  0  0  0
    2.1800   10.2550    0.2461 H   0  0  0  0  0  0  0  0  0  0  0  0
    0.2273   12.7914    1.4302 H   0  0  0  0  0  0  0  0  0  0  0  0
    0.5674   13.9486    0.0991 H   0  0  0  0  0  0  0  0  0  0  0  0
   -0.9601   13.0034    0.0991 H   0  0  0  0  0  0  0  0  0  0  0  0
    2.3663   11.5067   -1.8197 H   0  0  0  0  0  0  0  0  0  0  0  0
    3.1524   12.8866    0.2115 H   0  0  0  0  0  0  0  0  0  0  0  0
    3.8600   13.1698   -1.4640 H   0  0  0  0  0  0  0  0  0  0  0  0
    3.3321   15.3245   -0.0434 H   0  0  0  0  0  0  0  0  0  0  0  0
   -0.1421   14.5434   -1.9449 H   0  0  0  0  0  0  0  0  0  0  0  0
    1.7324   15.5684   -4.1659 H   0  0  0  0  0  0  0  0  0  0  0  0
    0.0055   15.0280   -4.3569 H   0  0  0  0  0  0  0  0  0  0  0  0
    0.2214   17.4925   -4.3545 H   0  0  0  0  0  0  0  0  0  0  0  0
   -0.7561   16.8670   -2.9690 H   0  0  0  0  0  0  0  0  0  0  0  0
    0.7012   18.5956   -2.1645 H   0  0  0  0  0  0  0  0  0  0  0  0
    2.3260   18.5180   -3.7450 H   0  0  0  0  0  0  0  0  0  0  0  0
    0.2966   16.8919    0.7986 H   0  0  0  0  0  0  0  0  0  0  0  0
   -0.5020   17.8142   -0.5199 H   0  0  0  0  0  0  0  0  0  0  0  0
   -0.5554   16.0187   -0.5199 H   0  0  0  0  0  0  0  0  0  0  0  0
    2.2237   17.4662    0.8159 H   0  0  0  0  0  0  0  0  0  0  0  0
    3.4325   17.2225   -0.4903 H   0  0  0  0  0  0  0  0  0  0  0  0
    2.3932   18.6876   -0.4903 H   0  0  0  0  0  0  0  0  0  0  0  0
    3.3347   13.0556   -3.3739 H   0  0  0  0  0  0  0  0  0  0  0  0
    2.1821   12.2045   -4.4573 H   0  0  0  0  0  0  0  0  0  0  0  0
    2.2566   13.9992   -4.4573 H   0  0  0  0  0  0  0  0  0  0  0  0
   -0.5939   13.1036   -3.8672 H   0  0  0  0  0  0  0  0  0  0  0  0
    0.4052   11.5426   -3.8626 H   0  0  0  0  0  0  0  0  0  0  0  0
   -1.4973   12.5265   -1.7181 H   0  0  0  0  0  0  0  0  0  0  0  0
   -1.6520   11.0758   -2.7850 H   0  0  0  0  0  0  0  0  0  0  0  0
    0.9648    9.0172   -1.3044 H   0  0  0  0  0  0  0  0  0  0  0  0
   -0.2052    9.2194   -2.6524 H   0  0  0  0  0  0  0  0  0  0  0  0
    1.3339   10.1457   -2.6524 H   0  0  0  0  0  0  0  0  0  0  0  0
  1  2  1  0
  2  3  1  0
  3  4  1  0
  4  5  1  0
  5  6  1  0
  6  7  1  0
  7  8  1  0
  7  9  1  0
  2 10  1  0
 10 11  1  0
 11 12  1  0
 12 13  1  0
 13 14  1  1
 13 15  1  0
 15 16  1  0
 16 17  1  0
 17 18  2  0
 18 19  1  0
 19 20  1  0
 20 21  1  0
 21 22  1  0
 22 23  1  0
 22 24  1  0
 24 25  1  0
 24 26  1  0
 19 27  1  0
 27 28  1  6
 27 29  1  0
 29 30  1  0
 30 31  1  0
 31 32  1  6
  7  5  1  0
 31 10  1  0
 31 13  1  0
 27 15  1  0
 24 18  1  0
  1 33  1  0
  1 34  1  0
  1 35  1  0
  2 36  1  1
  3 37  1  0
  3 38  1  0
  4 39  1  0
  4 40  1  0
  5 41  1  1
  8 42  1  0
  8 43  1  0
  8 44  1  0
  9 45  1  0
  9 46  1  0
  9 47  1  0
 10 48  1  1
 11 49  1  0
 11 50  1  0
 12 51  1  0
 12 52  1  0
 14 53  1  0
 14 54  1  0
 14 55  1  0
 15 56  1  6
 16 57  1  0
 16 58  1  0
 17 59  1  0
 19 60  1  1
 20 61  1  0
 20 62  1  0
 21 63  1  0
 21 64  1  0
 22 65  1  1
 23 66  1  0
 25 67  1  0
 25 68  1  0
 25 69  1  0
 26 70  1  0
 26 71  1  0
 26 72  1  0
 28 73  1  0
 28 74  1  0
 28 75  1  0
 29 76  1  0
 29 77  1  0
 30 78  1  0
 30 79  1  0
 32 80  1  0
 32 81  1  0
 32 82  1  0
M  END
>  <meeko>  (1) 
{"is_sidechain": [false], "intermolecular_energy": 2.731, "internal_energy": -0.839}

$$$$
EPH_relaxed_0001_pdb2pqr_Repair_387_r2_0001_out
     RDKit          3D

 82 86  0  0  0  0  0  0  0  0999 V2000
    4.2760   17.5500   -0.5840 C   0  0  0  0  0  0  0  0  0  0  0  0
    2.9130   18.1320   -0.2000 C   0  0  2  0  0  0  0  0  0  0  0  0
    2.9520   18.8470    1.1660 C   0  0  0  0  0  0  0  0  0  0  0  0
    4.3170   18.7830    1.8560 C   0  0  0  0  0  0  0  0  0  0  0  0
    4.2520   19.2990    3.2620 C   0  0  2  0  0  0  0  0  0  0  0  0
    5.3130   20.1940    3.6200 O   0  0  0  0  0  0  0  0  0  0  0  0
    5.2700   18.9460    4.3300 C   0  0  0  0  0  0  0  0  0  0  0  0
    6.4250   18.0400    4.0390 C   0  0  0  0  0  0  0  0  0  0  0  0
    4.8760   19.0840    5.7680 C   0  0  0  0  0  0  0  0  0  0  0  0
    1.8630   17.0280   -0.1800 C   0  0  1  0  0  0  0  0  0  0  0  0
    0.4310   17.5610   -0.4580 C   0  0  0  0  0  0  0  0  0  0  0  0
   -0.3080   16.4590   -1.2590 C   0  0  0  0  0  0  0  0  0  0  0  0
    0.5950   15.2100   -1.1310 C   0  0  1  0  0  0  0  0  0  0  0  0
    0.2470   14.6050    0.2650 C   0  0  0  0  0  0  0  0  0  0  0  0
    0.4690   14.1460   -2.2690 C   0  0  2  0  0  0  0  0  0  0  0  0
   -0.9150   13.4870   -2.3970 C   0  0  0  0  0  0  0  0  0  0  0  0
   -1.1050   12.2420   -1.5950 C   0  0  0  0  0  0  0  0  0  0  0  0
   -0.1210   11.5170   -1.0310 C   0  0  0  0  0  0  0  0  0  0  0  0
    1.3520   11.8800   -1.2560 C   0  0  1  0  0  0  0  0  0  0  0  0
    2.1540   10.5980   -1.6030 C   0  0  0  0  0  0  0  0  0  0  0  0
    1.9760    9.4970   -0.5610 C   0  0  0  0  0  0  0  0  0  0  0  0
    0.5040    9.1240   -0.4080 C   0  0  2  0  0  0  0  0  0  0  0  0
    0.0550    8.5120   -1.6220 O   0  0  0  0  0  0  0  0  0  0  0  0
   -0.4040   10.3380   -0.0680 C   0  0  0  0  0  0  0  0  0  0  0  0
   -0.1180   10.8130    1.3790 C   0  0  0  0  0  0  0  0  0  0  0  0
   -1.8780    9.8510   -0.0800 C   0  0  0  0  0  0  0  0  0  0  0  0
    1.6260   13.0660   -2.2780 C   0  0  1  0  0  0  0  0  0  0  0  0
    1.7040   12.5080   -3.7320 C   0  0  0  0  0  0  0  0  0  0  0  0
    3.0350   13.6960   -1.9680 C   0  0  0  0  0  0  0  0  0  0  0  0
    3.0770   14.8250   -0.9210 C   0  0  0  0  0  0  0  0  0  0  0  0
    2.0120   15.8860   -1.2160 C   0  0  2  0  0  0  0  0  0  0  0  0
    2.3500   16.5280   -2.6050 C   0  0  0  0  0  0  0  0  0  0  0  0
    4.8417   17.3085    0.3280 H   0  0  0  0  0  0  0  0  0  0  0  0
    4.1301   16.6357   -1.1779 H   0  0  0  0  0  0  0  0  0  0  0  0
    4.8355   18.2877   -1.1779 H   0  0  0  0  0  0  0  0  0  0  0  0
    2.6478   18.8828   -0.9589 H   0  0  0  0  0  0  0  0  0  0  0  0
    2.6900   19.9042    1.0121 H   0  0  0  0  0  0  0  0  0  0  0  0
    2.2365   18.3280    1.8207 H   0  0  0  0  0  0  0  0  0  0  0  0
    4.6580   17.7374    1.8754 H   0  0  0  0  0  0  0  0  0  0  0  0
    5.0172   19.4155    1.2905 H   0  0  0  0  0  0  0  0  0  0  0  0
    3.1526   19.2631    3.2500 H   0  0  0  0  0  0  0  0  0  0  0  0
    6.8667   17.6936    4.9850 H   0  0  0  0  0  0  0  0  0  0  0  0
    6.0743   17.1736    3.4591 H   0  0  0  0  0  0  0  0  0  0  0  0
    7.1830   18.5869    3.4591 H   0  0  0  0  0  0  0  0  0  0  0  0
    5.7195   18.7886    6.4093 H   0  0  0  0  0  0  0  0  0  0  0  0
    4.6064   20.1301    5.9756 H   0  0  0  0  0  0  0  0  0  0  0  0
    4.0126   18.4348    5.9756 H   0  0  0  0  0  0  0  0  0  0  0  0
    2.0244   16.6380    0.8358 H   0  0  0  0  0  0  0  0  0  0  0  0
   -0.0917   17.7552    0.4902 H   0  0  0  0  0  0  0  0  0  0  0  0
    0.4632   18.5050   -1.0218 H   0  0  0  0  0  0  0  0  0  0  0  0
   -1.3013   16.2657   -0.8276 H   0  0  0  0  0  0  0  0  0  0  0  0
   -0.4748   16.7469   -2.3075 H   0  0  0  0  0  0  0  0  0  0  0  0
    0.6278   15.2670    1.0567 H   0  0  0  0  0  0  0  0  0  0  0  0
   -0.8446   14.5086    0.3611 H   0  0  0  0  0  0  0  0  0  0  0  0
    0.7125   13.6130    0.3611 H   0  0  0  0  0  0  0  0  0  0  0  0
    0.5940   14.7561   -3.1758 H   0  0  0  0  0  0  0  0  0  0  0  0
   -1.6708   14.2181   -2.0740 H   0  0  0  0  0  0  0  0  0  0  0  0
   -1.0135   13.1881   -3.4510 H   0  0  0  0  0  0  0  0  0  0  0  0
   -2.1365   11.8872   -1.4530 H   0  0  0  0  0  0  0  0  0  0  0  0
    1.7105   12.2988   -0.3041 H   0  0  0  0  0  0  0  0  0  0  0  0
    1.8109   10.2202   -2.5774 H   0  0  0  0  0  0  0  0  0  0  0  0
    3.2204   10.8670   -1.6261 H   0  0  0  0  0  0  0  0  0  0  0  0
    2.5418    8.6079   -0.8764 H   0  0  0  0  0  0  0  0  0  0  0  0
    2.3473    9.8658    0.4066 H   0  0  0  0  0  0  0  0  0  0  0  0
    0.4267    8.4280    0.4403 H   0  0  0  0  0  0  0  0  0  0  0  0
    0.0710    9.1920   -2.3170 H   0  0  0  0  0  0  0  0  0  0  0  0
   -0.5499   10.0957    2.0925 H   0  0  0  0  0  0  0  0  0  0  0  0
    0.9689   10.8769    1.5359 H   0  0  0  0  0  0  0  0  0  0  0  0
   -0.5700   11.8035    1.5359 H   0  0  0  0  0  0  0  0  0  0  0  0
   -2.2338    9.7335    0.9542 H   0  0  0  0  0  0  0  0  0  0  0  0
   -2.5041   10.5900   -0.6014 H   0  0  0  0  0  0  0  0  0  0  0  0
   -1.9406    8.8844   -0.6014 H   0  0  0  0  0  0  0  0  0  0  0  0
    1.8562   11.4191   -3.6992 H   0  0  0  0  0  0  0  0  0  0  0  0
    0.7659   12.7313   -4.2613 H   0  0  0  0  0  0  0  0  0  0  0  0
    2.5449   12.9800   -4.2613 H   0  0  0  0  0  0  0  0  0  0  0  0
    3.6897   12.8872   -1.6114 H   0  0  0  0  0  0  0  0  0  0  0  0
    3.3532   14.1660   -2.9103 H   0  0  0  0  0  0  0  0  0  0  0  0
    2.8933   14.3982    0.0760 H   0  0  0  0  0  0  0  0  0  0  0  0
    4.0674   15.3020   -0.9590 H   0  0  0  0  0  0  0  0  0  0  0  0
    2.8573   17.4916   -2.4498 H   0  0  0  0  0  0  0  0  0  0  0  0
    3.0097   15.8531   -3.1701 H   0  0  0  0  0  0  0  0  0  0  0  0
    1.4202   16.6899   -3.1701 H   0  0  0  0  0  0  0  0  0  0  0  0
  1  2  1  0
  2  3  1  0
  3  4  1  0
  4  5  1  0
  5  6  1  0
  6  7  1  0
  7  8  1  0
  7  9  1  0
  2 10  1  0
 10 11  1  0
 11 12  1  0
 12 13  1  0
 13 14  1  1
 13 15  1  0
 15 16  1  0
 16 17  1  0
 17 18  2  0
 18 19  1  0
 19 20  1  0
 20 21  1  0
 21 22  1  0
 22 23  1  0
 22 24  1  0
 24 25  1  0
 24 26  1  0
 19 27  1  0
 27 28  1  6
 27 29  1  0
 29 30  1  0
 30 31  1  0
 31 32  1  6
  7  5  1  0
 31 10  1  0
 31 13  1  0
 27 15  1  0
 24 18  1  0
  1 33  1  0
  1 34  1  0
  1 35  1  0
  2 36  1  6
  3 37  1  0
  3 38  1  0
  4 39  1  0
  4 40  1  0
  5 41  1  1
  8 42  1  0
  8 43  1  0
  8 44  1  0
  9 45  1  0
  9 46  1  0
  9 47  1  0
 10 48  1  1
 11 49  1  0
 11 50  1  0
 12 51  1  0
 12 52  1  0
 14 53  1  0
 14 54  1  0
 14 55  1  0
 15 56  1  6
 16 57  1  0
 16 58  1  0
 17 59  1  0
 19 60  1  1
 20 61  1  0
 20 62  1  0
 21 63  1  0
 21 64  1  0
 22 65  1  1
 23 66  1  0
 25 67  1  0
 25 68  1  0
 25 69  1  0
 26 70  1  0
 26 71  1  0
 26 72  1  0
 28 73  1  0
 28 74  1  0
 28 75  1  0
 29 76  1  0
 29 77  1  0
 30 78  1  0
 30 79  1  0
 32 80  1  0
 32 81  1  0
 32 82  1  0
M  END
>  <meeko>  (2) 
{"is_sidechain": [false], "intermolecular_energy": 2.731, "internal_energy": -0.839}

$$$$
EPH_relaxed_0001_pdb2pqr_Repair_387_r2_0001_out
     RDKit          3D

 82 86  0  0  0  0  0  0  0  0999 V2000
    0.4360   18.4030   -0.0280 C   0  0  0  0  0  0  0  0  0  0  0  0
    1.5200   17.3450   -0.2490 C   0  0  2  0  0  0  0  0  0  0  0  0
    2.7330   17.9080   -1.0170 C   0  0  0  0  0  0  0  0  0  0  0  0
    3.9610   18.1510   -0.1350 C   0  0  0  0  0  0  0  0  0  0  0  0
    3.5760   18.6270    1.2330 C   0  0  2  0  0  0  0  0  0  0  0  0
    3.8150   20.0200    1.4710 O   0  0  0  0  0  0  0  0  0  0  0  0
    4.5800   19.1010    2.2670 C   0  0  0  0  0  0  0  0  0  0  0  0
    6.0480   19.1210    1.9780 C   0  0  0  0  0  0  0  0  0  0  0  0
    4.1840   19.0790    3.7110 C   0  0  0  0  0  0  0  0  0  0  0  0
    0.9380   16.1520   -0.9990 C   0  0  1  0  0  0  0  0  0  0  0  0
    0.8030   16.4120   -2.5230 C   0  0  0  0  0  0  0  0  0  0  0  0
    1.0830   15.0630   -3.2330 C   0  0  0  0  0  0  0  0  0  0  0  0
    1.0410   14.0100   -2.1000 C   0  0  1  0  0  0  0  0  0  0  0  0
   -0.4770   13.7210   -1.8770 C   0  0  0  0  0  0  0  0  0  0  0  0
    1.8480   12.6940   -2.3500 C   0  0  2  0  0  0  0  0  0  0  0  0
    1.3690   11.8510   -3.5440 C   0  0  0  0  0  0  0  0  0  0  0  0
    0.3340   10.8240   -3.2260 C   0  0  0  0  0  0  0  0  0  0  0  0
    0.0160   10.3910   -1.9920 C   0  0  0  0  0  0  0  0  0  0  0  0
    0.7950   10.8750   -0.7620 C   0  0  1  0  0  0  0  0  0  0  0  0
    1.1490    9.6620    0.1380 C   0  0  0  0  0  0  0  0  0  0  0  0
   -0.0760    8.8330    0.5120 C   0  0  0  0  0  0  0  0  0  0  0  0
   -0.7900    8.3210   -0.7370 C   0  0  2  0  0  0  0  0  0  0  0  0
    0.0600    7.3810   -1.4010 O   0  0  0  0  0  0  0  0  0  0  0  0
   -1.1880    9.4540   -1.7230 C   0  0  0  0  0  0  0  0  0  0  0  0
   -2.3330   10.2980   -1.1120 C   0  0  0  0  0  0  0  0  0  0  0  0
   -1.7710    8.7920   -3.0010 C   0  0  0  0  0  0  0  0  0  0  0  0
    2.0500   11.8030   -1.0580 C   0  0  1  0  0  0  0  0  0  0  0  0
    3.3120   10.9240   -1.3160 C   0  0  0  0  0  0  0  0  0  0  0  0
    2.3650   12.6660    0.2210 C   0  0  0  0  0  0  0  0  0  0  0  0
    1.6240   14.0110    0.3510 C   0  0  0  0  0  0  0  0  0  0  0  0
    1.7300   14.8220   -0.9440 C   0  0  2  0  0  0  0  0  0  0  0  0
    3.2440   15.1470   -1.1830 C   0  0  0  0  0  0  0  0  0  0  0  0
    0.2835   18.5518    1.0512 H   0  0  0  0  0  0  0  0  0  0  0  0
    0.7501   19.3515   -0.4882 H   0  0  0  0  0  0  0  0  0  0  0  0
   -0.5046   18.0660   -0.4882 H   0  0  0  0  0  0  0  0  0  0  0  0
    1.8753   17.0244    0.7414 H   0  0  0  0  0  0  0  0  0  0  0  0
    3.0078   17.1918   -1.8053 H   0  0  0  0  0  0  0  0  0  0  0  0
    2.4310   18.8844   -1.4238 H   0  0  0  0  0  0  0  0  0  0  0  0
    4.5233   17.2104   -0.0399 H   0  0  0  0  0  0  0  0  0  0  0  0
    4.5746   18.9311   -0.6092 H   0  0  0  0  0  0  0  0  0  0  0  0
    2.7554   17.8961    1.2823 H   0  0  0  0  0  0  0  0  0  0  0  0
    6.6080   19.1286    2.9247 H   0  0  0  0  0  0  0  0  0  0  0  0
    6.3198   18.2265    1.3984 H   0  0  0  0  0  0  0  0  0  0  0  0
    6.2954   20.0226    1.3984 H   0  0  0  0  0  0  0  0  0  0  0  0
    5.0856   19.1291    4.3392 H   0  0  0  0  0  0  0  0  0  0  0  0
    3.5380   19.9426    3.9272 H   0  0  0  0  0  0  0  0  0  0  0  0
    3.6376   18.1491    3.9272 H   0  0  0  0  0  0  0  0  0  0  0  0
   -0.0155   16.0439   -0.4613 H   0  0  0  0  0  0  0  0  0  0  0  0
   -0.2132   16.7607   -2.7593 H   0  0  0  0  0  0  0  0  0  0  0  0
    1.5088   17.1874   -2.8555 H   0  0  0  0  0  0  0  0  0  0  0  0
    0.3101   14.8532   -3.9871 H   0  0  0  0  0  0  0  0  0  0  0  0
    2.0450   15.0639   -3.7664 H   0  0  0  0  0  0  0  0  0  0  0  0
   -0.6880   13.6808   -0.7982 H   0  0  0  0  0  0  0  0  0  0  0  0
   -1.0742   14.5216   -2.3379 H   0  0  0  0  0  0  0  0  0  0  0  0
   -0.7383   12.7570   -2.3379 H   0  0  0  0  0  0  0  0  0  0  0  0
    2.8398   13.0761   -2.6335 H   0  0  0  0  0  0  0  0  0  0  0  0
    0.9490   12.5351   -4.2961 H   0  0  0  0  0  0  0  0  0  0  0  0
    2.2503   11.2952   -3.8966 H   0  0  0  0  0  0  0  0  0  0  0  0
   -0.2152   10.3838   -4.0713 H   0  0  0  0  0  0  0  0  0  0  0  0
    0.1192   11.5545   -0.2220 H   0  0  0  0  0  0  0  0  0  0  0  0
    1.8591    9.0181   -0.4016 H   0  0  0  0  0  0  0  0  0  0  0  0
    1.5840   10.0534    1.0694 H   0  0  0  0  0  0  0  0  0  0  0  0
    0.2425    7.9748    1.1219 H   0  0  0  0  0  0  0  0  0  0  0  0
   -0.7717    9.4699    1.0781 H   0  0  0  0  0  0  0  0  0  0  0  0
   -1.7273    7.8469   -0.4103 H   0  0  0  0  0  0  0  0  0  0  0  0
   -0.3030    6.4930   -1.2430 H   0  0  0  0  0  0  0  0  0  0  0  0
   -2.2747   10.2550   -0.0144 H   0  0  0  0  0  0  0  0  0  0  0  0
   -2.2360   11.3423   -1.4437 H   0  0  0  0  0  0  0  0  0  0  0  0
   -3.3018    9.8964   -1.4437 H   0  0  0  0  0  0  0  0  0  0  0  0
   -2.4728    7.9952   -2.7136 H   0  0  0  0  0  0  0  0  0  0  0  0
   -2.3006    9.5495   -3.5973 H   0  0  0  0  0  0  0  0  0  0  0  0
   -0.9526    8.3624   -3.5973 H   0  0  0  0  0  0  0  0  0  0  0  0
    3.7495   10.6193   -0.3539 H   0  0  0  0  0  0  0  0  0  0  0  0
    3.0250   10.0294   -1.8881 H   0  0  0  0  0  0  0  0  0  0  0  0
    4.0517   11.5033   -1.8881 H   0  0  0  0  0  0  0  0  0  0  0  0
    2.1109   12.0594    1.1027 H   0  0  0  0  0  0  0  0  0  0  0  0
    3.4292   12.9306    0.1350 H   0  0  0  0  0  0  0  0  0  0  0  0
    0.5632   13.8180    0.5690 H   0  0  0  0  0  0  0  0  0  0  0  0
    2.0853   14.5886    1.1656 H   0  0  0  0  0  0  0  0  0  0  0  0
    3.7530   15.2563   -0.2140 H   0  0  0  0  0  0  0  0  0  0  0  0
    3.7095   14.3283   -1.7514 H   0  0  0  0  0  0  0  0  0  0  0  0
    3.3325   16.0846   -1.7514 H   0  0  0  0  0  0  0  0  0  0  0  0
  1  2  1  0
  2  3  1  0
  3  4  1  0
  4  5  1  0
  5  6  1  0
  6  7  1  0
  7  8  1  0
  7  9  1  0
  2 10  1  0
 10 11  1  0
 11 12  1  0
 12 13  1  0
 13 14  1  1
 13 15  1  0
 15 16  1  0
 16 17  1  0
 17 18  2  0
 18 19  1  0
 19 20  1  0
 20 21  1  0
 21 22  1  0
 22 23  1  0
 22 24  1  0
 24 25  1  0
 24 26  1  0
 19 27  1  0
 27 28  1  6
 27 29  1  0
 29 30  1  0
 30 31  1  0
 31 32  1  6
  7  5  1  0
 31 10  1  0
 31 13  1  0
 27 15  1  0
 24 18  1  0
  1 33  1  0
  1 34  1  0
  1 35  1  0
  2 36  1  1
  3 37  1  0
  3 38  1  0
  4 39  1  0
  4 40  1  0
  5 41  1  1
  8 42  1  0
  8 43  1  0
  8 44  1  0
  9 45  1  0
  9 46  1  0
  9 47  1  0
 10 48  1  1
 11 49  1  0
 11 50  1  0
 12 51  1  0
 12 52  1  0
 14 53  1  0
 14 54  1  0
 14 55  1  0
 15 56  1  6
 16 57  1  0
 16 58  1  0
 17 59  1  0
 19 60  1  1
 20 61  1  0
 20 62  1  0
 21 63  1  0
 21 64  1  0
 22 65  1  1
 23 66  1  0
 25 67  1  0
 25 68  1  0
 25 69  1  0
 26 70  1  0
 26 71  1  0
 26 72  1  0
 28 73  1  0
 28 74  1  0
 28 75  1  0
 29 76  1  0
 29 77  1  0
 30 78  1  0
 30 79  1  0
 32 80  1  0
 32 81  1  0
 32 82  1  0
M  END
>  <meeko>  (3) 
{"is_sidechain": [false], "intermolecular_energy": 2.731, "internal_energy": -0.839}

$$$$
EPH_relaxed_0001_pdb2pqr_Repair_387_r2_0001_out
     RDKit          3D

 82 86  0  0  0  0  0  0  0  0999 V2000
    2.1320   18.0890   -2.8910 C   0  0  0  0  0  0  0  0  0  0  0  0
    0.9110   17.6330   -2.0860 C   0  0  2  0  0  0  0  0  0  0  0  0
    1.1640   17.6870   -0.5660 C   0  0  0  0  0  0  0  0  0  0  0  0
    0.8460   19.0470    0.0620 C   0  0  0  0  0  0  0  0  0  0  0  0
   -0.5940   19.1490    0.4630 C   0  0  2  0  0  0  0  0  0  0  0  0
   -1.4720   18.2450   -0.2210 O   0  0  0  0  0  0  0  0  0  0  0  0
   -1.6880   19.6440   -0.4650 C   0  0  0  0  0  0  0  0  0  0  0  0
   -1.3870   20.0710   -1.8670 C   0  0  0  0  0  0  0  0  0  0  0  0
   -2.9520   20.1730    0.1380 C   0  0  0  0  0  0  0  0  0  0  0  0
    0.5160   16.2190   -2.4980 C   0  0  1  0  0  0  0  0  0  0  0  0
    0.6660   15.9780   -4.0240 C   0  0  0  0  0  0  0  0  0  0  0  0
    1.1150   14.5040   -4.2010 C   0  0  0  0  0  0  0  0  0  0  0  0
    0.8880   13.8580   -2.8140 C   0  0  1  0  0  0  0  0  0  0  0  0
   -0.6360   13.5210   -2.7730 C   0  0  0  0  0  0  0  0  0  0  0  0
    1.7650   12.6060   -2.4840 C   0  0  2  0  0  0  0  0  0  0  0  0
    1.5460   11.3940   -3.4060 C   0  0  0  0  0  0  0  0  0  0  0  0
    0.4990   10.4300   -2.9540 C   0  0  0  0  0  0  0  0  0  0  0  0
   -0.0360   10.3780   -1.7200 C   0  0  0  0  0  0  0  0  0  0  0  0
    0.4800   11.2880   -0.5980 C   0  0  1  0  0  0  0  0  0  0  0  0
    0.6920   10.4520    0.6910 C   0  0  0  0  0  0  0  0  0  0  0  0
   -0.5580    9.6770    1.0970 C   0  0  0  0  0  0  0  0  0  0  0  0
   -1.0070    8.7410   -0.0220 C   0  0  2  0  0  0  0  0  0  0  0  0
   -0.0200    7.7190   -0.1910 O   0  0  0  0  0  0  0  0  0  0  0  0
   -1.2420    9.4700   -1.3740 C   0  0  0  0  0  0  0  0  0  0  0  0
   -2.5060   10.3590   -1.2730 C   0  0  0  0  0  0  0  0  0  0  0  0
   -1.5520    8.3940   -2.4490 C   0  0  0  0  0  0  0  0  0  0  0  0
    1.7430   12.1840   -0.9590 C   0  0  1  0  0  0  0  0  0  0  0  0
    3.0550   11.3830   -0.6990 C   0  0  0  0  0  0  0  0  0  0  0  0
    1.7830   13.4270    0.0070 C   0  0  0  0  0  0  0  0  0  0  0  0
    0.9940   14.6750   -0.4330 C   0  0  0  0  0  0  0  0  0  0  0  0
    1.3210   15.0480   -1.8830 C   0  0  2  0  0  0  0  0  0  0  0  0
    2.8430   15.4130   -1.9510 C   0  0  0  0  0  0  0  0  0  0  0  0
    2.9348   18.3888   -2.2013 H   0  0  0  0  0  0  0  0  0  0  0  0
    2.4832   17.2614   -3.5249 H   0  0  0  0  0  0  0  0  0  0  0  0
    1.8548   18.9442   -3.5249 H   0  0  0  0  0  0  0  0  0  0  0  0
    0.0890   18.3292   -2.3086 H   0  0  0  0  0  0  0  0  0  0  0  0
    0.5354   16.9252   -0.0818 H   0  0  0  0  0  0  0  0  0  0  0  0
    2.2377   17.5043   -0.4117 H   0  0  0  0  0  0  0  0  0  0  0  0
    1.4750   19.1836    0.9540 H   0  0  0  0  0  0  0  0  0  0  0  0
    1.0495   19.8266   -0.6869 H   0  0  0  0  0  0  0  0  0  0  0  0
   -0.3126   19.4306    1.4885 H   0  0  0  0  0  0  0  0  0  0  0  0
   -0.7533   20.9699   -1.8485 H   0  0  0  0  0  0  0  0  0  0  0  0
   -0.8591   19.2610   -2.3917 H   0  0  0  0  0  0  0  0  0  0  0  0
   -2.3273   20.2960   -2.3917 H   0  0  0  0  0  0  0  0  0  0  0  0
   -2.8762   20.1413    1.2349 H   0  0  0  0  0  0  0  0  0  0  0  0
   -3.1075   21.2117   -0.1889 H   0  0  0  0  0  0  0  0  0  0  0  0
   -3.8010   19.5547   -0.1889 H   0  0  0  0  0  0  0  0  0  0  0  0
   -0.5186   16.2004   -2.1249 H   0  0  0  0  0  0  0  0  0  0  0  0
   -0.2962   16.1445   -4.5304 H   0  0  0  0  0  0  0  0  0  0  0  0
    1.3993   16.6702   -4.4635 H   0  0  0  0  0  0  0  0  0  0  0  0
    0.5064   14.0020   -4.9675 H   0  0  0  0  0  0  0  0  0  0  0  0
    2.1607   14.4233   -4.5328 H   0  0  0  0  0  0  0  0  0  0  0  0
   -0.9673   13.4477   -1.7266 H   0  0  0  0  0  0  0  0  0  0  0  0
   -1.2011   14.3159   -3.2817 H   0  0  0  0  0  0  0  0  0  0  0  0
   -0.8133   12.5620   -3.2817 H   0  0  0  0  0  0  0  0  0  0  0  0
    2.7815   12.9658   -2.7014 H   0  0  0  0  0  0  0  0  0  0  0  0
    1.2564   11.7698   -4.3984 H   0  0  0  0  0  0  0  0  0  0  0  0
    2.4940   10.8361   -3.4057 H   0  0  0  0  0  0  0  0  0  0  0  0
    0.1340    9.7006   -3.6921 H   0  0  0  0  0  0  0  0  0  0  0  0
   -0.3056   12.0394   -0.4298 H   0  0  0  0  0  0  0  0  0  0  0  0
    1.5095    9.7368    0.5172 H   0  0  0  0  0  0  0  0  0  0  0  0
    0.9320   11.1502    1.5065 H   0  0  0  0  0  0  0  0  0  0  0  0
   -0.3372    9.0831    1.9962 H   0  0  0  0  0  0  0  0  0  0  0  0
   -1.3662   10.3953    1.2994 H   0  0  0  0  0  0  0  0  0  0  0  0
   -1.9758    8.3128    0.2748 H   0  0  0  0  0  0  0  0  0  0  0  0
   -0.4590    6.8610   -0.0660 H   0  0  0  0  0  0  0  0  0  0  0  0
   -2.7499   10.5306   -0.2142 H   0  0  0  0  0  0  0  0  0  0  0  0
   -2.3163   11.3236   -1.7665 H   0  0  0  0  0  0  0  0  0  0  0  0
   -3.3496    9.8543   -1.7665 H   0  0  0  0  0  0  0  0  0  0  0  0
   -1.8241    7.4497   -1.9548 H   0  0  0  0  0  0  0  0  0  0  0  0
   -2.3888    8.7336   -3.0770 H   0  0  0  0  0  0  0  0  0  0  0  0
   -0.6628    8.2363   -3.0770 H   0  0  0  0  0  0  0  0  0  0  0  0
    3.2159   11.2847    0.3847 H   0  0  0  0  0  0  0  0  0  0  0  0
    2.9694   10.3830   -1.1491 H   0  0  0  0  0  0  0  0  0  0  0  0
    3.9054   11.9161   -1.1491 H   0  0  0  0  0  0  0  0  0  0  0  0
    1.3819   13.1056    0.9795 H   0  0  0  0  0  0  0  0  0  0  0  0
    2.8362   13.7439    0.0244 H   0  0  0  0  0  0  0  0  0  0  0  0
   -0.0830   14.4679   -0.3489 H   0  0  0  0  0  0  0  0  0  0  0  0
    1.2765   15.5158    0.2176 H   0  0  0  0  0  0  0  0  0  0  0  0
    3.2430   15.5089   -0.9308 H   0  0  0  0  0  0  0  0  0  0  0  0
    3.3868   14.6198   -2.4850 H   0  0  0  0  0  0  0  0  0  0  0  0
    2.9679   16.3666   -2.4850 H   0  0  0  0  0  0  0  0  0  0  0  0
  1  2  1  0
  2  3  1  0
  3  4  1  0
  4  5  1  0
  5  6  1  0
  6  7  1  0
  7  8  1  0
  7  9  1  0
  2 10  1  0
 10 11  1  0
 11 12  1  0
 12 13  1  0
 13 14  1  1
 13 15  1  0
 15 16  1  0
 16 17  1  0
 17 18  2  0
 18 19  1  0
 19 20  1  0
 20 21  1  0
 21 22  1  0
 22 23  1  0
 22 24  1  0
 24 25  1  0
 24 26  1  0
 19 27  1  0
 27 28  1  1
 27 29  1  0
 29 30  1  0
 30 31  1  0
 31 32  1  1
  7  5  1  0
 31 10  1  0
 31 13  1  0
 27 15  1  0
 24 18  1  0
  1 33  1  0
  1 34  1  0
  1 35  1  0
  2 36  1  1
  3 37  1  0
  3 38  1  0
  4 39  1  0
  4 40  1  0
  5 41  1  1
  8 42  1  0
  8 43  1  0
  8 44  1  0
  9 45  1  0
  9 46  1  0
  9 47  1  0
 10 48  1  1
 11 49  1  0
 11 50  1  0
 12 51  1  0
 12 52  1  0
 14 53  1  0
 14 54  1  0
 14 55  1  0
 15 56  1  6
 16 57  1  0
 16 58  1  0
 17 59  1  0
 19 60  1  1
 20 61  1  0
 20 62  1  0
 21 63  1  0
 21 64  1  0
 22 65  1  1
 23 66  1  0
 25 67  1  0
 25 68  1  0
 25 69  1  0
 26 70  1  0
 26 71  1  0
 26 72  1  0
 28 73  1  0
 28 74  1  0
 28 75  1  0
 29 76  1  0
 29 77  1  0
 30 78  1  0
 30 79  1  0
 32 80  1  0
 32 81  1  0
 32 82  1  0
M  END
>  <meeko>  (4) 
{"is_sidechain": [false], "intermolecular_energy": 2.731, "internal_energy": -0.839}

$$$$
EPH_relaxed_0001_pdb2pqr_Repair_387_r2_0001_out
     RDKit          3D

 82 86  0  0  0  0  0  0  0  0999 V2000
    2.1770   18.1320   -2.7120 C   0  0  0  0  0  0  0  0  0  0  0  0
    0.8690   17.7450   -2.0160 C   0  0  2  0  0  0  0  0  0  0  0  0
    0.9820   17.8250   -0.4800 C   0  0  0  0  0  0  0  0  0  0  0  0
    2.4050   18.0890    0.0190 C   0  0  0  0  0  0  0  0  0  0  0  0
    2.4430   19.1970    1.0270 C   0  0  2  0  0  0  0  0  0  0  0  0
    3.4460   20.1920    0.7870 O   0  0  0  0  0  0  0  0  0  0  0  0
    3.5970   19.4160    1.9870 C   0  0  0  0  0  0  0  0  0  0  0  0
    4.7950   18.5190    1.9840 C   0  0  0  0  0  0  0  0  0  0  0  0
    3.3470   20.1930    3.2420 C   0  0  0  0  0  0  0  0  0  0  0  0
    0.4540   16.3390   -2.4350 C   0  0  1  0  0  0  0  0  0  0  0  0
    0.5180   16.1310   -3.9710 C   0  0  0  0  0  0  0  0  0  0  0  0
    0.9580   14.6630   -4.2060 C   0  0  0  0  0  0  0  0  0  0  0  0
    0.8120   13.9860   -2.8230 C   0  0  1  0  0  0  0  0  0  0  0  0
   -0.7060   13.6440   -2.7030 C   0  0  0  0  0  0  0  0  0  0  0  0
    1.7090   12.7310   -2.5690 C   0  0  2  0  0  0  0  0  0  0  0  0
    1.4400   11.5380   -3.5030 C   0  0  0  0  0  0  0  0  0  0  0  0
    0.4230   10.5620   -3.0140 C   0  0  0  0  0  0  0  0  0  0  0  0
   -0.0410   10.4810   -1.7530 C   0  0  0  0  0  0  0  0  0  0  0  0
    0.5360   11.3690   -0.6430 C   0  0  1  0  0  0  0  0  0  0  0  0
    0.8220   10.5060    0.6140 C   0  0  0  0  0  0  0  0  0  0  0  0
   -0.4020    9.7180    1.0730 C   0  0  0  0  0  0  0  0  0  0  0  0
   -0.9110    8.8040   -0.0380 C   0  0  2  0  0  0  0  0  0  0  0  0
    0.0670    7.7900   -0.2850 O   0  0  0  0  0  0  0  0  0  0  0  0
   -1.2240    9.5620   -1.3590 C   0  0  0  0  0  0  0  0  0  0  0  0
   -2.4820   10.4440   -1.1680 C   0  0  0  0  0  0  0  0  0  0  0  0
   -1.5920    8.5080   -2.4380 C   0  0  0  0  0  0  0  0  0  0  0  0
    1.7740   12.2760   -1.0550 C   0  0  1  0  0  0  0  0  0  0  0  0
    3.1010   11.4740   -0.8880 C   0  0  0  0  0  0  0  0  0  0  0  0
    1.8660   13.4980   -0.0660 C   0  0  0  0  0  0  0  0  0  0  0  0
    1.0510   14.7530   -0.4340 C   0  0  0  0  0  0  0  0  0  0  0  0
    1.2950   15.1570   -1.8910 C   0  0  2  0  0  0  0  0  0  0  0  0
    2.8100   15.5290   -2.0380 C   0  0  0  0  0  0  0  0  0  0  0  0
    2.9422   18.3584   -1.9549 H   0  0  0  0  0  0  0  0  0  0  0  0
    2.5190   17.2966   -3.3405 H   0  0  0  0  0  0  0  0  0  0  0  0
    2.0094   19.0190   -3.3405 H   0  0  0  0  0  0  0  0  0  0  0  0
    0.1015   18.4684   -2.3284 H   0  0  0  0  0  0  0  0  0  0  0  0
    0.3330   18.6395   -0.1259 H   0  0  0  0  0  0  0  0  0  0  0  0
    0.6788   16.8447   -0.0837 H   0  0  0  0  0  0  0  0  0  0  0  0
    2.7958   17.1715    0.4831 H   0  0  0  0  0  0  0  0  0  0  0  0
    3.0201   18.3883   -0.8424 H   0  0  0  0  0  0  0  0  0  0  0  0
    1.3568   19.1219    1.1839 H   0  0  0  0  0  0  0  0  0  0  0  0
    5.0902   18.2980    3.0204 H   0  0  0  0  0  0  0  0  0  0  0  0
    4.5494   17.5809    1.4647 H   0  0  0  0  0  0  0  0  0  0  0  0
    5.6260   19.0188    1.4647 H   0  0  0  0  0  0  0  0  0  0  0  0
    3.5521   19.5557    4.1148 H   0  0  0  0  0  0  0  0  0  0  0  0
    4.0076   21.0722    3.2667 H   0  0  0  0  0  0  0  0  0  0  0  0
    2.2976   20.5220    3.2667 H   0  0  0  0  0  0  0  0  0  0  0  0
   -0.5579   16.3093   -2.0046 H   0  0  0  0  0  0  0  0  0  0  0  0
   -0.4715   16.3060   -4.4185 H   0  0  0  0  0  0  0  0  0  0  0  0
    1.2249   16.8342   -4.4355 H   0  0  0  0  0  0  0  0  0  0  0  0
    0.3070   14.1764   -4.9473 H   0  0  0  0  0  0  0  0  0  0  0  0
    1.9830   14.5925   -4.5989 H   0  0  0  0  0  0  0  0  0  0  0  0
   -0.9848   13.5812   -1.6408 H   0  0  0  0  0  0  0  0  0  0  0  0
   -1.2989   14.4311   -3.1918 H   0  0  0  0  0  0  0  0  0  0  0  0
   -0.9041   12.6787   -3.1918 H   0  0  0  0  0  0  0  0  0  0  0  0
    2.7109   13.0993   -2.8345 H   0  0  0  0  0  0  0  0  0  0  0  0
    1.0939   11.9341   -4.4691 H   0  0  0  0  0  0  0  0  0  0  0  0
    2.3875   10.9830   -3.5681 H   0  0  0  0  0  0  0  0  0  0  0  0
    0.0179    9.8479   -3.7461 H   0  0  0  0  0  0  0  0  0  0  0  0
   -0.2400   12.1146   -0.4150 H   0  0  0  0  0  0  0  0  0  0  0  0
    1.6299    9.7974    0.3790 H   0  0  0  0  0  0  0  0  0  0  0  0
    1.1060   11.1873    1.4296 H   0  0  0  0  0  0  0  0  0  0  0  0
   -0.1297    9.1064    1.9458 H   0  0  0  0  0  0  0  0  0  0  0  0
   -1.1992   10.4292    1.3350 H   0  0  0  0  0  0  0  0  0  0  0  0
   -1.8598    8.3651    0.3042 H   0  0  0  0  0  0  0  0  0  0  0  0
    0.7020    7.8080    0.4510 H   0  0  0  0  0  0  0  0  0  0  0  0
   -2.6752   10.5794   -0.0936 H   0  0  0  0  0  0  0  0  0  0  0  0
   -2.3167   11.4250   -1.6373 H   0  0  0  0  0  0  0  0  0  0  0  0
   -3.3479    9.9542   -1.6373 H   0  0  0  0  0  0  0  0  0  0  0  0
   -1.9165    7.5786   -1.9471 H   0  0  0  0  0  0  0  0  0  0  0  0
   -2.4081    8.8954   -3.0657 H   0  0  0  0  0  0  0  0  0  0  0  0
   -0.7122    8.3033   -3.0657 H   0  0  0  0  0  0  0  0  0  0  0  0
    3.3180   11.3429    0.1824 H   0  0  0  0  0  0  0  0  0  0  0  0
    2.9960   10.4880   -1.3643 H   0  0  0  0  0  0  0  0  0  0  0  0
    3.9251   12.0254   -1.3643 H   0  0  0  0  0  0  0  0  0  0  0  0
    1.5208   13.1545    0.9203 H   0  0  0  0  0  0  0  0  0  0  0  0
    2.9179   13.8177   -0.1008 H   0  0  0  0  0  0  0  0  0  0  0  0
   -0.0192   14.5410   -0.2937 H   0  0  0  0  0  0  0  0  0  0  0  0
    1.3681   15.5807    0.2174 H   0  0  0  0  0  0  0  0  0  0  0  0
    3.2590   15.6393   -1.0399 H   0  0  0  0  0  0  0  0  0  0  0  0
    3.3314   14.7322   -2.5887 H   0  0  0  0  0  0  0  0  0  0  0  0
    2.9031   16.4767   -2.5887 H   0  0  0  0  0  0  0  0  0  0  0  0
  1  2  1  0
  2  3  1  0
  3  4  1  0
  4  5  1  0
  5  6  1  0
  6  7  1  0
  7  8  1  0
  7  9  1  0
  2 10  1  0
 10 11  1  0
 11 12  1  0
 12 13  1  0
 13 14  1  1
 13 15  1  0
 15 16  1  0
 16 17  1  0
 17 18  2  0
 18 19  1  0
 19 20  1  0
 20 21  1  0
 21 22  1  0
 22 23  1  0
 22 24  1  0
 24 25  1  0
 24 26  1  0
 19 27  1  0
 27 28  1  6
 27 29  1  0
 29 30  1  0
 30 31  1  0
 31 32  1  1
  7  5  1  0
 31 10  1  0
 31 13  1  0
 27 15  1  0
 24 18  1  0
  1 33  1  0
  1 34  1  0
  1 35  1  0
  2 36  1  6
  3 37  1  0
  3 38  1  0
  4 39  1  0
  4 40  1  0
  5 41  1  1
  8 42  1  0
  8 43  1  0
  8 44  1  0
  9 45  1  0
  9 46  1  0
  9 47  1  0
 10 48  1  1
 11 49  1  0
 11 50  1  0
 12 51  1  0
 12 52  1  0
 14 53  1  0
 14 54  1  0
 14 55  1  0
 15 56  1  6
 16 57  1  0
 16 58  1  0
 17 59  1  0
 19 60  1  1
 20 61  1  0
 20 62  1  0
 21 63  1  0
 21 64  1  0
 22 65  1  1
 23 66  1  0
 25 67  1  0
 25 68  1  0
 25 69  1  0
 26 70  1  0
 26 71  1  0
 26 72  1  0
 28 73  1  0
 28 74  1  0
 28 75  1  0
 29 76  1  0
 29 77  1  0
 30 78  1  0
 30 79  1  0
 32 80  1  0
 32 81  1  0
 32 82  1  0
M  END
>  <meeko>  (5) 
{"is_sidechain": [false], "intermolecular_energy": 2.731, "internal_energy": -0.839}

$$$$
EPH_relaxed_0001_pdb2pqr_Repair_387_r2_0001_out
     RDKit          3D

 82 86  0  0  0  0  0  0  0  0999 V2000
    3.5950   17.9310    0.7560 C   0  0  0  0  0  0  0  0  0  0  0  0
    2.7130   18.2470   -0.4550 C   0  0  2  0  0  0  0  0  0  0  0  0
    1.9940   19.6030   -0.3110 C   0  0  0  0  0  0  0  0  0  0  0  0
    1.0150   19.6590    0.8650 C   0  0  0  0  0  0  0  0  0  0  0  0
   -0.3220   20.1940    0.4480 C   0  0  2  0  0  0  0  0  0  0  0  0
   -1.3160   20.1940    1.4810 O   0  0  0  0  0  0  0  0  0  0  0  0
   -1.5730   19.3400    0.3550 C   0  0  0  0  0  0  0  0  0  0  0  0
   -1.5470   17.8800    0.6800 C   0  0  0  0  0  0  0  0  0  0  0  0
   -2.6970   19.8110   -0.5140 C   0  0  0  0  0  0  0  0  0  0  0  0
    1.6900   17.1340   -0.6570 C   0  0  1  0  0  0  0  0  0  0  0  0
    0.4880   17.5790   -1.5320 C   0  0  0  0  0  0  0  0  0  0  0  0
    0.0620   16.3450   -2.3670 C   0  0  0  0  0  0  0  0  0  0  0  0
    0.8040   15.1560   -1.7130 C   0  0  1  0  0  0  0  0  0  0  0  0
   -0.0650   14.7740   -0.4730 C   0  0  0  0  0  0  0  0  0  0  0  0
    1.0730   13.9190   -2.6310 C   0  0  2  0  0  0  0  0  0  0  0  0
   -0.1870   13.2150   -3.1630 C   0  0  0  0  0  0  0  0  0  0  0  0
   -0.7100   12.1100   -2.3050 C   0  0  0  0  0  0  0  0  0  0  0  0
   -0.0370   11.5100   -1.3060 C   0  0  0  0  0  0  0  0  0  0  0  0
    1.4260   11.8690   -1.0150 C   0  0  1  0  0  0  0  0  0  0  0  0
    2.2500   10.5680   -0.8280 C   0  0  0  0  0  0  0  0  0  0  0  0
    1.6540    9.6450    0.2310 C   0  0  0  0  0  0  0  0  0  0  0  0
    0.2190    9.2650   -0.1230 C   0  0  2  0  0  0  0  0  0  0  0  0
    0.2340    8.4550   -1.3030 O   0  0  0  0  0  0  0  0  0  0  0  0
   -0.7040   10.4950   -0.3450 C   0  0  0  0  0  0  0  0  0  0  0  0
   -0.9620   11.2030    1.0080 C   0  0  0  0  0  0  0  0  0  0  0  0
   -2.0830    9.9760   -0.8330 C   0  0  0  0  0  0  0  0  0  0  0  0
    2.1070   12.8810   -2.0330 C   0  0  1  0  0  0  0  0  0  0  0  0
    2.7030   12.0990   -3.2440 C   0  0  0  0  0  0  0  0  0  0  0  0
    3.3210   13.5880   -1.3210 C   0  0  0  0  0  0  0  0  0  0  0  0
    3.0100   14.8710   -0.5280 C   0  0  0  0  0  0  0  0  0  0  0  0
    2.1740   15.8440   -1.3660 C   0  0  2  0  0  0  0  0  0  0  0  0
    3.0310   16.2630   -2.6090 C   0  0  0  0  0  0  0  0  0  0  0  0
    3.0340   18.1320    1.6806 H   0  0  0  0  0  0  0  0  0  0  0  0
    3.8894   16.8715    0.7287 H   0  0  0  0  0  0  0  0  0  0  0  0
    4.4952   18.5625    0.7287 H   0  0  0  0  0  0  0  0  0  0  0  0
    3.3697   18.3132   -1.3350 H   0  0  0  0  0  0  0  0  0  0  0  0
    2.7538   20.3854   -0.1678 H   0  0  0  0  0  0  0  0  0  0  0  0
    1.4044   19.7530   -1.2274 H   0  0  0  0  0  0  0  0  0  0  0  0
    0.8830   18.6439    1.2677 H   0  0  0  0  0  0  0  0  0  0  0  0
    1.4322   20.3340    1.6268 H   0  0  0  0  0  0  0  0  0  0  0  0
    0.1513   20.8894   -0.2608 H   0  0  0  0  0  0  0  0  0  0  0  0
   -1.5446   17.7474    1.7720 H   0  0  0  0  0  0  0  0  0  0  0  0
   -2.4366   17.3935    0.2535 H   0  0  0  0  0  0  0  0  0  0  0  0
   -0.6406   17.4255    0.2535 H   0  0  0  0  0  0  0  0  0  0  0  0
   -3.5277   20.1591    0.1175 H   0  0  0  0  0  0  0  0  0  0  0  0
   -2.3476   20.6384   -1.1491 H   0  0  0  0  0  0  0  0  0  0  0  0
   -3.0418   18.9817   -1.1491 H   0  0  0  0  0  0  0  0  0  0  0  0
    1.4437   16.9167    0.3928 H   0  0  0  0  0  0  0  0  0  0  0  0
   -0.3440   17.9095   -0.8929 H   0  0  0  0  0  0  0  0  0  0  0  0
    0.7642   18.4209   -2.1839 H   0  0  0  0  0  0  0  0  0  0  0  0
   -1.0270   16.1987   -2.3157 H   0  0  0  0  0  0  0  0  0  0  0  0
    0.3108   16.4565   -3.4327 H   0  0  0  0  0  0  0  0  0  0  0  0
    0.4848   15.0157    0.4486 H   0  0  0  0  0  0  0  0  0  0  0  0
   -1.0074   15.3408   -0.4971 H   0  0  0  0  0  0  0  0  0  0  0  0
   -0.2845   13.6964   -0.4971 H   0  0  0  0  0  0  0  0  0  0  0  0
    1.5520   14.3765   -3.5092 H   0  0  0  0  0  0  0  0  0  0  0  0
   -0.9803   13.9700   -3.2662 H   0  0  0  0  0  0  0  0  0  0  0  0
    0.1039   12.7490   -4.1160 H   0  0  0  0  0  0  0  0  0  0  0  0
   -1.7320   11.7567   -2.5068 H   0  0  0  0  0  0  0  0  0  0  0  0
    1.4178   12.4444   -0.0775 H   0  0  0  0  0  0  0  0  0  0  0  0
    2.2821   10.0300   -1.7869 H   0  0  0  0  0  0  0  0  0  0  0  0
    3.2569   10.8560   -0.4915 H   0  0  0  0  0  0  0  0  0  0  0  0
    2.2629    8.7312    0.2962 H   0  0  0  0  0  0  0  0  0  0  0  0
    1.6498   10.1736    1.1957 H   0  0  0  0  0  0  0  0  0  0  0  0
   -0.1962    8.7125    0.7328 H   0  0  0  0  0  0  0  0  0  0  0  0
   -0.6810    8.3840   -1.6230 H   0  0  0  0  0  0  0  0  0  0  0  0
   -0.7129   10.5193    1.8329 H   0  0  0  0  0  0  0  0  0  0  0  0
   -0.3343   12.1038    1.0760 H   0  0  0  0  0  0  0  0  0  0  0  0
   -2.0221   11.4888    1.0760 H   0  0  0  0  0  0  0  0  0  0  0  0
   -2.7139    9.7385    0.0362 H   0  0  0  0  0  0  0  0  0  0  0  0
   -2.5725   10.7514   -1.4405 H   0  0  0  0  0  0  0  0  0  0  0  0
   -1.9398    9.0702   -1.4405 H   0  0  0  0  0  0  0  0  0  0  0  0
    3.3311   11.2748   -2.8750 H   0  0  0  0  0  0  0  0  0  0  0  0
    1.8847   11.6909   -3.8555 H   0  0  0  0  0  0  0  0  0  0  0  0
    3.3134   12.7798   -3.8555 H   0  0  0  0  0  0  0  0  0  0  0  0
    3.7642   12.8638   -0.6216 H   0  0  0  0  0  0  0  0  0  0  0  0
    3.9862   13.9080   -2.1366 H   0  0  0  0  0  0  0  0  0  0  0  0
    2.4499   14.6056    0.3807 H   0  0  0  0  0  0  0  0  0  0  0  0
    3.9596   15.3602   -0.2656 H   0  0  0  0  0  0  0  0  0  0  0  0
    3.9707   16.7224   -2.2685 H   0  0  0  0  0  0  0  0  0  0  0  0
    3.2565   15.3735   -3.2156 H   0  0  0  0  0  0  0  0  0  0  0  0
    2.4675   16.9872   -3.2156 H   0  0  0  0  0  0  0  0  0  0  0  0
  1  2  1  0
  2  3  1  0
  3  4  1  0
  4  5  1  0
  5  6  1  0
  6  7  1  0
  7  8  1  0
  7  9  1  0
  2 10  1  0
 10 11  1  0
 11 12  1  0
 12 13  1  0
 13 14  1  1
 13 15  1  0
 15 16  1  0
 16 17  1  0
 17 18  2  0
 18 19  1  0
 19 20  1  0
 20 21  1  0
 21 22  1  0
 22 23  1  0
 22 24  1  0
 24 25  1  0
 24 26  1  0
 19 27  1  0
 27 28  1  6
 27 29  1  0
 29 30  1  0
 30 31  1  0
 31 32  1  6
  7  5  1  0
 31 10  1  0
 31 13  1  0
 27 15  1  0
 24 18  1  0
  1 33  1  0
  1 34  1  0
  1 35  1  0
  2 36  1  6
  3 37  1  0
  3 38  1  0
  4 39  1  0
  4 40  1  0
  5 41  1  6
  8 42  1  0
  8 43  1  0
  8 44  1  0
  9 45  1  0
  9 46  1  0
  9 47  1  0
 10 48  1  1
 11 49  1  0
 11 50  1  0
 12 51  1  0
 12 52  1  0
 14 53  1  0
 14 54  1  0
 14 55  1  0
 15 56  1  6
 16 57  1  0
 16 58  1  0
 17 59  1  0
 19 60  1  1
 20 61  1  0
 20 62  1  0
 21 63  1  0
 21 64  1  0
 22 65  1  1
 23 66  1  0
 25 67  1  0
 25 68  1  0
 25 69  1  0
 26 70  1  0
 26 71  1  0
 26 72  1  0
 28 73  1  0
 28 74  1  0
 28 75  1  0
 29 76  1  0
 29 77  1  0
 30 78  1  0
 30 79  1  0
 32 80  1  0
 32 81  1  0
 32 82  1  0
M  END
>  <meeko>  (6) 
{"is_sidechain": [false], "intermolecular_energy": 2.731, "internal_energy": -0.839}

$$$$
EPH_relaxed_0001_pdb2pqr_Repair_387_r2_0001_out
     RDKit          3D

 82 86  0  0  0  0  0  0  0  0999 V2000
   -4.8500    6.0850   -4.6130 C   0  0  0  0  0  0  0  0  0  0  0  0
   -5.1970    6.9710   -3.4130 C   0  0  2  0  0  0  0  0  0  0  0  0
   -4.1240    6.8990   -2.3090 C   0  0  0  0  0  0  0  0  0  0  0  0
   -2.8610    7.7060   -2.6240 C   0  0  0  0  0  0  0  0  0  0  0  0
   -2.2270    8.2510   -1.3800 C   0  0  2  0  0  0  0  0  0  0  0  0
   -2.3560    9.6690   -1.2140 O   0  0  0  0  0  0  0  0  0  0  0  0
   -1.0200    9.1700   -1.3900 C   0  0  0  0  0  0  0  0  0  0  0  0
   -0.3750    9.5970   -2.6710 C   0  0  0  0  0  0  0  0  0  0  0  0
   -0.1760    9.2570   -0.1560 C   0  0  0  0  0  0  0  0  0  0  0  0
   -6.5540    6.5710   -2.8480 C   0  0  1  0  0  0  0  0  0  0  0  0
   -6.4670    5.3530   -1.8900 C   0  0  0  0  0  0  0  0  0  0  0  0
   -7.5290    5.5770   -0.7830 C   0  0  0  0  0  0  0  0  0  0  0  0
   -8.4090    6.7320   -1.3150 C   0  0  1  0  0  0  0  0  0  0  0  0
   -9.4040    6.0540   -2.3070 C   0  0  0  0  0  0  0  0  0  0  0  0
   -9.1580    7.5830   -0.2380 C   0  0  2  0  0  0  0  0  0  0  0  0
  -10.1810    6.8080    0.6100 C   0  0  0  0  0  0  0  0  0  0  0  0
  -11.5720    6.7860    0.0680 C   0  0  0  0  0  0  0  0  0  0  0  0
  -12.0480    7.5940   -0.8970 C   0  0  0  0  0  0  0  0  0  0  0  0
  -11.1840    8.7200   -1.4790 C   0  0  1  0  0  0  0  0  0  0  0  0
  -12.0160   10.0270   -1.5500 C   0  0  0  0  0  0  0  0  0  0  0  0
  -13.3270    9.8460   -2.3100 C   0  0  0  0  0  0  0  0  0  0  0  0
  -14.1840    8.7580   -1.6680 C   0  0  2  0  0  0  0  0  0  0  0  0
  -14.6050    9.2070   -0.3760 O   0  0  0  0  0  0  0  0  0  0  0  0
  -13.4460    7.3960   -1.5330 C   0  0  0  0  0  0  0  0  0  0  0  0
  -13.2580    6.7660   -2.9360 C   0  0  0  0  0  0  0  0  0  0  0  0
  -14.3690    6.4300   -0.7440 C   0  0  0  0  0  0  0  0  0  0  0  0
   -9.7690    8.9350   -0.7890 C   0  0  1  0  0  0  0  0  0  0  0  0
   -9.9130    9.8900    0.4350 C   0  0  0  0  0  0  0  0  0  0  0  0
   -8.8060    9.6560   -1.8040 C   0  0  0  0  0  0  0  0  0  0  0  0
   -8.0040    8.7550   -2.7620 C   0  0  0  0  0  0  0  0  0  0  0  0
   -7.3090    7.6240   -1.9980 C   0  0  2  0  0  0  0  0  0  0  0  0
   -6.2850    8.2750   -1.0070 C   0  0  0  0  0  0  0  0  0  0  0  0
   -4.4706    5.1162   -4.2559 H   0  0  0  0  0  0  0  0  0  0  0  0
   -5.7514    5.9237   -5.2225 H   0  0  0  0  0  0  0  0  0  0  0  0
   -4.0788    6.5787   -5.2225 H   0  0  0  0  0  0  0  0  0  0  0  0
   -5.2345    8.0112   -3.7688 H   0  0  0  0  0  0  0  0  0  0  0  0
   -4.5594    7.2858   -1.3758 H   0  0  0  0  0  0  0  0  0  0  0  0
   -3.8195    5.8453   -2.2251 H   0  0  0  0  0  0  0  0  0  0  0  0
   -2.1388    7.0527   -3.1354 H   0  0  0  0  0  0  0  0  0  0  0  0
   -3.1466    8.5543   -3.2634 H   0  0  0  0  0  0  0  0  0  0  0  0
   -2.4407    7.3198   -0.8349 H   0  0  0  0  0  0  0  0  0  0  0  0
    0.5233   10.1917   -2.4488 H   0  0  0  0  0  0  0  0  0  0  0  0
   -0.0913    8.7077   -3.2529 H   0  0  0  0  0  0  0  0  0  0  0  0
   -1.0829   10.2055   -3.2529 H   0  0  0  0  0  0  0  0  0  0  0  0
   -0.8194    9.1907    0.7337 H   0  0  0  0  0  0  0  0  0  0  0  0
    0.5478    8.4287   -0.1477 H   0  0  0  0  0  0  0  0  0  0  0  0
    0.3636   10.2155   -0.1477 H   0  0  0  0  0  0  0  0  0  0  0  0
   -7.0967    6.3852   -3.7866 H   0  0  0  0  0  0  0  0  0  0  0  0
   -6.6817    4.4239   -2.4383 H   0  0  0  0  0  0  0  0  0  0  0  0
   -5.4596    5.2620   -1.4578 H   0  0  0  0  0  0  0  0  0  0  0  0
   -8.1303    4.6684   -0.6321 H   0  0  0  0  0  0  0  0  0  0  0  0
   -7.0739    5.8133    0.1901 H   0  0  0  0  0  0  0  0  0  0  0  0
  -10.1828    5.5233   -1.7397 H   0  0  0  0  0  0  0  0  0  0  0  0
   -9.8711    6.8225   -2.9404 H   0  0  0  0  0  0  0  0  0  0  0  0
   -8.8596    5.3381   -2.9404 H   0  0  0  0  0  0  0  0  0  0  0  0
   -8.3460    7.8580    0.4512 H   0  0  0  0  0  0  0  0  0  0  0  0
   -9.8331    5.7680    0.6959 H   0  0  0  0  0  0  0  0  0  0  0  0
  -10.2382    7.3343    1.5742 H   0  0  0  0  0  0  0  0  0  0  0  0
  -12.2665    6.0467    0.4936 H   0  0  0  0  0  0  0  0  0  0  0  0
  -10.9077    8.3976   -2.4937 H   0  0  0  0  0  0  0  0  0  0  0  0
  -12.2449   10.3553   -0.5254 H   0  0  0  0  0  0  0  0  0  0  0  0
  -11.4173   10.7748   -2.0907 H   0  0  0  0  0  0  0  0  0  0  0  0
  -13.8830   10.7951   -2.2998 H   0  0  0  0  0  0  0  0  0  0  0  0
  -13.0956    9.5469   -3.3429 H   0  0  0  0  0  0  0  0  0  0  0  0
  -15.0457    8.5831   -2.3290 H   0  0  0  0  0  0  0  0  0  0  0  0
  -15.0280    8.4550    0.0730 H   0  0  0  0  0  0  0  0  0  0  0  0
  -12.9450    5.7170   -2.8280 H   0  0  0  0  0  0  0  0  0  0  0  0
  -14.2084    6.8100   -3.4881 H   0  0  0  0  0  0  0  0  0  0  0  0
  -12.4871    7.3237   -3.4881 H   0  0  0  0  0  0  0  0  0  0  0  0
  -14.2228    6.5830    0.3354 H   0  0  0  0  0  0  0  0  0  0  0  0
  -15.4186    6.6315   -1.0041 H   0  0  0  0  0  0  0  0  0  0  0  0
  -14.1199    5.3906   -1.0041 H   0  0  0  0  0  0  0  0  0  0  0  0
   -9.8255    9.3095    1.3653 H   0  0  0  0  0  0  0  0  0  0  0  0
   -9.1195   10.6510    0.4016 H   0  0  0  0  0  0  0  0  0  0  0  0
  -10.8957   10.3832    0.4016 H   0  0  0  0  0  0  0  0  0  0  0  0
   -9.4172   10.3336   -2.4183 H   0  0  0  0  0  0  0  0  0  0  0  0
   -8.0507   10.1546   -1.1787 H   0  0  0  0  0  0  0  0  0  0  0  0
   -8.6889    8.3198   -3.5046 H   0  0  0  0  0  0  0  0  0  0  0  0
   -7.2361    9.3666   -3.2583 H   0  0  0  0  0  0  0  0  0  0  0  0
   -6.5990    8.0754    0.0282 H   0  0  0  0  0  0  0  0  0  0  0  0
   -5.2867    7.8454   -1.1767 H   0  0  0  0  0  0  0  0  0  0  0  0
   -6.2504    9.3613   -1.1767 H   0  0  0  0  0  0  0  0  0  0  0  0
  1  2  1  0
  2  3  1  0
  3  4  1  0
  4  5  1  0
  5  6  1  0
  6  7  1  0
  7  8  1  0
  7  9  1  0
  2 10  1  0
 10 11  1  0
 11 12  1  0
 12 13  1  0
 13 14  1  6
 13 15  1  0
 15 16  1  0
 16 17  1  0
 17 18  2  0
 18 19  1  0
 19 20  1  0
 20 21  1  0
 21 22  1  0
 22 23  1  0
 22 24  1  0
 24 25  1  0
 24 26  1  0
 19 27  1  0
 27 28  1  1
 27 29  1  0
 29 30  1  0
 30 31  1  0
 31 32  1  1
  7  5  1  0
 31 10  1  0
 31 13  1  0
 27 15  1  0
 24 18  1  0
  1 33  1  0
  1 34  1  0
  1 35  1  0
  2 36  1  6
  3 37  1  0
  3 38  1  0
  4 39  1  0
  4 40  1  0
  5 41  1  1
  8 42  1  0
  8 43  1  0
  8 44  1  0
  9 45  1  0
  9 46  1  0
  9 47  1  0
 10 48  1  6
 11 49  1  0
 11 50  1  0
 12 51  1  0
 12 52  1  0
 14 53  1  0
 14 54  1  0
 14 55  1  0
 15 56  1  1
 16 57  1  0
 16 58  1  0
 17 59  1  0
 19 60  1  6
 20 61  1  0
 20 62  1  0
 21 63  1  0
 21 64  1  0
 22 65  1  6
 23 66  1  0
 25 67  1  0
 25 68  1  0
 25 69  1  0
 26 70  1  0
 26 71  1  0
 26 72  1  0
 28 73  1  0
 28 74  1  0
 28 75  1  0
 29 76  1  0
 29 77  1  0
 30 78  1  0
 30 79  1  0
 32 80  1  0
 32 81  1  0
 32 82  1  0
M  END
>  <meeko>  (7) 
{"is_sidechain": [false], "intermolecular_energy": 2.731, "internal_energy": -0.839}

$$$$
EPH_relaxed_0001_pdb2pqr_Repair_387_r2_0001_out
     RDKit          3D

 82 86  0  0  0  0  0  0  0  0999 V2000
   -0.0820   10.3770   -3.5480 C   0  0  0  0  0  0  0  0  0  0  0  0
    0.9610   10.1790   -2.4450 C   0  0  2  0  0  0  0  0  0  0  0  0
    0.6540    8.9490   -1.5680 C   0  0  0  0  0  0  0  0  0  0  0  0
   -0.0810    9.2880   -0.2680 C   0  0  0  0  0  0  0  0  0  0  0  0
   -1.4920    8.7820   -0.2810 C   0  0  2  0  0  0  0  0  0  0  0  0
   -2.1140    8.7760   -1.5720 O   0  0  0  0  0  0  0  0  0  0  0  0
   -2.6910    9.6560   -0.5940 C   0  0  0  0  0  0  0  0  0  0  0  0
   -2.5350   11.1090   -0.9160 C   0  0  0  0  0  0  0  0  0  0  0  0
   -4.0400    9.2200   -0.1120 C   0  0  0  0  0  0  0  0  0  0  0  0
    1.0430   11.4300   -1.5770 C   0  0  1  0  0  0  0  0  0  0  0  0
    2.1070   11.3090   -0.4530 C   0  0  0  0  0  0  0  0  0  0  0  0
    2.7210   12.7200   -0.2650 C   0  0  0  0  0  0  0  0  0  0  0  0
    1.7730   13.6650   -1.0400 C   0  0  1  0  0  0  0  0  0  0  0  0
    0.5770   13.9180   -0.0680 C   0  0  0  0  0  0  0  0  0  0  0  0
    2.3970   15.0050   -1.5480 C   0  0  2  0  0  0  0  0  0  0  0  0
    2.9050   15.9480   -0.4440 C   0  0  0  0  0  0  0  0  0  0  0  0
    1.9040   16.9330    0.0630 C   0  0  0  0  0  0  0  0  0  0  0  0
    0.7430   17.2490   -0.5390 C   0  0  0  0  0  0  0  0  0  0  0  0
    0.3810   16.6620   -1.9090 C   0  0  1  0  0  0  0  0  0  0  0  0
   -0.1420   17.7920   -2.8350 C   0  0  0  0  0  0  0  0  0  0  0  0
   -1.2960   18.5720   -2.2110 C   0  0  0  0  0  0  0  0  0  0  0  0
   -0.8790   19.1890   -0.8780 C   0  0  2  0  0  0  0  0  0  0  0  0
    0.1100   20.1930   -1.1240 O   0  0  0  0  0  0  0  0  0  0  0  0
   -0.3260   18.1460    0.1330 C   0  0  0  0  0  0  0  0  0  0  0  0
   -1.4790   17.2400    0.6300 C   0  0  0  0  0  0  0  0  0  0  0  0
    0.1880   18.9160    1.3790 C   0  0  0  0  0  0  0  0  0  0  0  0
    1.5040   15.7770   -2.6030 C   0  0  1  0  0  0  0  0  0  0  0  0
    2.4690   16.6870   -3.4220 C   0  0  0  0  0  0  0  0  0  0  0  0
    0.8250   14.8040   -3.6380 C   0  0  0  0  0  0  0  0  0  0  0  0
    0.3370   13.4460   -3.0980 C   0  0  0  0  0  0  0  0  0  0  0  0
    1.4310   12.7570   -2.2770 C   0  0  2  0  0  0  0  0  0  0  0  0
    2.6380   12.4690   -3.2330 C   0  0  0  0  0  0  0  0  0  0  0  0
   -1.0659   10.5638   -3.0930 H   0  0  0  0  0  0  0  0  0  0  0  0
    0.2028   11.2371   -4.1718 H   0  0  0  0  0  0  0  0  0  0  0  0
   -0.1323    9.4724   -4.1718 H   0  0  0  0  0  0  0  0  0  0  0  0
    1.9299   10.0011   -2.9345 H   0  0  0  0  0  0  0  0  0  0  0  0
    0.0291    8.2551   -2.1495 H   0  0  0  0  0  0  0  0  0  0  0  0
    1.6205    8.5067   -1.2849 H   0  0  0  0  0  0  0  0  0  0  0  0
    0.4551    8.8277    0.5751 H   0  0  0  0  0  0  0  0  0  0  0  0
   -0.1101   10.3829   -0.1659 H   0  0  0  0  0  0  0  0  0  0  0  0
   -1.2776    8.0939    0.5500 H   0  0  0  0  0  0  0  0  0  0  0  0
   -2.4730   11.6869    0.0179 H   0  0  0  0  0  0  0  0  0  0  0  0
   -1.6157   11.2582   -1.5013 H   0  0  0  0  0  0  0  0  0  0  0  0
   -3.4017   11.4500   -1.5013 H   0  0  0  0  0  0  0  0  0  0  0  0
   -4.0527    9.2159    0.9879 H   0  0  0  0  0  0  0  0  0  0  0  0
   -4.8054    9.9165   -0.4849 H   0  0  0  0  0  0  0  0  0  0  0  0
   -4.2529    8.2073   -0.4849 H   0  0  0  0  0  0  0  0  0  0  0  0
    0.0016   11.4796   -1.2264 H   0  0  0  0  0  0  0  0  0  0  0  0
    1.6340   10.9740    0.4819 H   0  0  0  0  0  0  0  0  0  0  0  0
    2.8807   10.5737   -0.7189 H   0  0  0  0  0  0  0  0  0  0  0  0
    2.7530   12.9906    0.8007 H   0  0  0  0  0  0  0  0  0  0  0  0
    3.7567   12.7762   -0.6312 H   0  0  0  0  0  0  0  0  0  0  0  0
    0.9277   13.8438    0.9720 H   0  0  0  0  0  0  0  0  0  0  0  0
    0.1664   14.9229   -0.2457 H   0  0  0  0  0  0  0  0  0  0  0  0
   -0.2054   13.1655   -0.2457 H   0  0  0  0  0  0  0  0  0  0  0  0
    3.2948   14.6599   -2.0817 H   0  0  0  0  0  0  0  0  0  0  0  0
    3.2350   15.3311    0.4048 H   0  0  0  0  0  0  0  0  0  0  0  0
    3.7129   16.5408   -0.8977 H   0  0  0  0  0  0  0  0  0  0  0  0
    2.1355   17.4438    1.0093 H   0  0  0  0  0  0  0  0  0  0  0  0
   -0.4190   15.9300   -1.7238 H   0  0  0  0  0  0  0  0  0  0  0  0
    0.6836   18.4888   -3.0420 H   0  0  0  0  0  0  0  0  0  0  0  0
   -0.5158   17.3225   -3.7568 H   0  0  0  0  0  0  0  0  0  0  0  0
   -1.6022   19.3739   -2.8989 H   0  0  0  0  0  0  0  0  0  0  0  0
   -2.1317   17.8796   -2.0316 H   0  0  0  0  0  0  0  0  0  0  0  0
   -1.7794   19.6233   -0.4191 H   0  0  0  0  0  0  0  0  0  0  0  0
    0.5690   19.9580   -1.9480 H   0  0  0  0  0  0  0  0  0  0  0  0
   -1.4903   17.2311    1.7299 H   0  0  0  0  0  0  0  0  0  0  0  0
   -2.4379   17.6288    0.2566 H   0  0  0  0  0  0  0  0  0  0  0  0
   -1.3280   16.2164    0.2566 H   0  0  0  0  0  0  0  0  0  0  0  0
   -0.1528   18.4055    2.2918 H   0  0  0  0  0  0  0  0  0  0  0  0
    1.2875   18.9454    1.3641 H   0  0  0  0  0  0  0  0  0  0  0  0
   -0.2065   19.9427    1.3641 H   0  0  0  0  0  0  0  0  0  0  0  0
    3.0924   17.2749   -2.7322 H   0  0  0  0  0  0  0  0  0  0  0  0
    3.1140   16.0607   -4.0559 H   0  0  0  0  0  0  0  0  0  0  0  0
    1.8816   17.3676   -4.0559 H   0  0  0  0  0  0  0  0  0  0  0  0
   -0.0453   15.3252   -4.0632 H   0  0  0  0  0  0  0  0  0  0  0  0
    1.6148   14.5584   -4.3631 H   0  0  0  0  0  0  0  0  0  0  0  0
   -0.5438   13.6083   -2.4593 H   0  0  0  0  0  0  0  0  0  0  0  0
    0.0804   12.8011   -3.9514 H   0  0  0  0  0  0  0  0  0  0  0  0
    3.5362   12.2547   -2.6352 H   0  0  0  0  0  0  0  0  0  0  0  0
    2.4043   11.6014   -3.8676 H   0  0  0  0  0  0  0  0  0  0  0  0
    2.8212   13.3487   -3.8676 H   0  0  0  0  0  0  0  0  0  0  0  0
  1  2  1  0
  2  3  1  0
  3  4  1  0
  4  5  1  0
  5  6  1  0
  6  7  1  0
  7  8  1  0
  7  9  1  0
  2 10  1  0
 10 11  1  0
 11 12  1  0
 12 13  1  0
 13 14  1  1
 13 15  1  0
 15 16  1  0
 16 17  1  0
 17 18  2  0
 18 19  1  0
 19 20  1  0
 20 21  1  0
 21 22  1  0
 22 23  1  0
 22 24  1  0
 24 25  1  0
 24 26  1  0
 19 27  1  0
 27 28  1  6
 27 29  1  0
 29 30  1  0
 30 31  1  0
 31 32  1  6
  7  5  1  0
 31 10  1  0
 31 13  1  0
 27 15  1  0
 24 18  1  0
  1 33  1  0
  1 34  1  0
  1 35  1  0
  2 36  1  6
  3 37  1  0
  3 38  1  0
  4 39  1  0
  4 40  1  0
  5 41  1  1
  8 42  1  0
  8 43  1  0
  8 44  1  0
  9 45  1  0
  9 46  1  0
  9 47  1  0
 10 48  1  1
 11 49  1  0
 11 50  1  0
 12 51  1  0
 12 52  1  0
 14 53  1  0
 14 54  1  0
 14 55  1  0
 15 56  1  6
 16 57  1  0
 16 58  1  0
 17 59  1  0
 19 60  1  1
 20 61  1  0
 20 62  1  0
 21 63  1  0
 21 64  1  0
 22 65  1  1
 23 66  1  0
 25 67  1  0
 25 68  1  0
 25 69  1  0
 26 70  1  0
 26 71  1  0
 26 72  1  0
 28 73  1  0
 28 74  1  0
 28 75  1  0
 29 76  1  0
 29 77  1  0
 30 78  1  0
 30 79  1  0
 32 80  1  0
 32 81  1  0
 32 82  1  0
M  END
>  <meeko>  (8) 
{"is_sidechain": [false], "intermolecular_energy": 2.731, "internal_energy": -0.839}

$$$$
EPH_relaxed_0001_pdb2pqr_Repair_387_r2_0001_out
     RDKit          3D

 82 86  0  0  0  0  0  0  0  0999 V2000
    0.4460    8.8410   -2.4670 C   0  0  0  0  0  0  0  0  0  0  0  0
    1.1980    9.9950   -3.1360 C   0  0  2  0  0  0  0  0  0  0  0  0
    2.6940   10.0070   -2.7630 C   0  0  0  0  0  0  0  0  0  0  0  0
    3.5970   10.5820   -3.8570 C   0  0  0  0  0  0  0  0  0  0  0  0
    4.9870   10.8290   -3.3550 C   0  0  2  0  0  0  0  0  0  0  0  0
    5.5820   12.0500   -3.8160 O   0  0  0  0  0  0  0  0  0  0  0  0
    6.2120   10.8340   -4.2520 C   0  0  0  0  0  0  0  0  0  0  0  0
    6.1020   10.5860   -5.7240 C   0  0  0  0  0  0  0  0  0  0  0  0
    7.5530   10.5940   -3.6320 C   0  0  0  0  0  0  0  0  0  0  0  0
    0.5550   11.3240   -2.7570 C   0  0  1  0  0  0  0  0  0  0  0  0
   -0.8260   11.1460   -2.0710 C   0  0  0  0  0  0  0  0  0  0  0  0
   -0.9490   12.2730   -1.0140 C   0  0  0  0  0  0  0  0  0  0  0  0
    0.2020   13.2500   -1.3500 C   0  0  1  0  0  0  0  0  0  0  0  0
   -0.3420   14.1210   -2.5260 C   0  0  0  0  0  0  0  0  0  0  0  0
    0.7250   14.1340   -0.1710 C   0  0  2  0  0  0  0  0  0  0  0  0
   -0.3100   15.1030    0.4270 C   0  0  0  0  0  0  0  0  0  0  0  0
   -0.3520   16.4580   -0.1990 C   0  0  0  0  0  0  0  0  0  0  0  0
    0.5940   16.9770   -1.0040 C   0  0  0  0  0  0  0  0  0  0  0  0
    1.8970   16.2170   -1.2790 C   0  0  1  0  0  0  0  0  0  0  0  0
    3.1020   17.1830   -1.1310 C   0  0  0  0  0  0  0  0  0  0  0  0
    2.9600   18.4320   -1.9970 C   0  0  0  0  0  0  0  0  0  0  0  0
    1.6810   19.1910   -1.6540 C   0  0  2  0  0  0  0  0  0  0  0  0
    1.7990   19.7150   -0.3270 O   0  0  0  0  0  0  0  0  0  0  0  0
    0.4010   18.3160   -1.7580 C   0  0  0  0  0  0  0  0  0  0  0  0
    0.1080   17.9980   -3.2450 C   0  0  0  0  0  0  0  0  0  0  0  0
   -0.7980   19.1610   -1.2500 C   0  0  0  0  0  0  0  0  0  0  0  0
    2.0970   14.8650   -0.4680 C   0  0  1  0  0  0  0  0  0  0  0  0
    2.7490   15.1670    0.9160 C   0  0  0  0  0  0  0  0  0  0  0  0
    3.1100   13.9430   -1.2440 C   0  0  0  0  0  0  0  0  0  0  0  0
    2.5170   13.0060   -2.3140 C   0  0  0  0  0  0  0  0  0  0  0  0
    1.3230   12.2260   -1.7580 C   0  0  2  0  0  0  0  0  0  0  0  0
    1.8430   11.3240   -0.5880 C   0  0  0  0  0  0  0  0  0  0  0  0
    0.5133    8.9443   -1.3739 H   0  0  0  0  0  0  0  0  0  0  0  0
   -0.6102    8.8652   -2.7732 H   0  0  0  0  0  0  0  0  0  0  0  0
    0.8947    7.8845   -2.7732 H   0  0  0  0  0  0  0  0  0  0  0  0
    1.1308    9.8471   -4.2239 H   0  0  0  0  0  0  0  0  0  0  0  0
    2.8203   10.6137   -1.8542 H   0  0  0  0  0  0  0  0  0  0  0  0
    2.9964    8.9599   -2.6144 H   0  0  0  0  0  0  0  0  0  0  0  0
    3.6415    9.8693   -4.6937 H   0  0  0  0  0  0  0  0  0  0  0  0
    3.1733   11.5441   -4.1809 H   0  0  0  0  0  0  0  0  0  0  0  0
    4.7648   10.3077   -2.4122 H   0  0  0  0  0  0  0  0  0  0  0  0
    5.6615    9.5929   -5.8966 H   0  0  0  0  0  0  0  0  0  0  0  0
    5.4608   11.3556   -6.1786 H   0  0  0  0  0  0  0  0  0  0  0  0
    7.1028   10.6273   -6.1786 H   0  0  0  0  0  0  0  0  0  0  0  0
    7.4586   10.6109   -2.5362 H   0  0  0  0  0  0  0  0  0  0  0  0
    7.9347    9.6133   -3.9521 H   0  0  0  0  0  0  0  0  0  0  0  0
    8.2512   11.3815   -3.9521 H   0  0  0  0  0  0  0  0  0  0  0  0
    0.5222   11.8020   -3.7472 H   0  0  0  0  0  0  0  0  0  0  0  0
   -1.6322   11.2340   -2.8141 H   0  0  0  0  0  0  0  0  0  0  0  0
   -0.9093   10.1543   -1.6024 H   0  0  0  0  0  0  0  0  0  0  0  0
   -1.9230   12.7775   -1.0958 H   0  0  0  0  0  0  0  0  0  0  0  0
   -0.8835   11.8891    0.0148 H   0  0  0  0  0  0  0  0  0  0  0  0
   -0.8836   14.9881   -2.1200 H   0  0  0  0  0  0  0  0  0  0  0  0
    0.4989   14.4701   -3.1433 H   0  0  0  0  0  0  0  0  0  0  0  0
   -1.0246   13.5185   -3.1433 H   0  0  0  0  0  0  0  0  0  0  0  0
    0.9237   13.3882    0.6128 H   0  0  0  0  0  0  0  0  0  0  0  0
   -1.3051   14.6472    0.3177 H   0  0  0  0  0  0  0  0  0  0  0  0
   -0.0099   15.2606    1.4735 H   0  0  0  0  0  0  0  0  0  0  0  0
   -1.2299   17.0850    0.0157 H   0  0  0  0  0  0  0  0  0  0  0  0
    1.8272   15.8629   -2.3181 H   0  0  0  0  0  0  0  0  0  0  0  0
    3.1799   17.4910   -0.0779 H   0  0  0  0  0  0  0  0  0  0  0  0
    4.0030   16.6466   -1.4634 H   0  0  0  0  0  0  0  0  0  0  0  0
    3.8254   19.0891   -1.8258 H   0  0  0  0  0  0  0  0  0  0  0  0
    2.9135   18.1243   -3.0521 H   0  0  0  0  0  0  0  0  0  0  0  0
    1.5686   19.9983   -2.3927 H   0  0  0  0  0  0  0  0  0  0  0  0
    2.6220   20.2310   -0.2860 H   0  0  0  0  0  0  0  0  0  0  0  0
   -0.6362   17.1903   -3.3075 H   0  0  0  0  0  0  0  0  0  0  0  0
   -0.2845   18.8975   -3.7419 H   0  0  0  0  0  0  0  0  0  0  0  0
    1.0365   17.6803   -3.7419 H   0  0  0  0  0  0  0  0  0  0  0  0
   -0.8038   19.1651   -0.1500 H   0  0  0  0  0  0  0  0  0  0  0  0
   -0.7025   20.1925   -1.6200 H   0  0  0  0  0  0  0  0  0  0  0  0
   -1.7373   18.7242   -1.6200 H   0  0  0  0  0  0  0  0  0  0  0  0
    2.0671   14.8512    1.7193 H   0  0  0  0  0  0  0  0  0  0  0  0
    3.6974   14.6165    1.0025 H   0  0  0  0  0  0  0  0  0  0  0  0
    2.9424   16.2464    1.0025 H   0  0  0  0  0  0  0  0  0  0  0  0
    3.8407   14.5970   -1.7424 H   0  0  0  0  0  0  0  0  0  0  0  0
    3.5349   13.2752   -0.4801 H   0  0  0  0  0  0  0  0  0  0  0  0
    2.1857   13.6062   -3.1742 H   0  0  0  0  0  0  0  0  0  0  0  0
    3.2925   12.2887   -2.6209 H   0  0  0  0  0  0  0  0  0  0  0  0
    1.5778   11.7840    0.3753 H   0  0  0  0  0  0  0  0  0  0  0  0
    1.3801   10.3287   -0.6588 H   0  0  0  0  0  0  0  0  0  0  0  0
    2.9363   11.2258   -0.6588 H   0  0  0  0  0  0  0  0  0  0  0  0
  1  2  1  0
  2  3  1  0
  3  4  1  0
  4  5  1  0
  5  6  1  0
  6  7  1  0
  7  8  1  0
  7  9  1  0
  2 10  1  0
 10 11  1  0
 11 12  1  0
 12 13  1  0
 13 14  1  6
 13 15  1  0
 15 16  1  0
 16 17  1  0
 17 18  2  0
 18 19  1  0
 19 20  1  0
 20 21  1  0
 21 22  1  0
 22 23  1  0
 22 24  1  0
 24 25  1  0
 24 26  1  0
 19 27  1  0
 27 28  1  1
 27 29  1  0
 29 30  1  0
 30 31  1  0
 31 32  1  1
  7  5  1  0
 31 10  1  0
 31 13  1  0
 27 15  1  0
 24 18  1  0
  1 33  1  0
  1 34  1  0
  1 35  1  0
  2 36  1  6
  3 37  1  0
  3 38  1  0
  4 39  1  0
  4 40  1  0
  5 41  1  1
  8 42  1  0
  8 43  1  0
  8 44  1  0
  9 45  1  0
  9 46  1  0
  9 47  1  0
 10 48  1  6
 11 49  1  0
 11 50  1  0
 12 51  1  0
 12 52  1  0
 14 53  1  0
 14 54  1  0
 14 55  1  0
 15 56  1  1
 16 57  1  0
 16 58  1  0
 17 59  1  0
 19 60  1  6
 20 61  1  0
 20 62  1  0
 21 63  1  0
 21 64  1  0
 22 65  1  6
 23 66  1  0
 25 67  1  0
 25 68  1  0
 25 69  1  0
 26 70  1  0
 26 71  1  0
 26 72  1  0
 28 73  1  0
 28 74  1  0
 28 75  1  0
 29 76  1  0
 29 77  1  0
 30 78  1  0
 30 79  1  0
 32 80  1  0
 32 81  1  0
 32 82  1  0
M  END
>  <meeko>  (9) 
{"is_sidechain": [false], "intermolecular_energy": 2.731, "internal_energy": -0.839}

$$$$
EPH_relaxed_0001_pdb2pqr_Repair_387_r2_0001_out
     RDKit          3D

 82 86  0  0  0  0  0  0  0  0999 V2000
    0.2290   17.7110   -2.5140 C   0  0  0  0  0  0  0  0  0  0  0  0
   -0.0160   16.8420   -1.2770 C   0  0  2  0  0  0  0  0  0  0  0  0
   -0.0120   17.6700    0.0240 C   0  0  0  0  0  0  0  0  0  0  0  0
    0.5520   19.0830   -0.1470 C   0  0  0  0  0  0  0  0  0  0  0  0
    1.6790   19.3490    0.8040 C   0  0  2  0  0  0  0  0  0  0  0  0
    2.7140   20.1940    0.2850 O   0  0  0  0  0  0  0  0  0  0  0  0
    3.0930   18.8420    0.5890 C   0  0  0  0  0  0  0  0  0  0  0  0
    3.4550   18.0270   -0.6130 C   0  0  0  0  0  0  0  0  0  0  0  0
    3.9980   18.7220    1.7740 C   0  0  0  0  0  0  0  0  0  0  0  0
    1.0360   15.7420   -1.1980 C   0  0  1  0  0  0  0  0  0  0  0  0
    1.1630   15.1390    0.2260 C   0  0  0  0  0  0  0  0  0  0  0  0
    1.4820   13.6320    0.0470 C   0  0  0  0  0  0  0  0  0  0  0  0
    1.8530   13.4870   -1.4480 C   0  0  1  0  0  0  0  0  0  0  0  0
    3.3440   13.9420   -1.5360 C   0  0  0  0  0  0  0  0  0  0  0  0
    1.6430   12.0720   -2.0780 C   0  0  2  0  0  0  0  0  0  0  0  0
    2.4940   10.9490   -1.4590 C   0  0  0  0  0  0  0  0  0  0  0  0
    3.8230   10.7290   -2.1020 C   0  0  0  0  0  0  0  0  0  0  0  0
    4.2000   11.2050   -3.3040 C   0  0  0  0  0  0  0  0  0  0  0  0
    3.2110   11.9700   -4.1930 C   0  0  1  0  0  0  0  0  0  0  0  0
    3.2970   11.4330   -5.6450 C   0  0  0  0  0  0  0  0  0  0  0  0
    4.7190   11.4610   -6.1960 C   0  0  0  0  0  0  0  0  0  0  0  0
    5.6610   10.6410   -5.3180 C   0  0  2  0  0  0  0  0  0  0  0  0
    5.2930    9.2620   -5.4100 O   0  0  0  0  0  0  0  0  0  0  0  0
    5.6520   11.0860   -3.8280 C   0  0  0  0  0  0  0  0  0  0  0  0
    6.3320   12.4710   -3.6940 C   0  0  0  0  0  0  0  0  0  0  0  0
    6.5330   10.0900   -3.0270 C   0  0  0  0  0  0  0  0  0  0  0  0
    1.7160   12.0490   -3.6590 C   0  0  1  0  0  0  0  0  0  0  0  0
    0.9180   10.7920   -4.1230 C   0  0  0  0  0  0  0  0  0  0  0  0
    1.0030   13.2930   -4.3090 C   0  0  0  0  0  0  0  0  0  0  0  0
    1.1480   14.6400   -3.5740 C   0  0  0  0  0  0  0  0  0  0  0  0
    0.8240   14.4900   -2.0850 C   0  0  2  0  0  0  0  0  0  0  0  0
   -0.6760   14.0550   -1.9640 C   0  0  0  0  0  0  0  0  0  0  0  0
    0.5150   18.7253   -2.1987 H   0  0  0  0  0  0  0  0  0  0  0  0
    1.0385   17.2722   -3.1159 H   0  0  0  0  0  0  0  0  0  0  0  0
   -0.6904   17.7596   -3.1159 H   0  0  0  0  0  0  0  0  0  0  0  0
   -1.0152   16.3937   -1.3798 H   0  0  0  0  0  0  0  0  0  0  0  0
   -1.0471   17.7510    0.3872 H   0  0  0  0  0  0  0  0  0  0  0  0
    0.6431   17.1466    0.7359 H   0  0  0  0  0  0  0  0  0  0  0  0
    0.9203   19.1975   -1.1772 H   0  0  0  0  0  0  0  0  0  0  0  0
   -0.2531   19.8016    0.0660 H   0  0  0  0  0  0  0  0  0  0  0  0
    0.9970   19.2901    1.6650 H   0  0  0  0  0  0  0  0  0  0  0  0
    3.8818   17.0662   -0.2895 H   0  0  0  0  0  0  0  0  0  0  0  0
    2.5538   17.8433   -1.2164 H   0  0  0  0  0  0  0  0  0  0  0  0
    4.1955   18.5725   -1.2164 H   0  0  0  0  0  0  0  0  0  0  0  0
    3.4054   18.8006    2.6974 H   0  0  0  0  0  0  0  0  0  0  0  0
    4.5090   17.7482    1.7480 H   0  0  0  0  0  0  0  0  0  0  0  0
    4.7451   19.5289    1.7480 H   0  0  0  0  0  0  0  0  0  0  0  0
    1.9163   16.3033   -1.5444 H   0  0  0  0  0  0  0  0  0  0  0  0
    1.9757   15.6354    0.7765 H   0  0  0  0  0  0  0  0  0  0  0  0
    0.2349   15.2808    0.7991 H   0  0  0  0  0  0  0  0  0  0  0  0
    2.3258   13.3349    0.6872 H   0  0  0  0  0  0  0  0  0  0  0  0
    0.6355   12.9896    0.3311 H   0  0  0  0  0  0  0  0  0  0  0  0
    3.7500   14.0659   -0.5212 H   0  0  0  0  0  0  0  0  0  0  0  0
    3.9283   13.1813   -2.0744 H   0  0  0  0  0  0  0  0  0  0  0  0
    3.4040   14.8994   -2.0744 H   0  0  0  0  0  0  0  0  0  0  0  0
    0.6026   11.8436   -1.8034 H   0  0  0  0  0  0  0  0  0  0  0  0
    2.6649   11.1958   -0.4008 H   0  0  0  0  0  0  0  0  0  0  0  0
    1.9258   10.0189   -1.6078 H   0  0  0  0  0  0  0  0  0  0  0  0
    4.5570   10.1267   -1.5466 H   0  0  0  0  0  0  0  0  0  0  0  0
    3.5292   13.0226   -4.1652 H   0  0  0  0  0  0  0  0  0  0  0  0
    2.9338   10.3948   -5.6590 H   0  0  0  0  0  0  0  0  0  0  0  0
    2.6802   12.0864   -6.2796 H   0  0  0  0  0  0  0  0  0  0  0  0
    4.7192   11.0422   -7.2132 H   0  0  0  0  0  0  0  0  0  0  0  0
    5.0698   12.5035   -6.2090 H   0  0  0  0  0  0  0  0  0  0  0  0
    6.6838   10.8047   -5.6884 H   0  0  0  0  0  0  0  0  0  0  0  0
    4.4070    9.2190   -5.8070 H   0  0  0  0  0  0  0  0  0  0  0  0
    6.4534   12.7184   -2.6291 H   0  0  0  0  0  0  0  0  0  0  0  0
    7.3190   12.4433   -4.1789 H   0  0  0  0  0  0  0  0  0  0  0  0
    5.7066   13.2350   -4.1789 H   0  0  0  0  0  0  0  0  0  0  0  0
    6.3865   10.2556   -1.9494 H   0  0  0  0  0  0  0  0  0  0  0  0
    6.2456    9.0593   -3.2820 H   0  0  0  0  0  0  0  0  0  0  0  0
    7.5911   10.2494   -3.2820 H   0  0  0  0  0  0  0  0  0  0  0  0
    0.5650   10.2360   -3.2420 H   0  0  0  0  0  0  0  0  0  0  0  0
    0.0548   11.1081   -4.7272 H   0  0  0  0  0  0  0  0  0  0  0  0
    1.5713   10.1453   -4.7272 H   0  0  0  0  0  0  0  0  0  0  0  0
    1.4138   13.4205   -5.3214 H   0  0  0  0  0  0  0  0  0  0  0  0
   -0.0714   13.0600   -4.2732 H   0  0  0  0  0  0  0  0  0  0  0  0
    2.1818   14.9997   -3.6828 H   0  0  0  0  0  0  0  0  0  0  0  0
    0.4417   15.3583   -4.0158 H   0  0  0  0  0  0  0  0  0  0  0  0
   -0.9502   13.9755   -0.9017 H   0  0  0  0  0  0  0  0  0  0  0  0
   -1.3157   14.8046   -2.4527 H   0  0  0  0  0  0  0  0  0  0  0  0
   -0.8154   13.0794   -2.4527 H   0  0  0  0  0  0  0  0  0  0  0  0
  1  2  1  0
  2  3  1  0
  3  4  1  0
  4  5  1  0
  5  6  1  0
  6  7  1  0
  7  8  1  0
  7  9  1  0
  2 10  1  0
 10 11  1  0
 11 12  1  0
 12 13  1  0
 13 14  1  1
 13 15  1  0
 15 16  1  0
 16 17  1  0
 17 18  2  0
 18 19  1  0
 19 20  1  0
 20 21  1  0
 21 22  1  0
 22 23  1  0
 22 24  1  0
 24 25  1  0
 24 26  1  0
 19 27  1  0
 27 28  1  6
 27 29  1  0
 29 30  1  0
 30 31  1  0
 31 32  1  6
  7  5  1  0
 31 10  1  0
 31 13  1  0
 27 15  1  0
 24 18  1  0
  1 33  1  0
  1 34  1  0
  1 35  1  0
  2 36  1  6
  3 37  1  0
  3 38  1  0
  4 39  1  0
  4 40  1  0
  5 41  1  1
  8 42  1  0
  8 43  1  0
  8 44  1  0
  9 45  1  0
  9 46  1  0
  9 47  1  0
 10 48  1  6
 11 49  1  0
 11 50  1  0
 12 51  1  0
 12 52  1  0
 14 53  1  0
 14 54  1  0
 14 55  1  0
 15 56  1  6
 16 57  1  0
 16 58  1  0
 17 59  1  0
 19 60  1  6
 20 61  1  0
 20 62  1  0
 21 63  1  0
 21 64  1  0
 22 65  1  6
 23 66  1  0
 25 67  1  0
 25 68  1  0
 25 69  1  0
 26 70  1  0
 26 71  1  0
 26 72  1  0
 28 73  1  0
 28 74  1  0
 28 75  1  0
 29 76  1  0
 29 77  1  0
 30 78  1  0
 30 79  1  0
 32 80  1  0
 32 81  1  0
 32 82  1  0
M  END
>  <meeko>  (10) 
{"is_sidechain": [false], "intermolecular_energy": 2.731, "internal_energy": -0.839}

$$$$
EPH_relaxed_0001_pdb2pqr_Repair_387_r2_0001_out
     RDKit          3D

 82 86  0  0  0  0  0  0  0  0999 V2000
    1.9760   19.8550   -1.9830 C   0  0  0  0  0  0  0  0  0  0  0  0
    1.5820   19.7020   -0.5110 C   0  0  2  0  0  0  0  0  0  0  0  0
    2.7090   20.1510    0.4410 C   0  0  0  0  0  0  0  0  0  0  0  0
    3.1990   19.0450    1.3790 C   0  0  0  0  0  0  0  0  0  0  0  0
    3.7040   19.6020    2.6760 C   0  0  2  0  0  0  0  0  0  0  0  0
    5.0090   20.1910    2.6080 O   0  0  0  0  0  0  0  0  0  0  0  0
    4.8840   19.0220    3.4330 C   0  0  0  0  0  0  0  0  0  0  0  0
    5.6320   17.8320    2.9180 C   0  0  0  0  0  0  0  0  0  0  0  0
    5.0030   19.3020    4.8980 C   0  0  0  0  0  0  0  0  0  0  0  0
    1.2030   18.2550   -0.2230 C   0  0  1  0  0  0  0  0  0  0  0  0
   -0.1360   18.1310    0.5530 C   0  0  0  0  0  0  0  0  0  0  0  0
   -0.8330   16.8450    0.0400 C   0  0  0  0  0  0  0  0  0  0  0  0
    0.2610   16.1010   -0.7600 C   0  0  1  0  0  0  0  0  0  0  0  0
    1.1120   15.3590    0.3180 C   0  0  0  0  0  0  0  0  0  0  0  0
   -0.2400   15.1220   -1.8720 C   0  0  2  0  0  0  0  0  0  0  0  0
   -1.0840   13.9390   -1.3680 C   0  0  0  0  0  0  0  0  0  0  0  0
   -0.3140   12.7070   -1.0250 C   0  0  0  0  0  0  0  0  0  0  0  0
    0.9590   12.4560   -1.3820 C   0  0  0  0  0  0  0  0  0  0  0  0
    1.7270   13.4220   -2.2950 C   0  0  1  0  0  0  0  0  0  0  0  0
    2.4510   12.6180   -3.4060 C   0  0  0  0  0  0  0  0  0  0  0  0
    3.3420   11.5150   -2.8440 C   0  0  0  0  0  0  0  0  0  0  0  0
    2.5330   10.5420   -1.9910 C   0  0  2  0  0  0  0  0  0  0  0  0
    1.6190    9.8370   -2.8370 O   0  0  0  0  0  0  0  0  0  0  0  0
    1.7510   11.2390   -0.8430 C   0  0  0  0  0  0  0  0  0  0  0  0
    2.7440   11.7430    0.2330 C   0  0  0  0  0  0  0  0  0  0  0  0
    0.8670   10.1680   -0.1490 C   0  0  0  0  0  0  0  0  0  0  0  0
    0.8890   14.6430   -2.8710 C   0  0  1  0  0  0  0  0  0  0  0  0
    0.1690   14.2200   -4.1880 C   0  0  0  0  0  0  0  0  0  0  0  0
    1.8770   15.8060   -3.2600 C   0  0  0  0  0  0  0  0  0  0  0  0
    2.2410   16.8090   -2.1490 C   0  0  0  0  0  0  0  0  0  0  0  0
    0.9830   17.3210   -1.4390 C   0  0  2  0  0  0  0  0  0  0  0  0
    0.1180   18.0900   -2.4950 C   0  0  0  0  0  0  0  0  0  0  0  0
    2.9995   20.2525   -2.0492 H   0  0  0  0  0  0  0  0  0  0  0  0
    1.9308   18.8740   -2.4785 H   0  0  0  0  0  0  0  0  0  0  0  0
    1.2806   20.5484   -2.4785 H   0  0  0  0  0  0  0  0  0  0  0  0
    0.7165   20.3563   -0.3298 H   0  0  0  0  0  0  0  0  0  0  0  0
    3.5600   20.4942   -0.1657 H   0  0  0  0  0  0  0  0  0  0  0  0
    2.2958   20.9500    1.0742 H   0  0  0  0  0  0  0  0  0  0  0  0
    2.3653   18.3581    1.5865 H   0  0  0  0  0  0  0  0  0  0  0  0
    4.0292   18.5190    0.8850 H   0  0  0  0  0  0  0  0  0  0  0  0
    2.6818   19.8614    2.9889 H   0  0  0  0  0  0  0  0  0  0  0  0
    6.0051   17.2384    3.7656 H   0  0  0  0  0  0  0  0  0  0  0  0
    4.9599   17.2136    2.3050 H   0  0  0  0  0  0  0  0  0  0  0  0
    6.4807   18.1695    2.3050 H   0  0  0  0  0  0  0  0  0  0  0  0
    4.6350   18.4361    5.4679 H   0  0  0  0  0  0  0  0  0  0  0  0
    6.0573   19.4866    5.1516 H   0  0  0  0  0  0  0  0  0  0  0  0
    4.4042   20.1892    5.1516 H   0  0  0  0  0  0  0  0  0  0  0  0
    2.0956   17.9395    0.3372 H   0  0  0  0  0  0  0  0  0  0  0  0
    0.0580   18.0516    1.6328 H   0  0  0  0  0  0  0  0  0  0  0  0
   -0.7698   19.0153    0.3906 H   0  0  0  0  0  0  0  0  0  0  0  0
   -1.1834   16.2307    0.8826 H   0  0  0  0  0  0  0  0  0  0  0  0
   -1.7194   17.0669   -0.5724 H   0  0  0  0  0  0  0  0  0  0  0  0
    0.7721   15.6554    1.3213 H   0  0  0  0  0  0  0  0  0  0  0  0
    0.9915   14.2724    0.1962 H   0  0  0  0  0  0  0  0  0  0  0  0
    2.1720   15.6263    0.1962 H   0  0  0  0  0  0  0  0  0  0  0  0
   -0.9291   15.7552   -2.4501 H   0  0  0  0  0  0  0  0  0  0  0  0
   -1.6225   14.2654   -0.4661 H   0  0  0  0  0  0  0  0  0  0  0  0
   -1.7471   13.6616   -2.2007 H   0  0  0  0  0  0  0  0  0  0  0  0
   -0.8308   11.9395   -0.4302 H   0  0  0  0  0  0  0  0  0  0  0  0
    2.4682   13.9233   -1.6551 H   0  0  0  0  0  0  0  0  0  0  0  0
    1.6942   12.1608   -4.0604 H   0  0  0  0  0  0  0  0  0  0  0  0
    3.0948   13.3179   -3.9588 H   0  0  0  0  0  0  0  0  0  0  0  0
    3.8034   10.9652   -3.6776 H   0  0  0  0  0  0  0  0  0  0  0  0
    4.1156   11.9762   -2.2124 H   0  0  0  0  0  0  0  0  0  0  0  0
    3.2440    9.8522   -1.5128 H   0  0  0  0  0  0  0  0  0  0  0  0
    0.7190   10.0990   -2.5810 H   0  0  0  0  0  0  0  0  0  0  0  0
    2.3365   11.5362    1.2336 H   0  0  0  0  0  0  0  0  0  0  0  0
    3.7069   11.2245    0.1149 H   0  0  0  0  0  0  0  0  0  0  0  0
    2.8939   12.8263    0.1149 H   0  0  0  0  0  0  0  0  0  0  0  0
    0.9533   10.2726    0.9426 H   0  0  0  0  0  0  0  0  0  0  0  0
   -0.1820   10.3080   -0.4489 H   0  0  0  0  0  0  0  0  0  0  0  0
    1.2033    9.1645   -0.4489 H   0  0  0  0  0  0  0  0  0  0  0  0
   -0.7555   13.6769   -3.9423 H   0  0  0  0  0  0  0  0  0  0  0  0
   -0.0777   15.1168   -4.7753 H   0  0  0  0  0  0  0  0  0  0  0  0
    0.8323   13.5680   -4.7753 H   0  0  0  0  0  0  0  0  0  0  0  0
    2.8118   15.3449   -3.6114 H   0  0  0  0  0  0  0  0  0  0  0  0
    1.3415   16.3973   -4.0174 H   0  0  0  0  0  0  0  0  0  0  0  0
    2.8917   16.3120   -1.4145 H   0  0  0  0  0  0  0  0  0  0  0  0
    2.7594   17.6652   -2.6053 H   0  0  0  0  0  0  0  0  0  0  0  0
   -0.6068   18.7344   -1.9760 H   0  0  0  0  0  0  0  0  0  0  0  0
    0.7735   18.7090   -3.1252 H   0  0  0  0  0  0  0  0  0  0  0  0
   -0.4200   17.3665   -3.1252 H   0  0  0  0  0  0  0  0  0  0  0  0
  1  2  1  0
  2  3  1  0
  3  4  1  0
  4  5  1  0
  5  6  1  0
  6  7  1  0
  7  8  1  0
  7  9  1  0
  2 10  1  0
 10 11  1  0
 11 12  1  0
 12 13  1  0
 13 14  1  1
 13 15  1  0
 15 16  1  0
 16 17  1  0
 17 18  2  0
 18 19  1  0
 19 20  1  0
 20 21  1  0
 21 22  1  0
 22 23  1  0
 22 24  1  0
 24 25  1  0
 24 26  1  0
 19 27  1  0
 27 28  1  6
 27 29  1  0
 29 30  1  0
 30 31  1  0
 31 32  1  6
  7  5  1  0
 31 10  1  0
 31 13  1  0
 27 15  1  0
 24 18  1  0
  1 33  1  0
  1 34  1  0
  1 35  1  0
  2 36  1  6
  3 37  1  0
  3 38  1  0
  4 39  1  0
  4 40  1  0
  5 41  1  1
  8 42  1  0
  8 43  1  0
  8 44  1  0
  9 45  1  0
  9 46  1  0
  9 47  1  0
 10 48  1  1
 11 49  1  0
 11 50  1  0
 12 51  1  0
 12 52  1  0
 14 53  1  0
 14 54  1  0
 14 55  1  0
 15 56  1  6
 16 57  1  0
 16 58  1  0
 17 59  1  0
 19 60  1  1
 20 61  1  0
 20 62  1  0
 21 63  1  0
 21 64  1  0
 22 65  1  1
 23 66  1  0
 25 67  1  0
 25 68  1  0
 25 69  1  0
 26 70  1  0
 26 71  1  0
 26 72  1  0
 28 73  1  0
 28 74  1  0
 28 75  1  0
 29 76  1  0
 29 77  1  0
 30 78  1  0
 30 79  1  0
 32 80  1  0
 32 81  1  0
 32 82  1  0
M  END
>  <meeko>  (11) 
{"is_sidechain": [false], "intermolecular_energy": 2.731, "internal_energy": -0.839}

$$$$
EPH_relaxed_0001_pdb2pqr_Repair_387_r2_0001_out
     RDKit          3D

 82 86  0  0  0  0  0  0  0  0999 V2000
   -0.8830   16.3560   -5.8470 C   0  0  0  0  0  0  0  0  0  0  0  0
    0.2140   15.6620   -6.6600 C   0  0  2  0  0  0  0  0  0  0  0  0
   -0.1850   15.4840   -8.1390 C   0  0  0  0  0  0  0  0  0  0  0  0
    0.4620   16.5050   -9.0780 C   0  0  0  0  0  0  0  0  0  0  0  0
    1.8630   16.1160   -9.4400 C   0  0  2  0  0  0  0  0  0  0  0  0
    2.3420   16.6770  -10.6700 O   0  0  0  0  0  0  0  0  0  0  0  0
    2.2080   15.2470  -10.6350 C   0  0  0  0  0  0  0  0  0  0  0  0
    1.1460   14.7130  -11.5440 C   0  0  0  0  0  0  0  0  0  0  0  0
    3.5160   14.5190  -10.6370 C   0  0  0  0  0  0  0  0  0  0  0  0
    0.5410   14.3080   -6.0420 C   0  0  1  0  0  0  0  0  0  0  0  0
    1.8010   13.6540   -6.6690 C   0  0  0  0  0  0  0  0  0  0  0  0
    2.5200   12.8870   -5.5300 C   0  0  0  0  0  0  0  0  0  0  0  0
    1.4910   12.8460   -4.3760 C   0  0  1  0  0  0  0  0  0  0  0  0
    0.5330   11.6670   -4.7350 C   0  0  0  0  0  0  0  0  0  0  0  0
    2.0750   12.6970   -2.9330 C   0  0  2  0  0  0  0  0  0  0  0  0
    2.8490   11.3920   -2.6750 C   0  0  0  0  0  0  0  0  0  0  0  0
    2.0300   10.2560   -2.1580 C   0  0  0  0  0  0  0  0  0  0  0  0
    0.7910   10.3570   -1.6420 C   0  0  0  0  0  0  0  0  0  0  0  0
    0.1270   11.7260   -1.4490 C   0  0  1  0  0  0  0  0  0  0  0  0
   -0.5070   11.8000   -0.0350 C   0  0  0  0  0  0  0  0  0  0  0  0
   -1.4640   10.6440    0.2380 C   0  0  0  0  0  0  0  0  0  0  0  0
   -0.7520    9.3010    0.0940 C   0  0  2  0  0  0  0  0  0  0  0  0
    0.2230    9.1820    1.1340 O   0  0  0  0  0  0  0  0  0  0  0  0
   -0.0660    9.1170   -1.2890 C   0  0  0  0  0  0  0  0  0  0  0  0
   -1.1460    8.9440   -2.3860 C   0  0  0  0  0  0  0  0  0  0  0  0
    0.7320    7.7860   -1.2520 C   0  0  0  0  0  0  0  0  0  0  0  0
    1.0340   12.9890   -1.7790 C   0  0  1  0  0  0  0  0  0  0  0  0
    1.8640   13.3900   -0.5210 C   0  0  0  0  0  0  0  0  0  0  0  0
    0.1050   14.2170   -2.1080 C   0  0  0  0  0  0  0  0  0  0  0  0
   -0.3410   14.3780   -3.5730 C   0  0  0  0  0  0  0  0  0  0  0  0
    0.8540   14.2760   -4.5250 C   0  0  2  0  0  0  0  0  0  0  0  0
    1.8250   15.4630   -4.2030 C   0  0  0  0  0  0  0  0  0  0  0  0
   -0.6804   16.2278   -4.7734 H   0  0  0  0  0  0  0  0  0  0  0  0
   -0.8980   17.4283   -6.0918 H   0  0  0  0  0  0  0  0  0  0  0  0
   -1.8584   15.9103   -6.0918 H   0  0  0  0  0  0  0  0  0  0  0  0
    1.1045   16.3072   -6.6334 H   0  0  0  0  0  0  0  0  0  0  0  0
    0.1162   14.4763   -8.4611 H   0  0  0  0  0  0  0  0  0  0  0  0
   -1.2728   15.6362   -8.1991 H   0  0  0  0  0  0  0  0  0  0  0  0
   -0.1377   16.5735   -9.9976 H   0  0  0  0  0  0  0  0  0  0  0  0
    0.4989   17.4736   -8.5579 H   0  0  0  0  0  0  0  0  0  0  0  0
    2.1456   16.0570   -8.3786 H   0  0  0  0  0  0  0  0  0  0  0  0
    0.3229   14.2991  -10.9429 H   0  0  0  0  0  0  0  0  0  0  0  0
    0.7637   15.5261  -12.1786 H   0  0  0  0  0  0  0  0  0  0  0  0
    1.5707   13.9212  -12.1786 H   0  0  0  0  0  0  0  0  0  0  0  0
    3.8376   14.3400   -9.6004 H   0  0  0  0  0  0  0  0  0  0  0  0
    3.3990   13.5562  -11.1560 H   0  0  0  0  0  0  0  0  0  0  0  0
    4.2726   15.1258  -11.1560 H   0  0  0  0  0  0  0  0  0  0  0  0
   -0.4033   13.7806   -6.2424 H   0  0  0  0  0  0  0  0  0  0  0  0
    1.5083   12.9577   -7.4687 H   0  0  0  0  0  0  0  0  0  0  0  0
    2.4616   14.4138   -7.1120 H   0  0  0  0  0  0  0  0  0  0  0  0
    2.7820   11.8686   -5.8529 H   0  0  0  0  0  0  0  0  0  0  0  0
    3.4619   13.3706   -5.2316 H   0  0  0  0  0  0  0  0  0  0  0  0
    0.1576   11.2050   -3.8100 H   0  0  0  0  0  0  0  0  0  0  0  0
   -0.3139   12.0490   -5.3240 H   0  0  0  0  0  0  0  0  0  0  0  0
    1.0802   10.9162   -5.3240 H   0  0  0  0  0  0  0  0  0  0  0  0
    2.8242   13.5016   -2.8971 H   0  0  0  0  0  0  0  0  0  0  0  0
    3.3080   11.0760   -3.6234 H   0  0  0  0  0  0  0  0  0  0  0  0
    3.5805   11.6230   -1.8867 H   0  0  0  0  0  0  0  0  0  0  0  0
    2.4767    9.2518   -2.2025 H   0  0  0  0  0  0  0  0  0  0  0  0
   -0.6605   11.7926   -2.2141 H   0  0  0  0  0  0  0  0  0  0  0  0
    0.2981   11.7757    0.7142 H   0  0  0  0  0  0  0  0  0  0  0  0
   -1.0859   12.7336    0.0230 H   0  0  0  0  0  0  0  0  0  0  0  0
   -1.8565   10.7355    1.2615 H   0  0  0  0  0  0  0  0  0  0  0  0
   -2.2843   10.6869   -0.4936 H   0  0  0  0  0  0  0  0  0  0  0  0
   -1.5152    8.5128    0.1733 H   0  0  0  0  0  0  0  0  0  0  0  0
    0.3210    8.2370    1.3390 H   0  0  0  0  0  0  0  0  0  0  0  0
   -2.1268    8.7869   -1.9134 H   0  0  0  0  0  0  0  0  0  0  0  0
   -1.1811    9.8480   -3.0118 H   0  0  0  0  0  0  0  0  0  0  0  0
   -0.8970    8.0743   -3.0118 H   0  0  0  0  0  0  0  0  0  0  0  0
    0.9078    7.4928   -0.2065 H   0  0  0  0  0  0  0  0  0  0  0  0
    0.1565    6.9992   -1.7617 H   0  0  0  0  0  0  0  0  0  0  0  0
    1.6972    7.9228   -1.7617 H   0  0  0  0  0  0  0  0  0  0  0  0
    1.3059   13.1204    0.3877 H   0  0  0  0  0  0  0  0  0  0  0  0
    2.8265   12.8575   -0.5317 H   0  0  0  0  0  0  0  0  0  0  0  0
    2.0451   14.4749   -0.5317 H   0  0  0  0  0  0  0  0  0  0  0  0
   -0.8019   14.1224   -1.4927 H   0  0  0  0  0  0  0  0  0  0  0  0
    0.7168   15.1058   -1.8943 H   0  0  0  0  0  0  0  0  0  0  0  0
   -1.0645   13.5864   -3.8178 H   0  0  0  0  0  0  0  0  0  0  0  0
   -0.8003   15.3704   -3.6924 H   0  0  0  0  0  0  0  0  0  0  0  0
    1.9173   15.5758   -3.1127 H   0  0  0  0  0  0  0  0  0  0  0  0
    2.8149   15.2546   -4.6351 H   0  0  0  0  0  0  0  0  0  0  0  0
    1.4245   16.3919   -4.6351 H   0  0  0  0  0  0  0  0  0  0  0  0
  1  2  1  0
  2  3  1  0
  3  4  1  0
  4  5  1  0
  5  6  1  0
  6  7  1  0
  7  8  1  0
  7  9  1  0
  2 10  1  0
 10 11  1  0
 11 12  1  0
 12 13  1  0
 13 14  1  6
 13 15  1  0
 15 16  1  0
 16 17  1  0
 17 18  2  0
 18 19  1  0
 19 20  1  0
 20 21  1  0
 21 22  1  0
 22 23  1  0
 22 24  1  0
 24 25  1  0
 24 26  1  0
 19 27  1  0
 27 28  1  1
 27 29  1  0
 29 30  1  0
 30 31  1  0
 31 32  1  1
  7  5  1  0
 31 10  1  0
 31 13  1  0
 27 15  1  0
 24 18  1  0
  1 33  1  0
  1 34  1  0
  1 35  1  0
  2 36  1  6
  3 37  1  0
  3 38  1  0
  4 39  1  0
  4 40  1  0
  5 41  1  1
  8 42  1  0
  8 43  1  0
  8 44  1  0
  9 45  1  0
  9 46  1  0
  9 47  1  0
 10 48  1  1
 11 49  1  0
 11 50  1  0
 12 51  1  0
 12 52  1  0
 14 53  1  0
 14 54  1  0
 14 55  1  0
 15 56  1  6
 16 57  1  0
 16 58  1  0
 17 59  1  0
 19 60  1  6
 20 61  1  0
 20 62  1  0
 21 63  1  0
 21 64  1  0
 22 65  1  1
 23 66  1  0
 25 67  1  0
 25 68  1  0
 25 69  1  0
 26 70  1  0
 26 71  1  0
 26 72  1  0
 28 73  1  0
 28 74  1  0
 28 75  1  0
 29 76  1  0
 29 77  1  0
 30 78  1  0
 30 79  1  0
 32 80  1  0
 32 81  1  0
 32 82  1  0
M  END
>  <meeko>  (12) 
{"is_sidechain": [false], "intermolecular_energy": 2.731, "internal_energy": -0.839}

$$$$
EPH_relaxed_0001_pdb2pqr_Repair_387_r2_0001_out
     RDKit          3D

 82 86  0  0  0  0  0  0  0  0999 V2000
   -4.1480    7.1770   -3.3660 C   0  0  0  0  0  0  0  0  0  0  0  0
   -4.0540    7.2450   -1.8390 C   0  0  2  0  0  0  0  0  0  0  0  0
   -5.4250    7.0400   -1.1640 C   0  0  0  0  0  0  0  0  0  0  0  0
   -6.6090    7.1570   -2.1270 C   0  0  0  0  0  0  0  0  0  0  0  0
   -7.3050    8.4770   -1.9920 C   0  0  2  0  0  0  0  0  0  0  0  0
   -8.0580    8.6370   -0.7820 O   0  0  0  0  0  0  0  0  0  0  0  0
   -8.8150    8.6320   -2.0030 C   0  0  0  0  0  0  0  0  0  0  0  0
   -9.7200    7.4500   -2.1540 C   0  0  0  0  0  0  0  0  0  0  0  0
   -9.3940    9.9660   -2.3580 C   0  0  0  0  0  0  0  0  0  0  0  0
   -3.4580    8.5820   -1.4140 C   0  0  1  0  0  0  0  0  0  0  0  0
   -4.0480    9.1000   -0.0750 C   0  0  0  0  0  0  0  0  0  0  0  0
   -2.9000    9.8320    0.6660 C   0  0  0  0  0  0  0  0  0  0  0  0
   -1.7930   10.0010   -0.4010 C   0  0  1  0  0  0  0  0  0  0  0  0
   -2.2230   11.2500   -1.2310 C   0  0  0  0  0  0  0  0  0  0  0  0
   -0.3310   10.1400    0.1370 C   0  0  2  0  0  0  0  0  0  0  0  0
   -0.0740   11.3760    1.0160 C   0  0  0  0  0  0  0  0  0  0  0  0
    0.3780   12.5960    0.2850 C   0  0  0  0  0  0  0  0  0  0  0  0
    0.8430   12.6240   -0.9780 C   0  0  0  0  0  0  0  0  0  0  0  0
    1.0430   11.3270   -1.7720 C   0  0  1  0  0  0  0  0  0  0  0  0
    2.4300   11.3540   -2.4660 C   0  0  0  0  0  0  0  0  0  0  0  0
    2.6320   12.6000   -3.3230 C   0  0  0  0  0  0  0  0  0  0  0  0
    2.4830   13.8670   -2.4860 C   0  0  2  0  0  0  0  0  0  0  0  0
    3.5600   13.9290   -1.5460 O   0  0  0  0  0  0  0  0  0  0  0  0
    1.1260   13.9470   -1.7310 C   0  0  0  0  0  0  0  0  0  0  0  0
   -0.0200   14.1840   -2.7450 C   0  0  0  0  0  0  0  0  0  0  0  0
    1.1620   15.2010   -0.8160 C   0  0  0  0  0  0  0  0  0  0  0  0
    0.7860    9.9780   -0.9730 C   0  0  1  0  0  0  0  0  0  0  0  0
    2.0880    9.5410   -0.2340 C   0  0  0  0  0  0  0  0  0  0  0  0
    0.4500    8.8300   -1.9960 C   0  0  0  0  0  0  0  0  0  0  0  0
   -1.0290    8.6660   -2.3970 C   0  0  0  0  0  0  0  0  0  0  0  0
   -1.9310    8.6310   -1.1600 C   0  0  2  0  0  0  0  0  0  0  0  0
   -1.5360    7.3710   -0.3160 C   0  0  0  0  0  0  0  0  0  0  0  0
   -5.0084    6.5546   -3.6530 H   0  0  0  0  0  0  0  0  0  0  0  0
   -4.2780    8.1915   -3.7709 H   0  0  0  0  0  0  0  0  0  0  0  0
   -3.2252    6.7361   -3.7709 H   0  0  0  0  0  0  0  0  0  0  0  0
   -3.3984    6.4251   -1.5103 H   0  0  0  0  0  0  0  0  0  0  0  0
   -5.4430    6.0374   -0.7119 H   0  0  0  0  0  0  0  0  0  0  0  0
   -5.5381    7.8395   -0.4171 H   0  0  0  0  0  0  0  0  0  0  0  0
   -6.2413    7.0517   -3.1584 H   0  0  0  0  0  0  0  0  0  0  0  0
   -7.3297    6.3628   -1.8823 H   0  0  0  0  0  0  0  0  0  0  0  0
   -6.5070    8.9816   -2.5564 H   0  0  0  0  0  0  0  0  0  0  0  0
  -10.0054    7.0773   -1.1592 H   0  0  0  0  0  0  0  0  0  0  0  0
  -10.6231    7.7479   -2.7069 H   0  0  0  0  0  0  0  0  0  0  0  0
   -9.1968    6.6559   -2.7069 H   0  0  0  0  0  0  0  0  0  0  0  0
   -9.6337   10.5184   -1.4374 H   0  0  0  0  0  0  0  0  0  0  0  0
   -8.6630   10.5375   -2.9487 H   0  0  0  0  0  0  0  0  0  0  0  0
  -10.3107    9.8224   -2.9487 H   0  0  0  0  0  0  0  0  0  0  0  0
   -3.7118    9.1865   -2.2973 H   0  0  0  0  0  0  0  0  0  0  0  0
   -4.8771    9.7960   -0.2704 H   0  0  0  0  0  0  0  0  0  0  0  0
   -4.4428    8.2704    0.5299 H   0  0  0  0  0  0  0  0  0  0  0  0
   -3.2379   10.8121    1.0338 H   0  0  0  0  0  0  0  0  0  0  0  0
   -2.5491    9.2741    1.5467 H   0  0  0  0  0  0  0  0  0  0  0  0
   -2.5037   12.0653   -0.5479 H   0  0  0  0  0  0  0  0  0  0  0  0
   -1.3850   11.5751   -1.8651 H   0  0  0  0  0  0  0  0  0  0  0  0
   -3.0835   10.9903   -1.8651 H   0  0  0  0  0  0  0  0  0  0  0  0
   -0.2431    9.2728    0.8080 H   0  0  0  0  0  0  0  0  0  0  0  0
   -1.0098   11.6209    1.5398 H   0  0  0  0  0  0  0  0  0  0  0  0
    0.7506   11.1030    1.6909 H   0  0  0  0  0  0  0  0  0  0  0  0
    0.3269   13.5536    0.8239 H   0  0  0  0  0  0  0  0  0  0  0  0
    0.2464   11.3086   -2.5304 H   0  0  0  0  0  0  0  0  0  0  0  0
    3.2117   11.3276   -1.6926 H   0  0  0  0  0  0  0  0  0  0  0  0
    2.4877   10.4792   -3.1304 H   0  0  0  0  0  0  0  0  0  0  0  0
    3.6401   12.5752   -3.7624 H   0  0  0  0  0  0  0  0  0  0  0  0
    1.8679   12.6098   -4.1142 H   0  0  0  0  0  0  0  0  0  0  0  0
    2.5090   14.7226   -3.1768 H   0  0  0  0  0  0  0  0  0  0  0  0
    3.1730   13.9400   -0.6540 H   0  0  0  0  0  0  0  0  0  0  0  0
   -0.9564   14.3777   -2.2013 H   0  0  0  0  0  0  0  0  0  0  0  0
    0.2231   15.0509   -3.3770 H   0  0  0  0  0  0  0  0  0  0  0  0
   -0.1407   13.2918   -3.3770 H   0  0  0  0  0  0  0  0  0  0  0  0
    1.1530   14.8862    0.2380 H   0  0  0  0  0  0  0  0  0  0  0  0
    2.0770   15.7768   -1.0189 H   0  0  0  0  0  0  0  0  0  0  0  0
    0.2815   15.8283   -1.0189 H   0  0  0  0  0  0  0  0  0  0  0  0
    1.9282    9.5946    0.8530 H   0  0  0  0  0  0  0  0  0  0  0  0
    2.3413    8.5086   -0.5169 H   0  0  0  0  0  0  0  0  0  0  0  0
    2.9128   10.2115   -0.5169 H   0  0  0  0  0  0  0  0  0  0  0  0
    1.0239    9.0242   -2.9141 H   0  0  0  0  0  0  0  0  0  0  0  0
    0.7121    7.8965   -1.4766 H   0  0  0  0  0  0  0  0  0  0  0  0
   -1.3250    9.5121   -3.0345 H   0  0  0  0  0  0  0  0  0  0  0  0
   -1.1420    7.7165   -2.9408 H   0  0  0  0  0  0  0  0  0  0  0  0
   -1.6107    7.6092    0.7553 H   0  0  0  0  0  0  0  0  0  0  0  0
   -2.2171    6.5410   -0.5554 H   0  0  0  0  0  0  0  0  0  0  0  0
   -0.5030    7.0784   -0.5554 H   0  0  0  0  0  0  0  0  0  0  0  0
  1  2  1  0
  2  3  1  0
  3  4  1  0
  4  5  1  0
  5  6  1  0
  6  7  1  0
  7  8  1  0
  7  9  1  0
  2 10  1  0
 10 11  1  0
 11 12  1  0
 12 13  1  0
 13 14  1  6
 13 15  1  0
 15 16  1  0
 16 17  1  0
 17 18  2  0
 18 19  1  0
 19 20  1  0
 20 21  1  0
 21 22  1  0
 22 23  1  0
 22 24  1  0
 24 25  1  0
 24 26  1  0
 19 27  1  0
 27 28  1  1
 27 29  1  0
 29 30  1  0
 30 31  1  0
 31 32  1  1
  7  5  1  0
 31 10  1  0
 31 13  1  0
 27 15  1  0
 24 18  1  0
  1 33  1  0
  1 34  1  0
  1 35  1  0
  2 36  1  1
  3 37  1  0
  3 38  1  0
  4 39  1  0
  4 40  1  0
  5 41  1  6
  8 42  1  0
  8 43  1  0
  8 44  1  0
  9 45  1  0
  9 46  1  0
  9 47  1  0
 10 48  1  6
 11 49  1  0
 11 50  1  0
 12 51  1  0
 12 52  1  0
 14 53  1  0
 14 54  1  0
 14 55  1  0
 15 56  1  1
 16 57  1  0
 16 58  1  0
 17 59  1  0
 19 60  1  6
 20 61  1  0
 20 62  1  0
 21 63  1  0
 21 64  1  0
 22 65  1  6
 23 66  1  0
 25 67  1  0
 25 68  1  0
 25 69  1  0
 26 70  1  0
 26 71  1  0
 26 72  1  0
 28 73  1  0
 28 74  1  0
 28 75  1  0
 29 76  1  0
 29 77  1  0
 30 78  1  0
 30 79  1  0
 32 80  1  0
 32 81  1  0
 32 82  1  0
M  END
>  <meeko>  (13) 
{"is_sidechain": [false], "intermolecular_energy": 2.731, "internal_energy": -0.839}

$$$$
EPH_relaxed_0001_pdb2pqr_Repair_387_r2_0001_out
     RDKit          3D

 82 86  0  0  0  0  0  0  0  0999 V2000
   -2.1610    7.8550   -2.0850 C   0  0  0  0  0  0  0  0  0  0  0  0
   -2.1360    8.4830   -0.6890 C   0  0  2  0  0  0  0  0  0  0  0  0
   -3.5290    8.4860   -0.0280 C   0  0  0  0  0  0  0  0  0  0  0  0
   -4.6710    8.7860   -1.0020 C   0  0  0  0  0  0  0  0  0  0  0  0
   -5.6620    7.6630   -1.0580 C   0  0  2  0  0  0  0  0  0  0  0  0
   -6.3120    7.5010   -2.3250 O   0  0  0  0  0  0  0  0  0  0  0  0
   -7.1550    7.8720   -1.2220 C   0  0  0  0  0  0  0  0  0  0  0  0
   -7.7430    9.2430   -1.3400 C   0  0  0  0  0  0  0  0  0  0  0  0
   -8.0830    6.7830   -0.7800 C   0  0  0  0  0  0  0  0  0  0  0  0
   -1.5940    9.9060   -0.7690 C   0  0  1  0  0  0  0  0  0  0  0  0
   -1.0910   10.4320    0.6020 C   0  0  0  0  0  0  0  0  0  0  0  0
    0.1300   11.3410    0.3110 C   0  0  0  0  0  0  0  0  0  0  0  0
    0.0880   11.5750   -1.2170 C   0  0  1  0  0  0  0  0  0  0  0  0
   -0.9640   12.7100   -1.4200 C   0  0  0  0  0  0  0  0  0  0  0  0
    1.4500   11.9210   -1.9010 C   0  0  2  0  0  0  0  0  0  0  0  0
    2.1040   13.2310   -1.4270 C   0  0  0  0  0  0  0  0  0  0  0  0
    1.7250   14.4490   -2.2030 C   0  0  0  0  0  0  0  0  0  0  0  0
    1.1230   14.4540   -3.4070 C   0  0  0  0  0  0  0  0  0  0  0  0
    0.8490   13.1440   -4.1560 C   0  0  1  0  0  0  0  0  0  0  0  0
    1.2840   13.2930   -5.6370 C   0  0  0  0  0  0  0  0  0  0  0  0
    0.6420   14.4990   -6.3170 C   0  0  0  0  0  0  0  0  0  0  0  0
    0.9850   15.7890   -5.5770 C   0  0  2  0  0  0  0  0  0  0  0  0
    2.3880   16.0370   -5.7090 O   0  0  0  0  0  0  0  0  0  0  0  0
    0.6010   15.7520   -4.0710 C   0  0  0  0  0  0  0  0  0  0  0  0
   -0.9400   15.7870   -3.9260 C   0  0  0  0  0  0  0  0  0  0  0  0
    1.1280   17.0560   -3.4120 C   0  0  0  0  0  0  0  0  0  0  0  0
    1.4260   11.8260   -3.4800 C   0  0  1  0  0  0  0  0  0  0  0  0
    2.8990   11.5950   -3.9360 C   0  0  0  0  0  0  0  0  0  0  0  0
    0.6030   10.5840   -3.9920 C   0  0  0  0  0  0  0  0  0  0  0  0
   -0.6680   10.2200   -3.2020 C   0  0  0  0  0  0  0  0  0  0  0  0
   -0.3800   10.1530   -1.6990 C   0  0  2  0  0  0  0  0  0  0  0  0
    0.6590    9.0050   -1.4610 C   0  0  0  0  0  0  0  0  0  0  0  0
   -2.2046    6.7597   -1.9936 H   0  0  0  0  0  0  0  0  0  0  0  0
   -3.0456    8.2128   -2.6322 H   0  0  0  0  0  0  0  0  0  0  0  0
   -1.2507    8.1413   -2.6322 H   0  0  0  0  0  0  0  0  0  0  0  0
   -1.4746    7.8677   -0.0613 H   0  0  0  0  0  0  0  0  0  0  0  0
   -3.7040    7.4958    0.4181 H   0  0  0  0  0  0  0  0  0  0  0  0
   -3.5271    9.2899    0.7229 H   0  0  0  0  0  0  0  0  0  0  0  0
   -5.1871    9.7008   -0.6752 H   0  0  0  0  0  0  0  0  0  0  0  0
   -4.2404    8.9134   -2.0062 H   0  0  0  0  0  0  0  0  0  0  0  0
   -5.0743    7.0774   -0.3357 H   0  0  0  0  0  0  0  0  0  0  0  0
   -7.9193    9.6541   -0.3351 H   0  0  0  0  0  0  0  0  0  0  0  0
   -7.0455    9.8954   -1.8858 H   0  0  0  0  0  0  0  0  0  0  0  0
   -8.6964    9.1873   -1.8858 H   0  0  0  0  0  0  0  0  0  0  0  0
   -8.1117    6.7493    0.3191 H   0  0  0  0  0  0  0  0  0  0  0  0
   -9.0931    6.9824   -1.1672 H   0  0  0  0  0  0  0  0  0  0  0  0
   -7.7259    5.8173   -1.1672 H   0  0  0  0  0  0  0  0  0  0  0  0
   -2.4824   10.4196   -1.1651 H   0  0  0  0  0  0  0  0  0  0  0  0
   -1.8835   11.0099    1.1000 H   0  0  0  0  0  0  0  0  0  0  0  0
   -0.8150    9.6005    1.2671 H   0  0  0  0  0  0  0  0  0  0  0  0
    0.0418   12.2945    0.8523 H   0  0  0  0  0  0  0  0  0  0  0  0
    1.0764   10.8847    0.6369 H   0  0  0  0  0  0  0  0  0  0  0  0
   -1.3028   13.0756   -0.4394 H   0  0  0  0  0  0  0  0  0  0  0  0
   -0.5066   13.5377   -1.9818 H   0  0  0  0  0  0  0  0  0  0  0  0
   -1.8240   12.3166   -1.9818 H   0  0  0  0  0  0  0  0  0  0  0  0
    2.1048   11.1129   -1.5430 H   0  0  0  0  0  0  0  0  0  0  0  0
    1.8177   13.3937   -0.3774 H   0  0  0  0  0  0  0  0  0  0  0  0
    3.1866   13.1014   -1.5728 H   0  0  0  0  0  0  0  0  0  0  0  0
    1.9575   15.4252   -1.7525 H   0  0  0  0  0  0  0  0  0  0  0  0
   -0.2379   12.9839   -4.1012 H   0  0  0  0  0  0  0  0  0  0  0  0
    2.3773   13.4082   -5.6735 H   0  0  0  0  0  0  0  0  0  0  0  0
    0.9538   12.3917   -6.1743 H   0  0  0  0  0  0  0  0  0  0  0  0
    1.0111   14.5680   -7.3509 H   0  0  0  0  0  0  0  0  0  0  0  0
   -0.4501   14.3679   -6.3064 H   0  0  0  0  0  0  0  0  0  0  0  0
    0.3938   16.5974   -6.0320 H   0  0  0  0  0  0  0  0  0  0  0  0
    2.5210   17.0000   -5.6780 H   0  0  0  0  0  0  0  0  0  0  0  0
   -1.2079   15.7931   -2.8591 H   0  0  0  0  0  0  0  0  0  0  0  0
   -1.3331   16.6943   -4.4079 H   0  0  0  0  0  0  0  0  0  0  0  0
   -1.3739   14.8985   -4.4079 H   0  0  0  0  0  0  0  0  0  0  0  0
    1.0875   16.9559   -2.3173 H   0  0  0  0  0  0  0  0  0  0  0  0
    2.1676   17.2313   -3.7260 H   0  0  0  0  0  0  0  0  0  0  0  0
    0.5021   17.9044   -3.7260 H   0  0  0  0  0  0  0  0  0  0  0  0
    3.5450   11.4937   -3.0515 H   0  0  0  0  0  0  0  0  0  0  0  0
    2.9564   10.6769   -4.5391 H   0  0  0  0  0  0  0  0  0  0  0  0
    3.2347   12.4515   -4.5391 H   0  0  0  0  0  0  0  0  0  0  0  0
    0.3024   10.7890   -5.0301 H   0  0  0  0  0  0  0  0  0  0  0  0
    1.2754    9.7223   -3.8685 H   0  0  0  0  0  0  0  0  0  0  0  0
   -1.4376   10.9838   -3.3871 H   0  0  0  0  0  0  0  0  0  0  0  0
   -1.0173    9.2319   -3.5362 H   0  0  0  0  0  0  0  0  0  0  0  0
    0.7965    8.8531   -0.3802 H   0  0  0  0  0  0  0  0  0  0  0  0
    0.2891    8.0752   -1.9178 H   0  0  0  0  0  0  0  0  0  0  0  0
    1.6210    9.2806   -1.9178 H   0  0  0  0  0  0  0  0  0  0  0  0
  1  2  1  0
  2  3  1  0
  3  4  1  0
  4  5  1  0
  5  6  1  0
  6  7  1  0
  7  8  1  0
  7  9  1  0
  2 10  1  0
 10 11  1  0
 11 12  1  0
 12 13  1  0
 13 14  1  1
 13 15  1  0
 15 16  1  0
 16 17  1  0
 17 18  2  0
 18 19  1  0
 19 20  1  0
 20 21  1  0
 21 22  1  0
 22 23  1  0
 22 24  1  0
 24 25  1  0
 24 26  1  0
 19 27  1  0
 27 28  1  6
 27 29  1  0
 29 30  1  0
 30 31  1  0
 31 32  1  6
  7  5  1  0
 31 10  1  0
 31 13  1  0
 27 15  1  0
 24 18  1  0
  1 33  1  0
  1 34  1  0
  1 35  1  0
  2 36  1  1
  3 37  1  0
  3 38  1  0
  4 39  1  0
  4 40  1  0
  5 41  1  1
  8 42  1  0
  8 43  1  0
  8 44  1  0
  9 45  1  0
  9 46  1  0
  9 47  1  0
 10 48  1  6
 11 49  1  0
 11 50  1  0
 12 51  1  0
 12 52  1  0
 14 53  1  0
 14 54  1  0
 14 55  1  0
 15 56  1  1
 16 57  1  0
 16 58  1  0
 17 59  1  0
 19 60  1  6
 20 61  1  0
 20 62  1  0
 21 63  1  0
 21 64  1  0
 22 65  1  6
 23 66  1  0
 25 67  1  0
 25 68  1  0
 25 69  1  0
 26 70  1  0
 26 71  1  0
 26 72  1  0
 28 73  1  0
 28 74  1  0
 28 75  1  0
 29 76  1  0
 29 77  1  0
 30 78  1  0
 30 79  1  0
 32 80  1  0
 32 81  1  0
 32 82  1  0
M  END
>  <meeko>  (14) 
{"is_sidechain": [false], "intermolecular_energy": 2.731, "internal_energy": -0.839}

$$$$
EPH_relaxed_0001_pdb2pqr_Repair_387_r2_0001_out
     RDKit          3D

 82 86  0  0  0  0  0  0  0  0999 V2000
    0.4340   19.0240   -2.5280 C   0  0  0  0  0  0  0  0  0  0  0  0
   -0.0230   18.0180   -1.4690 C   0  0  2  0  0  0  0  0  0  0  0  0
    0.5100   18.3690   -0.0660 C   0  0  0  0  0  0  0  0  0  0  0  0
    1.4660   19.5650   -0.0520 C   0  0  0  0  0  0  0  0  0  0  0  0
    2.4600   19.4680    1.0660 C   0  0  2  0  0  0  0  0  0  0  0  0
    3.6780   20.1920    0.8500 O   0  0  0  0  0  0  0  0  0  0  0  0
    3.7970   18.7630    0.9380 C   0  0  0  0  0  0  0  0  0  0  0  0
    4.2140   18.1070   -0.3400 C   0  0  0  0  0  0  0  0  0  0  0  0
    4.4790   18.2920    2.1850 C   0  0  0  0  0  0  0  0  0  0  0  0
    0.4240   16.6140   -1.8590 C   0  0  1  0  0  0  0  0  0  0  0  0
    1.8150   16.5990   -2.5470 C   0  0  0  0  0  0  0  0  0  0  0  0
    2.5190   15.2910   -2.1040 C   0  0  0  0  0  0  0  0  0  0  0  0
    1.3990   14.4460   -1.4520 C   0  0  1  0  0  0  0  0  0  0  0  0
    0.6480   13.7840   -2.6500 C   0  0  0  0  0  0  0  0  0  0  0  0
    1.8580   13.3840   -0.4010 C   0  0  2  0  0  0  0  0  0  0  0  0
    2.7730   12.2750   -0.9490 C   0  0  0  0  0  0  0  0  0  0  0  0
    2.0690   11.0590   -1.4540 C   0  0  0  0  0  0  0  0  0  0  0  0
    0.7840   10.7410   -1.2100 C   0  0  0  0  0  0  0  0  0  0  0  0
   -0.0750   11.5980   -0.2710 C   0  0  1  0  0  0  0  0  0  0  0  0
   -0.8450   10.6760    0.7110 C   0  0  0  0  0  0  0  0  0  0  0  0
   -1.6580    9.6050   -0.0090 C   0  0  0  0  0  0  0  0  0  0  0  0
   -0.7610    8.7370   -0.8880 C   0  0  2  0  0  0  0  0  0  0  0  0
    0.1180    7.9830   -0.0470 O   0  0  0  0  0  0  0  0  0  0  0  0
    0.0730    9.5580   -1.9110 C   0  0  0  0  0  0  0  0  0  0  0  0
   -0.8630   10.1310   -3.0040 C   0  0  0  0  0  0  0  0  0  0  0  0
    1.0370    8.5800   -2.6350 C   0  0  0  0  0  0  0  0  0  0  0  0
    0.6800   12.7840    0.4700 C   0  0  1  0  0  0  0  0  0  0  0  0
    1.3250   12.2610    1.7910 C   0  0  0  0  0  0  0  0  0  0  0  0
   -0.3700   13.8780    0.8920 C   0  0  0  0  0  0  0  0  0  0  0  0
   -0.6920   14.9690   -0.1480 C   0  0  0  0  0  0  0  0  0  0  0  0
    0.5920   15.5780   -0.7190 C   0  0  2  0  0  0  0  0  0  0  0  0
    1.3580   16.2710    0.4600 C   0  0  0  0  0  0  0  0  0  0  0  0
    0.8403   19.9184   -2.0330 H   0  0  0  0  0  0  0  0  0  0  0  0
    1.2128   18.5669   -3.1561 H   0  0  0  0  0  0  0  0  0  0  0  0
   -0.4226   19.3098   -3.1561 H   0  0  0  0  0  0  0  0  0  0  0  0
   -1.1213   18.0603   -1.4250 H   0  0  0  0  0  0  0  0  0  0  0  0
   -0.3472   18.6020    0.5828 H   0  0  0  0  0  0  0  0  0  0  0  0
    1.0802   17.4976    0.2885 H   0  0  0  0  0  0  0  0  0  0  0  0
    2.0079   19.5993   -1.0087 H   0  0  0  0  0  0  0  0  0  0  0  0
    0.8706   20.4778    0.0971 H   0  0  0  0  0  0  0  0  0  0  0  0
    1.6519   19.3885    1.8081 H   0  0  0  0  0  0  0  0  0  0  0  0
    4.7916   17.1984   -0.1143 H   0  0  0  0  0  0  0  0  0  0  0  0
    3.3206   17.8383   -0.9227 H   0  0  0  0  0  0  0  0  0  0  0  0
    4.8365   18.8019   -0.9227 H   0  0  0  0  0  0  0  0  0  0  0  0
    3.9353   18.6675    3.0644 H   0  0  0  0  0  0  0  0  0  0  0  0
    4.4910   17.1922    2.2033 H   0  0  0  0  0  0  0  0  0  0  0  0
    5.5117   18.6703    2.2033 H   0  0  0  0  0  0  0  0  0  0  0  0
   -0.4171   16.3268   -2.5071 H   0  0  0  0  0  0  0  0  0  0  0  0
    1.6969   16.6140   -3.6405 H   0  0  0  0  0  0  0  0  0  0  0  0
    2.4062   17.4818   -2.2619 H   0  0  0  0  0  0  0  0  0  0  0  0
    2.9457   14.7667   -2.9717 H   0  0  0  0  0  0  0  0  0  0  0  0
    3.3542   15.4802   -1.4136 H   0  0  0  0  0  0  0  0  0  0  0  0
   -0.1254   13.1023   -2.2663 H   0  0  0  0  0  0  0  0  0  0  0  0
    0.1762   14.5654   -3.2639 H   0  0  0  0  0  0  0  0  0  0  0  0
    1.3640   13.2179   -3.2639 H   0  0  0  0  0  0  0  0  0  0  0  0
    2.4862   13.9800    0.2773 H   0  0  0  0  0  0  0  0  0  0  0  0
    3.3596   12.6972   -1.7783 H   0  0  0  0  0  0  0  0  0  0  0  0
    3.3876   11.9404   -0.1003 H   0  0  0  0  0  0  0  0  0  0  0  0
    2.6497   10.3641   -2.0784 H   0  0  0  0  0  0  0  0  0  0  0  0
   -0.7869   12.1353   -0.9148 H   0  0  0  0  0  0  0  0  0  0  0  0
   -0.1191   10.1819    1.3736 H   0  0  0  0  0  0  0  0  0  0  0  0
   -1.5478   11.3043    1.2779 H   0  0  0  0  0  0  0  0  0  0  0  0
   -2.1553    8.9682    0.7374 H   0  0  0  0  0  0  0  0  0  0  0  0
   -2.4025   10.1009   -0.6492 H   0  0  0  0  0  0  0  0  0  0  0  0
   -1.4150    8.0751   -1.4747 H   0  0  0  0  0  0  0  0  0  0  0  0
    0.5890    7.3460   -0.6100 H   0  0  0  0  0  0  0  0  0  0  0  0
   -1.7087   10.6487   -2.5279 H   0  0  0  0  0  0  0  0  0  0  0  0
   -0.3036   10.8416   -3.6302 H   0  0  0  0  0  0  0  0  0  0  0  0
   -1.2414    9.3096   -3.6302 H   0  0  0  0  0  0  0  0  0  0  0  0
    1.6042    8.0045   -1.8886 H   0  0  0  0  0  0  0  0  0  0  0  0
    0.4553    7.8907   -3.2647 H   0  0  0  0  0  0  0  0  0  0  0  0
    1.7346    9.1517   -3.2647 H   0  0  0  0  0  0  0  0  0  0  0  0
    0.7946   12.6911    2.6534 H   0  0  0  0  0  0  0  0  0  0  0  0
    1.2519   11.1640    1.8255 H   0  0  0  0  0  0  0  0  0  0  0  0
    2.3832   12.5592    1.8255 H   0  0  0  0  0  0  0  0  0  0  0  0
   -1.3103   13.3611    1.1342 H   0  0  0  0  0  0  0  0  0  0  0  0
    0.0928   14.4115    1.7353 H   0  0  0  0  0  0  0  0  0  0  0  0
   -1.2747   14.5238   -0.9679 H   0  0  0  0  0  0  0  0  0  0  0  0
   -1.2684   15.7652    0.3458 H   0  0  0  0  0  0  0  0  0  0  0  0
    0.9587   15.9098    1.4192 H   0  0  0  0  0  0  0  0  0  0  0  0
    2.4290   16.0287    0.3941 H   0  0  0  0  0  0  0  0  0  0  0  0
    1.2239   17.3608    0.3941 H   0  0  0  0  0  0  0  0  0  0  0  0
  1  2  1  0
  2  3  1  0
  3  4  1  0
  4  5  1  0
  5  6  1  0
  6  7  1  0
  7  8  1  0
  7  9  1  0
  2 10  1  0
 10 11  1  0
 11 12  1  0
 12 13  1  0
 13 14  1  6
 13 15  1  0
 15 16  1  0
 16 17  1  0
 17 18  2  0
 18 19  1  0
 19 20  1  0
 20 21  1  0
 21 22  1  0
 22 23  1  0
 22 24  1  0
 24 25  1  0
 24 26  1  0
 19 27  1  0
 27 28  1  1
 27 29  1  0
 29 30  1  0
 30 31  1  0
 31 32  1  1
  7  5  1  0
 31 10  1  0
 31 13  1  0
 27 15  1  0
 24 18  1  0
  1 33  1  0
  1 34  1  0
  1 35  1  0
  2 36  1  1
  3 37  1  0
  3 38  1  0
  4 39  1  0
  4 40  1  0
  5 41  1  1
  8 42  1  0
  8 43  1  0
  8 44  1  0
  9 45  1  0
  9 46  1  0
  9 47  1  0
 10 48  1  6
 11 49  1  0
 11 50  1  0
 12 51  1  0
 12 52  1  0
 14 53  1  0
 14 54  1  0
 14 55  1  0
 15 56  1  1
 16 57  1  0
 16 58  1  0
 17 59  1  0
 19 60  1  6
 20 61  1  0
 20 62  1  0
 21 63  1  0
 21 64  1  0
 22 65  1  6
 23 66  1  0
 25 67  1  0
 25 68  1  0
 25 69  1  0
 26 70  1  0
 26 71  1  0
 26 72  1  0
 28 73  1  0
 28 74  1  0
 28 75  1  0
 29 76  1  0
 29 77  1  0
 30 78  1  0
 30 79  1  0
 32 80  1  0
 32 81  1  0
 32 82  1  0
M  END
>  <meeko>  (15) 
{"is_sidechain": [false], "intermolecular_energy": 2.731, "internal_energy": -0.839}

$$$$
EPH_relaxed_0001_pdb2pqr_Repair_387_r2_0001_out
     RDKit          3D

 82 86  0  0  0  0  0  0  0  0999 V2000
   -4.2720    6.6000   -2.4040 C   0  0  0  0  0  0  0  0  0  0  0  0
   -4.9490    7.9180   -2.0180 C   0  0  2  0  0  0  0  0  0  0  0  0
   -4.8320    8.2100   -0.5080 C   0  0  0  0  0  0  0  0  0  0  0  0
   -3.7540    9.2420   -0.1640 C   0  0  0  0  0  0  0  0  0  0  0  0
   -2.3990    8.8060   -0.6320 C   0  0  2  0  0  0  0  0  0  0  0  0
   -1.3060    9.3060    0.1500 O   0  0  0  0  0  0  0  0  0  0  0  0
   -1.3690    9.7570   -1.2130 C   0  0  0  0  0  0  0  0  0  0  0  0
   -1.6510   11.2190   -1.3580 C   0  0  0  0  0  0  0  0  0  0  0  0
   -0.2890    9.1950   -2.0840 C   0  0  0  0  0  0  0  0  0  0  0  0
   -6.4160    7.8890   -2.4300 C   0  0  1  0  0  0  0  0  0  0  0  0
   -6.6550    7.0790   -3.7320 C   0  0  0  0  0  0  0  0  0  0  0  0
   -8.0330    6.3840   -3.5790 C   0  0  0  0  0  0  0  0  0  0  0  0
   -8.6840    7.0720   -2.3570 C   0  0  1  0  0  0  0  0  0  0  0  0
   -9.2770    8.4040   -2.9160 C   0  0  0  0  0  0  0  0  0  0  0  0
   -9.7610    6.2400   -1.5870 C   0  0  2  0  0  0  0  0  0  0  0  0
  -11.0080    5.8690   -2.4080 C   0  0  0  0  0  0  0  0  0  0  0  0
  -12.1290    6.8530   -2.3430 C   0  0  0  0  0  0  0  0  0  0  0  0
  -12.2510    7.8420   -1.4380 C   0  0  0  0  0  0  0  0  0  0  0  0
  -11.2460    7.9850   -0.2880 C   0  0  1  0  0  0  0  0  0  0  0  0
  -12.0110    8.2120    1.0430 C   0  0  0  0  0  0  0  0  0  0  0  0
  -12.9820    9.3870    0.9660 C   0  0  0  0  0  0  0  0  0  0  0  0
  -14.0010    9.1800   -0.1510 C   0  0  2  0  0  0  0  0  0  0  0  0
  -14.8410    8.0730    0.1900 O   0  0  0  0  0  0  0  0  0  0  0  0
  -13.3460    8.9320   -1.5390 C   0  0  0  0  0  0  0  0  0  0  0  0
  -12.6870   10.2390   -2.0450 C   0  0  0  0  0  0  0  0  0  0  0  0
  -14.4790    8.5990   -2.5480 C   0  0  0  0  0  0  0  0  0  0  0  0
  -10.1530    6.8360   -0.1750 C   0  0  1  0  0  0  0  0  0  0  0  0
  -10.7130    5.6510    0.6690 C   0  0  0  0  0  0  0  0  0  0  0  0
   -8.9050    7.3900    0.6090 C   0  0  0  0  0  0  0  0  0  0  0  0
   -7.8190    8.0970   -0.2240 C   0  0  0  0  0  0  0  0  0  0  0  0
   -7.4220    7.2520   -1.4380 C   0  0  2  0  0  0  0  0  0  0  0  0
   -6.8020    5.9150   -0.9070 C   0  0  0  0  0  0  0  0  0  0  0  0
   -3.9904    6.0518   -1.4928 H   0  0  0  0  0  0  0  0  0  0  0  0
   -4.9685    5.9903   -2.9982 H   0  0  0  0  0  0  0  0  0  0  0  0
   -3.3707    6.8110   -2.9982 H   0  0  0  0  0  0  0  0  0  0  0  0
   -4.4285    8.7264   -2.5525 H   0  0  0  0  0  0  0  0  0  0  0  0
   -5.8014    8.5877   -0.1509 H   0  0  0  0  0  0  0  0  0  0  0  0
   -4.5438    7.2678   -0.0190 H   0  0  0  0  0  0  0  0  0  0  0  0
   -4.0077   10.1970   -0.6474 H   0  0  0  0  0  0  0  0  0  0  0  0
   -3.7201    9.3503    0.9301 H   0  0  0  0  0  0  0  0  0  0  0  0
   -2.8047    7.8486   -0.9910 H   0  0  0  0  0  0  0  0  0  0  0  0
   -1.7392   11.6760   -0.3613 H   0  0  0  0  0  0  0  0  0  0  0  0
   -0.8287   11.6981   -1.9096 H   0  0  0  0  0  0  0  0  0  0  0  0
   -2.5925   11.3579   -1.9096 H   0  0  0  0  0  0  0  0  0  0  0  0
    0.5108    8.7788   -1.4539 H   0  0  0  0  0  0  0  0  0  0  0  0
   -0.7067    8.3999   -2.7191 H   0  0  0  0  0  0  0  0  0  0  0  0
    0.1225    9.9933   -2.7191 H   0  0  0  0  0  0  0  0  0  0  0  0
   -6.6045    8.9694   -2.5145 H   0  0  0  0  0  0  0  0  0  0  0  0
   -6.6650    7.7531   -4.6012 H   0  0  0  0  0  0  0  0  0  0  0  0
   -5.8553    6.3406   -3.8906 H   0  0  0  0  0  0  0  0  0  0  0  0
   -8.6454    6.5334   -4.4805 H   0  0  0  0  0  0  0  0  0  0  0  0
   -7.9387    5.2964   -3.4439 H   0  0  0  0  0  0  0  0  0  0  0  0
   -9.5672    9.0559   -2.0789 H   0  0  0  0  0  0  0  0  0  0  0  0
   -8.5202    8.9125   -3.5314 H   0  0  0  0  0  0  0  0  0  0  0  0
  -10.1613    8.1819   -3.5314 H   0  0  0  0  0  0  0  0  0  0  0  0
   -9.2362    5.2920   -1.3974 H   0  0  0  0  0  0  0  0  0  0  0  0
  -10.7046    5.7681   -3.4605 H   0  0  0  0  0  0  0  0  0  0  0  0
  -11.3949    4.9369   -1.9703 H   0  0  0  0  0  0  0  0  0  0  0  0
  -12.9228    6.7620   -3.0990 H   0  0  0  0  0  0  0  0  0  0  0  0
  -10.6372    8.8701   -0.5246 H   0  0  0  0  0  0  0  0  0  0  0  0
  -12.5783    7.3008    1.2837 H   0  0  0  0  0  0  0  0  0  0  0  0
  -11.2678    8.4429    1.8204 H   0  0  0  0  0  0  0  0  0  0  0  0
  -13.5128    9.4788    1.9251 H   0  0  0  0  0  0  0  0  0  0  0  0
  -12.4097   10.3022    0.7540 H   0  0  0  0  0  0  0  0  0  0  0  0
  -14.5850   10.1078   -0.2411 H   0  0  0  0  0  0  0  0  0  0  0  0
  -15.7130    8.2310   -0.2100 H   0  0  0  0  0  0  0  0  0  0  0  0
  -12.3784   10.8510   -1.1846 H   0  0  0  0  0  0  0  0  0  0  0  0
  -11.8053    9.9928   -2.6549 H   0  0  0  0  0  0  0  0  0  0  0  0
  -13.4092   10.8015   -2.6549 H   0  0  0  0  0  0  0  0  0  0  0  0
  -15.3928    8.3304   -1.9977 H   0  0  0  0  0  0  0  0  0  0  0  0
  -14.6765    9.4771   -3.1804 H   0  0  0  0  0  0  0  0  0  0  0  0
  -14.1700    7.7537   -3.1804 H   0  0  0  0  0  0  0  0  0  0  0  0
  -10.6048    5.8799    1.7395 H   0  0  0  0  0  0  0  0  0  0  0  0
  -11.7767    5.5022    0.4315 H   0  0  0  0  0  0  0  0  0  0  0  0
  -10.1526    4.7347    0.4315 H   0  0  0  0  0  0  0  0  0  0  0  0
   -9.2733    8.1096    1.3550 H   0  0  0  0  0  0  0  0  0  0  0  0
   -8.4119    6.5013    1.0298 H   0  0  0  0  0  0  0  0  0  0  0  0
   -8.2061    9.0663   -0.5714 H   0  0  0  0  0  0  0  0  0  0  0  0
   -6.9306    8.2413    0.4084 H   0  0  0  0  0  0  0  0  0  0  0  0
   -6.8048    5.9210    0.1930 H   0  0  0  0  0  0  0  0  0  0  0  0
   -7.3977    5.0647   -1.2706 H   0  0  0  0  0  0  0  0  0  0  0  0
   -5.7681    5.8204   -1.2706 H   0  0  0  0  0  0  0  0  0  0  0  0
  1  2  1  0
  2  3  1  0
  3  4  1  0
  4  5  1  0
  5  6  1  0
  6  7  1  0
  7  8  1  0
  7  9  1  0
  2 10  1  0
 10 11  1  0
 11 12  1  0
 12 13  1  0
 13 14  1  6
 13 15  1  0
 15 16  1  0
 16 17  1  0
 17 18  2  0
 18 19  1  0
 19 20  1  0
 20 21  1  0
 21 22  1  0
 22 23  1  0
 22 24  1  0
 24 25  1  0
 24 26  1  0
 19 27  1  0
 27 28  1  1
 27 29  1  0
 29 30  1  0
 30 31  1  0
 31 32  1  1
  7  5  1  0
 31 10  1  0
 31 13  1  0
 27 15  1  0
 24 18  1  0
  1 33  1  0
  1 34  1  0
  1 35  1  0
  2 36  1  6
  3 37  1  0
  3 38  1  0
  4 39  1  0
  4 40  1  0
  5 41  1  6
  8 42  1  0
  8 43  1  0
  8 44  1  0
  9 45  1  0
  9 46  1  0
  9 47  1  0
 10 48  1  6
 11 49  1  0
 11 50  1  0
 12 51  1  0
 12 52  1  0
 14 53  1  0
 14 54  1  0
 14 55  1  0
 15 56  1  1
 16 57  1  0
 16 58  1  0
 17 59  1  0
 19 60  1  6
 20 61  1  0
 20 62  1  0
 21 63  1  0
 21 64  1  0
 22 65  1  6
 23 66  1  0
 25 67  1  0
 25 68  1  0
 25 69  1  0
 26 70  1  0
 26 71  1  0
 26 72  1  0
 28 73  1  0
 28 74  1  0
 28 75  1  0
 29 76  1  0
 29 77  1  0
 30 78  1  0
 30 79  1  0
 32 80  1  0
 32 81  1  0
 32 82  1  0
M  END
>  <meeko>  (16) 
{"is_sidechain": [false], "intermolecular_energy": 2.731, "internal_energy": -0.839}

$$$$
EPH_relaxed_0001_pdb2pqr_Repair_387_r2_0001_out
     RDKit          3D

 82 86  0  0  0  0  0  0  0  0999 V2000
   -4.6460    7.0780    0.3230 C   0  0  0  0  0  0  0  0  0  0  0  0
   -4.7000    8.3340   -0.5510 C   0  0  2  0  0  0  0  0  0  0  0  0
   -3.6950    9.4070   -0.0890 C   0  0  0  0  0  0  0  0  0  0  0  0
   -2.2560    9.1370   -0.5370 C   0  0  0  0  0  0  0  0  0  0  0  0
   -1.6190   10.3600   -1.1240 C   0  0  2  0  0  0  0  0  0  0  0  0
   -0.3170   10.1460   -1.6840 O   0  0  0  0  0  0  0  0  0  0  0  0
   -0.3820   11.0190   -0.5440 C   0  0  0  0  0  0  0  0  0  0  0  0
    0.2920   10.4760    0.6770 C   0  0  0  0  0  0  0  0  0  0  0  0
   -0.1170   12.4560   -0.8700 C   0  0  0  0  0  0  0  0  0  0  0  0
   -6.1130    8.9070   -0.5490 C   0  0  1  0  0  0  0  0  0  0  0  0
   -6.1820   10.3260   -1.1750 C   0  0  0  0  0  0  0  0  0  0  0  0
   -7.5440   10.4240   -1.9090 C   0  0  0  0  0  0  0  0  0  0  0  0
   -8.3460    9.2000   -1.4090 C   0  0  1  0  0  0  0  0  0  0  0  0
   -8.9190    9.6350   -0.0240 C   0  0  0  0  0  0  0  0  0  0  0  0
   -9.4710    8.6760   -2.3600 C   0  0  2  0  0  0  0  0  0  0  0  0
  -10.6100    9.6730   -2.6370 C   0  0  0  0  0  0  0  0  0  0  0  0
  -11.7630    9.6010   -1.6920 C   0  0  0  0  0  0  0  0  0  0  0  0
  -12.0160    8.5890   -0.8410 C   0  0  0  0  0  0  0  0  0  0  0  0
  -11.1460    7.3250   -0.8410 C   0  0  1  0  0  0  0  0  0  0  0  0
  -12.0570    6.0700   -0.8150 C   0  0  0  0  0  0  0  0  0  0  0  0
  -13.0530    6.0930    0.3410 C   0  0  0  0  0  0  0  0  0  0  0  0
  -13.9380    7.3350    0.2730 C   0  0  2  0  0  0  0  0  0  0  0  0
  -14.7720    7.2440   -0.8850 O   0  0  0  0  0  0  0  0  0  0  0  0
  -13.1290    8.6620    0.2320 C   0  0  0  0  0  0  0  0  0  0  0  0
  -12.4630    8.9090    1.6090 C   0  0  0  0  0  0  0  0  0  0  0  0
  -14.1340    9.8270    0.0220 C   0  0  0  0  0  0  0  0  0  0  0  0
  -10.0340    7.2480   -1.9730 C   0  0  1  0  0  0  0  0  0  0  0  0
  -10.6410    6.6410   -3.2750 C   0  0  0  0  0  0  0  0  0  0  0  0
   -8.8970    6.2620   -1.5110 C   0  0  0  0  0  0  0  0  0  0  0  0
   -7.7520    6.8640   -0.6750 C   0  0  0  0  0  0  0  0  0  0  0  0
   -7.1970    8.1300   -1.3360 C   0  0  2  0  0  0  0  0  0  0  0  0
   -6.5940    7.7200   -2.7230 C   0  0  0  0  0  0  0  0  0  0  0  0
   -4.6585    7.3687    1.3838 H   0  0  0  0  0  0  0  0  0  0  0  0
   -5.5177    6.4429    0.1065 H   0  0  0  0  0  0  0  0  0  0  0  0
   -3.7230    6.5201    0.1065 H   0  0  0  0  0  0  0  0  0  0  0  0
   -4.4196    8.0389   -1.5729 H   0  0  0  0  0  0  0  0  0  0  0  0
   -4.0101   10.3776   -0.4997 H   0  0  0  0  0  0  0  0  0  0  0  0
   -3.6964    9.3959    1.0109 H   0  0  0  0  0  0  0  0  0  0  0  0
   -1.6671    8.8111    0.3330 H   0  0  0  0  0  0  0  0  0  0  0  0
   -2.2791    8.3570   -1.3123 H   0  0  0  0  0  0  0  0  0  0  0  0
   -2.6012   10.7615   -1.4139 H   0  0  0  0  0  0  0  0  0  0  0  0
   -0.2017   10.8738    1.5759 H   0  0  0  0  0  0  0  0  0  0  0  0
    0.2231    9.3782    0.6763 H   0  0  0  0  0  0  0  0  0  0  0  0
    1.3500   10.7770    0.6763 H   0  0  0  0  0  0  0  0  0  0  0  0
   -0.0111   13.0300    0.0624 H   0  0  0  0  0  0  0  0  0  0  0  0
    0.8107   12.5340   -1.4559 H   0  0  0  0  0  0  0  0  0  0  0  0
   -0.9558   12.8598   -1.4559 H   0  0  0  0  0  0  0  0  0  0  0  0
   -6.3282    8.8639    0.5289 H   0  0  0  0  0  0  0  0  0  0  0  0
   -6.1201   11.0912   -0.3872 H   0  0  0  0  0  0  0  0  0  0  0  0
   -5.3456   10.4929   -1.8696 H   0  0  0  0  0  0  0  0  0  0  0  0
   -8.0598   11.3596   -1.6470 H   0  0  0  0  0  0  0  0  0  0  0  0
   -7.4288   10.4285   -3.0029 H   0  0  0  0  0  0  0  0  0  0  0  0
   -8.3206    9.1807    0.7794 H   0  0  0  0  0  0  0  0  0  0  0  0
   -8.8771   10.7308    0.0624 H   0  0  0  0  0  0  0  0  0  0  0  0
   -9.9632    9.3001    0.0624 H   0  0  0  0  0  0  0  0  0  0  0  0
   -8.9369    8.5611   -3.3148 H   0  0  0  0  0  0  0  0  0  0  0  0
  -10.1921   10.6893   -2.5868 H   0  0  0  0  0  0  0  0  0  0  0  0
  -11.0107    9.4104   -3.6272 H   0  0  0  0  0  0  0  0  0  0  0  0
  -12.4660   10.4470   -1.6908 H   0  0  0  0  0  0  0  0  0  0  0  0
  -10.5450    7.3698    0.0792 H   0  0  0  0  0  0  0  0  0  0  0  0
  -12.6161    6.0206   -1.7610 H   0  0  0  0  0  0  0  0  0  0  0  0
  -11.4099    5.1907   -0.6804 H   0  0  0  0  0  0  0  0  0  0  0  0
  -13.6870    5.1957    0.2880 H   0  0  0  0  0  0  0  0  0  0  0  0
  -12.4926    6.1122    1.2874 H   0  0  0  0  0  0  0  0  0  0  0  0
  -14.5392    7.3626    1.1938 H   0  0  0  0  0  0  0  0  0  0  0  0
  -14.3410    6.6390   -1.5120 H   0  0  0  0  0  0  0  0  0  0  0  0
  -13.1696    8.6470    2.4103 H   0  0  0  0  0  0  0  0  0  0  0  0
  -11.5610    8.2856    1.6971 H   0  0  0  0  0  0  0  0  0  0  0  0
  -12.1856    9.9698    1.6971 H   0  0  0  0  0  0  0  0  0  0  0  0
  -14.4629   10.2083    1.0000 H   0  0  0  0  0  0  0  0  0  0  0  0
  -13.6454   10.6357   -0.5414 H   0  0  0  0  0  0  0  0  0  0  0  0
  -15.0056    9.4623   -0.5414 H   0  0  0  0  0  0  0  0  0  0  0  0
  -11.3960    5.8860   -3.0103 H   0  0  0  0  0  0  0  0  0  0  0  0
  -11.1127    7.4395   -3.8666 H   0  0  0  0  0  0  0  0  0  0  0  0
   -9.8425    6.1693   -3.8666 H   0  0  0  0  0  0  0  0  0  0  0  0
   -9.3674    5.4703   -0.9094 H   0  0  0  0  0  0  0  0  0  0  0  0
   -8.4224    5.9147   -2.4406 H   0  0  0  0  0  0  0  0  0  0  0  0
   -8.1319    7.1176    0.3257 H   0  0  0  0  0  0  0  0  0  0  0  0
   -6.9428    6.1224   -0.6032 H   0  0  0  0  0  0  0  0  0  0  0  0
   -5.6938    7.1079   -2.5649 H   0  0  0  0  0  0  0  0  0  0  0  0
   -7.3375    7.1394   -3.2888 H   0  0  0  0  0  0  0  0  0  0  0  0
   -6.3275    8.6249   -3.2888 H   0  0  0  0  0  0  0  0  0  0  0  0
  1  2  1  0
  2  3  1  0
  3  4  1  0
  4  5  1  0
  5  6  1  0
  6  7  1  0
  7  8  1  0
  7  9  1  0
  2 10  1  0
 10 11  1  0
 11 12  1  0
 12 13  1  0
 13 14  1  1
 13 15  1  0
 15 16  1  0
 16 17  1  0
 17 18  2  0
 18 19  1  0
 19 20  1  0
 20 21  1  0
 21 22  1  0
 22 23  1  0
 22 24  1  0
 24 25  1  0
 24 26  1  0
 19 27  1  0
 27 28  1  6
 27 29  1  0
 29 30  1  0
 30 31  1  0
 31 32  1  6
  7  5  1  0
 31 10  1  0
 31 13  1  0
 27 15  1  0
 24 18  1  0
  1 33  1  0
  1 34  1  0
  1 35  1  0
  2 36  1  6
  3 37  1  0
  3 38  1  0
  4 39  1  0
  4 40  1  0
  5 41  1  6
  8 42  1  0
  8 43  1  0
  8 44  1  0
  9 45  1  0
  9 46  1  0
  9 47  1  0
 10 48  1  1
 11 49  1  0
 11 50  1  0
 12 51  1  0
 12 52  1  0
 14 53  1  0
 14 54  1  0
 14 55  1  0
 15 56  1  6
 16 57  1  0
 16 58  1  0
 17 59  1  0
 19 60  1  1
 20 61  1  0
 20 62  1  0
 21 63  1  0
 21 64  1  0
 22 65  1  1
 23 66  1  0
 25 67  1  0
 25 68  1  0
 25 69  1  0
 26 70  1  0
 26 71  1  0
 26 72  1  0
 28 73  1  0
 28 74  1  0
 28 75  1  0
 29 76  1  0
 29 77  1  0
 30 78  1  0
 30 79  1  0
 32 80  1  0
 32 81  1  0
 32 82  1  0
M  END
>  <meeko>  (17) 
{"is_sidechain": [false], "intermolecular_energy": 2.731, "internal_energy": -0.839}

$$$$
EPH_relaxed_0001_pdb2pqr_Repair_387_r2_0001_out
     RDKit          3D

 82 86  0  0  0  0  0  0  0  0999 V2000
  -15.2870    8.2770   -0.0020 C   0  0  0  0  0  0  0  0  0  0  0  0
  -14.4350    8.9610   -1.0740 C   0  0  2  0  0  0  0  0  0  0  0  0
  -14.5700    8.2750   -2.4480 C   0  0  0  0  0  0  0  0  0  0  0  0
  -14.5720    9.2520   -3.6270 C   0  0  0  0  0  0  0  0  0  0  0  0
  -15.2850   10.5260   -3.2890 C   0  0  2  0  0  0  0  0  0  0  0  0
  -15.2440   11.5260   -4.3160 O   0  0  0  0  0  0  0  0  0  0  0  0
  -14.5780   11.8530   -3.0860 C   0  0  0  0  0  0  0  0  0  0  0  0
  -13.0910   11.9710   -3.2120 C   0  0  0  0  0  0  0  0  0  0  0  0
  -15.2670   12.9180   -2.2910 C   0  0  0  0  0  0  0  0  0  0  0  0
  -12.9730    8.9790   -0.6430 C   0  0  1  0  0  0  0  0  0  0  0  0
  -12.8040    9.1770    0.8870 C   0  0  0  0  0  0  0  0  0  0  0  0
  -11.5660    8.3470    1.3120 C   0  0  0  0  0  0  0  0  0  0  0  0
  -10.8730    7.9720   -0.0190 C   0  0  1  0  0  0  0  0  0  0  0  0
  -10.0470    9.2370   -0.4120 C   0  0  0  0  0  0  0  0  0  0  0  0
   -9.9840    6.6860    0.0030 C   0  0  2  0  0  0  0  0  0  0  0  0
   -8.7730    6.7460    0.9510 C   0  0  0  0  0  0  0  0  0  0  0  0
   -7.5130    7.2670    0.3440 C   0  0  0  0  0  0  0  0  0  0  0  0
   -7.2780    7.4020   -0.9750 C   0  0  0  0  0  0  0  0  0  0  0  0
   -8.3020    6.9220   -2.0110 C   0  0  1  0  0  0  0  0  0  0  0  0
   -7.5770    6.1140   -3.1190 C   0  0  0  0  0  0  0  0  0  0  0  0
   -6.4270    6.8920   -3.7530 C   0  0  0  0  0  0  0  0  0  0  0  0
   -5.4010    7.3020   -2.7000 C   0  0  2  0  0  0  0  0  0  0  0  0
   -4.7680    6.1240   -2.1890 O   0  0  0  0  0  0  0  0  0  0  0  0
   -6.0180    8.1140   -1.5260 C   0  0  0  0  0  0  0  0  0  0  0  0
   -6.4330    9.5190   -2.0280 C   0  0  0  0  0  0  0  0  0  0  0  0
   -4.9060    8.3420   -0.4670 C   0  0  0  0  0  0  0  0  0  0  0  0
   -9.5700    6.1590   -1.4300 C   0  0  1  0  0  0  0  0  0  0  0  0
   -9.2510    4.6410   -1.2720 C   0  0  0  0  0  0  0  0  0  0  0  0
  -10.7500    6.2590   -2.4680 C   0  0  0  0  0  0  0  0  0  0  0  0
  -11.6650    7.4940   -2.3630 C   0  0  0  0  0  0  0  0  0  0  0  0
  -12.1340    7.7070   -0.9200 C   0  0  2  0  0  0  0  0  0  0  0  0
  -12.9860    6.4600   -0.5050 C   0  0  0  0  0  0  0  0  0  0  0  0
  -14.9247    8.5679    0.9951 H   0  0  0  0  0  0  0  0  0  0  0  0
  -16.3366    8.5862   -0.1153 H   0  0  0  0  0  0  0  0  0  0  0  0
  -15.2120    7.1854   -0.1153 H   0  0  0  0  0  0  0  0  0  0  0  0
  -14.8039    9.9917   -1.1816 H   0  0  0  0  0  0  0  0  0  0  0  0
  -13.7260    7.5808   -2.5738 H   0  0  0  0  0  0  0  0  0  0  0  0
  -15.5421    7.7602   -2.4558 H   0  0  0  0  0  0  0  0  0  0  0  0
  -13.5319    9.4864   -3.8976 H   0  0  0  0  0  0  0  0  0  0  0  0
  -15.0996    8.7757   -4.4665 H   0  0  0  0  0  0  0  0  0  0  0  0
  -16.0189    9.9801   -2.6780 H   0  0  0  0  0  0  0  0  0  0  0  0
  -12.6398   12.0068   -2.2095 H   0  0  0  0  0  0  0  0  0  0  0  0
  -12.6992   11.1011   -3.7596 H   0  0  0  0  0  0  0  0  0  0  0  0
  -12.8413   12.8918   -3.7596 H   0  0  0  0  0  0  0  0  0  0  0  0
  -15.1366   12.7164   -1.2175 H   0  0  0  0  0  0  0  0  0  0  0  0
  -14.8313   13.8979   -2.5357 H   0  0  0  0  0  0  0  0  0  0  0  0
  -16.3394   12.9222   -2.5357 H   0  0  0  0  0  0  0  0  0  0  0  0
  -12.6087    9.8121   -1.2620 H   0  0  0  0  0  0  0  0  0  0  0  0
  -12.6433   10.2409    1.1157 H   0  0  0  0  0  0  0  0  0  0  0  0
  -13.7035    8.8498    1.4290 H   0  0  0  0  0  0  0  0  0  0  0  0
  -10.8946    8.9467    1.9440 H   0  0  0  0  0  0  0  0  0  0  0  0
  -11.8404    7.4613    1.9038 H   0  0  0  0  0  0  0  0  0  0  0  0
   -9.7102    9.7527    0.4994 H   0  0  0  0  0  0  0  0  0  0  0  0
   -9.1723    8.9338   -1.0062 H   0  0  0  0  0  0  0  0  0  0  0  0
  -10.6764    9.9159   -1.0062 H   0  0  0  0  0  0  0  0  0  0  0  0
  -10.6645    5.9369    0.4340 H   0  0  0  0  0  0  0  0  0  0  0  0
   -9.0364    7.3965    1.7981 H   0  0  0  0  0  0  0  0  0  0  0  0
   -8.5630    5.7063    1.2424 H   0  0  0  0  0  0  0  0  0  0  0  0
   -6.7085    7.5659    1.0321 H   0  0  0  0  0  0  0  0  0  0  0  0
   -8.7477    7.8304   -2.4424 H   0  0  0  0  0  0  0  0  0  0  0  0
   -7.1761    5.1901   -2.6766 H   0  0  0  0  0  0  0  0  0  0  0  0
   -8.3107    5.8989   -3.9098 H   0  0  0  0  0  0  0  0  0  0  0  0
   -5.9362    6.2588   -4.5067 H   0  0  0  0  0  0  0  0  0  0  0  0
   -6.8333    7.8010   -4.2205 H   0  0  0  0  0  0  0  0  0  0  0  0
   -4.6722    7.9639   -3.1906 H   0  0  0  0  0  0  0  0  0  0  0  0
   -4.4050    6.3410   -1.3140 H   0  0  0  0  0  0  0  0  0  0  0  0
   -6.6265   10.1741   -1.1658 H   0  0  0  0  0  0  0  0  0  0  0  0
   -5.6223    9.9449   -2.6374 H   0  0  0  0  0  0  0  0  0  0  0  0
   -7.3450    9.4360   -2.6374 H   0  0  0  0  0  0  0  0  0  0  0  0
   -5.3364    8.2538    0.5414 H   0  0  0  0  0  0  0  0  0  0  0  0
   -4.1164    7.5871   -0.5960 H   0  0  0  0  0  0  0  0  0  0  0  0
   -4.4772    9.3467   -0.5960 H   0  0  0  0  0  0  0  0  0  0  0  0
   -9.1976    4.3869   -0.2031 H   0  0  0  0  0  0  0  0  0  0  0  0
  -10.0441    4.0479   -1.7507 H   0  0  0  0  0  0  0  0  0  0  0  0
   -8.2862    4.4173   -1.7507 H   0  0  0  0  0  0  0  0  0  0  0  0
  -10.3081    6.2570   -3.4753 H   0  0  0  0  0  0  0  0  0  0  0  0
  -11.4003    5.3995   -2.2480 H   0  0  0  0  0  0  0  0  0  0  0  0
  -11.1093    8.3831   -2.6959 H   0  0  0  0  0  0  0  0  0  0  0  0
  -12.5479    7.3319   -2.9988 H   0  0  0  0  0  0  0  0  0  0  0  0
  -13.0304    6.3950    0.5922 H   0  0  0  0  0  0  0  0  0  0  0  0
  -14.0045    6.5613   -0.9079 H   0  0  0  0  0  0  0  0  0  0  0  0
  -12.5214    5.5479   -0.9079 H   0  0  0  0  0  0  0  0  0  0  0  0
  1  2  1  0
  2  3  1  0
  3  4  1  0
  4  5  1  0
  5  6  1  0
  6  7  1  0
  7  8  1  0
  7  9  1  0
  2 10  1  0
 10 11  1  0
 11 12  1  0
 12 13  1  0
 13 14  1  6
 13 15  1  0
 15 16  1  0
 16 17  1  0
 17 18  2  0
 18 19  1  0
 19 20  1  0
 20 21  1  0
 21 22  1  0
 22 23  1  0
 22 24  1  0
 24 25  1  0
 24 26  1  0
 19 27  1  0
 27 28  1  1
 27 29  1  0
 29 30  1  0
 30 31  1  0
 31 32  1  1
  7  5  1  0
 31 10  1  0
 31 13  1  0
 27 15  1  0
 24 18  1  0
  1 33  1  0
  1 34  1  0
  1 35  1  0
  2 36  1  6
  3 37  1  0
  3 38  1  0
  4 39  1  0
  4 40  1  0
  5 41  1  1
  8 42  1  0
  8 43  1  0
  8 44  1  0
  9 45  1  0
  9 46  1  0
  9 47  1  0
 10 48  1  6
 11 49  1  0
 11 50  1  0
 12 51  1  0
 12 52  1  0
 14 53  1  0
 14 54  1  0
 14 55  1  0
 15 56  1  1
 16 57  1  0
 16 58  1  0
 17 59  1  0
 19 60  1  6
 20 61  1  0
 20 62  1  0
 21 63  1  0
 21 64  1  0
 22 65  1  6
 23 66  1  0
 25 67  1  0
 25 68  1  0
 25 69  1  0
 26 70  1  0
 26 71  1  0
 26 72  1  0
 28 73  1  0
 28 74  1  0
 28 75  1  0
 29 76  1  0
 29 77  1  0
 30 78  1  0
 30 79  1  0
 32 80  1  0
 32 81  1  0
 32 82  1  0
M  END
>  <meeko>  (18) 
{"is_sidechain": [false], "intermolecular_energy": 2.731, "internal_energy": -0.839}

$$$$
