EPH_relaxed_0001_pdb2pqr_Repair_288_r2_0001_out
     RDKit          3D

 82 86  0  0  0  0  0  0  0  0999 V2000
   -1.5690    8.5200   -1.7720 C   0  0  0  0  0  0  0  0  0  0  0  0
   -1.9740    9.1300   -0.4270 C   0  0  2  0  0  0  0  0  0  0  0  0
   -3.4610    9.5340   -0.3980 C   0  0  0  0  0  0  0  0  0  0  0  0
   -4.4190    8.3470   -0.2630 C   0  0  0  0  0  0  0  0  0  0  0  0
   -5.0720    8.0110   -1.5690 C   0  0  2  0  0  0  0  0  0  0  0  0
   -6.3270    8.6660   -1.7980 O   0  0  0  0  0  0  0  0  0  0  0  0
   -6.3720    7.2350   -1.6790 C   0  0  0  0  0  0  0  0  0  0  0  0
   -7.0950    6.7470   -0.4630 C   0  0  0  0  0  0  0  0  0  0  0  0
   -6.6790    6.5330   -2.9660 C   0  0  0  0  0  0  0  0  0  0  0  0
   -1.0990   10.3400   -0.1210 C   0  0  1  0  0  0  0  0  0  0  0  0
   -0.0100   10.0360    0.9420 C   0  0  0  0  0  0  0  0  0  0  0  0
    1.2400   10.8650    0.5520 C   0  0  0  0  0  0  0  0  0  0  0  0
    0.7300   11.8620   -0.5150 C   0  0  1  0  0  0  0  0  0  0  0  0
    0.0630   13.0150    0.2990 C   0  0  0  0  0  0  0  0  0  0  0  0
    1.7970   12.4060   -1.5190 C   0  0  2  0  0  0  0  0  0  0  0  0
    2.9350   13.2240   -0.8820 C   0  0  0  0  0  0  0  0  0  0  0  0
    2.6860   14.6930   -0.7850 C   0  0  0  0  0  0  0  0  0  0  0  0
    1.7270   15.3690   -1.4430 C   0  0  0  0  0  0  0  0  0  0  0  0
    0.8280   14.6650   -2.4680 C   0  0  1  0  0  0  0  0  0  0  0  0
    0.7320   15.5280   -3.7530 C   0  0  0  0  0  0  0  0  0  0  0  0
    0.2810   16.9570   -3.4660 C   0  0  0  0  0  0  0  0  0  0  0  0
    1.2320   17.6430   -2.4890 C   0  0  2  0  0  0  0  0  0  0  0  0
    2.5020   17.8150   -3.1250 O   0  0  0  0  0  0  0  0  0  0  0  0
    1.4150   16.8590   -1.1590 C   0  0  0  0  0  0  0  0  0  0  0  0
    0.1110   16.9330   -0.3270 C   0  0  0  0  0  0  0  0  0  0  0  0
    2.5040   17.5850   -0.3240 C   0  0  0  0  0  0  0  0  0  0  0  0
    1.1860   13.1480   -2.7770 C   0  0  1  0  0  0  0  0  0  0  0  0
    2.2610   13.0740   -3.9030 C   0  0  0  0  0  0  0  0  0  0  0  0
   -0.0940   12.4210   -3.3360 C   0  0  0  0  0  0  0  0  0  0  0  0
   -1.0490   11.8000   -2.2990 C   0  0  0  0  0  0  0  0  0  0  0  0
   -0.2800   10.9400   -1.2910 C   0  0  2  0  0  0  0  0  0  0  0  0
    0.3830    9.7580   -2.0790 C   0  0  0  0  0  0  0  0  0  0  0  0
   -0.9682    7.6151   -1.5982 H   0  0  0  0  0  0  0  0  0  0  0  0
   -2.4722    8.2566   -2.3420 H   0  0  0  0  0  0  0  0  0  0  0  0
   -0.9757    9.2502   -2.3420 H   0  0  0  0  0  0  0  0  0  0  0  0
   -1.8261    8.3599    0.3444 H   0  0  0  0  0  0  0  0  0  0  0  0
   -3.6210   10.2083    0.4562 H   0  0  0  0  0  0  0  0  0  0  0  0
   -3.6816   10.0171   -1.3613 H   0  0  0  0  0  0  0  0  0  0  0  0
   -3.8541    7.4712    0.0889 H   0  0  0  0  0  0  0  0  0  0  0  0
   -5.2068    8.6218    0.4538 H   0  0  0  0  0  0  0  0  0  0  0  0
   -4.0923    7.8826   -2.0525 H   0  0  0  0  0  0  0  0  0  0  0  0
   -6.5737    7.0989    0.4394 H   0  0  0  0  0  0  0  0  0  0  0  0
   -8.1239    7.1361   -0.4673 H   0  0  0  0  0  0  0  0  0  0  0  0
   -7.1189    5.6473   -0.4673 H   0  0  0  0  0  0  0  0  0  0  0  0
   -7.1112    5.5447   -2.7505 H   0  0  0  0  0  0  0  0  0  0  0  0
   -7.3985    7.1293   -3.5463 H   0  0  0  0  0  0  0  0  0  0  0  0
   -5.7527    6.4095   -3.5463 H   0  0  0  0  0  0  0  0  0  0  0  0
   -1.8743   11.0516    0.1992 H   0  0  0  0  0  0  0  0  0  0  0  0
   -0.3633   10.3308    1.9411 H   0  0  0  0  0  0  0  0  0  0  0  0
    0.2228    8.9613    0.9725 H   0  0  0  0  0  0  0  0  0  0  0  0
    1.6382   11.4015    1.4258 H   0  0  0  0  0  0  0  0  0  0  0  0
    2.0583   10.2336    0.1755 H   0  0  0  0  0  0  0  0  0  0  0  0
    0.1771   12.8177    1.3751 H   0  0  0  0  0  0  0  0  0  0  0  0
    0.5484   13.9696    0.0477 H   0  0  0  0  0  0  0  0  0  0  0  0
   -1.0065   13.0701    0.0477 H   0  0  0  0  0  0  0  0  0  0  0  0
    2.2641   11.4817   -1.8899 H   0  0  0  0  0  0  0  0  0  0  0  0
    3.1022   12.8395    0.1349 H   0  0  0  0  0  0  0  0  0  0  0  0
    3.8042   13.1053   -1.5457 H   0  0  0  0  0  0  0  0  0  0  0  0
    3.3426   15.2717   -0.1188 H   0  0  0  0  0  0  0  0  0  0  0  0
   -0.1634   14.5848   -1.9983 H   0  0  0  0  0  0  0  0  0  0  0  0
    1.7222   15.5601   -4.2309 H   0  0  0  0  0  0  0  0  0  0  0  0
   -0.0199   15.0662   -4.4098 H   0  0  0  0  0  0  0  0  0  0  0  0
    0.2616   17.5245   -4.4081 H   0  0  0  0  0  0  0  0  0  0  0  0
   -0.7221   16.9250   -3.0158 H   0  0  0  0  0  0  0  0  0  0  0  0
    0.7871   18.6130   -2.2223 H   0  0  0  0  0  0  0  0  0  0  0  0
    2.5760   17.1400   -3.8210 H   0  0  0  0  0  0  0  0  0  0  0  0
    0.3585   16.9190    0.7447 H   0  0  0  0  0  0  0  0  0  0  0  0
   -0.4250   17.8630   -0.5674 H   0  0  0  0  0  0  0  0  0  0  0  0
   -0.5268   16.0696   -0.5674 H   0  0  0  0  0  0  0  0  0  0  0  0
    2.2971   17.4471    0.7475 H   0  0  0  0  0  0  0  0  0  0  0  0
    3.4915   17.1639   -0.5639 H   0  0  0  0  0  0  0  0  0  0  0  0
    2.4951   18.6585   -0.5639 H   0  0  0  0  0  0  0  0  0  0  0  0
    3.2614   13.0051   -3.4509 H   0  0  0  0  0  0  0  0  0  0  0  0
    2.0785   12.1863   -4.5264 H   0  0  0  0  0  0  0  0  0  0  0  0
    2.2018   13.9783   -4.5264 H   0  0  0  0  0  0  0  0  0  0  0  0
   -0.6678   13.1577   -3.9175 H   0  0  0  0  0  0  0  0  0  0  0  0
    0.2896   11.5709   -3.9192 H   0  0  0  0  0  0  0  0  0  0  0  0
   -1.5694   12.6061   -1.7611 H   0  0  0  0  0  0  0  0  0  0  0  0
   -1.7715   11.1601   -2.8267 H   0  0  0  0  0  0  0  0  0  0  0  0
    0.7931    9.0269   -1.3667 H   0  0  0  0  0  0  0  0  0  0  0  0
   -0.3728    9.2695   -2.7116 H   0  0  0  0  0  0  0  0  0  0  0  0
    1.1939   10.1483   -2.7116 H   0  0  0  0  0  0  0  0  0  0  0  0
  1  2  1  0
  2  3  1  0
  3  4  1  0
  4  5  1  0
  5  6  1  0
  6  7  1  0
  7  8  1  0
  7  9  1  0
  2 10  1  0
 10 11  1  0
 11 12  1  0
 12 13  1  0
 13 14  1  1
 13 15  1  0
 15 16  1  0
 16 17  1  0
 17 18  2  0
 18 19  1  0
 19 20  1  0
 20 21  1  0
 21 22  1  0
 22 23  1  0
 22 24  1  0
 24 25  1  0
 24 26  1  0
 19 27  1  0
 27 28  1  6
 27 29  1  0
 29 30  1  0
 30 31  1  0
 31 32  1  6
  7  5  1  0
 31 10  1  0
 31 13  1  0
 27 15  1  0
 24 18  1  0
  1 33  1  0
  1 34  1  0
  1 35  1  0
  2 36  1  1
  3 37  1  0
  3 38  1  0
  4 39  1  0
  4 40  1  0
  5 41  1  6
  8 42  1  0
  8 43  1  0
  8 44  1  0
  9 45  1  0
  9 46  1  0
  9 47  1  0
 10 48  1  1
 11 49  1  0
 11 50  1  0
 12 51  1  0
 12 52  1  0
 14 53  1  0
 14 54  1  0
 14 55  1  0
 15 56  1  6
 16 57  1  0
 16 58  1  0
 17 59  1  0
 19 60  1  1
 20 61  1  0
 20 62  1  0
 21 63  1  0
 21 64  1  0
 22 65  1  1
 23 66  1  0
 25 67  1  0
 25 68  1  0
 25 69  1  0
 26 70  1  0
 26 71  1  0
 26 72  1  0
 28 73  1  0
 28 74  1  0
 28 75  1  0
 29 76  1  0
 29 77  1  0
 30 78  1  0
 30 79  1  0
 32 80  1  0
 32 81  1  0
 32 82  1  0
M  END
>  <meeko>  (1) 
{"is_sidechain": [false], "intermolecular_energy": 2.731, "internal_energy": -0.839}

$$$$
EPH_relaxed_0001_pdb2pqr_Repair_288_r2_0001_out
     RDKit          3D

 82 86  0  0  0  0  0  0  0  0999 V2000
    2.3170   18.0920   -2.8030 C   0  0  0  0  0  0  0  0  0  0  0  0
    1.1980   17.5890   -1.8860 C   0  0  2  0  0  0  0  0  0  0  0  0
    1.6320   17.5510   -0.4070 C   0  0  0  0  0  0  0  0  0  0  0  0
    1.4330   18.8790    0.3270 C   0  0  0  0  0  0  0  0  0  0  0  0
    0.2520   19.6350   -0.2030 C   0  0  2  0  0  0  0  0  0  0  0  0
   -0.6030   20.1930    0.8040 O   0  0  0  0  0  0  0  0  0  0  0  0
   -1.1830   19.1750   -0.0270 C   0  0  0  0  0  0  0  0  0  0  0  0
   -1.5130   17.9100    0.7010 C   0  0  0  0  0  0  0  0  0  0  0  0
   -2.2210   19.6890   -0.9760 C   0  0  0  0  0  0  0  0  0  0  0  0
    0.7440   16.2040   -2.3320 C   0  0  1  0  0  0  0  0  0  0  0  0
    0.8860   15.9930   -3.8630 C   0  0  0  0  0  0  0  0  0  0  0  0
    1.2720   14.5070   -4.0760 C   0  0  0  0  0  0  0  0  0  0  0  0
    1.0160   13.8370   -2.7050 C   0  0  1  0  0  0  0  0  0  0  0  0
   -0.5210   13.5650   -2.6730 C   0  0  0  0  0  0  0  0  0  0  0  0
    1.8380   12.5420   -2.4040 C   0  0  2  0  0  0  0  0  0  0  0  0
    1.5700   11.3630   -3.3550 C   0  0  0  0  0  0  0  0  0  0  0  0
    0.4820   10.4340   -2.9270 C   0  0  0  0  0  0  0  0  0  0  0  0
   -0.0560   10.3750   -1.6950 C   0  0  0  0  0  0  0  0  0  0  0  0
    0.4970   11.2350   -0.5520 C   0  0  1  0  0  0  0  0  0  0  0  0
    0.6700   10.3600    0.7180 C   0  0  0  0  0  0  0  0  0  0  0  0
   -0.6120    9.6290    1.1040 C   0  0  0  0  0  0  0  0  0  0  0  0
   -1.0980    8.7400   -0.0370 C   0  0  2  0  0  0  0  0  0  0  0  0
   -0.1550    7.6810   -0.2300 O   0  0  0  0  0  0  0  0  0  0  0  0
   -1.3000    9.5100   -1.3710 C   0  0  0  0  0  0  0  0  0  0  0  0
   -2.5260   10.4490   -1.2500 C   0  0  0  0  0  0  0  0  0  0  0  0
   -1.6540    8.4740   -2.4720 C   0  0  0  0  0  0  0  0  0  0  0  0
    1.7960   12.0850   -0.8890 C   0  0  1  0  0  0  0  0  0  0  0  0
    3.0730   11.2230   -0.6490 C   0  0  0  0  0  0  0  0  0  0  0  0
    1.8880   13.3020    0.1060 C   0  0  0  0  0  0  0  0  0  0  0  0
    1.1520   14.5920   -0.3050 C   0  0  0  0  0  0  0  0  0  0  0  0
    1.4970   14.9850   -1.7440 C   0  0  2  0  0  0  0  0  0  0  0  0
    3.0340   15.2870   -1.8030 C   0  0  0  0  0  0  0  0  0  0  0  0
    3.1512   18.4670   -2.1918 H   0  0  0  0  0  0  0  0  0  0  0  0
    2.6700   17.2659   -3.4379 H   0  0  0  0  0  0  0  0  0  0  0  0
    1.9335   18.9043   -3.4379 H   0  0  0  0  0  0  0  0  0  0  0  0
    0.3608   18.2981   -1.9657 H   0  0  0  0  0  0  0  0  0  0  0  0
    1.0429   16.7779    0.1080 H   0  0  0  0  0  0  0  0  0  0  0  0
    2.7105   17.3351   -0.3940 H   0  0  0  0  0  0  0  0  0  0  0  0
    1.2747   18.6749    1.3962 H   0  0  0  0  0  0  0  0  0  0  0  0
    2.3314   19.4943    0.1714 H   0  0  0  0  0  0  0  0  0  0  0  0
    0.8222   19.9513   -1.0889 H   0  0  0  0  0  0  0  0  0  0  0  0
   -1.4665   18.0882    1.7855 H   0  0  0  0  0  0  0  0  0  0  0  0
   -2.5266   17.5826    0.4263 H   0  0  0  0  0  0  0  0  0  0  0  0
   -0.7885   17.1292    0.4263 H   0  0  0  0  0  0  0  0  0  0  0  0
   -3.0642   20.1065   -0.4062 H   0  0  0  0  0  0  0  0  0  0  0  0
   -1.7821   20.4739   -1.6095 H   0  0  0  0  0  0  0  0  0  0  0  0
   -2.5792   18.8642   -1.6095 H   0  0  0  0  0  0  0  0  0  0  0  0
   -0.2912   16.2210   -1.9605 H   0  0  0  0  0  0  0  0  0  0  0  0
   -0.0675   16.2124   -4.3656 H   0  0  0  0  0  0  0  0  0  0  0  0
    1.6491   16.6636   -4.2849 H   0  0  0  0  0  0  0  0  0  0  0  0
    0.6436   14.0503   -4.8548 H   0  0  0  0  0  0  0  0  0  0  0  0
    2.3137   14.3902   -4.4094 H   0  0  0  0  0  0  0  0  0  0  0  0
   -0.8610   13.5048   -1.6286 H   0  0  0  0  0  0  0  0  0  0  0  0
   -1.0490   14.3837   -3.1839 H   0  0  0  0  0  0  0  0  0  0  0  0
   -0.7359   12.6149   -3.1839 H   0  0  0  0  0  0  0  0  0  0  0  0
    2.8692   12.8637   -2.6116 H   0  0  0  0  0  0  0  0  0  0  0  0
    1.2987   11.7743   -4.3385 H   0  0  0  0  0  0  0  0  0  0  0  0
    2.4935   10.7655   -3.3674 H   0  0  0  0  0  0  0  0  0  0  0  0
    0.0869    9.7392   -3.6827 H   0  0  0  0  0  0  0  0  0  0  0  0
   -0.2559   12.0155   -0.3678 H   0  0  0  0  0  0  0  0  0  0  0  0
    1.4571    9.6153    0.5285 H   0  0  0  0  0  0  0  0  0  0  0  0
    0.9366   11.0283    1.5500 H   0  0  0  0  0  0  0  0  0  0  0  0
   -0.4180    9.0050    1.9889 H   0  0  0  0  0  0  0  0  0  0  0  0
   -1.3895   10.3758    1.3226 H   0  0  0  0  0  0  0  0  0  0  0  0
   -2.0844    8.3462    0.2492 H   0  0  0  0  0  0  0  0  0  0  0  0
    0.7340    8.0750   -0.2250 H   0  0  0  0  0  0  0  0  0  0  0  0
   -2.7519   10.6220   -0.1874 H   0  0  0  0  0  0  0  0  0  0  0  0
   -2.3022   11.4089   -1.7383 H   0  0  0  0  0  0  0  0  0  0  0  0
   -3.3945    9.9829   -1.7383 H   0  0  0  0  0  0  0  0  0  0  0  0
   -1.9754    7.5335   -2.0007 H   0  0  0  0  0  0  0  0  0  0  0  0
   -2.4686    8.8677   -3.0976 H   0  0  0  0  0  0  0  0  0  0  0  0
   -0.7688    8.2869   -3.0976 H   0  0  0  0  0  0  0  0  0  0  0  0
    3.2410   11.1096    0.4322 H   0  0  0  0  0  0  0  0  0  0  0  0
    2.9369   10.2312   -1.1049 H   0  0  0  0  0  0  0  0  0  0  0  0
    3.9419   11.7201   -1.1049 H   0  0  0  0  0  0  0  0  0  0  0  0
    1.4732   12.9751    1.0709 H   0  0  0  0  0  0  0  0  0  0  0  0
    2.9536   13.5738    0.1309 H   0  0  0  0  0  0  0  0  0  0  0  0
    0.0671   14.4277   -0.2271 H   0  0  0  0  0  0  0  0  0  0  0  0
    1.4675   15.4047    0.3658 H   0  0  0  0  0  0  0  0  0  0  0  0
    3.4318   15.3652   -0.7804 H   0  0  0  0  0  0  0  0  0  0  0  0
    3.5475   14.4726   -2.3350 H   0  0  0  0  0  0  0  0  0  0  0  0
    3.2012   16.2352   -2.3350 H   0  0  0  0  0  0  0  0  0  0  0  0
  1  2  1  0
  2  3  1  0
  3  4  1  0
  4  5  1  0
  5  6  1  0
  6  7  1  0
  7  8  1  0
  7  9  1  0
  2 10  1  0
 10 11  1  0
 11 12  1  0
 12 13  1  0
 13 14  1  1
 13 15  1  0
 15 16  1  0
 16 17  1  0
 17 18  2  0
 18 19  1  0
 19 20  1  0
 20 21  1  0
 21 22  1  0
 22 23  1  0
 22 24  1  0
 24 25  1  0
 24 26  1  0
 19 27  1  0
 27 28  1  1
 27 29  1  0
 29 30  1  0
 30 31  1  0
 31 32  1  1
  7  5  1  0
 31 10  1  0
 31 13  1  0
 27 15  1  0
 24 18  1  0
  1 33  1  0
  1 34  1  0
  1 35  1  0
  2 36  1  1
  3 37  1  0
  3 38  1  0
  4 39  1  0
  4 40  1  0
  5 41  1  6
  8 42  1  0
  8 43  1  0
  8 44  1  0
  9 45  1  0
  9 46  1  0
  9 47  1  0
 10 48  1  6
 11 49  1  0
 11 50  1  0
 12 51  1  0
 12 52  1  0
 14 53  1  0
 14 54  1  0
 14 55  1  0
 15 56  1  6
 16 57  1  0
 16 58  1  0
 17 59  1  0
 19 60  1  1
 20 61  1  0
 20 62  1  0
 21 63  1  0
 21 64  1  0
 22 65  1  1
 23 66  1  0
 25 67  1  0
 25 68  1  0
 25 69  1  0
 26 70  1  0
 26 71  1  0
 26 72  1  0
 28 73  1  0
 28 74  1  0
 28 75  1  0
 29 76  1  0
 29 77  1  0
 30 78  1  0
 30 79  1  0
 32 80  1  0
 32 81  1  0
 32 82  1  0
M  END
>  <meeko>  (2) 
{"is_sidechain": [false], "intermolecular_energy": 2.731, "internal_energy": -0.839}

$$$$
EPH_relaxed_0001_pdb2pqr_Repair_288_r2_0001_out
     RDKit          3D

 82 86  0  0  0  0  0  0  0  0999 V2000
    2.2860   17.9240   -2.5050 C   0  0  0  0  0  0  0  0  0  0  0  0
    0.7660   17.8080   -2.6500 C   0  0  2  0  0  0  0  0  0  0  0  0
    0.0230   18.3090   -1.3950 C   0  0  0  0  0  0  0  0  0  0  0  0
    0.6970   17.9090   -0.0800 C   0  0  0  0  0  0  0  0  0  0  0  0
    1.2290   19.1020    0.6560 C   0  0  2  0  0  0  0  0  0  0  0  0
    2.1290   19.9210   -0.1020 O   0  0  0  0  0  0  0  0  0  0  0  0
    2.6860   19.2630    1.0470 C   0  0  0  0  0  0  0  0  0  0  0  0
    3.7030   18.2160    0.7150 C   0  0  0  0  0  0  0  0  0  0  0  0
    3.0280   20.1940    2.1680 C   0  0  0  0  0  0  0  0  0  0  0  0
    0.3810   16.3620   -2.9410 C   0  0  1  0  0  0  0  0  0  0  0  0
    0.4560   16.0170   -4.4520 C   0  0  0  0  0  0  0  0  0  0  0  0
    0.9260   14.5430   -4.5510 C   0  0  0  0  0  0  0  0  0  0  0  0
    0.7880   13.9920   -3.1130 C   0  0  1  0  0  0  0  0  0  0  0  0
   -0.7230   13.6310   -2.9650 C   0  0  0  0  0  0  0  0  0  0  0  0
    1.7090   12.7830   -2.7450 C   0  0  2  0  0  0  0  0  0  0  0  0
    1.4680   11.5050   -3.5670 C   0  0  0  0  0  0  0  0  0  0  0  0
    0.4690   10.5560   -2.9940 C   0  0  0  0  0  0  0  0  0  0  0  0
    0.0010   10.5810   -1.7320 C   0  0  0  0  0  0  0  0  0  0  0  0
    0.5560   11.5770   -0.7060 C   0  0  1  0  0  0  0  0  0  0  0  0
    0.8540   10.8380    0.6250 C   0  0  0  0  0  0  0  0  0  0  0  0
   -0.3540   10.0700    1.1510 C   0  0  0  0  0  0  0  0  0  0  0  0
   -0.8410    9.0490    0.1260 C   0  0  2  0  0  0  0  0  0  0  0  0
    0.1580    8.0360   -0.0260 O   0  0  0  0  0  0  0  0  0  0  0  0
   -1.1640    9.6770   -1.2580 C   0  0  0  0  0  0  0  0  0  0  0  0
   -2.4410   10.5470   -1.1510 C   0  0  0  0  0  0  0  0  0  0  0  0
   -1.5070    8.5230   -2.2380 C   0  0  0  0  0  0  0  0  0  0  0  0
    1.7770   12.4690   -1.1950 C   0  0  1  0  0  0  0  0  0  0  0  0
    3.1190   11.7120   -0.9530 C   0  0  0  0  0  0  0  0  0  0  0  0
    1.8420   13.7770   -0.3220 C   0  0  0  0  0  0  0  0  0  0  0  0
    1.0030   14.9760   -0.8030 C   0  0  0  0  0  0  0  0  0  0  0  0
    1.2440   15.2520   -2.2910 C   0  0  2  0  0  0  0  0  0  0  0  0
    2.7520   15.6400   -2.4670 C   0  0  0  0  0  0  0  0  0  0  0  0
    2.5520   17.9443   -1.4378 H   0  0  0  0  0  0  0  0  0  0  0  0
    2.7673   17.0600   -2.9865 H   0  0  0  0  0  0  0  0  0  0  0  0
    2.6306   18.8511   -2.9865 H   0  0  0  0  0  0  0  0  0  0  0  0
    0.4635   18.4498   -3.4906 H   0  0  0  0  0  0  0  0  0  0  0  0
   -0.0302   19.4069   -1.4381 H   0  0  0  0  0  0  0  0  0  0  0  0
   -0.9720   17.8400   -1.4019 H   0  0  0  0  0  0  0  0  0  0  0  0
   -0.0394   17.3967    0.5566 H   0  0  0  0  0  0  0  0  0  0  0  0
    1.5428   17.2465   -0.3160 H   0  0  0  0  0  0  0  0  0  0  0  0
    0.2963   19.1915    1.2322 H   0  0  0  0  0  0  0  0  0  0  0  0
    4.1124   17.7945    1.6449 H   0  0  0  0  0  0  0  0  0  0  0  0
    3.2277   17.4162    0.1280 H   0  0  0  0  0  0  0  0  0  0  0  0
    4.5162   18.6678    0.1280 H   0  0  0  0  0  0  0  0  0  0  0  0
    2.8440   19.6930    3.1298 H   0  0  0  0  0  0  0  0  0  0  0  0
    4.0888   20.4769    2.0990 H   0  0  0  0  0  0  0  0  0  0  0  0
    2.4026   21.0963    2.0990 H   0  0  0  0  0  0  0  0  0  0  0  0
   -0.6319   16.3506   -2.5122 H   0  0  0  0  0  0  0  0  0  0  0  0
   -0.5347   16.1307   -4.9162 H   0  0  0  0  0  0  0  0  0  0  0  0
    1.1507   16.6893   -4.9768 H   0  0  0  0  0  0  0  0  0  0  0  0
    0.2879   13.9778   -5.2463 H   0  0  0  0  0  0  0  0  0  0  0  0
    1.9538   14.4578   -4.9334 H   0  0  0  0  0  0  0  0  0  0  0  0
   -0.9824   13.5690   -1.8978 H   0  0  0  0  0  0  0  0  0  0  0  0
   -1.3346   14.4083   -3.4464 H   0  0  0  0  0  0  0  0  0  0  0  0
   -0.9171   12.6612   -3.4464 H   0  0  0  0  0  0  0  0  0  0  0  0
    2.7042   13.1455   -3.0418 H   0  0  0  0  0  0  0  0  0  0  0  0
    1.1179   11.8046   -4.5658 H   0  0  0  0  0  0  0  0  0  0  0  0
    2.4269   10.9661   -3.5788 H   0  0  0  0  0  0  0  0  0  0  0  0
    0.0824    9.7696   -3.6590 H   0  0  0  0  0  0  0  0  0  0  0  0
   -0.2361   12.3239   -0.5490 H   0  0  0  0  0  0  0  0  0  0  0  0
    1.6774   10.1281    0.4574 H   0  0  0  0  0  0  0  0  0  0  0  0
    1.1199   11.5968    1.3757 H   0  0  0  0  0  0  0  0  0  0  0  0
   -0.0720    9.5452    2.0757 H   0  0  0  0  0  0  0  0  0  0  0  0
   -1.1664   10.7854    1.3467 H   0  0  0  0  0  0  0  0  0  0  0  0
   -1.7824    8.6244    0.5046 H   0  0  0  0  0  0  0  0  0  0  0  0
    1.0190    8.4390    0.1790 H   0  0  0  0  0  0  0  0  0  0  0  0
   -2.6841   10.7126   -0.0911 H   0  0  0  0  0  0  0  0  0  0  0  0
   -2.2672   11.5154   -1.6430 H   0  0  0  0  0  0  0  0  0  0  0  0
   -3.2786   10.0309   -1.6430 H   0  0  0  0  0  0  0  0  0  0  0  0
   -1.7746    7.6228   -1.6652 H   0  0  0  0  0  0  0  0  0  0  0  0
   -2.3557    8.8201   -2.8716 H   0  0  0  0  0  0  0  0  0  0  0  0
   -0.6338    8.3083   -2.8716 H   0  0  0  0  0  0  0  0  0  0  0  0
    3.2943   11.6131    0.1284 H   0  0  0  0  0  0  0  0  0  0  0  0
    3.0633   10.7122   -1.4084 H   0  0  0  0  0  0  0  0  0  0  0  0
    3.9458   12.2768   -1.4084 H   0  0  0  0  0  0  0  0  0  0  0  0
    1.5015   13.5179    0.6914 H   0  0  0  0  0  0  0  0  0  0  0  0
    2.8873   14.1135   -0.3854 H   0  0  0  0  0  0  0  0  0  0  0  0
   -0.0631   14.7553   -0.6460 H   0  0  0  0  0  0  0  0  0  0  0  0
    1.3006   15.8655   -0.2284 H   0  0  0  0  0  0  0  0  0  0  0  0
    3.2177   15.7598   -1.4777 H   0  0  0  0  0  0  0  0  0  0  0  0
    3.2723   14.8465   -3.0234 H   0  0  0  0  0  0  0  0  0  0  0  0
    2.8247   16.5861   -3.0234 H   0  0  0  0  0  0  0  0  0  0  0  0
  1  2  1  0
  2  3  1  0
  3  4  1  0
  4  5  1  0
  5  6  1  0
  6  7  1  0
  7  8  1  0
  7  9  1  0
  2 10  1  0
 10 11  1  0
 11 12  1  0
 12 13  1  0
 13 14  1  1
 13 15  1  0
 15 16  1  0
 16 17  1  0
 17 18  2  0
 18 19  1  0
 19 20  1  0
 20 21  1  0
 21 22  1  0
 22 23  1  0
 22 24  1  0
 24 25  1  0
 24 26  1  0
 19 27  1  0
 27 28  1  6
 27 29  1  0
 29 30  1  0
 30 31  1  0
 31 32  1  1
  7  5  1  0
 31 10  1  0
 31 13  1  0
 27 15  1  0
 24 18  1  0
  1 33  1  0
  1 34  1  0
  1 35  1  0
  2 36  1  6
  3 37  1  0
  3 38  1  0
  4 39  1  0
  4 40  1  0
  5 41  1  1
  8 42  1  0
  8 43  1  0
  8 44  1  0
  9 45  1  0
  9 46  1  0
  9 47  1  0
 10 48  1  1
 11 49  1  0
 11 50  1  0
 12 51  1  0
 12 52  1  0
 14 53  1  0
 14 54  1  0
 14 55  1  0
 15 56  1  6
 16 57  1  0
 16 58  1  0
 17 59  1  0
 19 60  1  1
 20 61  1  0
 20 62  1  0
 21 63  1  0
 21 64  1  0
 22 65  1  1
 23 66  1  0
 25 67  1  0
 25 68  1  0
 25 69  1  0
 26 70  1  0
 26 71  1  0
 26 72  1  0
 28 73  1  0
 28 74  1  0
 28 75  1  0
 29 76  1  0
 29 77  1  0
 30 78  1  0
 30 79  1  0
 32 80  1  0
 32 81  1  0
 32 82  1  0
M  END
>  <meeko>  (3) 
{"is_sidechain": [false], "intermolecular_energy": 2.731, "internal_energy": -0.839}

$$$$
EPH_relaxed_0001_pdb2pqr_Repair_288_r2_0001_out
     RDKit          3D

 82 86  0  0  0  0  0  0  0  0999 V2000
   -5.1160    5.9400   -1.6960 C   0  0  0  0  0  0  0  0  0  0  0  0
   -5.4280    7.4360   -1.7950 C   0  0  2  0  0  0  0  0  0  0  0  0
   -5.2030    8.1660   -0.4560 C   0  0  0  0  0  0  0  0  0  0  0  0
   -4.2290    9.3430   -0.5520 C   0  0  0  0  0  0  0  0  0  0  0  0
   -2.8120    8.9090   -0.3310 C   0  0  2  0  0  0  0  0  0  0  0  0
   -2.1100    9.6480    0.6780 O   0  0  0  0  0  0  0  0  0  0  0  0
   -1.6100    9.7740   -0.6630 C   0  0  0  0  0  0  0  0  0  0  0  0
   -1.7720   11.1430   -1.2460 C   0  0  0  0  0  0  0  0  0  0  0  0
   -0.2870    9.1090   -0.8780 C   0  0  0  0  0  0  0  0  0  0  0  0
   -6.8640    7.6380   -2.2640 C   0  0  1  0  0  0  0  0  0  0  0  0
   -7.1560    6.9310   -3.6150 C   0  0  0  0  0  0  0  0  0  0  0  0
   -8.6240    6.4360   -3.5520 C   0  0  0  0  0  0  0  0  0  0  0  0
   -9.2260    7.1530   -2.3210 C   0  0  1  0  0  0  0  0  0  0  0  0
   -9.5970    8.5810   -2.8310 C   0  0  0  0  0  0  0  0  0  0  0  0
  -10.4430    6.4500   -1.6370 C   0  0  2  0  0  0  0  0  0  0  0  0
  -11.6920    6.3010   -2.5230 C   0  0  0  0  0  0  0  0  0  0  0  0
  -12.6640    7.4320   -2.4500 C   0  0  0  0  0  0  0  0  0  0  0  0
  -12.6850    8.3850   -1.5000 C   0  0  0  0  0  0  0  0  0  0  0  0
  -11.7230    8.3280   -0.3060 C   0  0  1  0  0  0  0  0  0  0  0  0
  -12.5070    8.6010    1.0050 C   0  0  0  0  0  0  0  0  0  0  0  0
  -13.2970    9.9050    0.9530 C   0  0  0  0  0  0  0  0  0  0  0  0
  -14.2840    9.9000   -0.2120 C   0  0  2  0  0  0  0  0  0  0  0  0
  -15.2870    8.9110    0.0380 O   0  0  0  0  0  0  0  0  0  0  0  0
  -13.6090    9.6250   -1.5850 C   0  0  0  0  0  0  0  0  0  0  0  0
  -12.7480   10.8450   -1.9960 C   0  0  0  0  0  0  0  0  0  0  0  0
  -14.7300    9.5050   -2.6520 C   0  0  0  0  0  0  0  0  0  0  0  0
  -10.8110    7.0300   -0.2120 C   0  0  1  0  0  0  0  0  0  0  0  0
  -11.5700    5.9000    0.5470 C   0  0  0  0  0  0  0  0  0  0  0  0
   -9.5330    7.3610    0.6470 C   0  0  0  0  0  0  0  0  0  0  0  0
   -8.3210    7.9430   -0.1060 C   0  0  0  0  0  0  0  0  0  0  0  0
   -7.9930    7.1070   -1.3460 C   0  0  2  0  0  0  0  0  0  0  0  0
   -7.5940    5.6710   -0.8630 C   0  0  0  0  0  0  0  0  0  0  0  0
   -5.0550    5.6474   -0.6374 H   0  0  0  0  0  0  0  0  0  0  0  0
   -5.9137    5.3656   -2.1898 H   0  0  0  0  0  0  0  0  0  0  0  0
   -4.1552    5.7324   -2.1898 H   0  0  0  0  0  0  0  0  0  0  0  0
   -4.7332    7.8709   -2.5286 H   0  0  0  0  0  0  0  0  0  0  0  0
   -6.1723    8.5456   -0.1005 H   0  0  0  0  0  0  0  0  0  0  0  0
   -4.7579    7.4365    0.2366 H   0  0  0  0  0  0  0  0  0  0  0  0
   -4.3120    9.7937   -1.5520 H   0  0  0  0  0  0  0  0  0  0  0  0
   -4.4911   10.0698    0.2309 H   0  0  0  0  0  0  0  0  0  0  0  0
   -3.0659    7.8695   -0.5860 H   0  0  0  0  0  0  0  0  0  0  0  0
   -1.8592   11.8795   -0.4336 H   0  0  0  0  0  0  0  0  0  0  0  0
   -0.8960   11.3833   -1.8664 H   0  0  0  0  0  0  0  0  0  0  0  0
   -2.6799   11.1722   -1.8664 H   0  0  0  0  0  0  0  0  0  0  0  0
    0.1704    8.8791    0.0956 H   0  0  0  0  0  0  0  0  0  0  0  0
   -0.4327    8.1770   -1.4439 H   0  0  0  0  0  0  0  0  0  0  0  0
    0.3740    9.7820   -1.4439 H   0  0  0  0  0  0  0  0  0  0  0  0
   -6.8938    8.7370   -2.2996 H   0  0  0  0  0  0  0  0  0  0  0  0
   -7.0301    7.6385   -4.4479 H   0  0  0  0  0  0  0  0  0  0  0  0
   -6.4631    6.0928   -3.7803 H   0  0  0  0  0  0  0  0  0  0  0  0
   -9.1671    6.7142   -4.4673 H   0  0  0  0  0  0  0  0  0  0  0  0
   -8.6915    5.3411   -3.4709 H   0  0  0  0  0  0  0  0  0  0  0  0
   -9.7693    9.2443   -1.9706 H   0  0  0  0  0  0  0  0  0  0  0  0
   -8.7723    8.9783   -3.4409 H   0  0  0  0  0  0  0  0  0  0  0  0
  -10.5108    8.5266   -3.4409 H   0  0  0  0  0  0  0  0  0  0  0  0
  -10.0659    5.4291   -1.4772 H   0  0  0  0  0  0  0  0  0  0  0  0
  -11.3588    6.2059   -3.5670 H   0  0  0  0  0  0  0  0  0  0  0  0
  -12.2267    5.4154   -2.1490 H   0  0  0  0  0  0  0  0  0  0  0  0
  -13.4276    7.4913   -3.2396 H   0  0  0  0  0  0  0  0  0  0  0  0
  -10.9847    9.1263   -0.4724 H   0  0  0  0  0  0  0  0  0  0  0  0
  -13.2078    7.7706    1.1762 H   0  0  0  0  0  0  0  0  0  0  0  0
  -11.7741    8.6867    1.8208 H   0  0  0  0  0  0  0  0  0  0  0  0
  -13.8524   10.0270    1.8946 H   0  0  0  0  0  0  0  0  0  0  0  0
  -12.5915   10.7370    0.8114 H   0  0  0  0  0  0  0  0  0  0  0  0
  -14.7253   10.9056   -0.2753 H   0  0  0  0  0  0  0  0  0  0  0  0
  -16.0950    9.3750    0.3150 H   0  0  0  0  0  0  0  0  0  0  0  0
  -12.3855   11.3587   -1.0934 H   0  0  0  0  0  0  0  0  0  0  0  0
  -11.8897   10.5035   -2.5933 H   0  0  0  0  0  0  0  0  0  0  0  0
  -13.3573   11.5393   -2.5933 H   0  0  0  0  0  0  0  0  0  0  0  0
  -15.7036    9.4008   -2.1508 H   0  0  0  0  0  0  0  0  0  0  0  0
  -14.7360   10.4076   -3.2807 H   0  0  0  0  0  0  0  0  0  0  0  0
  -14.5448    8.6216   -3.2807 H   0  0  0  0  0  0  0  0  0  0  0  0
  -11.4670    6.0534    1.6314 H   0  0  0  0  0  0  0  0  0  0  0  0
  -12.6349    5.9253    0.2727 H   0  0  0  0  0  0  0  0  0  0  0  0
  -11.1438    4.9237    0.2727 H   0  0  0  0  0  0  0  0  0  0  0  0
   -9.8285    8.0901    1.4158 H   0  0  0  0  0  0  0  0  0  0  0  0
   -9.1903    6.3917    1.0382 H   0  0  0  0  0  0  0  0  0  0  0  0
   -8.5511    8.9728   -0.4169 H   0  0  0  0  0  0  0  0  0  0  0  0
   -7.4507    7.9292    0.5665 H   0  0  0  0  0  0  0  0  0  0  0  0
   -7.5862    5.6430    0.2366 H   0  0  0  0  0  0  0  0  0  0  0  0
   -8.3232    4.9405   -1.2432 H   0  0  0  0  0  0  0  0  0  0  0  0
   -6.5925    5.4213   -1.2432 H   0  0  0  0  0  0  0  0  0  0  0  0
  1  2  1  0
  2  3  1  0
  3  4  1  0
  4  5  1  0
  5  6  1  0
  6  7  1  0
  7  8  1  0
  7  9  1  0
  2 10  1  0
 10 11  1  0
 11 12  1  0
 12 13  1  0
 13 14  1  6
 13 15  1  0
 15 16  1  0
 16 17  1  0
 17 18  2  0
 18 19  1  0
 19 20  1  0
 20 21  1  0
 21 22  1  0
 22 23  1  0
 22 24  1  0
 24 25  1  0
 24 26  1  0
 19 27  1  0
 27 28  1  1
 27 29  1  0
 29 30  1  0
 30 31  1  0
 31 32  1  1
  7  5  1  0
 31 10  1  0
 31 13  1  0
 27 15  1  0
 24 18  1  0
  1 33  1  0
  1 34  1  0
  1 35  1  0
  2 36  1  6
  3 37  1  0
  3 38  1  0
  4 39  1  0
  4 40  1  0
  5 41  1  1
  8 42  1  0
  8 43  1  0
  8 44  1  0
  9 45  1  0
  9 46  1  0
  9 47  1  0
 10 48  1  6
 11 49  1  0
 11 50  1  0
 12 51  1  0
 12 52  1  0
 14 53  1  0
 14 54  1  0
 14 55  1  0
 15 56  1  1
 16 57  1  0
 16 58  1  0
 17 59  1  0
 19 60  1  6
 20 61  1  0
 20 62  1  0
 21 63  1  0
 21 64  1  0
 22 65  1  6
 23 66  1  0
 25 67  1  0
 25 68  1  0
 25 69  1  0
 26 70  1  0
 26 71  1  0
 26 72  1  0
 28 73  1  0
 28 74  1  0
 28 75  1  0
 29 76  1  0
 29 77  1  0
 30 78  1  0
 30 79  1  0
 32 80  1  0
 32 81  1  0
 32 82  1  0
M  END
>  <meeko>  (4) 
{"is_sidechain": [false], "intermolecular_energy": 2.731, "internal_energy": -0.839}

$$$$
EPH_relaxed_0001_pdb2pqr_Repair_288_r2_0001_out
     RDKit          3D

 82 86  0  0  0  0  0  0  0  0999 V2000
   -2.0620    8.0080   -2.2480 C   0  0  0  0  0  0  0  0  0  0  0  0
   -1.9240    8.5880   -0.8380 C   0  0  2  0  0  0  0  0  0  0  0  0
   -3.2490    8.5240   -0.0520 C   0  0  0  0  0  0  0  0  0  0  0  0
   -4.4940    8.6780   -0.9310 C   0  0  0  0  0  0  0  0  0  0  0  0
   -5.2690    7.3980   -1.0220 C   0  0  2  0  0  0  0  0  0  0  0  0
   -5.4250    6.8860   -2.3520 O   0  0  0  0  0  0  0  0  0  0  0  0
   -6.6300    7.2900   -1.6830 C   0  0  0  0  0  0  0  0  0  0  0  0
   -7.2970    8.4820   -2.2970 C   0  0  0  0  0  0  0  0  0  0  0  0
   -7.5210    6.1480   -1.3050 C   0  0  0  0  0  0  0  0  0  0  0  0
   -1.4320   10.0280   -0.9140 C   0  0  1  0  0  0  0  0  0  0  0  0
   -0.9450   10.5670    0.4580 C   0  0  0  0  0  0  0  0  0  0  0  0
    0.2440   11.5180    0.1690 C   0  0  0  0  0  0  0  0  0  0  0  0
    0.1910   11.7560   -1.3590 C   0  0  1  0  0  0  0  0  0  0  0  0
   -0.9000   12.8540   -1.5560 C   0  0  0  0  0  0  0  0  0  0  0  0
    1.5390   12.1510   -2.0440 C   0  0  2  0  0  0  0  0  0  0  0  0
    2.1480   13.4810   -1.5670 C   0  0  0  0  0  0  0  0  0  0  0  0
    1.7260   14.6880   -2.3380 C   0  0  0  0  0  0  0  0  0  0  0  0
    1.1220   14.6770   -3.5410 C   0  0  0  0  0  0  0  0  0  0  0  0
    0.8920   13.3600   -4.2940 C   0  0  1  0  0  0  0  0  0  0  0  0
    1.3200   13.5290   -5.7750 C   0  0  0  0  0  0  0  0  0  0  0  0
    0.6350   14.7140   -6.4500 C   0  0  0  0  0  0  0  0  0  0  0  0
    0.9350   16.0130   -5.7060 C   0  0  2  0  0  0  0  0  0  0  0  0
    2.3280   16.3100   -5.8400 O   0  0  0  0  0  0  0  0  0  0  0  0
    0.5550   15.9580   -4.2000 C   0  0  0  0  0  0  0  0  0  0  0  0
   -0.9860   15.9390   -4.0520 C   0  0  0  0  0  0  0  0  0  0  0  0
    1.0380   17.2760   -3.5370 C   0  0  0  0  0  0  0  0  0  0  0  0
    1.5150   12.0600   -3.6240 C   0  0  1  0  0  0  0  0  0  0  0  0
    2.9950   11.8820   -4.0820 C   0  0  0  0  0  0  0  0  0  0  0  0
    0.7350   10.7930   -4.1380 C   0  0  0  0  0  0  0  0  0  0  0  0
   -0.5220   10.3820   -3.3480 C   0  0  0  0  0  0  0  0  0  0  0  0
   -0.2290   10.3210   -1.8450 C   0  0  2  0  0  0  0  0  0  0  0  0
    0.8490    9.2080   -1.6130 C   0  0  0  0  0  0  0  0  0  0  0  0
   -2.3162    6.9398   -2.1818 H   0  0  0  0  0  0  0  0  0  0  0  0
   -2.8583    8.5416   -2.7877 H   0  0  0  0  0  0  0  0  0  0  0  0
   -1.1107    8.1258   -2.7877 H   0  0  0  0  0  0  0  0  0  0  0  0
   -1.1896    7.9729   -0.2974 H   0  0  0  0  0  0  0  0  0  0  0  0
   -3.3029    7.5516    0.4593 H   0  0  0  0  0  0  0  0  0  0  0  0
   -3.2462    9.3688    0.6525 H   0  0  0  0  0  0  0  0  0  0  0  0
   -5.1407    9.4566   -0.5002 H   0  0  0  0  0  0  0  0  0  0  0  0
   -4.1669    8.9541   -1.9443 H   0  0  0  0  0  0  0  0  0  0  0  0
   -4.8993    7.0763   -0.0372 H   0  0  0  0  0  0  0  0  0  0  0  0
   -7.6679    9.1449   -1.5014 H   0  0  0  0  0  0  0  0  0  0  0  0
   -6.5727    9.0269   -2.9203 H   0  0  0  0  0  0  0  0  0  0  0  0
   -8.1403    8.1497   -2.9203 H   0  0  0  0  0  0  0  0  0  0  0  0
   -7.5781    6.0748   -0.2089 H   0  0  0  0  0  0  0  0  0  0  0  0
   -8.5279    6.3175   -1.7142 H   0  0  0  0  0  0  0  0  0  0  0  0
   -7.1117    5.2126   -1.7142 H   0  0  0  0  0  0  0  0  0  0  0  0
   -2.3387   10.5110   -1.3071 H   0  0  0  0  0  0  0  0  0  0  0  0
   -1.7561   11.1161    0.9587 H   0  0  0  0  0  0  0  0  0  0  0  0
   -0.6396    9.7432    1.1199 H   0  0  0  0  0  0  0  0  0  0  0  0
    0.1244   12.4660    0.7140 H   0  0  0  0  0  0  0  0  0  0  0  0
    1.2059   11.0932    0.4919 H   0  0  0  0  0  0  0  0  0  0  0  0
   -1.2487   13.2049   -0.5735 H   0  0  0  0  0  0  0  0  0  0  0  0
   -0.4731   13.6986   -2.1167 H   0  0  0  0  0  0  0  0  0  0  0  0
   -1.7473   12.4325   -2.1167 H   0  0  0  0  0  0  0  0  0  0  0  0
    2.2223   11.3652   -1.6897 H   0  0  0  0  0  0  0  0  0  0  0  0
    1.8582   13.6302   -0.5164 H   0  0  0  0  0  0  0  0  0  0  0  0
    3.2341   13.3892   -1.7154 H   0  0  0  0  0  0  0  0  0  0  0  0
    1.9257   15.6700   -1.8843 H   0  0  0  0  0  0  0  0  0  0  0  0
   -0.1886   13.1624   -4.2375 H   0  0  0  0  0  0  0  0  0  0  0  0
    2.4086   13.6828   -5.8122 H   0  0  0  0  0  0  0  0  0  0  0  0
    1.0214   12.6184   -6.3151 H   0  0  0  0  0  0  0  0  0  0  0  0
    0.9992   14.7991   -7.4845 H   0  0  0  0  0  0  0  0  0  0  0  0
   -0.4519   14.5451   -6.4380 H   0  0  0  0  0  0  0  0  0  0  0  0
    0.3155   16.8021   -6.1572 H   0  0  0  0  0  0  0  0  0  0  0  0
    2.5880   16.8540   -5.0770 H   0  0  0  0  0  0  0  0  0  0  0  0
   -1.2518   15.9357   -2.9846 H   0  0  0  0  0  0  0  0  0  0  0  0
   -1.4116   16.8320   -4.5331 H   0  0  0  0  0  0  0  0  0  0  0  0
   -1.3895   15.0358   -4.5331 H   0  0  0  0  0  0  0  0  0  0  0  0
    0.9997   17.1714   -2.4427 H   0  0  0  0  0  0  0  0  0  0  0  0
    2.0716   17.4862   -3.8493 H   0  0  0  0  0  0  0  0  0  0  0  0
    0.3850   18.1043   -3.8493 H   0  0  0  0  0  0  0  0  0  0  0  0
    3.6454   11.8038   -3.1983 H   0  0  0  0  0  0  0  0  0  0  0  0
    3.0845   10.9666   -4.6854 H   0  0  0  0  0  0  0  0  0  0  0  0
    3.2990   12.7501   -4.6854 H   0  0  0  0  0  0  0  0  0  0  0  0
    0.4261   10.9907   -5.1751 H   0  0  0  0  0  0  0  0  0  0  0  0
    1.4371    9.9548   -4.0172 H   0  0  0  0  0  0  0  0  0  0  0  0
   -1.3183   11.1188   -3.5299 H   0  0  0  0  0  0  0  0  0  0  0  0
   -0.8374    9.3835   -3.6849 H   0  0  0  0  0  0  0  0  0  0  0  0
    0.9944    9.0578   -0.5330 H   0  0  0  0  0  0  0  0  0  0  0  0
    0.5096    8.2675   -2.0715 H   0  0  0  0  0  0  0  0  0  0  0  0
    1.7999    9.5172   -2.0715 H   0  0  0  0  0  0  0  0  0  0  0  0
  1  2  1  0
  2  3  1  0
  3  4  1  0
  4  5  1  0
  5  6  1  0
  6  7  1  0
  7  8  1  0
  7  9  1  0
  2 10  1  0
 10 11  1  0
 11 12  1  0
 12 13  1  0
 13 14  1  1
 13 15  1  0
 15 16  1  0
 16 17  1  0
 17 18  2  0
 18 19  1  0
 19 20  1  0
 20 21  1  0
 21 22  1  0
 22 23  1  0
 22 24  1  0
 24 25  1  0
 24 26  1  0
 19 27  1  0
 27 28  1  6
 27 29  1  0
 29 30  1  0
 30 31  1  0
 31 32  1  6
  7  5  1  0
 31 10  1  0
 31 13  1  0
 27 15  1  0
 24 18  1  0
  1 33  1  0
  1 34  1  0
  1 35  1  0
  2 36  1  1
  3 37  1  0
  3 38  1  0
  4 39  1  0
  4 40  1  0
  5 41  1  1
  8 42  1  0
  8 43  1  0
  8 44  1  0
  9 45  1  0
  9 46  1  0
  9 47  1  0
 10 48  1  6
 11 49  1  0
 11 50  1  0
 12 51  1  0
 12 52  1  0
 14 53  1  0
 14 54  1  0
 14 55  1  0
 15 56  1  1
 16 57  1  0
 16 58  1  0
 17 59  1  0
 19 60  1  6
 20 61  1  0
 20 62  1  0
 21 63  1  0
 21 64  1  0
 22 65  1  6
 23 66  1  0
 25 67  1  0
 25 68  1  0
 25 69  1  0
 26 70  1  0
 26 71  1  0
 26 72  1  0
 28 73  1  0
 28 74  1  0
 28 75  1  0
 29 76  1  0
 29 77  1  0
 30 78  1  0
 30 79  1  0
 32 80  1  0
 32 81  1  0
 32 82  1  0
M  END
>  <meeko>  (5) 
{"is_sidechain": [false], "intermolecular_energy": 2.731, "internal_energy": -0.839}

$$$$
EPH_relaxed_0001_pdb2pqr_Repair_288_r2_0001_out
     RDKit          3D

 82 86  0  0  0  0  0  0  0  0999 V2000
    0.0630   10.3520   -3.4270 C   0  0  0  0  0  0  0  0  0  0  0  0
    1.1100   10.1860   -2.3220 C   0  0  2  0  0  0  0  0  0  0  0  0
    0.8210    8.9650   -1.4260 C   0  0  0  0  0  0  0  0  0  0  0  0
    0.0730    9.3110   -0.1360 C   0  0  0  0  0  0  0  0  0  0  0  0
   -1.3450    8.8260   -0.1700 C   0  0  2  0  0  0  0  0  0  0  0  0
   -1.9220    8.7570   -1.4810 O   0  0  0  0  0  0  0  0  0  0  0  0
   -2.5180    9.6990   -0.5740 C   0  0  0  0  0  0  0  0  0  0  0  0
   -2.3260   11.1290   -0.9710 C   0  0  0  0  0  0  0  0  0  0  0  0
   -3.8890    9.3110   -0.1170 C   0  0  0  0  0  0  0  0  0  0  0  0
    1.1750   11.4510   -1.4730 C   0  0  1  0  0  0  0  0  0  0  0  0
    2.2590   11.3720   -0.3660 C   0  0  0  0  0  0  0  0  0  0  0  0
    2.8410   12.8010   -0.2070 C   0  0  0  0  0  0  0  0  0  0  0  0
    1.8570   13.7110   -0.9790 C   0  0  1  0  0  0  0  0  0  0  0  0
    0.6710   13.9480    0.0080 C   0  0  0  0  0  0  0  0  0  0  0  0
    2.4380   15.0580   -1.5170 C   0  0  2  0  0  0  0  0  0  0  0  0
    2.9410   16.0300   -0.4350 C   0  0  0  0  0  0  0  0  0  0  0  0
    1.9240   16.9970    0.0750 C   0  0  0  0  0  0  0  0  0  0  0  0
    0.7450   17.2750   -0.5120 C   0  0  0  0  0  0  0  0  0  0  0  0
    0.3760   16.6600   -1.8680 C   0  0  1  0  0  0  0  0  0  0  0  0
   -0.1900   17.7630   -2.8000 C   0  0  0  0  0  0  0  0  0  0  0  0
   -1.3530   18.5220   -2.1680 C   0  0  0  0  0  0  0  0  0  0  0  0
   -0.9310   19.1690   -0.8510 C   0  0  2  0  0  0  0  0  0  0  0  0
    0.0290   20.1940   -1.1280 O   0  0  0  0  0  0  0  0  0  0  0  0
   -0.3350   18.1550    0.1650 C   0  0  0  0  0  0  0  0  0  0  0  0
   -1.4560   17.2270    0.6930 C   0  0  0  0  0  0  0  0  0  0  0  0
    0.1800   18.9560    1.3920 C   0  0  0  0  0  0  0  0  0  0  0  0
    1.5100   15.7920   -2.5670 C   0  0  1  0  0  0  0  0  0  0  0  0
    2.4380   16.7150   -3.4150 C   0  0  0  0  0  0  0  0  0  0  0  0
    0.8390   14.7880   -3.5770 C   0  0  0  0  0  0  0  0  0  0  0  0
    0.3930   13.4260   -3.0110 C   0  0  0  0  0  0  0  0  0  0  0  0
    1.5170   12.7770   -2.1980 C   0  0  2  0  0  0  0  0  0  0  0  0
    2.7160   12.5060   -3.1700 C   0  0  0  0  0  0  0  0  0  0  0  0
   -0.9269   10.5089   -2.9736 H   0  0  0  0  0  0  0  0  0  0  0  0
    0.3225   11.2202   -4.0506 H   0  0  0  0  0  0  0  0  0  0  0  0
    0.0412    9.4461   -4.0506 H   0  0  0  0  0  0  0  0  0  0  0  0
    2.0809   10.0148   -2.8098 H   0  0  0  0  0  0  0  0  0  0  0  0
    0.2124    8.2501   -1.9991 H   0  0  0  0  0  0  0  0  0  0  0  0
    1.7941    8.5459   -1.1305 H   0  0  0  0  0  0  0  0  0  0  0  0
    0.5904    8.8406    0.7131 H   0  0  0  0  0  0  0  0  0  0  0  0
    0.0584   10.4059   -0.0313 H   0  0  0  0  0  0  0  0  0  0  0  0
   -1.1714    8.1828    0.7053 H   0  0  0  0  0  0  0  0  0  0  0  0
   -2.2423   11.7521   -0.0683 H   0  0  0  0  0  0  0  0  0  0  0  0
   -1.4071   11.2235   -1.5682 H   0  0  0  0  0  0  0  0  0  0  0  0
   -3.1874   11.4626   -1.5682 H   0  0  0  0  0  0  0  0  0  0  0  0
   -3.9202    9.3022    0.9825 H   0  0  0  0  0  0  0  0  0  0  0  0
   -4.6219   10.0370   -0.4988 H   0  0  0  0  0  0  0  0  0  0  0  0
   -4.1328    8.3086   -0.4988 H   0  0  0  0  0  0  0  0  0  0  0  0
    0.1387   11.4802   -1.1053 H   0  0  0  0  0  0  0  0  0  0  0  0
    1.8097   11.0384    0.5810 H   0  0  0  0  0  0  0  0  0  0  0  0
    3.0464   10.6524   -0.6348 H   0  0  0  0  0  0  0  0  0  0  0  0
    2.8835   13.0872    0.8543 H   0  0  0  0  0  0  0  0  0  0  0  0
    3.8690   12.8779   -0.5908 H   0  0  0  0  0  0  0  0  0  0  0  0
    1.0354   13.8752    1.0433 H   0  0  0  0  0  0  0  0  0  0  0  0
    0.2469   14.9486   -0.1619 H   0  0  0  0  0  0  0  0  0  0  0  0
   -0.1051   13.1872   -0.1619 H   0  0  0  0  0  0  0  0  0  0  0  0
    3.3345   14.7266   -2.0615 H   0  0  0  0  0  0  0  0  0  0  0  0
    3.3008   15.4341    0.4167 H   0  0  0  0  0  0  0  0  0  0  0  0
    3.7260   16.6361   -0.9109 H   0  0  0  0  0  0  0  0  0  0  0  0
    2.1582   17.5273    1.0099 H   0  0  0  0  0  0  0  0  0  0  0  0
   -0.4028   15.9112   -1.6609 H   0  0  0  0  0  0  0  0  0  0  0  0
    0.6142   18.4775   -3.0298 H   0  0  0  0  0  0  0  0  0  0  0  0
   -0.5664   17.2715   -3.7092 H   0  0  0  0  0  0  0  0  0  0  0  0
   -1.6910   19.3056   -2.8620 H   0  0  0  0  0  0  0  0  0  0  0  0
   -2.1672   17.8109   -1.9648 H   0  0  0  0  0  0  0  0  0  0  0  0
   -1.8346   19.5873   -0.3835 H   0  0  0  0  0  0  0  0  0  0  0  0
   -0.3630   21.0430   -0.8610 H   0  0  0  0  0  0  0  0  0  0  0  0
   -1.4490   17.2328    1.7930 H   0  0  0  0  0  0  0  0  0  0  0  0
   -2.4305   17.5863    0.3306 H   0  0  0  0  0  0  0  0  0  0  0  0
   -1.2850   16.2026    0.3306 H   0  0  0  0  0  0  0  0  0  0  0  0
   -0.1415   18.4559    2.3175 H   0  0  0  0  0  0  0  0  0  0  0  0
    1.2786   19.0039    1.3637 H   0  0  0  0  0  0  0  0  0  0  0  0
   -0.2323   19.9754    1.3637 H   0  0  0  0  0  0  0  0  0  0  0  0
    3.0560   17.3297   -2.7440 H   0  0  0  0  0  0  0  0  0  0  0  0
    3.0896   16.0964   -4.0496 H   0  0  0  0  0  0  0  0  0  0  0  0
    1.8229   17.3700   -4.0496 H   0  0  0  0  0  0  0  0  0  0  0  0
   -0.0505   15.2817   -3.9953 H   0  0  0  0  0  0  0  0  0  0  0  0
    1.6234   14.5513   -4.3109 H   0  0  0  0  0  0  0  0  0  0  0  0
   -0.4817   13.5752   -2.3609 H   0  0  0  0  0  0  0  0  0  0  0  0
    0.1390   12.7627   -3.8510 H   0  0  0  0  0  0  0  0  0  0  0  0
    3.6240   12.3008   -2.5839 H   0  0  0  0  0  0  0  0  0  0  0  0
    2.4848   11.6375   -3.8042 H   0  0  0  0  0  0  0  0  0  0  0  0
    2.8808   13.3895   -3.8042 H   0  0  0  0  0  0  0  0  0  0  0  0
  1  2  1  0
  2  3  1  0
  3  4  1  0
  4  5  1  0
  5  6  1  0
  6  7  1  0
  7  8  1  0
  7  9  1  0
  2 10  1  0
 10 11  1  0
 11 12  1  0
 12 13  1  0
 13 14  1  1
 13 15  1  0
 15 16  1  0
 16 17  1  0
 17 18  2  0
 18 19  1  0
 19 20  1  0
 20 21  1  0
 21 22  1  0
 22 23  1  0
 22 24  1  0
 24 25  1  0
 24 26  1  0
 19 27  1  0
 27 28  1  6
 27 29  1  0
 29 30  1  0
 30 31  1  0
 31 32  1  6
  7  5  1  0
 31 10  1  0
 31 13  1  0
 27 15  1  0
 24 18  1  0
  1 33  1  0
  1 34  1  0
  1 35  1  0
  2 36  1  6
  3 37  1  0
  3 38  1  0
  4 39  1  0
  4 40  1  0
  5 41  1  1
  8 42  1  0
  8 43  1  0
  8 44  1  0
  9 45  1  0
  9 46  1  0
  9 47  1  0
 10 48  1  1
 11 49  1  0
 11 50  1  0
 12 51  1  0
 12 52  1  0
 14 53  1  0
 14 54  1  0
 14 55  1  0
 15 56  1  6
 16 57  1  0
 16 58  1  0
 17 59  1  0
 19 60  1  1
 20 61  1  0
 20 62  1  0
 21 63  1  0
 21 64  1  0
 22 65  1  1
 23 66  1  0
 25 67  1  0
 25 68  1  0
 25 69  1  0
 26 70  1  0
 26 71  1  0
 26 72  1  0
 28 73  1  0
 28 74  1  0
 28 75  1  0
 29 76  1  0
 29 77  1  0
 30 78  1  0
 30 79  1  0
 32 80  1  0
 32 81  1  0
 32 82  1  0
M  END
>  <meeko>  (6) 
{"is_sidechain": [false], "intermolecular_energy": 2.731, "internal_energy": -0.839}

$$$$
EPH_relaxed_0001_pdb2pqr_Repair_288_r2_0001_out
     RDKit          3D

 82 86  0  0  0  0  0  0  0  0999 V2000
   -1.0890   16.6610   -6.0610 C   0  0  0  0  0  0  0  0  0  0  0  0
    0.0570   15.9620   -6.7980 C   0  0  2  0  0  0  0  0  0  0  0  0
   -0.2780   15.7010   -8.2800 C   0  0  0  0  0  0  0  0  0  0  0  0
    0.4320   16.6510   -9.2490 C   0  0  0  0  0  0  0  0  0  0  0  0
    1.8240   16.1890   -9.5570 C   0  0  2  0  0  0  0  0  0  0  0  0
    2.3540   16.6740  -10.7980 O   0  0  0  0  0  0  0  0  0  0  0  0
    2.1600   15.2530  -10.7030 C   0  0  0  0  0  0  0  0  0  0  0  0
    1.0980   14.7220  -11.6140 C   0  0  0  0  0  0  0  0  0  0  0  0
    3.4360   14.4730  -10.6390 C   0  0  0  0  0  0  0  0  0  0  0  0
    0.3990   14.6500   -6.1020 C   0  0  1  0  0  0  0  0  0  0  0  0
    1.5320   13.8700   -6.8210 C   0  0  0  0  0  0  0  0  0  0  0  0
    2.3590   13.1640   -5.7170 C   0  0  0  0  0  0  0  0  0  0  0  0
    1.4920   13.2850   -4.4410 C   0  0  1  0  0  0  0  0  0  0  0  0
    0.4400   12.1390   -4.5610 C   0  0  0  0  0  0  0  0  0  0  0  0
    2.2560   13.2270   -3.0780 C   0  0  2  0  0  0  0  0  0  0  0  0
    2.9950   11.9060   -2.8000 C   0  0  0  0  0  0  0  0  0  0  0  0
    2.1990   10.8710   -2.0770 C   0  0  0  0  0  0  0  0  0  0  0  0
    1.0450   11.0900   -1.4180 C   0  0  0  0  0  0  0  0  0  0  0  0
    0.4790   12.5080   -1.2720 C   0  0  1  0  0  0  0  0  0  0  0  0
    0.0440   12.7430    0.1990 C   0  0  0  0  0  0  0  0  0  0  0  0
   -0.9220   11.6740    0.7010 C   0  0  0  0  0  0  0  0  0  0  0  0
   -0.3010   10.2830    0.5930 C   0  0  2  0  0  0  0  0  0  0  0  0
    0.7970   10.1980    1.5060 O   0  0  0  0  0  0  0  0  0  0  0  0
    0.1840    9.9380   -0.8420 C   0  0  0  0  0  0  0  0  0  0  0  0
   -1.0390    9.7350   -1.7710 C   0  0  0  0  0  0  0  0  0  0  0  0
    0.9160    8.5710   -0.7830 C   0  0  0  0  0  0  0  0  0  0  0  0
    1.3930   13.6810   -1.8320 C   0  0  1  0  0  0  0  0  0  0  0  0
    2.4020   14.1400   -0.7350 C   0  0  0  0  0  0  0  0  0  0  0  0
    0.4880   14.9290   -2.1530 C   0  0  0  0  0  0  0  0  0  0  0  0
   -0.1410   14.9880   -3.5580 C   0  0  0  0  0  0  0  0  0  0  0  0
    0.9110   14.7320   -4.6420 C   0  0  2  0  0  0  0  0  0  0  0  0
    1.9710   15.8820   -4.5600 C   0  0  0  0  0  0  0  0  0  0  0  0
   -0.9373   16.5685   -4.9755 H   0  0  0  0  0  0  0  0  0  0  0  0
   -1.1088   17.7251   -6.3391 H   0  0  0  0  0  0  0  0  0  0  0  0
   -2.0441   16.1916   -6.3391 H   0  0  0  0  0  0  0  0  0  0  0  0
    0.9266   16.6351   -6.7706 H   0  0  0  0  0  0  0  0  0  0  0  0
    0.0166   14.6702   -8.5261 H   0  0  0  0  0  0  0  0  0  0  0  0
   -1.3585   15.8690   -8.3994 H   0  0  0  0  0  0  0  0  0  0  0  0
   -0.1428   16.7002  -10.1856 H   0  0  0  0  0  0  0  0  0  0  0  0
    0.4962   17.6410   -8.7738 H   0  0  0  0  0  0  0  0  0  0  0  0
    2.0793   16.1666   -8.4873 H   0  0  0  0  0  0  0  0  0  0  0  0
    0.2732   14.3096  -11.0144 H   0  0  0  0  0  0  0  0  0  0  0  0
    0.7185   15.5364  -12.2486 H   0  0  0  0  0  0  0  0  0  0  0  0
    1.5218   13.9297  -12.2486 H   0  0  0  0  0  0  0  0  0  0  0  0
    3.7107   14.3051   -9.5872 H   0  0  0  0  0  0  0  0  0  0  0  0
    3.2990   13.5041  -11.1414 H   0  0  0  0  0  0  0  0  0  0  0  0
    4.2359   15.0367  -11.1414 H   0  0  0  0  0  0  0  0  0  0  0  0
   -0.5878   14.1646   -6.1285 H   0  0  0  0  0  0  0  0  0  0  0  0
    1.1027   13.1253   -7.5073 H   0  0  0  0  0  0  0  0  0  0  0  0
    2.1630   14.5478   -7.4146 H   0  0  0  0  0  0  0  0  0  0  0  0
    2.5269   12.1076   -5.9735 H   0  0  0  0  0  0  0  0  0  0  0  0
    3.3541   13.6149   -5.5891 H   0  0  0  0  0  0  0  0  0  0  0  0
    0.1388   11.8109   -3.5552 H   0  0  0  0  0  0  0  0  0  0  0  0
   -0.4419   12.5064   -5.1062 H   0  0  0  0  0  0  0  0  0  0  0  0
    0.8814   11.2917   -5.1062 H   0  0  0  0  0  0  0  0  0  0  0  0
    3.0415   13.9848   -3.2148 H   0  0  0  0  0  0  0  0  0  0  0  0
    3.3076   11.4815   -3.7655 H   0  0  0  0  0  0  0  0  0  0  0  0
    3.8360   12.1608   -2.1383 H   0  0  0  0  0  0  0  0  0  0  0  0
    2.5878    9.8420   -2.0829 H   0  0  0  0  0  0  0  0  0  0  0  0
   -0.3987   12.5541   -1.9334 H   0  0  0  0  0  0  0  0  0  0  0  0
    0.9400   12.7363    0.8371 H   0  0  0  0  0  0  0  0  0  0  0  0
   -0.4768   13.7109    0.2428 H   0  0  0  0  0  0  0  0  0  0  0  0
   -1.1687   11.8774    1.7535 H   0  0  0  0  0  0  0  0  0  0  0  0
   -1.8300   11.7022    0.0807 H   0  0  0  0  0  0  0  0  0  0  0  0
   -1.0835    9.5513    0.8427 H   0  0  0  0  0  0  0  0  0  0  0  0
    1.2180    9.3300    1.3800 H   0  0  0  0  0  0  0  0  0  0  0  0
   -1.9420    9.5851   -1.1609 H   0  0  0  0  0  0  0  0  0  0  0  0
   -1.1688   10.6239   -2.4058 H   0  0  0  0  0  0  0  0  0  0  0  0
   -0.8746    8.8518   -2.4058 H   0  0  0  0  0  0  0  0  0  0  0  0
    1.0703    8.2828    0.2673 H   0  0  0  0  0  0  0  0  0  0  0  0
    0.3065    7.8066   -1.2872 H   0  0  0  0  0  0  0  0  0  0  0  0
    1.8900    8.6546   -1.2872 H   0  0  0  0  0  0  0  0  0  0  0  0
    1.9752   13.9458    0.2601 H   0  0  0  0  0  0  0  0  0  0  0  0
    3.3431   13.5814   -0.8457 H   0  0  0  0  0  0  0  0  0  0  0  0
    2.5993   15.2165   -0.8457 H   0  0  0  0  0  0  0  0  0  0  0  0
   -0.3324   14.9424   -1.4203 H   0  0  0  0  0  0  0  0  0  0  0  0
    1.1643   15.7952   -2.1038 H   0  0  0  0  0  0  0  0  0  0  0  0
   -0.9276   14.2227   -3.6323 H   0  0  0  0  0  0  0  0  0  0  0  0
   -0.5641   15.9918   -3.7105 H   0  0  0  0  0  0  0  0  0  0  0  0
    2.1824   16.1113   -3.5051 H   0  0  0  0  0  0  0  0  0  0  0  0
    2.8980   15.5625   -5.0586 H   0  0  0  0  0  0  0  0  0  0  0  0
    1.5772   16.7799   -5.0586 H   0  0  0  0  0  0  0  0  0  0  0  0
  1  2  1  0
  2  3  1  0
  3  4  1  0
  4  5  1  0
  5  6  1  0
  6  7  1  0
  7  8  1  0
  7  9  1  0
  2 10  1  0
 10 11  1  0
 11 12  1  0
 12 13  1  0
 13 14  1  1
 13 15  1  0
 15 16  1  0
 16 17  1  0
 17 18  2  0
 18 19  1  0
 19 20  1  0
 20 21  1  0
 21 22  1  0
 22 23  1  0
 22 24  1  0
 24 25  1  0
 24 26  1  0
 19 27  1  0
 27 28  1  1
 27 29  1  0
 29 30  1  0
 30 31  1  0
 31 32  1  6
  7  5  1  0
 31 10  1  0
 31 13  1  0
 27 15  1  0
 24 18  1  0
  1 33  1  0
  1 34  1  0
  1 35  1  0
  2 36  1  6
  3 37  1  0
  3 38  1  0
  4 39  1  0
  4 40  1  0
  5 41  1  1
  8 42  1  0
  8 43  1  0
  8 44  1  0
  9 45  1  0
  9 46  1  0
  9 47  1  0
 10 48  1  1
 11 49  1  0
 11 50  1  0
 12 51  1  0
 12 52  1  0
 14 53  1  0
 14 54  1  0
 14 55  1  0
 15 56  1  6
 16 57  1  0
 16 58  1  0
 17 59  1  0
 19 60  1  6
 20 61  1  0
 20 62  1  0
 21 63  1  0
 21 64  1  0
 22 65  1  1
 23 66  1  0
 25 67  1  0
 25 68  1  0
 25 69  1  0
 26 70  1  0
 26 71  1  0
 26 72  1  0
 28 73  1  0
 28 74  1  0
 28 75  1  0
 29 76  1  0
 29 77  1  0
 30 78  1  0
 30 79  1  0
 32 80  1  0
 32 81  1  0
 32 82  1  0
M  END
>  <meeko>  (7) 
{"is_sidechain": [false], "intermolecular_energy": 2.731, "internal_energy": -0.839}

$$$$
EPH_relaxed_0001_pdb2pqr_Repair_288_r2_0001_out
     RDKit          3D

 82 86  0  0  0  0  0  0  0  0999 V2000
    0.4500    8.8400   -2.4070 C   0  0  0  0  0  0  0  0  0  0  0  0
    1.1980    9.9870   -3.0920 C   0  0  2  0  0  0  0  0  0  0  0  0
    2.6960   10.0040   -2.7270 C   0  0  0  0  0  0  0  0  0  0  0  0
    3.5880   10.6080   -3.8140 C   0  0  0  0  0  0  0  0  0  0  0  0
    4.9870   10.8300   -3.3230 C   0  0  2  0  0  0  0  0  0  0  0  0
    5.5910   12.0500   -3.7710 O   0  0  0  0  0  0  0  0  0  0  0  0
    6.2020   10.8340   -4.2320 C   0  0  0  0  0  0  0  0  0  0  0  0
    6.0740   10.6100   -5.7070 C   0  0  0  0  0  0  0  0  0  0  0  0
    7.5460   10.5690   -3.6310 C   0  0  0  0  0  0  0  0  0  0  0  0
    0.5570   11.3200   -2.7230 C   0  0  1  0  0  0  0  0  0  0  0  0
   -0.8150   11.1480   -2.0180 C   0  0  0  0  0  0  0  0  0  0  0  0
   -0.9270   12.2890   -0.9740 C   0  0  0  0  0  0  0  0  0  0  0  0
    0.2170   13.2640   -1.3380 C   0  0  1  0  0  0  0  0  0  0  0  0
   -0.3430   14.1180   -2.5180 C   0  0  0  0  0  0  0  0  0  0  0  0
    0.7520   14.1650   -0.1770 C   0  0  2  0  0  0  0  0  0  0  0  0
   -0.2770   15.1390    0.4210 C   0  0  0  0  0  0  0  0  0  0  0  0
   -0.3300   16.4850   -0.2230 C   0  0  0  0  0  0  0  0  0  0  0  0
    0.6050   16.9960   -1.0460 C   0  0  0  0  0  0  0  0  0  0  0  0
    1.9070   16.2350   -1.3280 C   0  0  1  0  0  0  0  0  0  0  0  0
    3.1100   17.2060   -1.2070 C   0  0  0  0  0  0  0  0  0  0  0  0
    2.9550   18.4420   -2.0880 C   0  0  0  0  0  0  0  0  0  0  0  0
    1.6790   19.2040   -1.7390 C   0  0  2  0  0  0  0  0  0  0  0  0
    1.8120   19.7460   -0.4210 O   0  0  0  0  0  0  0  0  0  0  0  0
    0.4000   18.3240   -1.8150 C   0  0  0  0  0  0  0  0  0  0  0  0
    0.0890   17.9860   -3.2940 C   0  0  0  0  0  0  0  0  0  0  0  0
   -0.7950   19.1730   -1.3040 C   0  0  0  0  0  0  0  0  0  0  0  0
    2.1190   14.8940   -0.5000 C   0  0  1  0  0  0  0  0  0  0  0  0
    2.7870   15.2160    0.8710 C   0  0  0  0  0  0  0  0  0  0  0  0
    3.1240   13.9650   -1.2770 C   0  0  0  0  0  0  0  0  0  0  0  0
    2.5210   13.0120   -2.3270 C   0  0  0  0  0  0  0  0  0  0  0  0
    1.3350   12.2370   -1.7460 C   0  0  2  0  0  0  0  0  0  0  0  0
    1.8720   11.3510   -0.5700 C   0  0  0  0  0  0  0  0  0  0  0  0
    0.5243    8.9540   -1.3154 H   0  0  0  0  0  0  0  0  0  0  0  0
   -0.6082    8.8616   -2.7067 H   0  0  0  0  0  0  0  0  0  0  0  0
    0.8965    7.8804   -2.7067 H   0  0  0  0  0  0  0  0  0  0  0  0
    1.1247    9.8272   -4.1779 H   0  0  0  0  0  0  0  0  0  0  0  0
    2.8224   10.5935   -1.8069 H   0  0  0  0  0  0  0  0  0  0  0  0
    3.0077    8.9566   -2.6010 H   0  0  0  0  0  0  0  0  0  0  0  0
    3.6165    9.9223   -4.6736 H   0  0  0  0  0  0  0  0  0  0  0  0
    3.1666   11.5826   -4.1012 H   0  0  0  0  0  0  0  0  0  0  0  0
    4.7685   10.2964   -2.3862 H   0  0  0  0  0  0  0  0  0  0  0  0
    5.5358    9.6682   -5.8895 H   0  0  0  0  0  0  0  0  0  0  0  0
    5.5163   11.4442   -6.1575 H   0  0  0  0  0  0  0  0  0  0  0  0
    7.0759   10.5530   -6.1575 H   0  0  0  0  0  0  0  0  0  0  0  0
    7.4666   10.5846   -2.5340 H   0  0  0  0  0  0  0  0  0  0  0  0
    7.9061    9.5826   -3.9585 H   0  0  0  0  0  0  0  0  0  0  0  0
    8.2536   11.3449   -3.9585 H   0  0  0  0  0  0  0  0  0  0  0  0
    0.5113   11.7849   -3.7189 H   0  0  0  0  0  0  0  0  0  0  0  0
   -1.6305   11.2248   -2.7522 H   0  0  0  0  0  0  0  0  0  0  0  0
   -0.8907   10.1623   -1.5357 H   0  0  0  0  0  0  0  0  0  0  0  0
   -1.9033   12.7902   -1.0496 H   0  0  0  0  0  0  0  0  0  0  0  0
   -0.8471   11.9189    0.0588 H   0  0  0  0  0  0  0  0  0  0  0  0
   -0.9046   14.9744   -2.1166 H   0  0  0  0  0  0  0  0  0  0  0  0
    0.4915   14.4833   -3.1346 H   0  0  0  0  0  0  0  0  0  0  0  0
   -1.0106   13.4983   -3.1346 H   0  0  0  0  0  0  0  0  0  0  0  0
    0.9611   13.4301    0.6143 H   0  0  0  0  0  0  0  0  0  0  0  0
   -1.2724   14.6796    0.3308 H   0  0  0  0  0  0  0  0  0  0  0  0
    0.0358   15.3114    1.4614 H   0  0  0  0  0  0  0  0  0  0  0  0
   -1.2073   17.1123   -0.0067 H   0  0  0  0  0  0  0  0  0  0  0  0
    1.8272   15.8667   -2.3614 H   0  0  0  0  0  0  0  0  0  0  0  0
    3.1987   17.5287   -0.1591 H   0  0  0  0  0  0  0  0  0  0  0  0
    4.0088   16.6676   -1.5422 H   0  0  0  0  0  0  0  0  0  0  0  0
    3.8215   19.1026   -1.9372 H   0  0  0  0  0  0  0  0  0  0  0  0
    2.8954   18.1196   -3.1380 H   0  0  0  0  0  0  0  0  0  0  0  0
    1.5560   20.0017   -2.4864 H   0  0  0  0  0  0  0  0  0  0  0  0
    1.7980   20.7150   -0.4990 H   0  0  0  0  0  0  0  0  0  0  0  0
   -0.6553   17.1771   -3.3366 H   0  0  0  0  0  0  0  0  0  0  0  0
   -0.3103   18.8785   -3.7980 H   0  0  0  0  0  0  0  0  0  0  0  0
    1.0116   17.6623   -3.7980 H   0  0  0  0  0  0  0  0  0  0  0  0
   -0.7990   19.1758   -0.2040 H   0  0  0  0  0  0  0  0  0  0  0  0
   -0.6962   20.2046   -1.6730 H   0  0  0  0  0  0  0  0  0  0  0  0
   -1.7366   18.7402   -1.6730 H   0  0  0  0  0  0  0  0  0  0  0  0
    2.1224   14.8956    1.6869 H   0  0  0  0  0  0  0  0  0  0  0  0
    3.7450   14.6807    0.9468 H   0  0  0  0  0  0  0  0  0  0  0  0
    2.9650   16.2989    0.9468 H   0  0  0  0  0  0  0  0  0  0  0  0
    3.8461   14.6146   -1.7933 H   0  0  0  0  0  0  0  0  0  0  0  0
    3.5601   13.3083   -0.5098 H   0  0  0  0  0  0  0  0  0  0  0  0
    2.1783   13.5994   -3.1916 H   0  0  0  0  0  0  0  0  0  0  0  0
    3.2945   12.2923   -2.6331 H   0  0  0  0  0  0  0  0  0  0  0  0
    1.5943   11.8092    0.3907 H   0  0  0  0  0  0  0  0  0  0  0  0
    1.4312   10.3454   -0.6377 H   0  0  0  0  0  0  0  0  0  0  0  0
    2.9674   11.2765   -0.6377 H   0  0  0  0  0  0  0  0  0  0  0  0
  1  2  1  0
  2  3  1  0
  3  4  1  0
  4  5  1  0
  5  6  1  0
  6  7  1  0
  7  8  1  0
  7  9  1  0
  2 10  1  0
 10 11  1  0
 11 12  1  0
 12 13  1  0
 13 14  1  6
 13 15  1  0
 15 16  1  0
 16 17  1  0
 17 18  2  0
 18 19  1  0
 19 20  1  0
 20 21  1  0
 21 22  1  0
 22 23  1  0
 22 24  1  0
 24 25  1  0
 24 26  1  0
 19 27  1  0
 27 28  1  1
 27 29  1  0
 29 30  1  0
 30 31  1  0
 31 32  1  1
  7  5  1  0
 31 10  1  0
 31 13  1  0
 27 15  1  0
 24 18  1  0
  1 33  1  0
  1 34  1  0
  1 35  1  0
  2 36  1  6
  3 37  1  0
  3 38  1  0
  4 39  1  0
  4 40  1  0
  5 41  1  1
  8 42  1  0
  8 43  1  0
  8 44  1  0
  9 45  1  0
  9 46  1  0
  9 47  1  0
 10 48  1  6
 11 49  1  0
 11 50  1  0
 12 51  1  0
 12 52  1  0
 14 53  1  0
 14 54  1  0
 14 55  1  0
 15 56  1  1
 16 57  1  0
 16 58  1  0
 17 59  1  0
 19 60  1  6
 20 61  1  0
 20 62  1  0
 21 63  1  0
 21 64  1  0
 22 65  1  6
 23 66  1  0
 25 67  1  0
 25 68  1  0
 25 69  1  0
 26 70  1  0
 26 71  1  0
 26 72  1  0
 28 73  1  0
 28 74  1  0
 28 75  1  0
 29 76  1  0
 29 77  1  0
 30 78  1  0
 30 79  1  0
 32 80  1  0
 32 81  1  0
 32 82  1  0
M  END
>  <meeko>  (8) 
{"is_sidechain": [false], "intermolecular_energy": 2.731, "internal_energy": -0.839}

$$$$
EPH_relaxed_0001_pdb2pqr_Repair_288_r2_0001_out
     RDKit          3D

 82 86  0  0  0  0  0  0  0  0999 V2000
    2.2990   17.4140   -7.0910 C   0  0  0  0  0  0  0  0  0  0  0  0
    1.4160   16.1630   -7.1050 C   0  0  2  0  0  0  0  0  0  0  0  0
    0.1360   16.3650   -7.9410 C   0  0  0  0  0  0  0  0  0  0  0  0
    0.3250   16.0850   -9.4340 C   0  0  0  0  0  0  0  0  0  0  0  0
    1.7550   15.7810   -9.7640 C   0  0  2  0  0  0  0  0  0  0  0  0
    2.2650   16.4730  -10.9120 O   0  0  0  0  0  0  0  0  0  0  0  0
    2.1860   15.0420  -11.0180 C   0  0  0  0  0  0  0  0  0  0  0  0
    1.1860   14.5610  -12.0220 C   0  0  0  0  0  0  0  0  0  0  0  0
    3.5200   14.3640  -11.0250 C   0  0  0  0  0  0  0  0  0  0  0  0
    1.0500   15.7680   -5.6790 C   0  0  1  0  0  0  0  0  0  0  0  0
   -0.3060   16.3690   -5.2220 C   0  0  0  0  0  0  0  0  0  0  0  0
   -0.9710   15.3180   -4.2970 C   0  0  0  0  0  0  0  0  0  0  0  0
    0.1540   14.3040   -3.9850 C   0  0  1  0  0  0  0  0  0  0  0  0
    0.9870   14.9670   -2.8440 C   0  0  0  0  0  0  0  0  0  0  0  0
   -0.3040   12.8600   -3.6010 C   0  0  2  0  0  0  0  0  0  0  0  0
   -1.1440   12.7620   -2.3150 C   0  0  0  0  0  0  0  0  0  0  0  0
   -0.3650   12.5460   -1.0600 C   0  0  0  0  0  0  0  0  0  0  0  0
    0.9210   12.1520   -0.9950 C   0  0  0  0  0  0  0  0  0  0  0  0
    1.6970   11.7860   -2.2660 C   0  0  1  0  0  0  0  0  0  0  0  0
    2.4620   10.4550   -2.0410 C   0  0  0  0  0  0  0  0  0  0  0  0
    3.3540   10.4960   -0.8030 C   0  0  0  0  0  0  0  0  0  0  0  0
    2.5370   10.8060    0.4480 C   0  0  2  0  0  0  0  0  0  0  0  0
    1.6560    9.7080    0.7060 O   0  0  0  0  0  0  0  0  0  0  0  0
    1.7150   12.1200    0.3340 C   0  0  0  0  0  0  0  0  0  0  0  0
    2.6740   13.3360    0.3570 C   0  0  0  0  0  0  0  0  0  0  0  0
    0.8290   12.2410    1.6030 C   0  0  0  0  0  0  0  0  0  0  0  0
    0.8580   11.7860   -3.6160 C   0  0  1  0  0  0  0  0  0  0  0  0
    0.1780   10.3970   -3.8190 C   0  0  0  0  0  0  0  0  0  0  0  0
    1.8390   11.9820   -4.8320 C   0  0  0  0  0  0  0  0  0  0  0  0
    2.1590   13.4330   -5.2390 C   0  0  0  0  0  0  0  0  0  0  0  0
    0.8760   14.2580   -5.3810 C   0  0  2  0  0  0  0  0  0  0  0  0
    0.0270   13.6280   -6.5380 C   0  0  0  0  0  0  0  0  0  0  0  0
    2.5050   17.7058   -6.0506 H   0  0  0  0  0  0  0  0  0  0  0  0
    3.2469   17.1995   -7.6062 H   0  0  0  0  0  0  0  0  0  0  0  0
    1.7794   18.2353   -7.6062 H   0  0  0  0  0  0  0  0  0  0  0  0
    1.9947   15.3553   -7.5770 H   0  0  0  0  0  0  0  0  0  0  0  0
   -0.6405   15.6875   -7.5563 H   0  0  0  0  0  0  0  0  0  0  0  0
   -0.1460   17.4240   -7.8459 H   0  0  0  0  0  0  0  0  0  0  0  0
   -0.2971   15.2230   -9.7166 H   0  0  0  0  0  0  0  0  0  0  0  0
    0.0280   16.9852   -9.9921 H   0  0  0  0  0  0  0  0  0  0  0  0
    1.9929   15.6309   -8.7006 H   0  0  0  0  0  0  0  0  0  0  0  0
    0.3139   14.1415  -11.4990 H   0  0  0  0  0  0  0  0  0  0  0  0
    0.8652   15.4033  -12.6525 H   0  0  0  0  0  0  0  0  0  0  0  0
    1.6438   13.7846  -12.6525 H   0  0  0  0  0  0  0  0  0  0  0  0
    3.8512   14.1957   -9.9896 H   0  0  0  0  0  0  0  0  0  0  0  0
    3.4378   13.3983  -11.5453 H   0  0  0  0  0  0  0  0  0  0  0  0
    4.2516   14.9996  -11.5453 H   0  0  0  0  0  0  0  0  0  0  0  0
    1.9319   16.1564   -5.1485 H   0  0  0  0  0  0  0  0  0  0  0  0
   -0.1387   17.3065   -4.6715 H   0  0  0  0  0  0  0  0  0  0  0  0
   -0.9479   16.5981   -6.0854 H   0  0  0  0  0  0  0  0  0  0  0  0
   -1.3356   15.7898   -3.3726 H   0  0  0  0  0  0  0  0  0  0  0  0
   -1.8432   14.8410   -4.7678 H   0  0  0  0  0  0  0  0  0  0  0  0
    0.5894   14.6506   -1.8684 H   0  0  0  0  0  0  0  0  0  0  0  0
    2.0387   14.6562   -2.9297 H   0  0  0  0  0  0  0  0  0  0  0  0
    0.9200   16.0616   -2.9297 H   0  0  0  0  0  0  0  0  0  0  0  0
   -0.9870   12.6025   -4.4239 H   0  0  0  0  0  0  0  0  0  0  0  0
   -1.7104   13.6988   -2.2066 H   0  0  0  0  0  0  0  0  0  0  0  0
   -1.7813   11.8735   -2.4345 H   0  0  0  0  0  0  0  0  0  0  0  0
   -0.8857   12.7238   -0.1075 H   0  0  0  0  0  0  0  0  0  0  0  0
    2.4125   12.6051   -2.4307 H   0  0  0  0  0  0  0  0  0  0  0  0
    1.7297    9.6430   -1.9215 H   0  0  0  0  0  0  0  0  0  0  0  0
    3.1098   10.2898   -2.9146 H   0  0  0  0  0  0  0  0  0  0  0  0
    3.8441    9.5189   -0.6799 H   0  0  0  0  0  0  0  0  0  0  0  0
    4.1047   11.2887   -0.9373 H   0  0  0  0  0  0  0  0  0  0  0  0
    3.2453   10.9512    1.2770 H   0  0  0  0  0  0  0  0  0  0  0  0
    2.1670    9.0230    1.1690 H   0  0  0  0  0  0  0  0  0  0  0  0
    2.8915   13.6118    1.3994 H   0  0  0  0  0  0  0  0  0  0  0  0
    3.6110   13.0737   -0.1560 H   0  0  0  0  0  0  0  0  0  0  0  0
    2.2006   14.1861   -0.1560 H   0  0  0  0  0  0  0  0  0  0  0  0
    1.4597   12.1549    2.5001 H   0  0  0  0  0  0  0  0  0  0  0  0
    0.3213   13.2168    1.6040 H   0  0  0  0  0  0  0  0  0  0  0  0
    0.0782   11.4371    1.6040 H   0  0  0  0  0  0  0  0  0  0  0  0
   -0.0412    9.9493   -2.8384 H   0  0  0  0  0  0  0  0  0  0  0  0
   -0.7588   10.5260   -4.3809 H   0  0  0  0  0  0  0  0  0  0  0  0
    0.8545    9.7362   -4.3809 H   0  0  0  0  0  0  0  0  0  0  0  0
    2.7893   11.4910   -4.5755 H   0  0  0  0  0  0  0  0  0  0  0  0
    1.3154   11.5490   -5.6971 H   0  0  0  0  0  0  0  0  0  0  0  0
    2.7976   13.8903   -4.4689 H   0  0  0  0  0  0  0  0  0  0  0  0
    2.6765   13.4192   -6.2096 H   0  0  0  0  0  0  0  0  0  0  0  0
   -0.7864   13.0244   -6.1091 H   0  0  0  0  0  0  0  0  0  0  0  0
   -0.3994   14.4300   -7.1585 H   0  0  0  0  0  0  0  0  0  0  0  0
    0.6710   12.9875   -7.1585 H   0  0  0  0  0  0  0  0  0  0  0  0
  1  2  1  0
  2  3  1  0
  3  4  1  0
  4  5  1  0
  5  6  1  0
  6  7  1  0
  7  8  1  0
  7  9  1  0
  2 10  1  0
 10 11  1  0
 11 12  1  0
 12 13  1  0
 13 14  1  1
 13 15  1  0
 15 16  1  0
 16 17  1  0
 17 18  2  0
 18 19  1  0
 19 20  1  0
 20 21  1  0
 21 22  1  0
 22 23  1  0
 22 24  1  0
 24 25  1  0
 24 26  1  0
 19 27  1  0
 27 28  1  6
 27 29  1  0
 29 30  1  0
 30 31  1  0
 31 32  1  6
  7  5  1  0
 31 10  1  0
 31 13  1  0
 27 15  1  0
 24 18  1  0
  1 33  1  0
  1 34  1  0
  1 35  1  0
  2 36  1  6
  3 37  1  0
  3 38  1  0
  4 39  1  0
  4 40  1  0
  5 41  1  1
  8 42  1  0
  8 43  1  0
  8 44  1  0
  9 45  1  0
  9 46  1  0
  9 47  1  0
 10 48  1  1
 11 49  1  0
 11 50  1  0
 12 51  1  0
 12 52  1  0
 14 53  1  0
 14 54  1  0
 14 55  1  0
 15 56  1  6
 16 57  1  0
 16 58  1  0
 17 59  1  0
 19 60  1  6
 20 61  1  0
 20 62  1  0
 21 63  1  0
 21 64  1  0
 22 65  1  1
 23 66  1  0
 25 67  1  0
 25 68  1  0
 25 69  1  0
 26 70  1  0
 26 71  1  0
 26 72  1  0
 28 73  1  0
 28 74  1  0
 28 75  1  0
 29 76  1  0
 29 77  1  0
 30 78  1  0
 30 79  1  0
 32 80  1  0
 32 81  1  0
 32 82  1  0
M  END
>  <meeko>  (9) 
{"is_sidechain": [false], "intermolecular_energy": 2.731, "internal_energy": -0.839}

$$$$
EPH_relaxed_0001_pdb2pqr_Repair_288_r2_0001_out
     RDKit          3D

 82 86  0  0  0  0  0  0  0  0999 V2000
   -3.7290    7.2070   -3.3720 C   0  0  0  0  0  0  0  0  0  0  0  0
   -3.7510    7.2930   -1.8430 C   0  0  2  0  0  0  0  0  0  0  0  0
   -5.1670    7.0790   -1.2700 C   0  0  0  0  0  0  0  0  0  0  0  0
   -6.2810    7.2340   -2.3090 C   0  0  0  0  0  0  0  0  0  0  0  0
   -7.6130    7.4640   -1.6620 C   0  0  2  0  0  0  0  0  0  0  0  0
   -8.2270    6.2870   -1.1190 O   0  0  0  0  0  0  0  0  0  0  0  0
   -8.9170    6.9150   -2.2120 C   0  0  0  0  0  0  0  0  0  0  0  0
   -8.9510    6.0930   -3.4620 C   0  0  0  0  0  0  0  0  0  0  0  0
  -10.1980    7.5790   -1.8140 C   0  0  0  0  0  0  0  0  0  0  0  0
   -3.2050    8.6420   -1.3910 C   0  0  1  0  0  0  0  0  0  0  0  0
   -3.8090    9.1080   -0.0390 C   0  0  0  0  0  0  0  0  0  0  0  0
   -2.6860    9.8670    0.7140 C   0  0  0  0  0  0  0  0  0  0  0  0
   -1.5900   10.1000   -0.3510 C   0  0  1  0  0  0  0  0  0  0  0  0
   -2.0700   11.3510   -1.1530 C   0  0  0  0  0  0  0  0  0  0  0  0
   -0.1330   10.2830    0.1850 C   0  0  2  0  0  0  0  0  0  0  0  0
    0.0800   11.5080    1.0910 C   0  0  0  0  0  0  0  0  0  0  0  0
    0.4830   12.7600    0.3850 C   0  0  0  0  0  0  0  0  0  0  0  0
    0.9420   12.8330   -0.8780 C   0  0  0  0  0  0  0  0  0  0  0  0
    1.1880   11.5620   -1.7010 C   0  0  1  0  0  0  0  0  0  0  0  0
    2.5710   11.6560   -2.3980 C   0  0  0  0  0  0  0  0  0  0  0  0
    2.7230   12.9270   -3.2280 C   0  0  0  0  0  0  0  0  0  0  0  0
    2.5290   14.1700   -2.3630 C   0  0  2  0  0  0  0  0  0  0  0  0
    3.6070   14.2510   -1.4250 O   0  0  0  0  0  0  0  0  0  0  0  0
    1.1730   14.1820   -1.6030 C   0  0  0  0  0  0  0  0  0  0  0  0
    0.0150   14.3980   -2.6080 C   0  0  0  0  0  0  0  0  0  0  0  0
    1.1650   15.4160   -0.6600 C   0  0  0  0  0  0  0  0  0  0  0  0
    0.9850   10.1870   -0.9310 C   0  0  1  0  0  0  0  0  0  0  0  0
    2.3050    9.7840   -0.2050 C   0  0  0  0  0  0  0  0  0  0  0  0
    0.6890    9.0500   -1.9780 C   0  0  0  0  0  0  0  0  0  0  0  0
   -0.7840    8.8390   -2.3780 C   0  0  0  0  0  0  0  0  0  0  0  0
   -1.6790    8.7430   -1.1390 C   0  0  2  0  0  0  0  0  0  0  0  0
   -1.2350    7.4810   -0.3240 C   0  0  0  0  0  0  0  0  0  0  0  0
   -3.4671    6.1834   -3.6779 H   0  0  0  0  0  0  0  0  0  0  0  0
   -4.7222    7.4653   -3.7681 H   0  0  0  0  0  0  0  0  0  0  0  0
   -2.9819    7.9105   -3.7681 H   0  0  0  0  0  0  0  0  0  0  0  0
   -3.1126    6.4849   -1.4564 H   0  0  0  0  0  0  0  0  0  0  0  0
   -5.2221    6.0636   -0.8505 H   0  0  0  0  0  0  0  0  0  0  0  0
   -5.3268    7.8567   -0.5087 H   0  0  0  0  0  0  0  0  0  0  0  0
   -6.0469    8.0909   -2.9578 H   0  0  0  0  0  0  0  0  0  0  0  0
   -6.3387    6.3030   -2.8920 H   0  0  0  0  0  0  0  0  0  0  0  0
   -7.3118    8.4742   -1.3478 H   0  0  0  0  0  0  0  0  0  0  0  0
   -8.9951    5.0260   -3.1981 H   0  0  0  0  0  0  0  0  0  0  0  0
   -9.8388    6.3615   -4.0534 H   0  0  0  0  0  0  0  0  0  0  0  0
   -8.0441    6.2872   -4.0534 H   0  0  0  0  0  0  0  0  0  0  0  0
  -10.2670    7.6148   -0.7167 H   0  0  0  0  0  0  0  0  0  0  0  0
  -10.2209    8.6025   -2.2164 H   0  0  0  0  0  0  0  0  0  0  0  0
  -11.0476    7.0077   -2.2164 H   0  0  0  0  0  0  0  0  0  0  0  0
   -3.4848    9.2553   -2.2603 H   0  0  0  0  0  0  0  0  0  0  0  0
   -4.6647    9.7761   -0.2165 H   0  0  0  0  0  0  0  0  0  0  0  0
   -4.1698    8.2512    0.5489 H   0  0  0  0  0  0  0  0  0  0  0  0
   -3.0591   10.8258    1.1033 H   0  0  0  0  0  0  0  0  0  0  0  0
   -2.3114    9.3038    1.5814 H   0  0  0  0  0  0  0  0  0  0  0  0
   -2.3735   12.1420   -0.4514 H   0  0  0  0  0  0  0  0  0  0  0  0
   -1.2488   11.7178   -1.7862 H   0  0  0  0  0  0  0  0  0  0  0  0
   -2.9258   11.0744   -1.7862 H   0  0  0  0  0  0  0  0  0  0  0  0
   -0.0093    9.4054    0.8365 H   0  0  0  0  0  0  0  0  0  0  0  0
   -0.8625   11.7057    1.6226 H   0  0  0  0  0  0  0  0  0  0  0  0
    0.9163   11.2518    1.7581 H   0  0  0  0  0  0  0  0  0  0  0  0
    0.3975   13.7031    0.9447 H   0  0  0  0  0  0  0  0  0  0  0  0
    0.3900   11.5306   -2.4575 H   0  0  0  0  0  0  0  0  0  0  0  0
    3.3558   11.6422   -1.6274 H   0  0  0  0  0  0  0  0  0  0  0  0
    2.6593   10.7986   -3.0814 H   0  0  0  0  0  0  0  0  0  0  0  0
    3.7299   12.9498   -3.6704 H   0  0  0  0  0  0  0  0  0  0  0  0
    1.9563   12.9250   -4.0168 H   0  0  0  0  0  0  0  0  0  0  0  0
    2.5198   15.0414   -3.0343 H   0  0  0  0  0  0  0  0  0  0  0  0
    3.9300   13.3480   -1.2690 H   0  0  0  0  0  0  0  0  0  0  0  0
   -0.9209   14.5726   -2.0570 H   0  0  0  0  0  0  0  0  0  0  0  0
    0.2363   15.2704   -3.2405 H   0  0  0  0  0  0  0  0  0  0  0  0
   -0.0931   13.5045   -3.2405 H   0  0  0  0  0  0  0  0  0  0  0  0
    1.1672   15.0776    0.3867 H   0  0  0  0  0  0  0  0  0  0  0  0
    2.0592   16.0280   -0.8494 H   0  0  0  0  0  0  0  0  0  0  0  0
    0.2629   16.0164   -0.8494 H   0  0  0  0  0  0  0  0  0  0  0  0
    2.1536    9.8302    0.8835 H   0  0  0  0  0  0  0  0  0  0  0  0
    2.5840    8.7598   -0.4932 H   0  0  0  0  0  0  0  0  0  0  0  0
    3.1085   10.4778   -0.4932 H   0  0  0  0  0  0  0  0  0  0  0  0
    1.2517    9.2860   -2.8933 H   0  0  0  0  0  0  0  0  0  0  0  0
    0.9883    8.1159   -1.4802 H   0  0  0  0  0  0  0  0  0  0  0  0
   -1.1143    9.6870   -2.9959 H   0  0  0  0  0  0  0  0  0  0  0  0
   -0.8634    7.8981   -2.9423 H   0  0  0  0  0  0  0  0  0  0  0  0
   -1.3101    7.6946    0.7524 H   0  0  0  0  0  0  0  0  0  0  0  0
   -1.8888    6.6330   -0.5761 H   0  0  0  0  0  0  0  0  0  0  0  0
   -0.1943    7.2292   -0.5761 H   0  0  0  0  0  0  0  0  0  0  0  0
  1  2  1  0
  2  3  1  0
  3  4  1  0
  4  5  1  0
  5  6  1  0
  6  7  1  0
  7  8  1  0
  7  9  1  0
  2 10  1  0
 10 11  1  0
 11 12  1  0
 12 13  1  0
 13 14  1  6
 13 15  1  0
 15 16  1  0
 16 17  1  0
 17 18  2  0
 18 19  1  0
 19 20  1  0
 20 21  1  0
 21 22  1  0
 22 23  1  0
 22 24  1  0
 24 25  1  0
 24 26  1  0
 19 27  1  0
 27 28  1  1
 27 29  1  0
 29 30  1  0
 30 31  1  0
 31 32  1  1
  7  5  1  0
 31 10  1  0
 31 13  1  0
 27 15  1  0
 24 18  1  0
  1 33  1  0
  1 34  1  0
  1 35  1  0
  2 36  1  1
  3 37  1  0
  3 38  1  0
  4 39  1  0
  4 40  1  0
  5 41  1  1
  8 42  1  0
  8 43  1  0
  8 44  1  0
  9 45  1  0
  9 46  1  0
  9 47  1  0
 10 48  1  6
 11 49  1  0
 11 50  1  0
 12 51  1  0
 12 52  1  0
 14 53  1  0
 14 54  1  0
 14 55  1  0
 15 56  1  1
 16 57  1  0
 16 58  1  0
 17 59  1  0
 19 60  1  6
 20 61  1  0
 20 62  1  0
 21 63  1  0
 21 64  1  0
 22 65  1  6
 23 66  1  0
 25 67  1  0
 25 68  1  0
 25 69  1  0
 26 70  1  0
 26 71  1  0
 26 72  1  0
 28 73  1  0
 28 74  1  0
 28 75  1  0
 29 76  1  0
 29 77  1  0
 30 78  1  0
 30 79  1  0
 32 80  1  0
 32 81  1  0
 32 82  1  0
M  END
>  <meeko>  (10) 
{"is_sidechain": [false], "intermolecular_energy": 2.731, "internal_energy": -0.839}

$$$$
EPH_relaxed_0001_pdb2pqr_Repair_288_r2_0001_out
     RDKit          3D

 82 86  0  0  0  0  0  0  0  0999 V2000
   -4.7520    9.0300   -0.1730 C   0  0  0  0  0  0  0  0  0  0  0  0
   -4.9270    7.9230   -1.2160 C   0  0  2  0  0  0  0  0  0  0  0  0
   -3.8850    8.0220   -2.3480 C   0  0  0  0  0  0  0  0  0  0  0  0
   -2.4410    7.8320   -1.8740 C   0  0  0  0  0  0  0  0  0  0  0  0
   -1.5540    8.9460   -2.3400 C   0  0  2  0  0  0  0  0  0  0  0  0
   -0.1510    8.7060   -2.1670 O   0  0  0  0  0  0  0  0  0  0  0  0
   -0.7070    9.7880   -1.4040 C   0  0  0  0  0  0  0  0  0  0  0  0
   -0.7080    9.5530    0.0740 C   0  0  0  0  0  0  0  0  0  0  0  0
   -0.2620   11.1420   -1.8640 C   0  0  0  0  0  0  0  0  0  0  0  0
   -6.3350    7.9760   -1.7990 C   0  0  1  0  0  0  0  0  0  0  0  0
   -6.4450    7.2440   -3.1630 C   0  0  0  0  0  0  0  0  0  0  0  0
   -7.8540    6.5990   -3.2120 C   0  0  0  0  0  0  0  0  0  0  0  0
   -8.6220    7.2510   -2.0380 C   0  0  1  0  0  0  0  0  0  0  0  0
   -9.0970    8.6330   -2.5870 C   0  0  0  0  0  0  0  0  0  0  0  0
   -9.8110    6.4250   -1.4470 C   0  0  2  0  0  0  0  0  0  0  0  0
  -10.9640    6.1480   -2.4270 C   0  0  0  0  0  0  0  0  0  0  0  0
  -12.0500    7.1730   -2.4400 C   0  0  0  0  0  0  0  0  0  0  0  0
  -12.2440    8.1180   -1.5020 C   0  0  0  0  0  0  0  0  0  0  0  0
  -11.3790    8.1610   -0.2350 C   0  0  1  0  0  0  0  0  0  0  0  0
  -12.2890    8.3510    1.0070 C   0  0  0  0  0  0  0  0  0  0  0  0
  -13.2020    9.5670    0.8830 C   0  0  0  0  0  0  0  0  0  0  0  0
  -14.0870    9.4600   -0.3560 C   0  0  2  0  0  0  0  0  0  0  0  0
  -15.0000    8.3720   -0.1780 O   0  0  0  0  0  0  0  0  0  0  0  0
  -13.2810    9.2560   -1.6690 C   0  0  0  0  0  0  0  0  0  0  0  0
  -12.5200   10.5590   -2.0210 C   0  0  0  0  0  0  0  0  0  0  0  0
  -14.2960    9.0220   -2.8210 C   0  0  0  0  0  0  0  0  0  0  0  0
  -10.3480    6.9640   -0.0590 C   0  0  1  0  0  0  0  0  0  0  0  0
  -11.0450    5.7610    0.6460 C   0  0  0  0  0  0  0  0  0  0  0  0
   -9.1840    7.4250    0.8950 C   0  0  0  0  0  0  0  0  0  0  0  0
   -7.9830    8.1290    0.2360 C   0  0  0  0  0  0  0  0  0  0  0  0
   -7.4730    7.3310   -0.9680 C   0  0  2  0  0  0  0  0  0  0  0  0
   -6.9670    5.9440   -0.4440 C   0  0  0  0  0  0  0  0  0  0  0  0
   -4.8204    8.5973    0.8360 H   0  0  0  0  0  0  0  0  0  0  0  0
   -3.7678    9.5038   -0.3028 H   0  0  0  0  0  0  0  0  0  0  0  0
   -5.5421    9.7843   -0.3028 H   0  0  0  0  0  0  0  0  0  0  0  0
   -4.7711    6.9607   -0.7064 H   0  0  0  0  0  0  0  0  0  0  0  0
   -4.1099    7.2472   -3.0957 H   0  0  0  0  0  0  0  0  0  0  0  0
   -3.9562    9.0385   -2.7624 H   0  0  0  0  0  0  0  0  0  0  0  0
   -2.4277    7.8018   -0.7745 H   0  0  0  0  0  0  0  0  0  0  0  0
   -2.0616    6.8909   -2.2986 H   0  0  0  0  0  0  0  0  0  0  0  0
   -2.2679    9.2150   -3.1324 H   0  0  0  0  0  0  0  0  0  0  0  0
   -0.7039   10.5196    0.5990 H   0  0  0  0  0  0  0  0  0  0  0  0
   -1.6086    8.9871    0.3547 H   0  0  0  0  0  0  0  0  0  0  0  0
    0.1877    8.9795    0.3547 H   0  0  0  0  0  0  0  0  0  0  0  0
   -0.0536   11.7761   -0.9897 H   0  0  0  0  0  0  0  0  0  0  0  0
    0.6505   11.0418   -2.4701 H   0  0  0  0  0  0  0  0  0  0  0  0
   -1.0560   11.6026   -2.4701 H   0  0  0  0  0  0  0  0  0  0  0  0
   -6.4746    9.0661   -1.8458 H   0  0  0  0  0  0  0  0  0  0  0  0
   -6.3279    7.9615   -3.9885 H   0  0  0  0  0  0  0  0  0  0  0  0
   -5.6581    6.4824   -3.2672 H   0  0  0  0  0  0  0  0  0  0  0  0
   -8.3487    6.8188   -4.1696 H   0  0  0  0  0  0  0  0  0  0  0  0
   -7.8145    5.5030   -3.1275 H   0  0  0  0  0  0  0  0  0  0  0  0
   -9.3271    9.3025   -1.7451 H   0  0  0  0  0  0  0  0  0  0  0  0
   -8.2999    9.0771   -3.2014 H   0  0  0  0  0  0  0  0  0  0  0  0
   -9.9987    8.4932   -3.2014 H   0  0  0  0  0  0  0  0  0  0  0  0
   -9.3451    5.4480   -1.2511 H   0  0  0  0  0  0  0  0  0  0  0  0
  -10.5414    6.0876   -3.4408 H   0  0  0  0  0  0  0  0  0  0  0  0
  -11.4328    5.2121   -2.0888 H   0  0  0  0  0  0  0  0  0  0  0  0
  -12.7504    7.1538   -3.2880 H   0  0  0  0  0  0  0  0  0  0  0  0
  -10.7160    9.0314   -0.3483 H   0  0  0  0  0  0  0  0  0  0  0  0
  -12.9125    7.4529    1.1280 H   0  0  0  0  0  0  0  0  0  0  0  0
  -11.6362    8.5111    1.8778 H   0  0  0  0  0  0  0  0  0  0  0  0
  -13.8400    9.6309    1.7768 H   0  0  0  0  0  0  0  0  0  0  0  0
  -12.5771   10.4676    0.7916 H   0  0  0  0  0  0  0  0  0  0  0  0
  -14.6226   10.4149   -0.4621 H   0  0  0  0  0  0  0  0  0  0  0  0
  -15.6910    8.6670    0.4390 H   0  0  0  0  0  0  0  0  0  0  0  0
  -12.2211   11.0708   -1.0943 H   0  0  0  0  0  0  0  0  0  0  0  0
  -11.6238   10.3127   -2.6093 H   0  0  0  0  0  0  0  0  0  0  0  0
  -13.1749   11.2186   -2.6093 H   0  0  0  0  0  0  0  0  0  0  0  0
  -15.2852    8.7939   -2.3974 H   0  0  0  0  0  0  0  0  0  0  0  0
  -14.3626    9.9284   -3.4408 H   0  0  0  0  0  0  0  0  0  0  0  0
  -13.9591    8.1780   -3.4408 H   0  0  0  0  0  0  0  0  0  0  0  0
  -10.9738    5.8839    1.7368 H   0  0  0  0  0  0  0  0  0  0  0  0
  -12.1036    5.7254    0.3493 H   0  0  0  0  0  0  0  0  0  0  0  0
  -10.5494    4.8249    0.3493 H   0  0  0  0  0  0  0  0  0  0  0  0
   -9.6133    8.1195    1.6321 H   0  0  0  0  0  0  0  0  0  0  0  0
   -8.7754    6.4962    1.3198 H   0  0  0  0  0  0  0  0  0  0  0  0
   -8.2925    9.1295   -0.1004 H   0  0  0  0  0  0  0  0  0  0  0  0
   -7.1721    8.2052    0.9753 H   0  0  0  0  0  0  0  0  0  0  0  0
   -6.9675    5.9453    0.6560 H   0  0  0  0  0  0  0  0  0  0  0  0
   -7.6329    5.1486   -0.8100 H   0  0  0  0  0  0  0  0  0  0  0  0
   -5.9454    5.7643   -0.8100 H   0  0  0  0  0  0  0  0  0  0  0  0
  1  2  1  0
  2  3  1  0
  3  4  1  0
  4  5  1  0
  5  6  1  0
  6  7  1  0
  7  8  1  0
  7  9  1  0
  2 10  1  0
 10 11  1  0
 11 12  1  0
 12 13  1  0
 13 14  1  6
 13 15  1  0
 15 16  1  0
 16 17  1  0
 17 18  2  0
 18 19  1  0
 19 20  1  0
 20 21  1  0
 21 22  1  0
 22 23  1  0
 22 24  1  0
 24 25  1  0
 24 26  1  0
 19 27  1  0
 27 28  1  1
 27 29  1  0
 29 30  1  0
 30 31  1  0
 31 32  1  1
  7  5  1  0
 31 10  1  0
 31 13  1  0
 27 15  1  0
 24 18  1  0
  1 33  1  0
  1 34  1  0
  1 35  1  0
  2 36  1  1
  3 37  1  0
  3 38  1  0
  4 39  1  0
  4 40  1  0
  5 41  1  6
  8 42  1  0
  8 43  1  0
  8 44  1  0
  9 45  1  0
  9 46  1  0
  9 47  1  0
 10 48  1  6
 11 49  1  0
 11 50  1  0
 12 51  1  0
 12 52  1  0
 14 53  1  0
 14 54  1  0
 14 55  1  0
 15 56  1  1
 16 57  1  0
 16 58  1  0
 17 59  1  0
 19 60  1  6
 20 61  1  0
 20 62  1  0
 21 63  1  0
 21 64  1  0
 22 65  1  6
 23 66  1  0
 25 67  1  0
 25 68  1  0
 25 69  1  0
 26 70  1  0
 26 71  1  0
 26 72  1  0
 28 73  1  0
 28 74  1  0
 28 75  1  0
 29 76  1  0
 29 77  1  0
 30 78  1  0
 30 79  1  0
 32 80  1  0
 32 81  1  0
 32 82  1  0
M  END
>  <meeko>  (11) 
{"is_sidechain": [false], "intermolecular_energy": 2.731, "internal_energy": -0.839}

$$$$
EPH_relaxed_0001_pdb2pqr_Repair_288_r2_0001_out
     RDKit          3D

 82 86  0  0  0  0  0  0  0  0999 V2000
   -0.1870    9.3560   -2.3040 C   0  0  0  0  0  0  0  0  0  0  0  0
    0.9290   10.3030   -2.7530 C   0  0  2  0  0  0  0  0  0  0  0  0
    2.2990    9.5970   -2.8150 C   0  0  0  0  0  0  0  0  0  0  0  0
    3.2330   10.1610   -3.8890 C   0  0  0  0  0  0  0  0  0  0  0  0
    4.5860   10.4850   -3.3320 C   0  0  2  0  0  0  0  0  0  0  0  0
    5.0630   11.8000   -3.6440 O   0  0  0  0  0  0  0  0  0  0  0  0
    5.8150   10.7070   -4.1940 C   0  0  0  0  0  0  0  0  0  0  0  0
    5.7480   10.6120   -5.6860 C   0  0  0  0  0  0  0  0  0  0  0  0
    7.1660   10.5310   -3.5740 C   0  0  0  0  0  0  0  0  0  0  0  0
    1.0040   11.5010   -1.8140 C   0  0  1  0  0  0  0  0  0  0  0  0
    2.0990   11.3410   -0.7260 C   0  0  0  0  0  0  0  0  0  0  0  0
    2.6840   12.7540   -0.4690 C   0  0  0  0  0  0  0  0  0  0  0  0
    1.6920   13.7180   -1.1610 C   0  0  1  0  0  0  0  0  0  0  0  0
    0.5170   13.8820   -0.1470 C   0  0  0  0  0  0  0  0  0  0  0  0
    2.2690   15.1020   -1.6030 C   0  0  2  0  0  0  0  0  0  0  0  0
    2.7830   15.9910   -0.4580 C   0  0  0  0  0  0  0  0  0  0  0  0
    1.7730   16.9180    0.1330 C   0  0  0  0  0  0  0  0  0  0  0  0
    0.5880   17.2390   -0.4200 C   0  0  0  0  0  0  0  0  0  0  0  0
    0.2050   16.7250   -1.8140 C   0  0  1  0  0  0  0  0  0  0  0  0
   -0.3710   17.8940   -2.6560 C   0  0  0  0  0  0  0  0  0  0  0  0
   -1.5260   18.6050   -1.9580 C   0  0  0  0  0  0  0  0  0  0  0  0
   -1.0900   19.1520   -0.6010 C   0  0  2  0  0  0  0  0  0  0  0  0
   -0.1320   20.1940   -0.8110 O   0  0  0  0  0  0  0  0  0  0  0  0
   -0.4840   18.0660    0.3310 C   0  0  0  0  0  0  0  0  0  0  0  0
   -1.6010   17.1010    0.8010 C   0  0  0  0  0  0  0  0  0  0  0  0
    0.0440   18.7740    1.6090 C   0  0  0  0  0  0  0  0  0  0  0  0
    1.3300   15.9120   -2.5870 C   0  0  1  0  0  0  0  0  0  0  0  0
    2.2510   16.8940   -3.3740 C   0  0  0  0  0  0  0  0  0  0  0  0
    0.6480   14.9850   -3.6610 C   0  0  0  0  0  0  0  0  0  0  0  0
    0.2080   13.5850   -3.1930 C   0  0  0  0  0  0  0  0  0  0  0  0
    1.3400   12.8770   -2.4410 C   0  0  2  0  0  0  0  0  0  0  0  0
    2.5280   12.6790   -3.4430 C   0  0  0  0  0  0  0  0  0  0  0  0
   -0.2224    9.3260   -1.2050 H   0  0  0  0  0  0  0  0  0  0  0  0
   -1.1514    9.7156   -2.6922 H   0  0  0  0  0  0  0  0  0  0  0  0
    0.0109    8.3460   -2.6922 H   0  0  0  0  0  0  0  0  0  0  0  0
    0.6850   10.6426   -3.7704 H   0  0  0  0  0  0  0  0  0  0  0  0
    2.7898    9.7044   -1.8365 H   0  0  0  0  0  0  0  0  0  0  0  0
    2.1077    8.5454   -3.0749 H   0  0  0  0  0  0  0  0  0  0  0  0
    3.3464    9.4157   -4.6900 H   0  0  0  0  0  0  0  0  0  0  0  0
    2.7896   11.0905   -4.2755 H   0  0  0  0  0  0  0  0  0  0  0  0
    4.4046    9.8440   -2.4567 H   0  0  0  0  0  0  0  0  0  0  0  0
    5.1357    9.7438   -5.9710 H   0  0  0  0  0  0  0  0  0  0  0  0
    5.2956   11.5288   -6.0918 H   0  0  0  0  0  0  0  0  0  0  0  0
    6.7635   10.4936   -6.0918 H   0  0  0  0  0  0  0  0  0  0  0  0
    7.0710   10.5434   -2.4782 H   0  0  0  0  0  0  0  0  0  0  0  0
    7.5939    9.5695   -3.8941 H   0  0  0  0  0  0  0  0  0  0  0  0
    7.8259   11.3508   -3.8941 H   0  0  0  0  0  0  0  0  0  0  0  0
   -0.0289   11.5020   -1.4357 H   0  0  0  0  0  0  0  0  0  0  0  0
    1.6586   10.9394    0.1985 H   0  0  0  0  0  0  0  0  0  0  0  0
    2.8829   10.6426   -1.0542 H   0  0  0  0  0  0  0  0  0  0  0  0
    2.7386   12.9615    0.6099 H   0  0  0  0  0  0  0  0  0  0  0  0
    3.7078   12.8589   -0.8575 H   0  0  0  0  0  0  0  0  0  0  0  0
    0.9083   13.8274    0.8796 H   0  0  0  0  0  0  0  0  0  0  0  0
    0.0314   14.8566   -0.3030 H   0  0  0  0  0  0  0  0  0  0  0  0
   -0.2169   13.0776   -0.3030 H   0  0  0  0  0  0  0  0  0  0  0  0
    3.1604   14.8120   -2.1787 H   0  0  0  0  0  0  0  0  0  0  0  0
    3.1510   15.3337    0.3436 H   0  0  0  0  0  0  0  0  0  0  0  0
    3.5630   16.6308   -0.8965 H   0  0  0  0  0  0  0  0  0  0  0  0
    2.0175   17.3776    1.1020 H   0  0  0  0  0  0  0  0  0  0  0  0
   -0.5710   15.9619   -1.6543 H   0  0  0  0  0  0  0  0  0  0  0  0
    0.4312   18.6233   -2.8417 H   0  0  0  0  0  0  0  0  0  0  0  0
   -0.7584   17.4701   -3.5942 H   0  0  0  0  0  0  0  0  0  0  0  0
   -1.8694   19.4383   -2.5885 H   0  0  0  0  0  0  0  0  0  0  0  0
   -2.3394   17.8815   -1.7999 H   0  0  0  0  0  0  0  0  0  0  0  0
   -1.9888   19.5340   -0.0947 H   0  0  0  0  0  0  0  0  0  0  0  0
    0.3050   20.0250   -1.6620 H   0  0  0  0  0  0  0  0  0  0  0  0
   -1.6273   17.0783    1.9005 H   0  0  0  0  0  0  0  0  0  0  0  0
   -2.5716   17.4494    0.4181 H   0  0  0  0  0  0  0  0  0  0  0  0
   -1.3973   16.0901    0.4181 H   0  0  0  0  0  0  0  0  0  0  0  0
   -0.3414   18.2572    2.5003 H   0  0  0  0  0  0  0  0  0  0  0  0
    1.1436   18.7461    1.6158 H   0  0  0  0  0  0  0  0  0  0  0  0
   -0.2963   19.8200    1.6158 H   0  0  0  0  0  0  0  0  0  0  0  0
    2.8256   17.5066   -2.6637 H   0  0  0  0  0  0  0  0  0  0  0  0
    2.9436   16.3196   -4.0067 H   0  0  0  0  0  0  0  0  0  0  0  0
    1.6334   17.5484   -4.0067 H   0  0  0  0  0  0  0  0  0  0  0  0
   -0.2459   15.5078   -4.0320 H   0  0  0  0  0  0  0  0  0  0  0  0
    1.4246   14.8037   -4.4187 H   0  0  0  0  0  0  0  0  0  0  0  0
   -0.6601   13.6853   -2.5250 H   0  0  0  0  0  0  0  0  0  0  0  0
   -0.0539   12.9858   -4.0775 H   0  0  0  0  0  0  0  0  0  0  0  0
    3.4603   12.5236   -2.8802 H   0  0  0  0  0  0  0  0  0  0  0  0
    2.3313   11.8013   -4.0761 H   0  0  0  0  0  0  0  0  0  0  0  0
    2.6266   13.5731   -4.0761 H   0  0  0  0  0  0  0  0  0  0  0  0
  1  2  1  0
  2  3  1  0
  3  4  1  0
  4  5  1  0
  5  6  1  0
  6  7  1  0
  7  8  1  0
  7  9  1  0
  2 10  1  0
 10 11  1  0
 11 12  1  0
 12 13  1  0
 13 14  1  1
 13 15  1  0
 15 16  1  0
 16 17  1  0
 17 18  2  0
 18 19  1  0
 19 20  1  0
 20 21  1  0
 21 22  1  0
 22 23  1  0
 22 24  1  0
 24 25  1  0
 24 26  1  0
 19 27  1  0
 27 28  1  6
 27 29  1  0
 29 30  1  0
 30 31  1  0
 31 32  1  6
  7  5  1  0
 31 10  1  0
 31 13  1  0
 27 15  1  0
 24 18  1  0
  1 33  1  0
  1 34  1  0
  1 35  1  0
  2 36  1  6
  3 37  1  0
  3 38  1  0
  4 39  1  0
  4 40  1  0
  5 41  1  1
  8 42  1  0
  8 43  1  0
  8 44  1  0
  9 45  1  0
  9 46  1  0
  9 47  1  0
 10 48  1  1
 11 49  1  0
 11 50  1  0
 12 51  1  0
 12 52  1  0
 14 53  1  0
 14 54  1  0
 14 55  1  0
 15 56  1  6
 16 57  1  0
 16 58  1  0
 17 59  1  0
 19 60  1  1
 20 61  1  0
 20 62  1  0
 21 63  1  0
 21 64  1  0
 22 65  1  1
 23 66  1  0
 25 67  1  0
 25 68  1  0
 25 69  1  0
 26 70  1  0
 26 71  1  0
 26 72  1  0
 28 73  1  0
 28 74  1  0
 28 75  1  0
 29 76  1  0
 29 77  1  0
 30 78  1  0
 30 79  1  0
 32 80  1  0
 32 81  1  0
 32 82  1  0
M  END
>  <meeko>  (12) 
{"is_sidechain": [false], "intermolecular_energy": 2.731, "internal_energy": -0.839}

$$$$
EPH_relaxed_0001_pdb2pqr_Repair_288_r2_0001_out
     RDKit          3D

 82 86  0  0  0  0  0  0  0  0999 V2000
    1.9510   18.7110   -2.0440 C   0  0  0  0  0  0  0  0  0  0  0  0
    2.3150   17.5470   -2.9700 C   0  0  2  0  0  0  0  0  0  0  0  0
    1.2940   17.3710   -4.1120 C   0  0  0  0  0  0  0  0  0  0  0  0
    1.8660   16.6660   -5.3450 C   0  0  0  0  0  0  0  0  0  0  0  0
    0.7820   16.1930   -6.2650 C   0  0  2  0  0  0  0  0  0  0  0  0
    1.0870   14.9890   -6.9800 O   0  0  0  0  0  0  0  0  0  0  0  0
    0.9170   16.1730   -7.7760 C   0  0  0  0  0  0  0  0  0  0  0  0
    2.1680   16.6360   -8.4540 C   0  0  0  0  0  0  0  0  0  0  0  0
   -0.3300   16.1670   -8.6050 C   0  0  0  0  0  0  0  0  0  0  0  0
    2.4230   16.2570   -2.1640 C   0  0  1  0  0  0  0  0  0  0  0  0
    2.9510   16.4950   -0.7240 C   0  0  0  0  0  0  0  0  0  0  0  0
    2.2300   15.4720    0.1910 C   0  0  0  0  0  0  0  0  0  0  0  0
    1.5700   14.4710   -0.7870 C   0  0  1  0  0  0  0  0  0  0  0  0
    2.7160   13.4920   -1.1910 C   0  0  0  0  0  0  0  0  0  0  0  0
    0.3180   13.7040   -0.2500 C   0  0  2  0  0  0  0  0  0  0  0  0
    0.5800   12.7930    0.9610 C   0  0  0  0  0  0  0  0  0  0  0  0
    0.9520   11.3850    0.6310 C   0  0  0  0  0  0  0  0  0  0  0  0
    0.7950   10.7950   -0.5680 C   0  0  0  0  0  0  0  0  0  0  0  0
    0.1020   11.5300   -1.7230 C   0  0  1  0  0  0  0  0  0  0  0  0
   -0.9300   10.5860   -2.3930 C   0  0  0  0  0  0  0  0  0  0  0  0
   -0.3130    9.2610   -2.8310 C   0  0  0  0  0  0  0  0  0  0  0  0
    0.3140    8.5330   -1.6450 C   0  0  2  0  0  0  0  0  0  0  0  0
   -0.7250    8.1370   -0.7450 O   0  0  0  0  0  0  0  0  0  0  0  0
    1.3650    9.3910   -0.8860 C   0  0  0  0  0  0  0  0  0  0  0  0
    2.6280    9.5660   -1.7650 C   0  0  0  0  0  0  0  0  0  0  0  0
    1.8160    8.5930    0.3680 C   0  0  0  0  0  0  0  0  0  0  0  0
   -0.5110   12.9540   -1.3700 C   0  0  1  0  0  0  0  0  0  0  0  0
   -1.9590   12.7860   -0.8150 C   0  0  0  0  0  0  0  0  0  0  0  0
   -0.6370   13.8010   -2.6910 C   0  0  0  0  0  0  0  0  0  0  0  0
    0.5940   14.6310   -3.1040 C   0  0  0  0  0  0  0  0  0  0  0  0
    1.1190   15.4570   -1.9260 C   0  0  2  0  0  0  0  0  0  0  0  0
   -0.0050   16.4670   -1.5110 C   0  0  0  0  0  0  0  0  0  0  0  0
    2.0510   18.3912   -0.9963 H   0  0  0  0  0  0  0  0  0  0  0  0
    2.6275   19.5571   -2.2353 H   0  0  0  0  0  0  0  0  0  0  0  0
    0.9130   19.0209   -2.2353 H   0  0  0  0  0  0  0  0  0  0  0  0
    3.2863   17.7813   -3.4300 H   0  0  0  0  0  0  0  0  0  0  0  0
    0.4485   16.7778   -3.7337 H   0  0  0  0  0  0  0  0  0  0  0  0
    0.9900   18.3792   -4.4300 H   0  0  0  0  0  0  0  0  0  0  0  0
    2.5140   17.3689   -5.8891 H   0  0  0  0  0  0  0  0  0  0  0  0
    2.4350   15.7881   -5.0052 H   0  0  0  0  0  0  0  0  0  0  0  0
    0.0067   16.5995   -5.5989 H   0  0  0  0  0  0  0  0  0  0  0  0
    2.9152   16.9126   -7.6956 H   0  0  0  0  0  0  0  0  0  0  0  0
    2.5659   15.8256   -9.0824 H   0  0  0  0  0  0  0  0  0  0  0  0
    1.9425   17.5102   -9.0824 H   0  0  0  0  0  0  0  0  0  0  0  0
   -1.2095   16.1628   -7.9443 H   0  0  0  0  0  0  0  0  0  0  0  0
   -0.3526   17.0650   -9.2398 H   0  0  0  0  0  0  0  0  0  0  0  0
   -0.3440   15.2688   -9.2398 H   0  0  0  0  0  0  0  0  0  0  0  0
    3.0999   15.6869   -2.8173 H   0  0  0  0  0  0  0  0  0  0  0  0
    4.0387   16.3348   -0.6880 H   0  0  0  0  0  0  0  0  0  0  0  0
    2.7536   17.5263   -0.3961 H   0  0  0  0  0  0  0  0  0  0  0  0
    2.9515   14.9588    0.8437 H   0  0  0  0  0  0  0  0  0  0  0  0
    1.4962   15.9514    0.8556 H   0  0  0  0  0  0  0  0  0  0  0  0
    3.1894   13.0876   -0.2842 H   0  0  0  0  0  0  0  0  0  0  0  0
    2.2998   12.6663   -1.7868 H   0  0  0  0  0  0  0  0  0  0  0  0
    3.4666   14.0320   -1.7868 H   0  0  0  0  0  0  0  0  0  0  0  0
   -0.3166   14.5208    0.1243 H   0  0  0  0  0  0  0  0  0  0  0  0
    1.4008   13.2332    1.5463 H   0  0  0  0  0  0  0  0  0  0  0  0
   -0.3713   12.7358    1.5103 H   0  0  0  0  0  0  0  0  0  0  0  0
    1.3917   10.7786    1.4366 H   0  0  0  0  0  0  0  0  0  0  0  0
    0.8953   11.7843   -2.4413 H   0  0  0  0  0  0  0  0  0  0  0  0
   -1.7368   10.3789   -1.6746 H   0  0  0  0  0  0  0  0  0  0  0  0
   -1.3095   11.0914   -3.2933 H   0  0  0  0  0  0  0  0  0  0  0  0
   -1.0971    8.6262   -3.2695 H   0  0  0  0  0  0  0  0  0  0  0  0
    0.4734    9.4677   -3.5718 H   0  0  0  0  0  0  0  0  0  0  0  0
    0.8504    7.6581   -2.0410 H   0  0  0  0  0  0  0  0  0  0  0  0
   -0.9160    8.8940   -0.1650 H   0  0  0  0  0  0  0  0  0  0  0  0
    3.5101    9.6882   -1.1193 H   0  0  0  0  0  0  0  0  0  0  0  0
    2.7588    8.6774   -2.4000 H   0  0  0  0  0  0  0  0  0  0  0  0
    2.5122   10.4567   -2.4000 H   0  0  0  0  0  0  0  0  0  0  0  0
    1.5105    9.1335    1.2760 H   0  0  0  0  0  0  0  0  0  0  0  0
    1.3465    7.5983    0.3580 H   0  0  0  0  0  0  0  0  0  0  0  0
    2.9103    8.4821    0.3580 H   0  0  0  0  0  0  0  0  0  0  0  0
   -1.9328   12.7890    0.2847 H   0  0  0  0  0  0  0  0  0  0  0  0
   -2.5862   13.6174   -1.1691 H   0  0  0  0  0  0  0  0  0  0  0  0
   -2.3792   11.8331   -1.1691 H   0  0  0  0  0  0  0  0  0  0  0  0
   -0.8599   13.1047   -3.5129 H   0  0  0  0  0  0  0  0  0  0  0  0
   -1.4262   14.5392   -2.4856 H   0  0  0  0  0  0  0  0  0  0  0  0
    1.3872   13.9512   -3.4485 H   0  0  0  0  0  0  0  0  0  0  0  0
    0.2988   15.3185   -3.9103 H   0  0  0  0  0  0  0  0  0  0  0  0
   -0.0637   16.5197   -0.4138 H   0  0  0  0  0  0  0  0  0  0  0  0
    0.2302   17.4632   -1.9139 H   0  0  0  0  0  0  0  0  0  0  0  0
   -0.9704   16.1270   -1.9139 H   0  0  0  0  0  0  0  0  0  0  0  0
  1  2  1  0
  2  3  1  0
  3  4  1  0
  4  5  1  0
  5  6  1  0
  6  7  1  0
  7  8  1  0
  7  9  1  0
  2 10  1  0
 10 11  1  0
 11 12  1  0
 12 13  1  0
 13 14  1  6
 13 15  1  0
 15 16  1  0
 16 17  1  0
 17 18  2  0
 18 19  1  0
 19 20  1  0
 20 21  1  0
 21 22  1  0
 22 23  1  0
 22 24  1  0
 24 25  1  0
 24 26  1  0
 19 27  1  0
 27 28  1  1
 27 29  1  0
 29 30  1  0
 30 31  1  0
 31 32  1  1
  7  5  1  0
 31 10  1  0
 31 13  1  0
 27 15  1  0
 24 18  1  0
  1 33  1  0
  1 34  1  0
  1 35  1  0
  2 36  1  6
  3 37  1  0
  3 38  1  0
  4 39  1  0
  4 40  1  0
  5 41  1  6
  8 42  1  0
  8 43  1  0
  8 44  1  0
  9 45  1  0
  9 46  1  0
  9 47  1  0
 10 48  1  6
 11 49  1  0
 11 50  1  0
 12 51  1  0
 12 52  1  0
 14 53  1  0
 14 54  1  0
 14 55  1  0
 15 56  1  1
 16 57  1  0
 16 58  1  0
 17 59  1  0
 19 60  1  6
 20 61  1  0
 20 62  1  0
 21 63  1  0
 21 64  1  0
 22 65  1  6
 23 66  1  0
 25 67  1  0
 25 68  1  0
 25 69  1  0
 26 70  1  0
 26 71  1  0
 26 72  1  0
 28 73  1  0
 28 74  1  0
 28 75  1  0
 29 76  1  0
 29 77  1  0
 30 78  1  0
 30 79  1  0
 32 80  1  0
 32 81  1  0
 32 82  1  0
M  END
>  <meeko>  (13) 
{"is_sidechain": [false], "intermolecular_energy": 2.731, "internal_energy": -0.839}

$$$$
EPH_relaxed_0001_pdb2pqr_Repair_288_r2_0001_out
     RDKit          3D

 82 86  0  0  0  0  0  0  0  0999 V2000
    0.9260   14.9380   -2.5260 C   0  0  0  0  0  0  0  0  0  0  0  0
    1.1720   14.2990   -3.8950 C   0  0  2  0  0  0  0  0  0  0  0  0
    0.4520   15.0580   -5.0280 C   0  0  0  0  0  0  0  0  0  0  0  0
    1.0080   14.7550   -6.4220 C   0  0  0  0  0  0  0  0  0  0  0  0
    0.8400   15.9190   -7.3510 C   0  0  2  0  0  0  0  0  0  0  0  0
    0.3120   15.5840   -8.6410 O   0  0  0  0  0  0  0  0  0  0  0  0
    1.6520   16.1020   -8.6190 C   0  0  0  0  0  0  0  0  0  0  0  0
    2.6950   15.1090   -9.0280 C   0  0  0  0  0  0  0  0  0  0  0  0
    1.7770   17.4770   -9.1970 C   0  0  0  0  0  0  0  0  0  0  0  0
    0.7220   12.8420   -3.8770 C   0  0  1  0  0  0  0  0  0  0  0  0
    1.8440   11.8650   -4.3190 C   0  0  0  0  0  0  0  0  0  0  0  0
    1.6670   10.5720   -3.4830 C   0  0  0  0  0  0  0  0  0  0  0  0
    0.2690   10.7150   -2.8360 C   0  0  1  0  0  0  0  0  0  0  0  0
   -0.7350   10.2820   -3.9510 C   0  0  0  0  0  0  0  0  0  0  0  0
    0.0370    9.9200   -1.5100 C   0  0  2  0  0  0  0  0  0  0  0  0
    0.1390    8.3900   -1.6400 C   0  0  0  0  0  0  0  0  0  0  0  0
   -1.1410    7.6900   -1.9540 C   0  0  0  0  0  0  0  0  0  0  0  0
   -2.3720    8.2240   -1.8460 C   0  0  0  0  0  0  0  0  0  0  0  0
   -2.5720    9.6330   -1.2740 C   0  0  1  0  0  0  0  0  0  0  0  0
   -3.7260    9.6130   -0.2380 C   0  0  0  0  0  0  0  0  0  0  0  0
   -5.0140    9.0270   -0.8090 C   0  0  0  0  0  0  0  0  0  0  0  0
   -4.7890    7.6040   -1.3140 C   0  0  2  0  0  0  0  0  0  0  0  0
   -4.5020    6.7580   -0.1960 O   0  0  0  0  0  0  0  0  0  0  0  0
   -3.6410    7.4990   -2.3570 C   0  0  0  0  0  0  0  0  0  0  0  0
   -4.0810    8.1660   -3.6840 C   0  0  0  0  0  0  0  0  0  0  0  0
   -3.4250    5.9950   -2.6780 C   0  0  0  0  0  0  0  0  0  0  0  0
   -1.2650   10.3470   -0.7180 C   0  0  1  0  0  0  0  0  0  0  0  0
   -1.0320    9.9460    0.7710 C   0  0  0  0  0  0  0  0  0  0  0  0
   -1.4870   11.9060   -0.7280 C   0  0  0  0  0  0  0  0  0  0  0  0
   -1.1270   12.6510   -2.0280 C   0  0  0  0  0  0  0  0  0  0  0  0
    0.2690   12.2540   -2.5170 C   0  0  2  0  0  0  0  0  0  0  0  0
    1.3030   12.6980   -1.4260 C   0  0  0  0  0  0  0  0  0  0  0  0
    1.2003   14.2255   -1.7341 H   0  0  0  0  0  0  0  0  0  0  0  0
    1.5386   15.8466   -2.4300 H   0  0  0  0  0  0  0  0  0  0  0  0
   -0.1377   15.2012   -2.4300 H   0  0  0  0  0  0  0  0  0  0  0  0
    2.2522   14.3526   -4.0958 H   0  0  0  0  0  0  0  0  0  0  0  0
   -0.6122   14.7801   -5.0106 H   0  0  0  0  0  0  0  0  0  0  0  0
    0.6084   16.1315   -4.8459 H   0  0  0  0  0  0  0  0  0  0  0  0
    2.0791   14.5199   -6.3352 H   0  0  0  0  0  0  0  0  0  0  0  0
    0.4495   13.9025   -6.8360 H   0  0  0  0  0  0  0  0  0  0  0  0
    0.6289   16.5920   -6.5069 H   0  0  0  0  0  0  0  0  0  0  0  0
    3.1557   14.6704   -8.1305 H   0  0  0  0  0  0  0  0  0  0  0  0
    2.2286   14.3130   -9.6270 H   0  0  0  0  0  0  0  0  0  0  0  0
    3.4672   15.6140   -9.6270 H   0  0  0  0  0  0  0  0  0  0  0  0
    1.8439   18.2127   -8.3819 H   0  0  0  0  0  0  0  0  0  0  0  0
    2.6839   17.5331   -9.8169 H   0  0  0  0  0  0  0  0  0  0  0  0
    0.8950   17.6957   -9.8169 H   0  0  0  0  0  0  0  0  0  0  0  0
   -0.1351   12.9053   -4.5635 H   0  0  0  0  0  0  0  0  0  0  0  0
    1.7484   11.6387   -5.3912 H   0  0  0  0  0  0  0  0  0  0  0  0
    2.8383   12.3067   -4.1570 H   0  0  0  0  0  0  0  0  0  0  0  0
    1.7068    9.6829   -4.1295 H   0  0  0  0  0  0  0  0  0  0  0  0
    2.4629   10.4469   -2.7340 H   0  0  0  0  0  0  0  0  0  0  0  0
   -1.6507    9.8871   -3.4867 H   0  0  0  0  0  0  0  0  0  0  0  0
   -0.9864   11.1517   -4.5759 H   0  0  0  0  0  0  0  0  0  0  0  0
   -0.2751    9.5022   -4.5759 H   0  0  0  0  0  0  0  0  0  0  0  0
    0.8982   10.2258   -0.8978 H   0  0  0  0  0  0  0  0  0  0  0  0
    0.8558    8.1642   -2.4433 H   0  0  0  0  0  0  0  0  0  0  0  0
    0.4532    8.0211   -0.6525 H   0  0  0  0  0  0  0  0  0  0  0  0
   -1.0728    6.6492   -2.3034 H   0  0  0  0  0  0  0  0  0  0  0  0
   -2.8477   10.2709   -2.1267 H   0  0  0  0  0  0  0  0  0  0  0  0
   -3.4147    9.0062    0.6251 H   0  0  0  0  0  0  0  0  0  0  0  0
   -3.9324   10.6537    0.0525 H   0  0  0  0  0  0  0  0  0  0  0  0
   -5.7827    9.0125   -0.0223 H   0  0  0  0  0  0  0  0  0  0  0  0
   -5.3399    9.6519   -1.6536 H   0  0  0  0  0  0  0  0  0  0  0  0
   -5.7089    7.2863   -1.8266 H   0  0  0  0  0  0  0  0  0  0  0  0
   -3.6700    7.0670    0.2010 H   0  0  0  0  0  0  0  0  0  0  0  0
   -4.6744    9.0655   -3.4631 H   0  0  0  0  0  0  0  0  0  0  0  0
   -3.1908    8.4476   -4.2656 H   0  0  0  0  0  0  0  0  0  0  0  0
   -4.6903    7.4585   -4.2656 H   0  0  0  0  0  0  0  0  0  0  0  0
   -3.3435    5.4277   -1.7391 H   0  0  0  0  0  0  0  0  0  0  0  0
   -4.2783    5.6183   -3.2611 H   0  0  0  0  0  0  0  0  0  0  0  0
   -2.5002    5.8737   -3.2611 H   0  0  0  0  0  0  0  0  0  0  0  0
   -1.4747   10.7079    1.4295 H   0  0  0  0  0  0  0  0  0  0  0  0
   -1.5051    8.9724    0.9669 H   0  0  0  0  0  0  0  0  0  0  0  0
    0.0481    9.8749    0.9669 H   0  0  0  0  0  0  0  0  0  0  0  0
   -2.5514   12.0918   -0.5219 H   0  0  0  0  0  0  0  0  0  0  0  0
   -0.7947   12.3001    0.0306 H   0  0  0  0  0  0  0  0  0  0  0  0
   -1.8653   12.3993   -2.8036 H   0  0  0  0  0  0  0  0  0  0  0  0
   -1.1345   13.7324   -1.8268 H   0  0  0  0  0  0  0  0  0  0  0  0
    0.8816   12.5170   -0.4262 H   0  0  0  0  0  0  0  0  0  0  0  0
    2.2309   12.1190   -1.5431 H   0  0  0  0  0  0  0  0  0  0  0  0
    1.5222   13.7696   -1.5431 H   0  0  0  0  0  0  0  0  0  0  0  0
  1  2  1  0
  2  3  1  0
  3  4  1  0
  4  5  1  0
  5  6  1  0
  6  7  1  0
  7  8  1  0
  7  9  1  0
  2 10  1  0
 10 11  1  0
 11 12  1  0
 12 13  1  0
 13 14  1  6
 13 15  1  0
 15 16  1  0
 16 17  1  0
 17 18  2  0
 18 19  1  0
 19 20  1  0
 20 21  1  0
 21 22  1  0
 22 23  1  0
 22 24  1  0
 24 25  1  0
 24 26  1  0
 19 27  1  0
 27 28  1  1
 27 29  1  0
 29 30  1  0
 30 31  1  0
 31 32  1  1
  7  5  1  0
 31 10  1  0
 31 13  1  0
 27 15  1  0
 24 18  1  0
  1 33  1  0
  1 34  1  0
  1 35  1  0
  2 36  1  6
  3 37  1  0
  3 38  1  0
  4 39  1  0
  4 40  1  0
  5 41  1  1
  8 42  1  0
  8 43  1  0
  8 44  1  0
  9 45  1  0
  9 46  1  0
  9 47  1  0
 10 48  1  6
 11 49  1  0
 11 50  1  0
 12 51  1  0
 12 52  1  0
 14 53  1  0
 14 54  1  0
 14 55  1  0
 15 56  1  1
 16 57  1  0
 16 58  1  0
 17 59  1  0
 19 60  1  6
 20 61  1  0
 20 62  1  0
 21 63  1  0
 21 64  1  0
 22 65  1  6
 23 66  1  0
 25 67  1  0
 25 68  1  0
 25 69  1  0
 26 70  1  0
 26 71  1  0
 26 72  1  0
 28 73  1  0
 28 74  1  0
 28 75  1  0
 29 76  1  0
 29 77  1  0
 30 78  1  0
 30 79  1  0
 32 80  1  0
 32 81  1  0
 32 82  1  0
M  END
>  <meeko>  (14) 
{"is_sidechain": [false], "intermolecular_energy": 2.731, "internal_energy": -0.839}

$$$$
EPH_relaxed_0001_pdb2pqr_Repair_288_r2_0001_out
     RDKit          3D

 82 86  0  0  0  0  0  0  0  0999 V2000
    0.1910    9.8370   -4.5350 C   0  0  0  0  0  0  0  0  0  0  0  0
    1.2690   10.5790   -3.7390 C   0  0  2  0  0  0  0  0  0  0  0  0
    1.7420    9.7740   -2.5130 C   0  0  0  0  0  0  0  0  0  0  0  0
    0.7620    8.6810   -2.0780 C   0  0  0  0  0  0  0  0  0  0  0  0
   -0.1120    9.1370   -0.9490 C   0  0  2  0  0  0  0  0  0  0  0  0
   -0.7030    8.0780   -0.1840 O   0  0  0  0  0  0  0  0  0  0  0  0
   -1.6130    8.9190   -0.9120 C   0  0  0  0  0  0  0  0  0  0  0  0
   -2.3280    8.2220   -2.0260 C   0  0  0  0  0  0  0  0  0  0  0  0
   -2.4430    9.8070   -0.0380 C   0  0  0  0  0  0  0  0  0  0  0  0
    0.7440   11.9400   -3.2980 C   0  0  1  0  0  0  0  0  0  0  0  0
   -0.7560   11.9020   -2.9000 C   0  0  0  0  0  0  0  0  0  0  0  0
   -0.9350   12.9090   -1.7340 C   0  0  0  0  0  0  0  0  0  0  0  0
    0.3780   13.7270   -1.7200 C   0  0  1  0  0  0  0  0  0  0  0  0
    0.1940   14.7990   -2.8400 C   0  0  0  0  0  0  0  0  0  0  0  0
    0.7700   14.3800   -0.3550 C   0  0  2  0  0  0  0  0  0  0  0  0
   -0.2260   15.4240    0.1790 C   0  0  0  0  0  0  0  0  0  0  0  0
    0.0340   16.8310   -0.2480 C   0  0  0  0  0  0  0  0  0  0  0  0
    1.1790   17.2850   -0.7910 C   0  0  0  0  0  0  0  0  0  0  0  0
    2.4000   16.3670   -0.9350 C   0  0  1  0  0  0  0  0  0  0  0  0
    3.6680   17.1130   -0.4410 C   0  0  0  0  0  0  0  0  0  0  0  0
    3.8640   18.4570   -1.1350 C   0  0  0  0  0  0  0  0  0  0  0  0
    2.6530   19.3620   -0.9210 C   0  0  2  0  0  0  0  0  0  0  0  0
    2.5760   19.7090    0.4660 O   0  0  0  0  0  0  0  0  0  0  0  0
    1.3150   18.7130   -1.3720 C   0  0  0  0  0  0  0  0  0  0  0  0
    1.2800   18.6150   -2.9180 C   0  0  0  0  0  0  0  0  0  0  0  0
    0.1610   19.6710   -0.9720 C   0  0  0  0  0  0  0  0  0  0  0  0
    2.2570   14.9180   -0.2980 C   0  0  1  0  0  0  0  0  0  0  0  0
    2.6590   14.9570    1.2080 C   0  0  0  0  0  0  0  0  0  0  0  0
    3.2730   13.9440   -1.0040 C   0  0  0  0  0  0  0  0  0  0  0  0
    2.7840   13.2370   -2.2820 C   0  0  0  0  0  0  0  0  0  0  0  0
    1.4120   12.5940   -2.0620 C   0  0  2  0  0  0  0  0  0  0  0  0
    1.5710   11.4950   -0.9560 C   0  0  0  0  0  0  0  0  0  0  0  0
   -0.5110    9.3538   -3.8395 H   0  0  0  0  0  0  0  0  0  0  0  0
   -0.3543   10.5520   -5.1686 H   0  0  0  0  0  0  0  0  0  0  0  0
    0.6642    9.0723   -5.1686 H   0  0  0  0  0  0  0  0  0  0  0  0
    2.1373   10.7122   -4.4011 H   0  0  0  0  0  0  0  0  0  0  0  0
    2.7037    9.3001   -2.7589 H   0  0  0  0  0  0  0  0  0  0  0  0
    1.8248   10.4828   -1.6759 H   0  0  0  0  0  0  0  0  0  0  0  0
    0.1264    8.4109   -2.9342 H   0  0  0  0  0  0  0  0  0  0  0  0
    1.3457    7.8154   -1.7316 H   0  0  0  0  0  0  0  0  0  0  0  0
    0.5069   10.0343   -0.8013 H   0  0  0  0  0  0  0  0  0  0  0  0
   -3.0562    7.5121   -1.6068 H   0  0  0  0  0  0  0  0  0  0  0  0
   -2.8537    8.9638   -2.6451 H   0  0  0  0  0  0  0  0  0  0  0  0
   -1.5998    7.6776   -2.6451 H   0  0  0  0  0  0  0  0  0  0  0  0
   -2.2329    9.5822    1.0181 H   0  0  0  0  0  0  0  0  0  0  0  0
   -2.1968   10.8589   -0.2449 H   0  0  0  0  0  0  0  0  0  0  0  0
   -3.5091    9.6324   -0.2449 H   0  0  0  0  0  0  0  0  0  0  0  0
    0.9694   12.5256   -4.2015 H   0  0  0  0  0  0  0  0  0  0  0  0
   -1.3823   12.1970   -3.7548 H   0  0  0  0  0  0  0  0  0  0  0  0
   -1.0588   10.8888   -2.5970 H   0  0  0  0  0  0  0  0  0  0  0  0
   -1.7991   13.5647   -1.9164 H   0  0  0  0  0  0  0  0  0  0  0  0
   -1.1237   12.4064   -0.7739 H   0  0  0  0  0  0  0  0  0  0  0  0
    0.0249   15.7840   -2.3805 H   0  0  0  0  0  0  0  0  0  0  0  0
    1.0989   14.8361   -3.4643 H   0  0  0  0  0  0  0  0  0  0  0  0
   -0.6715   14.5322   -3.4643 H   0  0  0  0  0  0  0  0  0  0  0  0
    0.7111   13.5289    0.3394 H   0  0  0  0  0  0  0  0  0  0  0  0
   -1.2312   15.1436   -0.1687 H   0  0  0  0  0  0  0  0  0  0  0  0
   -0.1195   15.4138    1.2738 H   0  0  0  0  0  0  0  0  0  0  0  0
   -0.7791   17.5582   -0.1069 H   0  0  0  0  0  0  0  0  0  0  0  0
    2.4907   16.1461   -2.0088 H   0  0  0  0  0  0  0  0  0  0  0  0
    3.5764   17.2853    0.6416 H   0  0  0  0  0  0  0  0  0  0  0  0
    4.5389   16.4845   -0.6788 H   0  0  0  0  0  0  0  0  0  0  0  0
    4.7580   18.9481   -0.7231 H   0  0  0  0  0  0  0  0  0  0  0  0
    3.9852   18.2812   -2.2141 H   0  0  0  0  0  0  0  0  0  0  0  0
    2.7945   20.2553   -1.5471 H   0  0  0  0  0  0  0  0  0  0  0  0
    2.8140   18.9190    0.9800 H   0  0  0  0  0  0  0  0  0  0  0  0
    0.9237   17.6173   -3.2142 H   0  0  0  0  0  0  0  0  0  0  0  0
    0.5999   19.3811   -3.3187 H   0  0  0  0  0  0  0  0  0  0  0  0
    2.2916   18.7770   -3.3187 H   0  0  0  0  0  0  0  0  0  0  0  0
    0.0940   19.7266    0.1246 H   0  0  0  0  0  0  0  0  0  0  0  0
    0.3593   20.6737   -1.3785 H   0  0  0  0  0  0  0  0  0  0  0  0
   -0.7881   19.2916   -1.3785 H   0  0  0  0  0  0  0  0  0  0  0  0
    1.7565   14.8694    1.8308 H   0  0  0  0  0  0  0  0  0  0  0  0
    3.3388   14.1206    1.4278 H   0  0  0  0  0  0  0  0  0  0  0  0
    3.1653   15.9085    1.4278 H   0  0  0  0  0  0  0  0  0  0  0  0
    4.1660   14.5294   -1.2685 H   0  0  0  0  0  0  0  0  0  0  0  0
    3.4492   13.1366   -0.2781 H   0  0  0  0  0  0  0  0  0  0  0  0
    2.7097   13.9742   -3.0950 H   0  0  0  0  0  0  0  0  0  0  0  0
    3.5037   12.4471   -2.5430 H   0  0  0  0  0  0  0  0  0  0  0  0
    1.5034   11.9622    0.0376 H   0  0  0  0  0  0  0  0  0  0  0  0
    0.7717   10.7471   -1.0646 H   0  0  0  0  0  0  0  0  0  0  0  0
    2.5495   11.0043   -1.0646 H   0  0  0  0  0  0  0  0  0  0  0  0
  1  2  1  0
  2  3  1  0
  3  4  1  0
  4  5  1  0
  5  6  1  0
  6  7  1  0
  7  8  1  0
  7  9  1  0
  2 10  1  0
 10 11  1  0
 11 12  1  0
 12 13  1  0
 13 14  1  6
 13 15  1  0
 15 16  1  0
 16 17  1  0
 17 18  2  0
 18 19  1  0
 19 20  1  0
 20 21  1  0
 21 22  1  0
 22 23  1  0
 22 24  1  0
 24 25  1  0
 24 26  1  0
 19 27  1  0
 27 28  1  1
 27 29  1  0
 29 30  1  0
 30 31  1  0
 31 32  1  1
  7  5  1  0
 31 10  1  0
 31 13  1  0
 27 15  1  0
 24 18  1  0
  1 33  1  0
  1 34  1  0
  1 35  1  0
  2 36  1  6
  3 37  1  0
  3 38  1  0
  4 39  1  0
  4 40  1  0
  5 41  1  1
  8 42  1  0
  8 43  1  0
  8 44  1  0
  9 45  1  0
  9 46  1  0
  9 47  1  0
 10 48  1  6
 11 49  1  0
 11 50  1  0
 12 51  1  0
 12 52  1  0
 14 53  1  0
 14 54  1  0
 14 55  1  0
 15 56  1  1
 16 57  1  0
 16 58  1  0
 17 59  1  0
 19 60  1  6
 20 61  1  0
 20 62  1  0
 21 63  1  0
 21 64  1  0
 22 65  1  6
 23 66  1  0
 25 67  1  0
 25 68  1  0
 25 69  1  0
 26 70  1  0
 26 71  1  0
 26 72  1  0
 28 73  1  0
 28 74  1  0
 28 75  1  0
 29 76  1  0
 29 77  1  0
 30 78  1  0
 30 79  1  0
 32 80  1  0
 32 81  1  0
 32 82  1  0
M  END
>  <meeko>  (15) 
{"is_sidechain": [false], "intermolecular_energy": 2.731, "internal_energy": -0.839}

$$$$
EPH_relaxed_0001_pdb2pqr_Repair_288_r2_0001_out
     RDKit          3D

 82 86  0  0  0  0  0  0  0  0999 V2000
   -1.7270   14.8110    0.4730 C   0  0  0  0  0  0  0  0  0  0  0  0
   -0.3810   15.5130    0.2740 C   0  0  2  0  0  0  0  0  0  0  0  0
   -0.4250   16.5400   -0.8750 C   0  0  0  0  0  0  0  0  0  0  0  0
   -0.0180   17.9540   -0.4540 C   0  0  0  0  0  0  0  0  0  0  0  0
    1.4190   18.0150   -0.0310 C   0  0  2  0  0  0  0  0  0  0  0  0
    2.0900   19.2370   -0.3650 O   0  0  0  0  0  0  0  0  0  0  0  0
    2.5770   18.0490   -1.0100 C   0  0  0  0  0  0  0  0  0  0  0  0
    2.3510   18.0230   -2.4890 C   0  0  0  0  0  0  0  0  0  0  0  0
    3.9290   17.6170   -0.5340 C   0  0  0  0  0  0  0  0  0  0  0  0
    0.7090   14.4810    0.0100 C   0  0  1  0  0  0  0  0  0  0  0  0
    0.8400   13.4440    1.1560 C   0  0  0  0  0  0  0  0  0  0  0  0
    1.2150   12.0920    0.4950 C   0  0  0  0  0  0  0  0  0  0  0  0
    1.6110   12.4630   -0.9540 C   0  0  1  0  0  0  0  0  0  0  0  0
    3.0850   12.9650   -0.8510 C   0  0  0  0  0  0  0  0  0  0  0  0
    1.4600   11.3310   -2.0220 C   0  0  2  0  0  0  0  0  0  0  0  0
    2.3430   10.0930   -1.7900 C   0  0  0  0  0  0  0  0  0  0  0  0
    3.6870   10.1390   -2.4380 C   0  0  0  0  0  0  0  0  0  0  0  0
    4.0610   10.9970   -3.4040 C   0  0  0  0  0  0  0  0  0  0  0  0
    3.0570   11.9850   -4.0130 C   0  0  1  0  0  0  0  0  0  0  0  0
    3.1810   11.9630   -5.5590 C   0  0  0  0  0  0  0  0  0  0  0  0
    4.6080   12.2150   -6.0350 C   0  0  0  0  0  0  0  0  0  0  0  0
    5.5670   11.1780   -5.4560 C   0  0  2  0  0  0  0  0  0  0  0  0
    5.2510    9.8970   -6.0090 O   0  0  0  0  0  0  0  0  0  0  0  0
    5.5230   11.1030   -3.9040 C   0  0  0  0  0  0  0  0  0  0  0  0
    6.1510   12.3840   -3.3020 C   0  0  0  0  0  0  0  0  0  0  0  0
    6.4300    9.9240   -3.4570 C   0  0  0  0  0  0  0  0  0  0  0  0
    1.5540   11.8370   -3.5190 C   0  0  1  0  0  0  0  0  0  0  0  0
    0.8080   10.7820   -4.3920 C   0  0  0  0  0  0  0  0  0  0  0  0
    0.8040   13.2040   -3.7370 C   0  0  0  0  0  0  0  0  0  0  0  0
    0.8910   14.2340   -2.5950 C   0  0  0  0  0  0  0  0  0  0  0  0
    0.5540   13.5890   -1.2470 C   0  0  2  0  0  0  0  0  0  0  0  0
   -0.9310   13.0940   -1.3130 C   0  0  0  0  0  0  0  0  0  0  0  0
   -1.9298   14.7052    1.5490 H   0  0  0  0  0  0  0  0  0  0  0  0
   -2.5244   15.4081    0.0065 H   0  0  0  0  0  0  0  0  0  0  0  0
   -1.6938   13.8154    0.0065 H   0  0  0  0  0  0  0  0  0  0  0  0
   -0.1552   16.0638    1.1990 H   0  0  0  0  0  0  0  0  0  0  0  0
    0.2594   16.2034   -1.6677 H   0  0  0  0  0  0  0  0  0  0  0  0
   -1.4692   16.5949   -1.2165 H   0  0  0  0  0  0  0  0  0  0  0  0
   -0.1687   18.6361   -1.3037 H   0  0  0  0  0  0  0  0  0  0  0  0
   -0.6405   18.2488    0.4036 H   0  0  0  0  0  0  0  0  0  0  0  0
    1.2126   17.3844    0.8464 H   0  0  0  0  0  0  0  0  0  0  0  0
    1.2773   17.8995   -2.6937 H   0  0  0  0  0  0  0  0  0  0  0  0
    2.7021   18.9675   -2.9302 H   0  0  0  0  0  0  0  0  0  0  0  0
    2.9074   17.1829   -2.9302 H   0  0  0  0  0  0  0  0  0  0  0  0
    3.9460   17.6116    0.5659 H   0  0  0  0  0  0  0  0  0  0  0  0
    4.1438   16.6055   -0.9090 H   0  0  0  0  0  0  0  0  0  0  0  0
    4.6906   18.3165   -0.9090 H   0  0  0  0  0  0  0  0  0  0  0  0
    1.5728   15.1515   -0.1089 H   0  0  0  0  0  0  0  0  0  0  0  0
    1.6276   13.7535    1.8588 H   0  0  0  0  0  0  0  0  0  0  0  0
   -0.0995   13.3599    1.7220 H   0  0  0  0  0  0  0  0  0  0  0  0
    2.0602   11.6238    1.0208 H   0  0  0  0  0  0  0  0  0  0  0  0
    0.3882   11.3673    0.5291 H   0  0  0  0  0  0  0  0  0  0  0  0
    3.3665   13.0609    0.2080 H   0  0  0  0  0  0  0  0  0  0  0  0
    3.7533   12.2438   -1.3442 H   0  0  0  0  0  0  0  0  0  0  0  0
    3.1742   13.9442   -1.3442 H   0  0  0  0  0  0  0  0  0  0  0  0
    0.4254   10.9926   -1.8635 H   0  0  0  0  0  0  0  0  0  0  0  0
    2.4918    9.9797   -0.7060 H   0  0  0  0  0  0  0  0  0  0  0  0
    1.8108    9.2483   -2.2518 H   0  0  0  0  0  0  0  0  0  0  0  0
    4.4354    9.4089   -2.0963 H   0  0  0  0  0  0  0  0  0  0  0  0
    3.3368   12.9779   -3.6310 H   0  0  0  0  0  0  0  0  0  0  0  0
    2.8561   10.9778   -5.9248 H   0  0  0  0  0  0  0  0  0  0  0  0
    2.5490   12.7710   -5.9562 H   0  0  0  0  0  0  0  0  0  0  0  0
    4.6366   12.1583   -7.1332 H   0  0  0  0  0  0  0  0  0  0  0  0
    4.9213   13.2125   -5.6933 H   0  0  0  0  0  0  0  0  0  0  0  0
    6.5879   11.4856   -5.7266 H   0  0  0  0  0  0  0  0  0  0  0  0
    6.0570    9.5500   -6.4260 H   0  0  0  0  0  0  0  0  0  0  0  0
    6.1222   12.3253   -2.2039 H   0  0  0  0  0  0  0  0  0  0  0  0
    7.1949   12.4730   -3.6372 H   0  0  0  0  0  0  0  0  0  0  0  0
    5.5820   13.2637   -3.6372 H   0  0  0  0  0  0  0  0  0  0  0  0
    6.4621    9.8822   -2.3583 H   0  0  0  0  0  0  0  0  0  0  0  0
    6.0232    8.9798   -3.8481 H   0  0  0  0  0  0  0  0  0  0  0  0
    7.4470   10.0750   -3.8481 H   0  0  0  0  0  0  0  0  0  0  0  0
    0.2974   10.0599   -3.7379 H   0  0  0  0  0  0  0  0  0  0  0  0
    0.0669   11.2895   -5.0269 H   0  0  0  0  0  0  0  0  0  0  0  0
    1.5335   10.2524   -5.0269 H   0  0  0  0  0  0  0  0  0  0  0  0
    1.2220   13.6725   -4.6402 H   0  0  0  0  0  0  0  0  0  0  0  0
   -0.2616   12.9398   -3.8056 H   0  0  0  0  0  0  0  0  0  0  0  0
    1.9124   14.6402   -2.5540 H   0  0  0  0  0  0  0  0  0  0  0  0
    0.1646   15.0365   -2.7908 H   0  0  0  0  0  0  0  0  0  0  0  0
   -1.3200   12.9643   -0.2923 H   0  0  0  0  0  0  0  0  0  0  0  0
   -1.5418   13.8371   -1.8465 H   0  0  0  0  0  0  0  0  0  0  0  0
   -0.9738   12.1330   -1.8465 H   0  0  0  0  0  0  0  0  0  0  0  0
  1  2  1  0
  2  3  1  0
  3  4  1  0
  4  5  1  0
  5  6  1  0
  6  7  1  0
  7  8  1  0
  7  9  1  0
  2 10  1  0
 10 11  1  0
 11 12  1  0
 12 13  1  0
 13 14  1  1
 13 15  1  0
 15 16  1  0
 16 17  1  0
 17 18  2  0
 18 19  1  0
 19 20  1  0
 20 21  1  0
 21 22  1  0
 22 23  1  0
 22 24  1  0
 24 25  1  0
 24 26  1  0
 19 27  1  0
 27 28  1  6
 27 29  1  0
 29 30  1  0
 30 31  1  0
 31 32  1  6
  7  5  1  0
 31 10  1  0
 31 13  1  0
 27 15  1  0
 24 18  1  0
  1 33  1  0
  1 34  1  0
  1 35  1  0
  2 36  1  1
  3 37  1  0
  3 38  1  0
  4 39  1  0
  4 40  1  0
  5 41  1  1
  8 42  1  0
  8 43  1  0
  8 44  1  0
  9 45  1  0
  9 46  1  0
  9 47  1  0
 10 48  1  6
 11 49  1  0
 11 50  1  0
 12 51  1  0
 12 52  1  0
 14 53  1  0
 14 54  1  0
 14 55  1  0
 15 56  1  6
 16 57  1  0
 16 58  1  0
 17 59  1  0
 19 60  1  1
 20 61  1  0
 20 62  1  0
 21 63  1  0
 21 64  1  0
 22 65  1  1
 23 66  1  0
 25 67  1  0
 25 68  1  0
 25 69  1  0
 26 70  1  0
 26 71  1  0
 26 72  1  0
 28 73  1  0
 28 74  1  0
 28 75  1  0
 29 76  1  0
 29 77  1  0
 30 78  1  0
 30 79  1  0
 32 80  1  0
 32 81  1  0
 32 82  1  0
M  END
>  <meeko>  (16) 
{"is_sidechain": [false], "intermolecular_energy": 2.731, "internal_energy": -0.839}

$$$$
EPH_relaxed_0001_pdb2pqr_Repair_288_r2_0001_out
     RDKit          3D

 82 86  0  0  0  0  0  0  0  0999 V2000
   -2.4190    7.7400   -0.0460 C   0  0  0  0  0  0  0  0  0  0  0  0
   -3.0560    9.1330   -0.0380 C   0  0  2  0  0  0  0  0  0  0  0  0
   -4.5450    9.0930   -0.4370 C   0  0  0  0  0  0  0  0  0  0  0  0
   -5.0370    7.7000   -0.8390 C   0  0  0  0  0  0  0  0  0  0  0  0
   -6.5050    7.6960   -1.1380 C   0  0  2  0  0  0  0  0  0  0  0  0
   -7.1300    6.4080   -1.0520 O   0  0  0  0  0  0  0  0  0  0  0  0
   -7.1100    7.0170   -2.3530 C   0  0  0  0  0  0  0  0  0  0  0  0
   -6.2570    6.2960   -3.3500 C   0  0  0  0  0  0  0  0  0  0  0  0
   -8.4560    7.4680   -2.8290 C   0  0  0  0  0  0  0  0  0  0  0  0
   -2.2900   10.0600   -0.9760 C   0  0  1  0  0  0  0  0  0  0  0  0
   -2.9320   11.4690   -1.0770 C   0  0  0  0  0  0  0  0  0  0  0  0
   -1.7670   12.4800   -1.2370 C   0  0  0  0  0  0  0  0  0  0  0  0
   -0.5320   11.6050   -1.5540 C   0  0  1  0  0  0  0  0  0  0  0  0
   -0.6400   11.2970   -3.0800 C   0  0  0  0  0  0  0  0  0  0  0  0
    0.8600   12.2150   -1.1860 C   0  0  2  0  0  0  0  0  0  0  0  0
    1.2240   13.5090   -1.9350 C   0  0  0  0  0  0  0  0  0  0  0  0
    1.9620   13.3180   -3.2180 C   0  0  0  0  0  0  0  0  0  0  0  0
    2.5670   12.1810   -3.6100 C   0  0  0  0  0  0  0  0  0  0  0  0
    2.6290   10.9610   -2.6820 C   0  0  1  0  0  0  0  0  0  0  0  0
    4.0710   10.3880   -2.6770 C   0  0  0  0  0  0  0  0  0  0  0  0
    4.5830   10.0800   -4.0800 C   0  0  0  0  0  0  0  0  0  0  0  0
    4.5600   11.3300   -4.9560 C   0  0  2  0  0  0  0  0  0  0  0  0
    5.5160   12.2650   -4.4480 O   0  0  0  0  0  0  0  0  0  0  0  0
    3.1600   12.0010   -5.0290 C   0  0  0  0  0  0  0  0  0  0  0  0
    2.1970   11.1070   -5.8490 C   0  0  0  0  0  0  0  0  0  0  0  0
    3.3070   13.3260   -5.8260 C   0  0  0  0  0  0  0  0  0  0  0  0
    2.0520   11.1750   -1.2170 C   0  0  1  0  0  0  0  0  0  0  0  0
    3.1640   11.7450   -0.2840 C   0  0  0  0  0  0  0  0  0  0  0  0
    1.6430    9.7780   -0.6170 C   0  0  0  0  0  0  0  0  0  0  0  0
    0.2140    9.2850   -0.9160 C   0  0  0  0  0  0  0  0  0  0  0  0
   -0.8170   10.3770   -0.6160 C   0  0  2  0  0  0  0  0  0  0  0  0
   -0.7470   10.6920    0.9170 C   0  0  0  0  0  0  0  0  0  0  0  0
   -2.2643    7.4016    0.9892 H   0  0  0  0  0  0  0  0  0  0  0  0
   -3.0844    7.0355   -0.5665 H   0  0  0  0  0  0  0  0  0  0  0  0
   -1.4508    7.7825   -0.5665 H   0  0  0  0  0  0  0  0  0  0  0  0
   -3.0004    9.5166    0.9915 H   0  0  0  0  0  0  0  0  0  0  0  0
   -5.1433    9.4391    0.4187 H   0  0  0  0  0  0  0  0  0  0  0  0
   -4.6593    9.7411   -1.3184 H   0  0  0  0  0  0  0  0  0  0  0  0
   -4.4897    7.3736   -1.7356 H   0  0  0  0  0  0  0  0  0  0  0  0
   -4.8567    7.0162    0.0035 H   0  0  0  0  0  0  0  0  0  0  0  0
   -6.6150    8.7112   -0.7290 H   0  0  0  0  0  0  0  0  0  0  0  0
   -5.5206    5.6736   -2.8205 H   0  0  0  0  0  0  0  0  0  0  0  0
   -6.8916    5.6564   -3.9810 H   0  0  0  0  0  0  0  0  0  0  0  0
   -5.7320    7.0283   -3.9810 H   0  0  0  0  0  0  0  0  0  0  0  0
   -9.0983    7.6832   -1.9623 H   0  0  0  0  0  0  0  0  0  0  0  0
   -8.3440    8.3777   -3.4372 H   0  0  0  0  0  0  0  0  0  0  0  0
   -8.9147    6.6745   -3.4372 H   0  0  0  0  0  0  0  0  0  0  0  0
   -2.3311    9.4640   -1.8996 H   0  0  0  0  0  0  0  0  0  0  0  0
   -3.6000   11.5194   -1.9495 H   0  0  0  0  0  0  0  0  0  0  0  0
   -3.5318   11.6952   -0.1831 H   0  0  0  0  0  0  0  0  0  0  0  0
   -1.9698   13.1789   -2.0619 H   0  0  0  0  0  0  0  0  0  0  0  0
   -1.6222   13.0955   -0.3369 H   0  0  0  0  0  0  0  0  0  0  0  0
   -1.0010   10.2676   -3.2216 H   0  0  0  0  0  0  0  0  0  0  0  0
   -1.3451   12.0003   -3.5470 H   0  0  0  0  0  0  0  0  0  0  0  0
    0.3500   11.4059   -3.5470 H   0  0  0  0  0  0  0  0  0  0  0  0
    0.7187   12.5076   -0.1351 H   0  0  0  0  0  0  0  0  0  0  0  0
    0.2906   14.0471   -2.1569 H   0  0  0  0  0  0  0  0  0  0  0  0
    1.9053   14.0624   -1.2720 H   0  0  0  0  0  0  0  0  0  0  0  0
    2.0162   14.1787   -3.9009 H   0  0  0  0  0  0  0  0  0  0  0  0
    1.9344   10.2203   -3.1051 H   0  0  0  0  0  0  0  0  0  0  0  0
    4.7416   11.1249   -2.2109 H   0  0  0  0  0  0  0  0  0  0  0  0
    4.0529    9.4435   -2.1135 H   0  0  0  0  0  0  0  0  0  0  0  0
    5.6155    9.7067   -4.0125 H   0  0  0  0  0  0  0  0  0  0  0  0
    3.9285    9.3213   -4.5338 H   0  0  0  0  0  0  0  0  0  0  0  0
    4.8126   11.0203   -5.9808 H   0  0  0  0  0  0  0  0  0  0  0  0
    5.3240   12.4010   -3.5050 H   0  0  0  0  0  0  0  0  0  0  0  0
    1.5666   10.5218   -5.1633 H   0  0  0  0  0  0  0  0  0  0  0  0
    1.5592   11.7404   -6.4830 H   0  0  0  0  0  0  0  0  0  0  0  0
    2.7813   10.4239   -6.4830 H   0  0  0  0  0  0  0  0  0  0  0  0
    3.4004   14.1677   -5.1240 H   0  0  0  0  0  0  0  0  0  0  0  0
    4.2050   13.2753   -6.4592 H   0  0  0  0  0  0  0  0  0  0  0  0
    2.4197   13.4734   -6.4592 H   0  0  0  0  0  0  0  0  0  0  0  0
    2.8733   11.5960    0.7664 H   0  0  0  0  0  0  0  0  0  0  0  0
    4.1112   11.2213   -0.4801 H   0  0  0  0  0  0  0  0  0  0  0  0
    3.2918   12.8198   -0.4801 H   0  0  0  0  0  0  0  0  0  0  0  0
    2.3435    9.0279   -1.0128 H   0  0  0  0  0  0  0  0  0  0  0  0
    1.6789    9.9117    0.4742 H   0  0  0  0  0  0  0  0  0  0  0  0
    0.1443    9.0064   -1.9778 H   0  0  0  0  0  0  0  0  0  0  0  0
    0.0015    8.4166   -0.2751 H   0  0  0  0  0  0  0  0  0  0  0  0
   -0.9508    9.7750    1.4894 H   0  0  0  0  0  0  0  0  0  0  0  0
    0.2562   11.0662    1.1690 H   0  0  0  0  0  0  0  0  0  0  0  0
   -1.4973   11.4559    1.1690 H   0  0  0  0  0  0  0  0  0  0  0  0
  1  2  1  0
  2  3  1  0
  3  4  1  0
  4  5  1  0
  5  6  1  0
  6  7  1  0
  7  8  1  0
  7  9  1  0
  2 10  1  0
 10 11  1  0
 11 12  1  0
 12 13  1  0
 13 14  1  6
 13 15  1  0
 15 16  1  0
 16 17  1  0
 17 18  2  0
 18 19  1  0
 19 20  1  0
 20 21  1  0
 21 22  1  0
 22 23  1  0
 22 24  1  0
 24 25  1  0
 24 26  1  0
 19 27  1  0
 27 28  1  1
 27 29  1  0
 29 30  1  0
 30 31  1  0
 31 32  1  1
  7  5  1  0
 31 10  1  0
 31 13  1  0
 27 15  1  0
 24 18  1  0
  1 33  1  0
  1 34  1  0
  1 35  1  0
  2 36  1  1
  3 37  1  0
  3 38  1  0
  4 39  1  0
  4 40  1  0
  5 41  1  1
  8 42  1  0
  8 43  1  0
  8 44  1  0
  9 45  1  0
  9 46  1  0
  9 47  1  0
 10 48  1  6
 11 49  1  0
 11 50  1  0
 12 51  1  0
 12 52  1  0
 14 53  1  0
 14 54  1  0
 14 55  1  0
 15 56  1  1
 16 57  1  0
 16 58  1  0
 17 59  1  0
 19 60  1  6
 20 61  1  0
 20 62  1  0
 21 63  1  0
 21 64  1  0
 22 65  1  6
 23 66  1  0
 25 67  1  0
 25 68  1  0
 25 69  1  0
 26 70  1  0
 26 71  1  0
 26 72  1  0
 28 73  1  0
 28 74  1  0
 28 75  1  0
 29 76  1  0
 29 77  1  0
 30 78  1  0
 30 79  1  0
 32 80  1  0
 32 81  1  0
 32 82  1  0
M  END
>  <meeko>  (17) 
{"is_sidechain": [false], "intermolecular_energy": 2.731, "internal_energy": -0.839}

$$$$
