EPH_relaxed_0001_pdb2pqr_Repair_99_r2_0001_out
     RDKit          3D

 82 86  0  0  0  0  0  0  0  0999 V2000
   -1.5910    8.5510   -1.8170 C   0  0  0  0  0  0  0  0  0  0  0  0
   -2.0220    9.1280   -0.4660 C   0  0  2  0  0  0  0  0  0  0  0  0
   -3.5150    9.5130   -0.4480 C   0  0  0  0  0  0  0  0  0  0  0  0
   -4.4590    8.3130   -0.3220 C   0  0  0  0  0  0  0  0  0  0  0  0
   -5.1390    8.0050   -1.6210 C   0  0  2  0  0  0  0  0  0  0  0  0
   -6.3550    8.7300   -1.8480 O   0  0  0  0  0  0  0  0  0  0  0  0
   -6.4820    7.3050   -1.7170 C   0  0  0  0  0  0  0  0  0  0  0  0
   -7.2240    6.8700   -0.4920 C   0  0  0  0  0  0  0  0  0  0  0  0
   -6.8380    6.6110   -2.9950 C   0  0  0  0  0  0  0  0  0  0  0  0
   -1.1670   10.3410   -0.1220 C   0  0  1  0  0  0  0  0  0  0  0  0
   -0.1210   10.0410    0.9850 C   0  0  0  0  0  0  0  0  0  0  0  0
    1.1390   10.8780    0.6480 C   0  0  0  0  0  0  0  0  0  0  0  0
    0.6680   11.8740   -0.4380 C   0  0  1  0  0  0  0  0  0  0  0  0
   -0.0380   13.0220    0.3500 C   0  0  0  0  0  0  0  0  0  0  0  0
    1.7730   12.4260   -1.3960 C   0  0  2  0  0  0  0  0  0  0  0  0
    2.8790   13.2480   -0.7120 C   0  0  0  0  0  0  0  0  0  0  0  0
    2.6190   14.7160   -0.6230 C   0  0  0  0  0  0  0  0  0  0  0  0
    1.6840   15.3880   -1.3190 C   0  0  0  0  0  0  0  0  0  0  0  0
    0.8320   14.6810   -2.3810 C   0  0  1  0  0  0  0  0  0  0  0  0
    0.7840   15.5460   -3.6680 C   0  0  0  0  0  0  0  0  0  0  0  0
    0.3140   16.9710   -3.3970 C   0  0  0  0  0  0  0  0  0  0  0  0
    1.2200   17.6610   -2.3810 C   0  0  2  0  0  0  0  0  0  0  0  0
    2.5150   17.8400   -2.9640 O   0  0  0  0  0  0  0  0  0  0  0  0
    1.3530   16.8760   -1.0460 C   0  0  0  0  0  0  0  0  0  0  0  0
    0.0150   16.9420   -0.2690 C   0  0  0  0  0  0  0  0  0  0  0  0
    2.4030   17.6060   -0.1650 C   0  0  0  0  0  0  0  0  0  0  0  0
    1.2100   13.1660   -2.6770 C   0  0  1  0  0  0  0  0  0  0  0  0
    2.3310   13.0990   -3.7580 C   0  0  0  0  0  0  0  0  0  0  0  0
   -0.0420   12.4330   -3.2890 C   0  0  0  0  0  0  0  0  0  0  0  0
   -1.0350   11.8050   -2.2940 C   0  0  0  0  0  0  0  0  0  0  0  0
   -0.3040   10.9480   -1.2560 C   0  0  2  0  0  0  0  0  0  0  0  0
    0.3970    9.7710   -2.0170 C   0  0  0  0  0  0  0  0  0  0  0  0
   -0.9401    7.6796   -1.6527 H   0  0  0  0  0  0  0  0  0  0  0  0
   -2.4812    8.2419   -2.3845 H   0  0  0  0  0  0  0  0  0  0  0  0
   -1.0421    9.3169   -2.3845 H   0  0  0  0  0  0  0  0  0  0  0  0
   -1.8748    8.3432    0.2906 H   0  0  0  0  0  0  0  0  0  0  0  0
   -3.6903   10.1839    0.4059 H   0  0  0  0  0  0  0  0  0  0  0  0
   -3.7344    9.9947   -1.4123 H   0  0  0  0  0  0  0  0  0  0  0  0
   -3.8781    7.4339   -0.0064 H   0  0  0  0  0  0  0  0  0  0  0  0
   -5.2324    8.5611    0.4199 H   0  0  0  0  0  0  0  0  0  0  0  0
   -4.1715    7.8160   -2.1091 H   0  0  0  0  0  0  0  0  0  0  0  0
   -6.6735    7.1927    0.4040 H   0  0  0  0  0  0  0  0  0  0  0  0
   -8.2261    7.3236   -0.4899 H   0  0  0  0  0  0  0  0  0  0  0  0
   -7.3176    5.7740   -0.4899 H   0  0  0  0  0  0  0  0  0  0  0  0
   -7.3292    5.6534   -2.7677 H   0  0  0  0  0  0  0  0  0  0  0  0
   -7.5223    7.2448   -3.5781 H   0  0  0  0  0  0  0  0  0  0  0  0
   -5.9240    6.4249   -3.5781 H   0  0  0  0  0  0  0  0  0  0  0  0
   -1.9588   11.0476    0.1674 H   0  0  0  0  0  0  0  0  0  0  0  0
   -0.5170   10.3319    1.9692 H   0  0  0  0  0  0  0  0  0  0  0  0
    0.1165    8.9676    1.0236 H   0  0  0  0  0  0  0  0  0  0  0  0
    1.4976   11.4154    1.5383 H   0  0  0  0  0  0  0  0  0  0  0  0
    1.9757   10.2519    0.3046 H   0  0  0  0  0  0  0  0  0  0  0  0
    0.0704   12.8457    1.4304 H   0  0  0  0  0  0  0  0  0  0  0  0
    0.4241   13.9851    0.0874 H   0  0  0  0  0  0  0  0  0  0  0  0
   -1.1060   13.0441    0.0874 H   0  0  0  0  0  0  0  0  0  0  0  0
    2.2608   11.5052   -1.7483 H   0  0  0  0  0  0  0  0  0  0  0  0
    3.0062   12.8626    0.3104 H   0  0  0  0  0  0  0  0  0  0  0  0
    3.7752   13.1348   -1.3397 H   0  0  0  0  0  0  0  0  0  0  0  0
    3.2449   15.2970    0.0703 H   0  0  0  0  0  0  0  0  0  0  0  0
   -0.1774   14.5948   -1.9525 H   0  0  0  0  0  0  0  0  0  0  0  0
    1.7928   15.5844   -4.1050 H   0  0  0  0  0  0  0  0  0  0  0  0
    0.0624   15.0814   -4.3561 H   0  0  0  0  0  0  0  0  0  0  0  0
    0.3297   17.5402   -4.3381 H   0  0  0  0  0  0  0  0  0  0  0  0
   -0.7062   16.9320   -2.9876 H   0  0  0  0  0  0  0  0  0  0  0  0
    0.7590   18.6282   -2.1321 H   0  0  0  0  0  0  0  0  0  0  0  0
    3.0160   18.4430   -2.3890 H   0  0  0  0  0  0  0  0  0  0  0  0
    0.2179   16.9320    0.8121 H   0  0  0  0  0  0  0  0  0  0  0  0
   -0.5174   17.8675   -0.5336 H   0  0  0  0  0  0  0  0  0  0  0  0
   -0.6059   16.0734   -0.5336 H   0  0  0  0  0  0  0  0  0  0  0  0
    2.1678   17.4425    0.8971 H   0  0  0  0  0  0  0  0  0  0  0  0
    3.4052   17.2089   -0.3840 H   0  0  0  0  0  0  0  0  0  0  0  0
    2.3798   18.6837   -0.3840 H   0  0  0  0  0  0  0  0  0  0  0  0
    3.3126   13.0403   -3.2651 H   0  0  0  0  0  0  0  0  0  0  0  0
    2.1821   12.2081   -4.3859 H   0  0  0  0  0  0  0  0  0  0  0  0
    2.2893   14.0012   -4.3859 H   0  0  0  0  0  0  0  0  0  0  0  0
   -0.5955   13.1676   -3.8923 H   0  0  0  0  0  0  0  0  0  0  0  0
    0.3701   11.5859   -3.8570 H   0  0  0  0  0  0  0  0  0  0  0  0
   -1.5822   12.6072   -1.7772 H   0  0  0  0  0  0  0  0  0  0  0  0
   -1.7309   11.1616   -2.8523 H   0  0  0  0  0  0  0  0  0  0  0  0
    0.8187    9.0629   -1.2885 H   0  0  0  0  0  0  0  0  0  0  0  0
   -0.3395    9.2524   -2.6484 H   0  0  0  0  0  0  0  0  0  0  0  0
    1.2038   10.1715   -2.6484 H   0  0  0  0  0  0  0  0  0  0  0  0
  1  2  1  0
  2  3  1  0
  3  4  1  0
  4  5  1  0
  5  6  1  0
  6  7  1  0
  7  8  1  0
  7  9  1  0
  2 10  1  0
 10 11  1  0
 11 12  1  0
 12 13  1  0
 13 14  1  1
 13 15  1  0
 15 16  1  0
 16 17  1  0
 17 18  2  0
 18 19  1  0
 19 20  1  0
 20 21  1  0
 21 22  1  0
 22 23  1  0
 22 24  1  0
 24 25  1  0
 24 26  1  0
 19 27  1  0
 27 28  1  6
 27 29  1  0
 29 30  1  0
 30 31  1  0
 31 32  1  6
  7  5  1  0
 31 10  1  0
 31 13  1  0
 27 15  1  0
 24 18  1  0
  1 33  1  0
  1 34  1  0
  1 35  1  0
  2 36  1  1
  3 37  1  0
  3 38  1  0
  4 39  1  0
  4 40  1  0
  5 41  1  6
  8 42  1  0
  8 43  1  0
  8 44  1  0
  9 45  1  0
  9 46  1  0
  9 47  1  0
 10 48  1  1
 11 49  1  0
 11 50  1  0
 12 51  1  0
 12 52  1  0
 14 53  1  0
 14 54  1  0
 14 55  1  0
 15 56  1  6
 16 57  1  0
 16 58  1  0
 17 59  1  0
 19 60  1  1
 20 61  1  0
 20 62  1  0
 21 63  1  0
 21 64  1  0
 22 65  1  1
 23 66  1  0
 25 67  1  0
 25 68  1  0
 25 69  1  0
 26 70  1  0
 26 71  1  0
 26 72  1  0
 28 73  1  0
 28 74  1  0
 28 75  1  0
 29 76  1  0
 29 77  1  0
 30 78  1  0
 30 79  1  0
 32 80  1  0
 32 81  1  0
 32 82  1  0
M  END
>  <meeko>  (1) 
{"is_sidechain": [false], "intermolecular_energy": 2.731, "internal_energy": -0.839}

$$$$
EPH_relaxed_0001_pdb2pqr_Repair_99_r2_0001_out
     RDKit          3D

 82 86  0  0  0  0  0  0  0  0999 V2000
    4.2150   17.5690   -0.6400 C   0  0  0  0  0  0  0  0  0  0  0  0
    2.8520   18.1360   -0.2330 C   0  0  2  0  0  0  0  0  0  0  0  0
    2.8980   18.8270    1.1440 C   0  0  0  0  0  0  0  0  0  0  0  0
    4.2570   18.7220    1.8410 C   0  0  0  0  0  0  0  0  0  0  0  0
    4.2050   19.2560    3.2400 C   0  0  2  0  0  0  0  0  0  0  0  0
    5.2400   20.1940    3.5620 O   0  0  0  0  0  0  0  0  0  0  0  0
    5.2590   18.9560    4.2900 C   0  0  0  0  0  0  0  0  0  0  0  0
    6.4400   18.0890    3.9840 C   0  0  0  0  0  0  0  0  0  0  0  0
    4.8930   19.0990    5.7340 C   0  0  0  0  0  0  0  0  0  0  0  0
    1.8090   17.0240   -0.2240 C   0  0  1  0  0  0  0  0  0  0  0  0
    0.3800   17.5440   -0.5360 C   0  0  0  0  0  0  0  0  0  0  0  0
   -0.3350   16.4280   -1.3410 C   0  0  0  0  0  0  0  0  0  0  0  0
    0.5740   15.1870   -1.1810 C   0  0  1  0  0  0  0  0  0  0  0  0
    0.2010   14.5940    0.2140 C   0  0  0  0  0  0  0  0  0  0  0  0
    0.4790   14.1110   -2.3110 C   0  0  2  0  0  0  0  0  0  0  0  0
   -0.8990   13.4410   -2.4590 C   0  0  0  0  0  0  0  0  0  0  0  0
   -1.0960   12.2030   -1.6490 C   0  0  0  0  0  0  0  0  0  0  0  0
   -0.1190   11.4910   -1.0570 C   0  0  0  0  0  0  0  0  0  0  0  0
    1.3560   11.8610   -1.2560 C   0  0  1  0  0  0  0  0  0  0  0  0
    2.1730   10.5820   -1.5730 C   0  0  0  0  0  0  0  0  0  0  0  0
    1.9820    9.4910   -0.5240 C   0  0  0  0  0  0  0  0  0  0  0  0
    0.5090    9.1080   -0.3960 C   0  0  2  0  0  0  0  0  0  0  0  0
    0.0890    8.4810   -1.6120 O   0  0  0  0  0  0  0  0  0  0  0  0
   -0.4140   10.3200   -0.0870 C   0  0  0  0  0  0  0  0  0  0  0  0
   -0.1600   10.8120    1.3590 C   0  0  0  0  0  0  0  0  0  0  0  0
   -1.8840    9.8220   -0.1250 C   0  0  0  0  0  0  0  0  0  0  0  0
    1.6430   13.0390   -2.2840 C   0  0  1  0  0  0  0  0  0  0  0  0
    1.7540   12.4670   -3.7310 C   0  0  0  0  0  0  0  0  0  0  0  0
    3.0410   13.6820   -1.9530 C   0  0  0  0  0  0  0  0  0  0  0  0
    3.0530   14.8220   -0.9160 C   0  0  0  0  0  0  0  0  0  0  0  0
    1.9880   15.8730   -1.2450 C   0  0  2  0  0  0  0  0  0  0  0  0
    2.3490   16.5030   -2.6330 C   0  0  0  0  0  0  0  0  0  0  0  0
    4.7959   17.3274    0.2623 H   0  0  0  0  0  0  0  0  0  0  0  0
    4.0692   16.6569   -1.2373 H   0  0  0  0  0  0  0  0  0  0  0  0
    4.7591   18.3154   -1.2373 H   0  0  0  0  0  0  0  0  0  0  0  0
    2.5756   18.8992   -0.9754 H   0  0  0  0  0  0  0  0  0  0  0  0
    2.6600   19.8920    1.0061 H   0  0  0  0  0  0  0  0  0  0  0  0
    2.1674   18.3130    1.7858 H   0  0  0  0  0  0  0  0  0  0  0  0
    4.5601   17.6651    1.8739 H   0  0  0  0  0  0  0  0  0  0  0  0
    4.9818   19.3223    1.2715 H   0  0  0  0  0  0  0  0  0  0  0  0
    3.1077   19.1802    3.2530 H   0  0  0  0  0  0  0  0  0  0  0  0
    6.9002   17.7511    4.9242 H   0  0  0  0  0  0  0  0  0  0  0  0
    6.1124   17.2153    3.4014 H   0  0  0  0  0  0  0  0  0  0  0  0
    7.1754   18.6633    3.4014 H   0  0  0  0  0  0  0  0  0  0  0  0
    5.7354   18.7699    6.3601 H   0  0  0  0  0  0  0  0  0  0  0  0
    4.6641   20.1527    5.9516 H   0  0  0  0  0  0  0  0  0  0  0  0
    4.0104   18.4796    5.9516 H   0  0  0  0  0  0  0  0  0  0  0  0
    1.9517   16.6447    0.7986 H   0  0  0  0  0  0  0  0  0  0  0  0
   -0.1632   17.7439    0.3994 H   0  0  0  0  0  0  0  0  0  0  0  0
    0.4169   18.4827   -1.1083 H   0  0  0  0  0  0  0  0  0  0  0  0
   -1.3357   16.2320   -0.9283 H   0  0  0  0  0  0  0  0  0  0  0  0
   -0.4821   16.7038   -2.3957 H   0  0  0  0  0  0  0  0  0  0  0  0
    0.6068   15.2392    1.0071 H   0  0  0  0  0  0  0  0  0  0  0  0
   -0.8936   14.5407    0.3090 H   0  0  0  0  0  0  0  0  0  0  0  0
    0.6269   13.5843    0.3090 H   0  0  0  0  0  0  0  0  0  0  0  0
    0.6190   14.7114   -3.2220 H   0  0  0  0  0  0  0  0  0  0  0  0
   -1.6656   14.1700   -2.1576 H   0  0  0  0  0  0  0  0  0  0  0  0
   -0.9754   13.1314   -3.5117 H   0  0  0  0  0  0  0  0  0  0  0  0
   -2.1275   11.8416   -1.5252 H   0  0  0  0  0  0  0  0  0  0  0  0
    1.6925   12.2913   -0.3012 H   0  0  0  0  0  0  0  0  0  0  0  0
    1.8521   10.1917   -2.5501 H   0  0  0  0  0  0  0  0  0  0  0  0
    3.2377   10.8584   -1.5773 H   0  0  0  0  0  0  0  0  0  0  0  0
    2.5604    8.6030   -0.8188 H   0  0  0  0  0  0  0  0  0  0  0  0
    2.3309    9.8728    0.4468 H   0  0  0  0  0  0  0  0  0  0  0  0
    0.4194    8.4199    0.4575 H   0  0  0  0  0  0  0  0  0  0  0  0
   -0.5670    9.0630   -2.0320 H   0  0  0  0  0  0  0  0  0  0  0  0
   -0.5441   10.0679    2.0723 H   0  0  0  0  0  0  0  0  0  0  0  0
    0.9204   10.9468    1.5160 H   0  0  0  0  0  0  0  0  0  0  0  0
   -0.6758   11.7708    1.5160 H   0  0  0  0  0  0  0  0  0  0  0  0
   -2.2552    9.6962    0.9028 H   0  0  0  0  0  0  0  0  0  0  0  0
   -2.5073   10.5591   -0.6524 H   0  0  0  0  0  0  0  0  0  0  0  0
   -1.9310    8.8578   -0.6524 H   0  0  0  0  0  0  0  0  0  0  0  0
    1.9634   11.3881   -3.6837 H   0  0  0  0  0  0  0  0  0  0  0  0
    0.8068   12.6337   -4.2648 H   0  0  0  0  0  0  0  0  0  0  0  0
    2.5702   12.9758   -4.2648 H   0  0  0  0  0  0  0  0  0  0  0  0
    3.6945   12.8817   -1.5755 H   0  0  0  0  0  0  0  0  0  0  0  0
    3.3752   14.1446   -2.8934 H   0  0  0  0  0  0  0  0  0  0  0  0
    2.8501   14.4038    0.0810 H   0  0  0  0  0  0  0  0  0  0  0  0
    4.0410   15.3051   -0.9368 H   0  0  0  0  0  0  0  0  0  0  0  0
    2.8904   17.4478   -2.4772 H   0  0  0  0  0  0  0  0  0  0  0  0
    2.9843   15.8053   -3.1983 H   0  0  0  0  0  0  0  0  0  0  0  0
    1.4258   16.6983   -3.1983 H   0  0  0  0  0  0  0  0  0  0  0  0
  1  2  1  0
  2  3  1  0
  3  4  1  0
  4  5  1  0
  5  6  1  0
  6  7  1  0
  7  8  1  0
  7  9  1  0
  2 10  1  0
 10 11  1  0
 11 12  1  0
 12 13  1  0
 13 14  1  1
 13 15  1  0
 15 16  1  0
 16 17  1  0
 17 18  2  0
 18 19  1  0
 19 20  1  0
 20 21  1  0
 21 22  1  0
 22 23  1  0
 22 24  1  0
 24 25  1  0
 24 26  1  0
 19 27  1  0
 27 28  1  6
 27 29  1  0
 29 30  1  0
 30 31  1  0
 31 32  1  6
  7  5  1  0
 31 10  1  0
 31 13  1  0
 27 15  1  0
 24 18  1  0
  1 33  1  0
  1 34  1  0
  1 35  1  0
  2 36  1  6
  3 37  1  0
  3 38  1  0
  4 39  1  0
  4 40  1  0
  5 41  1  1
  8 42  1  0
  8 43  1  0
  8 44  1  0
  9 45  1  0
  9 46  1  0
  9 47  1  0
 10 48  1  1
 11 49  1  0
 11 50  1  0
 12 51  1  0
 12 52  1  0
 14 53  1  0
 14 54  1  0
 14 55  1  0
 15 56  1  6
 16 57  1  0
 16 58  1  0
 17 59  1  0
 19 60  1  1
 20 61  1  0
 20 62  1  0
 21 63  1  0
 21 64  1  0
 22 65  1  1
 23 66  1  0
 25 67  1  0
 25 68  1  0
 25 69  1  0
 26 70  1  0
 26 71  1  0
 26 72  1  0
 28 73  1  0
 28 74  1  0
 28 75  1  0
 29 76  1  0
 29 77  1  0
 30 78  1  0
 30 79  1  0
 32 80  1  0
 32 81  1  0
 32 82  1  0
M  END
>  <meeko>  (2) 
{"is_sidechain": [false], "intermolecular_energy": 2.731, "internal_energy": -0.839}

$$$$
EPH_relaxed_0001_pdb2pqr_Repair_99_r2_0001_out
     RDKit          3D

 82 86  0  0  0  0  0  0  0  0999 V2000
    2.2040   18.0190   -2.6340 C   0  0  0  0  0  0  0  0  0  0  0  0
    0.6820   17.8540   -2.6550 C   0  0  2  0  0  0  0  0  0  0  0  0
    0.0310   18.3090   -1.3330 C   0  0  0  0  0  0  0  0  0  0  0  0
    0.8250   17.9100   -0.0860 C   0  0  0  0  0  0  0  0  0  0  0  0
    1.3710   19.1080    0.6300 C   0  0  2  0  0  0  0  0  0  0  0  0
    2.3050   19.8850   -0.1310 O   0  0  0  0  0  0  0  0  0  0  0  0
    2.8240   19.2440    1.0450 C   0  0  0  0  0  0  0  0  0  0  0  0
    3.8210   18.1650    0.7600 C   0  0  0  0  0  0  0  0  0  0  0  0
    3.1660   20.1940    2.1490 C   0  0  0  0  0  0  0  0  0  0  0  0
    0.3210   16.4010   -2.9400 C   0  0  1  0  0  0  0  0  0  0  0  0
    0.3820   16.0560   -4.4530 C   0  0  0  0  0  0  0  0  0  0  0  0
    0.8800   14.5920   -4.5580 C   0  0  0  0  0  0  0  0  0  0  0  0
    0.7710   14.0380   -3.1180 C   0  0  1  0  0  0  0  0  0  0  0  0
   -0.7310   13.6490   -2.9500 C   0  0  0  0  0  0  0  0  0  0  0  0
    1.7200   12.8480   -2.7620 C   0  0  2  0  0  0  0  0  0  0  0  0
    1.4930   11.5650   -3.5810 C   0  0  0  0  0  0  0  0  0  0  0  0
    0.5190   10.5980   -2.9950 C   0  0  0  0  0  0  0  0  0  0  0  0
    0.0680   10.6130   -1.7260 C   0  0  0  0  0  0  0  0  0  0  0  0
    0.6170   11.6200   -0.7080 C   0  0  1  0  0  0  0  0  0  0  0  0
    0.9470   10.8870    0.6190 C   0  0  0  0  0  0  0  0  0  0  0  0
   -0.2400   10.0970    1.1610 C   0  0  0  0  0  0  0  0  0  0  0  0
   -0.7200    9.0670    0.1430 C   0  0  2  0  0  0  0  0  0  0  0  0
    0.2960    8.0730   -0.0220 O   0  0  0  0  0  0  0  0  0  0  0  0
   -1.0730    9.6880   -1.2380 C   0  0  0  0  0  0  0  0  0  0  0  0
   -2.3650   10.5330   -1.1130 C   0  0  0  0  0  0  0  0  0  0  0  0
   -1.4070    8.5270   -2.2130 C   0  0  0  0  0  0  0  0  0  0  0  0
    1.8150   12.5350   -1.2130 C   0  0  1  0  0  0  0  0  0  0  0  0
    3.1740   11.8050   -0.9890 C   0  0  0  0  0  0  0  0  0  0  0  0
    1.8650   13.8450   -0.3410 C   0  0  0  0  0  0  0  0  0  0  0  0
    0.9970   15.0270   -0.8110 C   0  0  0  0  0  0  0  0  0  0  0  0
    1.2130   15.3070   -2.3020 C   0  0  2  0  0  0  0  0  0  0  0  0
    2.7110   15.7240   -2.4980 C   0  0  0  0  0  0  0  0  0  0  0  0
    2.5544   18.0570   -1.5920 H   0  0  0  0  0  0  0  0  0  0  0  0
    2.6724   17.1664   -3.1475 H   0  0  0  0  0  0  0  0  0  0  0  0
    2.4788   18.9522   -3.1475 H   0  0  0  0  0  0  0  0  0  0  0  0
    0.2898   18.4985   -3.4555 H   0  0  0  0  0  0  0  0  0  0  0  0
   -0.0606   19.4050   -1.3503 H   0  0  0  0  0  0  0  0  0  0  0  0
   -0.9455   17.8070   -1.2663 H   0  0  0  0  0  0  0  0  0  0  0  0
    0.1626   17.3578    0.5969 H   0  0  0  0  0  0  0  0  0  0  0  0
    1.6724   17.2850   -0.4043 H   0  0  0  0  0  0  0  0  0  0  0  0
    0.4301   19.2348    1.1856 H   0  0  0  0  0  0  0  0  0  0  0  0
    4.1993   17.7556    1.7083 H   0  0  0  0  0  0  0  0  0  0  0  0
    3.3386   17.3636    0.1811 H   0  0  0  0  0  0  0  0  0  0  0  0
    4.6579   18.5827    0.1811 H   0  0  0  0  0  0  0  0  0  0  0  0
    2.9906   19.7068    3.1195 H   0  0  0  0  0  0  0  0  0  0  0  0
    4.2245   20.4826    2.0696 H   0  0  0  0  0  0  0  0  0  0  0  0
    2.5344   21.0911    2.0696 H   0  0  0  0  0  0  0  0  0  0  0  0
   -0.6853   16.3715   -2.4967 H   0  0  0  0  0  0  0  0  0  0  0  0
   -0.6172   16.1495   -4.9034 H   0  0  0  0  0  0  0  0  0  0  0  0
    1.0558   16.7417   -4.9876 H   0  0  0  0  0  0  0  0  0  0  0  0
    0.2447   14.0142   -5.2454 H   0  0  0  0  0  0  0  0  0  0  0  0
    1.9046   14.5274   -4.9531 H   0  0  0  0  0  0  0  0  0  0  0  0
   -0.9758   13.5856   -1.8795 H   0  0  0  0  0  0  0  0  0  0  0  0
   -1.3631   14.4131   -3.4261 H   0  0  0  0  0  0  0  0  0  0  0  0
   -0.9128   12.6742   -3.4261 H   0  0  0  0  0  0  0  0  0  0  0  0
    2.7038   13.2306   -3.0715 H   0  0  0  0  0  0  0  0  0  0  0  0
    1.1250   11.8574   -4.5755 H   0  0  0  0  0  0  0  0  0  0  0  0
    2.4616   11.0442   -3.6049 H   0  0  0  0  0  0  0  0  0  0  0  0
    0.1370    9.8057   -3.6556 H   0  0  0  0  0  0  0  0  0  0  0  0
   -0.1871   12.3518   -0.5412 H   0  0  0  0  0  0  0  0  0  0  0  0
    1.7810   10.1924    0.4403 H   0  0  0  0  0  0  0  0  0  0  0  0
    1.2094   11.6505    1.3661 H   0  0  0  0  0  0  0  0  0  0  0  0
    0.0633    9.5783    2.0824 H   0  0  0  0  0  0  0  0  0  0  0  0
   -1.0631   10.7971    1.3669 H   0  0  0  0  0  0  0  0  0  0  0  0
   -1.6482    8.6250    0.5343 H   0  0  0  0  0  0  0  0  0  0  0  0
    1.0040    8.2670    0.6160 H   0  0  0  0  0  0  0  0  0  0  0  0
   -2.6008   10.6872   -0.0497 H   0  0  0  0  0  0  0  0  0  0  0  0
   -2.2143   11.5076   -1.6003 H   0  0  0  0  0  0  0  0  0  0  0  0
   -3.1975   10.0043   -1.6003 H   0  0  0  0  0  0  0  0  0  0  0  0
   -1.6660    7.6268   -1.6362 H   0  0  0  0  0  0  0  0  0  0  0  0
   -2.2590    8.8141   -2.8468 H   0  0  0  0  0  0  0  0  0  0  0  0
   -0.5327    8.3175   -2.8468 H   0  0  0  0  0  0  0  0  0  0  0  0
    3.3624   11.7038    0.0900 H   0  0  0  0  0  0  0  0  0  0  0  0
    3.1343   10.8068   -1.4495 H   0  0  0  0  0  0  0  0  0  0  0  0
    3.9843   12.3892   -1.4495 H   0  0  0  0  0  0  0  0  0  0  0  0
    1.5425   13.5796    0.6766 H   0  0  0  0  0  0  0  0  0  0  0  0
    2.9026   14.2020   -0.4182 H   0  0  0  0  0  0  0  0  0  0  0  0
   -0.0625   14.7859   -0.6399 H   0  0  0  0  0  0  0  0  0  0  0  0
    1.2849   15.9224   -0.2406 H   0  0  0  0  0  0  0  0  0  0  0  0
    3.1864   15.8563   -1.5149 H   0  0  0  0  0  0  0  0  0  0  0  0
    3.2399   14.9389   -3.0583 H   0  0  0  0  0  0  0  0  0  0  0  0
    2.7581   16.6694   -3.0583 H   0  0  0  0  0  0  0  0  0  0  0  0
  1  2  1  0
  2  3  1  0
  3  4  1  0
  4  5  1  0
  5  6  1  0
  6  7  1  0
  7  8  1  0
  7  9  1  0
  2 10  1  0
 10 11  1  0
 11 12  1  0
 12 13  1  0
 13 14  1  1
 13 15  1  0
 15 16  1  0
 16 17  1  0
 17 18  2  0
 18 19  1  0
 19 20  1  0
 20 21  1  0
 21 22  1  0
 22 23  1  0
 22 24  1  0
 24 25  1  0
 24 26  1  0
 19 27  1  0
 27 28  1  6
 27 29  1  0
 29 30  1  0
 30 31  1  0
 31 32  1  1
  7  5  1  0
 31 10  1  0
 31 13  1  0
 27 15  1  0
 24 18  1  0
  1 33  1  0
  1 34  1  0
  1 35  1  0
  2 36  1  6
  3 37  1  0
  3 38  1  0
  4 39  1  0
  4 40  1  0
  5 41  1  1
  8 42  1  0
  8 43  1  0
  8 44  1  0
  9 45  1  0
  9 46  1  0
  9 47  1  0
 10 48  1  1
 11 49  1  0
 11 50  1  0
 12 51  1  0
 12 52  1  0
 14 53  1  0
 14 54  1  0
 14 55  1  0
 15 56  1  6
 16 57  1  0
 16 58  1  0
 17 59  1  0
 19 60  1  1
 20 61  1  0
 20 62  1  0
 21 63  1  0
 21 64  1  0
 22 65  1  1
 23 66  1  0
 25 67  1  0
 25 68  1  0
 25 69  1  0
 26 70  1  0
 26 71  1  0
 26 72  1  0
 28 73  1  0
 28 74  1  0
 28 75  1  0
 29 76  1  0
 29 77  1  0
 30 78  1  0
 30 79  1  0
 32 80  1  0
 32 81  1  0
 32 82  1  0
M  END
>  <meeko>  (3) 
{"is_sidechain": [false], "intermolecular_energy": 2.731, "internal_energy": -0.839}

$$$$
EPH_relaxed_0001_pdb2pqr_Repair_99_r2_0001_out
     RDKit          3D

 82 86  0  0  0  0  0  0  0  0999 V2000
    2.1880   18.0250   -2.7030 C   0  0  0  0  0  0  0  0  0  0  0  0
    0.9210   17.5990   -1.9560 C   0  0  2  0  0  0  0  0  0  0  0  0
    1.1100   17.6320   -0.4260 C   0  0  0  0  0  0  0  0  0  0  0  0
    0.8150   18.9970    0.2010 C   0  0  0  0  0  0  0  0  0  0  0  0
   -0.6240   19.1240    0.6020 C   0  0  2  0  0  0  0  0  0  0  0  0
   -1.5180   18.2410   -0.0880 O   0  0  0  0  0  0  0  0  0  0  0  0
   -1.7070   19.6460   -0.3230 C   0  0  0  0  0  0  0  0  0  0  0  0
   -1.3980   20.0770   -1.7220 C   0  0  0  0  0  0  0  0  0  0  0  0
   -2.9620   20.1940    0.2830 C   0  0  0  0  0  0  0  0  0  0  0  0
    0.5030   16.2020   -2.3990 C   0  0  1  0  0  0  0  0  0  0  0  0
    0.5760   16.0160   -3.9380 C   0  0  0  0  0  0  0  0  0  0  0  0
    1.0110   14.5500   -4.1910 C   0  0  0  0  0  0  0  0  0  0  0  0
    0.8530   13.8530   -2.8200 C   0  0  1  0  0  0  0  0  0  0  0  0
   -0.6670   13.5160   -2.7140 C   0  0  0  0  0  0  0  0  0  0  0  0
    1.7430   12.5900   -2.5790 C   0  0  2  0  0  0  0  0  0  0  0  0
    1.4760   11.4120   -3.5330 C   0  0  0  0  0  0  0  0  0  0  0  0
    0.4510   10.4330   -3.0650 C   0  0  0  0  0  0  0  0  0  0  0  0
   -0.0220   10.3360   -1.8080 C   0  0  0  0  0  0  0  0  0  0  0  0
    0.5520   11.2040   -0.6810 C   0  0  1  0  0  0  0  0  0  0  0  0
    0.8270   10.3210    0.5640 C   0  0  0  0  0  0  0  0  0  0  0  0
   -0.4030    9.5330    1.0040 C   0  0  0  0  0  0  0  0  0  0  0  0
   -0.9090    8.6380   -0.1240 C   0  0  2  0  0  0  0  0  0  0  0  0
    0.0660    7.6220   -0.3800 O   0  0  0  0  0  0  0  0  0  0  0  0
   -1.2110    9.4160   -1.4350 C   0  0  0  0  0  0  0  0  0  0  0  0
   -2.4660   10.3010   -1.2380 C   0  0  0  0  0  0  0  0  0  0  0  0
   -1.5770    8.3800   -2.5320 C   0  0  0  0  0  0  0  0  0  0  0  0
    1.7970   12.1120   -1.0720 C   0  0  1  0  0  0  0  0  0  0  0  0
    3.1190   11.3020   -0.9080 C   0  0  0  0  0  0  0  0  0  0  0  0
    1.8880   13.3190   -0.0650 C   0  0  0  0  0  0  0  0  0  0  0  0
    1.0810   14.5820   -0.4190 C   0  0  0  0  0  0  0  0  0  0  0  0
    1.3350   15.0080   -1.8680 C   0  0  2  0  0  0  0  0  0  0  0  0
    2.8530   15.3750   -1.9990 C   0  0  0  0  0  0  0  0  0  0  0  0
    2.9709   18.2882   -1.9766 H   0  0  0  0  0  0  0  0  0  0  0  0
    2.5379   17.1951   -3.3345 H   0  0  0  0  0  0  0  0  0  0  0  0
    1.9654   18.8977   -3.3345 H   0  0  0  0  0  0  0  0  0  0  0  0
    0.1300   18.3213   -2.2062 H   0  0  0  0  0  0  0  0  0  0  0  0
    0.4339   16.8899    0.0236 H   0  0  0  0  0  0  0  0  0  0  0  0
    2.1688   17.4093   -0.2279 H   0  0  0  0  0  0  0  0  0  0  0  0
    1.4461   19.1233    1.0931 H   0  0  0  0  0  0  0  0  0  0  0  0
    1.0317   19.7725   -0.5484 H   0  0  0  0  0  0  0  0  0  0  0  0
   -0.3383   19.3936    1.6295 H   0  0  0  0  0  0  0  0  0  0  0  0
   -0.7572   20.9708   -1.6972 H   0  0  0  0  0  0  0  0  0  0  0  0
   -0.8749   19.2652   -2.2487 H   0  0  0  0  0  0  0  0  0  0  0  0
   -2.3347   20.3119   -2.2487 H   0  0  0  0  0  0  0  0  0  0  0  0
   -2.8847   20.1602    1.3798 H   0  0  0  0  0  0  0  0  0  0  0  0
   -3.1022   21.2352   -0.0428 H   0  0  0  0  0  0  0  0  0  0  0  0
   -3.8210   19.5891   -0.0428 H   0  0  0  0  0  0  0  0  0  0  0  0
   -0.5118   16.1712   -1.9755 H   0  0  0  0  0  0  0  0  0  0  0  0
   -0.4098   16.2019   -4.3892 H   0  0  0  0  0  0  0  0  0  0  0  0
    1.2888   16.7228   -4.3879 H   0  0  0  0  0  0  0  0  0  0  0  0
    0.3630   14.0773   -4.9437 H   0  0  0  0  0  0  0  0  0  0  0  0
    2.0385   14.4810   -4.5776 H   0  0  0  0  0  0  0  0  0  0  0  0
   -0.9554   13.4521   -1.6544 H   0  0  0  0  0  0  0  0  0  0  0  0
   -1.2529   14.3060   -3.2064 H   0  0  0  0  0  0  0  0  0  0  0  0
   -0.8641   12.5523   -3.2064 H   0  0  0  0  0  0  0  0  0  0  0  0
    2.7479   12.9586   -2.8325 H   0  0  0  0  0  0  0  0  0  0  0  0
    1.1384   11.8238   -4.4955 H   0  0  0  0  0  0  0  0  0  0  0  0
    2.4217   10.8541   -3.6002 H   0  0  0  0  0  0  0  0  0  0  0  0
    0.0479    9.7313   -3.8101 H   0  0  0  0  0  0  0  0  0  0  0  0
   -0.2224   11.9491   -0.4460 H   0  0  0  0  0  0  0  0  0  0  0  0
    1.6326    9.6119    0.3227 H   0  0  0  0  0  0  0  0  0  0  0  0
    1.1102   10.9883    1.3913 H   0  0  0  0  0  0  0  0  0  0  0  0
   -0.1392    8.9073    1.8694 H   0  0  0  0  0  0  0  0  0  0  0  0
   -1.1984   10.2440    1.2720 H   0  0  0  0  0  0  0  0  0  0  0  0
   -1.8620    8.1988    0.2060 H   0  0  0  0  0  0  0  0  0  0  0  0
    0.9290    7.9650   -0.0940 H   0  0  0  0  0  0  0  0  0  0  0  0
   -2.6554   10.4345   -0.1627 H   0  0  0  0  0  0  0  0  0  0  0  0
   -2.2995   11.2826   -1.7057 H   0  0  0  0  0  0  0  0  0  0  0  0
   -3.3347    9.8146   -1.7057 H   0  0  0  0  0  0  0  0  0  0  0  0
   -1.9075    7.4444   -2.0571 H   0  0  0  0  0  0  0  0  0  0  0  0
   -2.3882    8.7800   -3.1580 H   0  0  0  0  0  0  0  0  0  0  0  0
   -0.6945    8.1816   -3.1580 H   0  0  0  0  0  0  0  0  0  0  0  0
    3.3369   11.1685    0.1619 H   0  0  0  0  0  0  0  0  0  0  0  0
    3.0072   10.3172   -1.3851 H   0  0  0  0  0  0  0  0  0  0  0  0
    3.9457   11.8488   -1.3851 H   0  0  0  0  0  0  0  0  0  0  0  0
    1.5355   12.9626    0.9141 H   0  0  0  0  0  0  0  0  0  0  0  0
    2.9414   13.6348   -0.0892 H   0  0  0  0  0  0  0  0  0  0  0  0
    0.0091   14.3722   -0.2885 H   0  0  0  0  0  0  0  0  0  0  0  0
    1.3981   15.3982    0.2467 H   0  0  0  0  0  0  0  0  0  0  0  0
    3.2924   15.4812   -0.9962 H   0  0  0  0  0  0  0  0  0  0  0  0
    3.3771   14.5777   -2.5464 H   0  0  0  0  0  0  0  0  0  0  0  0
    2.9550   16.3237   -2.5464 H   0  0  0  0  0  0  0  0  0  0  0  0
  1  2  1  0
  2  3  1  0
  3  4  1  0
  4  5  1  0
  5  6  1  0
  6  7  1  0
  7  8  1  0
  7  9  1  0
  2 10  1  0
 10 11  1  0
 11 12  1  0
 12 13  1  0
 13 14  1  1
 13 15  1  0
 15 16  1  0
 16 17  1  0
 17 18  2  0
 18 19  1  0
 19 20  1  0
 20 21  1  0
 21 22  1  0
 22 23  1  0
 22 24  1  0
 24 25  1  0
 24 26  1  0
 19 27  1  0
 27 28  1  6
 27 29  1  0
 29 30  1  0
 30 31  1  0
 31 32  1  1
  7  5  1  0
 31 10  1  0
 31 13  1  0
 27 15  1  0
 24 18  1  0
  1 33  1  0
  1 34  1  0
  1 35  1  0
  2 36  1  1
  3 37  1  0
  3 38  1  0
  4 39  1  0
  4 40  1  0
  5 41  1  1
  8 42  1  0
  8 43  1  0
  8 44  1  0
  9 45  1  0
  9 46  1  0
  9 47  1  0
 10 48  1  1
 11 49  1  0
 11 50  1  0
 12 51  1  0
 12 52  1  0
 14 53  1  0
 14 54  1  0
 14 55  1  0
 15 56  1  6
 16 57  1  0
 16 58  1  0
 17 59  1  0
 19 60  1  1
 20 61  1  0
 20 62  1  0
 21 63  1  0
 21 64  1  0
 22 65  1  1
 23 66  1  0
 25 67  1  0
 25 68  1  0
 25 69  1  0
 26 70  1  0
 26 71  1  0
 26 72  1  0
 28 73  1  0
 28 74  1  0
 28 75  1  0
 29 76  1  0
 29 77  1  0
 30 78  1  0
 30 79  1  0
 32 80  1  0
 32 81  1  0
 32 82  1  0
M  END
>  <meeko>  (4) 
{"is_sidechain": [false], "intermolecular_energy": 2.731, "internal_energy": -0.839}

$$$$
EPH_relaxed_0001_pdb2pqr_Repair_99_r2_0001_out
     RDKit          3D

 82 86  0  0  0  0  0  0  0  0999 V2000
   -3.4560    9.3260    0.4040 C   0  0  0  0  0  0  0  0  0  0  0  0
   -2.5740    9.6570   -0.8030 C   0  0  2  0  0  0  0  0  0  0  0  0
   -1.8900    8.4030   -1.3840 C   0  0  0  0  0  0  0  0  0  0  0  0
   -2.7800    7.6020   -2.3380 C   0  0  0  0  0  0  0  0  0  0  0  0
   -4.2300    7.7270   -1.9790 C   0  0  2  0  0  0  0  0  0  0  0  0
   -4.8000    6.5580   -1.3760 O   0  0  0  0  0  0  0  0  0  0  0  0
   -5.3310    6.9340   -2.6570 C   0  0  0  0  0  0  0  0  0  0  0  0
   -5.0290    5.9570   -3.7500 C   0  0  0  0  0  0  0  0  0  0  0  0
   -6.7320    7.4590   -2.5990 C   0  0  0  0  0  0  0  0  0  0  0  0
   -1.5230   10.6900   -0.4120 C   0  0  1  0  0  0  0  0  0  0  0  0
   -0.4350   10.1070    0.5290 C   0  0  0  0  0  0  0  0  0  0  0  0
    0.8980   10.8070    0.1580 C   0  0  0  0  0  0  0  0  0  0  0  0
    0.4780   11.9940   -0.7410 C   0  0  1  0  0  0  0  0  0  0  0  0
    0.0230   13.1080    0.2530 C   0  0  0  0  0  0  0  0  0  0  0  0
    1.5590   12.5190   -1.7410 C   0  0  2  0  0  0  0  0  0  0  0  0
    2.8310   13.0880   -1.0890 C   0  0  0  0  0  0  0  0  0  0  0  0
    2.7970   14.5510   -0.7950 C   0  0  0  0  0  0  0  0  0  0  0  0
    1.9090   15.4300   -1.2970 C   0  0  0  0  0  0  0  0  0  0  0  0
    0.8690   14.9910   -2.3360 C   0  0  1  0  0  0  0  0  0  0  0  0
    0.8290   16.0200   -3.4960 C   0  0  0  0  0  0  0  0  0  0  0  0
    0.5980   17.4460   -3.0050 C   0  0  0  0  0  0  0  0  0  0  0  0
    1.6850   17.8660   -2.0190 C   0  0  2  0  0  0  0  0  0  0  0  0
    2.9320   17.9500   -2.7150 O   0  0  0  0  0  0  0  0  0  0  0  0
    1.8250   16.8980   -0.8110 C   0  0  0  0  0  0  0  0  0  0  0  0
    0.5880   17.0340    0.1110 C   0  0  0  0  0  0  0  0  0  0  0  0
    3.0460   17.3560    0.0300 C   0  0  0  0  0  0  0  0  0  0  0  0
    0.9940   13.4930   -2.8530 C   0  0  1  0  0  0  0  0  0  0  0  0
    1.9890   13.4260   -4.0520 C   0  0  0  0  0  0  0  0  0  0  0  0
   -0.4020   13.0230   -3.4080 C   0  0  0  0  0  0  0  0  0  0  0  0
   -1.3810   12.4030   -2.3920 C   0  0  0  0  0  0  0  0  0  0  0  0
   -0.6890   11.3240   -1.5530 C   0  0  2  0  0  0  0  0  0  0  0  0
   -0.2400   10.1780   -2.5230 C   0  0  0  0  0  0  0  0  0  0  0  0
   -2.9018    9.5340    1.3311 H   0  0  0  0  0  0  0  0  0  0  0  0
   -4.3655    9.9440    0.3740 H   0  0  0  0  0  0  0  0  0  0  0  0
   -3.7344    8.2622    0.3740 H   0  0  0  0  0  0  0  0  0  0  0  0
   -3.2269   10.0696   -1.5862 H   0  0  0  0  0  0  0  0  0  0  0  0
   -0.9909    8.7206   -1.9324 H   0  0  0  0  0  0  0  0  0  0  0  0
   -1.6537    7.7439   -0.5356 H   0  0  0  0  0  0  0  0  0  0  0  0
   -2.6326    7.9761   -3.3619 H   0  0  0  0  0  0  0  0  0  0  0  0
   -2.4978    6.5416   -2.2617 H   0  0  0  0  0  0  0  0  0  0  0  0
   -4.1119    8.8020   -1.7780 H   0  0  0  0  0  0  0  0  0  0  0  0
   -4.7314    4.9941   -3.3092 H   0  0  0  0  0  0  0  0  0  0  0  0
   -5.9249    5.8142   -4.3720 H   0  0  0  0  0  0  0  0  0  0  0  0
   -4.2088    6.3447   -4.3720 H   0  0  0  0  0  0  0  0  0  0  0  0
   -7.0375    7.5735   -1.5485 H   0  0  0  0  0  0  0  0  0  0  0  0
   -6.7787    8.4357   -3.1030 H   0  0  0  0  0  0  0  0  0  0  0  0
   -7.4091    6.7536   -3.1030 H   0  0  0  0  0  0  0  0  0  0  0  0
   -2.1729   11.4507    0.0450 H   0  0  0  0  0  0  0  0  0  0  0  0
   -0.6918   10.3129    1.5786 H   0  0  0  0  0  0  0  0  0  0  0  0
   -0.3545    9.0162    0.4121 H   0  0  0  0  0  0  0  0  0  0  0  0
    1.4122   11.1669    1.0613 H   0  0  0  0  0  0  0  0  0  0  0  0
    1.5992   10.1276   -0.3486 H   0  0  0  0  0  0  0  0  0  0  0  0
    0.1658   12.7583    1.2861 H   0  0  0  0  0  0  0  0  0  0  0  0
    0.6227   14.0150    0.0867 H   0  0  0  0  0  0  0  0  0  0  0  0
   -1.0402   13.3358    0.0867 H   0  0  0  0  0  0  0  0  0  0  0  0
    1.8735   11.5975   -2.2528 H   0  0  0  0  0  0  0  0  0  0  0  0
    2.9948   12.5545   -0.1411 H   0  0  0  0  0  0  0  0  0  0  0  0
    3.6390   12.9435   -1.8212 H   0  0  0  0  0  0  0  0  0  0  0  0
    3.5624   14.9446   -0.1100 H   0  0  0  0  0  0  0  0  0  0  0  0
   -0.0982   14.9815   -1.8121 H   0  0  0  0  0  0  0  0  0  0  0  0
    1.7881   15.9831   -4.0334 H   0  0  0  0  0  0  0  0  0  0  0  0
   -0.0128   15.7519   -4.1514 H   0  0  0  0  0  0  0  0  0  0  0  0
    0.6097   18.1298   -3.8666 H   0  0  0  0  0  0  0  0  0  0  0  0
   -0.3751   17.4881   -2.4939 H   0  0  0  0  0  0  0  0  0  0  0  0
    1.3943   18.8430   -1.6054 H   0  0  0  0  0  0  0  0  0  0  0  0
    2.9270   17.2700   -3.4110 H   0  0  0  0  0  0  0  0  0  0  0  0
    0.9088   16.9987    1.1626 H   0  0  0  0  0  0  0  0  0  0  0  0
    0.0865   17.9927   -0.0874 H   0  0  0  0  0  0  0  0  0  0  0  0
   -0.1099   16.2072   -0.0874 H   0  0  0  0  0  0  0  0  0  0  0  0
    2.8082   17.2668    1.1003 H   0  0  0  0  0  0  0  0  0  0  0  0
    3.9131   16.7220   -0.2071 H   0  0  0  0  0  0  0  0  0  0  0  0
    3.2822   18.4039   -0.2071 H   0  0  0  0  0  0  0  0  0  0  0  0
    3.0185   13.3567   -3.6707 H   0  0  0  0  0  0  0  0  0  0  0  0
    1.7648   12.5409   -4.6655 H   0  0  0  0  0  0  0  0  0  0  0  0
    1.8855   14.3331   -4.6655 H   0  0  0  0  0  0  0  0  0  0  0  0
   -0.8953   13.8996   -3.8531 H   0  0  0  0  0  0  0  0  0  0  0  0
   -0.1722   12.2138   -4.1168 H   0  0  0  0  0  0  0  0  0  0  0  0
   -1.7553   13.1931   -1.7245 H   0  0  0  0  0  0  0  0  0  0  0  0
   -2.2123   11.9395   -2.9434 H   0  0  0  0  0  0  0  0  0  0  0  0
    0.0992    9.3122   -1.9354 H   0  0  0  0  0  0  0  0  0  0  0  0
   -1.0883    9.8811   -3.1572 H   0  0  0  0  0  0  0  0  0  0  0  0
    0.5842   10.5364   -3.1572 H   0  0  0  0  0  0  0  0  0  0  0  0
  1  2  1  0
  2  3  1  0
  3  4  1  0
  4  5  1  0
  5  6  1  0
  6  7  1  0
  7  8  1  0
  7  9  1  0
  2 10  1  0
 10 11  1  0
 11 12  1  0
 12 13  1  0
 13 14  1  1
 13 15  1  0
 15 16  1  0
 16 17  1  0
 17 18  2  0
 18 19  1  0
 19 20  1  0
 20 21  1  0
 21 22  1  0
 22 23  1  0
 22 24  1  0
 24 25  1  0
 24 26  1  0
 19 27  1  0
 27 28  1  6
 27 29  1  0
 29 30  1  0
 30 31  1  0
 31 32  1  6
  7  5  1  0
 31 10  1  0
 31 13  1  0
 27 15  1  0
 24 18  1  0
  1 33  1  0
  1 34  1  0
  1 35  1  0
  2 36  1  6
  3 37  1  0
  3 38  1  0
  4 39  1  0
  4 40  1  0
  5 41  1  1
  8 42  1  0
  8 43  1  0
  8 44  1  0
  9 45  1  0
  9 46  1  0
  9 47  1  0
 10 48  1  1
 11 49  1  0
 11 50  1  0
 12 51  1  0
 12 52  1  0
 14 53  1  0
 14 54  1  0
 14 55  1  0
 15 56  1  6
 16 57  1  0
 16 58  1  0
 17 59  1  0
 19 60  1  1
 20 61  1  0
 20 62  1  0
 21 63  1  0
 21 64  1  0
 22 65  1  1
 23 66  1  0
 25 67  1  0
 25 68  1  0
 25 69  1  0
 26 70  1  0
 26 71  1  0
 26 72  1  0
 28 73  1  0
 28 74  1  0
 28 75  1  0
 29 76  1  0
 29 77  1  0
 30 78  1  0
 30 79  1  0
 32 80  1  0
 32 81  1  0
 32 82  1  0
M  END
>  <meeko>  (5) 
{"is_sidechain": [false], "intermolecular_energy": 2.731, "internal_energy": -0.839}

$$$$
EPH_relaxed_0001_pdb2pqr_Repair_99_r2_0001_out
     RDKit          3D

 82 86  0  0  0  0  0  0  0  0999 V2000
    3.6380   17.6980    0.6860 C   0  0  0  0  0  0  0  0  0  0  0  0
    2.7630   17.9620   -0.5430 C   0  0  2  0  0  0  0  0  0  0  0  0
    2.0900   19.3480   -0.4900 C   0  0  0  0  0  0  0  0  0  0  0  0
    1.2150   19.5600    0.7490 C   0  0  0  0  0  0  0  0  0  0  0  0
   -0.1260   20.1240    0.3900 C   0  0  2  0  0  0  0  0  0  0  0  0
   -1.0570   20.1930    1.4780 O   0  0  0  0  0  0  0  0  0  0  0  0
   -1.4060   19.3090    0.4000 C   0  0  0  0  0  0  0  0  0  0  0  0
   -1.4060   17.8610    0.7760 C   0  0  0  0  0  0  0  0  0  0  0  0
   -2.5640   19.7860   -0.4200 C   0  0  0  0  0  0  0  0  0  0  0  0
    1.7040   16.8730   -0.6710 C   0  0  1  0  0  0  0  0  0  0  0  0
    0.4380   17.3570   -1.4270 C   0  0  0  0  0  0  0  0  0  0  0  0
   -0.0870   16.1470   -2.2410 C   0  0  0  0  0  0  0  0  0  0  0  0
    0.6860   14.9320   -1.6760 C   0  0  1  0  0  0  0  0  0  0  0  0
   -0.0760   14.5450   -0.3700 C   0  0  0  0  0  0  0  0  0  0  0  0
    0.8460   13.7080   -2.6350 C   0  0  2  0  0  0  0  0  0  0  0  0
   -0.4710   13.0380   -3.0640 C   0  0  0  0  0  0  0  0  0  0  0  0
   -0.9380   11.9280   -2.1810 C   0  0  0  0  0  0  0  0  0  0  0  0
   -0.1910   11.2970   -1.2560 C   0  0  0  0  0  0  0  0  0  0  0  0
    1.2990   11.6210   -1.0930 C   0  0  1  0  0  0  0  0  0  0  0  0
    2.1100   10.3010   -1.0020 C   0  0  0  0  0  0  0  0  0  0  0  0
    1.5920    9.3710    0.0910 C   0  0  0  0  0  0  0  0  0  0  0  0
    0.1230    9.0250   -0.1390 C   0  0  2  0  0  0  0  0  0  0  0  0
    0.0150    8.2370   -1.3290 O   0  0  0  0  0  0  0  0  0  0  0  0
   -0.7910   10.2770   -0.2570 C   0  0  0  0  0  0  0  0  0  0  0  0
   -0.9120   10.9650    1.1250 C   0  0  0  0  0  0  0  0  0  0  0  0
   -2.2190    9.7930   -0.6280 C   0  0  0  0  0  0  0  0  0  0  0  0
    1.9080   12.6390   -2.1510 C   0  0  1  0  0  0  0  0  0  0  0  0
    2.3760   11.8680   -3.4220 C   0  0  0  0  0  0  0  0  0  0  0  0
    3.1940   13.3090   -1.5380 C   0  0  0  0  0  0  0  0  0  0  0  0
    2.9820   14.5830   -0.6990 C   0  0  0  0  0  0  0  0  0  0  0  0
    2.0950   15.5880   -1.4420 C   0  0  2  0  0  0  0  0  0  0  0  0
    2.8460   16.0130   -2.7500 C   0  0  0  0  0  0  0  0  0  0  0  0
    3.0508   17.8752    1.5991 H   0  0  0  0  0  0  0  0  0  0  0  0
    3.9864   16.6547    0.6708 H   0  0  0  0  0  0  0  0  0  0  0  0
    4.5053   18.3745    0.6708 H   0  0  0  0  0  0  0  0  0  0  0  0
    3.4194   17.9476   -1.4256 H   0  0  0  0  0  0  0  0  0  0  0  0
    2.8769   20.1167   -0.4952 H   0  0  0  0  0  0  0  0  0  0  0  0
    1.4290   19.4184   -1.3665 H   0  0  0  0  0  0  0  0  0  0  0  0
    1.0717   18.5933    1.2539 H   0  0  0  0  0  0  0  0  0  0  0  0
    1.7235   20.2779    1.4094 H   0  0  0  0  0  0  0  0  0  0  0  0
    0.3261   20.7783   -0.3699 H   0  0  0  0  0  0  0  0  0  0  0  0
   -0.3689   17.5061    0.8682 H   0  0  0  0  0  0  0  0  0  0  0  0
   -1.9245   17.7318    1.7375 H   0  0  0  0  0  0  0  0  0  0  0  0
   -1.9245   17.2804   -0.0012 H   0  0  0  0  0  0  0  0  0  0  0  0
   -3.3729   20.1192    0.2468 H   0  0  0  0  0  0  0  0  0  0  0  0
   -2.2429   20.6251   -1.0547 H   0  0  0  0  0  0  0  0  0  0  0  0
   -2.9271   18.9642   -1.0547 H   0  0  0  0  0  0  0  0  0  0  0  0
    1.5488   16.6409    0.3930 H   0  0  0  0  0  0  0  0  0  0  0  0
   -0.3264   17.6916   -0.7102 H   0  0  0  0  0  0  0  0  0  0  0  0
    0.6724   18.2051   -2.0871 H   0  0  0  0  0  0  0  0  0  0  0  0
   -1.1698   16.0207   -2.0944 H   0  0  0  0  0  0  0  0  0  0  0  0
    0.0673   16.2733   -3.3228 H   0  0  0  0  0  0  0  0  0  0  0  0
    0.5187   14.8470    0.5047 H   0  0  0  0  0  0  0  0  0  0  0  0
   -1.0486   15.0584   -0.3471 H   0  0  0  0  0  0  0  0  0  0  0  0
   -0.2352   13.4568   -0.3471 H   0  0  0  0  0  0  0  0  0  0  0  0
    1.2539   14.1735   -3.5444 H   0  0  0  0  0  0  0  0  0  0  0  0
   -1.2546   13.8097   -3.0834 H   0  0  0  0  0  0  0  0  0  0  0  0
   -0.2760   12.5841   -4.0468 H   0  0  0  0  0  0  0  0  0  0  0  0
   -1.9810   11.5980   -2.2963 H   0  0  0  0  0  0  0  0  0  0  0  0
    1.3862   12.1788   -0.1489 H   0  0  0  0  0  0  0  0  0  0  0  0
    2.0452    9.7798   -1.9685 H   0  0  0  0  0  0  0  0  0  0  0  0
    3.1488   10.5635   -0.7528 H   0  0  0  0  0  0  0  0  0  0  0  0
    2.1851    8.4446    0.0866 H   0  0  0  0  0  0  0  0  0  0  0  0
    1.6850    9.8822    1.0606 H   0  0  0  0  0  0  0  0  0  0  0  0
   -0.2248    8.4648    0.7414 H   0  0  0  0  0  0  0  0  0  0  0  0
   -0.9020    7.9200   -1.3900 H   0  0  0  0  0  0  0  0  0  0  0  0
   -0.7803   10.2163    1.9201 H   0  0  0  0  0  0  0  0  0  0  0  0
   -0.1362   11.7393    1.2183 H   0  0  0  0  0  0  0  0  0  0  0  0
   -1.9054   11.4281    1.2183 H   0  0  0  0  0  0  0  0  0  0  0  0
   -2.7909    9.5992    0.2914 H   0  0  0  0  0  0  0  0  0  0  0  0
   -2.7272   10.5691   -1.2191 H   0  0  0  0  0  0  0  0  0  0  0  0
   -2.1506    8.8679   -1.2191 H   0  0  0  0  0  0  0  0  0  0  0  0
    2.9250   10.9636   -3.1208 H   0  0  0  0  0  0  0  0  0  0  0  0
    1.4989   11.5821   -4.0211 H   0  0  0  0  0  0  0  0  0  0  0  0
    3.0344   12.5141   -4.0211 H   0  0  0  0  0  0  0  0  0  0  0  0
    3.6820   12.5635   -0.8930 H   0  0  0  0  0  0  0  0  0  0  0  0
    3.7905   13.6314   -2.4041 H   0  0  0  0  0  0  0  0  0  0  0  0
    2.4999   14.3116    0.2517 H   0  0  0  0  0  0  0  0  0  0  0  0
    3.9614   15.0487   -0.5149 H   0  0  0  0  0  0  0  0  0  0  0  0
    3.7751   16.5388   -2.4850 H   0  0  0  0  0  0  0  0  0  0  0  0
    3.0874   15.1176   -3.3416 H   0  0  0  0  0  0  0  0  0  0  0  0
    2.2027   16.6809   -3.3416 H   0  0  0  0  0  0  0  0  0  0  0  0
  1  2  1  0
  2  3  1  0
  3  4  1  0
  4  5  1  0
  5  6  1  0
  6  7  1  0
  7  8  1  0
  7  9  1  0
  2 10  1  0
 10 11  1  0
 11 12  1  0
 12 13  1  0
 13 14  1  1
 13 15  1  0
 15 16  1  0
 16 17  1  0
 17 18  2  0
 18 19  1  0
 19 20  1  0
 20 21  1  0
 21 22  1  0
 22 23  1  0
 22 24  1  0
 24 25  1  0
 24 26  1  0
 19 27  1  0
 27 28  1  6
 27 29  1  0
 29 30  1  0
 30 31  1  0
 31 32  1  6
  7  5  1  0
 31 10  1  0
 31 13  1  0
 27 15  1  0
 24 18  1  0
  1 33  1  0
  1 34  1  0
  1 35  1  0
  2 36  1  6
  3 37  1  0
  3 38  1  0
  4 39  1  0
  4 40  1  0
  5 41  1  6
  8 42  1  0
  8 43  1  0
  8 44  1  0
  9 45  1  0
  9 46  1  0
  9 47  1  0
 10 48  1  1
 11 49  1  0
 11 50  1  0
 12 51  1  0
 12 52  1  0
 14 53  1  0
 14 54  1  0
 14 55  1  0
 15 56  1  6
 16 57  1  0
 16 58  1  0
 17 59  1  0
 19 60  1  1
 20 61  1  0
 20 62  1  0
 21 63  1  0
 21 64  1  0
 22 65  1  1
 23 66  1  0
 25 67  1  0
 25 68  1  0
 25 69  1  0
 26 70  1  0
 26 71  1  0
 26 72  1  0
 28 73  1  0
 28 74  1  0
 28 75  1  0
 29 76  1  0
 29 77  1  0
 30 78  1  0
 30 79  1  0
 32 80  1  0
 32 81  1  0
 32 82  1  0
M  END
>  <meeko>  (6) 
{"is_sidechain": [false], "intermolecular_energy": 2.731, "internal_energy": -0.839}

$$$$
EPH_relaxed_0001_pdb2pqr_Repair_99_r2_0001_out
     RDKit          3D

 82 86  0  0  0  0  0  0  0  0999 V2000
   -5.1740    5.8270   -1.5730 C   0  0  0  0  0  0  0  0  0  0  0  0
   -5.4310    7.3300   -1.7120 C   0  0  2  0  0  0  0  0  0  0  0  0
   -5.1980    8.0840   -0.3880 C   0  0  0  0  0  0  0  0  0  0  0  0
   -4.1080    9.1560   -0.4740 C   0  0  0  0  0  0  0  0  0  0  0  0
   -2.8050    8.5850   -0.9480 C   0  0  2  0  0  0  0  0  0  0  0  0
   -1.7160    8.7350   -0.0280 O   0  0  0  0  0  0  0  0  0  0  0  0
   -1.5910    9.4330   -1.2780 C   0  0  0  0  0  0  0  0  0  0  0  0
   -1.6210   10.9230   -1.1480 C   0  0  0  0  0  0  0  0  0  0  0  0
   -0.5450    8.8630   -2.1850 C   0  0  0  0  0  0  0  0  0  0  0  0
   -6.8540    7.5700   -2.2040 C   0  0  1  0  0  0  0  0  0  0  0  0
   -7.1370    6.8870   -3.5690 C   0  0  0  0  0  0  0  0  0  0  0  0
   -8.6160    6.4240   -3.5390 C   0  0  0  0  0  0  0  0  0  0  0  0
   -9.2240    7.1390   -2.3100 C   0  0  1  0  0  0  0  0  0  0  0  0
   -9.5540    8.5810   -2.8090 C   0  0  0  0  0  0  0  0  0  0  0  0
  -10.4690    6.4540   -1.6580 C   0  0  2  0  0  0  0  0  0  0  0  0
  -11.7050    6.3450   -2.5680 C   0  0  0  0  0  0  0  0  0  0  0  0
  -12.6530    7.4960   -2.4980 C   0  0  0  0  0  0  0  0  0  0  0  0
  -12.6700    8.4370   -1.5360 C   0  0  0  0  0  0  0  0  0  0  0  0
  -11.7320    8.3440   -0.3260 C   0  0  1  0  0  0  0  0  0  0  0  0
  -12.5340    8.6180    0.9730 C   0  0  0  0  0  0  0  0  0  0  0  0
  -13.2940    9.9400    0.9240 C   0  0  0  0  0  0  0  0  0  0  0  0
  -14.2580    9.9710   -0.2580 C   0  0  2  0  0  0  0  0  0  0  0  0
  -15.2870    9.0020   -0.0390 O   0  0  0  0  0  0  0  0  0  0  0  0
  -13.5650    9.6980   -1.6220 C   0  0  0  0  0  0  0  0  0  0  0  0
  -12.6690   10.9040   -2.0020 C   0  0  0  0  0  0  0  0  0  0  0  0
  -14.6680    9.6180   -2.7110 C   0  0  0  0  0  0  0  0  0  0  0  0
  -10.8500    7.0250   -0.2320 C   0  0  1  0  0  0  0  0  0  0  0  0
  -11.6480    5.9020    0.4980 C   0  0  0  0  0  0  0  0  0  0  0  0
   -9.5820    7.3170    0.6540 C   0  0  0  0  0  0  0  0  0  0  0  0
   -8.3440    7.8810   -0.0690 C   0  0  0  0  0  0  0  0  0  0  0  0
   -8.0110    7.0520   -1.3140 C   0  0  2  0  0  0  0  0  0  0  0  0
   -7.6530    5.6020   -0.8420 C   0  0  0  0  0  0  0  0  0  0  0  0
   -5.1283    5.5599   -0.5069 H   0  0  0  0  0  0  0  0  0  0  0  0
   -5.9898    5.2693   -2.0561 H   0  0  0  0  0  0  0  0  0  0  0  0
   -4.2192    5.5720   -2.0561 H   0  0  0  0  0  0  0  0  0  0  0  0
   -4.7118    7.7222   -2.4461 H   0  0  0  0  0  0  0  0  0  0  0  0
   -6.1403    8.5696   -0.0944 H   0  0  0  0  0  0  0  0  0  0  0  0
   -4.8610    7.3412    0.3500 H   0  0  0  0  0  0  0  0  0  0  0  0
   -4.4315    9.9377   -1.1770 H   0  0  0  0  0  0  0  0  0  0  0  0
   -3.9546    9.5707    0.5332 H   0  0  0  0  0  0  0  0  0  0  0  0
   -3.3274    7.7953   -1.5078 H   0  0  0  0  0  0  0  0  0  0  0  0
   -1.6265   11.1981   -0.0830 H   0  0  0  0  0  0  0  0  0  0  0  0
   -0.7313   11.3513   -1.6327 H   0  0  0  0  0  0  0  0  0  0  0  0
   -2.5272   11.3152   -1.6327 H   0  0  0  0  0  0  0  0  0  0  0  0
    0.2628    8.4228   -1.5820 H   0  0  0  0  0  0  0  0  0  0  0  0
   -0.9944    8.0851   -2.8197 H   0  0  0  0  0  0  0  0  0  0  0  0
   -0.1349    9.6624   -2.8197 H   0  0  0  0  0  0  0  0  0  0  0  0
   -6.8588    8.6698   -2.2252 H   0  0  0  0  0  0  0  0  0  0  0  0
   -6.9805    7.6021   -4.3901 H   0  0  0  0  0  0  0  0  0  0  0  0
   -6.4598    6.0358   -3.7327 H   0  0  0  0  0  0  0  0  0  0  0  0
   -9.1360    6.7255   -4.4602 H   0  0  0  0  0  0  0  0  0  0  0  0
   -8.7093    5.3299   -3.4734 H   0  0  0  0  0  0  0  0  0  0  0  0
   -9.7055    9.2428   -1.9435 H   0  0  0  0  0  0  0  0  0  0  0  0
   -8.7190    8.9585   -3.4175 H   0  0  0  0  0  0  0  0  0  0  0  0
  -10.4700    8.5578   -3.4175 H   0  0  0  0  0  0  0  0  0  0  0  0
  -10.1181    5.4226   -1.5059 H   0  0  0  0  0  0  0  0  0  0  0  0
  -11.3551    6.2558   -3.6070 H   0  0  0  0  0  0  0  0  0  0  0  0
  -12.2661    5.4673   -2.2147 H   0  0  0  0  0  0  0  0  0  0  0  0
  -13.4006    7.5823   -3.3003 H   0  0  0  0  0  0  0  0  0  0  0  0
  -10.9733    9.1276   -0.4685 H   0  0  0  0  0  0  0  0  0  0  0  0
  -13.2562    7.8014    1.1203 H   0  0  0  0  0  0  0  0  0  0  0  0
  -11.8146    8.6772    1.8031 H   0  0  0  0  0  0  0  0  0  0  0  0
  -13.8640   10.0624    1.8568 H   0  0  0  0  0  0  0  0  0  0  0  0
  -12.5682   10.7582    0.8068 H   0  0  0  0  0  0  0  0  0  0  0  0
  -14.6750   10.9872   -0.3164 H   0  0  0  0  0  0  0  0  0  0  0  0
  -14.8970    8.2670    0.4630 H   0  0  0  0  0  0  0  0  0  0  0  0
  -12.3054   11.3935   -1.0865 H   0  0  0  0  0  0  0  0  0  0  0  0
  -11.8119   10.5516   -2.5946 H   0  0  0  0  0  0  0  0  0  0  0  0
  -13.2538   11.6229   -2.5946 H   0  0  0  0  0  0  0  0  0  0  0  0
  -15.6543    9.5465   -2.2293 H   0  0  0  0  0  0  0  0  0  0  0  0
  -14.6307   10.5212   -3.3377 H   0  0  0  0  0  0  0  0  0  0  0  0
  -14.5007    8.7296   -3.3377 H   0  0  0  0  0  0  0  0  0  0  0  0
  -11.5544    6.0337    1.5861 H   0  0  0  0  0  0  0  0  0  0  0  0
  -12.7084    5.9602    0.2115 H   0  0  0  0  0  0  0  0  0  0  0  0
  -11.2442    4.9197    0.2115 H   0  0  0  0  0  0  0  0  0  0  0  0
   -9.8758    8.0431    1.4263 H   0  0  0  0  0  0  0  0  0  0  0  0
   -9.2680    6.3357    1.0392 H   0  0  0  0  0  0  0  0  0  0  0  0
   -8.5457    8.9192   -0.3713 H   0  0  0  0  0  0  0  0  0  0  0  0
   -7.4869    7.8401    0.6192 H   0  0  0  0  0  0  0  0  0  0  0  0
   -7.6441    5.5660    0.2574 H   0  0  0  0  0  0  0  0  0  0  0  0
   -8.4037    4.8956   -1.2260 H   0  0  0  0  0  0  0  0  0  0  0  0
   -6.6598    5.3261   -1.2260 H   0  0  0  0  0  0  0  0  0  0  0  0
  1  2  1  0
  2  3  1  0
  3  4  1  0
  4  5  1  0
  5  6  1  0
  6  7  1  0
  7  8  1  0
  7  9  1  0
  2 10  1  0
 10 11  1  0
 11 12  1  0
 12 13  1  0
 13 14  1  6
 13 15  1  0
 15 16  1  0
 16 17  1  0
 17 18  2  0
 18 19  1  0
 19 20  1  0
 20 21  1  0
 21 22  1  0
 22 23  1  0
 22 24  1  0
 24 25  1  0
 24 26  1  0
 19 27  1  0
 27 28  1  1
 27 29  1  0
 29 30  1  0
 30 31  1  0
 31 32  1  1
  7  5  1  0
 31 10  1  0
 31 13  1  0
 27 15  1  0
 24 18  1  0
  1 33  1  0
  1 34  1  0
  1 35  1  0
  2 36  1  6
  3 37  1  0
  3 38  1  0
  4 39  1  0
  4 40  1  0
  5 41  1  6
  8 42  1  0
  8 43  1  0
  8 44  1  0
  9 45  1  0
  9 46  1  0
  9 47  1  0
 10 48  1  6
 11 49  1  0
 11 50  1  0
 12 51  1  0
 12 52  1  0
 14 53  1  0
 14 54  1  0
 14 55  1  0
 15 56  1  1
 16 57  1  0
 16 58  1  0
 17 59  1  0
 19 60  1  6
 20 61  1  0
 20 62  1  0
 21 63  1  0
 21 64  1  0
 22 65  1  6
 23 66  1  0
 25 67  1  0
 25 68  1  0
 25 69  1  0
 26 70  1  0
 26 71  1  0
 26 72  1  0
 28 73  1  0
 28 74  1  0
 28 75  1  0
 29 76  1  0
 29 77  1  0
 30 78  1  0
 30 79  1  0
 32 80  1  0
 32 81  1  0
 32 82  1  0
M  END
>  <meeko>  (7) 
{"is_sidechain": [false], "intermolecular_energy": 2.731, "internal_energy": -0.839}

$$$$
EPH_relaxed_0001_pdb2pqr_Repair_99_r2_0001_out
     RDKit          3D

 82 86  0  0  0  0  0  0  0  0999 V2000
    0.3900    8.7950   -2.3380 C   0  0  0  0  0  0  0  0  0  0  0  0
    1.1320    9.9330   -3.0470 C   0  0  2  0  0  0  0  0  0  0  0  0
    2.6350    9.9490   -2.7030 C   0  0  0  0  0  0  0  0  0  0  0  0
    3.5110   10.5550   -3.8020 C   0  0  0  0  0  0  0  0  0  0  0  0
    4.9070   10.8100   -3.3200 C   0  0  2  0  0  0  0  0  0  0  0  0
    5.4980   12.0210   -3.8100 O   0  0  0  0  0  0  0  0  0  0  0  0
    6.1220   10.7970   -4.2300 C   0  0  0  0  0  0  0  0  0  0  0  0
    5.9960   10.5200   -5.6950 C   0  0  0  0  0  0  0  0  0  0  0  0
    7.4700   10.5680   -3.6200 C   0  0  0  0  0  0  0  0  0  0  0  0
    0.5000   11.2710   -2.6830 C   0  0  1  0  0  0  0  0  0  0  0  0
   -0.8730   11.1110   -1.9760 C   0  0  0  0  0  0  0  0  0  0  0  0
   -0.9770   12.2570   -0.9370 C   0  0  0  0  0  0  0  0  0  0  0  0
    0.1730   13.2230   -1.3050 C   0  0  1  0  0  0  0  0  0  0  0  0
   -0.3820   14.0760   -2.4890 C   0  0  0  0  0  0  0  0  0  0  0  0
    0.7150   14.1250   -0.1490 C   0  0  2  0  0  0  0  0  0  0  0  0
   -0.3080   15.1090    0.4460 C   0  0  0  0  0  0  0  0  0  0  0  0
   -0.3520   16.4520   -0.2040 C   0  0  0  0  0  0  0  0  0  0  0  0
    0.5850   16.9530   -1.0290 C   0  0  0  0  0  0  0  0  0  0  0  0
    1.8820   16.1830   -1.3080 C   0  0  1  0  0  0  0  0  0  0  0  0
    3.0920   17.1470   -1.1930 C   0  0  0  0  0  0  0  0  0  0  0  0
    2.9440   18.3800   -2.0790 C   0  0  0  0  0  0  0  0  0  0  0  0
    1.6730   19.1510   -1.7320 C   0  0  2  0  0  0  0  0  0  0  0  0
    1.8100   19.6980   -0.4160 O   0  0  0  0  0  0  0  0  0  0  0  0
    0.3880   18.2800   -1.8040 C   0  0  0  0  0  0  0  0  0  0  0  0
    0.0740   17.9370   -3.2820 C   0  0  0  0  0  0  0  0  0  0  0  0
   -0.8010   19.1390   -1.2950 C   0  0  0  0  0  0  0  0  0  0  0  0
    2.0860   14.8450   -0.4760 C   0  0  1  0  0  0  0  0  0  0  0  0
    2.7570   15.1670    0.8940 C   0  0  0  0  0  0  0  0  0  0  0  0
    3.0850   13.9050   -1.2490 C   0  0  0  0  0  0  0  0  0  0  0  0
    2.4750   12.9520   -2.2950 C   0  0  0  0  0  0  0  0  0  0  0  0
    1.2840   12.1870   -1.7090 C   0  0  2  0  0  0  0  0  0  0  0  0
    1.8160   11.3030   -0.5300 C   0  0  0  0  0  0  0  0  0  0  0  0
    0.4745    8.9246   -1.2489 H   0  0  0  0  0  0  0  0  0  0  0  0
   -0.6709    8.8123   -2.6281 H   0  0  0  0  0  0  0  0  0  0  0  0
    0.8338    7.8312   -2.6281 H   0  0  0  0  0  0  0  0  0  0  0  0
    1.0432    9.7622   -4.1300 H   0  0  0  0  0  0  0  0  0  0  0  0
    2.7747   10.5369   -1.7838 H   0  0  0  0  0  0  0  0  0  0  0  0
    2.9486    8.9015   -2.5828 H   0  0  0  0  0  0  0  0  0  0  0  0
    3.5491    9.8583   -4.6524 H   0  0  0  0  0  0  0  0  0  0  0  0
    3.0700   11.5174   -4.1006 H   0  0  0  0  0  0  0  0  0  0  0  0
    4.6945   10.3066   -2.3653 H   0  0  0  0  0  0  0  0  0  0  0  0
    5.5447    9.5278   -5.8431 H   0  0  0  0  0  0  0  0  0  0  0  0
    5.3578   11.2861   -6.1595 H   0  0  0  0  0  0  0  0  0  0  0  0
    6.9929   10.5424   -6.1595 H   0  0  0  0  0  0  0  0  0  0  0  0
    7.3836   10.5827   -2.5235 H   0  0  0  0  0  0  0  0  0  0  0  0
    7.8580    9.5911   -3.9442 H   0  0  0  0  0  0  0  0  0  0  0  0
    8.1588   11.3620   -3.9442 H   0  0  0  0  0  0  0  0  0  0  0  0
    0.4572   11.7318   -3.6809 H   0  0  0  0  0  0  0  0  0  0  0  0
   -1.6885   11.1899   -2.7100 H   0  0  0  0  0  0  0  0  0  0  0  0
   -0.9546   10.1279   -1.4893 H   0  0  0  0  0  0  0  0  0  0  0  0
   -1.9500   12.7642   -1.0145 H   0  0  0  0  0  0  0  0  0  0  0  0
   -0.8991   11.8906    0.0973 H   0  0  0  0  0  0  0  0  0  0  0  0
   -0.9413   14.9356   -2.0911 H   0  0  0  0  0  0  0  0  0  0  0  0
    0.4549   14.4365   -3.1051 H   0  0  0  0  0  0  0  0  0  0  0  0
   -1.0507   13.4569   -3.1051 H   0  0  0  0  0  0  0  0  0  0  0  0
    0.9209   13.3915    0.6445 H   0  0  0  0  0  0  0  0  0  0  0  0
   -1.3065   14.6559    0.3583 H   0  0  0  0  0  0  0  0  0  0  0  0
    0.0062   15.2837    1.4856 H   0  0  0  0  0  0  0  0  0  0  0  0
   -1.2251   17.0861    0.0098 H   0  0  0  0  0  0  0  0  0  0  0  0
    1.7988   15.8109   -2.3398 H   0  0  0  0  0  0  0  0  0  0  0  0
    3.1843   17.4737   -0.1467 H   0  0  0  0  0  0  0  0  0  0  0  0
    3.9866   16.6012   -1.5272 H   0  0  0  0  0  0  0  0  0  0  0  0
    3.8146   19.0359   -1.9316 H   0  0  0  0  0  0  0  0  0  0  0  0
    2.8818   18.0537   -3.1276 H   0  0  0  0  0  0  0  0  0  0  0  0
    1.5550   19.9461   -2.4829 H   0  0  0  0  0  0  0  0  0  0  0  0
    0.9910   20.1800   -0.2110 H   0  0  0  0  0  0  0  0  0  0  0  0
   -0.6683   17.1261   -3.3205 H   0  0  0  0  0  0  0  0  0  0  0  0
   -0.3288   18.8271   -3.7874 H   0  0  0  0  0  0  0  0  0  0  0  0
    0.9962   17.6142   -3.7874 H   0  0  0  0  0  0  0  0  0  0  0  0
   -0.8062   19.1428   -0.1950 H   0  0  0  0  0  0  0  0  0  0  0  0
   -0.6936   20.1694   -1.6647 H   0  0  0  0  0  0  0  0  0  0  0  0
   -1.7456   18.7134   -1.6647 H   0  0  0  0  0  0  0  0  0  0  0  0
    2.0932   14.8485    1.7113 H   0  0  0  0  0  0  0  0  0  0  0  0
    3.7142   14.6301    0.9687 H   0  0  0  0  0  0  0  0  0  0  0  0
    2.9370   16.2496    0.9687 H   0  0  0  0  0  0  0  0  0  0  0  0
    3.8119   14.5471   -1.7679 H   0  0  0  0  0  0  0  0  0  0  0  0
    3.5164   13.2486   -0.4789 H   0  0  0  0  0  0  0  0  0  0  0  0
    2.1353   13.5383   -3.1616 H   0  0  0  0  0  0  0  0  0  0  0  0
    3.2434   12.2262   -2.5995 H   0  0  0  0  0  0  0  0  0  0  0  0
    1.5381   11.7648    0.4289 H   0  0  0  0  0  0  0  0  0  0  0  0
    1.3722   10.2986   -0.5956 H   0  0  0  0  0  0  0  0  0  0  0  0
    2.9113   11.2249   -0.5956 H   0  0  0  0  0  0  0  0  0  0  0  0
  1  2  1  0
  2  3  1  0
  3  4  1  0
  4  5  1  0
  5  6  1  0
  6  7  1  0
  7  8  1  0
  7  9  1  0
  2 10  1  0
 10 11  1  0
 11 12  1  0
 12 13  1  0
 13 14  1  6
 13 15  1  0
 15 16  1  0
 16 17  1  0
 17 18  2  0
 18 19  1  0
 19 20  1  0
 20 21  1  0
 21 22  1  0
 22 23  1  0
 22 24  1  0
 24 25  1  0
 24 26  1  0
 19 27  1  0
 27 28  1  1
 27 29  1  0
 29 30  1  0
 30 31  1  0
 31 32  1  1
  7  5  1  0
 31 10  1  0
 31 13  1  0
 27 15  1  0
 24 18  1  0
  1 33  1  0
  1 34  1  0
  1 35  1  0
  2 36  1  6
  3 37  1  0
  3 38  1  0
  4 39  1  0
  4 40  1  0
  5 41  1  1
  8 42  1  0
  8 43  1  0
  8 44  1  0
  9 45  1  0
  9 46  1  0
  9 47  1  0
 10 48  1  6
 11 49  1  0
 11 50  1  0
 12 51  1  0
 12 52  1  0
 14 53  1  0
 14 54  1  0
 14 55  1  0
 15 56  1  1
 16 57  1  0
 16 58  1  0
 17 59  1  0
 19 60  1  6
 20 61  1  0
 20 62  1  0
 21 63  1  0
 21 64  1  0
 22 65  1  6
 23 66  1  0
 25 67  1  0
 25 68  1  0
 25 69  1  0
 26 70  1  0
 26 71  1  0
 26 72  1  0
 28 73  1  0
 28 74  1  0
 28 75  1  0
 29 76  1  0
 29 77  1  0
 30 78  1  0
 30 79  1  0
 32 80  1  0
 32 81  1  0
 32 82  1  0
M  END
>  <meeko>  (8) 
{"is_sidechain": [false], "intermolecular_energy": 2.731, "internal_energy": -0.839}

$$$$
EPH_relaxed_0001_pdb2pqr_Repair_99_r2_0001_out
     RDKit          3D

 82 86  0  0  0  0  0  0  0  0999 V2000
   -0.0770   10.6100   -4.1390 C   0  0  0  0  0  0  0  0  0  0  0  0
    1.0430   10.3860   -3.1190 C   0  0  2  0  0  0  0  0  0  0  0  0
    0.8840    9.0500   -2.3660 C   0  0  0  0  0  0  0  0  0  0  0  0
   -0.5520    8.7620   -1.9180 C   0  0  0  0  0  0  0  0  0  0  0  0
   -0.7640    9.1160   -0.4770 C   0  0  2  0  0  0  0  0  0  0  0  0
   -2.1360    9.1480   -0.0650 O   0  0  0  0  0  0  0  0  0  0  0  0
   -1.4320   10.4000   -0.0210 C   0  0  0  0  0  0  0  0  0  0  0  0
   -1.9290   11.4130   -1.0040 C   0  0  0  0  0  0  0  0  0  0  0  0
   -1.1630   10.8920    1.3670 C   0  0  0  0  0  0  0  0  0  0  0  0
    1.0790   11.5420   -2.1260 C   0  0  1  0  0  0  0  0  0  0  0  0
    2.1170   11.3240   -0.9930 C   0  0  0  0  0  0  0  0  0  0  0  0
    2.6980   12.7180   -0.6450 C   0  0  0  0  0  0  0  0  0  0  0  0
    1.7500   13.7220   -1.3430 C   0  0  1  0  0  0  0  0  0  0  0  0
    0.5270   13.8520   -0.3820 C   0  0  0  0  0  0  0  0  0  0  0  0
    2.3600   15.1180   -1.6950 C   0  0  2  0  0  0  0  0  0  0  0  0
    2.8220   15.9510   -0.4880 C   0  0  0  0  0  0  0  0  0  0  0  0
    1.7900   16.8610    0.0920 C   0  0  0  0  0  0  0  0  0  0  0  0
    0.6370   17.2170   -0.5050 C   0  0  0  0  0  0  0  0  0  0  0  0
    0.3200   16.7680   -1.9370 C   0  0  1  0  0  0  0  0  0  0  0  0
   -0.2030   17.9780   -2.7550 C   0  0  0  0  0  0  0  0  0  0  0  0
   -1.3860   18.6690   -2.0850 C   0  0  0  0  0  0  0  0  0  0  0  0
   -1.0150   19.1530   -0.6850 C   0  0  2  0  0  0  0  0  0  0  0  0
   -0.0400   20.1940   -0.8010 O   0  0  0  0  0  0  0  0  0  0  0  0
   -0.4650   18.0210    0.2280 C   0  0  0  0  0  0  0  0  0  0  0  0
   -1.6110   17.0490    0.5990 C   0  0  0  0  0  0  0  0  0  0  0  0
    0.0040   18.6680    1.5590 C   0  0  0  0  0  0  0  0  0  0  0  0
    1.4770   15.9780   -2.6880 C   0  0  1  0  0  0  0  0  0  0  0  0
    2.4430   16.9850   -3.3840 C   0  0  0  0  0  0  0  0  0  0  0  0
    0.8430   15.1050   -3.8350 C   0  0  0  0  0  0  0  0  0  0  0  0
    0.3690   13.6910   -3.4500 C   0  0  0  0  0  0  0  0  0  0  0  0
    1.4560   12.9400   -2.6750 C   0  0  2  0  0  0  0  0  0  0  0  0
    2.6920   12.7740   -3.6240 C   0  0  0  0  0  0  0  0  0  0  0  0
   -1.0226   10.7991   -3.6097 H   0  0  0  0  0  0  0  0  0  0  0  0
    0.1697   11.4766   -4.7700 H   0  0  0  0  0  0  0  0  0  0  0  0
   -0.1826    9.7152   -4.7700 H   0  0  0  0  0  0  0  0  0  0  0  0
    1.9920   10.3414   -3.6734 H   0  0  0  0  0  0  0  0  0  0  0  0
    1.2102    8.2362   -3.0303 H   0  0  0  0  0  0  0  0  0  0  0  0
    1.4967    9.1199   -1.4551 H   0  0  0  0  0  0  0  0  0  0  0  0
   -1.2437    9.3533   -2.5360 H   0  0  0  0  0  0  0  0  0  0  0  0
   -0.7394    7.6847   -2.0379 H   0  0  0  0  0  0  0  0  0  0  0  0
    0.1857    8.6380   -0.1948 H   0  0  0  0  0  0  0  0  0  0  0  0
   -2.3508   12.2728   -0.4629 H   0  0  0  0  0  0  0  0  0  0  0  0
   -1.0944   11.7510   -1.6358 H   0  0  0  0  0  0  0  0  0  0  0  0
   -2.7071   10.9598   -1.6358 H   0  0  0  0  0  0  0  0  0  0  0  0
   -1.5584   10.1688    2.0954 H   0  0  0  0  0  0  0  0  0  0  0  0
   -0.0784   11.0035    1.5127 H   0  0  0  0  0  0  0  0  0  0  0  0
   -1.6545   11.8652    1.5127 H   0  0  0  0  0  0  0  0  0  0  0  0
    0.0285   11.5373   -1.7998 H   0  0  0  0  0  0  0  0  0  0  0  0
    1.6280   10.8863   -0.1103 H   0  0  0  0  0  0  0  0  0  0  0  0
    2.9114   10.6334   -1.3125 H   0  0  0  0  0  0  0  0  0  0  0  0
    2.6991   12.8774    0.4434 H   0  0  0  0  0  0  0  0  0  0  0  0
    3.7409   12.8296   -0.9767 H   0  0  0  0  0  0  0  0  0  0  0  0
    0.8747   13.8150    0.6610 H   0  0  0  0  0  0  0  0  0  0  0  0
    0.0171   14.8094   -0.5648 H   0  0  0  0  0  0  0  0  0  0  0  0
   -0.1727   13.0232   -0.5648 H   0  0  0  0  0  0  0  0  0  0  0  0
    3.2774   14.8456   -2.2373 H   0  0  0  0  0  0  0  0  0  0  0  0
    3.1443   15.2559    0.3013 H   0  0  0  0  0  0  0  0  0  0  0  0
    3.6278   16.6018   -0.8582 H   0  0  0  0  0  0  0  0  0  0  0  0
    1.9885   17.2755    1.0914 H   0  0  0  0  0  0  0  0  0  0  0  0
   -0.4696   16.0071   -1.8496 H   0  0  0  0  0  0  0  0  0  0  0  0
    0.6133   18.7066   -2.8679 H   0  0  0  0  0  0  0  0  0  0  0  0
   -0.5453   17.5995   -3.7295 H   0  0  0  0  0  0  0  0  0  0  0  0
   -1.6913   19.5320   -2.6950 H   0  0  0  0  0  0  0  0  0  0  0  0
   -2.2114   17.9469   -1.9992 H   0  0  0  0  0  0  0  0  0  0  0  0
   -1.9350   19.5218   -0.2080 H   0  0  0  0  0  0  0  0  0  0  0  0
    0.3160   20.3640    0.0870 H   0  0  0  0  0  0  0  0  0  0  0  0
   -1.6929   16.9795    1.6937 H   0  0  0  0  0  0  0  0  0  0  0  0
   -2.5582   17.4233    0.1835 H   0  0  0  0  0  0  0  0  0  0  0  0
   -1.3963   16.0534    0.1835 H   0  0  0  0  0  0  0  0  0  0  0  0
   -0.4071   18.1009    2.4072 H   0  0  0  0  0  0  0  0  0  0  0  0
    1.1029   18.6536    1.6064 H   0  0  0  0  0  0  0  0  0  0  0  0
   -0.3515   19.7079    1.6064 H   0  0  0  0  0  0  0  0  0  0  0  0
    2.9906   17.5558   -2.6196 H   0  0  0  0  0  0  0  0  0  0  0  0
    3.1581   16.4330   -4.0117 H   0  0  0  0  0  0  0  0  0  0  0  0
    1.8618   17.6765   -4.0117 H   0  0  0  0  0  0  0  0  0  0  0  0
   -0.0267   15.6522   -4.2276 H   0  0  0  0  0  0  0  0  0  0  0  0
    1.6551   14.9489   -4.5603 H   0  0  0  0  0  0  0  0  0  0  0  0
   -0.5302   13.7717   -2.8216 H   0  0  0  0  0  0  0  0  0  0  0  0
    0.1463   13.1329   -4.3714 H   0  0  0  0  0  0  0  0  0  0  0  0
    3.6036   12.6516   -3.0207 H   0  0  0  0  0  0  0  0  0  0  0  0
    2.5504   11.8868   -4.2587 H   0  0  0  0  0  0  0  0  0  0  0  0
    2.7895   13.6671   -4.2587 H   0  0  0  0  0  0  0  0  0  0  0  0
  1  2  1  0
  2  3  1  0
  3  4  1  0
  4  5  1  0
  5  6  1  0
  6  7  1  0
  7  8  1  0
  7  9  1  0
  2 10  1  0
 10 11  1  0
 11 12  1  0
 12 13  1  0
 13 14  1  1
 13 15  1  0
 15 16  1  0
 16 17  1  0
 17 18  2  0
 18 19  1  0
 19 20  1  0
 20 21  1  0
 21 22  1  0
 22 23  1  0
 22 24  1  0
 24 25  1  0
 24 26  1  0
 19 27  1  0
 27 28  1  6
 27 29  1  0
 29 30  1  0
 30 31  1  0
 31 32  1  6
  7  5  1  0
 31 10  1  0
 31 13  1  0
 27 15  1  0
 24 18  1  0
  1 33  1  0
  1 34  1  0
  1 35  1  0
  2 36  1  6
  3 37  1  0
  3 38  1  0
  4 39  1  0
  4 40  1  0
  5 41  1  1
  8 42  1  0
  8 43  1  0
  8 44  1  0
  9 45  1  0
  9 46  1  0
  9 47  1  0
 10 48  1  1
 11 49  1  0
 11 50  1  0
 12 51  1  0
 12 52  1  0
 14 53  1  0
 14 54  1  0
 14 55  1  0
 15 56  1  6
 16 57  1  0
 16 58  1  0
 17 59  1  0
 19 60  1  1
 20 61  1  0
 20 62  1  0
 21 63  1  0
 21 64  1  0
 22 65  1  1
 23 66  1  0
 25 67  1  0
 25 68  1  0
 25 69  1  0
 26 70  1  0
 26 71  1  0
 26 72  1  0
 28 73  1  0
 28 74  1  0
 28 75  1  0
 29 76  1  0
 29 77  1  0
 30 78  1  0
 30 79  1  0
 32 80  1  0
 32 81  1  0
 32 82  1  0
M  END
>  <meeko>  (9) 
{"is_sidechain": [false], "intermolecular_energy": 2.731, "internal_energy": -0.839}

$$$$
EPH_relaxed_0001_pdb2pqr_Repair_99_r2_0001_out
     RDKit          3D

 82 86  0  0  0  0  0  0  0  0999 V2000
   -0.9260   16.3910   -5.8770 C   0  0  0  0  0  0  0  0  0  0  0  0
    0.1770   15.6970   -6.6810 C   0  0  2  0  0  0  0  0  0  0  0  0
   -0.2180   15.5000   -8.1580 C   0  0  0  0  0  0  0  0  0  0  0  0
    0.4330   16.5080   -9.1100 C   0  0  0  0  0  0  0  0  0  0  0  0
    1.8390   16.1180   -9.4530 C   0  0  2  0  0  0  0  0  0  0  0  0
    2.3360   16.6840  -10.6730 O   0  0  0  0  0  0  0  0  0  0  0  0
    2.1990   15.2540  -10.6470 C   0  0  0  0  0  0  0  0  0  0  0  0
    1.1490   14.7260  -11.5740 C   0  0  0  0  0  0  0  0  0  0  0  0
    3.5060   14.5230  -10.6330 C   0  0  0  0  0  0  0  0  0  0  0  0
    0.5150   14.3530   -6.0480 C   0  0  1  0  0  0  0  0  0  0  0  0
    1.7470   13.6760   -6.7040 C   0  0  0  0  0  0  0  0  0  0  0  0
    2.4990   12.9250   -5.5750 C   0  0  0  0  0  0  0  0  0  0  0  0
    1.5090   12.9150   -4.3870 C   0  0  1  0  0  0  0  0  0  0  0  0
    0.5310   11.7380   -4.6900 C   0  0  0  0  0  0  0  0  0  0  0  0
    2.1410   12.7880   -2.9620 C   0  0  2  0  0  0  0  0  0  0  0  0
    2.9130   11.4820   -2.7050 C   0  0  0  0  0  0  0  0  0  0  0  0
    2.1030   10.3640   -2.1380 C   0  0  0  0  0  0  0  0  0  0  0  0
    0.8830   10.4850   -1.5830 C   0  0  0  0  0  0  0  0  0  0  0  0
    0.2360   11.8630   -1.3950 C   0  0  1  0  0  0  0  0  0  0  0  0
   -0.3490   11.9690    0.0380 C   0  0  0  0  0  0  0  0  0  0  0  0
   -1.3050   10.8260    0.3660 C   0  0  0  0  0  0  0  0  0  0  0  0
   -0.6090    9.4750    0.2230 C   0  0  2  0  0  0  0  0  0  0  0  0
    0.4000    9.3680    1.2330 O   0  0  0  0  0  0  0  0  0  0  0  0
    0.0280    9.2590   -1.1780 C   0  0  0  0  0  0  0  0  0  0  0  0
   -1.0890    9.0740   -2.2340 C   0  0  0  0  0  0  0  0  0  0  0  0
    0.8170    7.9220   -1.1420 C   0  0  0  0  0  0  0  0  0  0  0  0
    1.1410   13.1120   -1.7790 C   0  0  1  0  0  0  0  0  0  0  0  0
    2.0170   13.5290   -0.5580 C   0  0  0  0  0  0  0  0  0  0  0  0
    0.2120   14.3410   -2.1000 C   0  0  0  0  0  0  0  0  0  0  0  0
   -0.2830   14.4770   -3.5530 C   0  0  0  0  0  0  0  0  0  0  0  0
    0.8790   14.3470   -4.5420 C   0  0  2  0  0  0  0  0  0  0  0  0
    1.8690   15.5310   -4.2760 C   0  0  0  0  0  0  0  0  0  0  0  0
   -0.7292   16.2672   -4.8018 H   0  0  0  0  0  0  0  0  0  0  0  0
   -0.9423   17.4624   -6.1258 H   0  0  0  0  0  0  0  0  0  0  0  0
   -1.8989   15.9420   -6.1258 H   0  0  0  0  0  0  0  0  0  0  0  0
    1.0621   16.3498   -6.6604 H   0  0  0  0  0  0  0  0  0  0  0  0
    0.0828   14.4877   -8.4657 H   0  0  0  0  0  0  0  0  0  0  0  0
   -1.3054   15.6531   -8.2228 H   0  0  0  0  0  0  0  0  0  0  0  0
   -0.1591   16.5579  -10.0357 H   0  0  0  0  0  0  0  0  0  0  0  0
    0.4613   17.4859   -8.6071 H   0  0  0  0  0  0  0  0  0  0  0  0
    2.1067   16.0534   -8.3880 H   0  0  0  0  0  0  0  0  0  0  0  0
    0.3180   14.3081  -10.9868 H   0  0  0  0  0  0  0  0  0  0  0  0
    0.7752   15.5433  -12.2082 H   0  0  0  0  0  0  0  0  0  0  0  0
    1.5822   13.9385  -12.2082 H   0  0  0  0  0  0  0  0  0  0  0  0
    3.8175   14.3488   -9.5925 H   0  0  0  0  0  0  0  0  0  0  0  0
    3.3918   13.5578  -11.1481 H   0  0  0  0  0  0  0  0  0  0  0  0
    4.2686   15.1255  -11.1481 H   0  0  0  0  0  0  0  0  0  0  0  0
   -0.4399   13.8303   -6.2061 H   0  0  0  0  0  0  0  0  0  0  0  0
    1.4214   12.9667   -7.4791 H   0  0  0  0  0  0  0  0  0  0  0  0
    2.3981   14.4213   -7.1842 H   0  0  0  0  0  0  0  0  0  0  0  0
    2.7423   11.8985   -5.8865 H   0  0  0  0  0  0  0  0  0  0  0  0
    3.4543   13.4062   -5.3181 H   0  0  0  0  0  0  0  0  0  0  0  0
    0.1724   11.3064   -3.7439 H   0  0  0  0  0  0  0  0  0  0  0  0
   -0.3253   12.1128   -5.2699 H   0  0  0  0  0  0  0  0  0  0  0  0
    1.0563   10.9648   -5.2699 H   0  0  0  0  0  0  0  0  0  0  0  0
    2.8983   13.5858   -2.9669 H   0  0  0  0  0  0  0  0  0  0  0  0
    3.3366   11.1435   -3.6621 H   0  0  0  0  0  0  0  0  0  0  0  0
    3.6733   11.7219   -1.9471 H   0  0  0  0  0  0  0  0  0  0  0  0
    2.5404    9.3554   -2.1771 H   0  0  0  0  0  0  0  0  0  0  0  0
   -0.5760   11.9215   -2.1348 H   0  0  0  0  0  0  0  0  0  0  0  0
    0.4810   11.9526    0.7597 H   0  0  0  0  0  0  0  0  0  0  0  0
   -0.9187   12.9081    0.0973 H   0  0  0  0  0  0  0  0  0  0  0  0
   -1.6609   10.9399    1.4006 H   0  0  0  0  0  0  0  0  0  0  0  0
   -2.1499   10.8620   -0.3374 H   0  0  0  0  0  0  0  0  0  0  0  0
   -1.3749    8.6944    0.3420 H   0  0  0  0  0  0  0  0  0  0  0  0
    1.0840   10.0300    1.0360 H   0  0  0  0  0  0  0  0  0  0  0  0
   -2.0514    8.9146   -1.7257 H   0  0  0  0  0  0  0  0  0  0  0  0
   -1.1514    9.9741   -2.8633 H   0  0  0  0  0  0  0  0  0  0  0  0
   -0.8579    8.2019   -2.8633 H   0  0  0  0  0  0  0  0  0  0  0  0
    0.9911    7.6270   -0.0967 H   0  0  0  0  0  0  0  0  0  0  0  0
    0.2359    7.1395   -1.6519 H   0  0  0  0  0  0  0  0  0  0  0  0
    1.7829    8.0524   -1.6519 H   0  0  0  0  0  0  0  0  0  0  0  0
    1.4898   13.2780    0.3743 H   0  0  0  0  0  0  0  0  0  0  0  0
    2.9756   12.9906   -0.5935 H   0  0  0  0  0  0  0  0  0  0  0  0
    2.2035   14.6125   -0.5935 H   0  0  0  0  0  0  0  0  0  0  0  0
   -0.6739   14.2666   -1.4522 H   0  0  0  0  0  0  0  0  0  0  0  0
    0.8379   15.2284   -1.9249 H   0  0  0  0  0  0  0  0  0  0  0  0
   -1.0200   13.6864   -3.7576 H   0  0  0  0  0  0  0  0  0  0  0  0
   -0.7396   15.4701   -3.6766 H   0  0  0  0  0  0  0  0  0  0  0  0
    1.9878   15.6731   -3.1917 H   0  0  0  0  0  0  0  0  0  0  0  0
    2.8463   15.2996   -4.7247 H   0  0  0  0  0  0  0  0  0  0  0  0
    1.4683   16.4519   -4.7247 H   0  0  0  0  0  0  0  0  0  0  0  0
  1  2  1  0
  2  3  1  0
  3  4  1  0
  4  5  1  0
  5  6  1  0
  6  7  1  0
  7  8  1  0
  7  9  1  0
  2 10  1  0
 10 11  1  0
 11 12  1  0
 12 13  1  0
 13 14  1  6
 13 15  1  0
 15 16  1  0
 16 17  1  0
 17 18  2  0
 18 19  1  0
 19 20  1  0
 20 21  1  0
 21 22  1  0
 22 23  1  0
 22 24  1  0
 24 25  1  0
 24 26  1  0
 19 27  1  0
 27 28  1  1
 27 29  1  0
 29 30  1  0
 30 31  1  0
 31 32  1  6
  7  5  1  0
 31 10  1  0
 31 13  1  0
 27 15  1  0
 24 18  1  0
  1 33  1  0
  1 34  1  0
  1 35  1  0
  2 36  1  6
  3 37  1  0
  3 38  1  0
  4 39  1  0
  4 40  1  0
  5 41  1  1
  8 42  1  0
  8 43  1  0
  8 44  1  0
  9 45  1  0
  9 46  1  0
  9 47  1  0
 10 48  1  1
 11 49  1  0
 11 50  1  0
 12 51  1  0
 12 52  1  0
 14 53  1  0
 14 54  1  0
 14 55  1  0
 15 56  1  6
 16 57  1  0
 16 58  1  0
 17 59  1  0
 19 60  1  6
 20 61  1  0
 20 62  1  0
 21 63  1  0
 21 64  1  0
 22 65  1  1
 23 66  1  0
 25 67  1  0
 25 68  1  0
 25 69  1  0
 26 70  1  0
 26 71  1  0
 26 72  1  0
 28 73  1  0
 28 74  1  0
 28 75  1  0
 29 76  1  0
 29 77  1  0
 30 78  1  0
 30 79  1  0
 32 80  1  0
 32 81  1  0
 32 82  1  0
M  END
>  <meeko>  (10) 
{"is_sidechain": [false], "intermolecular_energy": 2.731, "internal_energy": -0.839}

$$$$
EPH_relaxed_0001_pdb2pqr_Repair_99_r2_0001_out
     RDKit          3D

 82 86  0  0  0  0  0  0  0  0999 V2000
    0.0490    9.3100   -2.3560 C   0  0  0  0  0  0  0  0  0  0  0  0
    1.0780   10.3400   -2.8330 C   0  0  2  0  0  0  0  0  0  0  0  0
    2.4900    9.7340   -2.9590 C   0  0  0  0  0  0  0  0  0  0  0  0
    3.4170   10.5220   -3.8890 C   0  0  0  0  0  0  0  0  0  0  0  0
    4.8040   10.6270   -3.3300 C   0  0  2  0  0  0  0  0  0  0  0  0
    5.4550   11.8800   -3.5750 O   0  0  0  0  0  0  0  0  0  0  0  0
    6.0480   10.7260   -4.1930 C   0  0  0  0  0  0  0  0  0  0  0  0
    5.9630   10.7260   -5.6870 C   0  0  0  0  0  0  0  0  0  0  0  0
    7.3640   10.3340   -3.5980 C   0  0  0  0  0  0  0  0  0  0  0  0
    1.1040   11.5290   -1.8800 C   0  0  1  0  0  0  0  0  0  0  0  0
    2.1640   11.3720   -0.7580 C   0  0  0  0  0  0  0  0  0  0  0  0
    2.7200   12.7890   -0.4660 C   0  0  0  0  0  0  0  0  0  0  0  0
    1.7390   13.7470   -1.1820 C   0  0  1  0  0  0  0  0  0  0  0  0
    0.5290   13.8840   -0.2060 C   0  0  0  0  0  0  0  0  0  0  0  0
    2.3120   15.1440   -1.5900 C   0  0  2  0  0  0  0  0  0  0  0  0
    2.7750   16.0270   -0.4190 C   0  0  0  0  0  0  0  0  0  0  0  0
    1.7330   16.9340    0.1470 C   0  0  0  0  0  0  0  0  0  0  0  0
    0.5630   17.2440   -0.4420 C   0  0  0  0  0  0  0  0  0  0  0  0
    0.2340   16.7410   -1.8530 C   0  0  1  0  0  0  0  0  0  0  0  0
   -0.3290   17.9110   -2.7020 C   0  0  0  0  0  0  0  0  0  0  0  0
   -1.5170   18.5990   -2.0360 C   0  0  0  0  0  0  0  0  0  0  0  0
   -1.1340   19.1370   -0.6600 C   0  0  2  0  0  0  0  0  0  0  0  0
   -0.1850   20.1940   -0.8260 O   0  0  0  0  0  0  0  0  0  0  0  0
   -0.5450   18.0490    0.2810 C   0  0  0  0  0  0  0  0  0  0  0  0
   -1.6640   17.0650    0.7030 C   0  0  0  0  0  0  0  0  0  0  0  0
   -0.0700   18.7500    1.5830 C   0  0  0  0  0  0  0  0  0  0  0  0
    1.3950   15.9510   -2.5960 C   0  0  1  0  0  0  0  0  0  0  0  0
    2.3280   16.9540   -3.3420 C   0  0  0  0  0  0  0  0  0  0  0  0
    0.7630   15.0270   -3.7030 C   0  0  0  0  0  0  0  0  0  0  0  0
    0.3260   13.6160   -3.2630 C   0  0  0  0  0  0  0  0  0  0  0  0
    1.4420   12.9160   -2.4820 C   0  0  2  0  0  0  0  0  0  0  0  0
    2.6650   12.7440   -3.4450 C   0  0  0  0  0  0  0  0  0  0  0  0
    0.0309    9.2919   -1.2563 H   0  0  0  0  0  0  0  0  0  0  0  0
   -0.9468    9.5841   -2.7346 H   0  0  0  0  0  0  0  0  0  0  0  0
    0.3240    8.3145   -2.7346 H   0  0  0  0  0  0  0  0  0  0  0  0
    0.7717   10.6743   -3.8352 H   0  0  0  0  0  0  0  0  0  0  0  0
    2.9457    9.7040   -1.9583 H   0  0  0  0  0  0  0  0  0  0  0  0
    2.3719    8.7316   -3.3964 H   0  0  0  0  0  0  0  0  0  0  0  0
    3.4626   10.0121   -4.8626 H   0  0  0  0  0  0  0  0  0  0  0  0
    3.0122   11.5392   -3.9955 H   0  0  0  0  0  0  0  0  0  0  0  0
    4.5401    9.9694   -2.4886 H   0  0  0  0  0  0  0  0  0  0  0  0
    5.9422    9.6889   -6.0531 H   0  0  0  0  0  0  0  0  0  0  0  0
    5.0455   11.2445   -6.0021 H   0  0  0  0  0  0  0  0  0  0  0  0
    6.8389   11.2445   -6.1041 H   0  0  0  0  0  0  0  0  0  0  0  0
    7.2913   10.3557   -2.5006 H   0  0  0  0  0  0  0  0  0  0  0  0
    7.6276    9.3183   -3.9280 H   0  0  0  0  0  0  0  0  0  0  0  0
    8.1404   11.0399   -3.9280 H   0  0  0  0  0  0  0  0  0  0  0  0
    0.0591   11.5126   -1.5365 H   0  0  0  0  0  0  0  0  0  0  0  0
    1.6987   10.9539    0.1468 H   0  0  0  0  0  0  0  0  0  0  0  0
    2.9683   10.6884   -1.0676 H   0  0  0  0  0  0  0  0  0  0  0  0
    2.7344   12.9853    0.6162 H   0  0  0  0  0  0  0  0  0  0  0  0
    3.7551   12.9120   -0.8174 H   0  0  0  0  0  0  0  0  0  0  0  0
    0.8892   13.8432    0.8326 H   0  0  0  0  0  0  0  0  0  0  0  0
    0.0235   14.8451   -0.3813 H   0  0  0  0  0  0  0  0  0  0  0  0
   -0.1786   13.0602   -0.3813 H   0  0  0  0  0  0  0  0  0  0  0  0
    3.2264   14.8732   -2.1382 H   0  0  0  0  0  0  0  0  0  0  0  0
    3.1246   15.3659    0.3877 H   0  0  0  0  0  0  0  0  0  0  0  0
    3.5607   16.6817   -0.8239 H   0  0  0  0  0  0  0  0  0  0  0  0
    1.9387   17.3871    1.1280 H   0  0  0  0  0  0  0  0  0  0  0  0
   -0.5371   15.9666   -1.7273 H   0  0  0  0  0  0  0  0  0  0  0  0
    0.4690   18.6530   -2.8528 H   0  0  0  0  0  0  0  0  0  0  0  0
   -0.6785   17.4922   -3.6572 H   0  0  0  0  0  0  0  0  0  0  0  0
   -1.8507   19.4343   -2.6691 H   0  0  0  0  0  0  0  0  0  0  0  0
   -2.3254   17.8632   -1.9130 H   0  0  0  0  0  0  0  0  0  0  0  0
   -2.0545   19.5014   -0.1806 H   0  0  0  0  0  0  0  0  0  0  0  0
    0.5290   19.8620   -1.3980 H   0  0  0  0  0  0  0  0  0  0  0  0
   -1.7167   17.0186    1.8008 H   0  0  0  0  0  0  0  0  0  0  0  0
   -2.6281   17.4132    0.3040 H   0  0  0  0  0  0  0  0  0  0  0  0
   -1.4419   16.0643    0.3040 H   0  0  0  0  0  0  0  0  0  0  0  0
   -0.4456   18.1958    2.4558 H   0  0  0  0  0  0  0  0  0  0  0  0
    1.0295   18.7715    1.6077 H   0  0  0  0  0  0  0  0  0  0  0  0
   -0.4575   19.7792    1.6077 H   0  0  0  0  0  0  0  0  0  0  0  0
    2.8851   17.5529   -2.6066 H   0  0  0  0  0  0  0  0  0  0  0  0
    3.0360   16.3965   -3.9728 H   0  0  0  0  0  0  0  0  0  0  0  0
    1.7208   17.6199   -3.9728 H   0  0  0  0  0  0  0  0  0  0  0  0
   -0.1245   15.5419   -4.0996 H   0  0  0  0  0  0  0  0  0  0  0  0
    1.5669   14.8642   -4.4360 H   0  0  0  0  0  0  0  0  0  0  0  0
   -0.5646   13.6983   -2.6226 H   0  0  0  0  0  0  0  0  0  0  0  0
    0.1004   13.0223   -4.1611 H   0  0  0  0  0  0  0  0  0  0  0  0
    3.5828   12.6149   -2.8526 H   0  0  0  0  0  0  0  0  0  0  0  0
    2.5105   11.8587   -4.0794 H   0  0  0  0  0  0  0  0  0  0  0  0
    2.7607   13.6375   -4.0794 H   0  0  0  0  0  0  0  0  0  0  0  0
  1  2  1  0
  2  3  1  0
  3  4  1  0
  4  5  1  0
  5  6  1  0
  6  7  1  0
  7  8  1  0
  7  9  1  0
  2 10  1  0
 10 11  1  0
 11 12  1  0
 12 13  1  0
 13 14  1  1
 13 15  1  0
 15 16  1  0
 16 17  1  0
 17 18  2  0
 18 19  1  0
 19 20  1  0
 20 21  1  0
 21 22  1  0
 22 23  1  0
 22 24  1  0
 24 25  1  0
 24 26  1  0
 19 27  1  0
 27 28  1  6
 27 29  1  0
 29 30  1  0
 30 31  1  0
 31 32  1  6
  7  5  1  0
 31 10  1  0
 31 13  1  0
 27 15  1  0
 24 18  1  0
  1 33  1  0
  1 34  1  0
  1 35  1  0
  2 36  1  6
  3 37  1  0
  3 38  1  0
  4 39  1  0
  4 40  1  0
  5 41  1  1
  8 42  1  0
  8 43  1  0
  8 44  1  0
  9 45  1  0
  9 46  1  0
  9 47  1  0
 10 48  1  1
 11 49  1  0
 11 50  1  0
 12 51  1  0
 12 52  1  0
 14 53  1  0
 14 54  1  0
 14 55  1  0
 15 56  1  6
 16 57  1  0
 16 58  1  0
 17 59  1  0
 19 60  1  1
 20 61  1  0
 20 62  1  0
 21 63  1  0
 21 64  1  0
 22 65  1  1
 23 66  1  0
 25 67  1  0
 25 68  1  0
 25 69  1  0
 26 70  1  0
 26 71  1  0
 26 72  1  0
 28 73  1  0
 28 74  1  0
 28 75  1  0
 29 76  1  0
 29 77  1  0
 30 78  1  0
 30 79  1  0
 32 80  1  0
 32 81  1  0
 32 82  1  0
M  END
>  <meeko>  (11) 
{"is_sidechain": [false], "intermolecular_energy": 2.731, "internal_energy": -0.839}

$$$$
EPH_relaxed_0001_pdb2pqr_Repair_99_r2_0001_out
     RDKit          3D

 82 86  0  0  0  0  0  0  0  0999 V2000
   -4.1760    7.3610   -3.5260 C   0  0  0  0  0  0  0  0  0  0  0  0
   -3.7400    7.2530   -2.0630 C   0  0  2  0  0  0  0  0  0  0  0  0
   -4.8840    6.7690   -1.1500 C   0  0  0  0  0  0  0  0  0  0  0  0
   -6.0490    6.1290   -1.9090 C   0  0  0  0  0  0  0  0  0  0  0  0
   -7.3660    6.7190   -1.5050 C   0  0  2  0  0  0  0  0  0  0  0  0
   -8.4170    5.7630   -1.3150 O   0  0  0  0  0  0  0  0  0  0  0  0
   -8.5980    6.7000   -2.3900 C   0  0  0  0  0  0  0  0  0  0  0  0
   -8.5720    6.0770   -3.7510 C   0  0  0  0  0  0  0  0  0  0  0  0
   -9.6770    7.7070   -2.1380 C   0  0  0  0  0  0  0  0  0  0  0  0
   -3.2180    8.5990   -1.5750 C   0  0  1  0  0  0  0  0  0  0  0  0
   -3.8770    9.0490   -0.2440 C   0  0  0  0  0  0  0  0  0  0  0  0
   -2.7890    9.8050    0.5610 C   0  0  0  0  0  0  0  0  0  0  0  0
   -1.6530   10.0550   -0.4590 C   0  0  1  0  0  0  0  0  0  0  0  0
   -2.1080   11.3110   -1.2660 C   0  0  0  0  0  0  0  0  0  0  0  0
   -0.2190   10.2390    0.1350 C   0  0  2  0  0  0  0  0  0  0  0  0
   -0.0470   11.4560    1.0610 C   0  0  0  0  0  0  0  0  0  0  0  0
    0.3760   12.7180    0.3850 C   0  0  0  0  0  0  0  0  0  0  0  0
    0.8830   12.8060   -0.8590 C   0  0  0  0  0  0  0  0  0  0  0  0
    1.1680   11.5450   -1.6850 C   0  0  1  0  0  0  0  0  0  0  0  0
    2.5760   11.6530   -2.3270 C   0  0  0  0  0  0  0  0  0  0  0  0
    2.7530   12.9330   -3.1370 C   0  0  0  0  0  0  0  0  0  0  0  0
    2.5190   14.1660   -2.2670 C   0  0  2  0  0  0  0  0  0  0  0  0
    3.5590   14.2430   -1.2880 O   0  0  0  0  0  0  0  0  0  0  0  0
    1.1350   14.1630   -1.5610 C   0  0  0  0  0  0  0  0  0  0  0  0
    0.0160   14.3840   -2.6080 C   0  0  0  0  0  0  0  0  0  0  0  0
    1.0840   15.3870   -0.6070 C   0  0  0  0  0  0  0  0  0  0  0  0
    0.9420   10.1610   -0.9370 C   0  0  1  0  0  0  0  0  0  0  0  0
    2.2350    9.7570   -0.1640 C   0  0  0  0  0  0  0  0  0  0  0  0
    0.6940    9.0330   -2.0070 C   0  0  0  0  0  0  0  0  0  0  0  0
   -0.7620    8.8190   -2.4660 C   0  0  0  0  0  0  0  0  0  0  0  0
   -1.7040    8.7060   -1.2640 C   0  0  2  0  0  0  0  0  0  0  0  0
   -1.2850    7.4370   -0.4450 C   0  0  0  0  0  0  0  0  0  0  0  0
   -5.2428    7.6253   -3.5721 H   0  0  0  0  0  0  0  0  0  0  0  0
   -3.5833    8.1395   -4.0287 H   0  0  0  0  0  0  0  0  0  0  0  0
   -4.0152    6.3959   -4.0287 H   0  0  0  0  0  0  0  0  0  0  0  0
   -2.9373    6.5026   -2.0120 H   0  0  0  0  0  0  0  0  0  0  0  0
   -4.4773    6.0263   -0.4479 H   0  0  0  0  0  0  0  0  0  0  0  0
   -5.2835    7.6567   -0.6376 H   0  0  0  0  0  0  0  0  0  0  0  0
   -5.9026    6.2893   -2.9874 H   0  0  0  0  0  0  0  0  0  0  0  0
   -6.0662    5.0558   -1.6682 H   0  0  0  0  0  0  0  0  0  0  0  0
   -6.8619    7.5307   -0.9601 H   0  0  0  0  0  0  0  0  0  0  0  0
   -8.5263    4.9824   -3.6524 H   0  0  0  0  0  0  0  0  0  0  0  0
   -9.4827    6.3580   -4.3003 H   0  0  0  0  0  0  0  0  0  0  0  0
   -7.6879    6.4329   -4.3003 H   0  0  0  0  0  0  0  0  0  0  0  0
   -9.8136    7.8345   -1.0540 H   0  0  0  0  0  0  0  0  0  0  0  0
   -9.3922    8.6698   -2.5874 H   0  0  0  0  0  0  0  0  0  0  0  0
  -10.6178    7.3565   -2.5874 H   0  0  0  0  0  0  0  0  0  0  0  0
   -3.4666    9.2194   -2.4487 H   0  0  0  0  0  0  0  0  0  0  0  0
   -4.7279    9.7153   -0.4490 H   0  0  0  0  0  0  0  0  0  0  0  0
   -4.2567    8.1846    0.3206 H   0  0  0  0  0  0  0  0  0  0  0  0
   -3.1821   10.7576    0.9458 H   0  0  0  0  0  0  0  0  0  0  0  0
   -2.4457    9.2346    1.4366 H   0  0  0  0  0  0  0  0  0  0  0  0
   -2.3975   12.1103   -0.5679 H   0  0  0  0  0  0  0  0  0  0  0  0
   -1.2791   11.6599   -1.8994 H   0  0  0  0  0  0  0  0  0  0  0  0
   -2.9680   11.0481   -1.8994 H   0  0  0  0  0  0  0  0  0  0  0  0
   -0.1171    9.3547    0.7812 H   0  0  0  0  0  0  0  0  0  0  0  0
   -1.0101   11.6433    1.5583 H   0  0  0  0  0  0  0  0  0  0  0  0
    0.7652   11.1966    1.7561 H   0  0  0  0  0  0  0  0  0  0  0  0
    0.2640   13.6546    0.9509 H   0  0  0  0  0  0  0  0  0  0  0  0
    0.4007   11.5175   -2.4727 H   0  0  0  0  0  0  0  0  0  0  0  0
    3.3307   11.6349   -1.5269 H   0  0  0  0  0  0  0  0  0  0  0  0
    2.6951   10.8033   -3.0153 H   0  0  0  0  0  0  0  0  0  0  0  0
    3.7761   12.9655   -3.5399 H   0  0  0  0  0  0  0  0  0  0  0  0
    2.0174   12.9356   -3.9548 H   0  0  0  0  0  0  0  0  0  0  0  0
    2.5312   15.0446   -2.9288 H   0  0  0  0  0  0  0  0  0  0  0  0
    3.2910   13.6950   -0.5300 H   0  0  0  0  0  0  0  0  0  0  0  0
   -0.9370   14.5722   -2.0919 H   0  0  0  0  0  0  0  0  0  0  0  0
    0.2690   15.2495   -3.2380 H   0  0  0  0  0  0  0  0  0  0  0  0
   -0.0790   13.4873   -3.2380 H   0  0  0  0  0  0  0  0  0  0  0  0
    1.0985   15.0394    0.4365 H   0  0  0  0  0  0  0  0  0  0  0  0
    1.9561   16.0318   -0.7908 H   0  0  0  0  0  0  0  0  0  0  0  0
    0.1613   15.9570   -0.7908 H   0  0  0  0  0  0  0  0  0  0  0  0
    2.0484    9.8153    0.9185 H   0  0  0  0  0  0  0  0  0  0  0  0
    2.5164    8.7281   -0.4327 H   0  0  0  0  0  0  0  0  0  0  0  0
    3.0521   10.4426   -0.4327 H   0  0  0  0  0  0  0  0  0  0  0  0
    1.2905    9.2816   -2.8972 H   0  0  0  0  0  0  0  0  0  0  0  0
    0.9796    8.0951   -1.5083 H   0  0  0  0  0  0  0  0  0  0  0  0
   -1.0724    9.6717   -3.0877 H   0  0  0  0  0  0  0  0  0  0  0  0
   -0.8145    7.8835   -3.0422 H   0  0  0  0  0  0  0  0  0  0  0  0
   -1.3569    7.6547    0.6308 H   0  0  0  0  0  0  0  0  0  0  0  0
   -1.9549    6.6012   -0.6955 H   0  0  0  0  0  0  0  0  0  0  0  0
   -0.2492    7.1644   -0.6955 H   0  0  0  0  0  0  0  0  0  0  0  0
  1  2  1  0
  2  3  1  0
  3  4  1  0
  4  5  1  0
  5  6  1  0
  6  7  1  0
  7  8  1  0
  7  9  1  0
  2 10  1  0
 10 11  1  0
 11 12  1  0
 12 13  1  0
 13 14  1  6
 13 15  1  0
 15 16  1  0
 16 17  1  0
 17 18  2  0
 18 19  1  0
 19 20  1  0
 20 21  1  0
 21 22  1  0
 22 23  1  0
 22 24  1  0
 24 25  1  0
 24 26  1  0
 19 27  1  0
 27 28  1  1
 27 29  1  0
 29 30  1  0
 30 31  1  0
 31 32  1  1
  7  5  1  0
 31 10  1  0
 31 13  1  0
 27 15  1  0
 24 18  1  0
  1 33  1  0
  1 34  1  0
  1 35  1  0
  2 36  1  6
  3 37  1  0
  3 38  1  0
  4 39  1  0
  4 40  1  0
  5 41  1  1
  8 42  1  0
  8 43  1  0
  8 44  1  0
  9 45  1  0
  9 46  1  0
  9 47  1  0
 10 48  1  6
 11 49  1  0
 11 50  1  0
 12 51  1  0
 12 52  1  0
 14 53  1  0
 14 54  1  0
 14 55  1  0
 15 56  1  1
 16 57  1  0
 16 58  1  0
 17 59  1  0
 19 60  1  6
 20 61  1  0
 20 62  1  0
 21 63  1  0
 21 64  1  0
 22 65  1  6
 23 66  1  0
 25 67  1  0
 25 68  1  0
 25 69  1  0
 26 70  1  0
 26 71  1  0
 26 72  1  0
 28 73  1  0
 28 74  1  0
 28 75  1  0
 29 76  1  0
 29 77  1  0
 30 78  1  0
 30 79  1  0
 32 80  1  0
 32 81  1  0
 32 82  1  0
M  END
>  <meeko>  (12) 
{"is_sidechain": [false], "intermolecular_energy": 2.731, "internal_energy": -0.839}

$$$$
EPH_relaxed_0001_pdb2pqr_Repair_99_r2_0001_out
     RDKit          3D

 82 86  0  0  0  0  0  0  0  0999 V2000
   -2.0290    7.7860   -2.0480 C   0  0  0  0  0  0  0  0  0  0  0  0
   -2.3270    8.5320   -0.7440 C   0  0  2  0  0  0  0  0  0  0  0  0
   -3.8360    8.5740   -0.4300 C   0  0  0  0  0  0  0  0  0  0  0  0
   -4.6290    7.4290   -1.0680 C   0  0  0  0  0  0  0  0  0  0  0  0
   -6.0940    7.7390   -1.1330 C   0  0  2  0  0  0  0  0  0  0  0  0
   -6.9540    6.6230   -0.8690 O   0  0  0  0  0  0  0  0  0  0  0  0
   -7.0210    7.1760   -2.1940 C   0  0  0  0  0  0  0  0  0  0  0  0
   -6.5180    6.2570   -3.2630 C   0  0  0  0  0  0  0  0  0  0  0  0
   -8.3010    7.8970   -2.4810 C   0  0  0  0  0  0  0  0  0  0  0  0
   -1.7710    9.9500   -0.8190 C   0  0  1  0  0  0  0  0  0  0  0  0
   -1.3200   10.4880    0.5650 C   0  0  0  0  0  0  0  0  0  0  0  0
   -0.0810   11.3840    0.3140 C   0  0  0  0  0  0  0  0  0  0  0  0
   -0.0590   11.6000   -1.2170 C   0  0  1  0  0  0  0  0  0  0  0  0
   -1.0930   12.7410   -1.4760 C   0  0  0  0  0  0  0  0  0  0  0  0
    1.3320   11.9290   -1.8500 C   0  0  2  0  0  0  0  0  0  0  0  0
    1.9760   13.2390   -1.3650 C   0  0  0  0  0  0  0  0  0  0  0  0
    1.6390   14.4510   -2.1690 C   0  0  0  0  0  0  0  0  0  0  0  0
    1.0860   14.4460   -3.3960 C   0  0  0  0  0  0  0  0  0  0  0  0
    0.8320   13.1290   -4.1410 C   0  0  1  0  0  0  0  0  0  0  0  0
    1.3280   13.2580   -5.6050 C   0  0  0  0  0  0  0  0  0  0  0  0
    0.7240   14.4600   -6.3240 C   0  0  0  0  0  0  0  0  0  0  0  0
    1.0470   15.7560   -5.5850 C   0  0  2  0  0  0  0  0  0  0  0  0
    2.4560   15.9930   -5.6640 O   0  0  0  0  0  0  0  0  0  0  0  0
    0.6020   15.7400   -4.0960 C   0  0  0  0  0  0  0  0  0  0  0  0
   -0.9430   15.7880   -4.0140 C   0  0  0  0  0  0  0  0  0  0  0  0
    1.1130   17.0470   -3.4310 C   0  0  0  0  0  0  0  0  0  0  0  0
    1.3710   11.8150   -3.4270 C   0  0  1  0  0  0  0  0  0  0  0  0
    2.8590   11.5680   -3.8200 C   0  0  0  0  0  0  0  0  0  0  0  0
    0.5600   10.5730   -3.9580 C   0  0  0  0  0  0  0  0  0  0  0  0
   -0.7460   10.2280   -3.2160 C   0  0  0  0  0  0  0  0  0  0  0  0
   -0.5190   10.1770   -1.7020 C   0  0  2  0  0  0  0  0  0  0  0  0
    0.5000    9.0240   -1.4090 C   0  0  0  0  0  0  0  0  0  0  0  0
   -1.6301    6.7874   -1.8162 H   0  0  0  0  0  0  0  0  0  0  0  0
   -2.9555    7.6842   -2.6322 H   0  0  0  0  0  0  0  0  0  0  0  0
   -1.2874    8.3506   -2.6322 H   0  0  0  0  0  0  0  0  0  0  0  0
   -1.8358    7.9817    0.0720 H   0  0  0  0  0  0  0  0  0  0  0  0
   -3.9655    8.5206    0.6610 H   0  0  0  0  0  0  0  0  0  0  0  0
   -4.2268    9.5111   -0.8532 H   0  0  0  0  0  0  0  0  0  0  0  0
   -4.2544    7.2611   -2.0885 H   0  0  0  0  0  0  0  0  0  0  0  0
   -4.4954    6.5311   -0.4467 H   0  0  0  0  0  0  0  0  0  0  0  0
   -5.9175    8.7645   -0.7763 H   0  0  0  0  0  0  0  0  0  0  0  0
   -6.0392    5.3821   -2.7990 H   0  0  0  0  0  0  0  0  0  0  0  0
   -7.3604    5.9255   -3.8878 H   0  0  0  0  0  0  0  0  0  0  0  0
   -5.7847    6.7880   -3.8878 H   0  0  0  0  0  0  0  0  0  0  0  0
   -8.7878    8.1712   -1.5335 H   0  0  0  0  0  0  0  0  0  0  0  0
   -8.0871    8.8074   -3.0602 H   0  0  0  0  0  0  0  0  0  0  0  0
   -8.9687    7.2423   -3.0602 H   0  0  0  0  0  0  0  0  0  0  0  0
   -2.6383   10.4656   -1.2570 H   0  0  0  0  0  0  0  0  0  0  0  0
   -2.1274   11.0778    1.0236 H   0  0  0  0  0  0  0  0  0  0  0  0
   -1.0780    9.6621    1.2501 H   0  0  0  0  0  0  0  0  0  0  0  0
   -0.1835   12.3445    0.8402 H   0  0  0  0  0  0  0  0  0  0  0  0
    0.8476   10.9246    0.6837 H   0  0  0  0  0  0  0  0  0  0  0  0
   -1.4513   13.1364   -0.5141 H   0  0  0  0  0  0  0  0  0  0  0  0
   -0.6125   13.5483   -2.0482 H   0  0  0  0  0  0  0  0  0  0  0  0
   -1.9436   12.3421   -2.0482 H   0  0  0  0  0  0  0  0  0  0  0  0
    1.9661   11.1207   -1.4568 H   0  0  0  0  0  0  0  0  0  0  0  0
    1.6485   13.4159   -0.3299 H   0  0  0  0  0  0  0  0  0  0  0  0
    3.0625   13.0995   -1.4655 H   0  0  0  0  0  0  0  0  0  0  0  0
    1.8614   15.4306   -1.7208 H   0  0  0  0  0  0  0  0  0  0  0  0
   -0.2574   12.9771   -4.1290 H   0  0  0  0  0  0  0  0  0  0  0  0
    2.4228   13.3649   -5.5982 H   0  0  0  0  0  0  0  0  0  0  0  0
    1.0127   12.3531   -6.1451 H   0  0  0  0  0  0  0  0  0  0  0  0
    1.1354   14.5143   -7.3427 H   0  0  0  0  0  0  0  0  0  0  0  0
   -0.3686   14.3372   -6.3567 H   0  0  0  0  0  0  0  0  0  0  0  0
    0.4806   16.5633   -6.0723 H   0  0  0  0  0  0  0  0  0  0  0  0
    2.7000   16.5700   -4.9200 H   0  0  0  0  0  0  0  0  0  0  0  0
   -1.2541   15.7977   -2.9589 H   0  0  0  0  0  0  0  0  0  0  0  0
   -1.3085   16.6979   -4.5124 H   0  0  0  0  0  0  0  0  0  0  0  0
   -1.3643   14.9025   -4.5124 H   0  0  0  0  0  0  0  0  0  0  0  0
    1.0719   16.9420   -2.3368 H   0  0  0  0  0  0  0  0  0  0  0  0
    2.1510   17.2354   -3.7426 H   0  0  0  0  0  0  0  0  0  0  0  0
    0.4780   17.8895   -3.7426 H   0  0  0  0  0  0  0  0  0  0  0  0
    3.4670   11.4671   -2.9089 H   0  0  0  0  0  0  0  0  0  0  0  0
    2.9330   10.6453   -4.4142 H   0  0  0  0  0  0  0  0  0  0  0  0
    3.2271   12.4173   -4.4142 H   0  0  0  0  0  0  0  0  0  0  0  0
    0.3038   10.7677   -5.0099 H   0  0  0  0  0  0  0  0  0  0  0  0
    1.2200    9.7078   -3.7972 H   0  0  0  0  0  0  0  0  0  0  0  0
   -1.5013   10.9954   -3.4410 H   0  0  0  0  0  0  0  0  0  0  0  0
   -1.0901    9.2389   -3.5527 H   0  0  0  0  0  0  0  0  0  0  0  0
    0.6101    8.8995   -0.3216 H   0  0  0  0  0  0  0  0  0  0  0  0
    0.1298    8.0867   -1.8498 H   0  0  0  0  0  0  0  0  0  0  0  0
    1.4757    9.2762   -1.8498 H   0  0  0  0  0  0  0  0  0  0  0  0
  1  2  1  0
  2  3  1  0
  3  4  1  0
  4  5  1  0
  5  6  1  0
  6  7  1  0
  7  8  1  0
  7  9  1  0
  2 10  1  0
 10 11  1  0
 11 12  1  0
 12 13  1  0
 13 14  1  1
 13 15  1  0
 15 16  1  0
 16 17  1  0
 17 18  2  0
 18 19  1  0
 19 20  1  0
 20 21  1  0
 21 22  1  0
 22 23  1  0
 22 24  1  0
 24 25  1  0
 24 26  1  0
 19 27  1  0
 27 28  1  6
 27 29  1  0
 29 30  1  0
 30 31  1  0
 31 32  1  6
  7  5  1  0
 31 10  1  0
 31 13  1  0
 27 15  1  0
 24 18  1  0
  1 33  1  0
  1 34  1  0
  1 35  1  0
  2 36  1  1
  3 37  1  0
  3 38  1  0
  4 39  1  0
  4 40  1  0
  5 41  1  1
  8 42  1  0
  8 43  1  0
  8 44  1  0
  9 45  1  0
  9 46  1  0
  9 47  1  0
 10 48  1  6
 11 49  1  0
 11 50  1  0
 12 51  1  0
 12 52  1  0
 14 53  1  0
 14 54  1  0
 14 55  1  0
 15 56  1  1
 16 57  1  0
 16 58  1  0
 17 59  1  0
 19 60  1  6
 20 61  1  0
 20 62  1  0
 21 63  1  0
 21 64  1  0
 22 65  1  6
 23 66  1  0
 25 67  1  0
 25 68  1  0
 25 69  1  0
 26 70  1  0
 26 71  1  0
 26 72  1  0
 28 73  1  0
 28 74  1  0
 28 75  1  0
 29 76  1  0
 29 77  1  0
 30 78  1  0
 30 79  1  0
 32 80  1  0
 32 81  1  0
 32 82  1  0
M  END
>  <meeko>  (13) 
{"is_sidechain": [false], "intermolecular_energy": 2.731, "internal_energy": -0.839}

$$$$
EPH_relaxed_0001_pdb2pqr_Repair_99_r2_0001_out
     RDKit          3D

 82 86  0  0  0  0  0  0  0  0999 V2000
    2.6790   18.7030   -1.5810 C   0  0  0  0  0  0  0  0  0  0  0  0
    2.1390   17.6030   -2.4990 C   0  0  2  0  0  0  0  0  0  0  0  0
    0.6440   17.7960   -2.8200 C   0  0  0  0  0  0  0  0  0  0  0  0
    0.1000   19.1690   -2.4170 C   0  0  0  0  0  0  0  0  0  0  0  0
   -1.0980   19.0500   -1.5250 C   0  0  2  0  0  0  0  0  0  0  0  0
   -1.3290   20.1840   -0.6780 O   0  0  0  0  0  0  0  0  0  0  0  0
   -1.0090   18.9510   -0.0130 C   0  0  0  0  0  0  0  0  0  0  0  0
    0.3100   18.9650    0.6930 C   0  0  0  0  0  0  0  0  0  0  0  0
   -2.1610   18.3520    0.7340 C   0  0  0  0  0  0  0  0  0  0  0  0
    2.3630   16.2370   -1.8600 C   0  0  1  0  0  0  0  0  0  0  0  0
    3.0950   16.3290   -0.4940 C   0  0  0  0  0  0  0  0  0  0  0  0
    2.5140   15.2050    0.4010 C   0  0  0  0  0  0  0  0  0  0  0  0
    1.7190   14.3030   -0.5720 C   0  0  1  0  0  0  0  0  0  0  0  0
    2.7930   13.3890   -1.2400 C   0  0  0  0  0  0  0  0  0  0  0  0
    0.5570   13.4650    0.0560 C   0  0  2  0  0  0  0  0  0  0  0  0
    0.9930   12.4350    1.1120 C   0  0  0  0  0  0  0  0  0  0  0  0
    1.3120   11.0760    0.5840 C   0  0  0  0  0  0  0  0  0  0  0  0
    0.9820   10.6130   -0.6360 C   0  0  0  0  0  0  0  0  0  0  0  0
    0.1280   11.4560   -1.5930 C   0  0  1  0  0  0  0  0  0  0  0  0
   -0.9910   10.5720   -2.2030 C   0  0  0  0  0  0  0  0  0  0  0  0
   -0.4450    9.3100   -2.8650 C   0  0  0  0  0  0  0  0  0  0  0  0
    0.3480    8.4700   -1.8670 C   0  0  2  0  0  0  0  0  0  0  0  0
   -0.5500    7.9660   -0.8730 O   0  0  0  0  0  0  0  0  0  0  0  0
    1.4980    9.2590   -1.1810 C   0  0  0  0  0  0  0  0  0  0  0  0
    2.6200    9.5440   -2.2100 C   0  0  0  0  0  0  0  0  0  0  0  0
    2.1260    8.3410   -0.0980 C   0  0  0  0  0  0  0  0  0  0  0  0
   -0.4260   12.8240   -1.0060 C   0  0  1  0  0  0  0  0  0  0  0  0
   -1.7780   12.5780   -0.2680 C   0  0  0  0  0  0  0  0  0  0  0  0
   -0.7430   13.8040   -2.1970 C   0  0  0  0  0  0  0  0  0  0  0  0
    0.4150   14.6920   -2.6930 C   0  0  0  0  0  0  0  0  0  0  0  0
    1.1060   15.3960   -1.5220 C   0  0  2  0  0  0  0  0  0  0  0  0
    0.0560   16.3400   -0.8430 C   0  0  0  0  0  0  0  0  0  0  0  0
    2.5343   18.4082   -0.5311 H   0  0  0  0  0  0  0  0  0  0  0  0
    3.7516   18.8497   -1.7762 H   0  0  0  0  0  0  0  0  0  0  0  0
    2.1391   19.6413   -1.7762 H   0  0  0  0  0  0  0  0  0  0  0  0
    2.6904   17.6643   -3.4489 H   0  0  0  0  0  0  0  0  0  0  0  0
    0.5026   17.6709   -3.9037 H   0  0  0  0  0  0  0  0  0  0  0  0
    0.0904   17.0467   -2.2351 H   0  0  0  0  0  0  0  0  0  0  0  0
    0.8876   19.7222   -1.8844 H   0  0  0  0  0  0  0  0  0  0  0  0
   -0.2044   19.6993   -3.3314 H   0  0  0  0  0  0  0  0  0  0  0  0
   -1.6251   18.4414   -2.2746 H   0  0  0  0  0  0  0  0  0  0  0  0
    0.1439   18.9632    1.7804 H   0  0  0  0  0  0  0  0  0  0  0  0
    0.8875   18.0729    0.4088 H   0  0  0  0  0  0  0  0  0  0  0  0
    0.8684   19.8691    0.4088 H   0  0  0  0  0  0  0  0  0  0  0  0
   -1.9841   18.4440    1.8158 H   0  0  0  0  0  0  0  0  0  0  0  0
   -3.0867   18.8829    0.4674 H   0  0  0  0  0  0  0  0  0  0  0  0
   -2.2581   17.2892    0.4674 H   0  0  0  0  0  0  0  0  0  0  0  0
    2.9375   15.7499   -2.6616 H   0  0  0  0  0  0  0  0  0  0  0  0
    4.1762   16.1818   -0.6329 H   0  0  0  0  0  0  0  0  0  0  0  0
    2.9481   17.3168   -0.0329 H   0  0  0  0  0  0  0  0  0  0  0  0
    3.3223   14.6368    0.8846 H   0  0  0  0  0  0  0  0  0  0  0  0
    1.8844   15.6007    1.2116 H   0  0  0  0  0  0  0  0  0  0  0  0
    3.3834   12.8865   -0.4597 H   0  0  0  0  0  0  0  0  0  0  0  0
    2.2942   12.6341   -1.8656 H   0  0  0  0  0  0  0  0  0  0  0  0
    3.4584   14.0021   -1.8656 H   0  0  0  0  0  0  0  0  0  0  0  0
   -0.0167   14.2280    0.6025 H   0  0  0  0  0  0  0  0  0  0  0  0
    1.8908   12.8234    1.6152 H   0  0  0  0  0  0  0  0  0  0  0  0
    0.1320   12.3057    1.7843 H   0  0  0  0  0  0  0  0  0  0  0  0
    1.8638   10.3948    1.2484 H   0  0  0  0  0  0  0  0  0  0  0  0
    0.8083   11.7975   -2.3871 H   0  0  0  0  0  0  0  0  0  0  0  0
   -1.6843   10.2778   -1.4012 H   0  0  0  0  0  0  0  0  0  0  0  0
   -1.4976   11.1637   -2.9797 H   0  0  0  0  0  0  0  0  0  0  0  0
   -1.2850    8.7134   -3.2504 H   0  0  0  0  0  0  0  0  0  0  0  0
    0.2251    9.6058   -3.6857 H   0  0  0  0  0  0  0  0  0  0  0  0
    0.8209    7.6499   -2.4272 H   0  0  0  0  0  0  0  0  0  0  0  0
   -1.4210    7.8570   -1.2910 H   0  0  0  0  0  0  0  0  0  0  0  0
    3.5534    9.7811   -1.6785 H   0  0  0  0  0  0  0  0  0  0  0  0
    2.7728    8.6562   -2.8412 H   0  0  0  0  0  0  0  0  0  0  0  0
    2.3306   10.3972   -2.8412 H   0  0  0  0  0  0  0  0  0  0  0  0
    1.8658    8.7213    0.9008 H   0  0  0  0  0  0  0  0  0  0  0  0
    1.7373    7.3185   -0.2137 H   0  0  0  0  0  0  0  0  0  0  0  0
    3.2199    8.3327   -0.2137 H   0  0  0  0  0  0  0  0  0  0  0  0
   -1.6131   12.6080    0.8191 H   0  0  0  0  0  0  0  0  0  0  0  0
   -2.4980   13.3599   -0.5514 H   0  0  0  0  0  0  0  0  0  0  0  0
   -2.1764   11.5926   -0.5514 H   0  0  0  0  0  0  0  0  0  0  0  0
   -1.0833   13.1950   -3.0475 H   0  0  0  0  0  0  0  0  0  0  0  0
   -1.4938   14.5041   -1.8018 H   0  0  0  0  0  0  0  0  0  0  0  0
    1.1493   14.0648   -3.2198 H   0  0  0  0  0  0  0  0  0  0  0  0
    0.0057   15.4565   -3.3698 H   0  0  0  0  0  0  0  0  0  0  0  0
    0.1445   16.2604    0.2505 H   0  0  0  0  0  0  0  0  0  0  0  0
    0.2436   17.3791   -1.1514 H   0  0  0  0  0  0  0  0  0  0  0  0
   -0.9573   16.0433   -1.1514 H   0  0  0  0  0  0  0  0  0  0  0  0
  1  2  1  0
  2  3  1  0
  3  4  1  0
  4  5  1  0
  5  6  1  0
  6  7  1  0
  7  8  1  0
  7  9  1  0
  2 10  1  0
 10 11  1  0
 11 12  1  0
 12 13  1  0
 13 14  1  6
 13 15  1  0
 15 16  1  0
 16 17  1  0
 17 18  2  0
 18 19  1  0
 19 20  1  0
 20 21  1  0
 21 22  1  0
 22 23  1  0
 22 24  1  0
 24 25  1  0
 24 26  1  0
 19 27  1  0
 27 28  1  1
 27 29  1  0
 29 30  1  0
 30 31  1  0
 31 32  1  1
  7  5  1  0
 31 10  1  0
 31 13  1  0
 27 15  1  0
 24 18  1  0
  1 33  1  0
  1 34  1  0
  1 35  1  0
  2 36  1  6
  3 37  1  0
  3 38  1  0
  4 39  1  0
  4 40  1  0
  5 41  1  6
  8 42  1  0
  8 43  1  0
  8 44  1  0
  9 45  1  0
  9 46  1  0
  9 47  1  0
 10 48  1  6
 11 49  1  0
 11 50  1  0
 12 51  1  0
 12 52  1  0
 14 53  1  0
 14 54  1  0
 14 55  1  0
 15 56  1  1
 16 57  1  0
 16 58  1  0
 17 59  1  0
 19 60  1  6
 20 61  1  0
 20 62  1  0
 21 63  1  0
 21 64  1  0
 22 65  1  6
 23 66  1  0
 25 67  1  0
 25 68  1  0
 25 69  1  0
 26 70  1  0
 26 71  1  0
 26 72  1  0
 28 73  1  0
 28 74  1  0
 28 75  1  0
 29 76  1  0
 29 77  1  0
 30 78  1  0
 30 79  1  0
 32 80  1  0
 32 81  1  0
 32 82  1  0
M  END
>  <meeko>  (14) 
{"is_sidechain": [false], "intermolecular_energy": 2.731, "internal_energy": -0.839}

$$$$
EPH_relaxed_0001_pdb2pqr_Repair_99_r2_0001_out
     RDKit          3D

 82 86  0  0  0  0  0  0  0  0999 V2000
    0.2130   17.7040   -2.4540 C   0  0  0  0  0  0  0  0  0  0  0  0
   -0.0090   16.8490   -1.2030 C   0  0  2  0  0  0  0  0  0  0  0  0
    0.0140   17.6920    0.0880 C   0  0  0  0  0  0  0  0  0  0  0  0
    0.5230   19.1220   -0.1190 C   0  0  0  0  0  0  0  0  0  0  0  0
    2.0190   19.1920   -0.0590 C   0  0  2  0  0  0  0  0  0  0  0  0
    2.6220   18.2980    0.8860 O   0  0  0  0  0  0  0  0  0  0  0  0
    2.7840   19.7020    1.1480 C   0  0  0  0  0  0  0  0  0  0  0  0
    2.0750   20.1760    2.3780 C   0  0  0  0  0  0  0  0  0  0  0  0
    4.1840   20.1950    0.9520 C   0  0  0  0  0  0  0  0  0  0  0  0
    1.0480   15.7530   -1.1290 C   0  0  1  0  0  0  0  0  0  0  0  0
    1.1890   15.1560    0.2970 C   0  0  0  0  0  0  0  0  0  0  0  0
    1.5120   13.6500    0.1200 C   0  0  0  0  0  0  0  0  0  0  0  0
    1.8710   13.5000   -1.3770 C   0  0  1  0  0  0  0  0  0  0  0  0
    3.3590   13.9600   -1.4800 C   0  0  0  0  0  0  0  0  0  0  0  0
    1.6600   12.0820   -1.9990 C   0  0  2  0  0  0  0  0  0  0  0  0
    2.5200   10.9650   -1.3840 C   0  0  0  0  0  0  0  0  0  0  0  0
    3.8450   10.7460   -2.0370 C   0  0  0  0  0  0  0  0  0  0  0  0
    4.2090   11.2190   -3.2440 C   0  0  0  0  0  0  0  0  0  0  0  0
    3.2100   11.9770   -4.1270 C   0  0  1  0  0  0  0  0  0  0  0  0
    3.2860   11.4340   -5.5780 C   0  0  0  0  0  0  0  0  0  0  0  0
    4.7030   11.4660   -6.1420 C   0  0  0  0  0  0  0  0  0  0  0  0
    5.6550   10.6520   -5.2680 C   0  0  2  0  0  0  0  0  0  0  0  0
    5.2910    9.2710   -5.3520 O   0  0  0  0  0  0  0  0  0  0  0  0
    5.6570   11.1030   -3.7800 C   0  0  0  0  0  0  0  0  0  0  0  0
    6.3340   12.4910   -3.6580 C   0  0  0  0  0  0  0  0  0  0  0  0
    6.5490   10.1130   -2.9830 C   0  0  0  0  0  0  0  0  0  0  0  0
    1.7200   12.0530   -3.5810 C   0  0  1  0  0  0  0  0  0  0  0  0
    0.9220   10.7920   -4.0330 C   0  0  0  0  0  0  0  0  0  0  0  0
    0.9960   13.2920   -4.2290 C   0  0  0  0  0  0  0  0  0  0  0  0
    1.1440   14.6420   -3.5020 C   0  0  0  0  0  0  0  0  0  0  0  0
    0.8320   14.4970   -2.0090 C   0  0  2  0  0  0  0  0  0  0  0  0
   -0.6650   14.0570   -1.8730 C   0  0  0  0  0  0  0  0  0  0  0  0
    0.4791   18.7287   -2.1553 H   0  0  0  0  0  0  0  0  0  0  0  0
    1.0290   17.2730   -3.0526 H   0  0  0  0  0  0  0  0  0  0  0  0
   -0.7096   17.7244   -3.0526 H   0  0  0  0  0  0  0  0  0  0  0  0
   -1.0085   16.3968   -1.2837 H   0  0  0  0  0  0  0  0  0  0  0  0
   -1.0094   17.7422    0.4882 H   0  0  0  0  0  0  0  0  0  0  0  0
    0.7121   17.1996    0.7810 H   0  0  0  0  0  0  0  0  0  0  0  0
    0.1886   19.4804   -1.1037 H   0  0  0  0  0  0  0  0  0  0  0  0
    0.1177   19.7504    0.6877 H   0  0  0  0  0  0  0  0  0  0  0  0
    2.0745   19.4445   -1.1282 H   0  0  0  0  0  0  0  0  0  0  0  0
    2.6098   19.8184    3.2703 H   0  0  0  0  0  0  0  0  0  0  0  0
    2.0462   21.2756    2.3839 H   0  0  0  0  0  0  0  0  0  0  0  0
    1.0479   19.7823    2.3839 H   0  0  0  0  0  0  0  0  0  0  0  0
    4.6549   20.3608    1.9322 H   0  0  0  0  0  0  0  0  0  0  0  0
    4.7612   19.4460    0.3899 H   0  0  0  0  0  0  0  0  0  0  0  0
    4.1645   21.1403    0.3899 H   0  0  0  0  0  0  0  0  0  0  0  0
    1.9236   16.3155   -1.4852 H   0  0  0  0  0  0  0  0  0  0  0  0
    2.0044   15.6574    0.8389 H   0  0  0  0  0  0  0  0  0  0  0  0
    0.2655   15.2968    0.8778 H   0  0  0  0  0  0  0  0  0  0  0  0
    2.3622   13.3583    0.7541 H   0  0  0  0  0  0  0  0  0  0  0  0
    0.6698   13.0060    0.4131 H   0  0  0  0  0  0  0  0  0  0  0  0
    3.7739   14.0883   -0.4694 H   0  0  0  0  0  0  0  0  0  0  0  0
    3.9411   13.1999   -2.0216 H   0  0  0  0  0  0  0  0  0  0  0  0
    3.4106   14.9160   -2.0216 H   0  0  0  0  0  0  0  0  0  0  0  0
    0.6229   11.8514   -1.7139 H   0  0  0  0  0  0  0  0  0  0  0  0
    2.6990   11.2164   -0.3282 H   0  0  0  0  0  0  0  0  0  0  0  0
    1.9537   10.0327   -1.5255 H   0  0  0  0  0  0  0  0  0  0  0  0
    4.5858   10.1482   -1.4858 H   0  0  0  0  0  0  0  0  0  0  0  0
    3.5243   13.0309   -4.1058 H   0  0  0  0  0  0  0  0  0  0  0  0
    2.9275   10.3941   -5.5844 H   0  0  0  0  0  0  0  0  0  0  0  0
    2.6609   12.0821   -6.2098 H   0  0  0  0  0  0  0  0  0  0  0  0
    4.6962   11.0436   -7.1576 H   0  0  0  0  0  0  0  0  0  0  0  0
    5.0499   12.5096   -6.1628 H   0  0  0  0  0  0  0  0  0  0  0  0
    6.6742   10.8175   -5.6472 H   0  0  0  0  0  0  0  0  0  0  0  0
    6.1120    8.7540   -5.4150 H   0  0  0  0  0  0  0  0  0  0  0  0
    6.4584   12.7461   -2.5953 H   0  0  0  0  0  0  0  0  0  0  0  0
    7.3194   12.4625   -4.1461 H   0  0  0  0  0  0  0  0  0  0  0  0
    5.7049   13.2500   -4.1461 H   0  0  0  0  0  0  0  0  0  0  0  0
    6.4033   10.2747   -1.9047 H   0  0  0  0  0  0  0  0  0  0  0  0
    6.2706    9.0803   -3.2398 H   0  0  0  0  0  0  0  0  0  0  0  0
    7.6051   10.2827   -3.2398 H   0  0  0  0  0  0  0  0  0  0  0  0
    0.5736   10.2414   -3.1467 H   0  0  0  0  0  0  0  0  0  0  0  0
    0.0558   11.1028   -4.6356 H   0  0  0  0  0  0  0  0  0  0  0  0
    1.5737   10.1422   -4.6356 H   0  0  0  0  0  0  0  0  0  0  0  0
    1.3958   13.4164   -5.2462 H   0  0  0  0  0  0  0  0  0  0  0  0
   -0.0772   13.0556   -4.1808 H   0  0  0  0  0  0  0  0  0  0  0  0
    2.1761   15.0035   -3.6206 H   0  0  0  0  0  0  0  0  0  0  0  0
    0.4331   15.3572   -3.9414 H   0  0  0  0  0  0  0  0  0  0  0  0
   -0.9291   13.9794   -0.8080 H   0  0  0  0  0  0  0  0  0  0  0  0
   -1.3119   14.8030   -2.3577 H   0  0  0  0  0  0  0  0  0  0  0  0
   -0.8054   13.0796   -2.3577 H   0  0  0  0  0  0  0  0  0  0  0  0
  1  2  1  0
  2  3  1  0
  3  4  1  0
  4  5  1  0
  5  6  1  0
  6  7  1  0
  7  8  1  0
  7  9  1  0
  2 10  1  0
 10 11  1  0
 11 12  1  0
 12 13  1  0
 13 14  1  1
 13 15  1  0
 15 16  1  0
 16 17  1  0
 17 18  2  0
 18 19  1  0
 19 20  1  0
 20 21  1  0
 21 22  1  0
 22 23  1  0
 22 24  1  0
 24 25  1  0
 24 26  1  0
 19 27  1  0
 27 28  1  6
 27 29  1  0
 29 30  1  0
 30 31  1  0
 31 32  1  6
  7  5  1  0
 31 10  1  0
 31 13  1  0
 27 15  1  0
 24 18  1  0
  1 33  1  0
  1 34  1  0
  1 35  1  0
  2 36  1  6
  3 37  1  0
  3 38  1  0
  4 39  1  0
  4 40  1  0
  5 41  1  6
  8 42  1  0
  8 43  1  0
  8 44  1  0
  9 45  1  0
  9 46  1  0
  9 47  1  0
 10 48  1  6
 11 49  1  0
 11 50  1  0
 12 51  1  0
 12 52  1  0
 14 53  1  0
 14 54  1  0
 14 55  1  0
 15 56  1  6
 16 57  1  0
 16 58  1  0
 17 59  1  0
 19 60  1  6
 20 61  1  0
 20 62  1  0
 21 63  1  0
 21 64  1  0
 22 65  1  6
 23 66  1  0
 25 67  1  0
 25 68  1  0
 25 69  1  0
 26 70  1  0
 26 71  1  0
 26 72  1  0
 28 73  1  0
 28 74  1  0
 28 75  1  0
 29 76  1  0
 29 77  1  0
 30 78  1  0
 30 79  1  0
 32 80  1  0
 32 81  1  0
 32 82  1  0
M  END
>  <meeko>  (15) 
{"is_sidechain": [false], "intermolecular_energy": 2.731, "internal_energy": -0.839}

$$$$
EPH_relaxed_0001_pdb2pqr_Repair_99_r2_0001_out
     RDKit          3D

 82 86  0  0  0  0  0  0  0  0999 V2000
    0.1320    9.8760   -4.5450 C   0  0  0  0  0  0  0  0  0  0  0  0
    1.2200   10.6170   -3.7630 C   0  0  2  0  0  0  0  0  0  0  0  0
    1.7160    9.8060   -2.5490 C   0  0  0  0  0  0  0  0  0  0  0  0
    0.7490    8.7040   -2.1090 C   0  0  0  0  0  0  0  0  0  0  0  0
   -0.1490    9.1630   -1.0000 C   0  0  2  0  0  0  0  0  0  0  0  0
   -0.7180    8.1070   -0.2140 O   0  0  0  0  0  0  0  0  0  0  0  0
   -1.6430    8.9040   -0.9720 C   0  0  0  0  0  0  0  0  0  0  0  0
   -2.3270    8.1580   -2.0750 C   0  0  0  0  0  0  0  0  0  0  0  0
   -2.5080    9.7890   -0.1290 C   0  0  0  0  0  0  0  0  0  0  0  0
    0.7000   11.9740   -3.3070 C   0  0  1  0  0  0  0  0  0  0  0  0
   -0.7990   11.9360   -2.9070 C   0  0  0  0  0  0  0  0  0  0  0  0
   -0.9740   12.9300   -1.7310 C   0  0  0  0  0  0  0  0  0  0  0  0
    0.3400   13.7450   -1.7090 C   0  0  1  0  0  0  0  0  0  0  0  0
    0.1580   14.8290   -2.8170 C   0  0  0  0  0  0  0  0  0  0  0  0
    0.7360   14.3820   -0.3380 C   0  0  2  0  0  0  0  0  0  0  0  0
   -0.2570   15.4230    0.2090 C   0  0  0  0  0  0  0  0  0  0  0  0
    0.0060   16.8330   -0.2030 C   0  0  0  0  0  0  0  0  0  0  0  0
    1.1520   17.2900   -0.7430 C   0  0  0  0  0  0  0  0  0  0  0  0
    2.3710   16.3710   -0.8970 C   0  0  1  0  0  0  0  0  0  0  0  0
    3.6410   17.1070   -0.3970 C   0  0  0  0  0  0  0  0  0  0  0  0
    3.8400   18.4590   -1.0770 C   0  0  0  0  0  0  0  0  0  0  0  0
    2.6320   19.3650   -0.8510 C   0  0  2  0  0  0  0  0  0  0  0  0
    2.5580   19.6960    0.5390 O   0  0  0  0  0  0  0  0  0  0  0  0
    1.2920   18.7250   -1.3090 C   0  0  0  0  0  0  0  0  0  0  0  0
    1.2540   18.6430   -2.8550 C   0  0  0  0  0  0  0  0  0  0  0  0
    0.1400   19.6810   -0.8970 C   0  0  0  0  0  0  0  0  0  0  0  0
    2.2250   14.9150   -0.2760 C   0  0  1  0  0  0  0  0  0  0  0  0
    2.6280   14.9360    1.2300 C   0  0  0  0  0  0  0  0  0  0  0  0
    3.2370   13.9460   -0.9940 C   0  0  0  0  0  0  0  0  0  0  0  0
    2.7450   13.2550   -2.2790 C   0  0  0  0  0  0  0  0  0  0  0  0
    1.3710   12.6120   -2.0650 C   0  0  2  0  0  0  0  0  0  0  0  0
    1.5280   11.5020   -0.9710 C   0  0  0  0  0  0  0  0  0  0  0  0
   -0.5663    9.4004   -3.8406 H   0  0  0  0  0  0  0  0  0  0  0  0
   -0.4152   10.5900   -5.1781 H   0  0  0  0  0  0  0  0  0  0  0  0
    0.5959    9.1053   -5.1781 H   0  0  0  0  0  0  0  0  0  0  0  0
    2.0767   10.7566   -4.4387 H   0  0  0  0  0  0  0  0  0  0  0  0
    2.6772    9.3401   -2.8118 H   0  0  0  0  0  0  0  0  0  0  0  0
    1.8066   10.5091   -1.7079 H   0  0  0  0  0  0  0  0  0  0  0  0
    0.1303    8.4086   -2.9692 H   0  0  0  0  0  0  0  0  0  0  0  0
    1.3428    7.8549   -1.7395 H   0  0  0  0  0  0  0  0  0  0  0  0
    0.4431   10.0807   -0.8689 H   0  0  0  0  0  0  0  0  0  0  0  0
   -3.0110    7.4121   -1.6440 H   0  0  0  0  0  0  0  0  0  0  0  0
   -2.8983    8.8639   -2.6958 H   0  0  0  0  0  0  0  0  0  0  0  0
   -1.5743    7.6499   -2.6958 H   0  0  0  0  0  0  0  0  0  0  0  0
   -2.3117    9.5882    0.9345 H   0  0  0  0  0  0  0  0  0  0  0  0
   -2.2816   10.8423   -0.3511 H   0  0  0  0  0  0  0  0  0  0  0  0
   -3.5662    9.5867   -0.3511 H   0  0  0  0  0  0  0  0  0  0  0  0
    0.9259   12.5686   -4.2044 H   0  0  0  0  0  0  0  0  0  0  0  0
   -1.4258   12.2417   -3.7577 H   0  0  0  0  0  0  0  0  0  0  0  0
   -1.1037   10.9204   -2.6141 H   0  0  0  0  0  0  0  0  0  0  0  0
   -1.8369   13.5895   -1.9053 H   0  0  0  0  0  0  0  0  0  0  0  0
   -1.1623   12.4171   -0.7763 H   0  0  0  0  0  0  0  0  0  0  0  0
   -0.0067   15.8098   -2.3469 H   0  0  0  0  0  0  0  0  0  0  0  0
    1.0619   14.8693   -3.4425 H   0  0  0  0  0  0  0  0  0  0  0  0
   -0.7096   14.5719   -3.4425 H   0  0  0  0  0  0  0  0  0  0  0  0
    0.6761   13.5232    0.3467 H   0  0  0  0  0  0  0  0  0  0  0  0
   -1.2634   15.1490   -0.1402 H   0  0  0  0  0  0  0  0  0  0  0  0
   -0.1491   15.4007    1.3035 H   0  0  0  0  0  0  0  0  0  0  0  0
   -0.8050   17.5608   -0.0529 H   0  0  0  0  0  0  0  0  0  0  0  0
    2.4601   16.1624   -1.9734 H   0  0  0  0  0  0  0  0  0  0  0  0
    3.5515   17.2676    0.6875 H   0  0  0  0  0  0  0  0  0  0  0  0
    4.5097   16.4785   -0.6429 H   0  0  0  0  0  0  0  0  0  0  0  0
    4.7361   18.9429   -0.6612 H   0  0  0  0  0  0  0  0  0  0  0  0
    3.9590   18.2947   -2.1581 H   0  0  0  0  0  0  0  0  0  0  0  0
    2.7749   20.2655   -1.4663 H   0  0  0  0  0  0  0  0  0  0  0  0
    1.7790   19.2450    0.9070 H   0  0  0  0  0  0  0  0  0  0  0  0
    0.8097   17.6842   -3.1605 H   0  0  0  0  0  0  0  0  0  0  0  0
    0.6478   19.4709   -3.2513 H   0  0  0  0  0  0  0  0  0  0  0  0
    2.2776   18.7156   -3.2513 H   0  0  0  0  0  0  0  0  0  0  0  0
    0.0797   19.7310    0.2002 H   0  0  0  0  0  0  0  0  0  0  0  0
    0.3356   20.6858   -1.2997 H   0  0  0  0  0  0  0  0  0  0  0  0
   -0.8115   19.3035   -1.2997 H   0  0  0  0  0  0  0  0  0  0  0  0
    1.7224   14.8888    1.8526 H   0  0  0  0  0  0  0  0  0  0  0  0
    3.2697   14.0701    1.4500 H   0  0  0  0  0  0  0  0  0  0  0  0
    3.1762   15.8639    1.4500 H   0  0  0  0  0  0  0  0  0  0  0  0
    4.1315   14.5316   -1.2528 H   0  0  0  0  0  0  0  0  0  0  0  0
    3.4111   13.1298   -0.2774 H   0  0  0  0  0  0  0  0  0  0  0  0
    2.6714   14.0017   -3.0834 H   0  0  0  0  0  0  0  0  0  0  0  0
    3.4626   12.4665   -2.5497 H   0  0  0  0  0  0  0  0  0  0  0  0
    1.4633   11.9594    0.0273 H   0  0  0  0  0  0  0  0  0  0  0  0
    0.7262   10.7578   -1.0860 H   0  0  0  0  0  0  0  0  0  0  0  0
    2.5048   11.0094   -1.0860 H   0  0  0  0  0  0  0  0  0  0  0  0
  1  2  1  0
  2  3  1  0
  3  4  1  0
  4  5  1  0
  5  6  1  0
  6  7  1  0
  7  8  1  0
  7  9  1  0
  2 10  1  0
 10 11  1  0
 11 12  1  0
 12 13  1  0
 13 14  1  6
 13 15  1  0
 15 16  1  0
 16 17  1  0
 17 18  2  0
 18 19  1  0
 19 20  1  0
 20 21  1  0
 21 22  1  0
 22 23  1  0
 22 24  1  0
 24 25  1  0
 24 26  1  0
 19 27  1  0
 27 28  1  1
 27 29  1  0
 29 30  1  0
 30 31  1  0
 31 32  1  1
  7  5  1  0
 31 10  1  0
 31 13  1  0
 27 15  1  0
 24 18  1  0
  1 33  1  0
  1 34  1  0
  1 35  1  0
  2 36  1  6
  3 37  1  0
  3 38  1  0
  4 39  1  0
  4 40  1  0
  5 41  1  1
  8 42  1  0
  8 43  1  0
  8 44  1  0
  9 45  1  0
  9 46  1  0
  9 47  1  0
 10 48  1  6
 11 49  1  0
 11 50  1  0
 12 51  1  0
 12 52  1  0
 14 53  1  0
 14 54  1  0
 14 55  1  0
 15 56  1  1
 16 57  1  0
 16 58  1  0
 17 59  1  0
 19 60  1  6
 20 61  1  0
 20 62  1  0
 21 63  1  0
 21 64  1  0
 22 65  1  6
 23 66  1  0
 25 67  1  0
 25 68  1  0
 25 69  1  0
 26 70  1  0
 26 71  1  0
 26 72  1  0
 28 73  1  0
 28 74  1  0
 28 75  1  0
 29 76  1  0
 29 77  1  0
 30 78  1  0
 30 79  1  0
 32 80  1  0
 32 81  1  0
 32 82  1  0
M  END
>  <meeko>  (16) 
{"is_sidechain": [false], "intermolecular_energy": 2.731, "internal_energy": -0.839}

$$$$
EPH_relaxed_0001_pdb2pqr_Repair_99_r2_0001_out
     RDKit          3D

 82 86  0  0  0  0  0  0  0  0999 V2000
    0.9680   14.9150   -2.6730 C   0  0  0  0  0  0  0  0  0  0  0  0
    1.2050   14.2370   -4.0260 C   0  0  2  0  0  0  0  0  0  0  0  0
    0.4750   14.9620   -5.1740 C   0  0  0  0  0  0  0  0  0  0  0  0
    1.0110   14.6100   -6.5640 C   0  0  0  0  0  0  0  0  0  0  0  0
    0.8120   15.7330   -7.5370 C   0  0  2  0  0  0  0  0  0  0  0  0
    0.3770   15.3260   -8.8410 O   0  0  0  0  0  0  0  0  0  0  0  0
    1.6760   15.9370   -8.7670 C   0  0  0  0  0  0  0  0  0  0  0  0
    2.8040   15.0090   -9.0910 C   0  0  0  0  0  0  0  0  0  0  0  0
    1.7350   17.3010   -9.3810 C   0  0  0  0  0  0  0  0  0  0  0  0
    0.7600   12.7810   -3.9630 C   0  0  1  0  0  0  0  0  0  0  0  0
    1.8950   11.7930   -4.3420 C   0  0  0  0  0  0  0  0  0  0  0  0
    1.7030   10.5310   -3.4610 C   0  0  0  0  0  0  0  0  0  0  0  0
    0.2900   10.6930   -2.8530 C   0  0  1  0  0  0  0  0  0  0  0  0
   -0.6860   10.2140   -3.9730 C   0  0  0  0  0  0  0  0  0  0  0  0
    0.0300    9.9480   -1.5030 C   0  0  2  0  0  0  0  0  0  0  0  0
    0.1410    8.4140   -1.5720 C   0  0  0  0  0  0  0  0  0  0  0  0
   -1.1300    7.6970   -1.8890 C   0  0  0  0  0  0  0  0  0  0  0  0
   -2.3640    8.2300   -1.8290 C   0  0  0  0  0  0  0  0  0  0  0  0
   -2.5820    9.6590   -1.3160 C   0  0  1  0  0  0  0  0  0  0  0  0
   -3.7600    9.6730   -0.3060 C   0  0  0  0  0  0  0  0  0  0  0  0
   -5.0320    9.0600   -0.8830 C   0  0  0  0  0  0  0  0  0  0  0  0
   -4.7910    7.6200   -1.3290 C   0  0  2  0  0  0  0  0  0  0  0  0
   -4.5270    6.8180   -0.1740 O   0  0  0  0  0  0  0  0  0  0  0  0
   -3.6190    7.4800   -2.3410 C   0  0  0  0  0  0  0  0  0  0  0  0
   -4.0310    8.0950   -3.7020 C   0  0  0  0  0  0  0  0  0  0  0  0
   -3.3900    5.9670   -2.6000 C   0  0  0  0  0  0  0  0  0  0  0  0
   -1.2910   10.3990   -0.7580 C   0  0  1  0  0  0  0  0  0  0  0  0
   -1.0910   10.0550    0.7500 C   0  0  0  0  0  0  0  0  0  0  0  0
   -1.5180   11.9550   -0.8320 C   0  0  0  0  0  0  0  0  0  0  0  0
   -1.1300   12.6520   -2.1500 C   0  0  0  0  0  0  0  0  0  0  0  0
    0.2780   12.2430   -2.5930 C   0  0  2  0  0  0  0  0  0  0  0  0
    1.2850   12.7310   -1.4960 C   0  0  0  0  0  0  0  0  0  0  0  0
    1.2135   14.2126   -1.8629 H   0  0  0  0  0  0  0  0  0  0  0  0
    1.6080   15.8060   -2.5923 H   0  0  0  0  0  0  0  0  0  0  0  0
   -0.0877   15.2133   -2.5923 H   0  0  0  0  0  0  0  0  0  0  0  0
    2.2835   14.2869   -4.2368 H   0  0  0  0  0  0  0  0  0  0  0  0
   -0.5904   14.6911   -5.1339 H   0  0  0  0  0  0  0  0  0  0  0  0
    0.6399   16.0399   -5.0296 H   0  0  0  0  0  0  0  0  0  0  0  0
    2.0864   14.3921   -6.4865 H   0  0  0  0  0  0  0  0  0  0  0  0
    0.4565   13.7347   -6.9333 H   0  0  0  0  0  0  0  0  0  0  0  0
    0.5102   16.4127   -6.7265 H   0  0  0  0  0  0  0  0  0  0  0  0
    3.2539   14.6389   -8.1579 H   0  0  0  0  0  0  0  0  0  0  0  0
    2.4231   14.1593   -9.6766 H   0  0  0  0  0  0  0  0  0  0  0  0
    3.5643   15.5465   -9.6766 H   0  0  0  0  0  0  0  0  0  0  0  0
    1.7678   18.0601   -8.5855 H   0  0  0  0  0  0  0  0  0  0  0  0
    2.6376   17.3838  -10.0043 H   0  0  0  0  0  0  0  0  0  0  0  0
    0.8430   17.4614  -10.0043 H   0  0  0  0  0  0  0  0  0  0  0  0
   -0.0815   12.8147   -4.6707 H   0  0  0  0  0  0  0  0  0  0  0  0
    1.8247   11.5259   -5.4067 H   0  0  0  0  0  0  0  0  0  0  0  0
    2.8839   12.2447   -4.1745 H   0  0  0  0  0  0  0  0  0  0  0  0
    1.7609    9.6181   -4.0719 H   0  0  0  0  0  0  0  0  0  0  0  0
    2.4816   10.4376   -2.6896 H   0  0  0  0  0  0  0  0  0  0  0  0
   -1.5833    9.7736   -3.5137 H   0  0  0  0  0  0  0  0  0  0  0  0
   -0.9770   11.0717   -4.5973 H   0  0  0  0  0  0  0  0  0  0  0  0
   -0.1856    9.4591   -4.5973 H   0  0  0  0  0  0  0  0  0  0  0  0
    0.8755   10.2810   -0.8831 H   0  0  0  0  0  0  0  0  0  0  0  0
    0.8772    8.1609   -2.3492 H   0  0  0  0  0  0  0  0  0  0  0  0
    0.4338    8.0840   -0.5643 H   0  0  0  0  0  0  0  0  0  0  0  0
   -1.0507    6.6442   -2.1976 H   0  0  0  0  0  0  0  0  0  0  0  0
   -2.8402   10.2630   -2.1983 H   0  0  0  0  0  0  0  0  0  0  0  0
   -3.4662    9.1010    0.5864 H   0  0  0  0  0  0  0  0  0  0  0  0
   -3.9769   10.7230   -0.0603 H   0  0  0  0  0  0  0  0  0  0  0  0
   -5.8181    9.0716   -0.1136 H   0  0  0  0  0  0  0  0  0  0  0  0
   -5.3406    9.6511   -1.7578 H   0  0  0  0  0  0  0  0  0  0  0  0
   -5.6980    7.2799   -1.8503 H   0  0  0  0  0  0  0  0  0  0  0  0
   -5.3160    6.2760   -0.0060 H   0  0  0  0  0  0  0  0  0  0  0  0
   -4.6356    8.9975   -3.5286 H   0  0  0  0  0  0  0  0  0  0  0  0
   -3.1288    8.3620   -4.2719 H   0  0  0  0  0  0  0  0  0  0  0  0
   -4.6212    7.3622   -4.2719 H   0  0  0  0  0  0  0  0  0  0  0  0
   -3.3100    5.4384   -1.6386 H   0  0  0  0  0  0  0  0  0  0  0  0
   -4.2369    5.5607   -3.1725 H   0  0  0  0  0  0  0  0  0  0  0  0
   -2.4608    5.8295   -3.1725 H   0  0  0  0  0  0  0  0  0  0  0  0
   -1.5480   10.8410    1.3691 H   0  0  0  0  0  0  0  0  0  0  0  0
   -1.5684    9.0892    0.9722 H   0  0  0  0  0  0  0  0  0  0  0  0
   -0.0155    9.9921    0.9722 H   0  0  0  0  0  0  0  0  0  0  0  0
   -2.5876   12.1438   -0.6581 H   0  0  0  0  0  0  0  0  0  0  0  0
   -0.8452   12.3803   -0.0727 H   0  0  0  0  0  0  0  0  0  0  0  0
   -1.8497   12.3688   -2.9322 H   0  0  0  0  0  0  0  0  0  0  0  0
   -1.1446   13.7400   -1.9887 H   0  0  0  0  0  0  0  0  0  0  0  0
    0.8673   12.5286   -0.4987 H   0  0  0  0  0  0  0  0  0  0  0  0
    2.2390   12.1953   -1.6096 H   0  0  0  0  0  0  0  0  0  0  0  0
    1.4556   13.8117   -1.6096 H   0  0  0  0  0  0  0  0  0  0  0  0
  1  2  1  0
  2  3  1  0
  3  4  1  0
  4  5  1  0
  5  6  1  0
  6  7  1  0
  7  8  1  0
  7  9  1  0
  2 10  1  0
 10 11  1  0
 11 12  1  0
 12 13  1  0
 13 14  1  6
 13 15  1  0
 15 16  1  0
 16 17  1  0
 17 18  2  0
 18 19  1  0
 19 20  1  0
 20 21  1  0
 21 22  1  0
 22 23  1  0
 22 24  1  0
 24 25  1  0
 24 26  1  0
 19 27  1  0
 27 28  1  1
 27 29  1  0
 29 30  1  0
 30 31  1  0
 31 32  1  1
  7  5  1  0
 31 10  1  0
 31 13  1  0
 27 15  1  0
 24 18  1  0
  1 33  1  0
  1 34  1  0
  1 35  1  0
  2 36  1  6
  3 37  1  0
  3 38  1  0
  4 39  1  0
  4 40  1  0
  5 41  1  1
  8 42  1  0
  8 43  1  0
  8 44  1  0
  9 45  1  0
  9 46  1  0
  9 47  1  0
 10 48  1  6
 11 49  1  0
 11 50  1  0
 12 51  1  0
 12 52  1  0
 14 53  1  0
 14 54  1  0
 14 55  1  0
 15 56  1  1
 16 57  1  0
 16 58  1  0
 17 59  1  0
 19 60  1  6
 20 61  1  0
 20 62  1  0
 21 63  1  0
 21 64  1  0
 22 65  1  6
 23 66  1  0
 25 67  1  0
 25 68  1  0
 25 69  1  0
 26 70  1  0
 26 71  1  0
 26 72  1  0
 28 73  1  0
 28 74  1  0
 28 75  1  0
 29 76  1  0
 29 77  1  0
 30 78  1  0
 30 79  1  0
 32 80  1  0
 32 81  1  0
 32 82  1  0
M  END
>  <meeko>  (17) 
{"is_sidechain": [false], "intermolecular_energy": 2.731, "internal_energy": -0.839}

$$$$
EPH_relaxed_0001_pdb2pqr_Repair_99_r2_0001_out
     RDKit          3D

 82 86  0  0  0  0  0  0  0  0999 V2000
    2.8680   18.1710   -3.7660 C   0  0  0  0  0  0  0  0  0  0  0  0
    2.0310   18.0620   -2.4880 C   0  0  2  0  0  0  0  0  0  0  0  0
    2.3580   19.1840   -1.4830 C   0  0  0  0  0  0  0  0  0  0  0  0
    1.8670   18.8980   -0.0610 C   0  0  0  0  0  0  0  0  0  0  0  0
    2.4950   19.8220    0.9380 C   0  0  2  0  0  0  0  0  0  0  0  0
    3.8470   20.1950    0.6420 O   0  0  0  0  0  0  0  0  0  0  0  0
    3.6510   19.4210    1.8370 C   0  0  0  0  0  0  0  0  0  0  0  0
    4.2450   18.0490    1.7790 C   0  0  0  0  0  0  0  0  0  0  0  0
    3.8770   20.1940    3.0990 C   0  0  0  0  0  0  0  0  0  0  0  0
    2.2500   16.7000   -1.8390 C   0  0  1  0  0  0  0  0  0  0  0  0
    2.7600   16.8100   -0.3780 C   0  0  0  0  0  0  0  0  0  0  0  0
    2.1310   15.6310    0.4070 C   0  0  0  0  0  0  0  0  0  0  0  0
    1.5540   14.7000   -0.6860 C   0  0  1  0  0  0  0  0  0  0  0  0
    2.7770   13.8730   -1.1950 C   0  0  0  0  0  0  0  0  0  0  0  0
    0.3720   13.7730   -0.2510 C   0  0  2  0  0  0  0  0  0  0  0  0
    0.7140   12.7510    0.8470 C   0  0  0  0  0  0  0  0  0  0  0  0
    1.2010   11.4280    0.3570 C   0  0  0  0  0  0  0  0  0  0  0  0
    1.0910   10.9720   -0.9040 C   0  0  0  0  0  0  0  0  0  0  0  0
    0.3350   11.7760   -1.9690 C   0  0  1  0  0  0  0  0  0  0  0  0
   -0.6170   10.8340   -2.7510 C   0  0  0  0  0  0  0  0  0  0  0  0
    0.1070    9.6260   -3.3380 C   0  0  0  0  0  0  0  0  0  0  0  0
    0.7970    8.8190   -2.2410 C   0  0  2  0  0  0  0  0  0  0  0  0
   -0.2020    8.2350   -1.4010 O   0  0  0  0  0  0  0  0  0  0  0  0
    1.7750    9.6660   -1.3800 C   0  0  0  0  0  0  0  0  0  0  0  0
    3.0160   10.0480   -2.2250 C   0  0  0  0  0  0  0  0  0  0  0  0
    2.2950    8.7680   -0.2260 C   0  0  0  0  0  0  0  0  0  0  0  0
   -0.3950   13.0920   -1.4560 C   0  0  1  0  0  0  0  0  0  0  0  0
   -1.8210   12.7400   -0.9340 C   0  0  0  0  0  0  0  0  0  0  0  0
   -0.5960   14.0750   -2.6690 C   0  0  0  0  0  0  0  0  0  0  0  0
    0.5600   15.0480   -2.9740 C   0  0  0  0  0  0  0  0  0  0  0  0
    1.0180   15.7700   -1.7040 C   0  0  2  0  0  0  0  0  0  0  0  0
   -0.1850   16.6280   -1.1810 C   0  0  0  0  0  0  0  0  0  0  0  0
    3.9265   18.3088   -3.5004 H   0  0  0  0  0  0  0  0  0  0  0  0
    2.7553   17.2506   -4.3577 H   0  0  0  0  0  0  0  0  0  0  0  0
    2.5233   19.0318   -4.3577 H   0  0  0  0  0  0  0  0  0  0  0  0
    0.9743   18.1724   -2.7729 H   0  0  0  0  0  0  0  0  0  0  0  0
    3.4496   19.3167   -1.4535 H   0  0  0  0  0  0  0  0  0  0  0  0
    1.8349   20.0879   -1.8284 H   0  0  0  0  0  0  0  0  0  0  0  0
    0.7750   19.0264   -0.0282 H   0  0  0  0  0  0  0  0  0  0  0  0
    2.1505   17.8675    0.1992 H   0  0  0  0  0  0  0  0  0  0  0  0
    1.5230   20.2911    1.1504 H   0  0  0  0  0  0  0  0  0  0  0  0
    4.4065   17.6759    2.8011 H   0  0  0  0  0  0  0  0  0  0  0  0
    3.5584   17.3744    1.2466 H   0  0  0  0  0  0  0  0  0  0  0  0
    5.2068   18.0881    1.2466 H   0  0  0  0  0  0  0  0  0  0  0  0
    3.6870   19.5442    3.9660 H   0  0  0  0  0  0  0  0  0  0  0  0
    4.9171   20.5508    3.1291 H   0  0  0  0  0  0  0  0  0  0  0  0
    3.1930   21.0549    3.1291 H   0  0  0  0  0  0  0  0  0  0  0  0
    2.9700   16.2702   -2.5510 H   0  0  0  0  0  0  0  0  0  0  0  0
    3.8574   16.7382   -0.3538 H   0  0  0  0  0  0  0  0  0  0  0  0
    2.4769   17.7754    0.0668 H   0  0  0  0  0  0  0  0  0  0  0  0
    2.8953   15.1072    0.9998 H   0  0  0  0  0  0  0  0  0  0  0  0
    1.3622   15.9660    1.1189 H   0  0  0  0  0  0  0  0  0  0  0  0
    3.3442   13.4895   -0.3341 H   0  0  0  0  0  0  0  0  0  0  0  0
    2.4210   13.0295   -1.8047 H   0  0  0  0  0  0  0  0  0  0  0  0
    3.4273   14.5175   -1.8047 H   0  0  0  0  0  0  0  0  0  0  0  0
   -0.3278   14.4848    0.2113 H   0  0  0  0  0  0  0  0  0  0  0  0
    1.4973   13.1866    1.4848 H   0  0  0  0  0  0  0  0  0  0  0  0
   -0.2271   12.5505    1.3800 H   0  0  0  0  0  0  0  0  0  0  0  0
    1.6916   10.7698    1.0891 H   0  0  0  0  0  0  0  0  0  0  0  0
    1.1021   12.1779   -2.6472 H   0  0  0  0  0  0  0  0  0  0  0  0
   -1.4005   10.4771   -2.0664 H   0  0  0  0  0  0  0  0  0  0  0  0
   -1.0413   11.4080   -3.5880 H   0  0  0  0  0  0  0  0  0  0  0  0
   -0.6228    8.9838   -3.8528 H   0  0  0  0  0  0  0  0  0  0  0  0
    0.8704    9.9829   -4.0450 H   0  0  0  0  0  0  0  0  0  0  0  0
    1.4038    8.0447   -2.7333 H   0  0  0  0  0  0  0  0  0  0  0  0
   -0.2430    7.2860   -1.6080 H   0  0  0  0  0  0  0  0  0  0  0  0
    3.8504   10.3048   -1.5558 H   0  0  0  0  0  0  0  0  0  0  0  0
    3.3036    9.1968   -2.8596 H   0  0  0  0  0  0  0  0  0  0  0  0
    2.7752   10.9136   -2.8596 H   0  0  0  0  0  0  0  0  0  0  0  0
    2.0314    9.2232    0.7401 H   0  0  0  0  0  0  0  0  0  0  0  0
    1.8338    7.7721   -0.3001 H   0  0  0  0  0  0  0  0  0  0  0  0
    3.3883    8.6722   -0.3001 H   0  0  0  0  0  0  0  0  0  0  0  0
   -1.8193   12.7404    0.1660 H   0  0  0  0  0  0  0  0  0  0  0  0
   -2.5403   13.4876   -1.2998 H   0  0  0  0  0  0  0  0  0  0  0  0
   -2.1098   11.7436   -1.2998 H   0  0  0  0  0  0  0  0  0  0  0  0
   -0.7628   13.4640   -3.5684 H   0  0  0  0  0  0  0  0  0  0  0  0
   -1.4434   14.7154   -2.3831 H   0  0  0  0  0  0  0  0  0  0  0  0
    1.4060   14.4822   -3.3912 H   0  0  0  0  0  0  0  0  0  0  0  0
    0.2055   15.7986   -3.6957 H   0  0  0  0  0  0  0  0  0  0  0  0
   -0.1847   16.6278   -0.0810 H   0  0  0  0  0  0  0  0  0  0  0  0
   -0.0858   17.6604   -1.5475 H   0  0  0  0  0  0  0  0  0  0  0  0
   -1.1288   16.1980   -1.5475 H   0  0  0  0  0  0  0  0  0  0  0  0
  1  2  1  0
  2  3  1  0
  3  4  1  0
  4  5  1  0
  5  6  1  0
  6  7  1  0
  7  8  1  0
  7  9  1  0
  2 10  1  0
 10 11  1  0
 11 12  1  0
 12 13  1  0
 13 14  1  6
 13 15  1  0
 15 16  1  0
 16 17  1  0
 17 18  2  0
 18 19  1  0
 19 20  1  0
 20 21  1  0
 21 22  1  0
 22 23  1  0
 22 24  1  0
 24 25  1  0
 24 26  1  0
 19 27  1  0
 27 28  1  1
 27 29  1  0
 29 30  1  0
 30 31  1  0
 31 32  1  1
  7  5  1  0
 31 10  1  0
 31 13  1  0
 27 15  1  0
 24 18  1  0
  1 33  1  0
  1 34  1  0
  1 35  1  0
  2 36  1  6
  3 37  1  0
  3 38  1  0
  4 39  1  0
  4 40  1  0
  5 41  1  1
  8 42  1  0
  8 43  1  0
  8 44  1  0
  9 45  1  0
  9 46  1  0
  9 47  1  0
 10 48  1  6
 11 49  1  0
 11 50  1  0
 12 51  1  0
 12 52  1  0
 14 53  1  0
 14 54  1  0
 14 55  1  0
 15 56  1  1
 16 57  1  0
 16 58  1  0
 17 59  1  0
 19 60  1  6
 20 61  1  0
 20 62  1  0
 21 63  1  0
 21 64  1  0
 22 65  1  6
 23 66  1  0
 25 67  1  0
 25 68  1  0
 25 69  1  0
 26 70  1  0
 26 71  1  0
 26 72  1  0
 28 73  1  0
 28 74  1  0
 28 75  1  0
 29 76  1  0
 29 77  1  0
 30 78  1  0
 30 79  1  0
 32 80  1  0
 32 81  1  0
 32 82  1  0
M  END
>  <meeko>  (18) 
{"is_sidechain": [false], "intermolecular_energy": 2.731, "internal_energy": -0.839}

$$$$
EPH_relaxed_0001_pdb2pqr_Repair_99_r2_0001_out
     RDKit          3D

 82 86  0  0  0  0  0  0  0  0999 V2000
   -2.5090    7.7350   -0.1480 C   0  0  0  0  0  0  0  0  0  0  0  0
   -3.0940    9.1490   -0.0860 C   0  0  2  0  0  0  0  0  0  0  0  0
   -4.5940    9.1730   -0.4430 C   0  0  0  0  0  0  0  0  0  0  0  0
   -5.2350    7.7840   -0.5020 C   0  0  0  0  0  0  0  0  0  0  0  0
   -5.8960    7.5340   -1.8230 C   0  0  2  0  0  0  0  0  0  0  0  0
   -6.8160    8.5530   -2.2350 O   0  0  0  0  0  0  0  0  0  0  0  0
   -7.3790    7.2560   -1.9780 C   0  0  0  0  0  0  0  0  0  0  0  0
   -8.2930    7.2140   -0.7930 C   0  0  0  0  0  0  0  0  0  0  0  0
   -7.8500    6.5480   -3.2100 C   0  0  0  0  0  0  0  0  0  0  0  0
   -2.3210   10.0730   -1.0190 C   0  0  1  0  0  0  0  0  0  0  0  0
   -2.9550   11.4850   -1.1220 C   0  0  0  0  0  0  0  0  0  0  0  0
   -1.7860   12.4910   -1.2770 C   0  0  0  0  0  0  0  0  0  0  0  0
   -0.5530   11.6100   -1.5910 C   0  0  1  0  0  0  0  0  0  0  0  0
   -0.6580   11.3030   -3.1180 C   0  0  0  0  0  0  0  0  0  0  0  0
    0.8400   12.2130   -1.2170 C   0  0  2  0  0  0  0  0  0  0  0  0
    1.2130   13.5060   -1.9640 C   0  0  0  0  0  0  0  0  0  0  0  0
    1.9540   13.3120   -3.2450 C   0  0  0  0  0  0  0  0  0  0  0  0
    2.5550   12.1730   -3.6360 C   0  0  0  0  0  0  0  0  0  0  0  0
    2.6090   10.9520   -2.7080 C   0  0  1  0  0  0  0  0  0  0  0  0
    4.0470   10.3720   -2.6980 C   0  0  0  0  0  0  0  0  0  0  0  0
    4.5630   10.0630   -4.1000 C   0  0  0  0  0  0  0  0  0  0  0  0
    4.5490   11.3140   -4.9750 C   0  0  2  0  0  0  0  0  0  0  0  0
    5.5080   12.2440   -4.4640 O   0  0  0  0  0  0  0  0  0  0  0  0
    3.1520   11.9910   -5.0530 C   0  0  0  0  0  0  0  0  0  0  0  0
    2.1880   11.1030   -5.8770 C   0  0  0  0  0  0  0  0  0  0  0  0
    3.3080   13.3160   -5.8480 C   0  0  0  0  0  0  0  0  0  0  0  0
    2.0270   11.1680   -1.2450 C   0  0  1  0  0  0  0  0  0  0  0  0
    3.1390   11.7320   -0.3080 C   0  0  0  0  0  0  0  0  0  0  0  0
    1.6090    9.7720   -0.6470 C   0  0  0  0  0  0  0  0  0  0  0  0
    0.1800    9.2860   -0.9520 C   0  0  0  0  0  0  0  0  0  0  0  0
   -0.8480   10.3820   -0.6540 C   0  0  2  0  0  0  0  0  0  0  0  0
   -0.7810   10.6970    0.8790 C   0  0  0  0  0  0  0  0  0  0  0  0
   -2.3529    7.3577    0.8734 H   0  0  0  0  0  0  0  0  0  0  0  0
   -3.2069    7.0725   -0.6810 H   0  0  0  0  0  0  0  0  0  0  0  0
   -1.5470    7.7592   -0.6810 H   0  0  0  0  0  0  0  0  0  0  0  0
   -2.9962    9.5024    0.9511 H   0  0  0  0  0  0  0  0  0  0  0  0
   -5.1224    9.7673    0.3170 H   0  0  0  0  0  0  0  0  0  0  0  0
   -4.6779    9.6087   -1.4495 H   0  0  0  0  0  0  0  0  0  0  0  0
   -4.4550    7.0245   -0.3444 H   0  0  0  0  0  0  0  0  0  0  0  0
   -6.0043    7.7280    0.2822 H   0  0  0  0  0  0  0  0  0  0  0  0
   -5.0043    7.0085   -2.1954 H   0  0  0  0  0  0  0  0  0  0  0  0
   -7.6968    7.2414    0.1310 H   0  0  0  0  0  0  0  0  0  0  0  0
   -8.9681    8.0821   -0.8197 H   0  0  0  0  0  0  0  0  0  0  0  0
   -8.8856    6.2877   -0.8197 H   0  0  0  0  0  0  0  0  0  0  0  0
   -8.4381    5.6640   -2.9226 H   0  0  0  0  0  0  0  0  0  0  0  0
   -8.4768    7.2274   -3.8063 H   0  0  0  0  0  0  0  0  0  0  0  0
   -6.9812    6.2324   -3.8063 H   0  0  0  0  0  0  0  0  0  0  0  0
   -2.3625    9.4778   -1.9431 H   0  0  0  0  0  0  0  0  0  0  0  0
   -3.6194   11.5388   -1.9971 H   0  0  0  0  0  0  0  0  0  0  0  0
   -3.5565   11.7135   -0.2298 H   0  0  0  0  0  0  0  0  0  0  0  0
   -1.9831   13.1915   -2.1019 H   0  0  0  0  0  0  0  0  0  0  0  0
   -1.6416   13.1053   -0.3760 H   0  0  0  0  0  0  0  0  0  0  0  0
   -1.0110   10.2710   -3.2611 H   0  0  0  0  0  0  0  0  0  0  0  0
   -1.3683   12.0015   -3.5844 H   0  0  0  0  0  0  0  0  0  0  0  0
    0.3313   11.4202   -3.5844 H   0  0  0  0  0  0  0  0  0  0  0  0
    0.6960   12.5051   -0.1663 H   0  0  0  0  0  0  0  0  0  0  0  0
    0.2831   14.0491   -2.1883 H   0  0  0  0  0  0  0  0  0  0  0  0
    1.8951   14.0555   -1.2985 H   0  0  0  0  0  0  0  0  0  0  0  0
    2.0140   14.1728   -3.9273 H   0  0  0  0  0  0  0  0  0  0  0  0
    1.9131   10.2144   -3.1344 H   0  0  0  0  0  0  0  0  0  0  0  0
    4.7195   11.1049   -2.2283 H   0  0  0  0  0  0  0  0  0  0  0  0
    4.0219    9.4269   -2.1357 H   0  0  0  0  0  0  0  0  0  0  0  0
    5.5935    9.6849   -4.0290 H   0  0  0  0  0  0  0  0  0  0  0  0
    3.9066    9.3078   -4.5570 H   0  0  0  0  0  0  0  0  0  0  0  0
    4.8039   11.0041   -5.9992 H   0  0  0  0  0  0  0  0  0  0  0  0
    5.2320   13.1340   -4.7420 H   0  0  0  0  0  0  0  0  0  0  0  0
    1.5537   10.5187   -5.1942 H   0  0  0  0  0  0  0  0  0  0  0  0
    1.5542   11.7403   -6.5112 H   0  0  0  0  0  0  0  0  0  0  0  0
    2.7712   10.4191   -6.5112 H   0  0  0  0  0  0  0  0  0  0  0  0
    3.4069   14.1561   -5.1448 H   0  0  0  0  0  0  0  0  0  0  0  0
    4.2058   13.2602   -6.4812 H   0  0  0  0  0  0  0  0  0  0  0  0
    2.4218   13.4702   -6.4812 H   0  0  0  0  0  0  0  0  0  0  0  0
    2.8448   11.5828    0.7414 H   0  0  0  0  0  0  0  0  0  0  0  0
    4.0845   11.2045   -0.5023 H   0  0  0  0  0  0  0  0  0  0  0  0
    3.2720   12.8065   -0.5023 H   0  0  0  0  0  0  0  0  0  0  0  0
    2.3077    9.0188   -1.0402 H   0  0  0  0  0  0  0  0  0  0  0  0
    1.6410    9.9051    0.4444 H   0  0  0  0  0  0  0  0  0  0  0  0
    0.1132    9.0095   -2.0146 H   0  0  0  0  0  0  0  0  0  0  0  0
   -0.0386    8.4175   -0.3133 H   0  0  0  0  0  0  0  0  0  0  0  0
   -0.9765    9.7780    1.4510 H   0  0  0  0  0  0  0  0  0  0  0  0
    0.2188   11.0802    1.1312 H   0  0  0  0  0  0  0  0  0  0  0  0
   -1.5382   11.4540    1.1312 H   0  0  0  0  0  0  0  0  0  0  0  0
  1  2  1  0
  2  3  1  0
  3  4  1  0
  4  5  1  0
  5  6  1  0
  6  7  1  0
  7  8  1  0
  7  9  1  0
  2 10  1  0
 10 11  1  0
 11 12  1  0
 12 13  1  0
 13 14  1  6
 13 15  1  0
 15 16  1  0
 16 17  1  0
 17 18  2  0
 18 19  1  0
 19 20  1  0
 20 21  1  0
 21 22  1  0
 22 23  1  0
 22 24  1  0
 24 25  1  0
 24 26  1  0
 19 27  1  0
 27 28  1  1
 27 29  1  0
 29 30  1  0
 30 31  1  0
 31 32  1  1
  7  5  1  0
 31 10  1  0
 31 13  1  0
 27 15  1  0
 24 18  1  0
  1 33  1  0
  1 34  1  0
  1 35  1  0
  2 36  1  1
  3 37  1  0
  3 38  1  0
  4 39  1  0
  4 40  1  0
  5 41  1  6
  8 42  1  0
  8 43  1  0
  8 44  1  0
  9 45  1  0
  9 46  1  0
  9 47  1  0
 10 48  1  6
 11 49  1  0
 11 50  1  0
 12 51  1  0
 12 52  1  0
 14 53  1  0
 14 54  1  0
 14 55  1  0
 15 56  1  1
 16 57  1  0
 16 58  1  0
 17 59  1  0
 19 60  1  6
 20 61  1  0
 20 62  1  0
 21 63  1  0
 21 64  1  0
 22 65  1  6
 23 66  1  0
 25 67  1  0
 25 68  1  0
 25 69  1  0
 26 70  1  0
 26 71  1  0
 26 72  1  0
 28 73  1  0
 28 74  1  0
 28 75  1  0
 29 76  1  0
 29 77  1  0
 30 78  1  0
 30 79  1  0
 32 80  1  0
 32 81  1  0
 32 82  1  0
M  END
>  <meeko>  (19) 
{"is_sidechain": [false], "intermolecular_energy": 2.731, "internal_energy": -0.839}

$$$$
