EPH_relaxed_0001_pdb2pqr_Repair_116_r2_0001_out
     RDKit          3D

 82 86  0  0  0  0  0  0  0  0999 V2000
    4.4670   17.7770   -0.7660 C   0  0  0  0  0  0  0  0  0  0  0  0
    3.0930   18.3320   -0.3810 C   0  0  2  0  0  0  0  0  0  0  0  0
    3.0770   18.9040    1.0510 C   0  0  0  0  0  0  0  0  0  0  0  0
    4.3870   18.6870    1.8140 C   0  0  0  0  0  0  0  0  0  0  0  0
    4.3110   19.2280    3.2100 C   0  0  2  0  0  0  0  0  0  0  0  0
    5.3200   20.1940    3.5330 O   0  0  0  0  0  0  0  0  0  0  0  0
    5.3640   18.9610    4.2690 C   0  0  0  0  0  0  0  0  0  0  0  0
    6.5680   18.1220    3.9780 C   0  0  0  0  0  0  0  0  0  0  0  0
    4.9830   19.1050    5.7090 C   0  0  0  0  0  0  0  0  0  0  0  0
    2.0350   17.2430   -0.5180 C   0  0  1  0  0  0  0  0  0  0  0  0
    0.7070   17.7720   -1.1220 C   0  0  0  0  0  0  0  0  0  0  0  0
    0.1260   16.6300   -1.9940 C   0  0  0  0  0  0  0  0  0  0  0  0
    0.9520   15.3820   -1.6040 C   0  0  1  0  0  0  0  0  0  0  0  0
    0.3040   14.8700   -0.2790 C   0  0  0  0  0  0  0  0  0  0  0  0
    1.0410   14.2490   -2.6780 C   0  0  2  0  0  0  0  0  0  0  0  0
   -0.3010   13.6000   -3.0540 C   0  0  0  0  0  0  0  0  0  0  0  0
   -0.6850   12.4100   -2.2380 C   0  0  0  0  0  0  0  0  0  0  0  0
    0.1410   11.7110   -1.4370 C   0  0  0  0  0  0  0  0  0  0  0  0
    1.6370   12.0430   -1.3680 C   0  0  1  0  0  0  0  0  0  0  0  0
    2.4630   10.7320   -1.4610 C   0  0  0  0  0  0  0  0  0  0  0  0
    2.0440    9.7020   -0.4170 C   0  0  0  0  0  0  0  0  0  0  0  0
    0.5640    9.3550   -0.5550 C   0  0  2  0  0  0  0  0  0  0  0  0
    0.3640    8.6730   -1.7970 O   0  0  0  0  0  0  0  0  0  0  0  0
   -0.3660   10.5990   -0.4870 C   0  0  0  0  0  0  0  0  0  0  0  0
   -0.3770   11.1610    0.9570 C   0  0  0  0  0  0  0  0  0  0  0  0
   -1.8160   10.1280   -0.7810 C   0  0  0  0  0  0  0  0  0  0  0  0
    2.1480   13.1580   -2.3780 C   0  0  1  0  0  0  0  0  0  0  0  0
    2.5150   12.5090   -3.7470 C   0  0  0  0  0  0  0  0  0  0  0  0
    3.4760   13.7910   -1.8170 C   0  0  0  0  0  0  0  0  0  0  0  0
    3.3240   14.9840   -0.8530 C   0  0  0  0  0  0  0  0  0  0  0  0
    2.3710   16.0360   -1.4290 C   0  0  2  0  0  0  0  0  0  0  0  0
    3.0070   16.5850   -2.7510 C   0  0  0  0  0  0  0  0  0  0  0  0
    5.0379   17.5464    0.1456 H   0  0  0  0  0  0  0  0  0  0  0  0
    4.3388   16.8601   -1.3601 H   0  0  0  0  0  0  0  0  0  0  0  0
    5.0115   18.5257   -1.3601 H   0  0  0  0  0  0  0  0  0  0  0  0
    2.8667   19.1595   -1.0695 H   0  0  0  0  0  0  0  0  0  0  0  0
    2.8848   19.9854    0.9911 H   0  0  0  0  0  0  0  0  0  0  0  0
    2.2905   18.3685    1.6029 H   0  0  0  0  0  0  0  0  0  0  0  0
    4.5981   17.6085    1.8605 H   0  0  0  0  0  0  0  0  0  0  0  0
    5.1870   19.2223    1.2816 H   0  0  0  0  0  0  0  0  0  0  0  0
    3.2159   19.1245    3.2160 H   0  0  0  0  0  0  0  0  0  0  0  0
    7.0286   17.8010    4.9240 H   0  0  0  0  0  0  0  0  0  0  0  0
    6.2668   17.2372    3.3980 H   0  0  0  0  0  0  0  0  0  0  0  0
    7.2938   18.7109    3.3980 H   0  0  0  0  0  0  0  0  0  0  0  0
    5.8231   18.7875    6.3441 H   0  0  0  0  0  0  0  0  0  0  0  0
    4.7404   20.1568    5.9207 H   0  0  0  0  0  0  0  0  0  0  0  0
    4.1054   18.4765    5.9207 H   0  0  0  0  0  0  0  0  0  0  0  0
    1.9698   16.9168    0.5305 H   0  0  0  0  0  0  0  0  0  0  0  0
    0.0020   18.0310   -0.3183 H   0  0  0  0  0  0  0  0  0  0  0  0
    0.8791   18.6781   -1.7215 H   0  0  0  0  0  0  0  0  0  0  0  0
   -0.9400   16.4752   -1.7711 H   0  0  0  0  0  0  0  0  0  0  0  0
    0.1896   16.8528   -3.0693 H   0  0  0  0  0  0  0  0  0  0  0  0
    0.8424   15.2954    0.5807 H   0  0  0  0  0  0  0  0  0  0  0  0
   -0.7503   15.1817   -0.2421 H   0  0  0  0  0  0  0  0  0  0  0  0
    0.3633   13.7722   -0.2421 H   0  0  0  0  0  0  0  0  0  0  0  0
    1.3678   14.7974   -3.5738 H   0  0  0  0  0  0  0  0  0  0  0  0
   -1.0892   14.3588   -2.9402 H   0  0  0  0  0  0  0  0  0  0  0  0
   -0.1847   13.2367   -4.0857 H   0  0  0  0  0  0  0  0  0  0  0  0
   -1.7315   12.0761   -2.2962 H   0  0  0  0  0  0  0  0  0  0  0  0
    1.7977   12.5179   -0.3889 H   0  0  0  0  0  0  0  0  0  0  0  0
    2.3229   10.2971   -2.4616 H   0  0  0  0  0  0  0  0  0  0  0  0
    3.5167   10.9870   -1.2746 H   0  0  0  0  0  0  0  0  0  0  0  0
    2.6419    8.7887   -0.5525 H   0  0  0  0  0  0  0  0  0  0  0  0
    2.2126   10.1278    0.5831 H   0  0  0  0  0  0  0  0  0  0  0  0
    0.2947    8.7147    0.2979 H   0  0  0  0  0  0  0  0  0  0  0  0
   -0.2920    7.9730   -1.6460 H   0  0  0  0  0  0  0  0  0  0  0  0
   -0.3607   10.3277    1.6749 H   0  0  0  0  0  0  0  0  0  0  0  0
    0.5089   11.7947    1.1106 H   0  0  0  0  0  0  0  0  0  0  0  0
   -1.2870   11.7595    1.1106 H   0  0  0  0  0  0  0  0  0  0  0  0
   -2.3452    9.9561    0.1679 H   0  0  0  0  0  0  0  0  0  0  0  0
   -2.3425   10.9013   -1.3596 H   0  0  0  0  0  0  0  0  0  0  0  0
   -1.7876    9.1929   -1.3596 H   0  0  0  0  0  0  0  0  0  0  0  0
    3.0496   11.5635   -3.5730 H   0  0  0  0  0  0  0  0  0  0  0  0
    1.5954   12.3106   -4.3170 H   0  0  0  0  0  0  0  0  0  0  0  0
    3.1590   13.1948   -4.3170 H   0  0  0  0  0  0  0  0  0  0  0  0
    4.0224   12.9994   -1.2833 H   0  0  0  0  0  0  0  0  0  0  0  0
    3.9958   14.1968   -2.6974 H   0  0  0  0  0  0  0  0  0  0  0  0
    2.9243   14.6230    0.1061 H   0  0  0  0  0  0  0  0  0  0  0  0
    4.3115   15.4466   -0.7088 H   0  0  0  0  0  0  0  0  0  0  0  0
    3.8185   17.2854   -2.5042 H   0  0  0  0  0  0  0  0  0  0  0  0
    3.4115   15.7477   -3.3386 H   0  0  0  0  0  0  0  0  0  0  0  0
    2.2377   17.1074   -3.3386 H   0  0  0  0  0  0  0  0  0  0  0  0
  1  2  1  0
  2  3  1  0
  3  4  1  0
  4  5  1  0
  5  6  1  0
  6  7  1  0
  7  8  1  0
  7  9  1  0
  2 10  1  0
 10 11  1  0
 11 12  1  0
 12 13  1  0
 13 14  1  1
 13 15  1  0
 15 16  1  0
 16 17  1  0
 17 18  2  0
 18 19  1  0
 19 20  1  0
 20 21  1  0
 21 22  1  0
 22 23  1  0
 22 24  1  0
 24 25  1  0
 24 26  1  0
 19 27  1  0
 27 28  1  6
 27 29  1  0
 29 30  1  0
 30 31  1  0
 31 32  1  6
  7  5  1  0
 31 10  1  0
 31 13  1  0
 27 15  1  0
 24 18  1  0
  1 33  1  0
  1 34  1  0
  1 35  1  0
  2 36  1  6
  3 37  1  0
  3 38  1  0
  4 39  1  0
  4 40  1  0
  5 41  1  1
  8 42  1  0
  8 43  1  0
  8 44  1  0
  9 45  1  0
  9 46  1  0
  9 47  1  0
 10 48  1  1
 11 49  1  0
 11 50  1  0
 12 51  1  0
 12 52  1  0
 14 53  1  0
 14 54  1  0
 14 55  1  0
 15 56  1  6
 16 57  1  0
 16 58  1  0
 17 59  1  0
 19 60  1  1
 20 61  1  0
 20 62  1  0
 21 63  1  0
 21 64  1  0
 22 65  1  1
 23 66  1  0
 25 67  1  0
 25 68  1  0
 25 69  1  0
 26 70  1  0
 26 71  1  0
 26 72  1  0
 28 73  1  0
 28 74  1  0
 28 75  1  0
 29 76  1  0
 29 77  1  0
 30 78  1  0
 30 79  1  0
 32 80  1  0
 32 81  1  0
 32 82  1  0
M  END
>  <meeko>  (1) 
{"is_sidechain": [false], "intermolecular_energy": 2.731, "internal_energy": -0.839}

$$$$
EPH_relaxed_0001_pdb2pqr_Repair_116_r2_0001_out
     RDKit          3D

 82 86  0  0  0  0  0  0  0  0999 V2000
    3.8290   17.9820    0.6770 C   0  0  0  0  0  0  0  0  0  0  0  0
    2.9440   18.3680   -0.5120 C   0  0  2  0  0  0  0  0  0  0  0  0
    2.2030   19.6990   -0.2750 C   0  0  0  0  0  0  0  0  0  0  0  0
    1.1600   19.6320    0.8440 C   0  0  0  0  0  0  0  0  0  0  0  0
   -0.1630   20.1810    0.4020 C   0  0  2  0  0  0  0  0  0  0  0  0
   -1.1750   20.1940    1.4170 O   0  0  0  0  0  0  0  0  0  0  0  0
   -1.4210   19.3400    0.2880 C   0  0  0  0  0  0  0  0  0  0  0  0
   -1.4160   17.8800    0.6170 C   0  0  0  0  0  0  0  0  0  0  0  0
   -2.5250   19.8210   -0.6020 C   0  0  0  0  0  0  0  0  0  0  0  0
    1.9410   17.2570   -0.7960 C   0  0  1  0  0  0  0  0  0  0  0  0
    0.7960   17.7120   -1.7390 C   0  0  0  0  0  0  0  0  0  0  0  0
    0.4280   16.4900   -2.6190 C   0  0  0  0  0  0  0  0  0  0  0  0
    1.1310   15.2930   -1.9370 C   0  0  1  0  0  0  0  0  0  0  0  0
    0.1860   14.8900   -0.7610 C   0  0  0  0  0  0  0  0  0  0  0  0
    1.4630   14.0720   -2.8550 C   0  0  2  0  0  0  0  0  0  0  0  0
    0.2410   13.3720   -3.4770 C   0  0  0  0  0  0  0  0  0  0  0  0
   -0.3320   12.2530   -2.6720 C   0  0  0  0  0  0  0  0  0  0  0  0
    0.2780   11.6400   -1.6410 C   0  0  0  0  0  0  0  0  0  0  0  0
    1.7180   11.9970   -1.2520 C   0  0  1  0  0  0  0  0  0  0  0  0
    2.5330   10.6950   -1.0330 C   0  0  0  0  0  0  0  0  0  0  0  0
    1.8740    9.7540   -0.0290 C   0  0  0  0  0  0  0  0  0  0  0  0
    0.4650    9.3760   -0.4790 C   0  0  2  0  0  0  0  0  0  0  0  0
    0.5590    8.5850   -1.6680 O   0  0  0  0  0  0  0  0  0  0  0  0
   -0.4460   10.6080   -0.7410 C   0  0  0  0  0  0  0  0  0  0  0  0
   -0.7920   11.2940    0.6030 C   0  0  0  0  0  0  0  0  0  0  0  0
   -1.7890   10.0930   -1.3250 C   0  0  0  0  0  0  0  0  0  0  0  0
    2.4600   13.0270   -2.2090 C   0  0  1  0  0  0  0  0  0  0  0  0
    3.1340   12.2650   -3.3900 C   0  0  0  0  0  0  0  0  0  0  0  0
    3.6230   13.7250   -1.4090 C   0  0  0  0  0  0  0  0  0  0  0  0
    3.2570   14.9950   -0.6180 C   0  0  0  0  0  0  0  0  0  0  0  0
    2.4730   15.9790   -1.4920 C   0  0  2  0  0  0  0  0  0  0  0  0
    3.4060   16.4190   -2.6710 C   0  0  0  0  0  0  0  0  0  0  0  0
    3.3029   18.2115    1.6154 H   0  0  0  0  0  0  0  0  0  0  0  0
    4.0508   16.9054    0.6348 H   0  0  0  0  0  0  0  0  0  0  0  0
    4.7689   18.5519    0.6348 H   0  0  0  0  0  0  0  0  0  0  0  0
    3.6014   18.5061   -1.3831 H   0  0  0  0  0  0  0  0  0  0  0  0
    2.9449   20.4676   -0.0126 H   0  0  0  0  0  0  0  0  0  0  0  0
    1.6633   19.9363   -1.2037 H   0  0  0  0  0  0  0  0  0  0  0  0
    1.0277   18.5825    1.1457 H   0  0  0  0  0  0  0  0  0  0  0  0
    1.5204   20.2415    1.6858 H   0  0  0  0  0  0  0  0  0  0  0  0
    0.3302   20.8700   -0.2994 H   0  0  0  0  0  0  0  0  0  0  0  0
   -1.4156   17.7503    1.7093 H   0  0  0  0  0  0  0  0  0  0  0  0
   -2.3125   17.4052    0.1917 H   0  0  0  0  0  0  0  0  0  0  0  0
   -0.5162   17.4114    0.1917 H   0  0  0  0  0  0  0  0  0  0  0  0
   -3.3604   20.1850    0.0141 H   0  0  0  0  0  0  0  0  0  0  0  0
   -2.1540   20.6391   -1.2369 H   0  0  0  0  0  0  0  0  0  0  0  0
   -2.8715   18.9923   -1.2369 H   0  0  0  0  0  0  0  0  0  0  0  0
    1.6293   17.0234    0.2327 H   0  0  0  0  0  0  0  0  0  0  0  0
   -0.0763   18.0304   -1.1493 H   0  0  0  0  0  0  0  0  0  0  0  0
    1.1106   18.5644   -2.3590 H   0  0  0  0  0  0  0  0  0  0  0  0
   -0.6616   16.3402   -2.6396 H   0  0  0  0  0  0  0  0  0  0  0  0
    0.7435   16.6187   -3.6649 H   0  0  0  0  0  0  0  0  0  0  0  0
    0.6825   15.1018    0.1974 H   0  0  0  0  0  0  0  0  0  0  0  0
   -0.7474   15.4683   -0.8260 H   0  0  0  0  0  0  0  0  0  0  0  0
   -0.0428   13.8160   -0.8260 H   0  0  0  0  0  0  0  0  0  0  0  0
    1.9957   14.5453   -3.6930 H   0  0  0  0  0  0  0  0  0  0  0  0
   -0.5468   14.1264   -3.6191 H   0  0  0  0  0  0  0  0  0  0  0  0
    0.5943   12.9211   -4.4160 H   0  0  0  0  0  0  0  0  0  0  0  0
   -1.3375   11.8998   -2.9445 H   0  0  0  0  0  0  0  0  0  0  0  0
    1.6478   12.5573   -0.3080 H   0  0  0  0  0  0  0  0  0  0  0  0
    2.6281   10.1724   -1.9962 H   0  0  0  0  0  0  0  0  0  0  0  0
    3.5153   10.9801   -0.6283 H   0  0  0  0  0  0  0  0  0  0  0  0
    2.4806    8.8407    0.0602 H   0  0  0  0  0  0  0  0  0  0  0  0
    1.8067   10.2674    0.9415 H   0  0  0  0  0  0  0  0  0  0  0  0
   -0.0028    8.8096    0.3397 H   0  0  0  0  0  0  0  0  0  0  0  0
   -0.1980    7.9740   -1.6760 H   0  0  0  0  0  0  0  0  0  0  0  0
   -0.4685   10.6526    1.4360 H   0  0  0  0  0  0  0  0  0  0  0  0
   -0.2748   12.2629    0.6640 H   0  0  0  0  0  0  0  0  0  0  0  0
   -1.8786   11.4540    0.6640 H   0  0  0  0  0  0  0  0  0  0  0  0
   -2.4705    9.8317   -0.5020 H   0  0  0  0  0  0  0  0  0  0  0  0
   -2.2456   10.8798   -1.9434 H   0  0  0  0  0  0  0  0  0  0  0  0
   -1.6025    9.2026   -1.9434 H   0  0  0  0  0  0  0  0  0  0  0  0
    3.8131   11.4972   -2.9910 H   0  0  0  0  0  0  0  0  0  0  0  0
    2.3595   11.7850   -4.0062 H   0  0  0  0  0  0  0  0  0  0  0  0
    3.7050   12.9751   -4.0062 H   0  0  0  0  0  0  0  0  0  0  0  0
    4.0221   12.9909   -0.6936 H   0  0  0  0  0  0  0  0  0  0  0  0
    4.3389   14.0590   -2.1745 H   0  0  0  0  0  0  0  0  0  0  0  0
    2.6408   14.7139    0.2488 H   0  0  0  0  0  0  0  0  0  0  0  0
    4.1863   15.4826   -0.2882 H   0  0  0  0  0  0  0  0  0  0  0  0
    4.3303   16.8549   -2.2641 H   0  0  0  0  0  0  0  0  0  0  0  0
    3.6545   15.5432   -3.2884 H   0  0  0  0  0  0  0  0  0  0  0  0
    2.8883   17.1679   -3.2884 H   0  0  0  0  0  0  0  0  0  0  0  0
  1  2  1  0
  2  3  1  0
  3  4  1  0
  4  5  1  0
  5  6  1  0
  6  7  1  0
  7  8  1  0
  7  9  1  0
  2 10  1  0
 10 11  1  0
 11 12  1  0
 12 13  1  0
 13 14  1  1
 13 15  1  0
 15 16  1  0
 16 17  1  0
 17 18  2  0
 18 19  1  0
 19 20  1  0
 20 21  1  0
 21 22  1  0
 22 23  1  0
 22 24  1  0
 24 25  1  0
 24 26  1  0
 19 27  1  0
 27 28  1  6
 27 29  1  0
 29 30  1  0
 30 31  1  0
 31 32  1  6
  7  5  1  0
 31 10  1  0
 31 13  1  0
 27 15  1  0
 24 18  1  0
  1 33  1  0
  1 34  1  0
  1 35  1  0
  2 36  1  6
  3 37  1  0
  3 38  1  0
  4 39  1  0
  4 40  1  0
  5 41  1  6
  8 42  1  0
  8 43  1  0
  8 44  1  0
  9 45  1  0
  9 46  1  0
  9 47  1  0
 10 48  1  1
 11 49  1  0
 11 50  1  0
 12 51  1  0
 12 52  1  0
 14 53  1  0
 14 54  1  0
 14 55  1  0
 15 56  1  6
 16 57  1  0
 16 58  1  0
 17 59  1  0
 19 60  1  1
 20 61  1  0
 20 62  1  0
 21 63  1  0
 21 64  1  0
 22 65  1  1
 23 66  1  0
 25 67  1  0
 25 68  1  0
 25 69  1  0
 26 70  1  0
 26 71  1  0
 26 72  1  0
 28 73  1  0
 28 74  1  0
 28 75  1  0
 29 76  1  0
 29 77  1  0
 30 78  1  0
 30 79  1  0
 32 80  1  0
 32 81  1  0
 32 82  1  0
M  END
>  <meeko>  (2) 
{"is_sidechain": [false], "intermolecular_energy": 2.731, "internal_energy": -0.839}

$$$$
EPH_relaxed_0001_pdb2pqr_Repair_116_r2_0001_out
     RDKit          3D

 82 86  0  0  0  0  0  0  0  0999 V2000
   -1.1310    8.5740   -1.3920 C   0  0  0  0  0  0  0  0  0  0  0  0
   -1.8520    9.3460   -0.2840 C   0  0  2  0  0  0  0  0  0  0  0  0
   -3.2920    9.7280   -0.6840 C   0  0  0  0  0  0  0  0  0  0  0  0
   -4.3090    8.6040   -0.4680 C   0  0  0  0  0  0  0  0  0  0  0  0
   -4.8190    8.0610   -1.7690 C   0  0  2  0  0  0  0  0  0  0  0  0
   -5.9300    8.7790   -2.3220 O   0  0  0  0  0  0  0  0  0  0  0  0
   -6.1850    7.4200   -1.9300 C   0  0  0  0  0  0  0  0  0  0  0  0
   -7.1260    7.2870   -0.7730 C   0  0  0  0  0  0  0  0  0  0  0  0
   -6.4080    6.4920   -3.0820 C   0  0  0  0  0  0  0  0  0  0  0  0
   -1.0620   10.5990    0.0760 C   0  0  1  0  0  0  0  0  0  0  0  0
   -0.0550   10.3590    1.2320 C   0  0  0  0  0  0  0  0  0  0  0  0
    1.1850   11.2400    0.9360 C   0  0  0  0  0  0  0  0  0  0  0  0
    0.7230   12.1980   -0.1870 C   0  0  1  0  0  0  0  0  0  0  0  0
   -0.0610   13.3300    0.5490 C   0  0  0  0  0  0  0  0  0  0  0  0
    1.8470   12.7790   -1.1060 C   0  0  2  0  0  0  0  0  0  0  0  0
    2.8880   13.6560   -0.3880 C   0  0  0  0  0  0  0  0  0  0  0  0
    2.5670   15.1130   -0.3360 C   0  0  0  0  0  0  0  0  0  0  0  0
    1.6370   15.7370   -1.0850 C   0  0  0  0  0  0  0  0  0  0  0  0
    0.8620   14.9790   -2.1700 C   0  0  1  0  0  0  0  0  0  0  0  0
    0.8370   15.8200   -3.4720 C   0  0  0  0  0  0  0  0  0  0  0  0
    0.3000   17.2300   -3.2480 C   0  0  0  0  0  0  0  0  0  0  0  0
    1.1320   17.9720   -2.2050 C   0  0  2  0  0  0  0  0  0  0  0  0
    2.4430   18.1940   -2.7350 O   0  0  0  0  0  0  0  0  0  0  0  0
    1.2360   17.2140   -0.8520 C   0  0  0  0  0  0  0  0  0  0  0  0
   -0.1370   17.2380   -0.1360 C   0  0  0  0  0  0  0  0  0  0  0  0
    2.2160   17.9990    0.0600 C   0  0  0  0  0  0  0  0  0  0  0  0
    1.3130   13.4760   -2.4220 C   0  0  1  0  0  0  0  0  0  0  0  0
    2.4830   13.4370   -3.4520 C   0  0  0  0  0  0  0  0  0  0  0  0
    0.1190   12.6840   -3.0760 C   0  0  0  0  0  0  0  0  0  0  0  0
   -0.8920   12.0320   -2.1140 C   0  0  0  0  0  0  0  0  0  0  0  0
   -0.1740   11.2210   -1.0310 C   0  0  2  0  0  0  0  0  0  0  0  0
    0.6070   10.0620   -1.7390 C   0  0  0  0  0  0  0  0  0  0  0  0
   -0.4460    7.8405   -0.9418 H   0  0  0  0  0  0  0  0  0  0  0  0
   -1.8709    8.0504   -2.0152 H   0  0  0  0  0  0  0  0  0  0  0  0
   -0.5581    9.2764   -2.0152 H   0  0  0  0  0  0  0  0  0  0  0  0
   -1.9173    8.6833    0.5916 H   0  0  0  0  0  0  0  0  0  0  0  0
   -3.6008   10.5960   -0.0830 H   0  0  0  0  0  0  0  0  0  0  0  0
   -3.2790    9.9473   -1.7618 H   0  0  0  0  0  0  0  0  0  0  0  0
   -3.8271    7.7902    0.0937 H   0  0  0  0  0  0  0  0  0  0  0  0
   -5.1626    9.0161    0.0901 H   0  0  0  0  0  0  0  0  0  0  0  0
   -3.8099    7.7280   -2.0532 H   0  0  0  0  0  0  0  0  0  0  0  0
   -6.5629    7.3666    0.1686 H   0  0  0  0  0  0  0  0  0  0  0  0
   -7.8789    8.0877   -0.8188 H   0  0  0  0  0  0  0  0  0  0  0  0
   -7.6275    6.3090   -0.8188 H   0  0  0  0  0  0  0  0  0  0  0  0
   -6.6493    5.4880   -2.7027 H   0  0  0  0  0  0  0  0  0  0  0  0
   -7.2426    6.8627   -3.6952 H   0  0  0  0  0  0  0  0  0  0  0  0
   -5.4961    6.4430   -3.6952 H   0  0  0  0  0  0  0  0  0  0  0  0
   -1.8927   11.2780    0.3187 H   0  0  0  0  0  0  0  0  0  0  0  0
   -0.5052   10.6494    2.1927 H   0  0  0  0  0  0  0  0  0  0  0  0
    0.2226    9.2967    1.2993 H   0  0  0  0  0  0  0  0  0  0  0  0
    1.4822   11.8057    1.8313 H   0  0  0  0  0  0  0  0  0  0  0  0
    2.0606   10.6429    0.6413 H   0  0  0  0  0  0  0  0  0  0  0  0
    0.0332   13.1939    1.6365 H   0  0  0  0  0  0  0  0  0  0  0  0
    0.3541   14.3082    0.2645 H   0  0  0  0  0  0  0  0  0  0  0  0
   -1.1226   13.2854    0.2645 H   0  0  0  0  0  0  0  0  0  0  0  0
    2.3856   11.8732   -1.4213 H   0  0  0  0  0  0  0  0  0  0  0  0
    2.9843   13.2920    0.6456 H   0  0  0  0  0  0  0  0  0  0  0  0
    3.8151   13.5692   -0.9737 H   0  0  0  0  0  0  0  0  0  0  0  0
    3.1381   15.7293    0.3739 H   0  0  0  0  0  0  0  0  0  0  0  0
   -0.1612   14.8585   -1.7847 H   0  0  0  0  0  0  0  0  0  0  0  0
    1.8618   15.8914   -3.8652 H   0  0  0  0  0  0  0  0  0  0  0  0
    0.1649   15.3159   -4.1820 H   0  0  0  0  0  0  0  0  0  0  0  0
    0.3361   17.7839   -4.1977 H   0  0  0  0  0  0  0  0  0  0  0  0
   -0.7354   17.1574   -2.8839 H   0  0  0  0  0  0  0  0  0  0  0  0
    0.6230   18.9237   -1.9923 H   0  0  0  0  0  0  0  0  0  0  0  0
    2.6850   19.1160   -2.5440 H   0  0  0  0  0  0  0  0  0  0  0  0
    0.0173   17.2353    0.9531 H   0  0  0  0  0  0  0  0  0  0  0  0
   -0.6861   18.1459   -0.4263 H   0  0  0  0  0  0  0  0  0  0  0  0
   -0.7175   16.3499   -0.4263 H   0  0  0  0  0  0  0  0  0  0  0  0
    1.9719   17.8034    1.1146 H   0  0  0  0  0  0  0  0  0  0  0  0
    3.2469   17.6740   -0.1441 H   0  0  0  0  0  0  0  0  0  0  0  0
    2.1239   19.0760   -0.1441 H   0  0  0  0  0  0  0  0  0  0  0  0
    3.4428   13.4050   -2.9156 H   0  0  0  0  0  0  0  0  0  0  0  0
    2.3859   12.5416   -4.0835 H   0  0  0  0  0  0  0  0  0  0  0  0
    2.4457   14.3369   -4.0835 H   0  0  0  0  0  0  0  0  0  0  0  0
   -0.4356   13.3865   -3.7155 H   0  0  0  0  0  0  0  0  0  0  0  0
    0.5888   11.8456   -3.6112 H   0  0  0  0  0  0  0  0  0  0  0  0
   -1.4924   12.8195   -1.6351 H   0  0  0  0  0  0  0  0  0  0  0  0
   -1.5372   11.3529   -2.6908 H   0  0  0  0  0  0  0  0  0  0  0  0
    1.0517    9.4021   -0.9795 H   0  0  0  0  0  0  0  0  0  0  0  0
   -0.0860    9.4832   -2.3673 H   0  0  0  0  0  0  0  0  0  0  0  0
    1.4037   10.4870   -2.3673 H   0  0  0  0  0  0  0  0  0  0  0  0
  1  2  1  0
  2  3  1  0
  3  4  1  0
  4  5  1  0
  5  6  1  0
  6  7  1  0
  7  8  1  0
  7  9  1  0
  2 10  1  0
 10 11  1  0
 11 12  1  0
 12 13  1  0
 13 14  1  1
 13 15  1  0
 15 16  1  0
 16 17  1  0
 17 18  2  0
 18 19  1  0
 19 20  1  0
 20 21  1  0
 21 22  1  0
 22 23  1  0
 22 24  1  0
 24 25  1  0
 24 26  1  0
 19 27  1  0
 27 28  1  6
 27 29  1  0
 29 30  1  0
 30 31  1  0
 31 32  1  6
  7  5  1  0
 31 10  1  0
 31 13  1  0
 27 15  1  0
 24 18  1  0
  1 33  1  0
  1 34  1  0
  1 35  1  0
  2 36  1  1
  3 37  1  0
  3 38  1  0
  4 39  1  0
  4 40  1  0
  5 41  1  6
  8 42  1  0
  8 43  1  0
  8 44  1  0
  9 45  1  0
  9 46  1  0
  9 47  1  0
 10 48  1  1
 11 49  1  0
 11 50  1  0
 12 51  1  0
 12 52  1  0
 14 53  1  0
 14 54  1  0
 14 55  1  0
 15 56  1  6
 16 57  1  0
 16 58  1  0
 17 59  1  0
 19 60  1  1
 20 61  1  0
 20 62  1  0
 21 63  1  0
 21 64  1  0
 22 65  1  1
 23 66  1  0
 25 67  1  0
 25 68  1  0
 25 69  1  0
 26 70  1  0
 26 71  1  0
 26 72  1  0
 28 73  1  0
 28 74  1  0
 28 75  1  0
 29 76  1  0
 29 77  1  0
 30 78  1  0
 30 79  1  0
 32 80  1  0
 32 81  1  0
 32 82  1  0
M  END
>  <meeko>  (3) 
{"is_sidechain": [false], "intermolecular_energy": 2.731, "internal_energy": -0.839}

$$$$
EPH_relaxed_0001_pdb2pqr_Repair_116_r2_0001_out
     RDKit          3D

 82 86  0  0  0  0  0  0  0  0999 V2000
   -0.8100    8.0020   -0.7940 C   0  0  0  0  0  0  0  0  0  0  0  0
   -1.0940    9.2340    0.0690 C   0  0  2  0  0  0  0  0  0  0  0  0
   -2.4340    9.9030   -0.2970 C   0  0  0  0  0  0  0  0  0  0  0  0
   -3.6450    8.9770   -0.1530 C   0  0  0  0  0  0  0  0  0  0  0  0
   -4.2490    8.6420   -1.4830 C   0  0  2  0  0  0  0  0  0  0  0  0
   -5.5820    9.1320   -1.6750 O   0  0  0  0  0  0  0  0  0  0  0  0
   -5.4280    7.7040   -1.6540 C   0  0  0  0  0  0  0  0  0  0  0  0
   -6.0740    7.0390   -0.4790 C   0  0  0  0  0  0  0  0  0  0  0  0
   -5.6390    7.0550   -2.9870 C   0  0  0  0  0  0  0  0  0  0  0  0
    0.0440   10.2380   -0.0670 C   0  0  1  0  0  0  0  0  0  0  0  0
    1.4420    9.5660   -0.0250 C   0  0  0  0  0  0  0  0  0  0  0  0
    2.3550   10.3710   -0.9850 C   0  0  0  0  0  0  0  0  0  0  0  0
    1.5590   11.6620   -1.2900 C   0  0  1  0  0  0  0  0  0  0  0  0
    1.8180   12.5910   -0.0630 C   0  0  0  0  0  0  0  0  0  0  0  0
    1.8940   12.3790   -2.6380 C   0  0  2  0  0  0  0  0  0  0  0  0
    3.3380   12.8950   -2.7610 C   0  0  0  0  0  0  0  0  0  0  0  0
    3.5580   14.2940   -2.2870 C   0  0  0  0  0  0  0  0  0  0  0  0
    2.5920   15.2000   -2.0490 C   0  0  0  0  0  0  0  0  0  0  0  0
    1.1220   14.8810   -2.3500 C   0  0  1  0  0  0  0  0  0  0  0  0
    0.4780   16.0720   -3.1070 C   0  0  0  0  0  0  0  0  0  0  0  0
    0.6480   17.3960   -2.3670 C   0  0  0  0  0  0  0  0  0  0  0  0
    2.1250   17.7060   -2.1370 C   0  0  2  0  0  0  0  0  0  0  0  0
    2.7470   17.9480   -3.4030 O   0  0  0  0  0  0  0  0  0  0  0  0
    2.8810   16.5710   -1.3910 C   0  0  0  0  0  0  0  0  0  0  0  0
    2.4090   16.5130    0.0830 C   0  0  0  0  0  0  0  0  0  0  0  0
    4.3870   16.9480   -1.3500 C   0  0  0  0  0  0  0  0  0  0  0  0
    0.8460   13.4860   -3.0610 C   0  0  1  0  0  0  0  0  0  0  0  0
    0.9660   13.6450   -4.6080 C   0  0  0  0  0  0  0  0  0  0  0  0
   -0.6380   13.0470   -2.7730 C   0  0  0  0  0  0  0  0  0  0  0  0
   -0.8860   12.2380   -1.4860 C   0  0  0  0  0  0  0  0  0  0  0  0
    0.1030   11.0740   -1.3700 C   0  0  2  0  0  0  0  0  0  0  0  0
   -0.1490   10.1100   -2.5790 C   0  0  0  0  0  0  0  0  0  0  0  0
   -0.6106    7.1372   -0.1441 H   0  0  0  0  0  0  0  0  0  0  0  0
   -1.6828    7.7900   -1.4290 H   0  0  0  0  0  0  0  0  0  0  0  0
    0.0676    8.1935   -1.4290 H   0  0  0  0  0  0  0  0  0  0  0  0
   -1.1682    8.8962    1.1132 H   0  0  0  0  0  0  0  0  0  0  0  0
   -2.5803   10.7709    0.3628 H   0  0  0  0  0  0  0  0  0  0  0  0
   -2.3717   10.1874   -1.3578 H   0  0  0  0  0  0  0  0  0  0  0  0
   -3.3252    8.0459    0.3378 H   0  0  0  0  0  0  0  0  0  0  0  0
   -4.4054    9.4984    0.4469 H   0  0  0  0  0  0  0  0  0  0  0  0
   -3.2623    8.6822   -1.9676 H   0  0  0  0  0  0  0  0  0  0  0  0
   -5.6650    7.4601    0.4513 H   0  0  0  0  0  0  0  0  0  0  0  0
   -7.1601    7.2099   -0.5123 H   0  0  0  0  0  0  0  0  0  0  0  0
   -5.8717    5.9583   -0.5123 H   0  0  0  0  0  0  0  0  0  0  0  0
   -5.9761    6.0182   -2.8408 H   0  0  0  0  0  0  0  0  0  0  0  0
   -6.4021    7.6127   -3.5497 H   0  0  0  0  0  0  0  0  0  0  0  0
   -4.6938    7.0574   -3.5497 H   0  0  0  0  0  0  0  0  0  0  0  0
   -0.1830   10.8905    0.7890 H   0  0  0  0  0  0  0  0  0  0  0  0
    1.8466    9.5972    0.9974 H   0  0  0  0  0  0  0  0  0  0  0  0
    1.3820    8.5107   -0.3297 H   0  0  0  0  0  0  0  0  0  0  0  0
    3.3128   10.6108   -0.5000 H   0  0  0  0  0  0  0  0  0  0  0  0
    2.6010    9.8074   -1.8971 H   0  0  0  0  0  0  0  0  0  0  0  0
    1.6599   12.0238    0.8662 H   0  0  0  0  0  0  0  0  0  0  0  0
    2.8535   12.9608   -0.0952 H   0  0  0  0  0  0  0  0  0  0  0  0
    1.1232   13.4432   -0.0952 H   0  0  0  0  0  0  0  0  0  0  0  0
    1.8062   11.5613   -3.3685 H   0  0  0  0  0  0  0  0  0  0  0  0
    3.9877   12.2306   -2.1724 H   0  0  0  0  0  0  0  0  0  0  0  0
    3.5695   12.8981   -3.8364 H   0  0  0  0  0  0  0  0  0  0  0  0
    4.5978   14.6106   -2.1181 H   0  0  0  0  0  0  0  0  0  0  0  0
    0.6335   14.7510   -1.3730 H   0  0  0  0  0  0  0  0  0  0  0  0
    0.9505   16.1579   -4.0966 H   0  0  0  0  0  0  0  0  0  0  0  0
   -0.6004   15.8715   -3.1896 H   0  0  0  0  0  0  0  0  0  0  0  0
    0.1996   18.2030   -2.9651 H   0  0  0  0  0  0  0  0  0  0  0  0
    0.1488   17.3190   -1.3898 H   0  0  0  0  0  0  0  0  0  0  0  0
    2.1791   18.5947   -1.4911 H   0  0  0  0  0  0  0  0  0  0  0  0
    2.0540   18.2330   -4.0220 H   0  0  0  0  0  0  0  0  0  0  0  0
    3.2769   16.6196    0.7504 H   0  0  0  0  0  0  0  0  0  0  0  0
    1.6979   17.3305    0.2727 H   0  0  0  0  0  0  0  0  0  0  0  0
    1.9170   15.5476    0.2727 H   0  0  0  0  0  0  0  0  0  0  0  0
    4.7160   17.0304   -0.3036 H   0  0  0  0  0  0  0  0  0  0  0  0
    4.9740   16.1691   -1.8587 H   0  0  0  0  0  0  0  0  0  0  0  0
    4.5377   17.9116   -1.8587 H   0  0  0  0  0  0  0  0  0  0  0  0
    1.6138   14.5034   -4.8392 H   0  0  0  0  0  0  0  0  0  0  0  0
    1.4013   12.7308   -5.0379 H   0  0  0  0  0  0  0  0  0  0  0  0
   -0.0325   13.8129   -5.0379 H   0  0  0  0  0  0  0  0  0  0  0  0
   -1.2497   13.9594   -2.7155 H   0  0  0  0  0  0  0  0  0  0  0  0
   -0.9014   12.3663   -3.5959 H   0  0  0  0  0  0  0  0  0  0  0  0
   -0.7657   12.9003   -0.6160 H   0  0  0  0  0  0  0  0  0  0  0  0
   -1.9064   11.8287   -1.5206 H   0  0  0  0  0  0  0  0  0  0  0  0
   -0.4104    9.1101   -2.2024 H   0  0  0  0  0  0  0  0  0  0  0  0
   -0.9757   10.4987   -3.1917 H   0  0  0  0  0  0  0  0  0  0  0  0
    0.7622   10.0444   -3.1917 H   0  0  0  0  0  0  0  0  0  0  0  0
  1  2  1  0
  2  3  1  0
  3  4  1  0
  4  5  1  0
  5  6  1  0
  6  7  1  0
  7  8  1  0
  7  9  1  0
  2 10  1  0
 10 11  1  0
 11 12  1  0
 12 13  1  0
 13 14  1  1
 13 15  1  0
 15 16  1  0
 16 17  1  0
 17 18  2  0
 18 19  1  0
 19 20  1  0
 20 21  1  0
 21 22  1  0
 22 23  1  0
 22 24  1  0
 24 25  1  0
 24 26  1  0
 19 27  1  0
 27 28  1  6
 27 29  1  0
 29 30  1  0
 30 31  1  0
 31 32  1  6
  7  5  1  0
 31 10  1  0
 31 13  1  0
 27 15  1  0
 24 18  1  0
  1 33  1  0
  1 34  1  0
  1 35  1  0
  2 36  1  1
  3 37  1  0
  3 38  1  0
  4 39  1  0
  4 40  1  0
  5 41  1  6
  8 42  1  0
  8 43  1  0
  8 44  1  0
  9 45  1  0
  9 46  1  0
  9 47  1  0
 10 48  1  1
 11 49  1  0
 11 50  1  0
 12 51  1  0
 12 52  1  0
 14 53  1  0
 14 54  1  0
 14 55  1  0
 15 56  1  6
 16 57  1  0
 16 58  1  0
 17 59  1  0
 19 60  1  1
 20 61  1  0
 20 62  1  0
 21 63  1  0
 21 64  1  0
 22 65  1  1
 23 66  1  0
 25 67  1  0
 25 68  1  0
 25 69  1  0
 26 70  1  0
 26 71  1  0
 26 72  1  0
 28 73  1  0
 28 74  1  0
 28 75  1  0
 29 76  1  0
 29 77  1  0
 30 78  1  0
 30 79  1  0
 32 80  1  0
 32 81  1  0
 32 82  1  0
M  END
>  <meeko>  (4) 
{"is_sidechain": [false], "intermolecular_energy": 2.731, "internal_energy": -0.839}

$$$$
EPH_relaxed_0001_pdb2pqr_Repair_116_r2_0001_out
     RDKit          3D

 82 86  0  0  0  0  0  0  0  0999 V2000
    3.6920   17.9500   -1.5210 C   0  0  0  0  0  0  0  0  0  0  0  0
    2.6520   17.4360   -2.5200 C   0  0  2  0  0  0  0  0  0  0  0  0
    1.2310   17.9340   -2.1870 C   0  0  0  0  0  0  0  0  0  0  0  0
    1.1580   18.7790   -0.9120 C   0  0  0  0  0  0  0  0  0  0  0  0
   -0.0710   19.6360   -0.8840 C   0  0  2  0  0  0  0  0  0  0  0  0
   -0.3830   20.1940    0.3990 O   0  0  0  0  0  0  0  0  0  0  0  0
   -1.3360   19.2610   -0.1350 C   0  0  0  0  0  0  0  0  0  0  0  0
   -1.4350   17.9830    0.6390 C   0  0  0  0  0  0  0  0  0  0  0  0
   -2.6280   19.8910   -0.5520 C   0  0  0  0  0  0  0  0  0  0  0  0
    2.6740   15.9120   -2.5570 C   0  0  1  0  0  0  0  0  0  0  0  0
    4.1120   15.3390   -2.6660 C   0  0  0  0  0  0  0  0  0  0  0  0
    4.1310   14.0210   -1.8500 C   0  0  0  0  0  0  0  0  0  0  0  0
    2.6410   13.7090   -1.5780 C   0  0  1  0  0  0  0  0  0  0  0  0
    2.1270   13.0360   -2.8900 C   0  0  0  0  0  0  0  0  0  0  0  0
    2.3370   12.8300   -0.3210 C   0  0  2  0  0  0  0  0  0  0  0  0
    2.9270   11.4090   -0.3600 C   0  0  0  0  0  0  0  0  0  0  0  0
    2.0390   10.3670   -0.9560 C   0  0  0  0  0  0  0  0  0  0  0  0
    0.7190   10.4990   -1.1790 C   0  0  0  0  0  0  0  0  0  0  0  0
   -0.0340   11.7580   -0.7320 C   0  0  1  0  0  0  0  0  0  0  0  0
   -1.3480   11.3490   -0.0160 C   0  0  0  0  0  0  0  0  0  0  0  0
   -2.2140   10.4240   -0.8660 C   0  0  0  0  0  0  0  0  0  0  0  0
   -1.4500    9.1560   -1.2420 C   0  0  2  0  0  0  0  0  0  0  0  0
   -1.2090    8.3940   -0.0560 O   0  0  0  0  0  0  0  0  0  0  0  0
   -0.1020    9.4440   -1.9610 C   0  0  0  0  0  0  0  0  0  0  0  0
   -0.3780    9.9970   -3.3810 C   0  0  0  0  0  0  0  0  0  0  0  0
    0.6320    8.0900   -2.1580 C   0  0  0  0  0  0  0  0  0  0  0  0
    0.8130   12.8120    0.1040 C   0  0  1  0  0  0  0  0  0  0  0  0
    0.7770   12.4430    1.6180 C   0  0  0  0  0  0  0  0  0  0  0  0
    0.1390   14.2300   -0.0230 C   0  0  0  0  0  0  0  0  0  0  0  0
    0.5700   15.0980   -1.2210 C   0  0  0  0  0  0  0  0  0  0  0  0
    2.0960   15.1630   -1.3310 C   0  0  2  0  0  0  0  0  0  0  0  0
    2.6410   15.8550   -0.0350 C   0  0  0  0  0  0  0  0  0  0  0  0
    3.3344   17.7733   -0.4959 H   0  0  0  0  0  0  0  0  0  0  0  0
    4.6424   17.4179   -1.6747 H   0  0  0  0  0  0  0  0  0  0  0  0
    3.8465   19.0282   -1.6747 H   0  0  0  0  0  0  0  0  0  0  0  0
    2.9189   17.8356   -3.5095 H   0  0  0  0  0  0  0  0  0  0  0  0
    0.8705   18.5435   -3.0287 H   0  0  0  0  0  0  0  0  0  0  0  0
    0.6093   17.0425   -2.0179 H   0  0  0  0  0  0  0  0  0  0  0  0
    1.1447   18.1083   -0.0402 H   0  0  0  0  0  0  0  0  0  0  0  0
    2.0371   19.4397   -0.8880 H   0  0  0  0  0  0  0  0  0  0  0  0
    0.1040   19.9611   -1.9202 H   0  0  0  0  0  0  0  0  0  0  0  0
   -1.4178   18.2045    1.7163 H   0  0  0  0  0  0  0  0  0  0  0  0
   -2.3754   17.4722    0.3846 H   0  0  0  0  0  0  0  0  0  0  0  0
   -0.5845   17.3334    0.3846 H   0  0  0  0  0  0  0  0  0  0  0  0
   -3.2042   20.1720    0.3419 H   0  0  0  0  0  0  0  0  0  0  0  0
   -2.4210   20.7893   -1.1522 H   0  0  0  0  0  0  0  0  0  0  0  0
   -3.2083   19.1747   -1.1522 H   0  0  0  0  0  0  0  0  0  0  0  0
    2.0377   15.7388   -3.4374 H   0  0  0  0  0  0  0  0  0  0  0  0
    4.3604   15.1367   -3.7183 H   0  0  0  0  0  0  0  0  0  0  0  0
    4.8527   16.0541   -2.2787 H   0  0  0  0  0  0  0  0  0  0  0  0
    4.5975   13.2115   -2.4306 H   0  0  0  0  0  0  0  0  0  0  0  0
    4.7140   14.1134   -0.9218 H   0  0  0  0  0  0  0  0  0  0  0  0
    1.4774   12.1855   -2.6357 H   0  0  0  0  0  0  0  0  0  0  0  0
    1.5570   13.7694   -3.4793 H   0  0  0  0  0  0  0  0  0  0  0  0
    2.9845   12.6791   -3.4793 H   0  0  0  0  0  0  0  0  0  0  0  0
    2.8836   13.3583    0.4741 H   0  0  0  0  0  0  0  0  0  0  0  0
    3.8553   11.4422   -0.9492 H   0  0  0  0  0  0  0  0  0  0  0  0
    3.0816   11.1143    0.6884 H   0  0  0  0  0  0  0  0  0  0  0  0
    2.5036    9.4102   -1.2365 H   0  0  0  0  0  0  0  0  0  0  0  0
   -0.2675   12.3149   -1.6514 H   0  0  0  0  0  0  0  0  0  0  0  0
   -1.0929   10.8313    0.9204 H   0  0  0  0  0  0  0  0  0  0  0  0
   -1.9249   12.2664    0.1728 H   0  0  0  0  0  0  0  0  0  0  0  0
   -3.1129   10.1472   -0.2956 H   0  0  0  0  0  0  0  0  0  0  0  0
   -2.4929   10.9533   -1.7891 H   0  0  0  0  0  0  0  0  0  0  0  0
   -2.0724    8.5949   -1.9546 H   0  0  0  0  0  0  0  0  0  0  0  0
   -0.2540    8.4240    0.1250 H   0  0  0  0  0  0  0  0  0  0  0  0
   -0.8680   10.9788   -3.3033 H   0  0  0  0  0  0  0  0  0  0  0  0
    0.5726   10.1036   -3.9241 H   0  0  0  0  0  0  0  0  0  0  0  0
   -1.0346    9.3014   -3.9241 H   0  0  0  0  0  0  0  0  0  0  0  0
    0.8680    7.6546   -1.1758 H   0  0  0  0  0  0  0  0  0  0  0  0
   -0.0156    7.4001   -2.7189 H   0  0  0  0  0  0  0  0  0  0  0  0
    1.5636    8.2561   -2.7189 H   0  0  0  0  0  0  0  0  0  0  0  0
    0.8663   13.3588    2.2208 H   0  0  0  0  0  0  0  0  0  0  0  0
   -0.1743   11.9421    1.8508 H   0  0  0  0  0  0  0  0  0  0  0  0
    1.6135   11.7677    1.8508 H   0  0  0  0  0  0  0  0  0  0  0  0
   -0.9478   14.0768   -0.0967 H   0  0  0  0  0  0  0  0  0  0  0  0
    0.4661   14.7856    0.8682 H   0  0  0  0  0  0  0  0  0  0  0  0
    0.1609   14.6640   -2.1453 H   0  0  0  0  0  0  0  0  0  0  0  0
    0.1858   16.1177   -1.0710 H   0  0  0  0  0  0  0  0  0  0  0  0
    2.2378   15.3431    0.8512 H   0  0  0  0  0  0  0  0  0  0  0  0
    3.7395   15.7981   -0.0232 H   0  0  0  0  0  0  0  0  0  0  0  0
    2.3283   16.9095   -0.0232 H   0  0  0  0  0  0  0  0  0  0  0  0
  1  2  1  0
  2  3  1  0
  3  4  1  0
  4  5  1  0
  5  6  1  0
  6  7  1  0
  7  8  1  0
  7  9  1  0
  2 10  1  0
 10 11  1  0
 11 12  1  0
 12 13  1  0
 13 14  1  6
 13 15  1  0
 15 16  1  0
 16 17  1  0
 17 18  2  0
 18 19  1  0
 19 20  1  0
 20 21  1  0
 21 22  1  0
 22 23  1  0
 22 24  1  0
 24 25  1  0
 24 26  1  0
 19 27  1  0
 27 28  1  1
 27 29  1  0
 29 30  1  0
 30 31  1  0
 31 32  1  1
  7  5  1  0
 31 10  1  0
 31 13  1  0
 27 15  1  0
 24 18  1  0
  1 33  1  0
  1 34  1  0
  1 35  1  0
  2 36  1  6
  3 37  1  0
  3 38  1  0
  4 39  1  0
  4 40  1  0
  5 41  1  6
  8 42  1  0
  8 43  1  0
  8 44  1  0
  9 45  1  0
  9 46  1  0
  9 47  1  0
 10 48  1  6
 11 49  1  0
 11 50  1  0
 12 51  1  0
 12 52  1  0
 14 53  1  0
 14 54  1  0
 14 55  1  0
 15 56  1  1
 16 57  1  0
 16 58  1  0
 17 59  1  0
 19 60  1  6
 20 61  1  0
 20 62  1  0
 21 63  1  0
 21 64  1  0
 22 65  1  6
 23 66  1  0
 25 67  1  0
 25 68  1  0
 25 69  1  0
 26 70  1  0
 26 71  1  0
 26 72  1  0
 28 73  1  0
 28 74  1  0
 28 75  1  0
 29 76  1  0
 29 77  1  0
 30 78  1  0
 30 79  1  0
 32 80  1  0
 32 81  1  0
 32 82  1  0
M  END
>  <meeko>  (5) 
{"is_sidechain": [false], "intermolecular_energy": 2.731, "internal_energy": -0.839}

$$$$
EPH_relaxed_0001_pdb2pqr_Repair_116_r2_0001_out
     RDKit          3D

 82 86  0  0  0  0  0  0  0  0999 V2000
    3.6720   17.6850    0.7120 C   0  0  0  0  0  0  0  0  0  0  0  0
    3.7050   16.6260   -0.3930 C   0  0  2  0  0  0  0  0  0  0  0  0
    3.8410   17.2530   -1.7950 C   0  0  0  0  0  0  0  0  0  0  0  0
    3.3910   18.7150   -1.8610 C   0  0  0  0  0  0  0  0  0  0  0  0
    1.9580   18.8350   -2.2820 C   0  0  2  0  0  0  0  0  0  0  0  0
    1.5340   20.1700   -2.5890 O   0  0  0  0  0  0  0  0  0  0  0  0
    0.9010   19.5480   -1.4580 C   0  0  0  0  0  0  0  0  0  0  0  0
    1.2350   20.1880   -0.1470 C   0  0  0  0  0  0  0  0  0  0  0  0
   -0.5370   19.2040   -1.6870 C   0  0  0  0  0  0  0  0  0  0  0  0
    2.4490   15.7650   -0.3260 C   0  0  1  0  0  0  0  0  0  0  0  0
    1.1460   16.6060   -0.3860 C   0  0  0  0  0  0  0  0  0  0  0  0
    0.1060   15.7640   -1.1700 C   0  0  0  0  0  0  0  0  0  0  0  0
    0.7270   14.3490   -1.2450 C   0  0  1  0  0  0  0  0  0  0  0  0
    0.4040   13.6950    0.1350 C   0  0  0  0  0  0  0  0  0  0  0  0
    0.2560   13.4500   -2.4340 C   0  0  2  0  0  0  0  0  0  0  0  0
   -1.2440   13.1070   -2.4390 C   0  0  0  0  0  0  0  0  0  0  0  0
   -1.6130   11.8550   -1.7140 C   0  0  0  0  0  0  0  0  0  0  0  0
   -0.7560   10.8920   -1.3290 C   0  0  0  0  0  0  0  0  0  0  0  0
    0.7290   10.9630   -1.7060 C   0  0  1  0  0  0  0  0  0  0  0  0
    1.1940    9.5830   -2.2410 C   0  0  0  0  0  0  0  0  0  0  0  0
    0.8930    8.4460   -1.2700 C   0  0  0  0  0  0  0  0  0  0  0  0
   -0.6010    8.3710   -0.9650 C   0  0  2  0  0  0  0  0  0  0  0  0
   -1.2960    7.9870   -2.1560 O   0  0  0  0  0  0  0  0  0  0  0  0
   -1.1850    9.7080   -0.4270 C   0  0  0  0  0  0  0  0  0  0  0  0
   -0.6530    9.9700    1.0040 C   0  0  0  0  0  0  0  0  0  0  0  0
   -2.7220    9.5390   -0.2950 C   0  0  0  0  0  0  0  0  0  0  0  0
    1.1450   12.1610   -2.6640 C   0  0  1  0  0  0  0  0  0  0  0  0
    0.9480   11.7440   -4.1530 C   0  0  0  0  0  0  0  0  0  0  0  0
    2.6820   12.4540   -2.4840 C   0  0  0  0  0  0  0  0  0  0  0  0
    3.0750   13.4420   -1.3690 C   0  0  0  0  0  0  0  0  0  0  0  0
    2.2400   14.7240   -1.4530 C   0  0  2  0  0  0  0  0  0  0  0  0
    2.5610   15.4150   -2.8220 C   0  0  0  0  0  0  0  0  0  0  0  0
    3.6874   17.1904    1.6944 H   0  0  0  0  0  0  0  0  0  0  0  0
    4.5501   18.3407    0.6178 H   0  0  0  0  0  0  0  0  0  0  0  0
    2.7547   18.2848    0.6178 H   0  0  0  0  0  0  0  0  0  0  0  0
    4.5936   16.0000   -0.2246 H   0  0  0  0  0  0  0  0  0  0  0  0
    4.8971   17.2006   -2.0980 H   0  0  0  0  0  0  0  0  0  0  0  0
    3.1830   16.6832   -2.4675 H   0  0  0  0  0  0  0  0  0  0  0  0
    3.5097   19.1698   -0.8665 H   0  0  0  0  0  0  0  0  0  0  0  0
    4.0122   19.2318   -2.6073 H   0  0  0  0  0  0  0  0  0  0  0  0
    1.9849   17.8366   -2.7429 H   0  0  0  0  0  0  0  0  0  0  0  0
    0.8965   19.5394    0.6744 H   0  0  0  0  0  0  0  0  0  0  0  0
    2.3232   20.3320   -0.0759 H   0  0  0  0  0  0  0  0  0  0  0  0
    0.7307   21.1630   -0.0759 H   0  0  0  0  0  0  0  0  0  0  0  0
   -1.0438   19.0828   -0.7182 H   0  0  0  0  0  0  0  0  0  0  0  0
   -1.0212   20.0117   -2.2556 H   0  0  0  0  0  0  0  0  0  0  0  0
   -0.6033   18.2647   -2.2556 H   0  0  0  0  0  0  0  0  0  0  0  0
    2.6267   15.2521    0.6308 H   0  0  0  0  0  0  0  0  0  0  0  0
    0.7794   16.8097    0.6309 H   0  0  0  0  0  0  0  0  0  0  0  0
    1.3227   17.5737   -0.8782 H   0  0  0  0  0  0  0  0  0  0  0  0
   -0.8553   15.7385   -0.6358 H   0  0  0  0  0  0  0  0  0  0  0  0
   -0.1033   16.1812   -2.1660 H   0  0  0  0  0  0  0  0  0  0  0  0
    0.7341   14.3635    0.9438 H   0  0  0  0  0  0  0  0  0  0  0  0
   -0.6802   13.5280    0.2169 H   0  0  0  0  0  0  0  0  0  0  0  0
    0.9304   12.7326    0.2169 H   0  0  0  0  0  0  0  0  0  0  0  0
    0.4147   14.1061   -3.3026 H   0  0  0  0  0  0  0  0  0  0  0  0
   -1.7856   13.9428   -1.9719 H   0  0  0  0  0  0  0  0  0  0  0  0
   -1.5153   12.9408   -3.4920 H   0  0  0  0  0  0  0  0  0  0  0  0
   -2.6763   11.7074   -1.4742 H   0  0  0  0  0  0  0  0  0  0  0  0
    1.2672   11.2039   -0.7774 H   0  0  0  0  0  0  0  0  0  0  0  0
    0.6774    9.3811   -3.1910 H   0  0  0  0  0  0  0  0  0  0  0  0
    2.2850    9.6276   -2.3741 H   0  0  0  0  0  0  0  0  0  0  0  0
    1.2174    7.4949   -1.7175 H   0  0  0  0  0  0  0  0  0  0  0  0
    1.4344    8.6333   -0.3309 H   0  0  0  0  0  0  0  0  0  0  0  0
   -0.7377    7.6259   -0.1674 H   0  0  0  0  0  0  0  0  0  0  0  0
   -1.2750    7.0170   -2.2080 H   0  0  0  0  0  0  0  0  0  0  0  0
   -1.3866    9.6087    1.7398 H   0  0  0  0  0  0  0  0  0  0  0  0
    0.2995    9.4379    1.1442 H   0  0  0  0  0  0  0  0  0  0  0  0
   -0.4941   11.0494    1.1442 H   0  0  0  0  0  0  0  0  0  0  0  0
   -2.9975    9.5087    0.7695 H   0  0  0  0  0  0  0  0  0  0  0  0
   -3.2272   10.3870   -0.7805 H   0  0  0  0  0  0  0  0  0  0  0  0
   -3.0308    8.6015   -0.7805 H   0  0  0  0  0  0  0  0  0  0  0  0
    0.4785   10.7502   -4.1964 H   0  0  0  0  0  0  0  0  0  0  0  0
    0.3012   12.4774   -4.6567 H   0  0  0  0  0  0  0  0  0  0  0  0
    1.9253   11.7101   -4.6567 H   0  0  0  0  0  0  0  0  0  0  0  0
    3.1806   11.4968   -2.2714 H   0  0  0  0  0  0  0  0  0  0  0  0
    2.9943   12.9384   -3.4209 H   0  0  0  0  0  0  0  0  0  0  0  0
    2.9071   12.9666   -0.3913 H   0  0  0  0  0  0  0  0  0  0  0  0
    4.1359   13.7056   -1.4918 H   0  0  0  0  0  0  0  0  0  0  0  0
    3.0179   16.3986   -2.6380 H   0  0  0  0  0  0  0  0  0  0  0  0
    3.2598   14.7874   -3.3946 H   0  0  0  0  0  0  0  0  0  0  0  0
    1.6307   15.5442   -3.3946 H   0  0  0  0  0  0  0  0  0  0  0  0
  1  2  1  0
  2  3  1  0
  3  4  1  0
  4  5  1  0
  5  6  1  0
  6  7  1  0
  7  8  1  0
  7  9  1  0
  2 10  1  0
 10 11  1  0
 11 12  1  0
 12 13  1  0
 13 14  1  1
 13 15  1  0
 15 16  1  0
 16 17  1  0
 17 18  2  0
 18 19  1  0
 19 20  1  0
 20 21  1  0
 21 22  1  0
 22 23  1  0
 22 24  1  0
 24 25  1  0
 24 26  1  0
 19 27  1  0
 27 28  1  6
 27 29  1  0
 29 30  1  0
 30 31  1  0
 31 32  1  6
  7  5  1  0
 31 10  1  0
 31 13  1  0
 27 15  1  0
 24 18  1  0
  1 33  1  0
  1 34  1  0
  1 35  1  0
  2 36  1  1
  3 37  1  0
  3 38  1  0
  4 39  1  0
  4 40  1  0
  5 41  1  6
  8 42  1  0
  8 43  1  0
  8 44  1  0
  9 45  1  0
  9 46  1  0
  9 47  1  0
 10 48  1  1
 11 49  1  0
 11 50  1  0
 12 51  1  0
 12 52  1  0
 14 53  1  0
 14 54  1  0
 14 55  1  0
 15 56  1  6
 16 57  1  0
 16 58  1  0
 17 59  1  0
 19 60  1  1
 20 61  1  0
 20 62  1  0
 21 63  1  0
 21 64  1  0
 22 65  1  1
 23 66  1  0
 25 67  1  0
 25 68  1  0
 25 69  1  0
 26 70  1  0
 26 71  1  0
 26 72  1  0
 28 73  1  0
 28 74  1  0
 28 75  1  0
 29 76  1  0
 29 77  1  0
 30 78  1  0
 30 79  1  0
 32 80  1  0
 32 81  1  0
 32 82  1  0
M  END
>  <meeko>  (6) 
{"is_sidechain": [false], "intermolecular_energy": 2.731, "internal_energy": -0.839}

$$$$
EPH_relaxed_0001_pdb2pqr_Repair_116_r2_0001_out
     RDKit          3D

 82 86  0  0  0  0  0  0  0  0999 V2000
   -0.0030   18.4830   -2.2690 C   0  0  0  0  0  0  0  0  0  0  0  0
    0.9450   17.3910   -1.7630 C   0  0  2  0  0  0  0  0  0  0  0  0
    2.3820   17.5820   -2.2860 C   0  0  0  0  0  0  0  0  0  0  0  0
    3.1520   18.7010   -1.5790 C   0  0  0  0  0  0  0  0  0  0  0  0
    3.8290   18.2080   -0.3360 C   0  0  2  0  0  0  0  0  0  0  0  0
    2.9720   17.5070    0.5750 O   0  0  0  0  0  0  0  0  0  0  0  0
    3.5250   18.7440    1.0510 C   0  0  0  0  0  0  0  0  0  0  0  0
    2.5090   19.8220    1.2660 C   0  0  0  0  0  0  0  0  0  0  0  0
    4.5530   18.5720    2.1260 C   0  0  0  0  0  0  0  0  0  0  0  0
    0.4200   16.0190   -2.1680 C   0  0  1  0  0  0  0  0  0  0  0  0
    0.1650   15.9040   -3.6940 C   0  0  0  0  0  0  0  0  0  0  0  0
    0.5150   14.4480   -4.0980 C   0  0  0  0  0  0  0  0  0  0  0  0
    0.6380   13.6900   -2.7550 C   0  0  1  0  0  0  0  0  0  0  0  0
   -0.8320   13.3570   -2.3460 C   0  0  0  0  0  0  0  0  0  0  0  0
    1.5380   12.4120   -2.7630 C   0  0  2  0  0  0  0  0  0  0  0  0
    1.0580   11.2810   -3.6890 C   0  0  0  0  0  0  0  0  0  0  0  0
    0.1390   10.2880   -3.0590 C   0  0  0  0  0  0  0  0  0  0  0  0
   -0.0600   10.1350   -1.7360 C   0  0  0  0  0  0  0  0  0  0  0  0
    0.7520   10.9480   -0.7190 C   0  0  1  0  0  0  0  0  0  0  0  0
    1.2680   10.0070    0.4010 C   0  0  0  0  0  0  0  0  0  0  0  0
    0.1460    9.2060    1.0560 C   0  0  0  0  0  0  0  0  0  0  0  0
   -0.6000    8.3670    0.0220 C   0  0  2  0  0  0  0  0  0  0  0  0
    0.2830    7.3590   -0.4780 O   0  0  0  0  0  0  0  0  0  0  0  0
   -1.1580    9.2070   -1.1610 C   0  0  0  0  0  0  0  0  0  0  0  0
   -2.3310   10.0890   -0.6660 C   0  0  0  0  0  0  0  0  0  0  0  0
   -1.7630    8.2250   -2.2000 C   0  0  0  0  0  0  0  0  0  0  0  0
    1.9000   11.8650   -1.3230 C   0  0  1  0  0  0  0  0  0  0  0  0
    3.2140   11.0400   -1.4770 C   0  0  0  0  0  0  0  0  0  0  0  0
    2.2200   13.0240   -0.3060 C   0  0  0  0  0  0  0  0  0  0  0  0
    1.3760   14.3070   -0.4260 C   0  0  0  0  0  0  0  0  0  0  0  0
    1.3270   14.7970   -1.8770 C   0  0  2  0  0  0  0  0  0  0  0  0
    2.7890   15.1600   -2.3090 C   0  0  0  0  0  0  0  0  0  0  0  0
   -0.4544   19.0030   -1.4112 H   0  0  0  0  0  0  0  0  0  0  0  0
    0.5606   19.2038   -2.8795 H   0  0  0  0  0  0  0  0  0  0  0  0
   -0.7958   18.0262   -2.8795 H   0  0  0  0  0  0  0  0  0  0  0  0
    0.9812   17.4657   -0.6661 H   0  0  0  0  0  0  0  0  0  0  0  0
    2.9311   16.6395   -2.1440 H   0  0  0  0  0  0  0  0  0  0  0  0
    2.3027   17.8668   -3.3455 H   0  0  0  0  0  0  0  0  0  0  0  0
    3.9135   19.0989   -2.2659 H   0  0  0  0  0  0  0  0  0  0  0  0
    2.4338   19.4829   -1.2913 H   0  0  0  0  0  0  0  0  0  0  0  0
    4.7737   18.0620   -0.8802 H   0  0  0  0  0  0  0  0  0  0  0  0
    2.3623   19.9777    2.3450 H   0  0  0  0  0  0  0  0  0  0  0  0
    2.8626   20.7563    0.8055 H   0  0  0  0  0  0  0  0  0  0  0  0
    1.5554   19.5243    0.8055 H   0  0  0  0  0  0  0  0  0  0  0  0
    4.0704   18.6528    3.1112 H   0  0  0  0  0  0  0  0  0  0  0  0
    5.0237   17.5826    2.0283 H   0  0  0  0  0  0  0  0  0  0  0  0
    5.3201   19.3543    2.0283 H   0  0  0  0  0  0  0  0  0  0  0  0
   -0.4837   15.9747   -1.5424 H   0  0  0  0  0  0  0  0  0  0  0  0
   -0.8907   16.1160   -3.9186 H   0  0  0  0  0  0  0  0  0  0  0  0
    0.7780   16.6269   -4.2523 H   0  0  0  0  0  0  0  0  0  0  0  0
   -0.2838   14.0140   -4.7173 H   0  0  0  0  0  0  0  0  0  0  0  0
    1.4367   14.3907   -4.6956 H   0  0  0  0  0  0  0  0  0  0  0  0
   -0.9122   13.3388   -1.2491 H   0  0  0  0  0  0  0  0  0  0  0  0
   -1.5080   14.1248   -2.7504 H   0  0  0  0  0  0  0  0  0  0  0  0
   -1.1111   12.3729   -2.7504 H   0  0  0  0  0  0  0  0  0  0  0  0
    2.4725   12.7853   -3.2073 H   0  0  0  0  0  0  0  0  0  0  0  0
    0.5322   11.7385   -4.5400 H   0  0  0  0  0  0  0  0  0  0  0  0
    1.9596   10.7208   -3.9777 H   0  0  0  0  0  0  0  0  0  0  0  0
   -0.4235    9.6248   -3.7326 H   0  0  0  0  0  0  0  0  0  0  0  0
    0.0566   11.6872   -0.2948 H   0  0  0  0  0  0  0  0  0  0  0  0
    1.9941    9.3051   -0.0350 H   0  0  0  0  0  0  0  0  0  0  0  0
    1.7279   10.6346    1.1786 H   0  0  0  0  0  0  0  0  0  0  0  0
    0.5767    8.5394    1.8177 H   0  0  0  0  0  0  0  0  0  0  0  0
   -0.5641    9.9083    1.5170 H   0  0  0  0  0  0  0  0  0  0  0  0
   -1.4691    7.9188    0.5258 H   0  0  0  0  0  0  0  0  0  0  0  0
    0.7120    6.9380    0.2860 H   0  0  0  0  0  0  0  0  0  0  0  0
   -2.3438   10.0986    0.4339 H   0  0  0  0  0  0  0  0  0  0  0  0
   -2.2014   11.1153   -1.0402 H   0  0  0  0  0  0  0  0  0  0  0  0
   -3.2809    9.6795   -1.0402 H   0  0  0  0  0  0  0  0  0  0  0  0
   -2.2700    7.4021   -1.6749 H   0  0  0  0  0  0  0  0  0  0  0  0
   -2.4885    8.7596   -2.8307 H   0  0  0  0  0  0  0  0  0  0  0  0
   -0.9592    7.8174   -2.8307 H   0  0  0  0  0  0  0  0  0  0  0  0
    3.6098   10.7915   -0.4812 H   0  0  0  0  0  0  0  0  0  0  0  0
    3.0021   10.1126   -2.0292 H   0  0  0  0  0  0  0  0  0  0  0  0
    3.9572   11.6339   -2.0292 H   0  0  0  0  0  0  0  0  0  0  0  0
    2.0763   12.6250    0.7090 H   0  0  0  0  0  0  0  0  0  0  0  0
    3.2494   13.3343   -0.5383 H   0  0  0  0  0  0  0  0  0  0  0  0
    0.3523   14.0979   -0.0820 H   0  0  0  0  0  0  0  0  0  0  0  0
    1.8377   15.0900    0.1934 H   0  0  0  0  0  0  0  0  0  0  0  0
    3.4085   15.3138   -1.4132 H   0  0  0  0  0  0  0  0  0  0  0  0
    3.2088   14.3388   -2.9085 H   0  0  0  0  0  0  0  0  0  0  0  0
    2.7759   16.0822   -2.9085 H   0  0  0  0  0  0  0  0  0  0  0  0
  1  2  1  0
  2  3  1  0
  3  4  1  0
  4  5  1  0
  5  6  1  0
  6  7  1  0
  7  8  1  0
  7  9  1  0
  2 10  1  0
 10 11  1  0
 11 12  1  0
 12 13  1  0
 13 14  1  1
 13 15  1  0
 15 16  1  0
 16 17  1  0
 17 18  2  0
 18 19  1  0
 19 20  1  0
 20 21  1  0
 21 22  1  0
 22 23  1  0
 22 24  1  0
 24 25  1  0
 24 26  1  0
 19 27  1  0
 27 28  1  6
 27 29  1  0
 29 30  1  0
 30 31  1  0
 31 32  1  6
  7  5  1  0
 31 10  1  0
 31 13  1  0
 27 15  1  0
 24 18  1  0
  1 33  1  0
  1 34  1  0
  1 35  1  0
  2 36  1  1
  3 37  1  0
  3 38  1  0
  4 39  1  0
  4 40  1  0
  5 41  1  6
  8 42  1  0
  8 43  1  0
  8 44  1  0
  9 45  1  0
  9 46  1  0
  9 47  1  0
 10 48  1  1
 11 49  1  0
 11 50  1  0
 12 51  1  0
 12 52  1  0
 14 53  1  0
 14 54  1  0
 14 55  1  0
 15 56  1  6
 16 57  1  0
 16 58  1  0
 17 59  1  0
 19 60  1  1
 20 61  1  0
 20 62  1  0
 21 63  1  0
 21 64  1  0
 22 65  1  1
 23 66  1  0
 25 67  1  0
 25 68  1  0
 25 69  1  0
 26 70  1  0
 26 71  1  0
 26 72  1  0
 28 73  1  0
 28 74  1  0
 28 75  1  0
 29 76  1  0
 29 77  1  0
 30 78  1  0
 30 79  1  0
 32 80  1  0
 32 81  1  0
 32 82  1  0
M  END
>  <meeko>  (7) 
{"is_sidechain": [false], "intermolecular_energy": 2.731, "internal_energy": -0.839}

$$$$
EPH_relaxed_0001_pdb2pqr_Repair_116_r2_0001_out
     RDKit          3D

 82 86  0  0  0  0  0  0  0  0999 V2000
   -2.4190    7.7370   -2.5210 C   0  0  0  0  0  0  0  0  0  0  0  0
   -2.9320    8.2450   -1.1710 C   0  0  2  0  0  0  0  0  0  0  0  0
   -4.4580    8.4660   -1.1740 C   0  0  0  0  0  0  0  0  0  0  0  0
   -5.2680    7.1660   -1.1820 C   0  0  0  0  0  0  0  0  0  0  0  0
   -6.2350    7.1220   -2.3260 C   0  0  2  0  0  0  0  0  0  0  0  0
   -7.1690    8.2090   -2.3620 O   0  0  0  0  0  0  0  0  0  0  0  0
   -7.7260    6.9010   -2.1530 C   0  0  0  0  0  0  0  0  0  0  0  0
   -8.3340    6.7080   -0.8000 C   0  0  0  0  0  0  0  0  0  0  0  0
   -8.5120    6.3870   -3.3190 C   0  0  0  0  0  0  0  0  0  0  0  0
   -2.2190    9.5390   -0.7980 C   0  0  1  0  0  0  0  0  0  0  0  0
   -2.5550   10.0130    0.6410 C   0  0  0  0  0  0  0  0  0  0  0  0
   -1.2700   10.6700    1.2080 C   0  0  0  0  0  0  0  0  0  0  0  0
   -0.3500   10.8520   -0.0230 C   0  0  1  0  0  0  0  0  0  0  0  0
   -0.8610   12.1530   -0.7170 C   0  0  0  0  0  0  0  0  0  0  0  0
    1.1850   10.9160    0.2660 C   0  0  2  0  0  0  0  0  0  0  0  0
    1.6350   12.1000    1.1400 C   0  0  0  0  0  0  0  0  0  0  0  0
    2.0090   13.3380    0.3930 C   0  0  0  0  0  0  0  0  0  0  0  0
    2.2570   13.4100   -0.9280 C   0  0  0  0  0  0  0  0  0  0  0  0
    2.2680   12.1460   -1.7970 C   0  0  1  0  0  0  0  0  0  0  0  0
    3.5200   12.1580   -2.7130 C   0  0  0  0  0  0  0  0  0  0  0  0
    3.6270   13.4360   -3.5400 C   0  0  0  0  0  0  0  0  0  0  0  0
    3.6720   14.6670   -2.6380 C   0  0  2  0  0  0  0  0  0  0  0  0
    4.8930   14.6470   -1.8920 O   0  0  0  0  0  0  0  0  0  0  0  0
    2.4650   14.7560   -1.6630 C   0  0  0  0  0  0  0  0  0  0  0  0
    1.1760   15.0800   -2.4590 C   0  0  0  0  0  0  0  0  0  0  0  0
    2.7050   15.9630   -0.7170 C   0  0  0  0  0  0  0  0  0  0  0  0
    2.0930   10.7690   -1.0220 C   0  0  1  0  0  0  0  0  0  0  0  0
    3.4810   10.2550   -0.5310 C   0  0  0  0  0  0  0  0  0  0  0  0
    1.5440    9.6830   -2.0200 C   0  0  0  0  0  0  0  0  0  0  0  0
    0.0140    9.5880   -2.1720 C   0  0  0  0  0  0  0  0  0  0  0  0
   -0.6700    9.5250   -0.8030 C   0  0  2  0  0  0  0  0  0  0  0  0
   -0.1920    8.2140   -0.0900 C   0  0  0  0  0  0  0  0  0  0  0  0
   -1.6463    6.9718   -2.3553 H   0  0  0  0  0  0  0  0  0  0  0  0
   -3.2530    7.2989   -3.0889 H   0  0  0  0  0  0  0  0  0  0  0  0
   -1.9891    8.5753   -3.0889 H   0  0  0  0  0  0  0  0  0  0  0  0
   -2.7131    7.4701   -0.4216 H   0  0  0  0  0  0  0  0  0  0  0  0
   -4.7279    9.0379   -0.2740 H   0  0  0  0  0  0  0  0  0  0  0  0
   -4.7033    9.0035   -2.1018 H   0  0  0  0  0  0  0  0  0  0  0  0
   -4.5759    6.3153   -1.2675 H   0  0  0  0  0  0  0  0  0  0  0  0
   -5.8426    7.1144   -0.2454 H   0  0  0  0  0  0  0  0  0  0  0  0
   -5.4872    6.6366   -2.9704 H   0  0  0  0  0  0  0  0  0  0  0  0
   -7.5889    6.9445   -0.0261 H   0  0  0  0  0  0  0  0  0  0  0  0
   -9.2018    7.3748   -0.6895 H   0  0  0  0  0  0  0  0  0  0  0  0
   -8.6583    5.6627   -0.6895 H   0  0  0  0  0  0  0  0  0  0  0  0
   -9.3805    5.8191   -2.9540 H   0  0  0  0  0  0  0  0  0  0  0  0
   -8.8581    7.2338   -3.9298 H   0  0  0  0  0  0  0  0  0  0  0  0
   -7.8749    5.7305   -3.9298 H   0  0  0  0  0  0  0  0  0  0  0  0
   -2.5919   10.1922   -1.6007 H   0  0  0  0  0  0  0  0  0  0  0  0
   -3.3755   10.7452    0.6166 H   0  0  0  0  0  0  0  0  0  0  0  0
   -2.8771    9.1694    1.2692 H   0  0  0  0  0  0  0  0  0  0  0  0
   -1.5011   11.6424    1.6674 H   0  0  0  0  0  0  0  0  0  0  0  0
   -0.8006   10.0595    1.9934 H   0  0  0  0  0  0  0  0  0  0  0  0
   -1.1497   12.8880    0.0488 H   0  0  0  0  0  0  0  0  0  0  0  0
   -0.0608   12.5724   -1.3445 H   0  0  0  0  0  0  0  0  0  0  0  0
   -1.7327   11.9157   -1.3445 H   0  0  0  0  0  0  0  0  0  0  0  0
    1.3491   10.0156    0.8762 H   0  0  0  0  0  0  0  0  0  0  0  0
    0.8101   12.3512    1.8230 H   0  0  0  0  0  0  0  0  0  0  0  0
    2.5482   11.7680    1.6557 H   0  0  0  0  0  0  0  0  0  0  0  0
    2.0885   14.2702    0.9715 H   0  0  0  0  0  0  0  0  0  0  0  0
    1.3558   12.1915   -2.4100 H   0  0  0  0  0  0  0  0  0  0  0  0
    4.4180   12.0686   -2.0841 H   0  0  0  0  0  0  0  0  0  0  0  0
    3.4303   11.3138   -3.4125 H   0  0  0  0  0  0  0  0  0  0  0  0
    4.5457   13.3983   -4.1438 H   0  0  0  0  0  0  0  0  0  0  0  0
    2.7425   13.5089   -4.1899 H   0  0  0  0  0  0  0  0  0  0  0  0
    3.6172   15.5539   -3.2864 H   0  0  0  0  0  0  0  0  0  0  0  0
    5.6010   14.3630   -2.4950 H   0  0  0  0  0  0  0  0  0  0  0  0
    0.3541   15.2866   -1.7577 H   0  0  0  0  0  0  0  0  0  0  0  0
    1.3483   15.9628   -3.0923 H   0  0  0  0  0  0  0  0  0  0  0  0
    0.9104   14.2207   -3.0923 H   0  0  0  0  0  0  0  0  0  0  0  0
    2.6384   15.6282    0.3287 H   0  0  0  0  0  0  0  0  0  0  0  0
    3.7042   16.3829   -0.9046 H   0  0  0  0  0  0  0  0  0  0  0  0
    1.9424   16.7332   -0.9046 H   0  0  0  0  0  0  0  0  0  0  0  0
    3.5011   10.2475    0.5688 H   0  0  0  0  0  0  0  0  0  0  0  0
    3.6486    9.2352   -0.9077 H   0  0  0  0  0  0  0  0  0  0  0  0
    4.2724   10.9197   -0.9077 H   0  0  0  0  0  0  0  0  0  0  0  0
    1.9639    9.9013   -3.0130 H   0  0  0  0  0  0  0  0  0  0  0  0
    1.8506    8.7175   -1.5912 H   0  0  0  0  0  0  0  0  0  0  0  0
   -0.3493   10.4727   -2.7154 H   0  0  0  0  0  0  0  0  0  0  0  0
   -0.2270    8.6694   -2.7271 H   0  0  0  0  0  0  0  0  0  0  0  0
   -0.2418    8.3506    1.0004 H   0  0  0  0  0  0  0  0  0  0  0  0
   -0.8431    7.3779   -0.3849 H   0  0  0  0  0  0  0  0  0  0  0  0
    0.8445    7.9932   -0.3849 H   0  0  0  0  0  0  0  0  0  0  0  0
  1  2  1  0
  2  3  1  0
  3  4  1  0
  4  5  1  0
  5  6  1  0
  6  7  1  0
  7  8  1  0
  7  9  1  0
  2 10  1  0
 10 11  1  0
 11 12  1  0
 12 13  1  0
 13 14  1  6
 13 15  1  0
 15 16  1  0
 16 17  1  0
 17 18  2  0
 18 19  1  0
 19 20  1  0
 20 21  1  0
 21 22  1  0
 22 23  1  0
 22 24  1  0
 24 25  1  0
 24 26  1  0
 19 27  1  0
 27 28  1  1
 27 29  1  0
 29 30  1  0
 30 31  1  0
 31 32  1  1
  7  5  1  0
 31 10  1  0
 31 13  1  0
 27 15  1  0
 24 18  1  0
  1 33  1  0
  1 34  1  0
  1 35  1  0
  2 36  1  1
  3 37  1  0
  3 38  1  0
  4 39  1  0
  4 40  1  0
  5 41  1  6
  8 42  1  0
  8 43  1  0
  8 44  1  0
  9 45  1  0
  9 46  1  0
  9 47  1  0
 10 48  1  6
 11 49  1  0
 11 50  1  0
 12 51  1  0
 12 52  1  0
 14 53  1  0
 14 54  1  0
 14 55  1  0
 15 56  1  1
 16 57  1  0
 16 58  1  0
 17 59  1  0
 19 60  1  6
 20 61  1  0
 20 62  1  0
 21 63  1  0
 21 64  1  0
 22 65  1  6
 23 66  1  0
 25 67  1  0
 25 68  1  0
 25 69  1  0
 26 70  1  0
 26 71  1  0
 26 72  1  0
 28 73  1  0
 28 74  1  0
 28 75  1  0
 29 76  1  0
 29 77  1  0
 30 78  1  0
 30 79  1  0
 32 80  1  0
 32 81  1  0
 32 82  1  0
M  END
>  <meeko>  (8) 
{"is_sidechain": [false], "intermolecular_energy": 2.731, "internal_energy": -0.839}

$$$$
EPH_relaxed_0001_pdb2pqr_Repair_116_r2_0001_out
     RDKit          3D

 82 86  0  0  0  0  0  0  0  0999 V2000
    2.1940   19.2970    0.0020 C   0  0  0  0  0  0  0  0  0  0  0  0
    2.8570   17.9410   -0.2570 C   0  0  2  0  0  0  0  0  0  0  0  0
    3.6740   17.9340   -1.5640 C   0  0  0  0  0  0  0  0  0  0  0  0
    5.1360   17.5210   -1.3730 C   0  0  0  0  0  0  0  0  0  0  0  0
    5.9560   17.8050   -2.5950 C   0  0  2  0  0  0  0  0  0  0  0  0
    5.2640   17.6220   -3.8370 O   0  0  0  0  0  0  0  0  0  0  0  0
    6.3700   16.7380   -3.5920 C   0  0  0  0  0  0  0  0  0  0  0  0
    5.9760   15.3060   -3.4100 C   0  0  0  0  0  0  0  0  0  0  0  0
    7.5550   16.9990   -4.4680 C   0  0  0  0  0  0  0  0  0  0  0  0
    1.7980   16.8450   -0.2990 C   0  0  1  0  0  0  0  0  0  0  0  0
    0.3950   17.3840   -0.6860 C   0  0  0  0  0  0  0  0  0  0  0  0
   -0.2940   16.2760   -1.5240 C   0  0  0  0  0  0  0  0  0  0  0  0
    0.5880   15.0230   -1.3140 C   0  0  1  0  0  0  0  0  0  0  0  0
    0.1340   14.4400    0.0620 C   0  0  0  0  0  0  0  0  0  0  0  0
    0.5350   13.9430   -2.4430 C   0  0  2  0  0  0  0  0  0  0  0  0
   -0.8420   13.2940   -2.6620 C   0  0  0  0  0  0  0  0  0  0  0  0
   -1.1000   12.0610   -1.8590 C   0  0  0  0  0  0  0  0  0  0  0  0
   -0.1660   11.3370   -1.2150 C   0  0  0  0  0  0  0  0  0  0  0  0
    1.3230   11.6860   -1.3380 C   0  0  1  0  0  0  0  0  0  0  0  0
    2.1370   10.3930   -1.6080 C   0  0  0  0  0  0  0  0  0  0  0  0
    1.8750    9.3080   -0.5670 C   0  0  0  0  0  0  0  0  0  0  0  0
    0.3920    8.9480   -0.5160 C   0  0  2  0  0  0  0  0  0  0  0  0
    0.0270    8.3230   -1.7500 O   0  0  0  0  0  0  0  0  0  0  0  0
   -0.5270   10.1740   -0.2590 C   0  0  0  0  0  0  0  0  0  0  0  0
   -0.3420   10.6670    1.1980 C   0  0  0  0  0  0  0  0  0  0  0  0
   -2.0010    9.6980   -0.3720 C   0  0  0  0  0  0  0  0  0  0  0  0
    1.6800   12.8550   -2.3530 C   0  0  1  0  0  0  0  0  0  0  0  0
    1.8580   12.2760   -3.7900 C   0  0  0  0  0  0  0  0  0  0  0  0
    3.0690   13.4790   -1.9510 C   0  0  0  0  0  0  0  0  0  0  0  0
    3.0440   14.6220   -0.9190 C   0  0  0  0  0  0  0  0  0  0  0  0
    2.0130   15.6870   -1.3050 C   0  0  2  0  0  0  0  0  0  0  0  0
    2.4550   16.3070   -2.6750 C   0  0  0  0  0  0  0  0  0  0  0  0
    2.1123   19.4641    1.0862 H   0  0  0  0  0  0  0  0  0  0  0  0
    2.8036   20.0949   -0.4471 H   0  0  0  0  0  0  0  0  0  0  0  0
    1.1899   19.3059   -0.4471 H   0  0  0  0  0  0  0  0  0  0  0  0
    3.5567   17.7513    0.5703 H   0  0  0  0  0  0  0  0  0  0  0  0
    3.2026   17.2291   -2.2646 H   0  0  0  0  0  0  0  0  0  0  0  0
    3.6783   18.9654   -1.9463 H   0  0  0  0  0  0  0  0  0  0  0  0
    5.5563   18.0797   -0.5238 H   0  0  0  0  0  0  0  0  0  0  0  0
    5.1647   16.4376   -1.1847 H   0  0  0  0  0  0  0  0  0  0  0  0
    6.5286   18.5766   -2.0595 H   0  0  0  0  0  0  0  0  0  0  0  0
    5.9129   15.0767   -2.3360 H   0  0  0  0  0  0  0  0  0  0  0  0
    4.9968   15.1325   -3.8801 H   0  0  0  0  0  0  0  0  0  0  0  0
    6.7287   14.6560   -3.8801 H   0  0  0  0  0  0  0  0  0  0  0  0
    8.4382   17.1935   -3.8418 H   0  0  0  0  0  0  0  0  0  0  0  0
    7.7421   16.1205   -5.1031 H   0  0  0  0  0  0  0  0  0  0  0  0
    7.3557   17.8748   -5.1031 H   0  0  0  0  0  0  0  0  0  0  0  0
    1.8815   16.4684    0.7311 H   0  0  0  0  0  0  0  0  0  0  0  0
   -0.1928   17.5949    0.2195 H   0  0  0  0  0  0  0  0  0  0  0  0
    0.4754   18.3199   -1.2584 H   0  0  0  0  0  0  0  0  0  0  0  0
   -1.3172   16.0956   -1.1628 H   0  0  0  0  0  0  0  0  0  0  0  0
   -0.3832   16.5503   -2.5855 H   0  0  0  0  0  0  0  0  0  0  0  0
    0.5888   15.0240    0.8757 H   0  0  0  0  0  0  0  0  0  0  0  0
   -0.9619   14.4945    0.1397 H   0  0  0  0  0  0  0  0  0  0  0  0
    0.4554   13.3909    0.1397 H   0  0  0  0  0  0  0  0  0  0  0  0
    0.7306   14.5379   -3.3473 H   0  0  0  0  0  0  0  0  0  0  0  0
   -1.6124   14.0355   -2.4037 H   0  0  0  0  0  0  0  0  0  0  0  0
   -0.8677   12.9819   -3.7165 H   0  0  0  0  0  0  0  0  0  0  0  0
   -2.1419   11.7155   -1.7881 H   0  0  0  0  0  0  0  0  0  0  0  0
    1.6156   12.1160   -0.3687 H   0  0  0  0  0  0  0  0  0  0  0  0
    1.8622   10.0040   -2.5995 H   0  0  0  0  0  0  0  0  0  0  0  0
    3.2044   10.6538   -1.5569 H   0  0  0  0  0  0  0  0  0  0  0  0
    2.4546    8.4105   -0.8287 H   0  0  0  0  0  0  0  0  0  0  0  0
    2.1785    9.6874    0.4199 H   0  0  0  0  0  0  0  0  0  0  0  0
    0.2472    8.2643    0.3334 H   0  0  0  0  0  0  0  0  0  0  0  0
   -0.2290    9.0260   -2.3720 H   0  0  0  0  0  0  0  0  0  0  0  0
   -0.6409    9.8705    1.8953 H   0  0  0  0  0  0  0  0  0  0  0  0
    0.7140   10.9247    1.3666 H   0  0  0  0  0  0  0  0  0  0  0  0
   -0.9678   11.5558    1.3666 H   0  0  0  0  0  0  0  0  0  0  0  0
   -2.4208    9.5624    0.6357 H   0  0  0  0  0  0  0  0  0  0  0  0
   -2.5891   10.4519   -0.9158 H   0  0  0  0  0  0  0  0  0  0  0  0
   -2.0371    8.7425   -0.9158 H   0  0  0  0  0  0  0  0  0  0  0  0
    2.1807   11.2264   -3.7250 H   0  0  0  0  0  0  0  0  0  0  0  0
    0.9009   12.3327   -4.3293 H   0  0  0  0  0  0  0  0  0  0  0  0
    2.6179   12.8605   -4.3293 H   0  0  0  0  0  0  0  0  0  0  0  0
    3.6898   12.6706   -1.5373 H   0  0  0  0  0  0  0  0  0  0  0  0
    3.4586   13.9330   -2.8741 H   0  0  0  0  0  0  0  0  0  0  0  0
    2.7841   14.2105    0.0675 H   0  0  0  0  0  0  0  0  0  0  0  0
    4.0387   15.0908   -0.8908 H   0  0  0  0  0  0  0  0  0  0  0  0
    3.0846   17.1902   -2.4917 H   0  0  0  0  0  0  0  0  0  0  0  0
    3.0266   15.5616   -3.2474 H   0  0  0  0  0  0  0  0  0  0  0  0
    1.5640   16.6043   -3.2474 H   0  0  0  0  0  0  0  0  0  0  0  0
  1  2  1  0
  2  3  1  0
  3  4  1  0
  4  5  1  0
  5  6  1  0
  6  7  1  0
  7  8  1  0
  7  9  1  0
  2 10  1  0
 10 11  1  0
 11 12  1  0
 12 13  1  0
 13 14  1  1
 13 15  1  0
 15 16  1  0
 16 17  1  0
 17 18  2  0
 18 19  1  0
 19 20  1  0
 20 21  1  0
 21 22  1  0
 22 23  1  0
 22 24  1  0
 24 25  1  0
 24 26  1  0
 19 27  1  0
 27 28  1  6
 27 29  1  0
 29 30  1  0
 30 31  1  0
 31 32  1  6
  7  5  1  0
 31 10  1  0
 31 13  1  0
 27 15  1  0
 24 18  1  0
  1 33  1  0
  1 34  1  0
  1 35  1  0
  2 36  1  1
  3 37  1  0
  3 38  1  0
  4 39  1  0
  4 40  1  0
  5 41  1  1
  8 42  1  0
  8 43  1  0
  8 44  1  0
  9 45  1  0
  9 46  1  0
  9 47  1  0
 10 48  1  1
 11 49  1  0
 11 50  1  0
 12 51  1  0
 12 52  1  0
 14 53  1  0
 14 54  1  0
 14 55  1  0
 15 56  1  6
 16 57  1  0
 16 58  1  0
 17 59  1  0
 19 60  1  1
 20 61  1  0
 20 62  1  0
 21 63  1  0
 21 64  1  0
 22 65  1  1
 23 66  1  0
 25 67  1  0
 25 68  1  0
 25 69  1  0
 26 70  1  0
 26 71  1  0
 26 72  1  0
 28 73  1  0
 28 74  1  0
 28 75  1  0
 29 76  1  0
 29 77  1  0
 30 78  1  0
 30 79  1  0
 32 80  1  0
 32 81  1  0
 32 82  1  0
M  END
>  <meeko>  (9) 
{"is_sidechain": [false], "intermolecular_energy": 2.731, "internal_energy": -0.839}

$$$$
EPH_relaxed_0001_pdb2pqr_Repair_116_r2_0001_out
     RDKit          3D

 82 86  0  0  0  0  0  0  0  0999 V2000
   -5.1830    5.9200   -1.7630 C   0  0  0  0  0  0  0  0  0  0  0  0
   -5.4730    7.4140   -1.9340 C   0  0  2  0  0  0  0  0  0  0  0  0
   -5.1970    8.2110   -0.6430 C   0  0  0  0  0  0  0  0  0  0  0  0
   -4.1890    9.3480   -0.8260 C   0  0  0  0  0  0  0  0  0  0  0  0
   -2.8070    8.9350   -0.4180 C   0  0  2  0  0  0  0  0  0  0  0  0
   -2.2450    9.7010    0.6560 O   0  0  0  0  0  0  0  0  0  0  0  0
   -1.5810    9.8070   -0.6130 C   0  0  0  0  0  0  0  0  0  0  0  0
   -1.6790   11.1620   -1.2410 C   0  0  0  0  0  0  0  0  0  0  0  0
   -0.2350    9.1520   -0.6450 C   0  0  0  0  0  0  0  0  0  0  0  0
   -6.9190    7.6150   -2.3710 C   0  0  1  0  0  0  0  0  0  0  0  0
   -7.2430    6.9040   -3.7120 C   0  0  0  0  0  0  0  0  0  0  0  0
   -8.7090    6.4100   -3.6140 C   0  0  0  0  0  0  0  0  0  0  0  0
   -9.2820    7.1340   -2.3730 C   0  0  1  0  0  0  0  0  0  0  0  0
   -9.6640    8.5590   -2.8810 C   0  0  0  0  0  0  0  0  0  0  0  0
  -10.4850    6.4340   -1.6590 C   0  0  2  0  0  0  0  0  0  0  0  0
  -11.7540    6.2830   -2.5160 C   0  0  0  0  0  0  0  0  0  0  0  0
  -12.7230    7.4150   -2.4260 C   0  0  0  0  0  0  0  0  0  0  0  0
  -12.7210    8.3720   -1.4800 C   0  0  0  0  0  0  0  0  0  0  0  0
  -11.7330    8.3200   -0.3080 C   0  0  1  0  0  0  0  0  0  0  0  0
  -12.4870    8.5990    1.0190 C   0  0  0  0  0  0  0  0  0  0  0  0
  -13.2770    9.9040    0.9790 C   0  0  0  0  0  0  0  0  0  0  0  0
  -14.2890    9.8950   -0.1630 C   0  0  2  0  0  0  0  0  0  0  0  0
  -15.2870    8.9080    0.1140 O   0  0  0  0  0  0  0  0  0  0  0  0
  -13.6460    9.6130   -1.5500 C   0  0  0  0  0  0  0  0  0  0  0  0
  -12.7930   10.8300   -1.9850 C   0  0  0  0  0  0  0  0  0  0  0  0
  -14.7910    9.4900   -2.5910 C   0  0  0  0  0  0  0  0  0  0  0  0
  -10.8200    7.0220   -0.2280 C   0  0  1  0  0  0  0  0  0  0  0  0
  -11.5630    5.8950    0.5520 C   0  0  0  0  0  0  0  0  0  0  0  0
   -9.5230    7.3550    0.6000 C   0  0  0  0  0  0  0  0  0  0  0  0
   -8.3280    7.9320   -0.1820 C   0  0  0  0  0  0  0  0  0  0  0  0
   -8.0280    7.0900   -1.4260 C   0  0  2  0  0  0  0  0  0  0  0  0
   -7.6200    5.6560   -0.9450 C   0  0  0  0  0  0  0  0  0  0  0  0
   -5.1356    5.6760   -0.6915 H   0  0  0  0  0  0  0  0  0  0  0  0
   -5.9842    5.3343   -2.2374 H   0  0  0  0  0  0  0  0  0  0  0  0
   -4.2208    5.6766   -2.2374 H   0  0  0  0  0  0  0  0  0  0  0  0
   -4.7931    7.7968   -2.7094 H   0  0  0  0  0  0  0  0  0  0  0  0
   -6.1461    8.6415   -0.2910 H   0  0  0  0  0  0  0  0  0  0  0  0
   -4.7608    7.5080    0.0819 H   0  0  0  0  0  0  0  0  0  0  0  0
   -4.1744    9.6443   -1.8852 H   0  0  0  0  0  0  0  0  0  0  0  0
   -4.4990   10.1873   -0.1860 H   0  0  0  0  0  0  0  0  0  0  0  0
   -3.0173    7.8879   -0.6814 H   0  0  0  0  0  0  0  0  0  0  0  0
   -1.7344   11.9280   -0.4535 H   0  0  0  0  0  0  0  0  0  0  0  0
   -0.7915   11.3417   -1.8655 H   0  0  0  0  0  0  0  0  0  0  0  0
   -2.5831   11.2122   -1.8655 H   0  0  0  0  0  0  0  0  0  0  0  0
    0.1146    8.9819    0.3840 H   0  0  0  0  0  0  0  0  0  0  0  0
   -0.3083    8.1888   -1.1713 H   0  0  0  0  0  0  0  0  0  0  0  0
    0.4777    9.8040   -1.1713 H   0  0  0  0  0  0  0  0  0  0  0  0
   -6.9474    8.7139   -2.4099 H   0  0  0  0  0  0  0  0  0  0  0  0
   -7.1360    7.6087   -4.5498 H   0  0  0  0  0  0  0  0  0  0  0  0
   -6.5547    6.0647   -3.8902 H   0  0  0  0  0  0  0  0  0  0  0  0
   -9.2725    6.6840   -4.5181 H   0  0  0  0  0  0  0  0  0  0  0  0
   -8.7756    5.3155   -3.5265 H   0  0  0  0  0  0  0  0  0  0  0  0
   -9.8412    9.2200   -2.0198 H   0  0  0  0  0  0  0  0  0  0  0  0
   -8.8425    8.9634   -3.4907 H   0  0  0  0  0  0  0  0  0  0  0  0
  -10.5776    8.4982   -3.4907 H   0  0  0  0  0  0  0  0  0  0  0  0
  -10.1063    5.4129   -1.5040 H   0  0  0  0  0  0  0  0  0  0  0  0
  -11.4445    6.1833   -3.5668 H   0  0  0  0  0  0  0  0  0  0  0  0
  -12.2810    5.3997   -2.1261 H   0  0  0  0  0  0  0  0  0  0  0  0
  -13.5045    7.4716   -3.1980 H   0  0  0  0  0  0  0  0  0  0  0  0
  -10.9986    9.1173   -0.4950 H   0  0  0  0  0  0  0  0  0  0  0  0
  -13.1846    7.7700    1.2094 H   0  0  0  0  0  0  0  0  0  0  0  0
  -11.7361    8.6872    1.8179 H   0  0  0  0  0  0  0  0  0  0  0  0
  -13.8112   10.0306    1.9322 H   0  0  0  0  0  0  0  0  0  0  0  0
  -12.5741   10.7347    0.8182 H   0  0  0  0  0  0  0  0  0  0  0  0
  -14.7299   10.9011   -0.2209 H   0  0  0  0  0  0  0  0  0  0  0  0
  -15.8640    8.8460   -0.6660 H   0  0  0  0  0  0  0  0  0  0  0  0
  -12.4238   11.3567   -1.0927 H   0  0  0  0  0  0  0  0  0  0  0  0
  -11.9392   10.4834   -2.5857 H   0  0  0  0  0  0  0  0  0  0  0  0
  -13.4101   11.5144   -2.5857 H   0  0  0  0  0  0  0  0  0  0  0  0
  -15.7529    9.3867   -2.0675 H   0  0  0  0  0  0  0  0  0  0  0  0
  -14.8116   10.3911   -3.2216 H   0  0  0  0  0  0  0  0  0  0  0  0
  -14.6198    8.6051   -3.2216 H   0  0  0  0  0  0  0  0  0  0  0  0
  -11.4521    6.0631    1.6334 H   0  0  0  0  0  0  0  0  0  0  0  0
  -12.6304    5.9077    0.2865 H   0  0  0  0  0  0  0  0  0  0  0  0
  -11.1307    4.9190    0.2865 H   0  0  0  0  0  0  0  0  0  0  0  0
   -9.8003    8.0878    1.3721 H   0  0  0  0  0  0  0  0  0  0  0  0
   -9.1727    6.3869    0.9873 H   0  0  0  0  0  0  0  0  0  0  0  0
   -8.5640    8.9606   -0.4922 H   0  0  0  0  0  0  0  0  0  0  0  0
   -7.4430    7.9199    0.4712 H   0  0  0  0  0  0  0  0  0  0  0  0
   -7.6116    5.6266    0.1546 H   0  0  0  0  0  0  0  0  0  0  0  0
   -8.3448    4.9214   -1.3259 H   0  0  0  0  0  0  0  0  0  0  0  0
   -6.6171    5.4130   -1.3259 H   0  0  0  0  0  0  0  0  0  0  0  0
  1  2  1  0
  2  3  1  0
  3  4  1  0
  4  5  1  0
  5  6  1  0
  6  7  1  0
  7  8  1  0
  7  9  1  0
  2 10  1  0
 10 11  1  0
 11 12  1  0
 12 13  1  0
 13 14  1  6
 13 15  1  0
 15 16  1  0
 16 17  1  0
 17 18  2  0
 18 19  1  0
 19 20  1  0
 20 21  1  0
 21 22  1  0
 22 23  1  0
 22 24  1  0
 24 25  1  0
 24 26  1  0
 19 27  1  0
 27 28  1  1
 27 29  1  0
 29 30  1  0
 30 31  1  0
 31 32  1  1
  7  5  1  0
 31 10  1  0
 31 13  1  0
 27 15  1  0
 24 18  1  0
  1 33  1  0
  1 34  1  0
  1 35  1  0
  2 36  1  6
  3 37  1  0
  3 38  1  0
  4 39  1  0
  4 40  1  0
  5 41  1  1
  8 42  1  0
  8 43  1  0
  8 44  1  0
  9 45  1  0
  9 46  1  0
  9 47  1  0
 10 48  1  6
 11 49  1  0
 11 50  1  0
 12 51  1  0
 12 52  1  0
 14 53  1  0
 14 54  1  0
 14 55  1  0
 15 56  1  1
 16 57  1  0
 16 58  1  0
 17 59  1  0
 19 60  1  6
 20 61  1  0
 20 62  1  0
 21 63  1  0
 21 64  1  0
 22 65  1  6
 23 66  1  0
 25 67  1  0
 25 68  1  0
 25 69  1  0
 26 70  1  0
 26 71  1  0
 26 72  1  0
 28 73  1  0
 28 74  1  0
 28 75  1  0
 29 76  1  0
 29 77  1  0
 30 78  1  0
 30 79  1  0
 32 80  1  0
 32 81  1  0
 32 82  1  0
M  END
>  <meeko>  (10) 
{"is_sidechain": [false], "intermolecular_energy": 2.731, "internal_energy": -0.839}

$$$$
EPH_relaxed_0001_pdb2pqr_Repair_116_r2_0001_out
     RDKit          3D

 82 86  0  0  0  0  0  0  0  0999 V2000
    1.3130    8.9550   -0.0150 C   0  0  0  0  0  0  0  0  0  0  0  0
    0.2130    9.6180   -0.8490 C   0  0  2  0  0  0  0  0  0  0  0  0
   -0.4290    8.6360   -1.8500 C   0  0  0  0  0  0  0  0  0  0  0  0
   -1.7780    8.0800   -1.3870 C   0  0  0  0  0  0  0  0  0  0  0  0
   -2.7510    9.1770   -1.0750 C   0  0  2  0  0  0  0  0  0  0  0  0
   -3.3870    9.0660    0.2050 O   0  0  0  0  0  0  0  0  0  0  0  0
   -4.2460    8.9560   -0.9410 C   0  0  0  0  0  0  0  0  0  0  0  0
   -4.8530    7.5990   -1.1180 C   0  0  0  0  0  0  0  0  0  0  0  0
   -5.1620   10.1260   -1.1230 C   0  0  0  0  0  0  0  0  0  0  0  0
    0.7780   10.8230   -1.5920 C   0  0  1  0  0  0  0  0  0  0  0  0
    0.4460   10.8010   -3.1070 C   0  0  0  0  0  0  0  0  0  0  0  0
    0.2350   12.2740   -3.5410 C   0  0  0  0  0  0  0  0  0  0  0  0
    0.7730   13.1100   -2.3560 C   0  0  1  0  0  0  0  0  0  0  0  0
    2.3210   13.1410   -2.5570 C   0  0  0  0  0  0  0  0  0  0  0  0
    0.1830   14.5490   -2.2010 C   0  0  2  0  0  0  0  0  0  0  0  0
    0.4660   15.5010   -3.3770 C   0  0  0  0  0  0  0  0  0  0  0  0
    1.7170   16.3050   -3.2590 C   0  0  0  0  0  0  0  0  0  0  0  0
    2.4310   16.4810   -2.1320 C   0  0  0  0  0  0  0  0  0  0  0  0
    1.9400   15.9160   -0.7920 C   0  0  1  0  0  0  0  0  0  0  0  0
    2.0700   17.0030    0.3070 C   0  0  0  0  0  0  0  0  0  0  0  0
    3.4800   17.5770    0.3980 C   0  0  0  0  0  0  0  0  0  0  0  0
    3.9100   18.1810   -0.9360 C   0  0  2  0  0  0  0  0  0  0  0  0
    3.0980   19.3280   -1.2060 O   0  0  0  0  0  0  0  0  0  0  0  0
    3.8130   17.1810   -2.1220 C   0  0  0  0  0  0  0  0  0  0  0  0
    4.9070   16.0940   -1.9770 C   0  0  0  0  0  0  0  0  0  0  0  0
    4.1390   17.9540   -3.4280 C   0  0  0  0  0  0  0  0  0  0  0  0
    0.5040   15.2360   -0.8120 C   0  0  1  0  0  0  0  0  0  0  0  0
   -0.5990   16.3150   -0.5830 C   0  0  0  0  0  0  0  0  0  0  0  0
    0.3960   14.2280    0.3930 C   0  0  0  0  0  0  0  0  0  0  0  0
    0.8850   12.7890    0.1410 C   0  0  0  0  0  0  0  0  0  0  0  0
    0.2870   12.2250   -1.1510 C   0  0  2  0  0  0  0  0  0  0  0  0
   -1.2680   12.1610   -0.9710 C   0  0  0  0  0  0  0  0  0  0  0  0
    1.0926    9.0878    1.0545 H   0  0  0  0  0  0  0  0  0  0  0  0
    1.3546    7.8812   -0.2502 H   0  0  0  0  0  0  0  0  0  0  0  0
    2.2819    9.4197   -0.2502 H   0  0  0  0  0  0  0  0  0  0  0  0
   -0.5755    9.9452   -0.1552 H   0  0  0  0  0  0  0  0  0  0  0  0
   -0.5791    9.1617   -2.8045 H   0  0  0  0  0  0  0  0  0  0  0  0
    0.2558    7.7805   -1.9454 H   0  0  0  0  0  0  0  0  0  0  0  0
   -2.1962    7.4485   -2.1846 H   0  0  0  0  0  0  0  0  0  0  0  0
   -1.6123    7.4967   -0.4692 H   0  0  0  0  0  0  0  0  0  0  0  0
   -2.1614    9.8988   -1.6593 H   0  0  0  0  0  0  0  0  0  0  0  0
   -5.0517    7.1547   -0.1315 H   0  0  0  0  0  0  0  0  0  0  0  0
   -5.7965    7.6893   -1.6763 H   0  0  0  0  0  0  0  0  0  0  0  0
   -4.1568    6.9559   -1.6763 H   0  0  0  0  0  0  0  0  0  0  0  0
   -5.4641   10.5118   -0.1382 H   0  0  0  0  0  0  0  0  0  0  0  0
   -4.6403   10.9166   -1.6823 H   0  0  0  0  0  0  0  0  0  0  0  0
   -6.0547    9.8093   -1.6823 H   0  0  0  0  0  0  0  0  0  0  0  0
    1.8445   10.7047   -1.3499 H   0  0  0  0  0  0  0  0  0  0  0  0
    1.2791   10.3558   -3.6707 H   0  0  0  0  0  0  0  0  0  0  0  0
   -0.4528   10.1986   -3.3053 H   0  0  0  0  0  0  0  0  0  0  0  0
    0.7998   12.4932   -4.4591 H   0  0  0  0  0  0  0  0  0  0  0  0
   -0.8188   12.4965   -3.7644 H   0  0  0  0  0  0  0  0  0  0  0  0
    2.8180   13.1510   -1.5757 H   0  0  0  0  0  0  0  0  0  0  0  0
    2.6358   12.2490   -3.1184 H   0  0  0  0  0  0  0  0  0  0  0  0
    2.5998   14.0449   -3.1184 H   0  0  0  0  0  0  0  0  0  0  0  0
   -0.9008   14.3619   -2.2216 H   0  0  0  0  0  0  0  0  0  0  0  0
    0.5351   14.8973   -4.2940 H   0  0  0  0  0  0  0  0  0  0  0  0
   -0.3616   16.2256   -3.3880 H   0  0  0  0  0  0  0  0  0  0  0  0
    2.0874   16.7959   -4.1710 H   0  0  0  0  0  0  0  0  0  0  0  0
    2.6011   15.0686   -0.5578 H   0  0  0  0  0  0  0  0  0  0  0  0
    1.3705   17.8207    0.0787 H   0  0  0  0  0  0  0  0  0  0  0  0
    1.8389   16.5304    1.2730 H   0  0  0  0  0  0  0  0  0  0  0  0
    3.5010   18.3594    1.1709 H   0  0  0  0  0  0  0  0  0  0  0  0
    4.1744   16.7636    0.6553 H   0  0  0  0  0  0  0  0  0  0  0  0
    4.9708   18.4575   -0.8457 H   0  0  0  0  0  0  0  0  0  0  0  0
    3.5300   20.0970   -0.7970 H   0  0  0  0  0  0  0  0  0  0  0  0
    5.0971   15.9051   -0.9101 H   0  0  0  0  0  0  0  0  0  0  0  0
    4.5674   15.1654   -2.4589 H   0  0  0  0  0  0  0  0  0  0  0  0
    5.8334   16.4396   -2.4589 H   0  0  0  0  0  0  0  0  0  0  0  0
    4.5551   18.9406   -3.1760 H   0  0  0  0  0  0  0  0  0  0  0  0
    4.8740   17.3856   -4.0168 H   0  0  0  0  0  0  0  0  0  0  0  0
    3.2189   18.0836   -4.0168 H   0  0  0  0  0  0  0  0  0  0  0  0
   -0.7494   16.4622    0.4967 H   0  0  0  0  0  0  0  0  0  0  0  0
   -0.2846   17.2639   -1.0421 H   0  0  0  0  0  0  0  0  0  0  0  0
   -1.5407   15.9798   -1.0421 H   0  0  0  0  0  0  0  0  0  0  0  0
    0.9867   14.6393    1.2248 H   0  0  0  0  0  0  0  0  0  0  0  0
   -0.6814   14.1347    0.5944 H   0  0  0  0  0  0  0  0  0  0  0  0
    1.9819   12.7909    0.0589 H   0  0  0  0  0  0  0  0  0  0  0  0
    0.5628   12.1569    0.9816 H   0  0  0  0  0  0  0  0  0  0  0  0
   -1.5129   12.1509    0.1014 H   0  0  0  0  0  0  0  0  0  0  0  0
   -1.7284   13.0410   -1.4440 H   0  0  0  0  0  0  0  0  0  0  0  0
   -1.6545   11.2462   -1.4440 H   0  0  0  0  0  0  0  0  0  0  0  0
  1  2  1  0
  2  3  1  0
  3  4  1  0
  4  5  1  0
  5  6  1  0
  6  7  1  0
  7  8  1  0
  7  9  1  0
  2 10  1  0
 10 11  1  0
 11 12  1  0
 12 13  1  0
 13 14  1  6
 13 15  1  0
 15 16  1  0
 16 17  1  0
 17 18  2  0
 18 19  1  0
 19 20  1  0
 20 21  1  0
 21 22  1  0
 22 23  1  0
 22 24  1  0
 24 25  1  0
 24 26  1  0
 19 27  1  0
 27 28  1  1
 27 29  1  0
 29 30  1  0
 30 31  1  0
 31 32  1  1
  7  5  1  0
 31 10  1  0
 31 13  1  0
 27 15  1  0
 24 18  1  0
  1 33  1  0
  1 34  1  0
  1 35  1  0
  2 36  1  1
  3 37  1  0
  3 38  1  0
  4 39  1  0
  4 40  1  0
  5 41  1  1
  8 42  1  0
  8 43  1  0
  8 44  1  0
  9 45  1  0
  9 46  1  0
  9 47  1  0
 10 48  1  6
 11 49  1  0
 11 50  1  0
 12 51  1  0
 12 52  1  0
 14 53  1  0
 14 54  1  0
 14 55  1  0
 15 56  1  1
 16 57  1  0
 16 58  1  0
 17 59  1  0
 19 60  1  1
 20 61  1  0
 20 62  1  0
 21 63  1  0
 21 64  1  0
 22 65  1  1
 23 66  1  0
 25 67  1  0
 25 68  1  0
 25 69  1  0
 26 70  1  0
 26 71  1  0
 26 72  1  0
 28 73  1  0
 28 74  1  0
 28 75  1  0
 29 76  1  0
 29 77  1  0
 30 78  1  0
 30 79  1  0
 32 80  1  0
 32 81  1  0
 32 82  1  0
M  END
>  <meeko>  (11) 
{"is_sidechain": [false], "intermolecular_energy": 2.731, "internal_energy": -0.839}

$$$$
EPH_relaxed_0001_pdb2pqr_Repair_116_r2_0001_out
     RDKit          3D

 82 86  0  0  0  0  0  0  0  0999 V2000
    0.4500    8.9430   -2.4180 C   0  0  0  0  0  0  0  0  0  0  0  0
    1.2040   10.0990   -3.0820 C   0  0  2  0  0  0  0  0  0  0  0  0
    2.7010   10.1040   -2.7120 C   0  0  0  0  0  0  0  0  0  0  0  0
    3.6130   10.5750   -3.8480 C   0  0  0  0  0  0  0  0  0  0  0  0
    5.0040   10.8500   -3.3630 C   0  0  2  0  0  0  0  0  0  0  0  0
    5.5760   12.0730   -3.8470 O   0  0  0  0  0  0  0  0  0  0  0  0
    6.2200   10.8600   -4.2720 C   0  0  0  0  0  0  0  0  0  0  0  0
    6.1000   10.5890   -5.7390 C   0  0  0  0  0  0  0  0  0  0  0  0
    7.5710   10.6500   -3.6620 C   0  0  0  0  0  0  0  0  0  0  0  0
    0.5660   11.4270   -2.6910 C   0  0  1  0  0  0  0  0  0  0  0  0
   -0.6910   11.2470   -1.7990 C   0  0  0  0  0  0  0  0  0  0  0  0
   -0.7070   12.4350   -0.8030 C   0  0  0  0  0  0  0  0  0  0  0  0
    0.3390   13.4270   -1.3630 C   0  0  1  0  0  0  0  0  0  0  0  0
   -0.4070   14.2010   -2.4940 C   0  0  0  0  0  0  0  0  0  0  0  0
    0.9890   14.4020   -0.3280 C   0  0  2  0  0  0  0  0  0  0  0  0
    0.0120   15.3720    0.3580 C   0  0  0  0  0  0  0  0  0  0  0  0
   -0.1790   16.6810   -0.3340 C   0  0  0  0  0  0  0  0  0  0  0  0
    0.6160   17.1790   -1.2980 C   0  0  0  0  0  0  0  0  0  0  0  0
    1.8980   16.4480   -1.7190 C   0  0  1  0  0  0  0  0  0  0  0  0
    3.0680   17.4620   -1.8080 C   0  0  0  0  0  0  0  0  0  0  0  0
    2.7480   18.6460   -2.7150 C   0  0  0  0  0  0  0  0  0  0  0  0
    1.5010   19.3830   -2.2310 C   0  0  2  0  0  0  0  0  0  0  0  0
    1.7880   19.9950   -0.9700 O   0  0  0  0  0  0  0  0  0  0  0  0
    0.2590   18.4590   -2.0930 C   0  0  0  0  0  0  0  0  0  0  0  0
   -0.2340   18.0360   -3.4990 C   0  0  0  0  0  0  0  0  0  0  0  0
   -0.8890   19.2940   -1.4640 C   0  0  0  0  0  0  0  0  0  0  0  0
    2.2710   15.1590   -0.8670 C   0  0  1  0  0  0  0  0  0  0  0  0
    3.1040   15.5710    0.3850 C   0  0  0  0  0  0  0  0  0  0  0  0
    3.1990   14.2240   -1.7300 C   0  0  0  0  0  0  0  0  0  0  0  0
    2.4980   13.2000   -2.6430 C   0  0  0  0  0  0  0  0  0  0  0  0
    1.4310   12.4170   -1.8710 C   0  0  2  0  0  0  0  0  0  0  0  0
    2.1560   11.6100   -0.7390 C   0  0  0  0  0  0  0  0  0  0  0  0
    0.5151    9.0428   -1.3245 H   0  0  0  0  0  0  0  0  0  0  0  0
   -0.6056    8.9686   -2.7263 H   0  0  0  0  0  0  0  0  0  0  0  0
    0.8989    7.9873   -2.7263 H   0  0  0  0  0  0  0  0  0  0  0  0
    1.1338    9.9589   -4.1708 H   0  0  0  0  0  0  0  0  0  0  0  0
    2.8440   10.7738   -1.8512 H   0  0  0  0  0  0  0  0  0  0  0  0
    2.9800    9.0645   -2.4851 H   0  0  0  0  0  0  0  0  0  0  0  0
    3.6528    9.7933   -4.6209 H   0  0  0  0  0  0  0  0  0  0  0  0
    3.2000   11.5100   -4.2546 H   0  0  0  0  0  0  0  0  0  0  0  0
    4.7988   10.3392   -2.4107 H   0  0  0  0  0  0  0  0  0  0  0  0
    5.6590    9.5931   -5.8930 H   0  0  0  0  0  0  0  0  0  0  0  0
    5.4552   11.3510   -6.2011 H   0  0  0  0  0  0  0  0  0  0  0  0
    7.0976   10.6237   -6.2011 H   0  0  0  0  0  0  0  0  0  0  0  0
    7.4843   10.6635   -2.5655 H   0  0  0  0  0  0  0  0  0  0  0  0
    7.9727    9.6786   -3.9862 H   0  0  0  0  0  0  0  0  0  0  0  0
    8.2486   11.4536   -3.9862 H   0  0  0  0  0  0  0  0  0  0  0  0
    0.3690   11.8383   -3.6920 H   0  0  0  0  0  0  0  0  0  0  0  0
   -1.5999   11.2598   -2.4184 H   0  0  0  0  0  0  0  0  0  0  0  0
   -0.6624   10.2852   -1.2659 H   0  0  0  0  0  0  0  0  0  0  0  0
   -1.7035   12.8996   -0.7686 H   0  0  0  0  0  0  0  0  0  0  0  0
   -0.4754   12.1206    0.2254 H   0  0  0  0  0  0  0  0  0  0  0  0
   -1.1040   14.9241   -2.0453 H   0  0  0  0  0  0  0  0  0  0  0  0
    0.3252   14.7355   -3.1170 H   0  0  0  0  0  0  0  0  0  0  0  0
   -0.9681   13.4890   -3.1170 H   0  0  0  0  0  0  0  0  0  0  0  0
    1.3307   13.7149    0.4601 H   0  0  0  0  0  0  0  0  0  0  0  0
   -0.9679   14.8767    0.4246 H   0  0  0  0  0  0  0  0  0  0  0  0
    0.4545   15.6074    1.3372 H   0  0  0  0  0  0  0  0  0  0  0  0
   -1.0431   17.2899   -0.0297 H   0  0  0  0  0  0  0  0  0  0  0  0
    1.6948   16.0260   -2.7143 H   0  0  0  0  0  0  0  0  0  0  0  0
    3.2847   17.8400   -0.7980 H   0  0  0  0  0  0  0  0  0  0  0  0
    3.9335   16.9364   -2.2378 H   0  0  0  0  0  0  0  0  0  0  0  0
    3.6004   19.3413   -2.7135 H   0  0  0  0  0  0  0  0  0  0  0  0
    2.5608   18.2691   -3.7313 H   0  0  0  0  0  0  0  0  0  0  0  0
    1.2477   20.1377   -2.9902 H   0  0  0  0  0  0  0  0  0  0  0  0
    0.9610   20.0190   -0.4600 H   0  0  0  0  0  0  0  0  0  0  0  0
   -1.0652   17.3228   -3.3969 H   0  0  0  0  0  0  0  0  0  0  0  0
   -0.5783   18.9240   -4.0493 H   0  0  0  0  0  0  0  0  0  0  0  0
    0.5914   17.5608   -4.0493 H   0  0  0  0  0  0  0  0  0  0  0  0
   -0.8203   19.2441   -0.3673 H   0  0  0  0  0  0  0  0  0  0  0  0
   -0.8017   20.3411   -1.7895 H   0  0  0  0  0  0  0  0  0  0  0  0
   -1.8583   18.8884   -1.7895 H   0  0  0  0  0  0  0  0  0  0  0  0
    2.5534   15.2987    1.2975 H   0  0  0  0  0  0  0  0  0  0  0  0
    4.0713   15.0474    0.3704 H   0  0  0  0  0  0  0  0  0  0  0  0
    3.2749   16.6575    0.3704 H   0  0  0  0  0  0  0  0  0  0  0  0
    3.8196   14.8694   -2.3690 H   0  0  0  0  0  0  0  0  0  0  0  0
    3.7595   13.6219   -0.9997 H   0  0  0  0  0  0  0  0  0  0  0  0
    2.0199   13.7314   -3.4791 H   0  0  0  0  0  0  0  0  0  0  0  0
    3.2509   12.4909   -3.0176 H   0  0  0  0  0  0  0  0  0  0  0  0
    1.8251   11.9783    0.2433 H   0  0  0  0  0  0  0  0  0  0  0  0
    1.9076   10.5425   -0.8331 H   0  0  0  0  0  0  0  0  0  0  0  0
    3.2439   11.7430   -0.8331 H   0  0  0  0  0  0  0  0  0  0  0  0
  1  2  1  0
  2  3  1  0
  3  4  1  0
  4  5  1  0
  5  6  1  0
  6  7  1  0
  7  8  1  0
  7  9  1  0
  2 10  1  0
 10 11  1  0
 11 12  1  0
 12 13  1  0
 13 14  1  6
 13 15  1  0
 15 16  1  0
 16 17  1  0
 17 18  2  0
 18 19  1  0
 19 20  1  0
 20 21  1  0
 21 22  1  0
 22 23  1  0
 22 24  1  0
 24 25  1  0
 24 26  1  0
 19 27  1  0
 27 28  1  1
 27 29  1  0
 29 30  1  0
 30 31  1  0
 31 32  1  1
  7  5  1  0
 31 10  1  0
 31 13  1  0
 27 15  1  0
 24 18  1  0
  1 33  1  0
  1 34  1  0
  1 35  1  0
  2 36  1  6
  3 37  1  0
  3 38  1  0
  4 39  1  0
  4 40  1  0
  5 41  1  1
  8 42  1  0
  8 43  1  0
  8 44  1  0
  9 45  1  0
  9 46  1  0
  9 47  1  0
 10 48  1  6
 11 49  1  0
 11 50  1  0
 12 51  1  0
 12 52  1  0
 14 53  1  0
 14 54  1  0
 14 55  1  0
 15 56  1  1
 16 57  1  0
 16 58  1  0
 17 59  1  0
 19 60  1  6
 20 61  1  0
 20 62  1  0
 21 63  1  0
 21 64  1  0
 22 65  1  6
 23 66  1  0
 25 67  1  0
 25 68  1  0
 25 69  1  0
 26 70  1  0
 26 71  1  0
 26 72  1  0
 28 73  1  0
 28 74  1  0
 28 75  1  0
 29 76  1  0
 29 77  1  0
 30 78  1  0
 30 79  1  0
 32 80  1  0
 32 81  1  0
 32 82  1  0
M  END
>  <meeko>  (12) 
{"is_sidechain": [false], "intermolecular_energy": 2.731, "internal_energy": -0.839}

$$$$
EPH_relaxed_0001_pdb2pqr_Repair_116_r2_0001_out
     RDKit          3D

 82 86  0  0  0  0  0  0  0  0999 V2000
    4.1840   17.7200   -2.7140 C   0  0  0  0  0  0  0  0  0  0  0  0
    2.8300   17.1980   -2.2270 C   0  0  2  0  0  0  0  0  0  0  0  0
    2.5260   17.6320   -0.7790 C   0  0  0  0  0  0  0  0  0  0  0  0
    3.7560   18.1310   -0.0160 C   0  0  0  0  0  0  0  0  0  0  0  0
    3.3750   18.8090    1.2660 C   0  0  2  0  0  0  0  0  0  0  0  0
    3.7420   20.1930    1.3430 O   0  0  0  0  0  0  0  0  0  0  0  0
    4.3870   19.3120    2.2780 C   0  0  0  0  0  0  0  0  0  0  0  0
    5.8580   19.1580    2.0540 C   0  0  0  0  0  0  0  0  0  0  0  0
    3.9440   19.5090    3.6950 C   0  0  0  0  0  0  0  0  0  0  0  0
    2.7910   15.6780   -2.3340 C   0  0  1  0  0  0  0  0  0  0  0  0
    4.2030   15.0530   -2.4930 C   0  0  0  0  0  0  0  0  0  0  0  0
    4.1810   13.7000   -1.7380 C   0  0  0  0  0  0  0  0  0  0  0  0
    2.6840   13.4340   -1.4560 C   0  0  1  0  0  0  0  0  0  0  0  0
    2.1230   12.8440   -2.7870 C   0  0  0  0  0  0  0  0  0  0  0  0
    2.3630   12.5110   -0.2350 C   0  0  2  0  0  0  0  0  0  0  0  0
    2.8940   11.0720   -0.3490 C   0  0  0  0  0  0  0  0  0  0  0  0
    1.9570   10.0940   -0.9760 C   0  0  0  0  0  0  0  0  0  0  0  0
    0.6390   10.2880   -1.1710 C   0  0  0  0  0  0  0  0  0  0  0  0
   -0.0550   11.5540   -0.6540 C   0  0  1  0  0  0  0  0  0  0  0  0
   -1.3740   11.1650    0.0650 C   0  0  0  0  0  0  0  0  0  0  0  0
   -2.2880   10.3140   -0.8120 C   0  0  0  0  0  0  0  0  0  0  0  0
   -1.5820    9.0370   -1.2580 C   0  0  2  0  0  0  0  0  0  0  0  0
   -1.3550    8.2110   -0.1120 O   0  0  0  0  0  0  0  0  0  0  0  0
   -0.2350    9.3030   -1.9860 C   0  0  0  0  0  0  0  0  0  0  0  0
   -0.5090    9.9320   -3.3740 C   0  0  0  0  0  0  0  0  0  0  0  0
    0.4410    7.9320   -2.2560 C   0  0  0  0  0  0  0  0  0  0  0  0
    0.8460   12.5340    0.2140 C   0  0  1  0  0  0  0  0  0  0  0  0
    0.8190   12.0970    1.7110 C   0  0  0  0  0  0  0  0  0  0  0  0
    0.2290   13.9810    0.1630 C   0  0  0  0  0  0  0  0  0  0  0  0
    0.6760   14.8870   -1.0000 C   0  0  0  0  0  0  0  0  0  0  0  0
    2.2020   14.8950   -1.1330 C   0  0  2  0  0  0  0  0  0  0  0  0
    2.7930   15.5050    0.1840 C   0  0  0  0  0  0  0  0  0  0  0  0
    4.8162   17.9637   -1.8475 H   0  0  0  0  0  0  0  0  0  0  0  0
    4.6775   16.9477   -3.3223 H   0  0  0  0  0  0  0  0  0  0  0  0
    4.0313   18.6237   -3.3223 H   0  0  0  0  0  0  0  0  0  0  0  0
    2.0547   17.6370   -2.8722 H   0  0  0  0  0  0  0  0  0  0  0  0
    1.7827   18.4424   -0.8079 H   0  0  0  0  0  0  0  0  0  0  0  0
    2.1563   16.7428   -0.2473 H   0  0  0  0  0  0  0  0  0  0  0  0
    4.4055   17.2734    0.2135 H   0  0  0  0  0  0  0  0  0  0  0  0
    4.2791   18.8629   -0.6491 H   0  0  0  0  0  0  0  0  0  0  0  0
    2.4851   18.1705    1.3674 H   0  0  0  0  0  0  0  0  0  0  0  0
    6.3730   19.1041    3.0245 H   0  0  0  0  0  0  0  0  0  0  0  0
    6.0478   18.2351    1.4864 H   0  0  0  0  0  0  0  0  0  0  0  0
    6.2349   20.0216    1.4864 H   0  0  0  0  0  0  0  0  0  0  0  0
    4.7321   19.1585    4.3777 H   0  0  0  0  0  0  0  0  0  0  0  0
    3.7522   20.5772    3.8741 H   0  0  0  0  0  0  0  0  0  0  0  0
    3.0223   18.9359    3.8741 H   0  0  0  0  0  0  0  0  0  0  0  0
    2.1354   15.5724   -3.2109 H   0  0  0  0  0  0  0  0  0  0  0  0
    4.4270   14.8891   -3.5574 H   0  0  0  0  0  0  0  0  0  0  0  0
    4.9779   15.7195   -2.0863 H   0  0  0  0  0  0  0  0  0  0  0  0
    4.6065   12.9003   -2.3620 H   0  0  0  0  0  0  0  0  0  0  0  0
    4.7804   13.7273   -0.8161 H   0  0  0  0  0  0  0  0  0  0  0  0
    1.3815   12.0642   -2.5586 H   0  0  0  0  0  0  0  0  0  0  0  0
    1.6451   13.6448   -3.3704 H   0  0  0  0  0  0  0  0  0  0  0  0
    2.9469   12.4070   -3.3704 H   0  0  0  0  0  0  0  0  0  0  0  0
    2.9417   12.9800    0.5744 H   0  0  0  0  0  0  0  0  0  0  0  0
    3.8137   11.0960   -0.9519 H   0  0  0  0  0  0  0  0  0  0  0  0
    3.0519   10.7236    0.6823 H   0  0  0  0  0  0  0  0  0  0  0  0
    2.3789    9.1335   -1.3068 H   0  0  0  0  0  0  0  0  0  0  0  0
   -0.2791   12.1617   -1.5431 H   0  0  0  0  0  0  0  0  0  0  0  0
   -1.1263   10.5958    0.9731 H   0  0  0  0  0  0  0  0  0  0  0  0
   -1.9110   12.0946    0.3046 H   0  0  0  0  0  0  0  0  0  0  0  0
   -3.1886   10.0464   -0.2400 H   0  0  0  0  0  0  0  0  0  0  0  0
   -2.5584   10.8959   -1.7055 H   0  0  0  0  0  0  0  0  0  0  0  0
   -2.2371    8.5354   -1.9855 H   0  0  0  0  0  0  0  0  0  0  0  0
   -1.0550    8.7880    0.6110 H   0  0  0  0  0  0  0  0  0  0  0  0
   -0.9452   10.9333   -3.2431 H   0  0  0  0  0  0  0  0  0  0  0  0
    0.4352   10.0135   -3.9325 H   0  0  0  0  0  0  0  0  0  0  0  0
   -1.2117    9.2961   -3.9325 H   0  0  0  0  0  0  0  0  0  0  0  0
    0.6805    7.4464   -1.2985 H   0  0  0  0  0  0  0  0  0  0  0  0
   -0.2448    7.2919   -2.8304 H   0  0  0  0  0  0  0  0  0  0  0  0
    1.3663    8.0862   -2.8304 H   0  0  0  0  0  0  0  0  0  0  0  0
    0.8740   12.9878    2.3540 H   0  0  0  0  0  0  0  0  0  0  0  0
   -0.1145   11.5529    1.9174 H   0  0  0  0  0  0  0  0  0  0  0  0
    1.6784   11.4421    1.9174 H   0  0  0  0  0  0  0  0  0  0  0  0
   -0.8640   13.8745    0.1005 H   0  0  0  0  0  0  0  0  0  0  0  0
    0.5927   14.4808    1.0729 H   0  0  0  0  0  0  0  0  0  0  0  0
    0.2351   14.5145   -1.9364 H   0  0  0  0  0  0  0  0  0  0  0  0
    0.3362   15.9131   -0.7961 H   0  0  0  0  0  0  0  0  0  0  0  0
    2.3248   15.0218    1.0542 H   0  0  0  0  0  0  0  0  0  0  0  0
    3.8796   15.3357    0.2111 H   0  0  0  0  0  0  0  0  0  0  0  0
    2.5895   16.5857    0.2111 H   0  0  0  0  0  0  0  0  0  0  0  0
  1  2  1  0
  2  3  1  0
  3  4  1  0
  4  5  1  0
  5  6  1  0
  6  7  1  0
  7  8  1  0
  7  9  1  0
  2 10  1  0
 10 11  1  0
 11 12  1  0
 12 13  1  0
 13 14  1  6
 13 15  1  0
 15 16  1  0
 16 17  1  0
 17 18  2  0
 18 19  1  0
 19 20  1  0
 20 21  1  0
 21 22  1  0
 22 23  1  0
 22 24  1  0
 24 25  1  0
 24 26  1  0
 19 27  1  0
 27 28  1  1
 27 29  1  0
 29 30  1  0
 30 31  1  0
 31 32  1  1
  7  5  1  0
 31 10  1  0
 31 13  1  0
 27 15  1  0
 24 18  1  0
  1 33  1  0
  1 34  1  0
  1 35  1  0
  2 36  1  6
  3 37  1  0
  3 38  1  0
  4 39  1  0
  4 40  1  0
  5 41  1  1
  8 42  1  0
  8 43  1  0
  8 44  1  0
  9 45  1  0
  9 46  1  0
  9 47  1  0
 10 48  1  6
 11 49  1  0
 11 50  1  0
 12 51  1  0
 12 52  1  0
 14 53  1  0
 14 54  1  0
 14 55  1  0
 15 56  1  1
 16 57  1  0
 16 58  1  0
 17 59  1  0
 19 60  1  6
 20 61  1  0
 20 62  1  0
 21 63  1  0
 21 64  1  0
 22 65  1  6
 23 66  1  0
 25 67  1  0
 25 68  1  0
 25 69  1  0
 26 70  1  0
 26 71  1  0
 26 72  1  0
 28 73  1  0
 28 74  1  0
 28 75  1  0
 29 76  1  0
 29 77  1  0
 30 78  1  0
 30 79  1  0
 32 80  1  0
 32 81  1  0
 32 82  1  0
M  END
>  <meeko>  (13) 
{"is_sidechain": [false], "intermolecular_energy": 2.731, "internal_energy": -0.839}

$$$$
EPH_relaxed_0001_pdb2pqr_Repair_116_r2_0001_out
     RDKit          3D

 82 86  0  0  0  0  0  0  0  0999 V2000
    0.2720   17.7920   -0.2640 C   0  0  0  0  0  0  0  0  0  0  0  0
    1.2200   17.0940   -1.2420 C   0  0  2  0  0  0  0  0  0  0  0  0
    1.5750   17.9900   -2.4460 C   0  0  0  0  0  0  0  0  0  0  0  0
    3.0730   18.2800   -2.5770 C   0  0  0  0  0  0  0  0  0  0  0  0
    3.9030   17.0870   -2.2110 C   0  0  2  0  0  0  0  0  0  0  0  0
    5.0460   17.3800   -1.3970 O   0  0  0  0  0  0  0  0  0  0  0  0
    5.3180   16.8670   -2.7110 C   0  0  0  0  0  0  0  0  0  0  0  0
    5.9850   17.8490   -3.6210 C   0  0  0  0  0  0  0  0  0  0  0  0
    5.8680   15.4750   -2.7130 C   0  0  0  0  0  0  0  0  0  0  0  0
    0.5980   15.7900   -1.7290 C   0  0  1  0  0  0  0  0  0  0  0  0
    0.2160   15.8350   -3.2320 C   0  0  0  0  0  0  0  0  0  0  0  0
    0.4600   14.4120   -3.7980 C   0  0  0  0  0  0  0  0  0  0  0  0
    0.6510   13.5230   -2.5470 C   0  0  1  0  0  0  0  0  0  0  0  0
   -0.7960   13.2140   -2.0490 C   0  0  0  0  0  0  0  0  0  0  0  0
    1.4830   12.2150   -2.7500 C   0  0  2  0  0  0  0  0  0  0  0  0
    0.8750   11.2000   -3.7340 C   0  0  0  0  0  0  0  0  0  0  0  0
   -0.0390   10.1900   -3.1250 C   0  0  0  0  0  0  0  0  0  0  0  0
   -0.1400    9.9180   -1.8100 C   0  0  0  0  0  0  0  0  0  0  0  0
    0.7900   10.5930   -0.7930 C   0  0  1  0  0  0  0  0  0  0  0  0
    1.3460    9.5270    0.1870 C   0  0  0  0  0  0  0  0  0  0  0  0
    0.2410    8.7140    0.8560 C   0  0  0  0  0  0  0  0  0  0  0  0
   -0.6260    8.0120   -0.1860 C   0  0  2  0  0  0  0  0  0  0  0  0
    0.1640    7.0210   -0.8510 O   0  0  0  0  0  0  0  0  0  0  0  0
   -1.2340    8.9850   -1.2350 C   0  0  0  0  0  0  0  0  0  0  0  0
   -2.3180    9.8640   -0.5630 C   0  0  0  0  0  0  0  0  0  0  0  0
   -1.9670    8.1350   -2.3070 C   0  0  0  0  0  0  0  0  0  0  0  0
    1.9310   11.5160   -1.4030 C   0  0  1  0  0  0  0  0  0  0  0  0
    3.1860   10.6550   -1.7430 C   0  0  0  0  0  0  0  0  0  0  0  0
    2.3880   12.5560   -0.3120 C   0  0  0  0  0  0  0  0  0  0  0  0
    1.6020   13.8790   -0.2410 C   0  0  0  0  0  0  0  0  0  0  0  0
    1.4630   14.5090   -1.6300 C   0  0  2  0  0  0  0  0  0  0  0  0
    2.9020   14.8510   -2.1470 C   0  0  0  0  0  0  0  0  0  0  0  0
    0.5785   17.5663    0.7680 H   0  0  0  0  0  0  0  0  0  0  0  0
    0.3106   18.8789   -0.4286 H   0  0  0  0  0  0  0  0  0  0  0  0
   -0.7545   17.4324   -0.4286 H   0  0  0  0  0  0  0  0  0  0  0  0
    2.1542   16.8810   -0.7017 H   0  0  0  0  0  0  0  0  0  0  0  0
    1.2369   17.4877   -3.3643 H   0  0  0  0  0  0  0  0  0  0  0  0
    1.0733   18.9559   -2.2869 H   0  0  0  0  0  0  0  0  0  0  0  0
    3.2920   18.5608   -3.6178 H   0  0  0  0  0  0  0  0  0  0  0  0
    3.3254   19.0981   -1.8863 H   0  0  0  0  0  0  0  0  0  0  0  0
    3.0133   16.4401   -2.2065 H   0  0  0  0  0  0  0  0  0  0  0  0
    6.5030   18.6117   -3.0210 H   0  0  0  0  0  0  0  0  0  0  0  0
    6.7142   17.3241   -4.2556 H   0  0  0  0  0  0  0  0  0  0  0  0
    5.2283   18.3334   -4.2556 H   0  0  0  0  0  0  0  0  0  0  0  0
    6.0032   15.1327   -1.6764 H   0  0  0  0  0  0  0  0  0  0  0  0
    5.1672   14.8046   -3.2320 H   0  0  0  0  0  0  0  0  0  0  0  0
    6.8378   15.4647   -3.2320 H   0  0  0  0  0  0  0  0  0  0  0  0
   -0.2540   15.7223   -1.0365 H   0  0  0  0  0  0  0  0  0  0  0  0
   -0.8426   16.1116   -3.3458 H   0  0  0  0  0  0  0  0  0  0  0  0
    0.8170   16.5827   -3.7702 H   0  0  0  0  0  0  0  0  0  0  0  0
   -0.4060   14.0741   -4.3862 H   0  0  0  0  0  0  0  0  0  0  0  0
    1.3275   14.3744   -4.4733 H   0  0  0  0  0  0  0  0  0  0  0  0
   -0.8123   13.2105   -0.9491 H   0  0  0  0  0  0  0  0  0  0  0  0
   -1.4852   13.9852   -2.4235 H   0  0  0  0  0  0  0  0  0  0  0  0
   -1.1100   12.2285   -2.4235 H   0  0  0  0  0  0  0  0  0  0  0  0
    2.3964   12.5904   -3.2346 H   0  0  0  0  0  0  0  0  0  0  0  0
    0.3066   11.7596   -4.4914 H   0  0  0  0  0  0  0  0  0  0  0  0
    1.7219   10.6331   -4.1481 H   0  0  0  0  0  0  0  0  0  0  0  0
   -0.6851    9.6192   -3.8081 H   0  0  0  0  0  0  0  0  0  0  0  0
    0.1680   11.3156   -0.2445 H   0  0  0  0  0  0  0  0  0  0  0  0
    1.9994    8.8409   -0.3719 H   0  0  0  0  0  0  0  0  0  0  0  0
    1.8970   10.0562    0.9784 H   0  0  0  0  0  0  0  0  0  0  0  0
    0.6970    7.9587    1.5130 H   0  0  0  0  0  0  0  0  0  0  0  0
   -0.3941    9.3972    1.4389 H   0  0  0  0  0  0  0  0  0  0  0  0
   -1.4736    7.5545    0.3453 H   0  0  0  0  0  0  0  0  0  0  0  0
   -0.2550    6.8380   -1.7090 H   0  0  0  0  0  0  0  0  0  0  0  0
   -2.2251    9.7887    0.5305 H   0  0  0  0  0  0  0  0  0  0  0  0
   -2.1837   10.9114   -0.8711 H   0  0  0  0  0  0  0  0  0  0  0  0
   -3.3150    9.5162   -0.8711 H   0  0  0  0  0  0  0  0  0  0  0  0
   -2.6080    7.3917   -1.8103 H   0  0  0  0  0  0  0  0  0  0  0  0
   -2.5864    8.7920   -2.9352 H   0  0  0  0  0  0  0  0  0  0  0  0
   -1.2261    7.6189   -2.9352 H   0  0  0  0  0  0  0  0  0  0  0  0
    3.6675   10.3246   -0.8108 H   0  0  0  0  0  0  0  0  0  0  0  0
    2.8798    9.7759   -2.3290 H   0  0  0  0  0  0  0  0  0  0  0  0
    3.8960   11.2571   -2.3290 H   0  0  0  0  0  0  0  0  0  0  0  0
    2.3051   12.0666    0.6696 H   0  0  0  0  0  0  0  0  0  0  0  0
    3.4102   12.8436   -0.5989 H   0  0  0  0  0  0  0  0  0  0  0  0
    0.5996   13.6806    0.1662 H   0  0  0  0  0  0  0  0  0  0  0  0
    2.1497   14.5781    0.4081 H   0  0  0  0  0  0  0  0  0  0  0  0
    3.5717   15.0102   -1.2890 H   0  0  0  0  0  0  0  0  0  0  0  0
    3.2800   14.0177   -2.7575 H   0  0  0  0  0  0  0  0  0  0  0  0
    2.8646   15.7653   -2.7575 H   0  0  0  0  0  0  0  0  0  0  0  0
  1  2  1  0
  2  3  1  0
  3  4  1  0
  4  5  1  0
  5  6  1  0
  6  7  1  0
  7  8  1  0
  7  9  1  0
  2 10  1  0
 10 11  1  0
 11 12  1  0
 12 13  1  0
 13 14  1  1
 13 15  1  0
 15 16  1  0
 16 17  1  0
 17 18  2  0
 18 19  1  0
 19 20  1  0
 20 21  1  0
 21 22  1  0
 22 23  1  0
 22 24  1  0
 24 25  1  0
 24 26  1  0
 19 27  1  0
 27 28  1  6
 27 29  1  0
 29 30  1  0
 30 31  1  0
 31 32  1  6
  7  5  1  0
 31 10  1  0
 31 13  1  0
 27 15  1  0
 24 18  1  0
  1 33  1  0
  1 34  1  0
  1 35  1  0
  2 36  1  1
  3 37  1  0
  3 38  1  0
  4 39  1  0
  4 40  1  0
  5 41  1  1
  8 42  1  0
  8 43  1  0
  8 44  1  0
  9 45  1  0
  9 46  1  0
  9 47  1  0
 10 48  1  1
 11 49  1  0
 11 50  1  0
 12 51  1  0
 12 52  1  0
 14 53  1  0
 14 54  1  0
 14 55  1  0
 15 56  1  6
 16 57  1  0
 16 58  1  0
 17 59  1  0
 19 60  1  1
 20 61  1  0
 20 62  1  0
 21 63  1  0
 21 64  1  0
 22 65  1  1
 23 66  1  0
 25 67  1  0
 25 68  1  0
 25 69  1  0
 26 70  1  0
 26 71  1  0
 26 72  1  0
 28 73  1  0
 28 74  1  0
 28 75  1  0
 29 76  1  0
 29 77  1  0
 30 78  1  0
 30 79  1  0
 32 80  1  0
 32 81  1  0
 32 82  1  0
M  END
>  <meeko>  (14) 
{"is_sidechain": [false], "intermolecular_energy": 2.731, "internal_energy": -0.839}

$$$$
EPH_relaxed_0001_pdb2pqr_Repair_116_r2_0001_out
     RDKit          3D

 82 86  0  0  0  0  0  0  0  0999 V2000
   -0.0680   17.9270   -2.2480 C   0  0  0  0  0  0  0  0  0  0  0  0
    0.0500   17.1070   -0.9600 C   0  0  2  0  0  0  0  0  0  0  0  0
    0.2430   18.0000    0.2820 C   0  0  0  0  0  0  0  0  0  0  0  0
    1.1160   19.2310    0.0250 C   0  0  0  0  0  0  0  0  0  0  0  0
    2.1580   19.4030    1.0870 C   0  0  2  0  0  0  0  0  0  0  0  0
    3.2880   20.1940    0.6960 O   0  0  0  0  0  0  0  0  0  0  0  0
    3.5540   18.8140    0.9940 C   0  0  0  0  0  0  0  0  0  0  0  0
    3.9820   18.0070   -0.1920 C   0  0  0  0  0  0  0  0  0  0  0  0
    4.3300   18.6090    2.2570 C   0  0  0  0  0  0  0  0  0  0  0  0
    1.2060   16.1200   -1.0770 C   0  0  1  0  0  0  0  0  0  0  0  0
    1.8370   15.7750    0.2980 C   0  0  0  0  0  0  0  0  0  0  0  0
    2.2730   14.2880    0.2300 C   0  0  0  0  0  0  0  0  0  0  0  0
    2.1850   13.9240   -1.2710 C   0  0  1  0  0  0  0  0  0  0  0  0
    3.5070   14.4710   -1.8940 C   0  0  0  0  0  0  0  0  0  0  0  0
    1.9720   12.4120   -1.6030 C   0  0  2  0  0  0  0  0  0  0  0  0
    3.1050   11.4770   -1.1470 C   0  0  0  0  0  0  0  0  0  0  0  0
    4.1910   11.2550   -2.1470 C   0  0  0  0  0  0  0  0  0  0  0  0
    4.1190   11.5510   -3.4580 C   0  0  0  0  0  0  0  0  0  0  0  0
    2.8170   12.0780   -4.0760 C   0  0  1  0  0  0  0  0  0  0  0  0
    2.5220   11.3140   -5.3930 C   0  0  0  0  0  0  0  0  0  0  0  0
    3.6920   11.3590   -6.3710 C   0  0  0  0  0  0  0  0  0  0  0  0
    4.9530   10.7720   -5.7400 C   0  0  2  0  0  0  0  0  0  0  0  0
    4.7510    9.3720   -5.5230 O   0  0  0  0  0  0  0  0  0  0  0  0
    5.3440   11.4580   -4.4010 C   0  0  0  0  0  0  0  0  0  0  0  0
    5.8520   12.8940   -4.6800 C   0  0  0  0  0  0  0  0  0  0  0  0
    6.5460   10.6810   -3.8000 C   0  0  0  0  0  0  0  0  0  0  0  0
    1.5600   12.1300   -3.1050 C   0  0  1  0  0  0  0  0  0  0  0  0
    0.8230   10.7560   -3.1150 C   0  0  0  0  0  0  0  0  0  0  0  0
    0.5310   13.1890   -3.6520 C   0  0  0  0  0  0  0  0  0  0  0  0
    0.7240   14.6470   -3.1920 C   0  0  0  0  0  0  0  0  0  0  0  0
    0.8920   14.7240   -1.6720 C   0  0  2  0  0  0  0  0  0  0  0  0
   -0.4320   14.2010   -1.0170 C   0  0  0  0  0  0  0  0  0  0  0  0
   -0.2205   18.9867   -1.9954 H   0  0  0  0  0  0  0  0  0  0  0  0
    0.8549   17.8196   -2.8369 H   0  0  0  0  0  0  0  0  0  0  0  0
   -0.9231   17.5637   -2.8369 H   0  0  0  0  0  0  0  0  0  0  0  0
   -0.8950   16.5595   -0.8285 H   0  0  0  0  0  0  0  0  0  0  0  0
   -0.7462   18.3406    0.6220 H   0  0  0  0  0  0  0  0  0  0  0  0
    0.7601   17.3914    1.0384 H   0  0  0  0  0  0  0  0  0  0  0  0
    1.6149   19.1172   -0.9487 H   0  0  0  0  0  0  0  0  0  0  0  0
    0.4673   20.1193    0.0342 H   0  0  0  0  0  0  0  0  0  0  0  0
    1.3924   19.3660    1.8760 H   0  0  0  0  0  0  0  0  0  0  0  0
    4.4718   17.0835    0.1503 H   0  0  0  0  0  0  0  0  0  0  0  0
    3.1009   17.7515   -0.7989 H   0  0  0  0  0  0  0  0  0  0  0  0
    4.6878   18.5931   -0.7989 H   0  0  0  0  0  0  0  0  0  0  0  0
    3.6739   18.7823    3.1227 H   0  0  0  0  0  0  0  0  0  0  0  0
    4.7139   17.5786    2.2883 H   0  0  0  0  0  0  0  0  0  0  0  0
    5.1727   19.3153    2.2883 H   0  0  0  0  0  0  0  0  0  0  0  0
    1.8601   16.6815   -1.7602 H   0  0  0  0  0  0  0  0  0  0  0  0
    2.7099   16.4174    0.4861 H   0  0  0  0  0  0  0  0  0  0  0  0
    1.1184   15.9389    1.1145 H   0  0  0  0  0  0  0  0  0  0  0  0
    3.3022   14.1678    0.5991 H   0  0  0  0  0  0  0  0  0  0  0  0
    1.6414   13.6390    0.8544 H   0  0  0  0  0  0  0  0  0  0  0  0
    4.2002   14.7578   -1.0895 H   0  0  0  0  0  0  0  0  0  0  0  0
    3.9697   13.6905   -2.5158 H   0  0  0  0  0  0  0  0  0  0  0  0
    3.2830   15.3503   -2.5158 H   0  0  0  0  0  0  0  0  0  0  0  0
    1.1034   12.1546   -0.9791 H   0  0  0  0  0  0  0  0  0  0  0  0
    3.5588   11.9090   -0.2429 H   0  0  0  0  0  0  0  0  0  0  0  0
    2.6396   10.4943   -0.9805 H   0  0  0  0  0  0  0  0  0  0  0  0
    5.1292   10.8121   -1.7815 H   0  0  0  0  0  0  0  0  0  0  0  0
    2.9927   13.1418   -4.2939 H   0  0  0  0  0  0  0  0  0  0  0  0
    2.3059   10.2632   -5.1500 H   0  0  0  0  0  0  0  0  0  0  0  0
    1.6637   11.8028   -5.8771 H   0  0  0  0  0  0  0  0  0  0  0  0
    3.4340   10.7772   -7.2682 H   0  0  0  0  0  0  0  0  0  0  0  0
    3.8878   12.4084   -6.6366 H   0  0  0  0  0  0  0  0  0  0  0  0
    5.7847   10.9496   -6.4376 H   0  0  0  0  0  0  0  0  0  0  0  0
    3.8610    9.1500   -5.8450 H   0  0  0  0  0  0  0  0  0  0  0  0
    6.0346   13.4102   -3.7259 H   0  0  0  0  0  0  0  0  0  0  0  0
    6.7879   12.8464   -5.2561 H   0  0  0  0  0  0  0  0  0  0  0  0
    5.0944   13.4455   -5.2561 H   0  0  0  0  0  0  0  0  0  0  0  0
    6.4927   10.7154   -2.7018 H   0  0  0  0  0  0  0  0  0  0  0  0
    6.5109    9.6342   -4.1361 H   0  0  0  0  0  0  0  0  0  0  0  0
    7.4861   11.1428   -4.1361 H   0  0  0  0  0  0  0  0  0  0  0  0
    0.6465   10.4270   -2.0803 H   0  0  0  0  0  0  0  0  0  0  0  0
   -0.1402   10.8604   -3.6359 H   0  0  0  0  0  0  0  0  0  0  0  0
    1.4427   10.0113   -3.6359 H   0  0  0  0  0  0  0  0  0  0  0  0
    0.5918   13.1757   -4.7502 H   0  0  0  0  0  0  0  0  0  0  0  0
   -0.4424   12.8838   -3.2406 H   0  0  0  0  0  0  0  0  0  0  0  0
    1.6216   15.0609   -3.6747 H   0  0  0  0  0  0  0  0  0  0  0  0
   -0.1673   15.2256   -3.4763 H   0  0  0  0  0  0  0  0  0  0  0  0
   -0.3386   14.2379    0.0784 H   0  0  0  0  0  0  0  0  0  0  0  0
   -1.2734   14.8343   -1.3348 H   0  0  0  0  0  0  0  0  0  0  0  0
   -0.6134   13.1637   -1.3348 H   0  0  0  0  0  0  0  0  0  0  0  0
  1  2  1  0
  2  3  1  0
  3  4  1  0
  4  5  1  0
  5  6  1  0
  6  7  1  0
  7  8  1  0
  7  9  1  0
  2 10  1  0
 10 11  1  0
 11 12  1  0
 12 13  1  0
 13 14  1  6
 13 15  1  0
 15 16  1  0
 16 17  1  0
 17 18  2  0
 18 19  1  0
 19 20  1  0
 20 21  1  0
 21 22  1  0
 22 23  1  0
 22 24  1  0
 24 25  1  0
 24 26  1  0
 19 27  1  0
 27 28  1  1
 27 29  1  0
 29 30  1  0
 30 31  1  0
 31 32  1  1
  7  5  1  0
 31 10  1  0
 31 13  1  0
 27 15  1  0
 24 18  1  0
  1 33  1  0
  1 34  1  0
  1 35  1  0
  2 36  1  1
  3 37  1  0
  3 38  1  0
  4 39  1  0
  4 40  1  0
  5 41  1  1
  8 42  1  0
  8 43  1  0
  8 44  1  0
  9 45  1  0
  9 46  1  0
  9 47  1  0
 10 48  1  6
 11 49  1  0
 11 50  1  0
 12 51  1  0
 12 52  1  0
 14 53  1  0
 14 54  1  0
 14 55  1  0
 15 56  1  1
 16 57  1  0
 16 58  1  0
 17 59  1  0
 19 60  1  6
 20 61  1  0
 20 62  1  0
 21 63  1  0
 21 64  1  0
 22 65  1  6
 23 66  1  0
 25 67  1  0
 25 68  1  0
 25 69  1  0
 26 70  1  0
 26 71  1  0
 26 72  1  0
 28 73  1  0
 28 74  1  0
 28 75  1  0
 29 76  1  0
 29 77  1  0
 30 78  1  0
 30 79  1  0
 32 80  1  0
 32 81  1  0
 32 82  1  0
M  END
>  <meeko>  (15) 
{"is_sidechain": [false], "intermolecular_energy": 2.731, "internal_energy": -0.839}

$$$$
EPH_relaxed_0001_pdb2pqr_Repair_116_r2_0001_out
     RDKit          3D

 82 86  0  0  0  0  0  0  0  0999 V2000
   -2.7590    8.3760   -1.0050 C   0  0  0  0  0  0  0  0  0  0  0  0
   -3.0640    9.8430   -0.6900 C   0  0  2  0  0  0  0  0  0  0  0  0
   -4.4670   10.2610   -1.1760 C   0  0  0  0  0  0  0  0  0  0  0  0
   -5.5340    9.1810   -0.9780 C   0  0  0  0  0  0  0  0  0  0  0  0
   -5.8320    8.4550   -2.2540 C   0  0  2  0  0  0  0  0  0  0  0  0
   -7.1330    7.8550   -2.3130 O   0  0  0  0  0  0  0  0  0  0  0  0
   -6.0160    6.9510   -2.3380 C   0  0  0  0  0  0  0  0  0  0  0  0
   -5.9090    6.0830   -1.1230 C   0  0  0  0  0  0  0  0  0  0  0  0
   -5.8150    6.2770   -3.6600 C   0  0  0  0  0  0  0  0  0  0  0  0
   -2.0060   10.7410   -1.3200 C   0  0  1  0  0  0  0  0  0  0  0  0
   -2.2480   12.2460   -1.0270 C   0  0  0  0  0  0  0  0  0  0  0  0
   -0.8520   12.9040   -0.8820 C   0  0  0  0  0  0  0  0  0  0  0  0
    0.1370   11.8430   -1.4200 C   0  0  1  0  0  0  0  0  0  0  0  0
    0.0850   11.9970   -2.9730 C   0  0  0  0  0  0  0  0  0  0  0  0
    1.6020   11.9260   -0.8800 C   0  0  2  0  0  0  0  0  0  0  0  0
    2.3530   13.2230   -1.2290 C   0  0  0  0  0  0  0  0  0  0  0  0
    3.1240   13.1890   -2.5070 C   0  0  0  0  0  0  0  0  0  0  0  0
    3.4460   12.0780   -3.1970 C   0  0  0  0  0  0  0  0  0  0  0  0
    3.1080   10.6860   -2.6490 C   0  0  1  0  0  0  0  0  0  0  0  0
    4.3450    9.7600   -2.7900 C   0  0  0  0  0  0  0  0  0  0  0  0
    4.8800    9.7120   -4.2180 C   0  0  0  0  0  0  0  0  0  0  0  0
    5.2590   11.1080   -4.7060 C   0  0  2  0  0  0  0  0  0  0  0  0
    6.3770   11.5740   -3.9450 O   0  0  0  0  0  0  0  0  0  0  0  0
    4.0930   12.1310   -4.6020 C   0  0  0  0  0  0  0  0  0  0  0  0
    3.0060   11.7890   -5.6510 C   0  0  0  0  0  0  0  0  0  0  0  0
    4.6480   13.5280   -4.9910 C   0  0  0  0  0  0  0  0  0  0  0  0
    2.4810   10.6480   -1.1900 C   0  0  1  0  0  0  0  0  0  0  0  0
    3.6170   10.6200   -0.1230 C   0  0  0  0  0  0  0  0  0  0  0  0
    1.6720    9.3080   -1.0120 C   0  0  0  0  0  0  0  0  0  0  0  0
    0.1960    9.3240   -1.4540 C   0  0  0  0  0  0  0  0  0  0  0  0
   -0.5380   10.5340   -0.8690 C   0  0  2  0  0  0  0  0  0  0  0  0
   -0.5220   10.3950    0.6910 C   0  0  0  0  0  0  0  0  0  0  0  0
   -2.6425    7.8158   -0.0655 H   0  0  0  0  0  0  0  0  0  0  0  0
   -3.5870    7.9463   -1.5879 H   0  0  0  0  0  0  0  0  0  0  0  0
   -1.8283    8.3120   -1.5879 H   0  0  0  0  0  0  0  0  0  0  0  0
   -3.0451    9.9576    0.4038 H   0  0  0  0  0  0  0  0  0  0  0  0
   -4.7741   11.1588   -0.6195 H   0  0  0  0  0  0  0  0  0  0  0  0
   -4.3912   10.4435   -2.2581 H   0  0  0  0  0  0  0  0  0  0  0  0
   -5.1743    8.4572   -0.2319 H   0  0  0  0  0  0  0  0  0  0  0  0
   -6.4585    9.6710   -0.6387 H   0  0  0  0  0  0  0  0  0  0  0  0
   -5.2044    9.1547   -2.8254 H   0  0  0  0  0  0  0  0  0  0  0  0
   -5.9858    6.7058   -0.2195 H   0  0  0  0  0  0  0  0  0  0  0  0
   -6.7227    5.3428   -1.1283 H   0  0  0  0  0  0  0  0  0  0  0  0
   -4.9399    5.5626   -1.1283 H   0  0  0  0  0  0  0  0  0  0  0  0
   -5.5041    5.2346   -3.4966 H   0  0  0  0  0  0  0  0  0  0  0  0
   -6.7573    6.2940   -4.2273 H   0  0  0  0  0  0  0  0  0  0  0  0
   -5.0359    6.8073   -4.2273 H   0  0  0  0  0  0  0  0  0  0  0  0
   -2.1208   10.4497   -2.3745 H   0  0  0  0  0  0  0  0  0  0  0  0
   -2.8007   12.7094   -1.8575 H   0  0  0  0  0  0  0  0  0  0  0  0
   -2.8441   12.3792   -0.1122 H   0  0  0  0  0  0  0  0  0  0  0  0
   -0.7938   13.8267   -1.4780 H   0  0  0  0  0  0  0  0  0  0  0  0
   -0.6318   13.1909    0.1569 H   0  0  0  0  0  0  0  0  0  0  0  0
   -0.2572   13.0104   -3.2297 H   0  0  0  0  0  0  0  0  0  0  0  0
    1.0887   11.8319   -3.3917 H   0  0  0  0  0  0  0  0  0  0  0  0
   -0.6132   11.2572   -3.3917 H   0  0  0  0  0  0  0  0  0  0  0  0
    1.4506   11.9518    0.2092 H   0  0  0  0  0  0  0  0  0  0  0  0
    1.6144   14.0351   -1.2991 H   0  0  0  0  0  0  0  0  0  0  0  0
    3.0946   13.3698   -0.4299 H   0  0  0  0  0  0  0  0  0  0  0  0
    3.4572   14.1526   -2.9199 H   0  0  0  0  0  0  0  0  0  0  0  0
    2.2840   10.3065   -3.2711 H   0  0  0  0  0  0  0  0  0  0  0  0
    5.1408   10.1313   -2.1276 H   0  0  0  0  0  0  0  0  0  0  0  0
    4.0327    8.7415   -2.5160 H   0  0  0  0  0  0  0  0  0  0  0  0
    5.7701    9.0664   -4.2474 H   0  0  0  0  0  0  0  0  0  0  0  0
    4.0930    9.3123   -4.8744 H   0  0  0  0  0  0  0  0  0  0  0  0
    5.5109   11.0274   -5.7737 H   0  0  0  0  0  0  0  0  0  0  0  0
    6.6670   10.8450   -3.3710 H   0  0  0  0  0  0  0  0  0  0  0  0
    2.0787   11.4972   -5.1363 H   0  0  0  0  0  0  0  0  0  0  0  0
    2.8141   12.6702   -6.2808 H   0  0  0  0  0  0  0  0  0  0  0  0
    3.3532   10.9567   -6.2808 H   0  0  0  0  0  0  0  0  0  0  0  0
    4.8750   14.0994   -4.0788 H   0  0  0  0  0  0  0  0  0  0  0  0
    5.5658   13.4056   -5.5849 H   0  0  0  0  0  0  0  0  0  0  0  0
    3.8964   14.0688   -5.5849 H   0  0  0  0  0  0  0  0  0  0  0  0
    3.1745   10.6309    0.8840 H   0  0  0  0  0  0  0  0  0  0  0  0
    4.2169    9.7068   -0.2500 H   0  0  0  0  0  0  0  0  0  0  0  0
    4.2612   11.5025   -0.2500 H   0  0  0  0  0  0  0  0  0  0  0  0
    2.1856    8.5292   -1.5949 H   0  0  0  0  0  0  0  0  0  0  0  0
    1.6457    9.1294    0.0731 H   0  0  0  0  0  0  0  0  0  0  0  0
    0.1496    9.3713   -2.5520 H   0  0  0  0  0  0  0  0  0  0  0  0
   -0.2900    8.4079   -1.0873 H   0  0  0  0  0  0  0  0  0  0  0  0
   -0.6364   11.3886    1.1488 H   0  0  0  0  0  0  0  0  0  0  0  0
   -1.3514    9.7467    1.0099 H   0  0  0  0  0  0  0  0  0  0  0  0
    0.4331    9.9521    1.0099 H   0  0  0  0  0  0  0  0  0  0  0  0
  1  2  1  0
  2  3  1  0
  3  4  1  0
  4  5  1  0
  5  6  1  0
  6  7  1  0
  7  8  1  0
  7  9  1  0
  2 10  1  0
 10 11  1  0
 11 12  1  0
 12 13  1  0
 13 14  1  6
 13 15  1  0
 15 16  1  0
 16 17  1  0
 17 18  2  0
 18 19  1  0
 19 20  1  0
 20 21  1  0
 21 22  1  0
 22 23  1  0
 22 24  1  0
 24 25  1  0
 24 26  1  0
 19 27  1  0
 27 28  1  1
 27 29  1  0
 29 30  1  0
 30 31  1  0
 31 32  1  1
  7  5  1  0
 31 10  1  0
 31 13  1  0
 27 15  1  0
 24 18  1  0
  1 33  1  0
  1 34  1  0
  1 35  1  0
  2 36  1  1
  3 37  1  0
  3 38  1  0
  4 39  1  0
  4 40  1  0
  5 41  1  6
  8 42  1  0
  8 43  1  0
  8 44  1  0
  9 45  1  0
  9 46  1  0
  9 47  1  0
 10 48  1  6
 11 49  1  0
 11 50  1  0
 12 51  1  0
 12 52  1  0
 14 53  1  0
 14 54  1  0
 14 55  1  0
 15 56  1  1
 16 57  1  0
 16 58  1  0
 17 59  1  0
 19 60  1  6
 20 61  1  0
 20 62  1  0
 21 63  1  0
 21 64  1  0
 22 65  1  6
 23 66  1  0
 25 67  1  0
 25 68  1  0
 25 69  1  0
 26 70  1  0
 26 71  1  0
 26 72  1  0
 28 73  1  0
 28 74  1  0
 28 75  1  0
 29 76  1  0
 29 77  1  0
 30 78  1  0
 30 79  1  0
 32 80  1  0
 32 81  1  0
 32 82  1  0
M  END
>  <meeko>  (16) 
{"is_sidechain": [false], "intermolecular_energy": 2.731, "internal_energy": -0.839}

$$$$
EPH_relaxed_0001_pdb2pqr_Repair_116_r2_0001_out
     RDKit          3D

 82 86  0  0  0  0  0  0  0  0999 V2000
   -0.5560   10.5520   -2.0060 C   0  0  0  0  0  0  0  0  0  0  0  0
    0.5480   10.2650   -0.9850 C   0  0  2  0  0  0  0  0  0  0  0  0
   -0.0200    9.9860    0.4210 C   0  0  0  0  0  0  0  0  0  0  0  0
    0.7740   10.6510    1.5490 C   0  0  0  0  0  0  0  0  0  0  0  0
   -0.0050   11.7530    2.2010 C   0  0  2  0  0  0  0  0  0  0  0  0
    0.6410   13.0320    2.1880 O   0  0  0  0  0  0  0  0  0  0  0  0
    0.4300   12.4420    3.4810 C   0  0  0  0  0  0  0  0  0  0  0  0
    1.6910   12.0530    4.1860 C   0  0  0  0  0  0  0  0  0  0  0  0
   -0.6050   13.1450    4.3020 C   0  0  0  0  0  0  0  0  0  0  0  0
    1.5220   11.4360   -0.9300 C   0  0  1  0  0  0  0  0  0  0  0  0
    2.8610   11.1340   -1.6540 C   0  0  0  0  0  0  0  0  0  0  0  0
    3.3300   12.4630   -2.3000 C   0  0  0  0  0  0  0  0  0  0  0  0
    2.4340   13.5470   -1.6570 C   0  0  1  0  0  0  0  0  0  0  0  0
    3.0920   13.8420   -0.2720 C   0  0  0  0  0  0  0  0  0  0  0  0
    2.2270   14.8550   -2.4870 C   0  0  2  0  0  0  0  0  0  0  0  0
    3.5070   15.6640   -2.7600 C   0  0  0  0  0  0  0  0  0  0  0  0
    3.8370   16.7000   -1.7360 C   0  0  0  0  0  0  0  0  0  0  0  0
    2.9930   17.1680   -0.7970 C   0  0  0  0  0  0  0  0  0  0  0  0
    1.5270   16.7180   -0.7610 C   0  0  1  0  0  0  0  0  0  0  0  0
    0.6100   17.9560   -0.5790 C   0  0  0  0  0  0  0  0  0  0  0  0
    0.9940   18.7950    0.6360 C   0  0  0  0  0  0  0  0  0  0  0  0
    2.4400   19.2710    0.5360 C   0  0  2  0  0  0  0  0  0  0  0  0
    2.5470   20.1930   -0.5540 O   0  0  0  0  0  0  0  0  0  0  0  0
    3.4560   18.1110    0.3410 C   0  0  0  0  0  0  0  0  0  0  0  0
    3.5580   17.2840    1.6460 C   0  0  0  0  0  0  0  0  0  0  0  0
    4.8580   18.7370    0.1120 C   0  0  0  0  0  0  0  0  0  0  0  0
    1.0590   15.7820   -1.9570 C   0  0  1  0  0  0  0  0  0  0  0  0
    0.5990   16.6540   -3.1660 C   0  0  0  0  0  0  0  0  0  0  0  0
   -0.2000   14.9550   -1.5010 C   0  0  0  0  0  0  0  0  0  0  0  0
    0.0680   13.6140   -0.7910 C   0  0  0  0  0  0  0  0  0  0  0  0
    1.0710   12.7680   -1.5810 C   0  0  2  0  0  0  0  0  0  0  0  0
    0.4270   12.4370   -2.9710 C   0  0  0  0  0  0  0  0  0  0  0  0
   -1.4898   10.7948   -1.4778 H   0  0  0  0  0  0  0  0  0  0  0  0
   -0.2597   11.4030   -2.6369 H   0  0  0  0  0  0  0  0  0  0  0  0
   -0.7117    9.6645   -2.6369 H   0  0  0  0  0  0  0  0  0  0  0  0
    1.0756    9.3576   -1.3141 H   0  0  0  0  0  0  0  0  0  0  0  0
   -1.0543   10.3587    0.4579 H   0  0  0  0  0  0  0  0  0  0  0  0
    0.0408    8.8996    0.5824 H   0  0  0  0  0  0  0  0  0  0  0  0
    1.0205    9.8924    2.3065 H   0  0  0  0  0  0  0  0  0  0  0  0
    1.6863   11.0865    1.1153 H   0  0  0  0  0  0  0  0  0  0  0  0
   -0.9562   11.2905    1.8988 H   0  0  0  0  0  0  0  0  0  0  0  0
    1.5331   12.1017    5.2735 H   0  0  0  0  0  0  0  0  0  0  0  0
    1.9688   11.0274    3.9014 H   0  0  0  0  0  0  0  0  0  0  0  0
    2.4983   12.7439    3.9014 H   0  0  0  0  0  0  0  0  0  0  0  0
   -0.3879   12.9976    5.3702 H   0  0  0  0  0  0  0  0  0  0  0  0
   -0.5893   14.2201    4.0696 H   0  0  0  0  0  0  0  0  0  0  0  0
   -1.5986   12.7341    4.0696 H   0  0  0  0  0  0  0  0  0  0  0  0
    1.6015   11.5581    0.1603 H   0  0  0  0  0  0  0  0  0  0  0  0
    3.6106   10.7788   -0.9315 H   0  0  0  0  0  0  0  0  0  0  0  0
    2.7307   10.3498   -2.4143 H   0  0  0  0  0  0  0  0  0  0  0  0
    4.3900   12.6515   -2.0745 H   0  0  0  0  0  0  0  0  0  0  0  0
    3.2436   12.4470   -3.3965 H   0  0  0  0  0  0  0  0  0  0  0  0
    2.4071   13.5350    0.5322 H   0  0  0  0  0  0  0  0  0  0  0  0
    4.0336   13.2799   -0.1862 H   0  0  0  0  0  0  0  0  0  0  0  0
    3.2988   14.9190   -0.1862 H   0  0  0  0  0  0  0  0  0  0  0  0
    1.9058   14.4652   -3.4642 H   0  0  0  0  0  0  0  0  0  0  0  0
    4.3497   14.9590   -2.8142 H   0  0  0  0  0  0  0  0  0  0  0  0
    3.3281   16.2095   -3.6983 H   0  0  0  0  0  0  0  0  0  0  0  0
    4.8553   17.1157   -1.7501 H   0  0  0  0  0  0  0  0  0  0  0  0
    1.4342   16.0533    0.1105 H   0  0  0  0  0  0  0  0  0  0  0  0
    0.6833   18.5844   -1.4789 H   0  0  0  0  0  0  0  0  0  0  0  0
   -0.4159   17.5914   -0.4222 H   0  0  0  0  0  0  0  0  0  0  0  0
    0.3302   19.6703    0.6932 H   0  0  0  0  0  0  0  0  0  0  0  0
    0.8908   18.1738    1.5379 H   0  0  0  0  0  0  0  0  0  0  0  0
    2.6952   19.7529    1.4913 H   0  0  0  0  0  0  0  0  0  0  0  0
    2.7870   21.0590   -0.1840 H   0  0  0  0  0  0  0  0  0  0  0  0
    3.4752   17.9557    2.5132 H   0  0  0  0  0  0  0  0  0  0  0  0
    2.7443   16.5445    1.6760 H   0  0  0  0  0  0  0  0  0  0  0  0
    4.5270   16.7643    1.6760 H   0  0  0  0  0  0  0  0  0  0  0  0
    5.3288   18.9472    1.0837 H   0  0  0  0  0  0  0  0  0  0  0  0
    5.4855   18.0336   -0.4550 H   0  0  0  0  0  0  0  0  0  0  0  0
    4.7531   19.6738   -0.4550 H   0  0  0  0  0  0  0  0  0  0  0  0
    0.1159   17.5698   -2.7947 H   0  0  0  0  0  0  0  0  0  0  0  0
    1.4728   16.9226   -3.7779 H   0  0  0  0  0  0  0  0  0  0  0  0
   -0.1160   16.0845   -3.7779 H   0  0  0  0  0  0  0  0  0  0  0  0
   -0.7805   15.5859   -0.8119 H   0  0  0  0  0  0  0  0  0  0  0  0
   -0.7209   14.6879   -2.4323 H   0  0  0  0  0  0  0  0  0  0  0  0
    0.4750   13.8123    0.2115 H   0  0  0  0  0  0  0  0  0  0  0  0
   -0.8792   13.0594   -0.7184 H   0  0  0  0  0  0  0  0  0  0  0  0
   -0.5417   11.9391   -2.8171 H   0  0  0  0  0  0  0  0  0  0  0  0
    0.2748   13.3686   -3.5358 H   0  0  0  0  0  0  0  0  0  0  0  0
    1.0959   11.7710   -3.5358 H   0  0  0  0  0  0  0  0  0  0  0  0
  1  2  1  0
  2  3  1  0
  3  4  1  0
  4  5  1  0
  5  6  1  0
  6  7  1  0
  7  8  1  0
  7  9  1  0
  2 10  1  0
 10 11  1  0
 11 12  1  0
 12 13  1  0
 13 14  1  1
 13 15  1  0
 15 16  1  0
 16 17  1  0
 17 18  2  0
 18 19  1  0
 19 20  1  0
 20 21  1  0
 21 22  1  0
 22 23  1  0
 22 24  1  0
 24 25  1  0
 24 26  1  0
 19 27  1  0
 27 28  1  6
 27 29  1  0
 29 30  1  0
 30 31  1  0
 31 32  1  6
  7  5  1  0
 31 10  1  0
 31 13  1  0
 27 15  1  0
 24 18  1  0
  1 33  1  0
  1 34  1  0
  1 35  1  0
  2 36  1  6
  3 37  1  0
  3 38  1  0
  4 39  1  0
  4 40  1  0
  5 41  1  1
  8 42  1  0
  8 43  1  0
  8 44  1  0
  9 45  1  0
  9 46  1  0
  9 47  1  0
 10 48  1  1
 11 49  1  0
 11 50  1  0
 12 51  1  0
 12 52  1  0
 14 53  1  0
 14 54  1  0
 14 55  1  0
 15 56  1  6
 16 57  1  0
 16 58  1  0
 17 59  1  0
 19 60  1  1
 20 61  1  0
 20 62  1  0
 21 63  1  0
 21 64  1  0
 22 65  1  1
 23 66  1  0
 25 67  1  0
 25 68  1  0
 25 69  1  0
 26 70  1  0
 26 71  1  0
 26 72  1  0
 28 73  1  0
 28 74  1  0
 28 75  1  0
 29 76  1  0
 29 77  1  0
 30 78  1  0
 30 79  1  0
 32 80  1  0
 32 81  1  0
 32 82  1  0
M  END
>  <meeko>  (17) 
{"is_sidechain": [false], "intermolecular_energy": 2.731, "internal_energy": -0.839}

$$$$
EPH_relaxed_0001_pdb2pqr_Repair_116_r2_0001_out
     RDKit          3D

 82 86  0  0  0  0  0  0  0  0999 V2000
    0.0890    9.8880    1.4950 C   0  0  0  0  0  0  0  0  0  0  0  0
   -0.0030   10.5040    0.0960 C   0  0  2  0  0  0  0  0  0  0  0  0
    0.1400    9.4460   -1.0160 C   0  0  0  0  0  0  0  0  0  0  0  0
   -1.1830    8.7790   -1.4040 C   0  0  0  0  0  0  0  0  0  0  0  0
   -2.3630    9.5790   -0.9440 C   0  0  2  0  0  0  0  0  0  0  0  0
   -2.9780    9.1010    0.2600 O   0  0  0  0  0  0  0  0  0  0  0  0
   -3.7830    9.0430   -0.9290 C   0  0  0  0  0  0  0  0  0  0  0  0
   -4.0970    7.6530   -1.3850 C   0  0  0  0  0  0  0  0  0  0  0  0
   -4.9170   10.0210   -0.9380 C   0  0  0  0  0  0  0  0  0  0  0  0
    1.0640   11.5800   -0.0690 C   0  0  1  0  0  0  0  0  0  0  0  0
    2.3080   11.0740   -0.8460 C   0  0  0  0  0  0  0  0  0  0  0  0
    2.8270   12.2690   -1.6870 C   0  0  0  0  0  0  0  0  0  0  0  0
    2.0800   13.4980   -1.1190 C   0  0  1  0  0  0  0  0  0  0  0  0
    2.8740   13.8930    0.1650 C   0  0  0  0  0  0  0  0  0  0  0  0
    1.9110   14.7120   -2.0900 C   0  0  2  0  0  0  0  0  0  0  0  0
    3.2250   15.3640   -2.5550 C   0  0  0  0  0  0  0  0  0  0  0  0
    3.7230   16.4790   -1.6970 C   0  0  0  0  0  0  0  0  0  0  0  0
    3.0030   17.1290   -0.7640 C   0  0  0  0  0  0  0  0  0  0  0  0
    1.5130   16.8220   -0.5630 C   0  0  1  0  0  0  0  0  0  0  0  0
    0.7190   18.1520   -0.4710 C   0  0  0  0  0  0  0  0  0  0  0  0
    1.2710   19.0900    0.5990 C   0  0  0  0  0  0  0  0  0  0  0  0
    2.7380   19.4170    0.3320 C   0  0  2  0  0  0  0  0  0  0  0  0
    2.8270   20.1890   -0.8690 O   0  0  0  0  0  0  0  0  0  0  0  0
    3.6350   18.1540    0.2100 C   0  0  0  0  0  0  0  0  0  0  0  0
    3.7800   17.4820    1.5970 C   0  0  0  0  0  0  0  0  0  0  0  0
    5.0590   18.6190   -0.1990 C   0  0  0  0  0  0  0  0  0  0  0  0
    0.8710   15.7980   -1.5950 C   0  0  1  0  0  0  0  0  0  0  0  0
    0.3830   16.5590   -2.8650 C   0  0  0  0  0  0  0  0  0  0  0  0
   -0.4080   15.1490   -0.9460 C   0  0  0  0  0  0  0  0  0  0  0  0
   -0.1910   13.8830   -0.0970 C   0  0  0  0  0  0  0  0  0  0  0  0
    0.6690   12.8610   -0.8460 C   0  0  2  0  0  0  0  0  0  0  0  0
   -0.1150   12.4280   -2.1320 C   0  0  0  0  0  0  0  0  0  0  0  0
   -0.0289   10.6776    2.2518 H   0  0  0  0  0  0  0  0  0  0  0  0
   -0.7073    9.1393    1.6191 H   0  0  0  0  0  0  0  0  0  0  0  0
    1.0693    9.4046    1.6191 H   0  0  0  0  0  0  0  0  0  0  0  0
   -1.0026   10.9525   -0.0024 H   0  0  0  0  0  0  0  0  0  0  0  0
    0.5577    9.9345   -1.9087 H   0  0  0  0  0  0  0  0  0  0  0  0
    0.7967    8.6549   -0.6249 H   0  0  0  0  0  0  0  0  0  0  0  0
   -1.2245    8.6798   -2.4987 H   0  0  0  0  0  0  0  0  0  0  0  0
   -1.2259    7.7937   -0.9168 H   0  0  0  0  0  0  0  0  0  0  0  0
   -1.9270   10.5019   -1.3541 H   0  0  0  0  0  0  0  0  0  0  0  0
   -4.2436    7.0041   -0.5090 H   0  0  0  0  0  0  0  0  0  0  0  0
   -5.0152    7.6644   -1.9906 H   0  0  0  0  0  0  0  0  0  0  0  0
   -3.2631    7.2686   -1.9906 H   0  0  0  0  0  0  0  0  0  0  0  0
   -5.1994   10.2645    0.0969 H   0  0  0  0  0  0  0  0  0  0  0  0
   -4.6057   10.9386   -1.4587 H   0  0  0  0  0  0  0  0  0  0  0  0
   -5.7789    9.5783   -1.4587 H   0  0  0  0  0  0  0  0  0  0  0  0
    1.2451   11.8228    0.9885 H   0  0  0  0  0  0  0  0  0  0  0  0
    3.0846   10.7407   -0.1419 H   0  0  0  0  0  0  0  0  0  0  0  0
    2.0509   10.2200   -1.4899 H   0  0  0  0  0  0  0  0  0  0  0  0
    3.9142   12.3855   -1.5669 H   0  0  0  0  0  0  0  0  0  0  0  0
    2.6468   12.1316   -2.7634 H   0  0  0  0  0  0  0  0  0  0  0  0
    2.2965   13.6057    1.0561 H   0  0  0  0  0  0  0  0  0  0  0  0
    3.8426   13.3717    0.1720 H   0  0  0  0  0  0  0  0  0  0  0  0
    3.0425   14.9800    0.1720 H   0  0  0  0  0  0  0  0  0  0  0  0
    1.4789   14.2397   -2.9846 H   0  0  0  0  0  0  0  0  0  0  0  0
    4.0002   14.5840   -2.5823 H   0  0  0  0  0  0  0  0  0  0  0  0
    3.0122   15.8089   -3.5382 H   0  0  0  0  0  0  0  0  0  0  0  0
    4.7666   16.7963   -1.8392 H   0  0  0  0  0  0  0  0  0  0  0  0
    1.4399   16.2766    0.3895 H   0  0  0  0  0  0  0  0  0  0  0  0
    0.7685   18.6604   -1.4452 H   0  0  0  0  0  0  0  0  0  0  0  0
   -0.3168   17.9043   -0.1959 H   0  0  0  0  0  0  0  0  0  0  0  0
    0.6878   20.0226    0.5961 H   0  0  0  0  0  0  0  0  0  0  0  0
    1.1941   18.5920    1.5768 H   0  0  0  0  0  0  0  0  0  0  0  0
    3.1122   19.9842    1.1970 H   0  0  0  0  0  0  0  0  0  0  0  0
    3.6880   19.9990   -1.2780 H   0  0  0  0  0  0  0  0  0  0  0  0
    3.6184   18.2311    2.3861 H   0  0  0  0  0  0  0  0  0  0  0  0
    3.0344   16.6792    1.6952 H   0  0  0  0  0  0  0  0  0  0  0  0
    4.7903   17.0581    1.6952 H   0  0  0  0  0  0  0  0  0  0  0  0
    5.6549   18.8136    0.7049 H   0  0  0  0  0  0  0  0  0  0  0  0
    5.5442   17.8326   -0.7958 H   0  0  0  0  0  0  0  0  0  0  0  0
    4.9866   19.5402   -0.7958 H   0  0  0  0  0  0  0  0  0  0  0  0
   -0.1879   17.4492   -2.5623 H   0  0  0  0  0  0  0  0  0  0  0  0
    1.2523   16.8672   -3.4644 H   0  0  0  0  0  0  0  0  0  0  0  0
   -0.2598   15.8976   -3.4644 H   0  0  0  0  0  0  0  0  0  0  0  0
   -0.8738   15.9072   -0.2994 H   0  0  0  0  0  0  0  0  0  0  0  0
   -1.0268   14.8229   -1.7950 H   0  0  0  0  0  0  0  0  0  0  0  0
    0.3141   14.1604    0.8400 H   0  0  0  0  0  0  0  0  0  0  0  0
   -1.1709   13.4296    0.1132 H   0  0  0  0  0  0  0  0  0  0  0  0
   -1.0434   11.9152   -1.8402 H   0  0  0  0  0  0  0  0  0  0  0  0
   -0.3602   13.3186   -2.7292 H   0  0  0  0  0  0  0  0  0  0  0  0
    0.5083   11.7462   -2.7292 H   0  0  0  0  0  0  0  0  0  0  0  0
  1  2  1  0
  2  3  1  0
  3  4  1  0
  4  5  1  0
  5  6  1  0
  6  7  1  0
  7  8  1  0
  7  9  1  0
  2 10  1  0
 10 11  1  0
 11 12  1  0
 12 13  1  0
 13 14  1  1
 13 15  1  0
 15 16  1  0
 16 17  1  0
 17 18  2  0
 18 19  1  0
 19 20  1  0
 20 21  1  0
 21 22  1  0
 22 23  1  0
 22 24  1  0
 24 25  1  0
 24 26  1  0
 19 27  1  0
 27 28  1  6
 27 29  1  0
 29 30  1  0
 30 31  1  0
 31 32  1  6
  7  5  1  0
 31 10  1  0
 31 13  1  0
 27 15  1  0
 24 18  1  0
  1 33  1  0
  1 34  1  0
  1 35  1  0
  2 36  1  1
  3 37  1  0
  3 38  1  0
  4 39  1  0
  4 40  1  0
  5 41  1  1
  8 42  1  0
  8 43  1  0
  8 44  1  0
  9 45  1  0
  9 46  1  0
  9 47  1  0
 10 48  1  1
 11 49  1  0
 11 50  1  0
 12 51  1  0
 12 52  1  0
 14 53  1  0
 14 54  1  0
 14 55  1  0
 15 56  1  6
 16 57  1  0
 16 58  1  0
 17 59  1  0
 19 60  1  1
 20 61  1  0
 20 62  1  0
 21 63  1  0
 21 64  1  0
 22 65  1  1
 23 66  1  0
 25 67  1  0
 25 68  1  0
 25 69  1  0
 26 70  1  0
 26 71  1  0
 26 72  1  0
 28 73  1  0
 28 74  1  0
 28 75  1  0
 29 76  1  0
 29 77  1  0
 30 78  1  0
 30 79  1  0
 32 80  1  0
 32 81  1  0
 32 82  1  0
M  END
>  <meeko>  (18) 
{"is_sidechain": [false], "intermolecular_energy": 2.731, "internal_energy": -0.839}

$$$$
EPH_relaxed_0001_pdb2pqr_Repair_116_r2_0001_out
     RDKit          3D

 82 86  0  0  0  0  0  0  0  0999 V2000
    4.2660   10.5750   -3.5670 C   0  0  0  0  0  0  0  0  0  0  0  0
    3.6670   10.9730   -2.2160 C   0  0  2  0  0  0  0  0  0  0  0  0
    2.1760   10.5960   -2.1080 C   0  0  0  0  0  0  0  0  0  0  0  0
    1.8870    9.5230   -1.0540 C   0  0  0  0  0  0  0  0  0  0  0  0
    0.6210    9.8100   -0.3050 C   0  0  2  0  0  0  0  0  0  0  0  0
    0.0880    8.6930    0.4190 O   0  0  0  0  0  0  0  0  0  0  0  0
   -0.7190    9.1920   -0.6600 C   0  0  0  0  0  0  0  0  0  0  0  0
   -0.8600    8.2390   -1.8050 C   0  0  0  0  0  0  0  0  0  0  0  0
   -1.9680    9.8830   -0.2090 C   0  0  0  0  0  0  0  0  0  0  0  0
    3.8430   12.4700   -1.9890 C   0  0  1  0  0  0  0  0  0  0  0  0
    5.0450   13.0560   -2.7780 C   0  0  0  0  0  0  0  0  0  0  0  0
    4.6410   14.4900   -3.2080 C   0  0  0  0  0  0  0  0  0  0  0  0
    3.3730   14.8020   -2.3800 C   0  0  1  0  0  0  0  0  0  0  0  0
    3.9050   15.2370   -0.9780 C   0  0  0  0  0  0  0  0  0  0  0  0
    2.3990   15.8670   -2.9830 C   0  0  2  0  0  0  0  0  0  0  0  0
    2.9930   17.2770   -3.1430 C   0  0  0  0  0  0  0  0  0  0  0  0
    2.8100   18.1840   -1.9710 C   0  0  0  0  0  0  0  0  0  0  0  0
    1.9530   17.9820   -0.9530 C   0  0  0  0  0  0  0  0  0  0  0  0
    0.9840   16.7930   -0.9630 C   0  0  1  0  0  0  0  0  0  0  0  0
   -0.4350   17.2790   -0.5650 C   0  0  0  0  0  0  0  0  0  0  0  0
   -0.4450   18.0290    0.7630 C   0  0  0  0  0  0  0  0  0  0  0  0
    0.4860   19.2370    0.7140 C   0  0  2  0  0  0  0  0  0  0  0  0
   -0.0430   20.1910   -0.2130 O   0  0  0  0  0  0  0  0  0  0  0  0
    1.9430   18.8720    0.3140 C   0  0  0  0  0  0  0  0  0  0  0  0
    2.6170   18.0860    1.4660 C   0  0  0  0  0  0  0  0  0  0  0  0
    2.7430   20.1940    0.1650 C   0  0  0  0  0  0  0  0  0  0  0  0
    0.9790   15.9140   -2.2870 C   0  0  1  0  0  0  0  0  0  0  0  0
   -0.0070   16.5260   -3.3290 C   0  0  0  0  0  0  0  0  0  0  0  0
    0.4310   14.4770   -1.9480 C   0  0  0  0  0  0  0  0  0  0  0  0
    1.4610   13.4360   -1.4710 C   0  0  0  0  0  0  0  0  0  0  0  0
    2.6730   13.3950   -2.4070 C   0  0  2  0  0  0  0  0  0  0  0  0
    2.1710   12.9390   -3.8200 C   0  0  0  0  0  0  0  0  0  0  0  0
    5.1720    9.9730   -3.4033 H   0  0  0  0  0  0  0  0  0  0  0  0
    3.5312    9.9849   -4.1343 H   0  0  0  0  0  0  0  0  0  0  0  0
    4.5253   11.4810   -4.1343 H   0  0  0  0  0  0  0  0  0  0  0  0
    4.2066   10.4132   -1.4379 H   0  0  0  0  0  0  0  0  0  0  0  0
    1.6070   11.5007   -1.8476 H   0  0  0  0  0  0  0  0  0  0  0  0
    1.8786   10.1788   -3.0814 H   0  0  0  0  0  0  0  0  0  0  0  0
    1.7922    8.5480   -1.5543 H   0  0  0  0  0  0  0  0  0  0  0  0
    2.7183    9.5166   -0.3336 H   0  0  0  0  0  0  0  0  0  0  0  0
    0.9308   10.8512   -0.1321 H   0  0  0  0  0  0  0  0  0  0  0  0
   -1.0107    7.2205   -1.4179 H   0  0  0  0  0  0  0  0  0  0  0  0
   -1.7250    8.5294   -2.4194 H   0  0  0  0  0  0  0  0  0  0  0  0
    0.0520    8.2665   -2.4194 H   0  0  0  0  0  0  0  0  0  0  0  0
   -2.0005    9.9010    0.8904 H   0  0  0  0  0  0  0  0  0  0  0  0
   -1.9758   10.9138   -0.5930 H   0  0  0  0  0  0  0  0  0  0  0  0
   -2.8454    9.3420   -0.5930 H   0  0  0  0  0  0  0  0  0  0  0  0
    3.9571   12.4788   -0.8950 H   0  0  0  0  0  0  0  0  0  0  0  0
    5.9384   13.0902   -2.1371 H   0  0  0  0  0  0  0  0  0  0  0  0
    5.2844   12.4338   -3.6530 H   0  0  0  0  0  0  0  0  0  0  0  0
    5.4430   15.2059   -2.9750 H   0  0  0  0  0  0  0  0  0  0  0  0
    4.4618   14.5663   -4.2906 H   0  0  0  0  0  0  0  0  0  0  0  0
    3.3090   14.7497   -0.1923 H   0  0  0  0  0  0  0  0  0  0  0  0
    4.9589   14.9386   -0.8770 H   0  0  0  0  0  0  0  0  0  0  0  0
    3.8219   16.3292   -0.8770 H   0  0  0  0  0  0  0  0  0  0  0  0
    2.2414   15.4912   -4.0047 H   0  0  0  0  0  0  0  0  0  0  0  0
    4.0726   17.1721   -3.3260 H   0  0  0  0  0  0  0  0  0  0  0  0
    2.4476   17.7437   -3.9765 H   0  0  0  0  0  0  0  0  0  0  0  0
    3.4275   19.0937   -1.9367 H   0  0  0  0  0  0  0  0  0  0  0  0
    1.3616   16.0859   -0.2098 H   0  0  0  0  0  0  0  0  0  0  0  0
   -0.8116   17.9495   -1.3515 H   0  0  0  0  0  0  0  0  0  0  0  0
   -1.0728   16.3900   -0.4513 H   0  0  0  0  0  0  0  0  0  0  0  0
   -1.4685   18.3717    0.9752 H   0  0  0  0  0  0  0  0  0  0  0  0
   -0.0957   17.3483    1.5533 H   0  0  0  0  0  0  0  0  0  0  0  0
    0.5352   19.6561    1.7298 H   0  0  0  0  0  0  0  0  0  0  0  0
    0.3750   21.0480   -0.0240 H   0  0  0  0  0  0  0  0  0  0  0  0
    2.2745   18.4855    2.4320 H   0  0  0  0  0  0  0  0  0  0  0  0
    2.3458   17.0225    1.3921 H   0  0  0  0  0  0  0  0  0  0  0  0
    3.7094   18.1918    1.3921 H   0  0  0  0  0  0  0  0  0  0  0  0
    2.9835   20.5914    1.1621 H   0  0  0  0  0  0  0  0  0  0  0  0
    3.6746   19.9987   -0.3863 H   0  0  0  0  0  0  0  0  0  0  0  0
    2.1378   20.9287   -0.3863 H   0  0  0  0  0  0  0  0  0  0  0  0
   -0.8275   17.0353   -2.8023 H   0  0  0  0  0  0  0  0  0  0  0  0
    0.5292   17.2503   -3.9598 H   0  0  0  0  0  0  0  0  0  0  0  0
   -0.4181   15.7241   -3.9598 H   0  0  0  0  0  0  0  0  0  0  0  0
   -0.3230   14.5869   -1.1546 H   0  0  0  0  0  0  0  0  0  0  0  0
    0.0444   14.0843   -2.9000 H   0  0  0  0  0  0  0  0  0  0  0  0
    1.7976   13.7009   -0.4578 H   0  0  0  0  0  0  0  0  0  0  0  0
    0.9839   12.4449   -1.4714 H   0  0  0  0  0  0  0  0  0  0  0  0
    1.3615   12.2037   -3.7018 H   0  0  0  0  0  0  0  0  0  0  0  0
    1.7957   13.8115   -4.3749 H   0  0  0  0  0  0  0  0  0  0  0  0
    3.0035   12.4818   -4.3749 H   0  0  0  0  0  0  0  0  0  0  0  0
  1  2  1  0
  2  3  1  0
  3  4  1  0
  4  5  1  0
  5  6  1  0
  6  7  1  0
  7  8  1  0
  7  9  1  0
  2 10  1  0
 10 11  1  0
 11 12  1  0
 12 13  1  0
 13 14  1  1
 13 15  1  0
 15 16  1  0
 16 17  1  0
 17 18  2  0
 18 19  1  0
 19 20  1  0
 20 21  1  0
 21 22  1  0
 22 23  1  0
 22 24  1  0
 24 25  1  0
 24 26  1  0
 19 27  1  0
 27 28  1  6
 27 29  1  0
 29 30  1  0
 30 31  1  0
 31 32  1  6
  7  5  1  0
 31 10  1  0
 31 13  1  0
 27 15  1  0
 24 18  1  0
  1 33  1  0
  1 34  1  0
  1 35  1  0
  2 36  1  1
  3 37  1  0
  3 38  1  0
  4 39  1  0
  4 40  1  0
  5 41  1  1
  8 42  1  0
  8 43  1  0
  8 44  1  0
  9 45  1  0
  9 46  1  0
  9 47  1  0
 10 48  1  1
 11 49  1  0
 11 50  1  0
 12 51  1  0
 12 52  1  0
 14 53  1  0
 14 54  1  0
 14 55  1  0
 15 56  1  6
 16 57  1  0
 16 58  1  0
 17 59  1  0
 19 60  1  1
 20 61  1  0
 20 62  1  0
 21 63  1  0
 21 64  1  0
 22 65  1  1
 23 66  1  0
 25 67  1  0
 25 68  1  0
 25 69  1  0
 26 70  1  0
 26 71  1  0
 26 72  1  0
 28 73  1  0
 28 74  1  0
 28 75  1  0
 29 76  1  0
 29 77  1  0
 30 78  1  0
 30 79  1  0
 32 80  1  0
 32 81  1  0
 32 82  1  0
M  END
>  <meeko>  (19) 
{"is_sidechain": [false], "intermolecular_energy": 2.731, "internal_energy": -0.839}

$$$$
EPH_relaxed_0001_pdb2pqr_Repair_116_r2_0001_out
     RDKit          3D

 82 86  0  0  0  0  0  0  0  0999 V2000
    0.3290    8.4380   -2.7060 C   0  0  0  0  0  0  0  0  0  0  0  0
   -0.6860    8.8880   -1.6510 C   0  0  2  0  0  0  0  0  0  0  0  0
   -2.0670    8.2320   -1.8570 C   0  0  0  0  0  0  0  0  0  0  0  0
   -3.0650    8.5370   -0.7370 C   0  0  0  0  0  0  0  0  0  0  0  0
   -4.3100    7.7130   -0.8660 C   0  0  2  0  0  0  0  0  0  0  0  0
   -4.7360    7.4770   -2.2140 O   0  0  0  0  0  0  0  0  0  0  0  0
   -5.6230    8.2570   -1.3960 C   0  0  0  0  0  0  0  0  0  0  0  0
   -5.7580    9.6830   -1.8330 C   0  0  0  0  0  0  0  0  0  0  0  0
   -6.8910    7.5470   -1.0350 C   0  0  0  0  0  0  0  0  0  0  0  0
   -0.8220   10.4060   -1.6750 C   0  0  1  0  0  0  0  0  0  0  0  0
   -2.1690   10.8950   -1.0790 C   0  0  0  0  0  0  0  0  0  0  0  0
   -1.8780   12.2350   -0.3560 C   0  0  0  0  0  0  0  0  0  0  0  0
   -0.4640   12.6380   -0.8360 C   0  0  1  0  0  0  0  0  0  0  0  0
   -0.6880   13.2960   -2.2340 C   0  0  0  0  0  0  0  0  0  0  0  0
    0.3490   13.5730    0.1180 C   0  0  2  0  0  0  0  0  0  0  0  0
   -0.2770   14.9570    0.3660 C   0  0  0  0  0  0  0  0  0  0  0  0
    0.1460   16.0270   -0.5850 C   0  0  0  0  0  0  0  0  0  0  0  0
    1.2020   15.9620   -1.4160 C   0  0  0  0  0  0  0  0  0  0  0  0
    2.1570   14.7610   -1.3840 C   0  0  1  0  0  0  0  0  0  0  0  0
    3.6240   15.2660   -1.3910 C   0  0  0  0  0  0  0  0  0  0  0  0
    3.9130   16.2100   -2.5530 C   0  0  0  0  0  0  0  0  0  0  0  0
    2.9830   17.4200   -2.5170 C   0  0  2  0  0  0  0  0  0  0  0  0
    3.2930   18.2060   -1.3620 O   0  0  0  0  0  0  0  0  0  0  0  0
    1.4770   17.0350   -2.4980 C   0  0  0  0  0  0  0  0  0  0  0  0
    1.0710   16.4520   -3.8750 C   0  0  0  0  0  0  0  0  0  0  0  0
    0.6530   18.3390   -2.3190 C   0  0  0  0  0  0  0  0  0  0  0  0
    1.8850   13.6890   -0.2430 C   0  0  1  0  0  0  0  0  0  0  0  0
    2.6200   14.1090    1.0670 C   0  0  0  0  0  0  0  0  0  0  0  0
    2.5040   12.3080   -0.6770 C   0  0  0  0  0  0  0  0  0  0  0  0
    1.6080   11.3790   -1.5170 C   0  0  0  0  0  0  0  0  0  0  0  0
    0.2240   11.2260   -0.8790 C   0  0  2  0  0  0  0  0  0  0  0  0
    0.4150   10.5470    0.5200 C   0  0  0  0  0  0  0  0  0  0  0  0
    1.2251    8.0407   -2.2068 H   0  0  0  0  0  0  0  0  0  0  0  0
   -0.1186    7.6540   -3.3345 H   0  0  0  0  0  0  0  0  0  0  0  0
    0.6095    9.2961   -3.3345 H   0  0  0  0  0  0  0  0  0  0  0  0
   -0.3093    8.5638   -0.6697 H   0  0  0  0  0  0  0  0  0  0  0  0
   -2.4871    8.5971   -2.8058 H   0  0  0  0  0  0  0  0  0  0  0  0
   -1.9091    7.1434   -1.8600 H   0  0  0  0  0  0  0  0  0  0  0  0
   -2.5917    8.3189    0.2317 H   0  0  0  0  0  0  0  0  0  0  0  0
   -3.3466    9.5980   -0.8075 H   0  0  0  0  0  0  0  0  0  0  0  0
   -4.0587    7.1501    0.0450 H   0  0  0  0  0  0  0  0  0  0  0  0
   -5.8196   10.3334   -0.9480 H   0  0  0  0  0  0  0  0  0  0  0  0
   -4.8826    9.9662   -2.4360 H   0  0  0  0  0  0  0  0  0  0  0  0
   -6.6709    9.7969   -2.4360 H   0  0  0  0  0  0  0  0  0  0  0  0
   -6.9833    7.4953    0.0599 H   0  0  0  0  0  0  0  0  0  0  0  0
   -7.7494    8.0957   -1.4499 H   0  0  0  0  0  0  0  0  0  0  0  0
   -6.8718    6.5284   -1.4499 H   0  0  0  0  0  0  0  0  0  0  0  0
   -0.6998   10.5849   -2.7535 H   0  0  0  0  0  0  0  0  0  0  0  0
   -2.9046   11.0499   -1.8821 H   0  0  0  0  0  0  0  0  0  0  0  0
   -2.5853   10.1526   -0.3822 H   0  0  0  0  0  0  0  0  0  0  0  0
   -2.6170   12.9984   -0.6407 H   0  0  0  0  0  0  0  0  0  0  0  0
   -1.9358   12.1398    0.7383 H   0  0  0  0  0  0  0  0  0  0  0  0
   -1.0399   14.3296   -2.1006 H   0  0  0  0  0  0  0  0  0  0  0  0
    0.2593   13.3004   -2.7932 H   0  0  0  0  0  0  0  0  0  0  0  0
   -1.4412   12.7215   -2.7932 H   0  0  0  0  0  0  0  0  0  0  0  0
    0.2862   13.0413    1.0789 H   0  0  0  0  0  0  0  0  0  0  0  0
   -1.3699   14.8532    0.2968 H   0  0  0  0  0  0  0  0  0  0  0  0
    0.0729   15.2761    1.3589 H   0  0  0  0  0  0  0  0  0  0  0  0
   -0.4569   16.9468   -0.6083 H   0  0  0  0  0  0  0  0  0  0  0  0
    1.9557   14.1874   -2.3008 H   0  0  0  0  0  0  0  0  0  0  0  0
    3.8180   15.7981   -0.4480 H   0  0  0  0  0  0  0  0  0  0  0  0
    4.2781   14.3888   -1.5035 H   0  0  0  0  0  0  0  0  0  0  0  0
    4.9554   16.5550   -2.4859 H   0  0  0  0  0  0  0  0  0  0  0  0
    3.7473   15.6677   -3.4956 H   0  0  0  0  0  0  0  0  0  0  0  0
    3.1492   17.9911   -3.4424 H   0  0  0  0  0  0  0  0  0  0  0  0
    2.9900   19.1140   -1.5340 H   0  0  0  0  0  0  0  0  0  0  0  0
    0.4482   15.5577   -3.7253 H   0  0  0  0  0  0  0  0  0  0  0  0
    0.5012   17.2055   -4.4386 H   0  0  0  0  0  0  0  0  0  0  0  0
    1.9753   16.1789   -4.4386 H   0  0  0  0  0  0  0  0  0  0  0  0
    0.5223   18.5458   -1.2466 H   0  0  0  0  0  0  0  0  0  0  0  0
    1.1858   19.1772   -2.7918 H   0  0  0  0  0  0  0  0  0  0  0  0
   -0.3328   18.2177   -2.7918 H   0  0  0  0  0  0  0  0  0  0  0  0
    2.0365   13.7756    1.9378 H   0  0  0  0  0  0  0  0  0  0  0  0
    3.6165   13.6440    1.0935 H   0  0  0  0  0  0  0  0  0  0  0  0
    2.7253   15.2036    1.0935 H   0  0  0  0  0  0  0  0  0  0  0  0
    3.4089   12.5192   -1.2657 H   0  0  0  0  0  0  0  0  0  0  0  0
    2.6818   11.7642    0.2625 H   0  0  0  0  0  0  0  0  0  0  0  0
    1.4942   11.8042   -2.5251 H   0  0  0  0  0  0  0  0  0  0  0  0
    2.0817   10.3875   -1.5678 H   0  0  0  0  0  0  0  0  0  0  0  0
    0.2089   11.2795    1.3143 H   0  0  0  0  0  0  0  0  0  0  0  0
   -0.2795    9.6992    0.6140 H   0  0  0  0  0  0  0  0  0  0  0  0
    1.4497   10.1856    0.6140 H   0  0  0  0  0  0  0  0  0  0  0  0
  1  2  1  0
  2  3  1  0
  3  4  1  0
  4  5  1  0
  5  6  1  0
  6  7  1  0
  7  8  1  0
  7  9  1  0
  2 10  1  0
 10 11  1  0
 11 12  1  0
 12 13  1  0
 13 14  1  6
 13 15  1  0
 15 16  1  0
 16 17  1  0
 17 18  2  0
 18 19  1  0
 19 20  1  0
 20 21  1  0
 21 22  1  0
 22 23  1  0
 22 24  1  0
 24 25  1  0
 24 26  1  0
 19 27  1  0
 27 28  1  1
 27 29  1  0
 29 30  1  0
 30 31  1  0
 31 32  1  1
  7  5  1  0
 31 10  1  0
 31 13  1  0
 27 15  1  0
 24 18  1  0
  1 33  1  0
  1 34  1  0
  1 35  1  0
  2 36  1  1
  3 37  1  0
  3 38  1  0
  4 39  1  0
  4 40  1  0
  5 41  1  1
  8 42  1  0
  8 43  1  0
  8 44  1  0
  9 45  1  0
  9 46  1  0
  9 47  1  0
 10 48  1  6
 11 49  1  0
 11 50  1  0
 12 51  1  0
 12 52  1  0
 14 53  1  0
 14 54  1  0
 14 55  1  0
 15 56  1  1
 16 57  1  0
 16 58  1  0
 17 59  1  0
 19 60  1  6
 20 61  1  0
 20 62  1  0
 21 63  1  0
 21 64  1  0
 22 65  1  6
 23 66  1  0
 25 67  1  0
 25 68  1  0
 25 69  1  0
 26 70  1  0
 26 71  1  0
 26 72  1  0
 28 73  1  0
 28 74  1  0
 28 75  1  0
 29 76  1  0
 29 77  1  0
 30 78  1  0
 30 79  1  0
 32 80  1  0
 32 81  1  0
 32 82  1  0
M  END
>  <meeko>  (20) 
{"is_sidechain": [false], "intermolecular_energy": 2.731, "internal_energy": -0.839}

$$$$
