EPH_relaxed_0001_pdb2pqr_Repair_374_r2_0001_out
     RDKit          3D

 82 86  0  0  0  0  0  0  0  0999 V2000
   -1.7920    8.7580   -1.7760 C   0  0  0  0  0  0  0  0  0  0  0  0
   -2.0340    9.2130   -0.3340 C   0  0  2  0  0  0  0  0  0  0  0  0
   -3.5160    9.5480   -0.0710 C   0  0  0  0  0  0  0  0  0  0  0  0
   -4.4190    8.3150    0.0220 C   0  0  0  0  0  0  0  0  0  0  0  0
   -5.7470    8.5510   -0.6320 C   0  0  2  0  0  0  0  0  0  0  0  0
   -6.8290    7.7880   -0.0810 O   0  0  0  0  0  0  0  0  0  0  0  0
   -6.4780    7.4970   -1.4430 C   0  0  0  0  0  0  0  0  0  0  0  0
   -5.9040    6.1300   -1.6450 C   0  0  0  0  0  0  0  0  0  0  0  0
   -7.5030    7.9450   -2.4380 C   0  0  0  0  0  0  0  0  0  0  0  0
   -1.1620   10.4220   -0.0170 C   0  0  1  0  0  0  0  0  0  0  0  0
   -0.0960   10.1230    1.0700 C   0  0  0  0  0  0  0  0  0  0  0  0
    1.1640   10.9460    0.7000 C   0  0  0  0  0  0  0  0  0  0  0  0
    0.6790   11.9370   -0.3840 C   0  0  1  0  0  0  0  0  0  0  0  0
   -0.0010   13.0970    0.4090 C   0  0  0  0  0  0  0  0  0  0  0  0
    1.7680   12.4720   -1.3690 C   0  0  2  0  0  0  0  0  0  0  0  0
    2.8940   13.2910   -0.7140 C   0  0  0  0  0  0  0  0  0  0  0  0
    2.6480   14.7610   -0.6320 C   0  0  0  0  0  0  0  0  0  0  0  0
    1.7040   15.4360   -1.3140 C   0  0  0  0  0  0  0  0  0  0  0  0
    0.8250   14.7270   -2.3520 C   0  0  1  0  0  0  0  0  0  0  0  0
    0.7580   15.5820   -3.6440 C   0  0  0  0  0  0  0  0  0  0  0  0
    0.3050   17.0140   -3.3760 C   0  0  0  0  0  0  0  0  0  0  0  0
    1.2380   17.7040   -2.3840 C   0  0  2  0  0  0  0  0  0  0  0  0
    2.5210   17.8680   -2.9960 O   0  0  0  0  0  0  0  0  0  0  0  0
    1.3910   16.9290   -1.0460 C   0  0  0  0  0  0  0  0  0  0  0  0
    0.0700   17.0110   -0.2420 C   0  0  0  0  0  0  0  0  0  0  0  0
    2.4650   17.6570   -0.1930 C   0  0  0  0  0  0  0  0  0  0  0  0
    1.1850   13.2070   -2.6440 C   0  0  1  0  0  0  0  0  0  0  0  0
    2.2830   13.1230   -3.7470 C   0  0  0  0  0  0  0  0  0  0  0  0
   -0.0850   12.4800   -3.2240 C   0  0  0  0  0  0  0  0  0  0  0  0
   -1.0630   11.8680   -2.2030 C   0  0  0  0  0  0  0  0  0  0  0  0
   -0.3170   11.0130   -1.1750 C   0  0  2  0  0  0  0  0  0  0  0  0
    0.3580    9.8240   -1.9400 C   0  0  0  0  0  0  0  0  0  0  0  0
   -1.2755    7.7868   -1.7723 H   0  0  0  0  0  0  0  0  0  0  0  0
   -2.7563    8.6584   -2.2958 H   0  0  0  0  0  0  0  0  0  0  0  0
   -1.1704    9.5019   -2.2958 H   0  0  0  0  0  0  0  0  0  0  0  0
   -1.7632    8.3761    0.3265 H   0  0  0  0  0  0  0  0  0  0  0  0
   -3.5840   10.1005    0.8777 H   0  0  0  0  0  0  0  0  0  0  0  0
   -3.8685   10.1405   -0.9282 H   0  0  0  0  0  0  0  0  0  0  0  0
   -3.9212    7.4700   -0.4762 H   0  0  0  0  0  0  0  0  0  0  0  0
   -4.5941    8.0971    1.0859 H   0  0  0  0  0  0  0  0  0  0  0  0
   -5.4824    9.5966   -0.8481 H   0  0  0  0  0  0  0  0  0  0  0  0
   -5.7091    5.6659   -0.6669 H   0  0  0  0  0  0  0  0  0  0  0  0
   -6.6185    5.5118   -2.2083 H   0  0  0  0  0  0  0  0  0  0  0  0
   -4.9623    6.2073   -2.2083 H   0  0  0  0  0  0  0  0  0  0  0  0
   -8.3856    8.3308   -1.9068 H   0  0  0  0  0  0  0  0  0  0  0  0
   -7.0786    8.7397   -3.0691 H   0  0  0  0  0  0  0  0  0  0  0  0
   -7.7980    7.0937   -3.0691 H   0  0  0  0  0  0  0  0  0  0  0  0
   -1.9420   11.1370    0.2835 H   0  0  0  0  0  0  0  0  0  0  0  0
   -0.4690   10.4258    2.0595 H   0  0  0  0  0  0  0  0  0  0  0  0
    0.1333    9.0480    1.1128 H   0  0  0  0  0  0  0  0  0  0  0  0
    1.5457   11.4874    1.5781 H   0  0  0  0  0  0  0  0  0  0  0  0
    1.9880   10.3098    0.3446 H   0  0  0  0  0  0  0  0  0  0  0  0
    0.1057   12.9150    1.4886 H   0  0  0  0  0  0  0  0  0  0  0  0
    0.4809   14.0509    0.1486 H   0  0  0  0  0  0  0  0  0  0  0  0
   -1.0688   13.1425    0.1486 H   0  0  0  0  0  0  0  0  0  0  0  0
    2.2406   11.5444   -1.7242 H   0  0  0  0  0  0  0  0  0  0  0  0
    3.0386   12.9129    0.3088 H   0  0  0  0  0  0  0  0  0  0  0  0
    3.7764   13.1655   -1.3587 H   0  0  0  0  0  0  0  0  0  0  0  0
    3.2931   15.3422    0.0433 H   0  0  0  0  0  0  0  0  0  0  0  0
   -0.1758   14.6515   -1.9019 H   0  0  0  0  0  0  0  0  0  0  0  0
    1.7580   15.6084   -4.1014 H   0  0  0  0  0  0  0  0  0  0  0  0
    0.0185   15.1179   -4.3131 H   0  0  0  0  0  0  0  0  0  0  0  0
    0.3066   17.5752   -4.3221 H   0  0  0  0  0  0  0  0  0  0  0  0
   -0.7073   16.9878   -2.9464 H   0  0  0  0  0  0  0  0  0  0  0  0
    0.7912   18.6771   -2.1322 H   0  0  0  0  0  0  0  0  0  0  0  0
    2.3830   18.2850   -3.8630 H   0  0  0  0  0  0  0  0  0  0  0  0
    0.2946   16.9971    0.8347 H   0  0  0  0  0  0  0  0  0  0  0  0
   -0.4558   17.9435   -0.4948 H   0  0  0  0  0  0  0  0  0  0  0  0
   -0.5671   16.1507   -0.4948 H   0  0  0  0  0  0  0  0  0  0  0  0
    2.2470   17.5092    0.8750 H   0  0  0  0  0  0  0  0  0  0  0  0
    3.4583   17.2453   -0.4249 H   0  0  0  0  0  0  0  0  0  0  0  0
    2.4505   18.7322   -0.4249 H   0  0  0  0  0  0  0  0  0  0  0  0
    3.2731   13.0473   -3.2737 H   0  0  0  0  0  0  0  0  0  0  0  0
    2.1069   12.2357   -4.3729 H   0  0  0  0  0  0  0  0  0  0  0  0
    2.2439   14.0268   -4.3729 H   0  0  0  0  0  0  0  0  0  0  0  0
   -0.6447   13.2145   -3.8218 H   0  0  0  0  0  0  0  0  0  0  0  0
    0.3083   11.6250   -3.7935 H   0  0  0  0  0  0  0  0  0  0  0  0
   -1.5922   12.6787   -1.6808 H   0  0  0  0  0  0  0  0  0  0  0  0
   -1.7766   11.2269   -2.7412 H   0  0  0  0  0  0  0  0  0  0  0  0
    0.7660    9.1054   -1.2140 H   0  0  0  0  0  0  0  0  0  0  0  0
   -0.3901    9.3225   -2.5716 H   0  0  0  0  0  0  0  0  0  0  0  0
    1.1720   10.2093   -2.5716 H   0  0  0  0  0  0  0  0  0  0  0  0
  1  2  1  0
  2  3  1  0
  3  4  1  0
  4  5  1  0
  5  6  1  0
  6  7  1  0
  7  8  1  0
  7  9  1  0
  2 10  1  0
 10 11  1  0
 11 12  1  0
 12 13  1  0
 13 14  1  1
 13 15  1  0
 15 16  1  0
 16 17  1  0
 17 18  2  0
 18 19  1  0
 19 20  1  0
 20 21  1  0
 21 22  1  0
 22 23  1  0
 22 24  1  0
 24 25  1  0
 24 26  1  0
 19 27  1  0
 27 28  1  6
 27 29  1  0
 29 30  1  0
 30 31  1  0
 31 32  1  6
  7  5  1  0
 31 10  1  0
 31 13  1  0
 27 15  1  0
 24 18  1  0
  1 33  1  0
  1 34  1  0
  1 35  1  0
  2 36  1  1
  3 37  1  0
  3 38  1  0
  4 39  1  0
  4 40  1  0
  5 41  1  6
  8 42  1  0
  8 43  1  0
  8 44  1  0
  9 45  1  0
  9 46  1  0
  9 47  1  0
 10 48  1  1
 11 49  1  0
 11 50  1  0
 12 51  1  0
 12 52  1  0
 14 53  1  0
 14 54  1  0
 14 55  1  0
 15 56  1  6
 16 57  1  0
 16 58  1  0
 17 59  1  0
 19 60  1  1
 20 61  1  0
 20 62  1  0
 21 63  1  0
 21 64  1  0
 22 65  1  1
 23 66  1  0
 25 67  1  0
 25 68  1  0
 25 69  1  0
 26 70  1  0
 26 71  1  0
 26 72  1  0
 28 73  1  0
 28 74  1  0
 28 75  1  0
 29 76  1  0
 29 77  1  0
 30 78  1  0
 30 79  1  0
 32 80  1  0
 32 81  1  0
 32 82  1  0
M  END
>  <meeko>  (1) 
{"is_sidechain": [false], "intermolecular_energy": 2.731, "internal_energy": -0.839}

$$$$
EPH_relaxed_0001_pdb2pqr_Repair_374_r2_0001_out
     RDKit          3D

 82 86  0  0  0  0  0  0  0  0999 V2000
    1.9770   19.6620   -0.5690 C   0  0  0  0  0  0  0  0  0  0  0  0
    2.3940   18.4250    0.2320 C   0  0  2  0  0  0  0  0  0  0  0  0
    3.8390   17.9890   -0.0850 C   0  0  0  0  0  0  0  0  0  0  0  0
    4.8380   18.3150    1.0280 C   0  0  0  0  0  0  0  0  0  0  0  0
    4.1940   19.0790    2.1450 C   0  0  2  0  0  0  0  0  0  0  0  0
    4.9620   20.1870    2.6330 O   0  0  0  0  0  0  0  0  0  0  0  0
    4.7410   19.1120    3.5600 C   0  0  0  0  0  0  0  0  0  0  0  0
    5.9830   18.3660    3.9340 C   0  0  0  0  0  0  0  0  0  0  0  0
    3.8090   19.4620    4.6790 C   0  0  0  0  0  0  0  0  0  0  0  0
    1.4310   17.2770   -0.0450 C   0  0  1  0  0  0  0  0  0  0  0  0
    0.1630   17.7340   -0.8150 C   0  0  0  0  0  0  0  0  0  0  0  0
   -0.2310   16.5690   -1.7600 C   0  0  0  0  0  0  0  0  0  0  0  0
    0.6110   15.3680   -1.2700 C   0  0  1  0  0  0  0  0  0  0  0  0
   -0.1710   14.8040   -0.0430 C   0  0  0  0  0  0  0  0  0  0  0  0
    0.9070   14.2550   -2.3270 C   0  0  2  0  0  0  0  0  0  0  0  0
   -0.3340   13.5310   -2.8780 C   0  0  0  0  0  0  0  0  0  0  0  0
   -0.7480   12.3110   -2.1230 C   0  0  0  0  0  0  0  0  0  0  0  0
    0.0080   11.6540   -1.2240 C   0  0  0  0  0  0  0  0  0  0  0  0
    1.4600   12.0720   -0.9600 C   0  0  1  0  0  0  0  0  0  0  0  0
    2.3680   10.8150   -0.9500 C   0  0  0  0  0  0  0  0  0  0  0  0
    1.8810    9.7490    0.0280 C   0  0  0  0  0  0  0  0  0  0  0  0
    0.4540    9.3170   -0.3030 C   0  0  2  0  0  0  0  0  0  0  0  0
    0.4590    8.6390   -1.5630 O   0  0  0  0  0  0  0  0  0  0  0  0
   -0.5490   10.5030   -0.3510 C   0  0  0  0  0  0  0  0  0  0  0  0
   -0.7820   11.0460    1.0800 C   0  0  0  0  0  0  0  0  0  0  0  0
   -1.9180    9.9500   -0.8330 C   0  0  0  0  0  0  0  0  0  0  0  0
    2.0290   13.2280   -1.8910 C   0  0  1  0  0  0  0  0  0  0  0  0
    2.6090   12.6170   -3.2030 C   0  0  0  0  0  0  0  0  0  0  0  0
    3.2330   13.9320   -1.1590 C   0  0  0  0  0  0  0  0  0  0  0  0
    2.8860   15.1020   -0.2190 C   0  0  0  0  0  0  0  0  0  0  0  0
    1.9540   16.1030   -0.9100 C   0  0  2  0  0  0  0  0  0  0  0  0
    2.7220   16.7040   -2.1360 C   0  0  0  0  0  0  0  0  0  0  0  0
    1.7039   20.4721    0.1232 H   0  0  0  0  0  0  0  0  0  0  0  0
    2.8149   19.9881   -1.2027 H   0  0  0  0  0  0  0  0  0  0  0  0
    1.1127   19.4143   -1.2027 H   0  0  0  0  0  0  0  0  0  0  0  0
    2.3557   18.6925    1.2983 H   0  0  0  0  0  0  0  0  0  0  0  0
    3.8454   16.9014   -0.2499 H   0  0  0  0  0  0  0  0  0  0  0  0
    4.1561   18.5503   -0.9763 H   0  0  0  0  0  0  0  0  0  0  0  0
    5.2455   17.3747    1.4278 H   0  0  0  0  0  0  0  0  0  0  0  0
    5.6356   18.9402    0.6003 H   0  0  0  0  0  0  0  0  0  0  0  0
    3.1917   18.8637    1.7462 H   0  0  0  0  0  0  0  0  0  0  0  0
    6.0651   18.3167    5.0298 H   0  0  0  0  0  0  0  0  0  0  0  0
    5.9360   17.3465    3.5236 H   0  0  0  0  0  0  0  0  0  0  0  0
    6.8609   18.8864    3.5236 H   0  0  0  0  0  0  0  0  0  0  0  0
    4.3062   19.2753    5.6423 H   0  0  0  0  0  0  0  0  0  0  0  0
    3.5339   20.5247    4.6083 H   0  0  0  0  0  0  0  0  0  0  0  0
    2.9024   18.8431    4.6083 H   0  0  0  0  0  0  0  0  0  0  0  0
    1.2508   16.9348    0.9848 H   0  0  0  0  0  0  0  0  0  0  0  0
   -0.6545   17.9420   -0.1090 H   0  0  0  0  0  0  0  0  0  0  0  0
    0.3570   18.6554   -1.3837 H   0  0  0  0  0  0  0  0  0  0  0  0
   -1.3057   16.3490   -1.6782 H   0  0  0  0  0  0  0  0  0  0  0  0
   -0.0424   16.8072   -2.8172 H   0  0  0  0  0  0  0  0  0  0  0  0
    0.3066   15.1485    0.8861 H   0  0  0  0  0  0  0  0  0  0  0  0
   -1.2108   15.1614   -0.0751 H   0  0  0  0  0  0  0  0  0  0  0  0
   -0.1601   13.7045   -0.0751 H   0  0  0  0  0  0  0  0  0  0  0  0
    1.3140   14.8334   -3.1695 H   0  0  0  0  0  0  0  0  0  0  0  0
   -1.1748   14.2402   -2.8655 H   0  0  0  0  0  0  0  0  0  0  0  0
   -0.0629   13.1871   -3.8871 H   0  0  0  0  0  0  0  0  0  0  0  0
   -1.7559   11.9159   -2.3181 H   0  0  0  0  0  0  0  0  0  0  0  0
    1.4641   12.5429    0.0341 H   0  0  0  0  0  0  0  0  0  0  0  0
    2.3847   10.3840   -1.9619 H   0  0  0  0  0  0  0  0  0  0  0  0
    3.3713   11.1304   -0.6278 H   0  0  0  0  0  0  0  0  0  0  0  0
    2.5453    8.8743   -0.0325 H   0  0  0  0  0  0  0  0  0  0  0  0
    1.8937   10.1716    1.0435 H   0  0  0  0  0  0  0  0  0  0  0  0
    0.1141    8.6519    0.5045 H   0  0  0  0  0  0  0  0  0  0  0  0
   -0.4620    8.4140   -1.7800 H   0  0  0  0  0  0  0  0  0  0  0  0
   -0.4592   10.2937    1.8147 H   0  0  0  0  0  0  0  0  0  0  0  0
   -0.2008   11.9692    1.2210 H   0  0  0  0  0  0  0  0  0  0  0  0
   -1.8516   11.2609    1.2210 H   0  0  0  0  0  0  0  0  0  0  0  0
   -2.5396    9.6989    0.0391 H   0  0  0  0  0  0  0  0  0  0  0  0
   -2.4284   10.7125   -1.4397 H   0  0  0  0  0  0  0  0  0  0  0  0
   -1.7556    9.0470   -1.4397 H   0  0  0  0  0  0  0  0  0  0  0  0
    3.3462   11.8404   -2.9512 H   0  0  0  0  0  0  0  0  0  0  0  0
    1.7936   12.1714   -3.7917 H   0  0  0  0  0  0  0  0  0  0  0  0
    3.0964   13.4081   -3.7917 H   0  0  0  0  0  0  0  0  0  0  0  0
    3.7520   13.1679   -0.5617 H   0  0  0  0  0  0  0  0  0  0  0  0
    3.8374   14.3779   -1.9626 H   0  0  0  0  0  0  0  0  0  0  0  0
    2.3877   14.7069    0.6786 H   0  0  0  0  0  0  0  0  0  0  0  0
    3.8169   15.6204    0.0541 H   0  0  0  0  0  0  0  0  0  0  0  0
    3.5409   17.3449   -1.7773 H   0  0  0  0  0  0  0  0  0  0  0  0
    3.1357   15.8873   -2.7458 H   0  0  0  0  0  0  0  0  0  0  0  0
    2.0287   17.3019   -2.7458 H   0  0  0  0  0  0  0  0  0  0  0  0
  1  2  1  0
  2  3  1  0
  3  4  1  0
  4  5  1  0
  5  6  1  0
  6  7  1  0
  7  8  1  0
  7  9  1  0
  2 10  1  0
 10 11  1  0
 11 12  1  0
 12 13  1  0
 13 14  1  1
 13 15  1  0
 15 16  1  0
 16 17  1  0
 17 18  2  0
 18 19  1  0
 19 20  1  0
 20 21  1  0
 21 22  1  0
 22 23  1  0
 22 24  1  0
 24 25  1  0
 24 26  1  0
 19 27  1  0
 27 28  1  6
 27 29  1  0
 29 30  1  0
 30 31  1  0
 31 32  1  6
  7  5  1  0
 31 10  1  0
 31 13  1  0
 27 15  1  0
 24 18  1  0
  1 33  1  0
  1 34  1  0
  1 35  1  0
  2 36  1  1
  3 37  1  0
  3 38  1  0
  4 39  1  0
  4 40  1  0
  5 41  1  1
  8 42  1  0
  8 43  1  0
  8 44  1  0
  9 45  1  0
  9 46  1  0
  9 47  1  0
 10 48  1  1
 11 49  1  0
 11 50  1  0
 12 51  1  0
 12 52  1  0
 14 53  1  0
 14 54  1  0
 14 55  1  0
 15 56  1  6
 16 57  1  0
 16 58  1  0
 17 59  1  0
 19 60  1  1
 20 61  1  0
 20 62  1  0
 21 63  1  0
 21 64  1  0
 22 65  1  1
 23 66  1  0
 25 67  1  0
 25 68  1  0
 25 69  1  0
 26 70  1  0
 26 71  1  0
 26 72  1  0
 28 73  1  0
 28 74  1  0
 28 75  1  0
 29 76  1  0
 29 77  1  0
 30 78  1  0
 30 79  1  0
 32 80  1  0
 32 81  1  0
 32 82  1  0
M  END
>  <meeko>  (2) 
{"is_sidechain": [false], "intermolecular_energy": 2.731, "internal_energy": -0.839}

$$$$
EPH_relaxed_0001_pdb2pqr_Repair_374_r2_0001_out
     RDKit          3D

 82 86  0  0  0  0  0  0  0  0999 V2000
    2.5260   18.0100   -2.4520 C   0  0  0  0  0  0  0  0  0  0  0  0
    1.1720   17.6710   -1.8220 C   0  0  2  0  0  0  0  0  0  0  0  0
    1.2160   17.7280   -0.2820 C   0  0  0  0  0  0  0  0  0  0  0  0
    0.8600   19.1010    0.2930 C   0  0  0  0  0  0  0  0  0  0  0  0
   -0.6050   19.2140    0.5890 C   0  0  2  0  0  0  0  0  0  0  0  0
   -1.4280   18.2540   -0.0860 O   0  0  0  0  0  0  0  0  0  0  0  0
   -1.6370   19.6300   -0.4440 C   0  0  0  0  0  0  0  0  0  0  0  0
   -1.2450   19.9600   -1.8500 C   0  0  0  0  0  0  0  0  0  0  0  0
   -2.9430   20.1850    0.0330 C   0  0  0  0  0  0  0  0  0  0  0  0
    0.7180   16.2900   -2.2800 C   0  0  1  0  0  0  0  0  0  0  0  0
    0.8520   16.0940   -3.8140 C   0  0  0  0  0  0  0  0  0  0  0  0
    1.2390   14.6100   -4.0430 C   0  0  0  0  0  0  0  0  0  0  0  0
    0.9920   13.9270   -2.6780 C   0  0  1  0  0  0  0  0  0  0  0  0
   -0.5440   13.6510   -2.6400 C   0  0  0  0  0  0  0  0  0  0  0  0
    1.8180   12.6300   -2.3940 C   0  0  2  0  0  0  0  0  0  0  0  0
    1.5460   11.4600   -3.3550 C   0  0  0  0  0  0  0  0  0  0  0  0
    0.4620   10.5250   -2.9310 C   0  0  0  0  0  0  0  0  0  0  0  0
   -0.0700   10.4520   -1.6970 C   0  0  0  0  0  0  0  0  0  0  0  0
    0.4880   11.3020   -0.5480 C   0  0  1  0  0  0  0  0  0  0  0  0
    0.6700   10.4150    0.7120 C   0  0  0  0  0  0  0  0  0  0  0  0
   -0.6090    9.6780    1.0980 C   0  0  0  0  0  0  0  0  0  0  0  0
   -1.1000    8.7990   -0.0500 C   0  0  2  0  0  0  0  0  0  0  0  0
   -0.1560    7.7450   -0.2580 O   0  0  0  0  0  0  0  0  0  0  0  0
   -1.3100    9.5830   -1.3750 C   0  0  0  0  0  0  0  0  0  0  0  0
   -2.5370   10.5180   -1.2380 C   0  0  0  0  0  0  0  0  0  0  0  0
   -1.6680    8.5580   -2.4850 C   0  0  0  0  0  0  0  0  0  0  0  0
    1.7840   12.1580   -0.8840 C   0  0  1  0  0  0  0  0  0  0  0  0
    3.0640   11.2960   -0.6580 C   0  0  0  0  0  0  0  0  0  0  0  0
    1.8790   13.3650    0.1230 C   0  0  0  0  0  0  0  0  0  0  0  0
    1.1400   14.6580   -0.2710 C   0  0  0  0  0  0  0  0  0  0  0  0
    1.4760   15.0660   -1.7080 C   0  0  2  0  0  0  0  0  0  0  0  0
    3.0120   15.3710   -1.7720 C   0  0  0  0  0  0  0  0  0  0  0  0
    3.2641   18.1948   -1.6576 H   0  0  0  0  0  0  0  0  0  0  0  0
    2.8614   17.1681   -3.0755 H   0  0  0  0  0  0  0  0  0  0  0  0
    2.4251   18.9106   -3.0755 H   0  0  0  0  0  0  0  0  0  0  0  0
    0.4510   18.4306   -2.1586 H   0  0  0  0  0  0  0  0  0  0  0  0
    0.5023   16.9902    0.1134 H   0  0  0  0  0  0  0  0  0  0  0  0
    2.2520   17.5124    0.0183 H   0  0  0  0  0  0  0  0  0  0  0  0
    1.4250   19.2551    1.2242 H   0  0  0  0  0  0  0  0  0  0  0  0
    1.1189   19.8644   -0.4555 H   0  0  0  0  0  0  0  0  0  0  0  0
   -0.3960   19.5701    1.6085 H   0  0  0  0  0  0  0  0  0  0  0  0
   -0.4035   20.6684   -1.8394 H   0  0  0  0  0  0  0  0  0  0  0  0
   -0.9432   19.0400   -2.3721 H   0  0  0  0  0  0  0  0  0  0  0  0
   -2.1001   20.4142   -2.3721 H   0  0  0  0  0  0  0  0  0  0  0  0
   -2.9587   20.1917    1.1329 H   0  0  0  0  0  0  0  0  0  0  0  0
   -3.0637   21.2122   -0.3417 H   0  0  0  0  0  0  0  0  0  0  0  0
   -3.7662   19.5590   -0.3417 H   0  0  0  0  0  0  0  0  0  0  0  0
   -0.3154   16.3022   -1.9032 H   0  0  0  0  0  0  0  0  0  0  0  0
   -0.1045   16.3169   -4.3094 H   0  0  0  0  0  0  0  0  0  0  0  0
    1.6118   16.7697   -4.2337 H   0  0  0  0  0  0  0  0  0  0  0  0
    0.6068   14.1597   -4.8225 H   0  0  0  0  0  0  0  0  0  0  0  0
    2.2791   14.4980   -4.3832 H   0  0  0  0  0  0  0  0  0  0  0  0
   -0.8799   13.5906   -1.5943 H   0  0  0  0  0  0  0  0  0  0  0  0
   -1.0760   14.4679   -3.1495 H   0  0  0  0  0  0  0  0  0  0  0  0
   -0.7584   12.7000   -3.1495 H   0  0  0  0  0  0  0  0  0  0  0  0
    2.8477   12.9551   -2.6036 H   0  0  0  0  0  0  0  0  0  0  0  0
    1.2687   11.8808   -4.3328 H   0  0  0  0  0  0  0  0  0  0  0  0
    2.4702   10.8639   -3.3778 H   0  0  0  0  0  0  0  0  0  0  0  0
    0.0644    9.8373   -3.6919 H   0  0  0  0  0  0  0  0  0  0  0  0
   -0.2654   12.0790   -0.3517 H   0  0  0  0  0  0  0  0  0  0  0  0
    1.4572    9.6735    0.5106 H   0  0  0  0  0  0  0  0  0  0  0  0
    0.9406   11.0753    1.5491 H   0  0  0  0  0  0  0  0  0  0  0  0
   -0.4092    9.0456    1.9756 H   0  0  0  0  0  0  0  0  0  0  0  0
   -1.3865   10.4212    1.3285 H   0  0  0  0  0  0  0  0  0  0  0  0
   -2.0842    8.3999    0.2364 H   0  0  0  0  0  0  0  0  0  0  0  0
    0.4220    8.0080   -0.9940 H   0  0  0  0  0  0  0  0  0  0  0  0
   -2.7545   10.6838   -0.1725 H   0  0  0  0  0  0  0  0  0  0  0  0
   -2.3196   11.4815   -1.7221 H   0  0  0  0  0  0  0  0  0  0  0  0
   -3.4084   10.0528   -1.7221 H   0  0  0  0  0  0  0  0  0  0  0  0
   -1.9970    7.6160   -2.0219 H   0  0  0  0  0  0  0  0  0  0  0  0
   -2.4782    8.9621   -3.1097 H   0  0  0  0  0  0  0  0  0  0  0  0
   -0.7824    8.3698   -3.1097 H   0  0  0  0  0  0  0  0  0  0  0  0
    3.2403   11.1773    0.4213 H   0  0  0  0  0  0  0  0  0  0  0  0
    2.9256   10.3064   -1.1179 H   0  0  0  0  0  0  0  0  0  0  0  0
    3.9289   11.7963   -1.1179 H   0  0  0  0  0  0  0  0  0  0  0  0
    1.4690   13.0277    1.0864 H   0  0  0  0  0  0  0  0  0  0  0  0
    2.9444   13.6378    0.1457 H   0  0  0  0  0  0  0  0  0  0  0  0
    0.0557   14.4920   -0.1884 H   0  0  0  0  0  0  0  0  0  0  0  0
    1.4592   15.4642    0.4059 H   0  0  0  0  0  0  0  0  0  0  0  0
    3.4129   15.4506   -0.7507 H   0  0  0  0  0  0  0  0  0  0  0  0
    3.5255   14.5573   -2.3051 H   0  0  0  0  0  0  0  0  0  0  0  0
    3.1757   16.3192   -2.3051 H   0  0  0  0  0  0  0  0  0  0  0  0
  1  2  1  0
  2  3  1  0
  3  4  1  0
  4  5  1  0
  5  6  1  0
  6  7  1  0
  7  8  1  0
  7  9  1  0
  2 10  1  0
 10 11  1  0
 11 12  1  0
 12 13  1  0
 13 14  1  1
 13 15  1  0
 15 16  1  0
 16 17  1  0
 17 18  2  0
 18 19  1  0
 19 20  1  0
 20 21  1  0
 21 22  1  0
 22 23  1  0
 22 24  1  0
 24 25  1  0
 24 26  1  0
 19 27  1  0
 27 28  1  6
 27 29  1  0
 29 30  1  0
 30 31  1  0
 31 32  1  1
  7  5  1  0
 31 10  1  0
 31 13  1  0
 27 15  1  0
 24 18  1  0
  1 33  1  0
  1 34  1  0
  1 35  1  0
  2 36  1  6
  3 37  1  0
  3 38  1  0
  4 39  1  0
  4 40  1  0
  5 41  1  1
  8 42  1  0
  8 43  1  0
  8 44  1  0
  9 45  1  0
  9 46  1  0
  9 47  1  0
 10 48  1  6
 11 49  1  0
 11 50  1  0
 12 51  1  0
 12 52  1  0
 14 53  1  0
 14 54  1  0
 14 55  1  0
 15 56  1  6
 16 57  1  0
 16 58  1  0
 17 59  1  0
 19 60  1  1
 20 61  1  0
 20 62  1  0
 21 63  1  0
 21 64  1  0
 22 65  1  1
 23 66  1  0
 25 67  1  0
 25 68  1  0
 25 69  1  0
 26 70  1  0
 26 71  1  0
 26 72  1  0
 28 73  1  0
 28 74  1  0
 28 75  1  0
 29 76  1  0
 29 77  1  0
 30 78  1  0
 30 79  1  0
 32 80  1  0
 32 81  1  0
 32 82  1  0
M  END
>  <meeko>  (3) 
{"is_sidechain": [false], "intermolecular_energy": 2.731, "internal_energy": -0.839}

$$$$
EPH_relaxed_0001_pdb2pqr_Repair_374_r2_0001_out
     RDKit          3D

 82 86  0  0  0  0  0  0  0  0999 V2000
    0.4520   18.3910    0.0120 C   0  0  0  0  0  0  0  0  0  0  0  0
    1.5380   17.3360   -0.2160 C   0  0  2  0  0  0  0  0  0  0  0  0
    2.7460   17.9030   -0.9880 C   0  0  0  0  0  0  0  0  0  0  0  0
    3.9890   18.1100   -0.1190 C   0  0  0  0  0  0  0  0  0  0  0  0
    3.6300   18.5710    1.2620 C   0  0  2  0  0  0  0  0  0  0  0  0
    3.8850   19.9590    1.5150 O   0  0  0  0  0  0  0  0  0  0  0  0
    4.6540   19.0220    2.2860 C   0  0  0  0  0  0  0  0  0  0  0  0
    6.1180   19.0340    1.9730 C   0  0  0  0  0  0  0  0  0  0  0  0
    4.2820   18.9840    3.7350 C   0  0  0  0  0  0  0  0  0  0  0  0
    0.9540   16.1440   -0.9660 C   0  0  1  0  0  0  0  0  0  0  0  0
    0.8160   16.4060   -2.4900 C   0  0  0  0  0  0  0  0  0  0  0  0
    1.0960   15.0580   -3.2030 C   0  0  0  0  0  0  0  0  0  0  0  0
    1.0570   14.0030   -2.0720 C   0  0  1  0  0  0  0  0  0  0  0  0
   -0.4600   13.7130   -1.8460 C   0  0  0  0  0  0  0  0  0  0  0  0
    1.8640   12.6880   -2.3250 C   0  0  2  0  0  0  0  0  0  0  0  0
    1.3830   11.8470   -3.5200 C   0  0  0  0  0  0  0  0  0  0  0  0
    0.3500   10.8180   -3.2010 C   0  0  0  0  0  0  0  0  0  0  0  0
    0.0340   10.3830   -1.9670 C   0  0  0  0  0  0  0  0  0  0  0  0
    0.8150   10.8660   -0.7380 C   0  0  1  0  0  0  0  0  0  0  0  0
    1.1720    9.6510    0.1580 C   0  0  0  0  0  0  0  0  0  0  0  0
   -0.0520    8.8210    0.5340 C   0  0  0  0  0  0  0  0  0  0  0  0
   -0.7680    8.3110   -0.7140 C   0  0  2  0  0  0  0  0  0  0  0  0
    0.0810    7.3730   -1.3810 O   0  0  0  0  0  0  0  0  0  0  0  0
   -1.1690    9.4460   -1.6980 C   0  0  0  0  0  0  0  0  0  0  0  0
   -2.3130   10.2880   -1.0820 C   0  0  0  0  0  0  0  0  0  0  0  0
   -1.7540    8.7850   -2.9750 C   0  0  0  0  0  0  0  0  0  0  0  0
    2.0700   11.7950   -1.0350 C   0  0  1  0  0  0  0  0  0  0  0  0
    3.3320   10.9180   -1.2970 C   0  0  0  0  0  0  0  0  0  0  0  0
    2.3860   12.6570    0.2450 C   0  0  0  0  0  0  0  0  0  0  0  0
    1.6450   14.0010    0.3780 C   0  0  0  0  0  0  0  0  0  0  0  0
    1.7480   14.8140   -0.9160 C   0  0  2  0  0  0  0  0  0  0  0  0
    3.2610   15.1400   -1.1570 C   0  0  0  0  0  0  0  0  0  0  0  0
    0.3027   18.5360    1.0921 H   0  0  0  0  0  0  0  0  0  0  0  0
    0.7624   19.3417   -0.4462 H   0  0  0  0  0  0  0  0  0  0  0  0
   -0.4893   18.0532   -0.4462 H   0  0  0  0  0  0  0  0  0  0  0  0
    1.8995   17.0141    0.7718 H   0  0  0  0  0  0  0  0  0  0  0  0
    3.0007   17.2029   -1.7973 H   0  0  0  0  0  0  0  0  0  0  0  0
    2.4500   18.8924   -1.3668 H   0  0  0  0  0  0  0  0  0  0  0  0
    4.5356   17.1582   -0.0462 H   0  0  0  0  0  0  0  0  0  0  0  0
    4.6104   18.8866   -0.5889 H   0  0  0  0  0  0  0  0  0  0  0  0
    2.8039   17.8465    1.3145 H   0  0  0  0  0  0  0  0  0  0  0  0
    6.6934   19.0387    2.9105 H   0  0  0  0  0  0  0  0  0  0  0  0
    6.3755   18.1379    1.3893 H   0  0  0  0  0  0  0  0  0  0  0  0
    6.3608   19.9342    1.3893 H   0  0  0  0  0  0  0  0  0  0  0  0
    5.1898   19.0767    4.3492 H   0  0  0  0  0  0  0  0  0  0  0  0
    3.6001   19.8172    3.9605 H   0  0  0  0  0  0  0  0  0  0  0  0
    3.7826   18.0302    3.9605 H   0  0  0  0  0  0  0  0  0  0  0  0
    0.0019   16.0349   -0.4260 H   0  0  0  0  0  0  0  0  0  0  0  0
   -0.2009   16.7541   -2.7239 H   0  0  0  0  0  0  0  0  0  0  0  0
    1.5207   17.1824   -2.8226 H   0  0  0  0  0  0  0  0  0  0  0  0
    0.3219   14.8488   -3.9560 H   0  0  0  0  0  0  0  0  0  0  0  0
    2.0571   15.0608   -3.7380 H   0  0  0  0  0  0  0  0  0  0  0  0
   -0.6689   13.6731   -0.7667 H   0  0  0  0  0  0  0  0  0  0  0  0
   -1.0587   14.5130   -2.3060 H   0  0  0  0  0  0  0  0  0  0  0  0
   -0.7215   12.7486   -2.3060 H   0  0  0  0  0  0  0  0  0  0  0  0
    2.8553   13.0710   -2.6091 H   0  0  0  0  0  0  0  0  0  0  0  0
    0.9601   12.5322   -4.2695 H   0  0  0  0  0  0  0  0  0  0  0  0
    2.2640   11.2933   -3.8766 H   0  0  0  0  0  0  0  0  0  0  0  0
   -0.1997   10.3778   -4.0460 H   0  0  0  0  0  0  0  0  0  0  0  0
    0.1402   11.5447   -0.1957 H   0  0  0  0  0  0  0  0  0  0  0  0
    1.8804    9.0083   -0.3853 H   0  0  0  0  0  0  0  0  0  0  0  0
    1.6101   10.0402    1.0889 H   0  0  0  0  0  0  0  0  0  0  0  0
    0.2682    7.9620    1.1420 H   0  0  0  0  0  0  0  0  0  0  0  0
   -0.7466    9.4565    1.1029 H   0  0  0  0  0  0  0  0  0  0  0  0
   -1.7044    7.8359   -0.3862 H   0  0  0  0  0  0  0  0  0  0  0  0
    0.1020    6.5620   -0.8460 H   0  0  0  0  0  0  0  0  0  0  0  0
   -2.2516   10.2428    0.0154 H   0  0  0  0  0  0  0  0  0  0  0  0
   -2.2177   11.3330   -1.4119 H   0  0  0  0  0  0  0  0  0  0  0  0
   -3.2825    9.8864   -1.4119 H   0  0  0  0  0  0  0  0  0  0  0  0
   -2.4576    7.9900   -2.6869 H   0  0  0  0  0  0  0  0  0  0  0  0
   -2.2820    9.5435   -3.5715 H   0  0  0  0  0  0  0  0  0  0  0  0
   -0.9369    8.3531   -3.5715 H   0  0  0  0  0  0  0  0  0  0  0  0
    3.7719   10.6123   -0.3363 H   0  0  0  0  0  0  0  0  0  0  0  0
    3.0447   10.0239   -1.8698 H   0  0  0  0  0  0  0  0  0  0  0  0
    4.0698   11.4990   -1.8698 H   0  0  0  0  0  0  0  0  0  0  0  0
    2.1333   12.0491    1.1262 H   0  0  0  0  0  0  0  0  0  0  0  0
    3.4499   12.9225    0.1576 H   0  0  0  0  0  0  0  0  0  0  0  0
    0.5848   13.8072    0.5978 H   0  0  0  0  0  0  0  0  0  0  0  0
    2.1078   14.5777    1.1924 H   0  0  0  0  0  0  0  0  0  0  0  0
    3.7712   15.2499   -0.1887 H   0  0  0  0  0  0  0  0  0  0  0  0
    3.7264   14.3215   -1.7258 H   0  0  0  0  0  0  0  0  0  0  0  0
    3.3480   16.0775   -1.7258 H   0  0  0  0  0  0  0  0  0  0  0  0
  1  2  1  0
  2  3  1  0
  3  4  1  0
  4  5  1  0
  5  6  1  0
  6  7  1  0
  7  8  1  0
  7  9  1  0
  2 10  1  0
 10 11  1  0
 11 12  1  0
 12 13  1  0
 13 14  1  1
 13 15  1  0
 15 16  1  0
 16 17  1  0
 17 18  2  0
 18 19  1  0
 19 20  1  0
 20 21  1  0
 21 22  1  0
 22 23  1  0
 22 24  1  0
 24 25  1  0
 24 26  1  0
 19 27  1  0
 27 28  1  6
 27 29  1  0
 29 30  1  0
 30 31  1  0
 31 32  1  6
  7  5  1  0
 31 10  1  0
 31 13  1  0
 27 15  1  0
 24 18  1  0
  1 33  1  0
  1 34  1  0
  1 35  1  0
  2 36  1  1
  3 37  1  0
  3 38  1  0
  4 39  1  0
  4 40  1  0
  5 41  1  1
  8 42  1  0
  8 43  1  0
  8 44  1  0
  9 45  1  0
  9 46  1  0
  9 47  1  0
 10 48  1  1
 11 49  1  0
 11 50  1  0
 12 51  1  0
 12 52  1  0
 14 53  1  0
 14 54  1  0
 14 55  1  0
 15 56  1  6
 16 57  1  0
 16 58  1  0
 17 59  1  0
 19 60  1  1
 20 61  1  0
 20 62  1  0
 21 63  1  0
 21 64  1  0
 22 65  1  1
 23 66  1  0
 25 67  1  0
 25 68  1  0
 25 69  1  0
 26 70  1  0
 26 71  1  0
 26 72  1  0
 28 73  1  0
 28 74  1  0
 28 75  1  0
 29 76  1  0
 29 77  1  0
 30 78  1  0
 30 79  1  0
 32 80  1  0
 32 81  1  0
 32 82  1  0
M  END
>  <meeko>  (4) 
{"is_sidechain": [false], "intermolecular_energy": 2.731, "internal_energy": -0.839}

$$$$
EPH_relaxed_0001_pdb2pqr_Repair_374_r2_0001_out
     RDKit          3D

 82 86  0  0  0  0  0  0  0  0999 V2000
    2.2590   17.9580   -2.5760 C   0  0  0  0  0  0  0  0  0  0  0  0
    0.7340   17.8330   -2.6530 C   0  0  2  0  0  0  0  0  0  0  0  0
    0.0460   18.3150   -1.3600 C   0  0  0  0  0  0  0  0  0  0  0  0
    0.7810   17.9030   -0.0810 C   0  0  0  0  0  0  0  0  0  0  0  0
    1.2940   19.0930    0.6710 C   0  0  2  0  0  0  0  0  0  0  0  0
    2.1730   19.9420   -0.0780 O   0  0  0  0  0  0  0  0  0  0  0  0
    2.7500   19.2760    1.0570 C   0  0  0  0  0  0  0  0  0  0  0  0
    3.7850   18.2550    0.7010 C   0  0  0  0  0  0  0  0  0  0  0  0
    3.0800   20.1940    2.1920 C   0  0  0  0  0  0  0  0  0  0  0  0
    0.3450   16.3880   -2.9430 C   0  0  1  0  0  0  0  0  0  0  0  0
    0.4000   16.0460   -4.4550 C   0  0  0  0  0  0  0  0  0  0  0  0
    0.8690   14.5730   -4.5650 C   0  0  0  0  0  0  0  0  0  0  0  0
    0.7500   14.0180   -3.1260 C   0  0  1  0  0  0  0  0  0  0  0  0
   -0.7600   13.6570   -2.9600 C   0  0  0  0  0  0  0  0  0  0  0  0
    1.6750   12.8080   -2.7730 C   0  0  2  0  0  0  0  0  0  0  0  0
    1.4240   11.5320   -3.5960 C   0  0  0  0  0  0  0  0  0  0  0  0
    0.4310   10.5820   -3.0120 C   0  0  0  0  0  0  0  0  0  0  0  0
   -0.0190   10.6030   -1.7430 C   0  0  0  0  0  0  0  0  0  0  0  0
    0.5490   11.5970   -0.7220 C   0  0  1  0  0  0  0  0  0  0  0  0
    0.8640   10.8540    0.6030 C   0  0  0  0  0  0  0  0  0  0  0  0
   -0.3380   10.0860    1.1430 C   0  0  0  0  0  0  0  0  0  0  0  0
   -0.8380    9.0670    0.1220 C   0  0  2  0  0  0  0  0  0  0  0  0
    0.1590    8.0550   -0.0460 O   0  0  0  0  0  0  0  0  0  0  0  0
   -1.1780    9.6990   -1.2570 C   0  0  0  0  0  0  0  0  0  0  0  0
   -2.4540   10.5690   -1.1300 C   0  0  0  0  0  0  0  0  0  0  0  0
   -1.5340    8.5470   -2.2350 C   0  0  0  0  0  0  0  0  0  0  0  0
    1.7640   12.4900   -1.2250 C   0  0  1  0  0  0  0  0  0  0  0  0
    3.1090   11.7330   -1.0030 C   0  0  0  0  0  0  0  0  0  0  0  0
    1.8390   13.7960   -0.3490 C   0  0  0  0  0  0  0  0  0  0  0  0
    0.9940   14.9960   -0.8170 C   0  0  0  0  0  0  0  0  0  0  0  0
    1.2160   15.2760   -2.3060 C   0  0  2  0  0  0  0  0  0  0  0  0
    2.7210   15.6640   -2.5010 C   0  0  0  0  0  0  0  0  0  0  0  0
    2.5720   17.9837   -1.5218 H   0  0  0  0  0  0  0  0  0  0  0  0
    2.7233   17.0949   -3.0755 H   0  0  0  0  0  0  0  0  0  0  0  0
    2.5766   18.8852   -3.0755 H   0  0  0  0  0  0  0  0  0  0  0  0
    0.3895   18.4820   -3.4716 H   0  0  0  0  0  0  0  0  0  0  0  0
   -0.0145   19.4130   -1.3874 H   0  0  0  0  0  0  0  0  0  0  0  0
   -0.9459   17.8406   -1.3277 H   0  0  0  0  0  0  0  0  0  0  0  0
    0.0871   17.3451    0.5649 H   0  0  0  0  0  0  0  0  0  0  0  0
    1.6417   17.2800   -0.3656 H   0  0  0  0  0  0  0  0  0  0  0  0
    0.3630   19.1545    1.2537 H   0  0  0  0  0  0  0  0  0  0  0  0
    4.2141   17.8317    1.6211 H   0  0  0  0  0  0  0  0  0  0  0  0
    3.3200   17.4521    0.1101 H   0  0  0  0  0  0  0  0  0  0  0  0
    4.5815   18.7309    0.1101 H   0  0  0  0  0  0  0  0  0  0  0  0
    2.8948   19.6788    3.1461 H   0  0  0  0  0  0  0  0  0  0  0  0
    4.1391   20.4852    2.1321 H   0  0  0  0  0  0  0  0  0  0  0  0
    2.4487   21.0928    2.1321 H   0  0  0  0  0  0  0  0  0  0  0  0
   -0.6626   16.3764   -2.5018 H   0  0  0  0  0  0  0  0  0  0  0  0
   -0.5970   16.1605   -4.9055 H   0  0  0  0  0  0  0  0  0  0  0  0
    1.0879   16.7197   -4.9869 H   0  0  0  0  0  0  0  0  0  0  0  0
    0.2219   14.0097   -5.2534 H   0  0  0  0  0  0  0  0  0  0  0  0
    1.8916   14.4890   -4.9616 H   0  0  0  0  0  0  0  0  0  0  0  0
   -1.0074   13.5979   -1.8898 H   0  0  0  0  0  0  0  0  0  0  0  0
   -1.3771   14.4329   -3.4366 H   0  0  0  0  0  0  0  0  0  0  0  0
   -0.9594   12.6859   -3.4366 H   0  0  0  0  0  0  0  0  0  0  0  0
    2.6663   13.1714   -3.0816 H   0  0  0  0  0  0  0  0  0  0  0  0
    1.0618   11.8341   -4.5897 H   0  0  0  0  0  0  0  0  0  0  0  0
    2.3825   10.9929   -3.6219 H   0  0  0  0  0  0  0  0  0  0  0  0
    0.0335    9.7989   -3.6743 H   0  0  0  0  0  0  0  0  0  0  0  0
   -0.2404   12.3441   -0.5528 H   0  0  0  0  0  0  0  0  0  0  0  0
    1.6842   10.1436    0.4225 H   0  0  0  0  0  0  0  0  0  0  0  0
    1.1409   11.6103    1.3522 H   0  0  0  0  0  0  0  0  0  0  0  0
   -0.0449    9.5595    2.0633 H   0  0  0  0  0  0  0  0  0  0  0  0
   -1.1474   10.8014    1.3503 H   0  0  0  0  0  0  0  0  0  0  0  0
   -1.7742    8.6411    0.5121 H   0  0  0  0  0  0  0  0  0  0  0  0
    0.5400    7.8690    0.8290 H   0  0  0  0  0  0  0  0  0  0  0  0
   -2.6857   10.7270   -0.0663 H   0  0  0  0  0  0  0  0  0  0  0  0
   -2.2851   11.5409   -1.6167 H   0  0  0  0  0  0  0  0  0  0  0  0
   -3.2970   10.0567   -1.6167 H   0  0  0  0  0  0  0  0  0  0  0  0
   -1.8110    7.6507   -1.6605 H   0  0  0  0  0  0  0  0  0  0  0  0
   -2.3797    8.8522   -2.8687 H   0  0  0  0  0  0  0  0  0  0  0  0
   -0.6635    8.3218   -2.8687 H   0  0  0  0  0  0  0  0  0  0  0  0
    3.2966   11.6274    0.0757 H   0  0  0  0  0  0  0  0  0  0  0  0
    3.0491   10.7361   -1.4641 H   0  0  0  0  0  0  0  0  0  0  0  0
    3.9301   12.3015   -1.4641 H   0  0  0  0  0  0  0  0  0  0  0  0
    1.5106   13.5341    0.6676 H   0  0  0  0  0  0  0  0  0  0  0  0
    2.8834   14.1330   -0.4237 H   0  0  0  0  0  0  0  0  0  0  0  0
   -0.0701   14.7747   -0.6473 H   0  0  0  0  0  0  0  0  0  0  0  0
    1.2990   15.8841   -0.2441 H   0  0  0  0  0  0  0  0  0  0  0  0
    3.1983   15.7871   -1.5176 H   0  0  0  0  0  0  0  0  0  0  0  0
    3.2350   14.8690   -3.0612 H   0  0  0  0  0  0  0  0  0  0  0  0
    2.7866   16.6084   -3.0612 H   0  0  0  0  0  0  0  0  0  0  0  0
  1  2  1  0
  2  3  1  0
  3  4  1  0
  4  5  1  0
  5  6  1  0
  6  7  1  0
  7  8  1  0
  7  9  1  0
  2 10  1  0
 10 11  1  0
 11 12  1  0
 12 13  1  0
 13 14  1  1
 13 15  1  0
 15 16  1  0
 16 17  1  0
 17 18  2  0
 18 19  1  0
 19 20  1  0
 20 21  1  0
 21 22  1  0
 22 23  1  0
 22 24  1  0
 24 25  1  0
 24 26  1  0
 19 27  1  0
 27 28  1  6
 27 29  1  0
 29 30  1  0
 30 31  1  0
 31 32  1  1
  7  5  1  0
 31 10  1  0
 31 13  1  0
 27 15  1  0
 24 18  1  0
  1 33  1  0
  1 34  1  0
  1 35  1  0
  2 36  1  6
  3 37  1  0
  3 38  1  0
  4 39  1  0
  4 40  1  0
  5 41  1  1
  8 42  1  0
  8 43  1  0
  8 44  1  0
  9 45  1  0
  9 46  1  0
  9 47  1  0
 10 48  1  1
 11 49  1  0
 11 50  1  0
 12 51  1  0
 12 52  1  0
 14 53  1  0
 14 54  1  0
 14 55  1  0
 15 56  1  6
 16 57  1  0
 16 58  1  0
 17 59  1  0
 19 60  1  1
 20 61  1  0
 20 62  1  0
 21 63  1  0
 21 64  1  0
 22 65  1  1
 23 66  1  0
 25 67  1  0
 25 68  1  0
 25 69  1  0
 26 70  1  0
 26 71  1  0
 26 72  1  0
 28 73  1  0
 28 74  1  0
 28 75  1  0
 29 76  1  0
 29 77  1  0
 30 78  1  0
 30 79  1  0
 32 80  1  0
 32 81  1  0
 32 82  1  0
M  END
>  <meeko>  (5) 
{"is_sidechain": [false], "intermolecular_energy": 2.731, "internal_energy": -0.839}

$$$$
EPH_relaxed_0001_pdb2pqr_Repair_374_r2_0001_out
     RDKit          3D

 82 86  0  0  0  0  0  0  0  0999 V2000
    3.7670   17.9430    0.6730 C   0  0  0  0  0  0  0  0  0  0  0  0
    2.7200   18.3700   -0.3590 C   0  0  2  0  0  0  0  0  0  0  0  0
    1.9950   19.6670    0.0520 C   0  0  0  0  0  0  0  0  0  0  0  0
    0.8110   19.4370    0.9960 C   0  0  0  0  0  0  0  0  0  0  0  0
   -0.4460   20.0600    0.4710 C   0  0  2  0  0  0  0  0  0  0  0  0
   -1.5090   20.1620    1.4270 O   0  0  0  0  0  0  0  0  0  0  0  0
   -1.7490   19.3010    0.3020 C   0  0  0  0  0  0  0  0  0  0  0  0
   -1.8590   17.8510    0.6580 C   0  0  0  0  0  0  0  0  0  0  0  0
   -2.7680   19.8320   -0.6580 C   0  0  0  0  0  0  0  0  0  0  0  0
    1.7070   17.2500   -0.5660 C   0  0  1  0  0  0  0  0  0  0  0  0
    0.4880   17.6960   -1.4160 C   0  0  0  0  0  0  0  0  0  0  0  0
    0.0630   16.4710   -2.2660 C   0  0  0  0  0  0  0  0  0  0  0  0
    0.8270   15.2790   -1.6420 C   0  0  1  0  0  0  0  0  0  0  0  0
   -0.0200   14.8680   -0.3970 C   0  0  0  0  0  0  0  0  0  0  0  0
    1.0970   14.0610   -2.5850 C   0  0  2  0  0  0  0  0  0  0  0  0
   -0.1630   13.3520   -3.1110 C   0  0  0  0  0  0  0  0  0  0  0  0
   -0.6620   12.2280   -2.2650 C   0  0  0  0  0  0  0  0  0  0  0  0
    0.0310   11.6190   -1.2850 C   0  0  0  0  0  0  0  0  0  0  0  0
    1.4950   11.9880   -1.0090 C   0  0  1  0  0  0  0  0  0  0  0  0
    2.3350   10.6930   -0.8550 C   0  0  0  0  0  0  0  0  0  0  0  0
    1.7640    9.7470    0.1970 C   0  0  0  0  0  0  0  0  0  0  0  0
    0.3280    9.3560   -0.1440 C   0  0  2  0  0  0  0  0  0  0  0  0
    0.3350    8.5670   -1.3370 O   0  0  0  0  0  0  0  0  0  0  0  0
   -0.6110   10.5800   -0.3320 C   0  0  0  0  0  0  0  0  0  0  0  0
   -0.8580   11.2630    1.0360 C   0  0  0  0  0  0  0  0  0  0  0  0
   -1.9920   10.0540   -0.8100 C   0  0  0  0  0  0  0  0  0  0  0  0
    2.1500   13.0250   -2.0190 C   0  0  1  0  0  0  0  0  0  0  0  0
    2.7370   12.2690   -3.2500 C   0  0  0  0  0  0  0  0  0  0  0  0
    3.3660   13.7330   -1.3120 C   0  0  0  0  0  0  0  0  0  0  0  0
    3.0520   15.0000   -0.4930 C   0  0  0  0  0  0  0  0  0  0  0  0
    2.1940   15.9770   -1.3030 C   0  0  2  0  0  0  0  0  0  0  0  0
    3.0290   16.4260   -2.5500 C   0  0  0  0  0  0  0  0  0  0  0  0
    3.3704   18.1047    1.6862 H   0  0  0  0  0  0  0  0  0  0  0  0
    4.0023   16.8771    0.5372 H   0  0  0  0  0  0  0  0  0  0  0  0
    4.6806   18.5404    0.5372 H   0  0  0  0  0  0  0  0  0  0  0  0
    3.2485   18.5721   -1.3023 H   0  0  0  0  0  0  0  0  0  0  0  0
    2.7185   20.3247    0.5560 H   0  0  0  0  0  0  0  0  0  0  0  0
    1.5909   20.1151   -0.8678 H   0  0  0  0  0  0  0  0  0  0  0  0
    0.6515   18.3547    1.1104 H   0  0  0  0  0  0  0  0  0  0  0  0
    1.0476   19.9053    1.9628 H   0  0  0  0  0  0  0  0  0  0  0  0
    0.1298   20.6992   -0.2145 H   0  0  0  0  0  0  0  0  0  0  0  0
   -1.8673   17.7418    1.7525 H   0  0  0  0  0  0  0  0  0  0  0  0
   -2.7908   17.4409    0.2415 H   0  0  0  0  0  0  0  0  0  0  0  0
   -0.9997   17.3050    0.2415 H   0  0  0  0  0  0  0  0  0  0  0  0
   -3.6072   20.2693   -0.0972 H   0  0  0  0  0  0  0  0  0  0  0  0
   -2.3077   20.6049   -1.2910 H   0  0  0  0  0  0  0  0  0  0  0  0
   -3.1378   19.0119   -1.2910 H   0  0  0  0  0  0  0  0  0  0  0  0
    1.4785   17.0128    0.4835 H   0  0  0  0  0  0  0  0  0  0  0  0
   -0.3382   18.0065   -0.7596 H   0  0  0  0  0  0  0  0  0  0  0  0
    0.7457   18.5515   -2.0576 H   0  0  0  0  0  0  0  0  0  0  0  0
   -1.0236   16.3121   -2.2020 H   0  0  0  0  0  0  0  0  0  0  0  0
    0.2954   16.6028   -3.3331 H   0  0  0  0  0  0  0  0  0  0  0  0
    0.5253   15.1326    0.5210 H   0  0  0  0  0  0  0  0  0  0  0  0
   -0.9832   15.3989   -0.4173 H   0  0  0  0  0  0  0  0  0  0  0  0
   -0.1990   13.7828   -0.4173 H   0  0  0  0  0  0  0  0  0  0  0  0
    1.5589   14.5383   -3.4618 H   0  0  0  0  0  0  0  0  0  0  0  0
   -0.9657   14.0999   -3.1906 H   0  0  0  0  0  0  0  0  0  0  0  0
    0.1196   12.9049   -4.0755 H   0  0  0  0  0  0  0  0  0  0  0  0
   -1.6827   11.8668   -2.4590 H   0  0  0  0  0  0  0  0  0  0  0  0
    1.4952   12.5470   -0.0616 H   0  0  0  0  0  0  0  0  0  0  0  0
    2.3588   10.1709   -1.8229 H   0  0  0  0  0  0  0  0  0  0  0  0
    3.3436   10.9861   -0.5282 H   0  0  0  0  0  0  0  0  0  0  0  0
    2.3840    8.8393    0.2396 H   0  0  0  0  0  0  0  0  0  0  0  0
    1.7669   10.2603    1.1699 H   0  0  0  0  0  0  0  0  0  0  0  0
   -0.0690    8.7835    0.7073 H   0  0  0  0  0  0  0  0  0  0  0  0
    1.2510    8.2820   -1.4960 H   0  0  0  0  0  0  0  0  0  0  0  0
   -0.6050   10.5633    1.8462 H   0  0  0  0  0  0  0  0  0  0  0  0
   -0.2276   12.1608    1.1167 H   0  0  0  0  0  0  0  0  0  0  0  0
   -1.9168   11.5499    1.1167 H   0  0  0  0  0  0  0  0  0  0  0  0
   -2.6163    9.8162    0.0639 H   0  0  0  0  0  0  0  0  0  0  0  0
   -2.4886   10.8260   -1.4162 H   0  0  0  0  0  0  0  0  0  0  0  0
   -1.8492    9.1473   -1.4162 H   0  0  0  0  0  0  0  0  0  0  0  0
    3.3771   11.4446   -2.9029 H   0  0  0  0  0  0  0  0  0  0  0  0
    1.9146   11.8637   -3.8578 H   0  0  0  0  0  0  0  0  0  0  0  0
    3.3334   12.9654   -3.8578 H   0  0  0  0  0  0  0  0  0  0  0  0
    3.8265   13.0022   -0.6309 H   0  0  0  0  0  0  0  0  0  0  0  0
    4.0166   14.0736   -2.1310 H   0  0  0  0  0  0  0  0  0  0  0  0
    2.5076   14.7135    0.4189 H   0  0  0  0  0  0  0  0  0  0  0  0
    3.9998   15.4954   -0.2355 H   0  0  0  0  0  0  0  0  0  0  0  0
    3.9516   16.9221   -2.2142 H   0  0  0  0  0  0  0  0  0  0  0  0
    3.2862   15.5446   -3.1557 H   0  0  0  0  0  0  0  0  0  0  0  0
    2.4355   17.1266   -3.1557 H   0  0  0  0  0  0  0  0  0  0  0  0
  1  2  1  0
  2  3  1  0
  3  4  1  0
  4  5  1  0
  5  6  1  0
  6  7  1  0
  7  8  1  0
  7  9  1  0
  2 10  1  0
 10 11  1  0
 11 12  1  0
 12 13  1  0
 13 14  1  1
 13 15  1  0
 15 16  1  0
 16 17  1  0
 17 18  2  0
 18 19  1  0
 19 20  1  0
 20 21  1  0
 21 22  1  0
 22 23  1  0
 22 24  1  0
 24 25  1  0
 24 26  1  0
 19 27  1  0
 27 28  1  6
 27 29  1  0
 29 30  1  0
 30 31  1  0
 31 32  1  6
  7  5  1  0
 31 10  1  0
 31 13  1  0
 27 15  1  0
 24 18  1  0
  1 33  1  0
  1 34  1  0
  1 35  1  0
  2 36  1  6
  3 37  1  0
  3 38  1  0
  4 39  1  0
  4 40  1  0
  5 41  1  6
  8 42  1  0
  8 43  1  0
  8 44  1  0
  9 45  1  0
  9 46  1  0
  9 47  1  0
 10 48  1  1
 11 49  1  0
 11 50  1  0
 12 51  1  0
 12 52  1  0
 14 53  1  0
 14 54  1  0
 14 55  1  0
 15 56  1  6
 16 57  1  0
 16 58  1  0
 17 59  1  0
 19 60  1  1
 20 61  1  0
 20 62  1  0
 21 63  1  0
 21 64  1  0
 22 65  1  1
 23 66  1  0
 25 67  1  0
 25 68  1  0
 25 69  1  0
 26 70  1  0
 26 71  1  0
 26 72  1  0
 28 73  1  0
 28 74  1  0
 28 75  1  0
 29 76  1  0
 29 77  1  0
 30 78  1  0
 30 79  1  0
 32 80  1  0
 32 81  1  0
 32 82  1  0
M  END
>  <meeko>  (6) 
{"is_sidechain": [false], "intermolecular_energy": 2.731, "internal_energy": -0.839}

$$$$
EPH_relaxed_0001_pdb2pqr_Repair_374_r2_0001_out
     RDKit          3D

 82 86  0  0  0  0  0  0  0  0999 V2000
   -5.0670    6.0020   -1.8890 C   0  0  0  0  0  0  0  0  0  0  0  0
   -5.4460    7.4850   -1.8340 C   0  0  2  0  0  0  0  0  0  0  0  0
   -5.2510    8.0820   -0.4250 C   0  0  0  0  0  0  0  0  0  0  0  0
   -4.3090    9.2880   -0.3930 C   0  0  0  0  0  0  0  0  0  0  0  0
   -2.9040    8.8860   -0.0600 C   0  0  2  0  0  0  0  0  0  0  0  0
   -2.2450    9.7390    0.8850 O   0  0  0  0  0  0  0  0  0  0  0  0
   -1.6870    9.7080   -0.4380 C   0  0  0  0  0  0  0  0  0  0  0  0
   -1.8170   10.9980   -1.1850 C   0  0  0  0  0  0  0  0  0  0  0  0
   -0.3570    9.0230   -0.5160 C   0  0  0  0  0  0  0  0  0  0  0  0
   -6.8900    7.6700   -2.2830 C   0  0  1  0  0  0  0  0  0  0  0  0
   -7.1970    6.9450   -3.6200 C   0  0  0  0  0  0  0  0  0  0  0  0
   -8.6600    6.4390   -3.5290 C   0  0  0  0  0  0  0  0  0  0  0  0
   -9.2480    7.1670   -2.2980 C   0  0  1  0  0  0  0  0  0  0  0  0
   -9.6390    8.5850   -2.8200 C   0  0  0  0  0  0  0  0  0  0  0  0
  -10.4500    6.4620   -1.5880 C   0  0  2  0  0  0  0  0  0  0  0  0
  -11.7110    6.2930   -2.4530 C   0  0  0  0  0  0  0  0  0  0  0  0
  -12.6910    7.4170   -2.3790 C   0  0  0  0  0  0  0  0  0  0  0  0
  -12.7050    8.3820   -1.4400 C   0  0  0  0  0  0  0  0  0  0  0  0
  -11.7250    8.3470   -0.2610 C   0  0  1  0  0  0  0  0  0  0  0  0
  -12.4910    8.6310    1.0580 C   0  0  0  0  0  0  0  0  0  0  0  0
  -13.2920    9.9280    1.0020 C   0  0  0  0  0  0  0  0  0  0  0  0
  -14.2960    9.9010   -0.1480 C   0  0  2  0  0  0  0  0  0  0  0  0
  -15.2870    8.9070    0.1300 O   0  0  0  0  0  0  0  0  0  0  0  0
  -13.6400    9.6130   -1.5270 C   0  0  0  0  0  0  0  0  0  0  0  0
  -12.7950   10.8350   -1.9660 C   0  0  0  0  0  0  0  0  0  0  0  0
  -14.7760    9.4720   -2.5760 C   0  0  0  0  0  0  0  0  0  0  0  0
  -10.8010    7.0580   -0.1640 C   0  0  1  0  0  0  0  0  0  0  0  0
  -11.5400    5.9310    0.6200 C   0  0  0  0  0  0  0  0  0  0  0  0
   -9.5130    7.4100    0.6710 C   0  0  0  0  0  0  0  0  0  0  0  0
   -8.3170    7.9910   -0.1070 C   0  0  0  0  0  0  0  0  0  0  0  0
   -8.0010    7.1420   -1.3420 C   0  0  2  0  0  0  0  0  0  0  0  0
   -7.5830    5.7150   -0.8470 C   0  0  0  0  0  0  0  0  0  0  0  0
   -4.9670    5.6109   -0.8657 H   0  0  0  0  0  0  0  0  0  0  0  0
   -5.8511    5.4426   -2.4204 H   0  0  0  0  0  0  0  0  0  0  0  0
   -4.1107    5.8874   -2.4204 H   0  0  0  0  0  0  0  0  0  0  0  0
   -4.7731    8.0240   -2.5171 H   0  0  0  0  0  0  0  0  0  0  0  0
   -6.2329    8.3980   -0.0427 H   0  0  0  0  0  0  0  0  0  0  0  0
   -4.7915    7.2985    0.1955 H   0  0  0  0  0  0  0  0  0  0  0  0
   -4.3165    9.7724   -1.3806 H   0  0  0  0  0  0  0  0  0  0  0  0
   -4.6621    9.9780    0.3875 H   0  0  0  0  0  0  0  0  0  0  0  0
   -3.1497    7.8232   -0.2020 H   0  0  0  0  0  0  0  0  0  0  0  0
   -1.9008   11.8292   -0.4694 H   0  0  0  0  0  0  0  0  0  0  0  0
   -0.9293   11.1466   -1.8174 H   0  0  0  0  0  0  0  0  0  0  0  0
   -2.7165   10.9665   -1.8174 H   0  0  0  0  0  0  0  0  0  0  0  0
    0.0165    8.8306    0.5006 H   0  0  0  0  0  0  0  0  0  0  0  0
   -0.4667    8.0692   -1.0529 H   0  0  0  0  0  0  0  0  0  0  0  0
    0.3558    9.6662   -1.0529 H   0  0  0  0  0  0  0  0  0  0  0  0
   -6.9285    8.7683   -2.3310 H   0  0  0  0  0  0  0  0  0  0  0  0
   -7.0895    7.6434   -4.4630 H   0  0  0  0  0  0  0  0  0  0  0  0
   -6.5000    6.1103   -3.7857 H   0  0  0  0  0  0  0  0  0  0  0  0
   -9.2191    6.7015   -4.4392 H   0  0  0  0  0  0  0  0  0  0  0  0
   -8.7180    5.3447   -3.4338 H   0  0  0  0  0  0  0  0  0  0  0  0
   -9.8231    9.2525   -1.9653 H   0  0  0  0  0  0  0  0  0  0  0  0
   -8.8189    8.9897   -3.4313 H   0  0  0  0  0  0  0  0  0  0  0  0
  -10.5506    8.5122   -3.4313 H   0  0  0  0  0  0  0  0  0  0  0  0
  -10.0635    5.4455   -1.4226 H   0  0  0  0  0  0  0  0  0  0  0  0
  -11.3928    6.1880   -3.5007 H   0  0  0  0  0  0  0  0  0  0  0  0
  -12.2330    5.4081   -2.0601 H   0  0  0  0  0  0  0  0  0  0  0  0
  -13.4671    7.4604   -3.1573 H   0  0  0  0  0  0  0  0  0  0  0  0
  -10.9953    9.1483   -0.4494 H   0  0  0  0  0  0  0  0  0  0  0  0
  -13.1826    7.7976    1.2505 H   0  0  0  0  0  0  0  0  0  0  0  0
  -11.7463    8.7331    1.8611 H   0  0  0  0  0  0  0  0  0  0  0  0
  -13.8344   10.0572    1.9502 H   0  0  0  0  0  0  0  0  0  0  0  0
  -12.5954   10.7637    0.8399 H   0  0  0  0  0  0  0  0  0  0  0  0
  -14.7456   10.9025   -0.2178 H   0  0  0  0  0  0  0  0  0  0  0  0
  -16.1560    9.3430    0.1070 H   0  0  0  0  0  0  0  0  0  0  0  0
  -12.4279   11.3659   -1.0753 H   0  0  0  0  0  0  0  0  0  0  0  0
  -11.9398   10.4925   -2.5672 H   0  0  0  0  0  0  0  0  0  0  0  0
  -13.4173   11.5142   -2.5672 H   0  0  0  0  0  0  0  0  0  0  0  0
  -15.7396    9.3524   -2.0591 H   0  0  0  0  0  0  0  0  0  0  0  0
  -14.8072   10.3732   -3.2060 H   0  0  0  0  0  0  0  0  0  0  0  0
  -14.5860    8.5905   -3.2060 H   0  0  0  0  0  0  0  0  0  0  0  0
  -11.4278    6.1021    1.7008 H   0  0  0  0  0  0  0  0  0  0  0  0
  -12.6078    5.9404    0.3562 H   0  0  0  0  0  0  0  0  0  0  0  0
  -11.1057    4.9554    0.3562 H   0  0  0  0  0  0  0  0  0  0  0  0
   -9.8027    8.1469    1.4345 H   0  0  0  0  0  0  0  0  0  0  0  0
   -9.1570    6.4484    1.0693 H   0  0  0  0  0  0  0  0  0  0  0  0
   -8.5593    9.0152   -0.4269 H   0  0  0  0  0  0  0  0  0  0  0  0
   -7.4367    7.9914    0.5526 H   0  0  0  0  0  0  0  0  0  0  0  0
   -7.5773    5.6955    0.2528 H   0  0  0  0  0  0  0  0  0  0  0  0
   -8.3011    4.9715   -1.2232 H   0  0  0  0  0  0  0  0  0  0  0  0
   -6.5772    5.4764   -1.2232 H   0  0  0  0  0  0  0  0  0  0  0  0
  1  2  1  0
  2  3  1  0
  3  4  1  0
  4  5  1  0
  5  6  1  0
  6  7  1  0
  7  8  1  0
  7  9  1  0
  2 10  1  0
 10 11  1  0
 11 12  1  0
 12 13  1  0
 13 14  1  6
 13 15  1  0
 15 16  1  0
 16 17  1  0
 17 18  2  0
 18 19  1  0
 19 20  1  0
 20 21  1  0
 21 22  1  0
 22 23  1  0
 22 24  1  0
 24 25  1  0
 24 26  1  0
 19 27  1  0
 27 28  1  1
 27 29  1  0
 29 30  1  0
 30 31  1  0
 31 32  1  1
  7  5  1  0
 31 10  1  0
 31 13  1  0
 27 15  1  0
 24 18  1  0
  1 33  1  0
  1 34  1  0
  1 35  1  0
  2 36  1  6
  3 37  1  0
  3 38  1  0
  4 39  1  0
  4 40  1  0
  5 41  1  1
  8 42  1  0
  8 43  1  0
  8 44  1  0
  9 45  1  0
  9 46  1  0
  9 47  1  0
 10 48  1  6
 11 49  1  0
 11 50  1  0
 12 51  1  0
 12 52  1  0
 14 53  1  0
 14 54  1  0
 14 55  1  0
 15 56  1  1
 16 57  1  0
 16 58  1  0
 17 59  1  0
 19 60  1  6
 20 61  1  0
 20 62  1  0
 21 63  1  0
 21 64  1  0
 22 65  1  6
 23 66  1  0
 25 67  1  0
 25 68  1  0
 25 69  1  0
 26 70  1  0
 26 71  1  0
 26 72  1  0
 28 73  1  0
 28 74  1  0
 28 75  1  0
 29 76  1  0
 29 77  1  0
 30 78  1  0
 30 79  1  0
 32 80  1  0
 32 81  1  0
 32 82  1  0
M  END
>  <meeko>  (7) 
{"is_sidechain": [false], "intermolecular_energy": 2.731, "internal_energy": -0.839}

$$$$
EPH_relaxed_0001_pdb2pqr_Repair_374_r2_0001_out
     RDKit          3D

 82 86  0  0  0  0  0  0  0  0999 V2000
   -5.0100    7.3080   -2.7370 C   0  0  0  0  0  0  0  0  0  0  0  0
   -4.6250    7.4520   -1.2630 C   0  0  2  0  0  0  0  0  0  0  0  0
   -5.8550    7.4070   -0.3340 C   0  0  0  0  0  0  0  0  0  0  0  0
   -7.1820    7.6450   -1.0580 C   0  0  0  0  0  0  0  0  0  0  0  0
   -8.3540    7.2360   -0.2170 C   0  0  2  0  0  0  0  0  0  0  0  0
   -9.0050    6.0320   -0.6410 O   0  0  0  0  0  0  0  0  0  0  0  0
   -9.7850    7.2350   -0.7210 C   0  0  0  0  0  0  0  0  0  0  0  0
  -10.1210    7.6520   -2.1180 C   0  0  0  0  0  0  0  0  0  0  0  0
  -10.8960    7.3010    0.2810 C   0  0  0  0  0  0  0  0  0  0  0  0
   -3.8600    8.7540   -1.0500 C   0  0  1  0  0  0  0  0  0  0  0  0
   -4.2940    9.4980    0.2400 C   0  0  0  0  0  0  0  0  0  0  0  0
   -3.0240   10.1780    0.8130 C   0  0  0  0  0  0  0  0  0  0  0  0
   -1.9840   10.0850   -0.3280 C   0  0  1  0  0  0  0  0  0  0  0  0
   -2.3350   11.2630   -1.2890 C   0  0  0  0  0  0  0  0  0  0  0  0
   -0.4810   10.1190    0.1030 C   0  0  2  0  0  0  0  0  0  0  0  0
   -0.0310   11.4170    0.7970 C   0  0  0  0  0  0  0  0  0  0  0  0
    0.4960   12.4770   -0.1120 C   0  0  0  0  0  0  0  0  0  0  0  0
    0.8700   12.2940   -1.3920 C   0  0  0  0  0  0  0  0  0  0  0  0
    0.8730   10.8950   -2.0200 C   0  0  1  0  0  0  0  0  0  0  0  0
    2.2020   10.6750   -2.7890 C   0  0  0  0  0  0  0  0  0  0  0  0
    2.4750   11.7740   -3.8120 C   0  0  0  0  0  0  0  0  0  0  0  0
    2.5230   13.1440   -3.1410 C   0  0  2  0  0  0  0  0  0  0  0  0
    3.6650   13.1960   -2.2800 O   0  0  0  0  0  0  0  0  0  0  0  0
    1.2400   13.4720   -2.3270 C   0  0  0  0  0  0  0  0  0  0  0  0
    0.0560   13.7130   -3.2960 C   0  0  0  0  0  0  0  0  0  0  0  0
    1.4750   14.8170   -1.5870 C   0  0  0  0  0  0  0  0  0  0  0  0
    0.5300    9.6930   -1.0380 C   0  0  1  0  0  0  0  0  0  0  0  0
    1.8270    9.2040   -0.3230 C   0  0  0  0  0  0  0  0  0  0  0  0
    0.0010    8.4740   -1.8820 C   0  0  0  0  0  0  0  0  0  0  0  0
   -1.5110    8.4340   -2.1720 C   0  0  0  0  0  0  0  0  0  0  0  0
   -2.3220    8.6570   -0.8920 C   0  0  2  0  0  0  0  0  0  0  0  0
   -2.0060    7.4740    0.0860 C   0  0  0  0  0  0  0  0  0  0  0  0
   -6.0379    6.9235   -2.8116 H   0  0  0  0  0  0  0  0  0  0  0  0
   -4.9491    8.2897   -3.2295 H   0  0  0  0  0  0  0  0  0  0  0  0
   -4.3198    6.6072   -3.2295 H   0  0  0  0  0  0  0  0  0  0  0  0
   -3.9837    6.5966   -1.0040 H   0  0  0  0  0  0  0  0  0  0  0  0
   -5.8930    6.4171    0.1441 H   0  0  0  0  0  0  0  0  0  0  0  0
   -5.7365    8.2215    0.3958 H   0  0  0  0  0  0  0  0  0  0  0  0
   -7.2708    8.7151   -1.2968 H   0  0  0  0  0  0  0  0  0  0  0  0
   -7.1873    7.0349   -1.9733 H   0  0  0  0  0  0  0  0  0  0  0  0
   -7.8883    7.6656    0.6822 H   0  0  0  0  0  0  0  0  0  0  0  0
  -10.8109    8.5083   -2.0892 H   0  0  0  0  0  0  0  0  0  0  0  0
   -9.2002    7.9407   -2.6460 H   0  0  0  0  0  0  0  0  0  0  0  0
  -10.5989    6.8137   -2.6460 H   0  0  0  0  0  0  0  0  0  0  0  0
  -10.4753    7.2760    1.2971 H   0  0  0  0  0  0  0  0  0  0  0  0
  -11.4611    8.2343    0.1410 H   0  0  0  0  0  0  0  0  0  0  0  0
  -11.5676    6.4412    0.1410 H   0  0  0  0  0  0  0  0  0  0  0  0
   -4.1099    9.2703   -1.9886 H   0  0  0  0  0  0  0  0  0  0  0  0
   -5.0550   10.2559    0.0023 H   0  0  0  0  0  0  0  0  0  0  0  0
   -4.7320    8.8009    0.9695 H   0  0  0  0  0  0  0  0  0  0  0  0
   -3.2275   11.2284    1.0685 H   0  0  0  0  0  0  0  0  0  0  0  0
   -2.6735    9.6960    1.7376 H   0  0  0  0  0  0  0  0  0  0  0  0
   -2.5999   12.1520   -0.6978 H   0  0  0  0  0  0  0  0  0  0  0  0
   -1.4655   11.4902   -1.9234 H   0  0  0  0  0  0  0  0  0  0  0  0
   -3.1870   10.9773   -1.9234 H   0  0  0  0  0  0  0  0  0  0  0  0
   -0.4386    9.3369    0.8753 H   0  0  0  0  0  0  0  0  0  0  0  0
   -0.8955   11.8311    1.3366 H   0  0  0  0  0  0  0  0  0  0  0  0
    0.8055   11.1363    1.4538 H   0  0  0  0  0  0  0  0  0  0  0  0
    0.5864   13.4934    0.2987 H   0  0  0  0  0  0  0  0  0  0  0  0
    0.0274   10.8761   -2.7233 H   0  0  0  0  0  0  0  0  0  0  0  0
    3.0294   10.6543   -2.0644 H   0  0  0  0  0  0  0  0  0  0  0  0
    2.1182    9.7238   -3.3351 H   0  0  0  0  0  0  0  0  0  0  0  0
    3.4407   11.5787   -4.3012 H   0  0  0  0  0  0  0  0  0  0  0  0
    1.6618   11.7741   -4.5527 H   0  0  0  0  0  0  0  0  0  0  0  0
    2.5914   13.8995   -3.9376 H   0  0  0  0  0  0  0  0  0  0  0  0
    4.1190   14.0390   -2.4440 H   0  0  0  0  0  0  0  0  0  0  0  0
   -0.8601   13.8995   -2.7163 H   0  0  0  0  0  0  0  0  0  0  0  0
    0.2727   14.5854   -3.9299 H   0  0  0  0  0  0  0  0  0  0  0  0
   -0.0855   12.8252   -3.9299 H   0  0  0  0  0  0  0  0  0  0  0  0
    1.4454   14.6478   -0.5005 H   0  0  0  0  0  0  0  0  0  0  0  0
    2.4578   15.2234   -1.8682 H   0  0  0  0  0  0  0  0  0  0  0  0
    0.6883   15.5325   -1.8682 H   0  0  0  0  0  0  0  0  0  0  0  0
    1.6870    9.2568    0.7668 H   0  0  0  0  0  0  0  0  0  0  0  0
    2.0375    8.1648   -0.6158 H   0  0  0  0  0  0  0  0  0  0  0  0
    2.6712    9.8456   -0.6158 H   0  0  0  0  0  0  0  0  0  0  0  0
    0.5251    8.4864   -2.8491 H   0  0  0  0  0  0  0  0  0  0  0  0
    0.1986    7.5872   -1.2618 H   0  0  0  0  0  0  0  0  0  0  0  0
   -1.7591    9.2232   -2.8970 H   0  0  0  0  0  0  0  0  0  0  0  0
   -1.7636    7.4436   -2.5785 H   0  0  0  0  0  0  0  0  0  0  0  0
   -2.0991    7.8225    1.1252 H   0  0  0  0  0  0  0  0  0  0  0  0
   -2.7163    6.6528   -0.0903 H   0  0  0  0  0  0  0  0  0  0  0  0
   -0.9808    7.1163   -0.0903 H   0  0  0  0  0  0  0  0  0  0  0  0
  1  2  1  0
  2  3  1  0
  3  4  1  0
  4  5  1  0
  5  6  1  0
  6  7  1  0
  7  8  1  0
  7  9  1  0
  2 10  1  0
 10 11  1  0
 11 12  1  0
 12 13  1  0
 13 14  1  6
 13 15  1  0
 15 16  1  0
 16 17  1  0
 17 18  2  0
 18 19  1  0
 19 20  1  0
 20 21  1  0
 21 22  1  0
 22 23  1  0
 22 24  1  0
 24 25  1  0
 24 26  1  0
 19 27  1  0
 27 28  1  1
 27 29  1  0
 29 30  1  0
 30 31  1  0
 31 32  1  1
  7  5  1  0
 31 10  1  0
 31 13  1  0
 27 15  1  0
 24 18  1  0
  1 33  1  0
  1 34  1  0
  1 35  1  0
  2 36  1  1
  3 37  1  0
  3 38  1  0
  4 39  1  0
  4 40  1  0
  5 41  1  1
  8 42  1  0
  8 43  1  0
  8 44  1  0
  9 45  1  0
  9 46  1  0
  9 47  1  0
 10 48  1  6
 11 49  1  0
 11 50  1  0
 12 51  1  0
 12 52  1  0
 14 53  1  0
 14 54  1  0
 14 55  1  0
 15 56  1  1
 16 57  1  0
 16 58  1  0
 17 59  1  0
 19 60  1  6
 20 61  1  0
 20 62  1  0
 21 63  1  0
 21 64  1  0
 22 65  1  6
 23 66  1  0
 25 67  1  0
 25 68  1  0
 25 69  1  0
 26 70  1  0
 26 71  1  0
 26 72  1  0
 28 73  1  0
 28 74  1  0
 28 75  1  0
 29 76  1  0
 29 77  1  0
 30 78  1  0
 30 79  1  0
 32 80  1  0
 32 81  1  0
 32 82  1  0
M  END
>  <meeko>  (8) 
{"is_sidechain": [false], "intermolecular_energy": 2.731, "internal_energy": -0.839}

$$$$
EPH_relaxed_0001_pdb2pqr_Repair_374_r2_0001_out
     RDKit          3D

 82 86  0  0  0  0  0  0  0  0999 V2000
    0.3990    8.8240   -2.4610 C   0  0  0  0  0  0  0  0  0  0  0  0
    1.1580    9.9740   -3.1300 C   0  0  2  0  0  0  0  0  0  0  0  0
    2.6540    9.9750   -2.7590 C   0  0  0  0  0  0  0  0  0  0  0  0
    3.5550   10.5800   -3.8390 C   0  0  0  0  0  0  0  0  0  0  0  0
    4.9470   10.8130   -3.3330 C   0  0  2  0  0  0  0  0  0  0  0  0
    5.5480   12.0360   -3.7770 O   0  0  0  0  0  0  0  0  0  0  0  0
    6.1720   10.8230   -4.2290 C   0  0  0  0  0  0  0  0  0  0  0  0
    6.0620   10.5950   -5.7040 C   0  0  0  0  0  0  0  0  0  0  0  0
    7.5110   10.5680   -3.6110 C   0  0  0  0  0  0  0  0  0  0  0  0
    0.5250   11.3060   -2.7470 C   0  0  1  0  0  0  0  0  0  0  0  0
   -0.8550   11.1360   -2.0570 C   0  0  0  0  0  0  0  0  0  0  0  0
   -0.9670   12.2630   -0.9980 C   0  0  0  0  0  0  0  0  0  0  0  0
    0.1890   13.2330   -1.3370 C   0  0  1  0  0  0  0  0  0  0  0  0
   -0.3530   14.1090   -2.5090 C   0  0  0  0  0  0  0  0  0  0  0  0
    0.7210   14.1120   -0.1580 C   0  0  2  0  0  0  0  0  0  0  0  0
   -0.3060   15.0870    0.4450 C   0  0  0  0  0  0  0  0  0  0  0  0
   -0.3400   16.4420   -0.1790 C   0  0  0  0  0  0  0  0  0  0  0  0
    0.6060   16.9570   -0.9860 C   0  0  0  0  0  0  0  0  0  0  0  0
    1.9040   16.1880   -1.2670 C   0  0  1  0  0  0  0  0  0  0  0  0
    3.1150   17.1470   -1.1210 C   0  0  0  0  0  0  0  0  0  0  0  0
    2.9790   18.3970   -1.9850 C   0  0  0  0  0  0  0  0  0  0  0  0
    1.7070   19.1650   -1.6360 C   0  0  2  0  0  0  0  0  0  0  0  0
    1.8320   19.6860   -0.3100 O   0  0  0  0  0  0  0  0  0  0  0  0
    0.4210   18.2980   -1.7380 C   0  0  0  0  0  0  0  0  0  0  0  0
    0.1200   17.9840   -3.2250 C   0  0  0  0  0  0  0  0  0  0  0  0
   -0.7720   19.1500   -1.2250 C   0  0  0  0  0  0  0  0  0  0  0  0
    2.0970   14.8340   -0.4580 C   0  0  1  0  0  0  0  0  0  0  0  0
    2.7550   15.1290    0.9250 C   0  0  0  0  0  0  0  0  0  0  0  0
    3.1020   13.9070   -1.2390 C   0  0  0  0  0  0  0  0  0  0  0  0
    2.4990   12.9750   -2.3080 C   0  0  0  0  0  0  0  0  0  0  0  0
    1.3010   12.2020   -1.7490 C   0  0  2  0  0  0  0  0  0  0  0  0
    1.8200   11.2950   -0.5820 C   0  0  0  0  0  0  0  0  0  0  0  0
    0.4668    8.9268   -1.3679 H   0  0  0  0  0  0  0  0  0  0  0  0
   -0.6570    8.8544   -2.7673 H   0  0  0  0  0  0  0  0  0  0  0  0
    0.8422    7.8649   -2.7673 H   0  0  0  0  0  0  0  0  0  0  0  0
    1.0881    9.8287   -4.2181 H   0  0  0  0  0  0  0  0  0  0  0  0
    2.7821   10.5563   -1.8340 H   0  0  0  0  0  0  0  0  0  0  0  0
    2.9564    8.9242   -2.6393 H   0  0  0  0  0  0  0  0  0  0  0  0
    3.5976    9.8906   -4.6951 H   0  0  0  0  0  0  0  0  0  0  0  0
    3.1308   11.5507   -4.1354 H   0  0  0  0  0  0  0  0  0  0  0  0
    4.7217   10.2804   -2.3973 H   0  0  0  0  0  0  0  0  0  0  0  0
    5.5909    9.6185   -5.8900 H   0  0  0  0  0  0  0  0  0  0  0  0
    5.4482   11.3897   -6.1531 H   0  0  0  0  0  0  0  0  0  0  0  0
    7.0660   10.6092   -6.1531 H   0  0  0  0  0  0  0  0  0  0  0  0
    7.4184   10.5856   -2.5150 H   0  0  0  0  0  0  0  0  0  0  0  0
    7.8814    9.5832   -3.9319 H   0  0  0  0  0  0  0  0  0  0  0  0
    8.2174   11.3478   -3.9319 H   0  0  0  0  0  0  0  0  0  0  0  0
    0.4929   11.7853   -3.7366 H   0  0  0  0  0  0  0  0  0  0  0  0
   -1.6630   11.2302   -2.7975 H   0  0  0  0  0  0  0  0  0  0  0  0
   -0.9435   10.1442   -1.5895 H   0  0  0  0  0  0  0  0  0  0  0  0
   -1.9381   12.7739   -1.0758 H   0  0  0  0  0  0  0  0  0  0  0  0
   -0.9003   11.8776    0.0301 H   0  0  0  0  0  0  0  0  0  0  0  0
   -0.8902   14.9773   -2.0997 H   0  0  0  0  0  0  0  0  0  0  0  0
    0.4883   14.4562   -3.1267 H   0  0  0  0  0  0  0  0  0  0  0  0
   -1.0392   13.5111   -3.1267 H   0  0  0  0  0  0  0  0  0  0  0  0
    0.9167   13.3638    0.6243 H   0  0  0  0  0  0  0  0  0  0  0  0
   -1.3046   14.6382    0.3380 H   0  0  0  0  0  0  0  0  0  0  0  0
   -0.0024   15.2408    1.4910 H   0  0  0  0  0  0  0  0  0  0  0  0
   -1.2132   17.0743    0.0393 H   0  0  0  0  0  0  0  0  0  0  0  0
    1.8298   15.8350   -2.3062 H   0  0  0  0  0  0  0  0  0  0  0  0
    3.1970   17.4536   -0.0678 H   0  0  0  0  0  0  0  0  0  0  0  0
    4.0119   16.6055   -1.4561 H   0  0  0  0  0  0  0  0  0  0  0  0
    3.8500   19.0475   -1.8168 H   0  0  0  0  0  0  0  0  0  0  0  0
    2.9261   18.0907   -3.0402 H   0  0  0  0  0  0  0  0  0  0  0  0
    1.5984   19.9752   -2.3720 H   0  0  0  0  0  0  0  0  0  0  0  0
    2.6010   19.2580    0.1030 H   0  0  0  0  0  0  0  0  0  0  0  0
   -0.6400   17.1911   -3.2858 H   0  0  0  0  0  0  0  0  0  0  0  0
   -0.2552   18.8905   -3.7225 H   0  0  0  0  0  0  0  0  0  0  0  0
    1.0415   17.6474   -3.7225 H   0  0  0  0  0  0  0  0  0  0  0  0
   -0.7749   19.1521   -0.1250 H   0  0  0  0  0  0  0  0  0  0  0  0
   -0.6710   20.1816   -1.5933 H   0  0  0  0  0  0  0  0  0  0  0  0
   -1.7150   18.7198   -1.5933 H   0  0  0  0  0  0  0  0  0  0  0  0
    2.0706   14.8221    1.7296 H   0  0  0  0  0  0  0  0  0  0  0  0
    3.6967   14.5669    1.0104 H   0  0  0  0  0  0  0  0  0  0  0  0
    2.9618   16.2060    1.0104 H   0  0  0  0  0  0  0  0  0  0  0  0
    3.8347   14.5573   -1.7393 H   0  0  0  0  0  0  0  0  0  0  0  0
    3.5261   13.2359   -0.4776 H   0  0  0  0  0  0  0  0  0  0  0  0
    2.1690   13.5783   -3.1665 H   0  0  0  0  0  0  0  0  0  0  0  0
    3.2686   12.2527   -2.6178 H   0  0  0  0  0  0  0  0  0  0  0  0
    1.5578   11.7533    0.3830 H   0  0  0  0  0  0  0  0  0  0  0  0
    1.3538   10.3013   -0.6548 H   0  0  0  0  0  0  0  0  0  0  0  0
    2.9129   11.1935   -0.6548 H   0  0  0  0  0  0  0  0  0  0  0  0
  1  2  1  0
  2  3  1  0
  3  4  1  0
  4  5  1  0
  5  6  1  0
  6  7  1  0
  7  8  1  0
  7  9  1  0
  2 10  1  0
 10 11  1  0
 11 12  1  0
 12 13  1  0
 13 14  1  6
 13 15  1  0
 15 16  1  0
 16 17  1  0
 17 18  2  0
 18 19  1  0
 19 20  1  0
 20 21  1  0
 21 22  1  0
 22 23  1  0
 22 24  1  0
 24 25  1  0
 24 26  1  0
 19 27  1  0
 27 28  1  1
 27 29  1  0
 29 30  1  0
 30 31  1  0
 31 32  1  1
  7  5  1  0
 31 10  1  0
 31 13  1  0
 27 15  1  0
 24 18  1  0
  1 33  1  0
  1 34  1  0
  1 35  1  0
  2 36  1  6
  3 37  1  0
  3 38  1  0
  4 39  1  0
  4 40  1  0
  5 41  1  1
  8 42  1  0
  8 43  1  0
  8 44  1  0
  9 45  1  0
  9 46  1  0
  9 47  1  0
 10 48  1  6
 11 49  1  0
 11 50  1  0
 12 51  1  0
 12 52  1  0
 14 53  1  0
 14 54  1  0
 14 55  1  0
 15 56  1  1
 16 57  1  0
 16 58  1  0
 17 59  1  0
 19 60  1  6
 20 61  1  0
 20 62  1  0
 21 63  1  0
 21 64  1  0
 22 65  1  6
 23 66  1  0
 25 67  1  0
 25 68  1  0
 25 69  1  0
 26 70  1  0
 26 71  1  0
 26 72  1  0
 28 73  1  0
 28 74  1  0
 28 75  1  0
 29 76  1  0
 29 77  1  0
 30 78  1  0
 30 79  1  0
 32 80  1  0
 32 81  1  0
 32 82  1  0
M  END
>  <meeko>  (9) 
{"is_sidechain": [false], "intermolecular_energy": 2.731, "internal_energy": -0.839}

$$$$
EPH_relaxed_0001_pdb2pqr_Repair_374_r2_0001_out
     RDKit          3D

 82 86  0  0  0  0  0  0  0  0999 V2000
   -2.4520    8.0070   -1.8890 C   0  0  0  0  0  0  0  0  0  0  0  0
   -2.2300    8.6160   -0.5020 C   0  0  2  0  0  0  0  0  0  0  0  0
   -3.5240    8.6380    0.3360 C   0  0  0  0  0  0  0  0  0  0  0  0
   -4.7900    8.8710   -0.4920 C   0  0  0  0  0  0  0  0  0  0  0  0
   -5.8860    7.9240   -0.1090 C   0  0  2  0  0  0  0  0  0  0  0  0
   -5.8440    6.6570   -0.7790 O   0  0  0  0  0  0  0  0  0  0  0  0
   -6.9840    7.4860   -1.0600 C   0  0  0  0  0  0  0  0  0  0  0  0
   -7.0410    7.9860   -2.4690 C   0  0  0  0  0  0  0  0  0  0  0  0
   -8.2640    6.9650   -0.4830 C   0  0  0  0  0  0  0  0  0  0  0  0
   -1.6720   10.0280   -0.6370 C   0  0  1  0  0  0  0  0  0  0  0  0
   -1.1770   10.6060    0.7150 C   0  0  0  0  0  0  0  0  0  0  0  0
    0.0570   11.4890    0.3990 C   0  0  0  0  0  0  0  0  0  0  0  0
    0.0320   11.6580   -1.1390 C   0  0  1  0  0  0  0  0  0  0  0  0
   -1.0050   12.7940   -1.4010 C   0  0  0  0  0  0  0  0  0  0  0  0
    1.4050   11.9610   -1.8230 C   0  0  2  0  0  0  0  0  0  0  0  0
    2.0680   13.2830   -1.3990 C   0  0  0  0  0  0  0  0  0  0  0  0
    1.7100   14.4710   -2.2300 C   0  0  0  0  0  0  0  0  0  0  0  0
    1.1190   14.4310   -3.4390 C   0  0  0  0  0  0  0  0  0  0  0  0
    0.8380   13.0920   -4.1340 C   0  0  1  0  0  0  0  0  0  0  0  0
    1.2890   13.1740   -5.6160 C   0  0  0  0  0  0  0  0  0  0  0  0
    0.6670   14.3560   -6.3530 C   0  0  0  0  0  0  0  0  0  0  0  0
    1.0170   15.6730   -5.6650 C   0  0  2  0  0  0  0  0  0  0  0  0
    2.4240   15.9000   -5.7940 O   0  0  0  0  0  0  0  0  0  0  0  0
    0.6180   15.7040   -4.1630 C   0  0  0  0  0  0  0  0  0  0  0  0
   -0.9240   15.7610   -4.0350 C   0  0  0  0  0  0  0  0  0  0  0  0
    1.1530   17.0290   -3.5550 C   0  0  0  0  0  0  0  0  0  0  0  0
    1.3940   11.7980   -3.3970 C   0  0  1  0  0  0  0  0  0  0  0  0
    2.8690   11.5330   -3.8280 C   0  0  0  0  0  0  0  0  0  0  0  0
    0.5630   10.5450   -3.8640 C   0  0  0  0  0  0  0  0  0  0  0  0
   -0.7200   10.2280   -3.0720 C   0  0  0  0  0  0  0  0  0  0  0  0
   -0.4470   10.2230   -1.5650 C   0  0  2  0  0  0  0  0  0  0  0  0
    0.5770    9.0750   -1.2680 C   0  0  0  0  0  0  0  0  0  0  0  0
   -2.8270    6.9784   -1.7821 H   0  0  0  0  0  0  0  0  0  0  0  0
   -3.1881    8.6101   -2.4407 H   0  0  0  0  0  0  0  0  0  0  0  0
   -1.5004    7.9949   -2.4407 H   0  0  0  0  0  0  0  0  0  0  0  0
   -1.5052    7.9795    0.0268 H   0  0  0  0  0  0  0  0  0  0  0  0
   -3.6198    7.6714    0.8522 H   0  0  0  0  0  0  0  0  0  0  0  0
   -3.4386    9.4817    1.0367 H   0  0  0  0  0  0  0  0  0  0  0  0
   -5.1371    9.9021   -0.3297 H   0  0  0  0  0  0  0  0  0  0  0  0
   -4.5435    8.6995   -1.5502 H   0  0  0  0  0  0  0  0  0  0  0  0
   -5.9141    8.3326    0.9119 H   0  0  0  0  0  0  0  0  0  0  0  0
   -7.1656    9.0789   -2.4655 H   0  0  0  0  0  0  0  0  0  0  0  0
   -6.1073    7.7251   -2.9887 H   0  0  0  0  0  0  0  0  0  0  0  0
   -7.8920    7.5216   -2.9887 H   0  0  0  0  0  0  0  0  0  0  0  0
   -8.2073    6.9881    0.6153 H   0  0  0  0  0  0  0  0  0  0  0  0
   -9.1010    7.5940   -0.8202 H   0  0  0  0  0  0  0  0  0  0  0  0
   -8.4238    5.9302   -0.8202 H   0  0  0  0  0  0  0  0  0  0  0  0
   -2.5508   10.5337   -1.0635 H   0  0  0  0  0  0  0  0  0  0  0  0
   -1.9680   11.2129    1.1798 H   0  0  0  0  0  0  0  0  0  0  0  0
   -0.9167    9.8004    1.4173 H   0  0  0  0  0  0  0  0  0  0  0  0
   -0.0261   12.4656    0.8984 H   0  0  0  0  0  0  0  0  0  0  0  0
    0.9951   11.0375    0.7540 H   0  0  0  0  0  0  0  0  0  0  0  0
   -1.3661   13.1896   -0.4402 H   0  0  0  0  0  0  0  0  0  0  0  0
   -0.5267   13.6022   -1.9738 H   0  0  0  0  0  0  0  0  0  0  0  0
   -1.8533   12.3911   -1.9738 H   0  0  0  0  0  0  0  0  0  0  0  0
    2.0489   11.1635   -1.4237 H   0  0  0  0  0  0  0  0  0  0  0  0
    1.7732   13.4934   -0.3603 H   0  0  0  0  0  0  0  0  0  0  0  0
    3.1504   13.1360   -1.5284 H   0  0  0  0  0  0  0  0  0  0  0  0
    1.9495   15.4630   -1.8194 H   0  0  0  0  0  0  0  0  0  0  0  0
   -0.2509   12.9448   -4.0827 H   0  0  0  0  0  0  0  0  0  0  0  0
    2.3838   13.2764   -5.6461 H   0  0  0  0  0  0  0  0  0  0  0  0
    0.9541   12.2543   -6.1180 H   0  0  0  0  0  0  0  0  0  0  0  0
    1.0468   14.3769   -7.3851 H   0  0  0  0  0  0  0  0  0  0  0  0
   -0.4265   14.2369   -6.3480 H   0  0  0  0  0  0  0  0  0  0  0  0
    0.4393   16.4679   -6.1593 H   0  0  0  0  0  0  0  0  0  0  0  0
    2.7970   15.9550   -4.8980 H   0  0  0  0  0  0  0  0  0  0  0  0
   -1.2035   15.7713   -2.9711 H   0  0  0  0  0  0  0  0  0  0  0  0
   -1.2988   16.6736   -4.5215 H   0  0  0  0  0  0  0  0  0  0  0  0
   -1.3652   14.8785   -4.5215 H   0  0  0  0  0  0  0  0  0  0  0  0
    1.1273   16.9653   -2.4571 H   0  0  0  0  0  0  0  0  0  0  0  0
    2.1882   17.1938   -3.8886 H   0  0  0  0  0  0  0  0  0  0  0  0
    0.5225   17.8664   -3.8886 H   0  0  0  0  0  0  0  0  0  0  0  0
    3.4980   11.4200   -2.9327 H   0  0  0  0  0  0  0  0  0  0  0  0
    2.9159   10.6120   -4.4277 H   0  0  0  0  0  0  0  0  0  0  0  0
    3.2336   12.3800   -4.4277 H   0  0  0  0  0  0  0  0  0  0  0  0
    0.2747   10.7089   -4.9128 H   0  0  0  0  0  0  0  0  0  0  0  0
    1.2248    9.6823   -3.6973 H   0  0  0  0  0  0  0  0  0  0  0  0
   -1.4798   10.9908   -3.2975 H   0  0  0  0  0  0  0  0  0  0  0  0
   -1.0767    9.2302   -3.3671 H   0  0  0  0  0  0  0  0  0  0  0  0
    0.6858    8.9530   -0.1802 H   0  0  0  0  0  0  0  0  0  0  0  0
    0.2118    8.1351   -1.7076 H   0  0  0  0  0  0  0  0  0  0  0  0
    1.5523    9.3308   -1.7076 H   0  0  0  0  0  0  0  0  0  0  0  0
  1  2  1  0
  2  3  1  0
  3  4  1  0
  4  5  1  0
  5  6  1  0
  6  7  1  0
  7  8  1  0
  7  9  1  0
  2 10  1  0
 10 11  1  0
 11 12  1  0
 12 13  1  0
 13 14  1  1
 13 15  1  0
 15 16  1  0
 16 17  1  0
 17 18  2  0
 18 19  1  0
 19 20  1  0
 20 21  1  0
 21 22  1  0
 22 23  1  0
 22 24  1  0
 24 25  1  0
 24 26  1  0
 19 27  1  0
 27 28  1  6
 27 29  1  0
 29 30  1  0
 30 31  1  0
 31 32  1  6
  7  5  1  0
 31 10  1  0
 31 13  1  0
 27 15  1  0
 24 18  1  0
  1 33  1  0
  1 34  1  0
  1 35  1  0
  2 36  1  1
  3 37  1  0
  3 38  1  0
  4 39  1  0
  4 40  1  0
  5 41  1  1
  8 42  1  0
  8 43  1  0
  8 44  1  0
  9 45  1  0
  9 46  1  0
  9 47  1  0
 10 48  1  6
 11 49  1  0
 11 50  1  0
 12 51  1  0
 12 52  1  0
 14 53  1  0
 14 54  1  0
 14 55  1  0
 15 56  1  1
 16 57  1  0
 16 58  1  0
 17 59  1  0
 19 60  1  6
 20 61  1  0
 20 62  1  0
 21 63  1  0
 21 64  1  0
 22 65  1  6
 23 66  1  0
 25 67  1  0
 25 68  1  0
 25 69  1  0
 26 70  1  0
 26 71  1  0
 26 72  1  0
 28 73  1  0
 28 74  1  0
 28 75  1  0
 29 76  1  0
 29 77  1  0
 30 78  1  0
 30 79  1  0
 32 80  1  0
 32 81  1  0
 32 82  1  0
M  END
>  <meeko>  (10) 
{"is_sidechain": [false], "intermolecular_energy": 2.731, "internal_energy": -0.839}

$$$$
EPH_relaxed_0001_pdb2pqr_Repair_374_r2_0001_out
     RDKit          3D

 82 86  0  0  0  0  0  0  0  0999 V2000
    2.1550   16.3730   -0.8050 C   0  0  0  0  0  0  0  0  0  0  0  0
    1.7000   16.3460   -2.2670 C   0  0  2  0  0  0  0  0  0  0  0  0
    0.8610   17.5860   -2.6370 C   0  0  0  0  0  0  0  0  0  0  0  0
    1.1720   18.8160   -1.7810 C   0  0  0  0  0  0  0  0  0  0  0  0
   -0.0630   19.6130   -1.4850 C   0  0  2  0  0  0  0  0  0  0  0  0
   -0.1020   20.1940   -0.1760 O   0  0  0  0  0  0  0  0  0  0  0  0
   -1.0990   19.1990   -0.4570 C   0  0  0  0  0  0  0  0  0  0  0  0
   -0.9470   17.9430    0.3420 C   0  0  0  0  0  0  0  0  0  0  0  0
   -2.4850   19.7520   -0.5750 C   0  0  0  0  0  0  0  0  0  0  0  0
    0.9000   15.0770   -2.5380 C   0  0  1  0  0  0  0  0  0  0  0  0
    1.1760   14.4870   -3.9470 C   0  0  0  0  0  0  0  0  0  0  0  0
    1.1030   12.9450   -3.8090 C   0  0  0  0  0  0  0  0  0  0  0  0
    0.4670   12.7070   -2.4190 C   0  0  1  0  0  0  0  0  0  0  0  0
   -1.0670   12.8860   -2.6440 C   0  0  0  0  0  0  0  0  0  0  0  0
    0.7950   11.3410   -1.7340 C   0  0  2  0  0  0  0  0  0  0  0  0
    0.3030   10.0960   -2.4920 C   0  0  0  0  0  0  0  0  0  0  0  0
   -1.0680    9.6290   -2.1290 C   0  0  0  0  0  0  0  0  0  0  0  0
   -1.7600   10.0060   -1.0380 C   0  0  0  0  0  0  0  0  0  0  0  0
   -1.1260   10.9200    0.0190 C   0  0  1  0  0  0  0  0  0  0  0  0
   -1.4080   10.3480    1.4330 C   0  0  0  0  0  0  0  0  0  0  0  0
   -2.8940   10.1100    1.6830 C   0  0  0  0  0  0  0  0  0  0  0  0
   -3.4750    9.1520    0.6460 C   0  0  2  0  0  0  0  0  0  0  0  0
   -2.8920    7.8590    0.8360 O   0  0  0  0  0  0  0  0  0  0  0  0
   -3.2430    9.6190   -0.8180 C   0  0  0  0  0  0  0  0  0  0  0  0
   -4.1190   10.8620   -1.1130 C   0  0  0  0  0  0  0  0  0  0  0  0
   -3.7500    8.4970   -1.7640 C   0  0  0  0  0  0  0  0  0  0  0  0
    0.4070   11.2750   -0.2010 C   0  0  1  0  0  0  0  0  0  0  0  0
    1.3060   10.1730    0.4390 C   0  0  0  0  0  0  0  0  0  0  0  0
    0.7390   12.6140    0.5580 C   0  0  0  0  0  0  0  0  0  0  0  0
    0.5060   13.9270   -0.2150 C   0  0  0  0  0  0  0  0  0  0  0  0
    1.1490   13.8660   -1.6040 C   0  0  2  0  0  0  0  0  0  0  0  0
    2.6950   13.7090   -1.4100 C   0  0  0  0  0  0  0  0  0  0  0  0
    1.2756   16.3208   -0.1463 H   0  0  0  0  0  0  0  0  0  0  0  0
    2.8113   15.5122   -0.6093 H   0  0  0  0  0  0  0  0  0  0  0  0
    2.7049   17.3054   -0.6093 H   0  0  0  0  0  0  0  0  0  0  0  0
    2.6029   16.3586   -2.8952 H   0  0  0  0  0  0  0  0  0  0  0  0
    1.0573   17.8368   -3.6899 H   0  0  0  0  0  0  0  0  0  0  0  0
   -0.1928   17.3269   -2.4572 H   0  0  0  0  0  0  0  0  0  0  0  0
    1.6191   18.4858   -0.8317 H   0  0  0  0  0  0  0  0  0  0  0  0
    1.8673   19.4573   -2.3425 H   0  0  0  0  0  0  0  0  0  0  0  0
   -0.1489   19.9147   -2.5393 H   0  0  0  0  0  0  0  0  0  0  0  0
   -0.9763   18.1850    1.4147 H   0  0  0  0  0  0  0  0  0  0  0  0
   -1.7681   17.2524    0.0994 H   0  0  0  0  0  0  0  0  0  0  0  0
    0.0152   17.4683    0.0994 H   0  0  0  0  0  0  0  0  0  0  0  0
   -2.9004   19.9178    0.4300 H   0  0  0  0  0  0  0  0  0  0  0  0
   -2.4537   20.7065   -1.1208 H   0  0  0  0  0  0  0  0  0  0  0  0
   -3.1194   19.0381   -1.1208 H   0  0  0  0  0  0  0  0  0  0  0  0
   -0.1182   15.4653   -2.3880 H   0  0  0  0  0  0  0  0  0  0  0  0
    0.4168   14.8397   -4.6606 H   0  0  0  0  0  0  0  0  0  0  0  0
    2.1607   14.8036   -4.3215 H   0  0  0  0  0  0  0  0  0  0  0  0
    0.4750   12.5135   -4.6024 H   0  0  0  0  0  0  0  0  0  0  0  0
    2.0911   12.4707   -3.9023 H   0  0  0  0  0  0  0  0  0  0  0  0
   -1.5759   12.9454   -1.6706 H   0  0  0  0  0  0  0  0  0  0  0  0
   -1.2490   13.8115   -3.2100 H   0  0  0  0  0  0  0  0  0  0  0  0
   -1.4572   12.0273   -3.2100 H   0  0  0  0  0  0  0  0  0  0  0  0
    1.8932   11.3084   -1.7873 H   0  0  0  0  0  0  0  0  0  0  0  0
    0.3095   10.3280   -3.5672 H   0  0  0  0  0  0  0  0  0  0  0  0
    0.9862    9.2802   -2.2133 H   0  0  0  0  0  0  0  0  0  0  0  0
   -1.5538    8.9161   -2.8114 H   0  0  0  0  0  0  0  0  0  0  0  0
   -1.6148   11.8991   -0.0924 H   0  0  0  0  0  0  0  0  0  0  0  0
   -0.8751    9.3915    1.5390 H   0  0  0  0  0  0  0  0  0  0  0  0
   -1.0606   11.0891    2.1679 H   0  0  0  0  0  0  0  0  0  0  0  0
   -3.0257    9.6779    2.6860 H   0  0  0  0  0  0  0  0  0  0  0  0
   -3.4215   11.0722    1.6066 H   0  0  0  0  0  0  0  0  0  0  0  0
   -4.5642    9.1236    0.7971 H   0  0  0  0  0  0  0  0  0  0  0  0
   -2.0490    7.8420    0.3530 H   0  0  0  0  0  0  0  0  0  0  0  0
   -4.4401   11.3177   -0.1647 H   0  0  0  0  0  0  0  0  0  0  0  0
   -3.5353   11.5929   -1.6919 H   0  0  0  0  0  0  0  0  0  0  0  0
   -5.0036   10.5581   -1.6919 H   0  0  0  0  0  0  0  0  0  0  0  0
   -4.1299    7.6562   -1.1650 H   0  0  0  0  0  0  0  0  0  0  0  0
   -4.5581    8.8898   -2.3986 H   0  0  0  0  0  0  0  0  0  0  0  0
   -2.9212    8.1501   -2.3986 H   0  0  0  0  0  0  0  0  0  0  0  0
    1.2483   10.2437    1.5352 H   0  0  0  0  0  0  0  0  0  0  0  0
    0.9559    9.1813    0.1166 H   0  0  0  0  0  0  0  0  0  0  0  0
    2.3478   10.3168    0.1166 H   0  0  0  0  0  0  0  0  0  0  0  0
    0.1161   12.6462    1.4641 H   0  0  0  0  0  0  0  0  0  0  0  0
    1.8225   12.5781    0.7446 H   0  0  0  0  0  0  0  0  0  0  0  0
   -0.5758   14.0923   -0.3260 H   0  0  0  0  0  0  0  0  0  0  0  0
    0.9653   14.7525    0.3486 H   0  0  0  0  0  0  0  0  0  0  0  0
    2.9292   13.6852   -0.3355 H   0  0  0  0  0  0  0  0  0  0  0  0
    3.0301   12.7722   -1.8791 H   0  0  0  0  0  0  0  0  0  0  0  0
    3.2116   14.5593   -1.8791 H   0  0  0  0  0  0  0  0  0  0  0  0
  1  2  1  0
  2  3  1  0
  3  4  1  0
  4  5  1  0
  5  6  1  0
  6  7  1  0
  7  8  1  0
  7  9  1  0
  2 10  1  0
 10 11  1  0
 11 12  1  0
 12 13  1  0
 13 14  1  6
 13 15  1  0
 15 16  1  0
 16 17  1  0
 17 18  2  0
 18 19  1  0
 19 20  1  0
 20 21  1  0
 21 22  1  0
 22 23  1  0
 22 24  1  0
 24 25  1  0
 24 26  1  0
 19 27  1  0
 27 28  1  1
 27 29  1  0
 29 30  1  0
 30 31  1  0
 31 32  1  1
  7  5  1  0
 31 10  1  0
 31 13  1  0
 27 15  1  0
 24 18  1  0
  1 33  1  0
  1 34  1  0
  1 35  1  0
  2 36  1  6
  3 37  1  0
  3 38  1  0
  4 39  1  0
  4 40  1  0
  5 41  1  6
  8 42  1  0
  8 43  1  0
  8 44  1  0
  9 45  1  0
  9 46  1  0
  9 47  1  0
 10 48  1  6
 11 49  1  0
 11 50  1  0
 12 51  1  0
 12 52  1  0
 14 53  1  0
 14 54  1  0
 14 55  1  0
 15 56  1  1
 16 57  1  0
 16 58  1  0
 17 59  1  0
 19 60  1  1
 20 61  1  0
 20 62  1  0
 21 63  1  0
 21 64  1  0
 22 65  1  1
 23 66  1  0
 25 67  1  0
 25 68  1  0
 25 69  1  0
 26 70  1  0
 26 71  1  0
 26 72  1  0
 28 73  1  0
 28 74  1  0
 28 75  1  0
 29 76  1  0
 29 77  1  0
 30 78  1  0
 30 79  1  0
 32 80  1  0
 32 81  1  0
 32 82  1  0
M  END
>  <meeko>  (11) 
{"is_sidechain": [false], "intermolecular_energy": 2.731, "internal_energy": -0.839}

$$$$
EPH_relaxed_0001_pdb2pqr_Repair_374_r2_0001_out
     RDKit          3D

 82 86  0  0  0  0  0  0  0  0999 V2000
   -1.2220   16.4620   -5.9330 C   0  0  0  0  0  0  0  0  0  0  0  0
   -0.0180   15.7380   -6.5430 C   0  0  2  0  0  0  0  0  0  0  0  0
   -0.2560   15.3550   -8.0170 C   0  0  0  0  0  0  0  0  0  0  0  0
    0.3340   16.3540   -9.0160 C   0  0  0  0  0  0  0  0  0  0  0  0
    1.7570   16.0260   -9.3530 C   0  0  2  0  0  0  0  0  0  0  0  0
    2.2610   16.6810  -10.5240 O   0  0  0  0  0  0  0  0  0  0  0  0
    2.1660   15.2490  -10.5900 C   0  0  0  0  0  0  0  0  0  0  0  0
    1.1500   14.7510  -11.5700 C   0  0  0  0  0  0  0  0  0  0  0  0
    3.4930   14.5570  -10.5940 C   0  0  0  0  0  0  0  0  0  0  0  0
    0.3080   14.4930   -5.7270 C   0  0  1  0  0  0  0  0  0  0  0  0
    1.3380   13.5690   -6.4310 C   0  0  0  0  0  0  0  0  0  0  0  0
    2.2110   12.9410   -5.3150 C   0  0  0  0  0  0  0  0  0  0  0  0
    1.4540   13.2550   -4.0040 C   0  0  1  0  0  0  0  0  0  0  0  0
    0.3360   12.1690   -3.9150 C   0  0  0  0  0  0  0  0  0  0  0  0
    2.3180   13.3020   -2.7010 C   0  0  2  0  0  0  0  0  0  0  0  0
    3.0050   11.9770   -2.3260 C   0  0  0  0  0  0  0  0  0  0  0  0
    2.2140   11.0780   -1.4340 C   0  0  0  0  0  0  0  0  0  0  0  0
    1.1290   11.4390   -0.7240 C   0  0  0  0  0  0  0  0  0  0  0  0
    0.6520   12.8970   -0.7010 C   0  0  1  0  0  0  0  0  0  0  0  0
    0.3460   13.3180    0.7600 C   0  0  0  0  0  0  0  0  0  0  0  0
   -0.6330   12.3730    1.4490 C   0  0  0  0  0  0  0  0  0  0  0  0
   -0.0960   10.9440    1.4580 C   0  0  2  0  0  0  0  0  0  0  0  0
    1.0640   10.8920    2.2940 O   0  0  0  0  0  0  0  0  0  0  0  0
    0.2570   10.4130    0.0400 C   0  0  0  0  0  0  0  0  0  0  0  0
   -1.0440   10.1840   -0.7680 C   0  0  0  0  0  0  0  0  0  0  0  0
    0.9180    9.0180    0.2040 C   0  0  0  0  0  0  0  0  0  0  0  0
    1.5800   13.9420   -1.4570 C   0  0  1  0  0  0  0  0  0  0  0  0
    2.6940   14.4570   -0.4950 C   0  0  0  0  0  0  0  0  0  0  0  0
    0.7200   15.2000   -1.8530 C   0  0  0  0  0  0  0  0  0  0  0  0
   -0.0140   15.1420   -3.2070 C   0  0  0  0  0  0  0  0  0  0  0  0
    0.9350   14.7040   -4.3260 C   0  0  2  0  0  0  0  0  0  0  0  0
    2.0580   15.7890   -4.4530 C   0  0  0  0  0  0  0  0  0  0  0  0
   -1.1563   16.4225   -4.8357 H   0  0  0  0  0  0  0  0  0  0  0  0
   -1.2244   17.5115   -6.2626 H   0  0  0  0  0  0  0  0  0  0  0  0
   -2.1501   15.9720   -6.2626 H   0  0  0  0  0  0  0  0  0  0  0  0
    0.8341   16.4332   -6.5166 H   0  0  0  0  0  0  0  0  0  0  0  0
    0.2016   14.3713   -8.1983 H   0  0  0  0  0  0  0  0  0  0  0  0
   -1.3445   15.3474   -8.1752 H   0  0  0  0  0  0  0  0  0  0  0  0
   -0.2650   16.3318   -9.9383 H   0  0  0  0  0  0  0  0  0  0  0  0
    0.3121   17.3528   -8.5557 H   0  0  0  0  0  0  0  0  0  0  0  0
    2.0052   15.9022   -8.2885 H   0  0  0  0  0  0  0  0  0  0  0  0
    0.2915   14.3302  -11.0261 H   0  0  0  0  0  0  0  0  0  0  0  0
    0.8107   15.5849  -12.2020 H   0  0  0  0  0  0  0  0  0  0  0  0
    1.6013   13.9720  -12.2020 H   0  0  0  0  0  0  0  0  0  0  0  0
    3.8206   14.3862   -9.5579 H   0  0  0  0  0  0  0  0  0  0  0  0
    3.4016   13.5917  -11.1135 H   0  0  0  0  0  0  0  0  0  0  0  0
    4.2322   15.1845  -11.1135 H   0  0  0  0  0  0  0  0  0  0  0  0
   -0.7023   14.0696   -5.6268 H   0  0  0  0  0  0  0  0  0  0  0  0
    0.8170   12.7802   -6.9934 H   0  0  0  0  0  0  0  0  0  0  0  0
    1.9552   14.1360   -7.1434 H   0  0  0  0  0  0  0  0  0  0  0  0
    2.3032   11.8544   -5.4594 H   0  0  0  0  0  0  0  0  0  0  0  0
    3.2353   13.3421   -5.3114 H   0  0  0  0  0  0  0  0  0  0  0  0
    0.1158   11.9551   -2.8587 H   0  0  0  0  0  0  0  0  0  0  0  0
   -0.5736   12.5376   -4.4118 H   0  0  0  0  0  0  0  0  0  0  0  0
    0.6780   11.2491   -4.4118 H   0  0  0  0  0  0  0  0  0  0  0  0
    3.1289   13.9909   -2.9802 H   0  0  0  0  0  0  0  0  0  0  0  0
    3.2191   11.4301   -3.2561 H   0  0  0  0  0  0  0  0  0  0  0  0
    3.9065   12.2518   -1.7587 H   0  0  0  0  0  0  0  0  0  0  0  0
    2.5460   10.0326   -1.3501 H   0  0  0  0  0  0  0  0  0  0  0  0
   -0.2713   12.9251   -1.2982 H   0  0  0  0  0  0  0  0  0  0  0  0
    1.2874   13.3264    1.3289 H   0  0  0  0  0  0  0  0  0  0  0  0
   -0.1180   14.3149    0.7296 H   0  0  0  0  0  0  0  0  0  0  0  0
   -0.7864   12.7066    2.4859 H   0  0  0  0  0  0  0  0  0  0  0  0
   -1.5838   12.3877    0.8961 H   0  0  0  0  0  0  0  0  0  0  0  0
   -0.8943   10.2944    1.8463 H   0  0  0  0  0  0  0  0  0  0  0  0
    1.8430   10.8600    1.7140 H   0  0  0  0  0  0  0  0  0  0  0  0
   -1.8850   10.0360   -0.0746 H   0  0  0  0  0  0  0  0  0  0  0  0
   -1.2413   11.0612   -1.4017 H   0  0  0  0  0  0  0  0  0  0  0  0
   -0.9299    9.2921   -1.4017 H   0  0  0  0  0  0  0  0  0  0  0  0
    1.0272    8.7875    1.2740 H   0  0  0  0  0  0  0  0  0  0  0  0
    0.2859    8.2544   -0.2729 H   0  0  0  0  0  0  0  0  0  0  0  0
    1.9092    9.0236   -0.2729 H   0  0  0  0  0  0  0  0  0  0  0  0
    2.3752   14.3096    0.5474 H   0  0  0  0  0  0  0  0  0  0  0  0
    3.6232   13.8971   -0.6769 H   0  0  0  0  0  0  0  0  0  0  0  0
    2.8694   15.5276   -0.6769 H   0  0  0  0  0  0  0  0  0  0  0  0
   -0.0383   15.3447   -1.0694 H   0  0  0  0  0  0  0  0  0  0  0  0
    1.4430   16.0230   -1.9527 H   0  0  0  0  0  0  0  0  0  0  0  0
   -0.8433   14.4228   -3.1363 H   0  0  0  0  0  0  0  0  0  0  0  0
   -0.3949   16.1466   -3.4430 H   0  0  0  0  0  0  0  0  0  0  0  0
    2.3813   16.1013   -3.4490 H   0  0  0  0  0  0  0  0  0  0  0  0
    2.9147   15.3678   -4.9996 H   0  0  0  0  0  0  0  0  0  0  0  0
    1.6665   16.6596   -4.9996 H   0  0  0  0  0  0  0  0  0  0  0  0
  1  2  1  0
  2  3  1  0
  3  4  1  0
  4  5  1  0
  5  6  1  0
  6  7  1  0
  7  8  1  0
  7  9  1  0
  2 10  1  0
 10 11  1  0
 11 12  1  0
 12 13  1  0
 13 14  1  1
 13 15  1  0
 15 16  1  0
 16 17  1  0
 17 18  2  0
 18 19  1  0
 19 20  1  0
 20 21  1  0
 21 22  1  0
 22 23  1  0
 22 24  1  0
 24 25  1  0
 24 26  1  0
 19 27  1  0
 27 28  1  1
 27 29  1  0
 29 30  1  0
 30 31  1  0
 31 32  1  6
  7  5  1  0
 31 10  1  0
 31 13  1  0
 27 15  1  0
 24 18  1  0
  1 33  1  0
  1 34  1  0
  1 35  1  0
  2 36  1  6
  3 37  1  0
  3 38  1  0
  4 39  1  0
  4 40  1  0
  5 41  1  1
  8 42  1  0
  8 43  1  0
  8 44  1  0
  9 45  1  0
  9 46  1  0
  9 47  1  0
 10 48  1  1
 11 49  1  0
 11 50  1  0
 12 51  1  0
 12 52  1  0
 14 53  1  0
 14 54  1  0
 14 55  1  0
 15 56  1  6
 16 57  1  0
 16 58  1  0
 17 59  1  0
 19 60  1  6
 20 61  1  0
 20 62  1  0
 21 63  1  0
 21 64  1  0
 22 65  1  1
 23 66  1  0
 25 67  1  0
 25 68  1  0
 25 69  1  0
 26 70  1  0
 26 71  1  0
 26 72  1  0
 28 73  1  0
 28 74  1  0
 28 75  1  0
 29 76  1  0
 29 77  1  0
 30 78  1  0
 30 79  1  0
 32 80  1  0
 32 81  1  0
 32 82  1  0
M  END
>  <meeko>  (12) 
{"is_sidechain": [false], "intermolecular_energy": 2.731, "internal_energy": -0.839}

$$$$
EPH_relaxed_0001_pdb2pqr_Repair_374_r2_0001_out
     RDKit          3D

 82 86  0  0  0  0  0  0  0  0999 V2000
   -0.2840   15.0130   -7.6200 C   0  0  0  0  0  0  0  0  0  0  0  0
    1.0740   15.0080   -6.9140 C   0  0  2  0  0  0  0  0  0  0  0  0
    2.2470   15.0970   -7.9110 C   0  0  0  0  0  0  0  0  0  0  0  0
    2.3060   16.4210   -8.6760 C   0  0  0  0  0  0  0  0  0  0  0  0
    1.8830   16.2560  -10.1040 C   0  0  2  0  0  0  0  0  0  0  0  0
    1.1980   15.0290  -10.3870 O   0  0  0  0  0  0  0  0  0  0  0  0
    2.4680   15.2100  -11.0340 C   0  0  0  0  0  0  0  0  0  0  0  0
    3.5280   14.2590  -10.5710 C   0  0  0  0  0  0  0  0  0  0  0  0
    2.3670   15.4280  -12.5110 C   0  0  0  0  0  0  0  0  0  0  0  0
    1.2110   13.7540   -6.0590 C   0  0  1  0  0  0  0  0  0  0  0  0
    2.6480   13.1680   -6.0820 C   0  0  0  0  0  0  0  0  0  0  0  0
    2.9150   12.5820   -4.6720 C   0  0  0  0  0  0  0  0  0  0  0  0
    1.5250   12.5490   -3.9940 C   0  0  1  0  0  0  0  0  0  0  0  0
    0.8430   11.2560   -4.5400 C   0  0  0  0  0  0  0  0  0  0  0  0
    1.5180   12.5890   -2.4310 C   0  0  2  0  0  0  0  0  0  0  0  0
    2.2020   11.3930   -1.7440 C   0  0  0  0  0  0  0  0  0  0  0  0
    1.3090   10.2370   -1.4390 C   0  0  0  0  0  0  0  0  0  0  0  0
   -0.0370   10.2650   -1.4430 C   0  0  0  0  0  0  0  0  0  0  0  0
   -0.7960   11.5770   -1.6820 C   0  0  1  0  0  0  0  0  0  0  0  0
   -1.9270   11.7190   -0.6300 C   0  0  0  0  0  0  0  0  0  0  0  0
   -2.8530   10.5060   -0.5980 C   0  0  0  0  0  0  0  0  0  0  0  0
   -2.0690    9.2300   -0.3000 C   0  0  2  0  0  0  0  0  0  0  0  0
   -1.5640    9.3010    1.0360 O   0  0  0  0  0  0  0  0  0  0  0  0
   -0.8970    8.9860   -1.2910 C   0  0  0  0  0  0  0  0  0  0  0  0
   -1.4610    8.6110   -2.6830 C   0  0  0  0  0  0  0  0  0  0  0  0
   -0.1040    7.7470   -0.7950 C   0  0  0  0  0  0  0  0  0  0  0  0
    0.0990   12.8850   -1.7970 C   0  0  1  0  0  0  0  0  0  0  0  0
    0.3600   13.4770   -0.3780 C   0  0  0  0  0  0  0  0  0  0  0  0
   -0.6970   13.9830   -2.5960 C   0  0  0  0  0  0  0  0  0  0  0  0
   -0.5540   13.9660   -4.1300 C   0  0  0  0  0  0  0  0  0  0  0  0
    0.9190   13.8910   -4.5430 C   0  0  2  0  0  0  0  0  0  0  0  0
    1.6270   15.1900   -4.0260 C   0  0  0  0  0  0  0  0  0  0  0  0
   -1.0877   15.0160   -6.8690 H   0  0  0  0  0  0  0  0  0  0  0  0
   -0.3668   15.9115   -8.2492 H   0  0  0  0  0  0  0  0  0  0  0  0
   -0.3734   14.1152   -8.2492 H   0  0  0  0  0  0  0  0  0  0  0  0
    1.1170   15.9010   -6.2732 H   0  0  0  0  0  0  0  0  0  0  0  0
    3.1871   14.9765   -7.3526 H   0  0  0  0  0  0  0  0  0  0  0  0
    2.0961   14.3020   -8.6562 H   0  0  0  0  0  0  0  0  0  0  0  0
    1.6371   17.1449   -8.1876 H   0  0  0  0  0  0  0  0  0  0  0  0
    3.3469   16.7765   -8.6659 H   0  0  0  0  0  0  0  0  0  0  0  0
    1.7393   17.3412  -10.2117 H   0  0  0  0  0  0  0  0  0  0  0  0
    3.5489   14.2403   -9.4714 H   0  0  0  0  0  0  0  0  0  0  0  0
    3.3071   13.2505  -10.9508 H   0  0  0  0  0  0  0  0  0  0  0  0
    4.5067   14.5876  -10.9508 H   0  0  0  0  0  0  0  0  0  0  0  0
    1.9119   16.4102  -12.7064 H   0  0  0  0  0  0  0  0  0  0  0  0
    3.3723   15.3946  -12.9562 H   0  0  0  0  0  0  0  0  0  0  0  0
    1.7425   14.6395  -12.9562 H   0  0  0  0  0  0  0  0  0  0  0  0
    0.4455   13.1231   -6.5345 H   0  0  0  0  0  0  0  0  0  0  0  0
    2.7218   12.3758   -6.8416 H   0  0  0  0  0  0  0  0  0  0  0  0
    3.3866   13.9433   -6.3337 H   0  0  0  0  0  0  0  0  0  0  0  0
    3.3352   11.5681   -4.7460 H   0  0  0  0  0  0  0  0  0  0  0  0
    3.6428   13.1790   -4.1029 H   0  0  0  0  0  0  0  0  0  0  0  0
    0.5135   10.6312   -3.6968 H   0  0  0  0  0  0  0  0  0  0  0  0
   -0.0270   11.5317   -5.1541 H   0  0  0  0  0  0  0  0  0  0  0  0
    1.5618   10.6936   -5.1541 H   0  0  0  0  0  0  0  0  0  0  0  0
    2.1529   13.4608   -2.2146 H   0  0  0  0  0  0  0  0  0  0  0  0
    3.0063   11.0363   -2.4042 H   0  0  0  0  0  0  0  0  0  0  0  0
    2.5613   11.7645   -0.7730 H   0  0  0  0  0  0  0  0  0  0  0  0
    1.7916    9.2805   -1.1897 H   0  0  0  0  0  0  0  0  0  0  0  0
   -1.2308   11.4981   -2.6893 H   0  0  0  0  0  0  0  0  0  0  0  0
   -1.4710   11.8407    0.3636 H   0  0  0  0  0  0  0  0  0  0  0  0
   -2.5329   12.5941   -0.9076 H   0  0  0  0  0  0  0  0  0  0  0  0
   -3.6124   10.6531    0.1841 H   0  0  0  0  0  0  0  0  0  0  0  0
   -3.3313   10.4027   -1.5832 H   0  0  0  0  0  0  0  0  0  0  0  0
   -2.7601    8.3824   -0.4180 H   0  0  0  0  0  0  0  0  0  0  0  0
   -2.1340    9.9110    1.5350 H   0  0  0  0  0  0  0  0  0  0  0  0
   -2.3712    8.0058   -2.5590 H   0  0  0  0  0  0  0  0  0  0  0  0
   -1.7036    9.5283   -3.2396 H   0  0  0  0  0  0  0  0  0  0  0  0
   -0.7090    8.0324   -3.2396 H   0  0  0  0  0  0  0  0  0  0  0  0
   -0.0953    7.7334    0.3049 H   0  0  0  0  0  0  0  0  0  0  0  0
   -0.5839    6.8306   -1.1692 H   0  0  0  0  0  0  0  0  0  0  0  0
    0.9291    7.7990   -1.1692 H   0  0  0  0  0  0  0  0  0  0  0  0
    0.0407   12.7527    0.3859 H   0  0  0  0  0  0  0  0  0  0  0  0
    1.4335   13.6856   -0.2595 H   0  0  0  0  0  0  0  0  0  0  0  0
   -0.2101   14.4102   -0.2595 H   0  0  0  0  0  0  0  0  0  0  0  0
   -1.7641   13.8584   -2.3598 H   0  0  0  0  0  0  0  0  0  0  0  0
   -0.2633   14.9423   -2.2770 H   0  0  0  0  0  0  0  0  0  0  0  0
   -1.0851   13.0902   -4.5311 H   0  0  0  0  0  0  0  0  0  0  0  0
   -0.9840   14.8951   -4.5324 H   0  0  0  0  0  0  0  0  0  0  0  0
    1.6289   15.1935   -2.9260 H   0  0  0  0  0  0  0  0  0  0  0  0
    2.6631   15.2143   -4.3946 H   0  0  0  0  0  0  0  0  0  0  0  0
    1.0859   16.0740   -4.3946 H   0  0  0  0  0  0  0  0  0  0  0  0
  1  2  1  0
  2  3  1  0
  3  4  1  0
  4  5  1  0
  5  6  1  0
  6  7  1  0
  7  8  1  0
  7  9  1  0
  2 10  1  0
 10 11  1  0
 11 12  1  0
 12 13  1  0
 13 14  1  1
 13 15  1  0
 15 16  1  0
 16 17  1  0
 17 18  2  0
 18 19  1  0
 19 20  1  0
 20 21  1  0
 21 22  1  0
 22 23  1  0
 22 24  1  0
 24 25  1  0
 24 26  1  0
 19 27  1  0
 27 28  1  1
 27 29  1  0
 29 30  1  0
 30 31  1  0
 31 32  1  1
  7  5  1  0
 31 10  1  0
 31 13  1  0
 27 15  1  0
 24 18  1  0
  1 33  1  0
  1 34  1  0
  1 35  1  0
  2 36  1  1
  3 37  1  0
  3 38  1  0
  4 39  1  0
  4 40  1  0
  5 41  1  6
  8 42  1  0
  8 43  1  0
  8 44  1  0
  9 45  1  0
  9 46  1  0
  9 47  1  0
 10 48  1  6
 11 49  1  0
 11 50  1  0
 12 51  1  0
 12 52  1  0
 14 53  1  0
 14 54  1  0
 14 55  1  0
 15 56  1  6
 16 57  1  0
 16 58  1  0
 17 59  1  0
 19 60  1  6
 20 61  1  0
 20 62  1  0
 21 63  1  0
 21 64  1  0
 22 65  1  1
 23 66  1  0
 25 67  1  0
 25 68  1  0
 25 69  1  0
 26 70  1  0
 26 71  1  0
 26 72  1  0
 28 73  1  0
 28 74  1  0
 28 75  1  0
 29 76  1  0
 29 77  1  0
 30 78  1  0
 30 79  1  0
 32 80  1  0
 32 81  1  0
 32 82  1  0
M  END
>  <meeko>  (13) 
{"is_sidechain": [false], "intermolecular_energy": 2.731, "internal_energy": -0.839}

$$$$
EPH_relaxed_0001_pdb2pqr_Repair_374_r2_0001_out
     RDKit          3D

 82 86  0  0  0  0  0  0  0  0999 V2000
   -0.4680   10.3980   -3.5300 C   0  0  0  0  0  0  0  0  0  0  0  0
    0.6580   10.1660   -2.5190 C   0  0  2  0  0  0  0  0  0  0  0  0
    0.3940    8.9360   -1.6280 C   0  0  0  0  0  0  0  0  0  0  0  0
    0.0680    9.2880   -0.1740 C   0  0  0  0  0  0  0  0  0  0  0  0
   -1.1550   10.1490   -0.0720 C   0  0  2  0  0  0  0  0  0  0  0  0
   -2.0330    9.8160    1.0110 O   0  0  0  0  0  0  0  0  0  0  0  0
   -2.5620    9.6350   -0.3120 C   0  0  0  0  0  0  0  0  0  0  0  0
   -2.8200    8.2050   -0.6730 C   0  0  0  0  0  0  0  0  0  0  0  0
   -3.6310   10.6180   -0.6740 C   0  0  0  0  0  0  0  0  0  0  0  0
    0.8430   11.4070   -1.6530 C   0  0  1  0  0  0  0  0  0  0  0  0
    1.9730   11.2390   -0.6030 C   0  0  0  0  0  0  0  0  0  0  0  0
    2.6500   12.6260   -0.4490 C   0  0  0  0  0  0  0  0  0  0  0  0
    1.6880   13.6100   -1.1550 C   0  0  1  0  0  0  0  0  0  0  0  0
    0.5690   13.8990   -0.1060 C   0  0  0  0  0  0  0  0  0  0  0  0
    2.3260   14.9300   -1.6980 C   0  0  2  0  0  0  0  0  0  0  0  0
    2.9400   15.8470   -0.6260 C   0  0  0  0  0  0  0  0  0  0  0  0
    2.0120   16.8640   -0.0490 C   0  0  0  0  0  0  0  0  0  0  0  0
    0.8250   17.2260   -0.5710 C   0  0  0  0  0  0  0  0  0  0  0  0
    0.3520   16.6620   -1.9170 C   0  0  1  0  0  0  0  0  0  0  0  0
   -0.1890   17.8160   -2.8010 C   0  0  0  0  0  0  0  0  0  0  0  0
   -1.2690   18.6330   -2.0990 C   0  0  0  0  0  0  0  0  0  0  0  0
   -0.7440   19.2250   -0.7940 C   0  0  2  0  0  0  0  0  0  0  0  0
    0.2630   20.1940   -1.1000 O   0  0  0  0  0  0  0  0  0  0  0  0
   -0.1630   18.1560    0.1740 C   0  0  0  0  0  0  0  0  0  0  0  0
   -1.3140   17.2890    0.7420 C   0  0  0  0  0  0  0  0  0  0  0  0
    0.4600   18.8990    1.3870 C   0  0  0  0  0  0  0  0  0  0  0  0
    1.3940   15.7410   -2.6870 C   0  0  1  0  0  0  0  0  0  0  0  0
    2.3360   16.6210   -3.5650 C   0  0  0  0  0  0  0  0  0  0  0  0
    0.6130   14.8000   -3.6800 C   0  0  0  0  0  0  0  0  0  0  0  0
    0.1120   13.4570   -3.1150 C   0  0  0  0  0  0  0  0  0  0  0  0
    1.2310   12.7230   -2.3710 C   0  0  2  0  0  0  0  0  0  0  0  0
    2.3620   12.3990   -3.4060 C   0  0  0  0  0  0  0  0  0  0  0  0
   -1.4085   10.5918   -2.9933 H   0  0  0  0  0  0  0  0  0  0  0  0
   -0.2210   11.2641   -4.1615 H   0  0  0  0  0  0  0  0  0  0  0  0
   -0.5835    9.5048   -4.1615 H   0  0  0  0  0  0  0  0  0  0  0  0
    1.5785    9.9695   -3.0882 H   0  0  0  0  0  0  0  0  0  0  0  0
   -0.4553    8.3780   -2.0491 H   0  0  0  0  0  0  0  0  0  0  0  0
    1.3206    8.3433   -1.6153 H   0  0  0  0  0  0  0  0  0  0  0  0
   -0.1030    8.3580    0.3880 H   0  0  0  0  0  0  0  0  0  0  0  0
    0.9178    9.8495    0.2414 H   0  0  0  0  0  0  0  0  0  0  0  0
   -0.6075   11.0151   -0.4722 H   0  0  0  0  0  0  0  0  0  0  0  0
   -2.9276    7.6087    0.2451 H   0  0  0  0  0  0  0  0  0  0  0  0
   -3.7449    8.1373   -1.2647 H   0  0  0  0  0  0  0  0  0  0  0  0
   -1.9771    7.8184   -1.2647 H   0  0  0  0  0  0  0  0  0  0  0  0
   -4.0775   11.0286    0.2436 H   0  0  0  0  0  0  0  0  0  0  0  0
   -3.1926   11.4350   -1.2658 H   0  0  0  0  0  0  0  0  0  0  0  0
   -4.4085   10.1128   -1.2658 H   0  0  0  0  0  0  0  0  0  0  0  0
   -0.1703   11.4926   -1.2335 H   0  0  0  0  0  0  0  0  0  0  0  0
    1.5507   10.9146    0.3595 H   0  0  0  0  0  0  0  0  0  0  0  0
    2.6998   10.4779   -0.9231 H   0  0  0  0  0  0  0  0  0  0  0  0
    2.7622   12.8876    0.6135 H   0  0  0  0  0  0  0  0  0  0  0  0
    3.6608   12.6474   -0.8825 H   0  0  0  0  0  0  0  0  0  0  0  0
    0.9810   13.7926    0.9084 H   0  0  0  0  0  0  0  0  0  0  0  0
    0.1933   14.9237   -0.2435 H   0  0  0  0  0  0  0  0  0  0  0  0
   -0.2559   13.1844   -0.2435 H   0  0  0  0  0  0  0  0  0  0  0  0
    3.1730   14.5558   -2.2917 H   0  0  0  0  0  0  0  0  0  0  0  0
    3.3030   15.2129    0.1963 H   0  0  0  0  0  0  0  0  0  0  0  0
    3.7367   16.4136   -1.1303 H   0  0  0  0  0  0  0  0  0  0  0  0
    2.3246   17.3598    0.8818 H   0  0  0  0  0  0  0  0  0  0  0  0
   -0.4608   15.9586   -1.6832 H   0  0  0  0  0  0  0  0  0  0  0  0
    0.6462   18.4836   -3.0595 H   0  0  0  0  0  0  0  0  0  0  0  0
   -0.6402   17.3665   -3.6979 H   0  0  0  0  0  0  0  0  0  0  0  0
   -1.5897   19.4503   -2.7616 H   0  0  0  0  0  0  0  0  0  0  0  0
   -2.1158   17.9701   -1.8679 H   0  0  0  0  0  0  0  0  0  0  0  0
   -1.5965   19.6877   -0.2752 H   0  0  0  0  0  0  0  0  0  0  0  0
    0.2610   20.3270   -2.0630 H   0  0  0  0  0  0  0  0  0  0  0  0
   -1.2827   17.3126    1.8413 H   0  0  0  0  0  0  0  0  0  0  0  0
   -2.2787   17.6867    0.3940 H   0  0  0  0  0  0  0  0  0  0  0  0
   -1.1980   16.2520    0.3940 H   0  0  0  0  0  0  0  0  0  0  0  0
    0.0866   18.4537    2.3210 H   0  0  0  0  0  0  0  0  0  0  0  0
    1.5556   18.8077    1.3496 H   0  0  0  0  0  0  0  0  0  0  0  0
    0.1791   19.9619    1.3496 H   0  0  0  0  0  0  0  0  0  0  0  0
    2.9841   17.2264   -2.9142 H   0  0  0  0  0  0  0  0  0  0  0  0
    2.9573   15.9723   -4.2000 H   0  0  0  0  0  0  0  0  0  0  0  0
    1.7310   17.2849   -4.2000 H   0  0  0  0  0  0  0  0  0  0  0  0
   -0.2636   15.3554   -4.0448 H   0  0  0  0  0  0  0  0  0  0  0  0
    1.3440   14.5309   -4.4567 H   0  0  0  0  0  0  0  0  0  0  0  0
   -0.7184   13.6469   -2.4190 H   0  0  0  0  0  0  0  0  0  0  0  0
   -0.2234   12.8277   -3.9526 H   0  0  0  0  0  0  0  0  0  0  0  0
    3.2852   12.1345   -2.8695 H   0  0  0  0  0  0  0  0  0  0  0  0
    2.0500   11.5541   -4.0375 H   0  0  0  0  0  0  0  0  0  0  0  0
    2.5447   13.2809   -4.0375 H   0  0  0  0  0  0  0  0  0  0  0  0
  1  2  1  0
  2  3  1  0
  3  4  1  0
  4  5  1  0
  5  6  1  0
  6  7  1  0
  7  8  1  0
  7  9  1  0
  2 10  1  0
 10 11  1  0
 11 12  1  0
 12 13  1  0
 13 14  1  1
 13 15  1  0
 15 16  1  0
 16 17  1  0
 17 18  2  0
 18 19  1  0
 19 20  1  0
 20 21  1  0
 21 22  1  0
 22 23  1  0
 22 24  1  0
 24 25  1  0
 24 26  1  0
 19 27  1  0
 27 28  1  6
 27 29  1  0
 29 30  1  0
 30 31  1  0
 31 32  1  6
  7  5  1  0
 31 10  1  0
 31 13  1  0
 27 15  1  0
 24 18  1  0
  1 33  1  0
  1 34  1  0
  1 35  1  0
  2 36  1  6
  3 37  1  0
  3 38  1  0
  4 39  1  0
  4 40  1  0
  5 41  1  1
  8 42  1  0
  8 43  1  0
  8 44  1  0
  9 45  1  0
  9 46  1  0
  9 47  1  0
 10 48  1  1
 11 49  1  0
 11 50  1  0
 12 51  1  0
 12 52  1  0
 14 53  1  0
 14 54  1  0
 14 55  1  0
 15 56  1  6
 16 57  1  0
 16 58  1  0
 17 59  1  0
 19 60  1  1
 20 61  1  0
 20 62  1  0
 21 63  1  0
 21 64  1  0
 22 65  1  1
 23 66  1  0
 25 67  1  0
 25 68  1  0
 25 69  1  0
 26 70  1  0
 26 71  1  0
 26 72  1  0
 28 73  1  0
 28 74  1  0
 28 75  1  0
 29 76  1  0
 29 77  1  0
 30 78  1  0
 30 79  1  0
 32 80  1  0
 32 81  1  0
 32 82  1  0
M  END
>  <meeko>  (14) 
{"is_sidechain": [false], "intermolecular_energy": 2.731, "internal_energy": -0.839}

$$$$
EPH_relaxed_0001_pdb2pqr_Repair_374_r2_0001_out
     RDKit          3D

 82 86  0  0  0  0  0  0  0  0999 V2000
    2.9960   18.6760   -1.4280 C   0  0  0  0  0  0  0  0  0  0  0  0
    2.5710   17.5780   -2.4070 C   0  0  2  0  0  0  0  0  0  0  0  0
    1.1710   17.8380   -2.9990 C   0  0  0  0  0  0  0  0  0  0  0  0
    0.5590   19.1740   -2.5690 C   0  0  0  0  0  0  0  0  0  0  0  0
   -0.7310   18.9810   -1.8310 C   0  0  2  0  0  0  0  0  0  0  0  0
   -1.4390   20.1920   -1.5350 O   0  0  0  0  0  0  0  0  0  0  0  0
   -0.9570   19.4470   -0.4050 C   0  0  0  0  0  0  0  0  0  0  0  0
    0.1180   20.1420    0.3690 C   0  0  0  0  0  0  0  0  0  0  0  0
   -2.0430   18.7980    0.3960 C   0  0  0  0  0  0  0  0  0  0  0  0
    2.5990   16.2230   -1.7110 C   0  0  1  0  0  0  0  0  0  0  0  0
    3.0220   16.3240   -0.2210 C   0  0  0  0  0  0  0  0  0  0  0  0
    2.2190   15.2430    0.5470 C   0  0  0  0  0  0  0  0  0  0  0  0
    1.6180   14.3450   -0.5590 C   0  0  1  0  0  0  0  0  0  0  0  0
    2.7750   13.3780   -0.9630 C   0  0  0  0  0  0  0  0  0  0  0  0
    0.3170   13.5630   -0.1830 C   0  0  2  0  0  0  0  0  0  0  0  0
    0.4750   12.5460    0.9610 C   0  0  0  0  0  0  0  0  0  0  0  0
    0.8470   11.1630    0.5380 C   0  0  0  0  0  0  0  0  0  0  0  0
    0.7700   10.6820   -0.7170 C   0  0  0  0  0  0  0  0  0  0  0  0
    0.1760   11.5280   -1.8500 C   0  0  1  0  0  0  0  0  0  0  0  0
   -0.8190   10.6670   -2.6720 C   0  0  0  0  0  0  0  0  0  0  0  0
   -0.1920    9.3720   -3.1780 C   0  0  0  0  0  0  0  0  0  0  0  0
    0.3340    8.5310   -2.0180 C   0  0  2  0  0  0  0  0  0  0  0  0
   -0.7750    8.0830   -1.2330 O   0  0  0  0  0  0  0  0  0  0  0  0
    1.3390    9.2970   -1.1130 C   0  0  0  0  0  0  0  0  0  0  0  0
    2.6660    9.5180   -1.8800 C   0  0  0  0  0  0  0  0  0  0  0  0
    1.6840    8.3860    0.0960 C   0  0  0  0  0  0  0  0  0  0  0  0
   -0.4390   12.9290   -1.4200 C   0  0  1  0  0  0  0  0  0  0  0  0
   -1.9260   12.7470   -0.9880 C   0  0  0  0  0  0  0  0  0  0  0  0
   -0.4530   13.8890   -2.6680 C   0  0  0  0  0  0  0  0  0  0  0  0
    0.8180   14.7230   -2.9180 C   0  0  0  0  0  0  0  0  0  0  0  0
    1.2670   15.4330   -1.6370 C   0  0  2  0  0  0  0  0  0  0  0  0
    0.1330   16.4290   -1.2190 C   0  0  0  0  0  0  0  0  0  0  0  0
    2.8584   18.3206   -0.3961 H   0  0  0  0  0  0  0  0  0  0  0  0
    4.0550   18.9239   -1.5923 H   0  0  0  0  0  0  0  0  0  0  0  0
    2.3799   19.5723   -1.5923 H   0  0  0  0  0  0  0  0  0  0  0  0
    3.2878   17.5823   -3.2414 H   0  0  0  0  0  0  0  0  0  0  0  0
    1.2509   17.8298   -4.0961 H   0  0  0  0  0  0  0  0  0  0  0  0
    0.5096   17.0449   -2.6202 H   0  0  0  0  0  0  0  0  0  0  0  0
    1.2702   19.6971   -1.9129 H   0  0  0  0  0  0  0  0  0  0  0  0
    0.3512   19.7631   -3.4744 H   0  0  0  0  0  0  0  0  0  0  0  0
   -0.8959   18.0124   -2.3256 H   0  0  0  0  0  0  0  0  0  0  0  0
   -0.0691   20.0210    1.4462 H   0  0  0  0  0  0  0  0  0  0  0  0
    1.0944   19.7038    0.1150 H   0  0  0  0  0  0  0  0  0  0  0  0
    0.1192   21.2123    0.1150 H   0  0  0  0  0  0  0  0  0  0  0  0
   -1.8327   18.9237    1.4684 H   0  0  0  0  0  0  0  0  0  0  0  0
   -3.0078   19.2678    0.1540 H   0  0  0  0  0  0  0  0  0  0  0  0
   -2.0863   17.7258    0.1540 H   0  0  0  0  0  0  0  0  0  0  0  0
    3.3135   15.6975   -2.3616 H   0  0  0  0  0  0  0  0  0  0  0  0
    4.1013   16.1369   -0.1203 H   0  0  0  0  0  0  0  0  0  0  0  0
    2.8169   17.3274    0.1803 H   0  0  0  0  0  0  0  0  0  0  0  0
    2.8818   14.6599    1.2033 H   0  0  0  0  0  0  0  0  0  0  0  0
    1.4457   15.6800    1.1959 H   0  0  0  0  0  0  0  0  0  0  0  0
    3.2527   12.9788   -0.0561 H   0  0  0  0  0  0  0  0  0  0  0  0
    2.3678   12.5478   -1.5588 H   0  0  0  0  0  0  0  0  0  0  0  0
    3.5198   13.9261   -1.5588 H   0  0  0  0  0  0  0  0  0  0  0  0
   -0.3308   14.3593    0.2123 H   0  0  0  0  0  0  0  0  0  0  0  0
    1.2579   12.9162    1.6392 H   0  0  0  0  0  0  0  0  0  0  0  0
   -0.5147   12.4638    1.4340 H   0  0  0  0  0  0  0  0  0  0  0  0
    1.2149   10.4797    1.3176 H   0  0  0  0  0  0  0  0  0  0  0  0
    1.0240   11.8257   -2.4843 H   0  0  0  0  0  0  0  0  0  0  0  0
   -1.6793   10.4165   -2.0339 H   0  0  0  0  0  0  0  0  0  0  0  0
   -1.1240   11.2557   -3.5498 H   0  0  0  0  0  0  0  0  0  0  0  0
   -0.9511    8.7946   -3.7260 H   0  0  0  0  0  0  0  0  0  0  0  0
    0.6503    9.6245   -3.8388 H   0  0  0  0  0  0  0  0  0  0  0  0
    0.8841    7.6816   -2.4492 H   0  0  0  0  0  0  0  0  0  0  0  0
   -1.4450    8.7870   -1.2400 H   0  0  0  0  0  0  0  0  0  0  0  0
    3.4869    9.6547   -1.1607 H   0  0  0  0  0  0  0  0  0  0  0  0
    2.8744    8.6422   -2.5121 H   0  0  0  0  0  0  0  0  0  0  0  0
    2.5793   10.4141   -2.5121 H   0  0  0  0  0  0  0  0  0  0  0  0
    1.4795    8.9261    1.0322 H   0  0  0  0  0  0  0  0  0  0  0  0
    1.0685    7.4752    0.0562 H   0  0  0  0  0  0  0  0  0  0  0  0
    2.7484    8.1113    0.0562 H   0  0  0  0  0  0  0  0  0  0  0  0
   -1.9905   12.7391    0.1101 H   0  0  0  0  0  0  0  0  0  0  0  0
   -2.5274   13.5782   -1.3846 H   0  0  0  0  0  0  0  0  0  0  0  0
   -2.3092   11.7953   -1.3846 H   0  0  0  0  0  0  0  0  0  0  0  0
   -0.6263   13.2709   -3.5612 H   0  0  0  0  0  0  0  0  0  0  0  0
   -1.2426   14.6249   -2.4559 H   0  0  0  0  0  0  0  0  0  0  0  0
    1.6235   14.0575   -3.2621 H   0  0  0  0  0  0  0  0  0  0  0  0
    0.5950   15.4831   -3.6813 H   0  0  0  0  0  0  0  0  0  0  0  0
    0.0755   16.4795   -0.1217 H   0  0  0  0  0  0  0  0  0  0  0  0
    0.3562   17.4283   -1.6209 H   0  0  0  0  0  0  0  0  0  0  0  0
   -0.8292   16.0787   -1.6209 H   0  0  0  0  0  0  0  0  0  0  0  0
  1  2  1  0
  2  3  1  0
  3  4  1  0
  4  5  1  0
  5  6  1  0
  6  7  1  0
  7  8  1  0
  7  9  1  0
  2 10  1  0
 10 11  1  0
 11 12  1  0
 12 13  1  0
 13 14  1  6
 13 15  1  0
 15 16  1  0
 16 17  1  0
 17 18  2  0
 18 19  1  0
 19 20  1  0
 20 21  1  0
 21 22  1  0
 22 23  1  0
 22 24  1  0
 24 25  1  0
 24 26  1  0
 19 27  1  0
 27 28  1  1
 27 29  1  0
 29 30  1  0
 30 31  1  0
 31 32  1  1
  7  5  1  0
 31 10  1  0
 31 13  1  0
 27 15  1  0
 24 18  1  0
  1 33  1  0
  1 34  1  0
  1 35  1  0
  2 36  1  6
  3 37  1  0
  3 38  1  0
  4 39  1  0
  4 40  1  0
  5 41  1  1
  8 42  1  0
  8 43  1  0
  8 44  1  0
  9 45  1  0
  9 46  1  0
  9 47  1  0
 10 48  1  6
 11 49  1  0
 11 50  1  0
 12 51  1  0
 12 52  1  0
 14 53  1  0
 14 54  1  0
 14 55  1  0
 15 56  1  1
 16 57  1  0
 16 58  1  0
 17 59  1  0
 19 60  1  6
 20 61  1  0
 20 62  1  0
 21 63  1  0
 21 64  1  0
 22 65  1  6
 23 66  1  0
 25 67  1  0
 25 68  1  0
 25 69  1  0
 26 70  1  0
 26 71  1  0
 26 72  1  0
 28 73  1  0
 28 74  1  0
 28 75  1  0
 29 76  1  0
 29 77  1  0
 30 78  1  0
 30 79  1  0
 32 80  1  0
 32 81  1  0
 32 82  1  0
M  END
>  <meeko>  (15) 
{"is_sidechain": [false], "intermolecular_energy": 2.731, "internal_energy": -0.839}

$$$$
EPH_relaxed_0001_pdb2pqr_Repair_374_r2_0001_out
     RDKit          3D

 82 86  0  0  0  0  0  0  0  0999 V2000
   -2.4950    7.8420    0.0950 C   0  0  0  0  0  0  0  0  0  0  0  0
   -3.0360    9.2730    0.1590 C   0  0  2  0  0  0  0  0  0  0  0  0
   -4.5550    9.3310   -0.0970 C   0  0  0  0  0  0  0  0  0  0  0  0
   -5.2440    7.9650   -0.0300 C   0  0  0  0  0  0  0  0  0  0  0  0
   -5.7870    7.5520   -1.3650 C   0  0  2  0  0  0  0  0  0  0  0  0
   -6.6730    8.5020   -1.9710 O   0  0  0  0  0  0  0  0  0  0  0  0
   -7.2500    7.2360   -1.6110 C   0  0  0  0  0  0  0  0  0  0  0  0
   -8.2620    7.3190   -0.5120 C   0  0  0  0  0  0  0  0  0  0  0  0
   -7.6100    6.3820   -2.7870 C   0  0  0  0  0  0  0  0  0  0  0  0
   -2.3040   10.1500   -0.8490 C   0  0  1  0  0  0  0  0  0  0  0  0
   -2.9910   11.5270   -1.0540 C   0  0  0  0  0  0  0  0  0  0  0  0
   -1.8610   12.5600   -1.2950 C   0  0  0  0  0  0  0  0  0  0  0  0
   -0.5980   11.7040   -1.5510 C   0  0  1  0  0  0  0  0  0  0  0  0
   -0.7000   11.2780   -3.0490 C   0  0  0  0  0  0  0  0  0  0  0  0
    0.7740   12.3850   -1.2370 C   0  0  2  0  0  0  0  0  0  0  0  0
    1.0930   13.6300   -2.0830 C   0  0  0  0  0  0  0  0  0  0  0  0
    1.8340   13.3660   -3.3520 C   0  0  0  0  0  0  0  0  0  0  0  0
    2.4750   12.2230   -3.6600 C   0  0  0  0  0  0  0  0  0  0  0  0
    2.5800   11.0790   -2.6430 C   0  0  1  0  0  0  0  0  0  0  0  0
    4.0390   10.5550   -2.6010 C   0  0  0  0  0  0  0  0  0  0  0  0
    4.5570   10.1580   -3.9800 C   0  0  0  0  0  0  0  0  0  0  0  0
    4.4920   11.3380   -4.9470 C   0  0  2  0  0  0  0  0  0  0  0  0
    5.4180   12.3390   -4.5170 O   0  0  0  0  0  0  0  0  0  0  0  0
    3.0700   11.9560   -5.0640 C   0  0  0  0  0  0  0  0  0  0  0  0
    2.1350   10.9720   -5.8100 C   0  0  0  0  0  0  0  0  0  0  0  0
    3.1720   13.2200   -5.9590 C   0  0  0  0  0  0  0  0  0  0  0  0
    1.9990   11.3840   -1.1950 C   0  0  1  0  0  0  0  0  0  0  0  0
    3.0950   12.0590   -0.3140 C   0  0  0  0  0  0  0  0  0  0  0  0
    1.6370   10.0240   -0.4890 C   0  0  0  0  0  0  0  0  0  0  0  0
    0.2250    9.4640   -0.7440 C   0  0  0  0  0  0  0  0  0  0  0  0
   -0.8410   10.5410   -0.5210 C   0  0  2  0  0  0  0  0  0  0  0  0
   -0.7770   10.9740    0.9830 C   0  0  0  0  0  0  0  0  0  0  0  0
   -2.3501    7.4588    1.1159 H   0  0  0  0  0  0  0  0  0  0  0  0
   -3.2132    7.2020   -0.4384 H   0  0  0  0  0  0  0  0  0  0  0  0
   -1.5330    7.8372   -0.4384 H   0  0  0  0  0  0  0  0  0  0  0  0
   -2.8585    9.6493    1.1773 H   0  0  0  0  0  0  0  0  0  0  0  0
   -5.0098    9.9867    0.6601 H   0  0  0  0  0  0  0  0  0  0  0  0
   -4.6940    9.7109   -1.1199 H   0  0  0  0  0  0  0  0  0  0  0  0
   -4.5142    7.2137    0.3060 H   0  0  0  0  0  0  0  0  0  0  0  0
   -6.0856    8.0395    0.6744 H   0  0  0  0  0  0  0  0  0  0  0  0
   -4.8640    7.0000   -1.5961 H   0  0  0  0  0  0  0  0  0  0  0  0
   -7.7508    7.2771    0.4611 H   0  0  0  0  0  0  0  0  0  0  0  0
   -8.8162    8.2656   -0.5946 H   0  0  0  0  0  0  0  0  0  0  0  0
   -8.9630    6.4753   -0.5946 H   0  0  0  0  0  0  0  0  0  0  0  0
   -8.0146    5.4223   -2.4331 H   0  0  0  0  0  0  0  0  0  0  0  0
   -8.3676    6.8970   -3.3960 H   0  0  0  0  0  0  0  0  0  0  0  0
   -6.7123    6.1993   -3.3960 H   0  0  0  0  0  0  0  0  0  0  0  0
   -2.3290    9.4844   -1.7244 H   0  0  0  0  0  0  0  0  0  0  0  0
   -3.6618   11.4895   -1.9250 H   0  0  0  0  0  0  0  0  0  0  0  0
   -3.5955   11.8009   -0.1768 H   0  0  0  0  0  0  0  0  0  0  0  0
   -2.0885   13.1876   -2.1693 H   0  0  0  0  0  0  0  0  0  0  0  0
   -1.7346   13.2461   -0.4446 H   0  0  0  0  0  0  0  0  0  0  0  0
   -0.9557   10.2099   -3.1099 H   0  0  0  0  0  0  0  0  0  0  0  0
   -1.4815   11.8711   -3.5465 H   0  0  0  0  0  0  0  0  0  0  0  0
    0.2654   11.4528   -3.5465 H   0  0  0  0  0  0  0  0  0  0  0  0
    0.6267   12.7520   -0.2106 H   0  0  0  0  0  0  0  0  0  0  0  0
    0.1418   14.1190   -2.3402 H   0  0  0  0  0  0  0  0  0  0  0  0
    1.7570   14.2544   -1.4672 H   0  0  0  0  0  0  0  0  0  0  0  0
    1.8582   14.1737   -4.0983 H   0  0  0  0  0  0  0  0  0  0  0  0
    1.9098   10.2862   -3.0067 H   0  0  0  0  0  0  0  0  0  0  0  0
    4.6865   11.3463   -2.1953 H   0  0  0  0  0  0  0  0  0  0  0  0
    4.0532    9.6562   -1.9671 H   0  0  0  0  0  0  0  0  0  0  0  0
    5.6010    9.8233   -3.8899 H   0  0  0  0  0  0  0  0  0  0  0  0
    3.9259    9.3469   -4.3724 H   0  0  0  0  0  0  0  0  0  0  0  0
    4.7531   10.9600   -5.9465 H   0  0  0  0  0  0  0  0  0  0  0  0
    6.2730   11.9030   -4.3610 H   0  0  0  0  0  0  0  0  0  0  0  0
    1.5696   10.3770   -5.0777 H   0  0  0  0  0  0  0  0  0  0  0  0
    1.4346   11.5388   -6.4410 H   0  0  0  0  0  0  0  0  0  0  0  0
    2.7368   10.3014   -6.4410 H   0  0  0  0  0  0  0  0  0  0  0  0
    3.2442   14.1147   -5.3231 H   0  0  0  0  0  0  0  0  0  0  0  0
    4.0673   13.1483   -6.5941 H   0  0  0  0  0  0  0  0  0  0  0  0
    2.2768   13.2928   -6.5941 H   0  0  0  0  0  0  0  0  0  0  0  0
    2.8539   11.9105    0.7489 H   0  0  0  0  0  0  0  0  0  0  0  0
    4.0730   11.6065   -0.5348 H   0  0  0  0  0  0  0  0  0  0  0  0
    3.1310   13.1360   -0.5348 H   0  0  0  0  0  0  0  0  0  0  0  0
    2.3610    9.2691   -0.8296 H   0  0  0  0  0  0  0  0  0  0  0  0
    1.6704   10.2412    0.5888 H   0  0  0  0  0  0  0  0  0  0  0  0
    0.1623    9.1053   -1.7820 H   0  0  0  0  0  0  0  0  0  0  0  0
    0.0426    8.6391   -0.0395 H   0  0  0  0  0  0  0  0  0  0  0  0
   -0.9076   10.0903    1.6249 H   0  0  0  0  0  0  0  0  0  0  0  0
    0.1993   11.4366    1.1902 H   0  0  0  0  0  0  0  0  0  0  0  0
   -1.5777   11.6992    1.1902 H   0  0  0  0  0  0  0  0  0  0  0  0
  1  2  1  0
  2  3  1  0
  3  4  1  0
  4  5  1  0
  5  6  1  0
  6  7  1  0
  7  8  1  0
  7  9  1  0
  2 10  1  0
 10 11  1  0
 11 12  1  0
 12 13  1  0
 13 14  1  6
 13 15  1  0
 15 16  1  0
 16 17  1  0
 17 18  2  0
 18 19  1  0
 19 20  1  0
 20 21  1  0
 21 22  1  0
 22 23  1  0
 22 24  1  0
 24 25  1  0
 24 26  1  0
 19 27  1  0
 27 28  1  1
 27 29  1  0
 29 30  1  0
 30 31  1  0
 31 32  1  1
  7  5  1  0
 31 10  1  0
 31 13  1  0
 27 15  1  0
 24 18  1  0
  1 33  1  0
  1 34  1  0
  1 35  1  0
  2 36  1  1
  3 37  1  0
  3 38  1  0
  4 39  1  0
  4 40  1  0
  5 41  1  6
  8 42  1  0
  8 43  1  0
  8 44  1  0
  9 45  1  0
  9 46  1  0
  9 47  1  0
 10 48  1  6
 11 49  1  0
 11 50  1  0
 12 51  1  0
 12 52  1  0
 14 53  1  0
 14 54  1  0
 14 55  1  0
 15 56  1  1
 16 57  1  0
 16 58  1  0
 17 59  1  0
 19 60  1  6
 20 61  1  0
 20 62  1  0
 21 63  1  0
 21 64  1  0
 22 65  1  6
 23 66  1  0
 25 67  1  0
 25 68  1  0
 25 69  1  0
 26 70  1  0
 26 71  1  0
 26 72  1  0
 28 73  1  0
 28 74  1  0
 28 75  1  0
 29 76  1  0
 29 77  1  0
 30 78  1  0
 30 79  1  0
 32 80  1  0
 32 81  1  0
 32 82  1  0
M  END
>  <meeko>  (16) 
{"is_sidechain": [false], "intermolecular_energy": 2.731, "internal_energy": -0.839}

$$$$
EPH_relaxed_0001_pdb2pqr_Repair_374_r2_0001_out
     RDKit          3D

 82 86  0  0  0  0  0  0  0  0999 V2000
    0.8500   14.8130   -2.6260 C   0  0  0  0  0  0  0  0  0  0  0  0
    1.1350   14.0890   -3.9450 C   0  0  2  0  0  0  0  0  0  0  0  0
    0.4770   14.7930   -5.1480 C   0  0  0  0  0  0  0  0  0  0  0  0
    1.2330   14.5960   -6.4650 C   0  0  0  0  0  0  0  0  0  0  0  0
    0.9480   15.7000   -7.4380 C   0  0  2  0  0  0  0  0  0  0  0  0
    0.4140   15.2660   -8.6960 O   0  0  0  0  0  0  0  0  0  0  0  0
    1.7090   15.8870   -8.7370 C   0  0  0  0  0  0  0  0  0  0  0  0
    2.8160   14.9610   -9.1330 C   0  0  0  0  0  0  0  0  0  0  0  0
    1.7090   17.2400   -9.3780 C   0  0  0  0  0  0  0  0  0  0  0  0
    0.6540   12.6450   -3.8590 C   0  0  1  0  0  0  0  0  0  0  0  0
    1.7670   11.6220   -4.2120 C   0  0  0  0  0  0  0  0  0  0  0  0
    1.5370   10.3820   -3.3110 C   0  0  0  0  0  0  0  0  0  0  0  0
    0.1240   10.5890   -2.7150 C   0  0  1  0  0  0  0  0  0  0  0  0
   -0.8560   10.1140   -3.8330 C   0  0  0  0  0  0  0  0  0  0  0  0
   -0.1630    9.8750   -1.3540 C   0  0  2  0  0  0  0  0  0  0  0  0
   -0.0900    8.3390   -1.3950 C   0  0  0  0  0  0  0  0  0  0  0  0
   -1.3760    7.6470   -1.7090 C   0  0  0  0  0  0  0  0  0  0  0  0
   -2.5970    8.2110   -1.6670 C   0  0  0  0  0  0  0  0  0  0  0  0
   -2.7830    9.6540   -1.1810 C   0  0  1  0  0  0  0  0  0  0  0  0
   -3.9670    9.7160   -0.1810 C   0  0  0  0  0  0  0  0  0  0  0  0
   -5.2500    9.1250   -0.7560 C   0  0  0  0  0  0  0  0  0  0  0  0
   -5.0420    7.6710   -1.1740 C   0  0  2  0  0  0  0  0  0  0  0  0
   -4.8060    6.8840   -0.0030 O   0  0  0  0  0  0  0  0  0  0  0  0
   -3.8670    7.4840   -2.1750 C   0  0  0  0  0  0  0  0  0  0  0  0
   -4.2540    8.0840   -3.5500 C   0  0  0  0  0  0  0  0  0  0  0  0
   -3.6740    5.9610   -2.4050 C   0  0  0  0  0  0  0  0  0  0  0  0
   -1.4780   10.3720   -0.6270 C   0  0  1  0  0  0  0  0  0  0  0  0
   -1.2960   10.0510    0.8880 C   0  0  0  0  0  0  0  0  0  0  0  0
   -1.6650   11.9320   -0.7300 C   0  0  0  0  0  0  0  0  0  0  0  0
   -1.2510   12.5950   -2.0580 C   0  0  0  0  0  0  0  0  0  0  0  0
    0.1490   12.1440   -2.4830 C   0  0  2  0  0  0  0  0  0  0  0  0
    1.1600   12.6270   -1.3870 C   0  0  0  0  0  0  0  0  0  0  0  0
    1.1090   14.1552   -1.7833 H   0  0  0  0  0  0  0  0  0  0  0  0
    1.4539   15.7309   -2.5736 H   0  0  0  0  0  0  0  0  0  0  0  0
   -0.2176   15.0730   -2.5736 H   0  0  0  0  0  0  0  0  0  0  0  0
    2.2230   14.1098   -4.1058 H   0  0  0  0  0  0  0  0  0  0  0  0
   -0.5412   14.3949   -5.2691 H   0  0  0  0  0  0  0  0  0  0  0  0
    0.4828   15.8716   -4.9321 H   0  0  0  0  0  0  0  0  0  0  0  0
    2.3128   14.5745   -6.2565 H   0  0  0  0  0  0  0  0  0  0  0  0
    0.8994   13.6487   -6.9137 H   0  0  0  0  0  0  0  0  0  0  0  0
    0.7066   16.3925   -6.6181 H   0  0  0  0  0  0  0  0  0  0  0  0
    3.2977   14.5581   -8.2299 H   0  0  0  0  0  0  0  0  0  0  0  0
    2.4057   14.1333   -9.7301 H   0  0  0  0  0  0  0  0  0  0  0  0
    3.5582   15.5111   -9.7301 H   0  0  0  0  0  0  0  0  0  0  0  0
    2.7461   17.5714   -9.5350 H   0  0  0  0  0  0  0  0  0  0  0  0
    1.1905   17.1868  -10.3467 H   0  0  0  0  0  0  0  0  0  0  0  0
    1.1905   17.9559   -8.7233 H   0  0  0  0  0  0  0  0  0  0  0  0
   -0.1812   12.6866   -4.5737 H   0  0  0  0  0  0  0  0  0  0  0  0
    1.6977   11.3378   -5.2724 H   0  0  0  0  0  0  0  0  0  0  0  0
    2.7657   12.0517   -4.0449 H   0  0  0  0  0  0  0  0  0  0  0  0
    1.5760    9.4574   -3.9056 H   0  0  0  0  0  0  0  0  0  0  0  0
    2.3077   10.2835   -2.5324 H   0  0  0  0  0  0  0  0  0  0  0  0
   -1.7547    9.6784   -3.3720 H   0  0  0  0  0  0  0  0  0  0  0  0
   -1.1437   10.9726   -4.4575 H   0  0  0  0  0  0  0  0  0  0  0  0
   -0.3602    9.3562   -4.4575 H   0  0  0  0  0  0  0  0  0  0  0  0
    0.6865   10.1976   -0.7341 H   0  0  0  0  0  0  0  0  0  0  0  0
    0.6453    8.0541   -2.1619 H   0  0  0  0  0  0  0  0  0  0  0  0
    0.1867    8.0204   -0.3792 H   0  0  0  0  0  0  0  0  0  0  0  0
   -1.3202    6.5874   -1.9989 H   0  0  0  0  0  0  0  0  0  0  0  0
   -3.0199   10.2479   -2.0760 H   0  0  0  0  0  0  0  0  0  0  0  0
   -3.6941    9.1531    0.7238 H   0  0  0  0  0  0  0  0  0  0  0  0
   -4.1590   10.7755    0.0437 H   0  0  0  0  0  0  0  0  0  0  0  0
   -6.0409    9.1705    0.0072 H   0  0  0  0  0  0  0  0  0  0  0  0
   -5.5378    9.7076   -1.6435 H   0  0  0  0  0  0  0  0  0  0  0  0
   -5.9537    7.3436   -1.6953 H   0  0  0  0  0  0  0  0  0  0  0  0
   -3.8440    6.8250    0.1230 H   0  0  0  0  0  0  0  0  0  0  0  0
   -4.8445    8.9995   -3.3975 H   0  0  0  0  0  0  0  0  0  0  0  0
   -3.3414    8.3261   -4.1144 H   0  0  0  0  0  0  0  0  0  0  0  0
   -4.8509    7.3524   -4.1144 H   0  0  0  0  0  0  0  0  0  0  0  0
   -3.6091    5.4488   -1.4337 H   0  0  0  0  0  0  0  0  0  0  0  0
   -4.5291    5.5646   -2.9722 H   0  0  0  0  0  0  0  0  0  0  0  0
   -2.7471    5.7904   -2.9722 H   0  0  0  0  0  0  0  0  0  0  0  0
   -1.7502   10.8521    1.4897 H   0  0  0  0  0  0  0  0  0  0  0  0
   -1.7860    9.0943    1.1215 H   0  0  0  0  0  0  0  0  0  0  0  0
   -0.2234    9.9802    1.1215 H   0  0  0  0  0  0  0  0  0  0  0  0
   -2.7305   12.1510   -0.5667 H   0  0  0  0  0  0  0  0  0  0  0  0
   -0.9866   12.3539    0.0262 H   0  0  0  0  0  0  0  0  0  0  0  0
   -1.9721   12.3150   -2.8401 H   0  0  0  0  0  0  0  0  0  0  0  0
   -1.2401   13.6858   -1.9168 H   0  0  0  0  0  0  0  0  0  0  0  0
    0.7421   12.4274   -0.3892 H   0  0  0  0  0  0  0  0  0  0  0  0
    2.1109   12.0859   -1.5013 H   0  0  0  0  0  0  0  0  0  0  0  0
    1.3365   13.7067   -1.5013 H   0  0  0  0  0  0  0  0  0  0  0  0
  1  2  1  0
  2  3  1  0
  3  4  1  0
  4  5  1  0
  5  6  1  0
  6  7  1  0
  7  8  1  0
  7  9  1  0
  2 10  1  0
 10 11  1  0
 11 12  1  0
 12 13  1  0
 13 14  1  6
 13 15  1  0
 15 16  1  0
 16 17  1  0
 17 18  2  0
 18 19  1  0
 19 20  1  0
 20 21  1  0
 21 22  1  0
 22 23  1  0
 22 24  1  0
 24 25  1  0
 24 26  1  0
 19 27  1  0
 27 28  1  1
 27 29  1  0
 29 30  1  0
 30 31  1  0
 31 32  1  1
  7  5  1  0
 31 10  1  0
 31 13  1  0
 27 15  1  0
 24 18  1  0
  1 33  1  0
  1 34  1  0
  1 35  1  0
  2 36  1  6
  3 37  1  0
  3 38  1  0
  4 39  1  0
  4 40  1  0
  5 41  1  1
  8 42  1  0
  8 43  1  0
  8 44  1  0
  9 45  1  0
  9 46  1  0
  9 47  1  0
 10 48  1  6
 11 49  1  0
 11 50  1  0
 12 51  1  0
 12 52  1  0
 14 53  1  0
 14 54  1  0
 14 55  1  0
 15 56  1  1
 16 57  1  0
 16 58  1  0
 17 59  1  0
 19 60  1  6
 20 61  1  0
 20 62  1  0
 21 63  1  0
 21 64  1  0
 22 65  1  6
 23 66  1  0
 25 67  1  0
 25 68  1  0
 25 69  1  0
 26 70  1  0
 26 71  1  0
 26 72  1  0
 28 73  1  0
 28 74  1  0
 28 75  1  0
 29 76  1  0
 29 77  1  0
 30 78  1  0
 30 79  1  0
 32 80  1  0
 32 81  1  0
 32 82  1  0
M  END
>  <meeko>  (17) 
{"is_sidechain": [false], "intermolecular_energy": 2.731, "internal_energy": -0.839}

$$$$
EPH_relaxed_0001_pdb2pqr_Repair_374_r2_0001_out
     RDKit          3D

 82 86  0  0  0  0  0  0  0  0999 V2000
    1.2550   19.0210   -2.3230 C   0  0  0  0  0  0  0  0  0  0  0  0
    0.4290   18.0120   -1.5220 C   0  0  2  0  0  0  0  0  0  0  0  0
    0.5060   18.2730   -0.0040 C   0  0  0  0  0  0  0  0  0  0  0  0
    1.1270   19.6250    0.3570 C   0  0  0  0  0  0  0  0  0  0  0  0
    2.6210   19.5420    0.4520 C   0  0  2  0  0  0  0  0  0  0  0  0
    3.1090   18.4800    1.2820 O   0  0  0  0  0  0  0  0  0  0  0  0
    3.3940   19.8150    1.7290 C   0  0  0  0  0  0  0  0  0  0  0  0
    2.6970   20.1940    2.9970 C   0  0  0  0  0  0  0  0  0  0  0  0
    4.8390   20.1900    1.6230 C   0  0  0  0  0  0  0  0  0  0  0  0
    0.8970   16.5950   -1.8310 C   0  0  1  0  0  0  0  0  0  0  0  0
    2.4120   16.5240   -2.1580 C   0  0  0  0  0  0  0  0  0  0  0  0
    2.9290   15.1760   -1.5940 C   0  0  0  0  0  0  0  0  0  0  0  0
    1.6490   14.3760   -1.2600 C   0  0  1  0  0  0  0  0  0  0  0  0
    1.1870   13.7720   -2.6240 C   0  0  0  0  0  0  0  0  0  0  0  0
    1.7890   13.2750   -0.1590 C   0  0  2  0  0  0  0  0  0  0  0  0
    2.7620   12.1320   -0.4990 C   0  0  0  0  0  0  0  0  0  0  0  0
    2.1520   10.9610   -1.1950 C   0  0  0  0  0  0  0  0  0  0  0  0
    0.8340   10.7020   -1.2820 C   0  0  0  0  0  0  0  0  0  0  0  0
   -0.1910   11.5830   -0.5570 C   0  0  1  0  0  0  0  0  0  0  0  0
   -1.2180   10.6830    0.1800 C   0  0  0  0  0  0  0  0  0  0  0  0
   -1.8750    9.6650   -0.7470 C   0  0  0  0  0  0  0  0  0  0  0  0
   -0.8270    8.7700   -1.4040 C   0  0  2  0  0  0  0  0  0  0  0  0
   -0.2160    7.9590   -0.3960 O   0  0  0  0  0  0  0  0  0  0  0  0
    0.2660    9.5670   -2.1690 C   0  0  0  0  0  0  0  0  0  0  0  0
   -0.3470   10.2040   -3.4400 C   0  0  0  0  0  0  0  0  0  0  0  0
    1.3360    8.5550   -2.6630 C   0  0  0  0  0  0  0  0  0  0  0  0
    0.4090   12.7180    0.3800 C   0  0  1  0  0  0  0  0  0  0  0  0
    0.6870   12.1420    1.8020 C   0  0  0  0  0  0  0  0  0  0  0  0
   -0.6650   13.8550    0.5630 C   0  0  0  0  0  0  0  0  0  0  0  0
   -0.6740   14.9780   -0.4920 C   0  0  0  0  0  0  0  0  0  0  0  0
    0.7360   15.5330   -0.7140 C   0  0  2  0  0  0  0  0  0  0  0  0
    1.2180   16.1670    0.6350 C   0  0  0  0  0  0  0  0  0  0  0  0
    1.7968   19.6828   -1.6312 H   0  0  0  0  0  0  0  0  0  0  0  0
    1.9760   18.4838   -2.9568 H   0  0  0  0  0  0  0  0  0  0  0  0
    0.5860   19.6217   -2.9568 H   0  0  0  0  0  0  0  0  0  0  0  0
   -0.6219   18.1307   -1.8245 H   0  0  0  0  0  0  0  0  0  0  0  0
   -0.5139   18.2386    0.4065 H   0  0  0  0  0  0  0  0  0  0  0  0
    1.1567   17.4959    0.4233 H   0  0  0  0  0  0  0  0  0  0  0  0
    0.8594   20.3584   -0.4179 H   0  0  0  0  0  0  0  0  0  0  0  0
    0.7376   19.9295    1.3397 H   0  0  0  0  0  0  0  0  0  0  0  0
    2.7318   19.9241   -0.5736 H   0  0  0  0  0  0  0  0  0  0  0  0
    3.2985   19.8669    3.8579 H   0  0  0  0  0  0  0  0  0  0  0  0
    2.5690   21.2859    3.0328 H   0  0  0  0  0  0  0  0  0  0  0  0
    1.7109   19.7079    3.0328 H   0  0  0  0  0  0  0  0  0  0  0  0
    5.2641   20.3003    2.6315 H   0  0  0  0  0  0  0  0  0  0  0  0
    5.3831   19.4033    1.0798 H   0  0  0  0  0  0  0  0  0  0  0  0
    4.9319   21.1420    1.0798 H   0  0  0  0  0  0  0  0  0  0  0  0
    0.2291   16.3602   -2.6729 H   0  0  0  0  0  0  0  0  0  0  0  0
    2.5668   16.5635   -3.2463 H   0  0  0  0  0  0  0  0  0  0  0  0
    2.9523   17.3719   -1.7117 H   0  0  0  0  0  0  0  0  0  0  0  0
    3.5327   14.6465   -2.3458 H   0  0  0  0  0  0  0  0  0  0  0  0
    3.5766   15.3125   -0.7154 H   0  0  0  0  0  0  0  0  0  0  0  0
    0.5282   12.9107   -2.4393 H   0  0  0  0  0  0  0  0  0  0  0  0
    0.6403   14.5356   -3.1968 H   0  0  0  0  0  0  0  0  0  0  0  0
    2.0671   13.4443   -3.1968 H   0  0  0  0  0  0  0  0  0  0  0  0
    2.2556   13.8281    0.6695 H   0  0  0  0  0  0  0  0  0  0  0  0
    3.5515   12.5394   -1.1476 H   0  0  0  0  0  0  0  0  0  0  0  0
    3.1347   11.7532    0.4641 H   0  0  0  0  0  0  0  0  0  0  0  0
    2.8378   10.2492   -1.6778 H   0  0  0  0  0  0  0  0  0  0  0  0
   -0.6989   12.1654   -1.3398 H   0  0  0  0  0  0  0  0  0  0  0  0
   -0.6993   10.1429    0.9857 H   0  0  0  0  0  0  0  0  0  0  0  0
   -2.0108   11.3354    0.5749 H   0  0  0  0  0  0  0  0  0  0  0  0
   -2.5670    9.0403   -0.1631 H   0  0  0  0  0  0  0  0  0  0  0  0
   -2.4182   10.2069   -1.5352 H   0  0  0  0  0  0  0  0  0  0  0  0
   -1.3437    8.1506   -2.1519 H   0  0  0  0  0  0  0  0  0  0  0  0
   -0.0880    8.5160    0.3910 H   0  0  0  0  0  0  0  0  0  0  0  0
   -1.0825   10.9683   -3.1488 H   0  0  0  0  0  0  0  0  0  0  0  0
    0.4502   10.6709   -4.0371 H   0  0  0  0  0  0  0  0  0  0  0  0
   -0.8442    9.4254   -4.0371 H   0  0  0  0  0  0  0  0  0  0  0  0
    1.8282    8.0895   -1.7963 H   0  0  0  0  0  0  0  0  0  0  0  0
    0.8516    7.7769   -3.2712 H   0  0  0  0  0  0  0  0  0  0  0  0
    2.0859    9.0820   -3.2712 H   0  0  0  0  0  0  0  0  0  0  0  0
    0.3413   12.8584    2.5618 H   0  0  0  0  0  0  0  0  0  0  0  0
    0.1491   11.1903    1.9237 H   0  0  0  0  0  0  0  0  0  0  0  0
    1.7668   11.9710    1.9237 H   0  0  0  0  0  0  0  0  0  0  0  0
   -1.6573   13.3804    0.5524 H   0  0  0  0  0  0  0  0  0  0  0  0
   -0.4014   14.3506    1.5090 H   0  0  0  0  0  0  0  0  0  0  0  0
   -1.0562   14.5762   -1.4420 H   0  0  0  0  0  0  0  0  0  0  0  0
   -1.3189   15.7929   -0.1313 H   0  0  0  0  0  0  0  0  0  0  0  0
    0.7903   15.6045    1.4780 H   0  0  0  0  0  0  0  0  0  0  0  0
    2.3160   16.1273    0.6871 H   0  0  0  0  0  0  0  0  0  0  0  0
    0.8861   17.2144    0.6871 H   0  0  0  0  0  0  0  0  0  0  0  0
  1  2  1  0
  2  3  1  0
  3  4  1  0
  4  5  1  0
  5  6  1  0
  6  7  1  0
  7  8  1  0
  7  9  1  0
  2 10  1  0
 10 11  1  0
 11 12  1  0
 12 13  1  0
 13 14  1  6
 13 15  1  0
 15 16  1  0
 16 17  1  0
 17 18  2  0
 18 19  1  0
 19 20  1  0
 20 21  1  0
 21 22  1  0
 22 23  1  0
 22 24  1  0
 24 25  1  0
 24 26  1  0
 19 27  1  0
 27 28  1  1
 27 29  1  0
 29 30  1  0
 30 31  1  0
 31 32  1  1
  7  5  1  0
 31 10  1  0
 31 13  1  0
 27 15  1  0
 24 18  1  0
  1 33  1  0
  1 34  1  0
  1 35  1  0
  2 36  1  6
  3 37  1  0
  3 38  1  0
  4 39  1  0
  4 40  1  0
  5 41  1  6
  8 42  1  0
  8 43  1  0
  8 44  1  0
  9 45  1  0
  9 46  1  0
  9 47  1  0
 10 48  1  6
 11 49  1  0
 11 50  1  0
 12 51  1  0
 12 52  1  0
 14 53  1  0
 14 54  1  0
 14 55  1  0
 15 56  1  1
 16 57  1  0
 16 58  1  0
 17 59  1  0
 19 60  1  6
 20 61  1  0
 20 62  1  0
 21 63  1  0
 21 64  1  0
 22 65  1  6
 23 66  1  0
 25 67  1  0
 25 68  1  0
 25 69  1  0
 26 70  1  0
 26 71  1  0
 26 72  1  0
 28 73  1  0
 28 74  1  0
 28 75  1  0
 29 76  1  0
 29 77  1  0
 30 78  1  0
 30 79  1  0
 32 80  1  0
 32 81  1  0
 32 82  1  0
M  END
>  <meeko>  (18) 
{"is_sidechain": [false], "intermolecular_energy": 2.731, "internal_energy": -0.839}

$$$$
EPH_relaxed_0001_pdb2pqr_Repair_374_r2_0001_out
     RDKit          3D

 82 86  0  0  0  0  0  0  0  0999 V2000
    0.2990    9.9060   -4.7690 C   0  0  0  0  0  0  0  0  0  0  0  0
    1.2980   10.5580   -3.8100 C   0  0  2  0  0  0  0  0  0  0  0  0
    1.5960    9.6670   -2.5870 C   0  0  0  0  0  0  0  0  0  0  0  0
    0.4520    8.7150   -2.2260 C   0  0  0  0  0  0  0  0  0  0  0  0
   -0.2770    9.1660   -0.9970 C   0  0  2  0  0  0  0  0  0  0  0  0
   -0.7810    8.1040   -0.1760 O   0  0  0  0  0  0  0  0  0  0  0  0
   -1.7640    8.9580   -0.7830 C   0  0  0  0  0  0  0  0  0  0  0  0
   -2.6130    8.2760   -1.8100 C   0  0  0  0  0  0  0  0  0  0  0  0
   -2.4780    9.8430    0.1920 C   0  0  0  0  0  0  0  0  0  0  0  0
    0.7710   11.9120   -3.3510 C   0  0  1  0  0  0  0  0  0  0  0  0
   -0.7350   11.8710   -2.9760 C   0  0  0  0  0  0  0  0  0  0  0  0
   -0.9280   12.8560   -1.7950 C   0  0  0  0  0  0  0  0  0  0  0  0
    0.3860   13.6710   -1.7460 C   0  0  1  0  0  0  0  0  0  0  0  0
    0.2210   14.7630   -2.8490 C   0  0  0  0  0  0  0  0  0  0  0  0
    0.7600   14.2970   -0.3640 C   0  0  2  0  0  0  0  0  0  0  0  0
   -0.2420   15.3340    0.1750 C   0  0  0  0  0  0  0  0  0  0  0  0
    0.0280   16.7480   -0.2220 C   0  0  0  0  0  0  0  0  0  0  0  0
    1.1820   17.2080   -0.7400 C   0  0  0  0  0  0  0  0  0  0  0  0
    2.4030   16.2900   -0.8820 C   0  0  1  0  0  0  0  0  0  0  0  0
    3.6660   17.0220   -0.3560 C   0  0  0  0  0  0  0  0  0  0  0  0
    3.8750   18.3790   -1.0220 C   0  0  0  0  0  0  0  0  0  0  0  0
    2.6640   19.2840   -0.8090 C   0  0  2  0  0  0  0  0  0  0  0  0
    2.5670   19.6050    0.5820 O   0  0  0  0  0  0  0  0  0  0  0  0
    1.3310   18.6470   -1.2920 C   0  0  0  0  0  0  0  0  0  0  0  0
    1.3180   18.5770   -2.8390 C   0  0  0  0  0  0  0  0  0  0  0  0
    0.1730   19.6010   -0.8910 C   0  0  0  0  0  0  0  0  0  0  0  0
    2.2470   14.8300   -0.2740 C   0  0  1  0  0  0  0  0  0  0  0  0
    2.6270   14.8390    1.2380 C   0  0  0  0  0  0  0  0  0  0  0  0
    3.2710   13.8660   -0.9830 C   0  0  0  0  0  0  0  0  0  0  0  0
    2.7990   13.1840   -2.2810 C   0  0  0  0  0  0  0  0  0  0  0  0
    1.4220   12.5410   -2.0940 C   0  0  2  0  0  0  0  0  0  0  0  0
    1.5610   11.4220   -1.0060 C   0  0  0  0  0  0  0  0  0  0  0  0
   -0.4845    9.3947   -4.1904 H   0  0  0  0  0  0  0  0  0  0  0  0
   -0.1591   10.6795   -5.4029 H   0  0  0  0  0  0  0  0  0  0  0  0
    0.8226    9.1752   -5.4029 H   0  0  0  0  0  0  0  0  0  0  0  0
    2.2420   10.6929   -4.3583 H   0  0  0  0  0  0  0  0  0  0  0  0
    2.4918    9.0668   -2.8045 H   0  0  0  0  0  0  0  0  0  0  0  0
    1.7393   10.3382   -1.7274 H   0  0  0  0  0  0  0  0  0  0  0  0
   -0.2568    8.6745   -3.0663 H   0  0  0  0  0  0  0  0  0  0  0  0
    0.8820    7.7227   -2.0250 H   0  0  0  0  0  0  0  0  0  0  0  0
    0.3624   10.0575   -0.9165 H   0  0  0  0  0  0  0  0  0  0  0  0
   -3.3757    7.6633   -1.3071 H   0  0  0  0  0  0  0  0  0  0  0  0
   -3.1061    9.0320   -2.4388 H   0  0  0  0  0  0  0  0  0  0  0  0
   -1.9811    7.6315   -2.4388 H   0  0  0  0  0  0  0  0  0  0  0  0
   -2.2289    9.5342    1.2180 H   0  0  0  0  0  0  0  0  0  0  0  0
   -2.1657   10.8863    0.0370 H   0  0  0  0  0  0  0  0  0  0  0  0
   -3.5637    9.7584    0.0370 H   0  0  0  0  0  0  0  0  0  0  0  0
    1.0121   12.5137   -4.2397 H   0  0  0  0  0  0  0  0  0  0  0  0
   -1.3478   12.1837   -3.8343 H   0  0  0  0  0  0  0  0  0  0  0  0
   -1.0452   10.8533   -2.6966 H   0  0  0  0  0  0  0  0  0  0  0  0
   -1.7881   13.5170   -1.9775 H   0  0  0  0  0  0  0  0  0  0  0  0
   -1.1310   12.3356   -0.8474 H   0  0  0  0  0  0  0  0  0  0  0  0
    0.0727   15.7442   -2.3743 H   0  0  0  0  0  0  0  0  0  0  0  0
    1.1251   14.7914   -3.4750 H   0  0  0  0  0  0  0  0  0  0  0  0
   -0.6511   14.5230   -3.4750 H   0  0  0  0  0  0  0  0  0  0  0  0
    0.6897   13.4326    0.3127 H   0  0  0  0  0  0  0  0  0  0  0  0
   -1.2426   15.0629   -0.1927 H   0  0  0  0  0  0  0  0  0  0  0  0
   -0.1521   15.3031    1.2709 H   0  0  0  0  0  0  0  0  0  0  0  0
   -0.7849   17.4751   -0.0790 H   0  0  0  0  0  0  0  0  0  0  0  0
    2.5089   16.0898   -1.9584 H   0  0  0  0  0  0  0  0  0  0  0  0
    3.5598   17.1738    0.7283 H   0  0  0  0  0  0  0  0  0  0  0  0
    4.5385   16.3954   -0.5932 H   0  0  0  0  0  0  0  0  0  0  0  0
    4.7643   18.8597   -0.5883 H   0  0  0  0  0  0  0  0  0  0  0  0
    4.0105   18.2226   -2.1024 H   0  0  0  0  0  0  0  0  0  0  0  0
    2.8177   20.1886   -1.4156 H   0  0  0  0  0  0  0  0  0  0  0  0
    2.6770   18.7790    1.0830 H   0  0  0  0  0  0  0  0  0  0  0  0
    1.1258   17.5418   -3.1576 H   0  0  0  0  0  0  0  0  0  0  0  0
    0.5265   19.2337   -3.2291 H   0  0  0  0  0  0  0  0  0  0  0  0
    2.2926   18.9057   -3.2291 H   0  0  0  0  0  0  0  0  0  0  0  0
    0.1063   19.6560    0.2056 H   0  0  0  0  0  0  0  0  0  0  0  0
    0.3673   20.6046   -1.2973 H   0  0  0  0  0  0  0  0  0  0  0  0
   -0.7748   19.2182   -1.2973 H   0  0  0  0  0  0  0  0  0  0  0  0
    1.7109   14.8173    1.8464 H   0  0  0  0  0  0  0  0  0  0  0  0
    3.2404   13.9551    1.4672 H   0  0  0  0  0  0  0  0  0  0  0  0
    3.1979   15.7509    1.4672 H   0  0  0  0  0  0  0  0  0  0  0  0
    4.1693   14.4535   -1.2235 H   0  0  0  0  0  0  0  0  0  0  0  0
    3.4344   13.0448   -0.2696 H   0  0  0  0  0  0  0  0  0  0  0  0
    2.7390   13.9363   -3.0813 H   0  0  0  0  0  0  0  0  0  0  0  0
    3.5203   12.3967   -2.5453 H   0  0  0  0  0  0  0  0  0  0  0  0
    1.5048   11.8748   -0.0051 H   0  0  0  0  0  0  0  0  0  0  0  0
    0.7466   10.6921   -1.1246 H   0  0  0  0  0  0  0  0  0  0  0  0
    2.5292   10.9136   -1.1246 H   0  0  0  0  0  0  0  0  0  0  0  0
  1  2  1  0
  2  3  1  0
  3  4  1  0
  4  5  1  0
  5  6  1  0
  6  7  1  0
  7  8  1  0
  7  9  1  0
  2 10  1  0
 10 11  1  0
 11 12  1  0
 12 13  1  0
 13 14  1  6
 13 15  1  0
 15 16  1  0
 16 17  1  0
 17 18  2  0
 18 19  1  0
 19 20  1  0
 20 21  1  0
 21 22  1  0
 22 23  1  0
 22 24  1  0
 24 25  1  0
 24 26  1  0
 19 27  1  0
 27 28  1  1
 27 29  1  0
 29 30  1  0
 30 31  1  0
 31 32  1  1
  7  5  1  0
 31 10  1  0
 31 13  1  0
 27 15  1  0
 24 18  1  0
  1 33  1  0
  1 34  1  0
  1 35  1  0
  2 36  1  6
  3 37  1  0
  3 38  1  0
  4 39  1  0
  4 40  1  0
  5 41  1  1
  8 42  1  0
  8 43  1  0
  8 44  1  0
  9 45  1  0
  9 46  1  0
  9 47  1  0
 10 48  1  6
 11 49  1  0
 11 50  1  0
 12 51  1  0
 12 52  1  0
 14 53  1  0
 14 54  1  0
 14 55  1  0
 15 56  1  1
 16 57  1  0
 16 58  1  0
 17 59  1  0
 19 60  1  6
 20 61  1  0
 20 62  1  0
 21 63  1  0
 21 64  1  0
 22 65  1  6
 23 66  1  0
 25 67  1  0
 25 68  1  0
 25 69  1  0
 26 70  1  0
 26 71  1  0
 26 72  1  0
 28 73  1  0
 28 74  1  0
 28 75  1  0
 29 76  1  0
 29 77  1  0
 30 78  1  0
 30 79  1  0
 32 80  1  0
 32 81  1  0
 32 82  1  0
M  END
>  <meeko>  (19) 
{"is_sidechain": [false], "intermolecular_energy": 2.731, "internal_energy": -0.839}

$$$$
