EPH_relaxed_0001_pdb2pqr_Repair_211_r2_0001_out
     RDKit          3D

 82 86  0  0  0  0  0  0  0  0999 V2000
   -1.5950    8.5750   -1.8120 C   0  0  0  0  0  0  0  0  0  0  0  0
   -1.9990    9.1550   -0.4540 C   0  0  2  0  0  0  0  0  0  0  0  0
   -3.4870    9.5570   -0.4140 C   0  0  0  0  0  0  0  0  0  0  0  0
   -4.4430    8.3680   -0.2890 C   0  0  0  0  0  0  0  0  0  0  0  0
   -5.0750    8.0240   -1.6040 C   0  0  2  0  0  0  0  0  0  0  0  0
   -6.3390    8.6550   -1.8430 O   0  0  0  0  0  0  0  0  0  0  0  0
   -6.3570    7.2220   -1.7320 C   0  0  0  0  0  0  0  0  0  0  0  0
   -7.0830    6.7140   -0.5260 C   0  0  0  0  0  0  0  0  0  0  0  0
   -6.6360    6.5210   -3.0240 C   0  0  0  0  0  0  0  0  0  0  0  0
   -1.1250   10.3590   -0.1220 C   0  0  1  0  0  0  0  0  0  0  0  0
   -0.0450   10.0370    0.9460 C   0  0  0  0  0  0  0  0  0  0  0  0
    1.2090   10.8710    0.5780 C   0  0  0  0  0  0  0  0  0  0  0  0
    0.7080   11.8840   -0.4780 C   0  0  1  0  0  0  0  0  0  0  0  0
    0.0370   13.0260    0.3490 C   0  0  0  0  0  0  0  0  0  0  0  0
    1.7850   12.4430   -1.4640 C   0  0  2  0  0  0  0  0  0  0  0  0
    2.9180   13.2490   -0.8060 C   0  0  0  0  0  0  0  0  0  0  0  0
    2.6710   14.7170   -0.6880 C   0  0  0  0  0  0  0  0  0  0  0  0
    1.7180   15.4050   -1.3440 C   0  0  0  0  0  0  0  0  0  0  0  0
    0.8260   14.7170   -2.3860 C   0  0  1  0  0  0  0  0  0  0  0  0
    0.7420   15.6000   -3.6590 C   0  0  0  0  0  0  0  0  0  0  0  0
    0.2900   17.0250   -3.3540 C   0  0  0  0  0  0  0  0  0  0  0  0
    1.2340   17.6950   -2.3580 C   0  0  2  0  0  0  0  0  0  0  0  0
    2.5100   17.8740   -2.9820 O   0  0  0  0  0  0  0  0  0  0  0  0
    1.4050   16.8910   -1.0390 C   0  0  0  0  0  0  0  0  0  0  0  0
    0.0940   16.9530   -0.2170 C   0  0  0  0  0  0  0  0  0  0  0  0
    2.4890   17.6020   -0.1840 C   0  0  0  0  0  0  0  0  0  0  0  0
    1.1850   13.2040   -2.7150 C   0  0  1  0  0  0  0  0  0  0  0  0
    2.2700   13.1460   -3.8340 C   0  0  0  0  0  0  0  0  0  0  0  0
   -0.0910   12.4880   -3.2960 C   0  0  0  0  0  0  0  0  0  0  0  0
   -1.0550   11.8520   -2.2770 C   0  0  0  0  0  0  0  0  0  0  0  0
   -0.2960   10.9760   -1.2760 C   0  0  2  0  0  0  0  0  0  0  0  0
    0.3720    9.8060   -2.0760 C   0  0  0  0  0  0  0  0  0  0  0  0
   -0.9724    7.6812   -1.6584 H   0  0  0  0  0  0  0  0  0  0  0  0
   -2.4981    8.3002   -2.3767 H   0  0  0  0  0  0  0  0  0  0  0  0
   -1.0242    9.3269   -2.3767 H   0  0  0  0  0  0  0  0  0  0  0  0
   -1.8492    8.3680    0.2998 H   0  0  0  0  0  0  0  0  0  0  0  0
   -3.6442   10.2210    0.4488 H   0  0  0  0  0  0  0  0  0  0  0  0
   -3.7121   10.0510   -1.3707 H   0  0  0  0  0  0  0  0  0  0  0  0
   -3.8810    7.4955    0.0755 H   0  0  0  0  0  0  0  0  0  0  0  0
   -5.2428    8.6436    0.4141 H   0  0  0  0  0  0  0  0  0  0  0  0
   -4.0879    7.9171   -2.0775 H   0  0  0  0  0  0  0  0  0  0  0  0
   -6.5761    7.0687    0.3835 H   0  0  0  0  0  0  0  0  0  0  0  0
   -8.1182    7.0858   -0.5375 H   0  0  0  0  0  0  0  0  0  0  0  0
   -7.0883    5.6141   -0.5375 H   0  0  0  0  0  0  0  0  0  0  0  0
   -7.0355    5.5171   -2.8176 H   0  0  0  0  0  0  0  0  0  0  0  0
   -7.3733    7.0974   -3.6021 H   0  0  0  0  0  0  0  0  0  0  0  0
   -5.7043    6.4331   -3.6021 H   0  0  0  0  0  0  0  0  0  0  0  0
   -1.9019   11.0668    0.2029 H   0  0  0  0  0  0  0  0  0  0  0  0
   -0.4061   10.3170    1.9466 H   0  0  0  0  0  0  0  0  0  0  0  0
    0.1862    8.9617    0.9628 H   0  0  0  0  0  0  0  0  0  0  0  0
    1.6007   11.3942    1.4628 H   0  0  0  0  0  0  0  0  0  0  0  0
    2.0298   10.2447    0.1986 H   0  0  0  0  0  0  0  0  0  0  0  0
    0.1577   12.8206    1.4229 H   0  0  0  0  0  0  0  0  0  0  0  0
    0.5147   13.9859    0.1033 H   0  0  0  0  0  0  0  0  0  0  0  0
   -1.0341   13.0759    0.1033 H   0  0  0  0  0  0  0  0  0  0  0  0
    2.2554   11.5242   -1.8441 H   0  0  0  0  0  0  0  0  0  0  0  0
    3.0766   12.8485    0.2062 H   0  0  0  0  0  0  0  0  0  0  0  0
    3.7919   13.1394   -1.4650 H   0  0  0  0  0  0  0  0  0  0  0  0
    3.3230   15.2841   -0.0074 H   0  0  0  0  0  0  0  0  0  0  0  0
   -0.1692   14.6304   -1.9255 H   0  0  0  0  0  0  0  0  0  0  0  0
    1.7364   15.6382   -4.1278 H   0  0  0  0  0  0  0  0  0  0  0  0
   -0.0047   15.1492   -4.3293 H   0  0  0  0  0  0  0  0  0  0  0  0
    0.2793   17.6069   -4.2874 H   0  0  0  0  0  0  0  0  0  0  0  0
   -0.7170   16.9874   -2.9129 H   0  0  0  0  0  0  0  0  0  0  0  0
    0.7884   18.6614   -2.0796 H   0  0  0  0  0  0  0  0  0  0  0  0
    2.7710   18.8020   -2.8550 H   0  0  0  0  0  0  0  0  0  0  0  0
    0.3335   16.9417    0.8566 H   0  0  0  0  0  0  0  0  0  0  0  0
   -0.4489   17.8778   -0.4618 H   0  0  0  0  0  0  0  0  0  0  0  0
   -0.5338   16.0835   -0.4618 H   0  0  0  0  0  0  0  0  0  0  0  0
    2.2675   17.4567    0.8836 H   0  0  0  0  0  0  0  0  0  0  0  0
    3.4763   17.1754   -0.4150 H   0  0  0  0  0  0  0  0  0  0  0  0
    2.4911   18.6775   -0.4150 H   0  0  0  0  0  0  0  0  0  0  0  0
    3.2680   13.0926   -3.3746 H   0  0  0  0  0  0  0  0  0  0  0  0
    2.1056   12.2554   -4.4583 H   0  0  0  0  0  0  0  0  0  0  0  0
    2.2015   14.0491   -4.4583 H   0  0  0  0  0  0  0  0  0  0  0  0
   -0.6590   13.2347   -3.8703 H   0  0  0  0  0  0  0  0  0  0  0  0
    0.2963   11.6468   -3.8896 H   0  0  0  0  0  0  0  0  0  0  0  0
   -1.5794   12.6502   -1.7312 H   0  0  0  0  0  0  0  0  0  0  0  0
   -1.7733   11.2209   -2.8208 H   0  0  0  0  0  0  0  0  0  0  0  0
    0.7909    9.0724   -1.3715 H   0  0  0  0  0  0  0  0  0  0  0  0
   -0.3829    9.3168   -2.7091 H   0  0  0  0  0  0  0  0  0  0  0  0
    1.1770   10.2074   -2.7091 H   0  0  0  0  0  0  0  0  0  0  0  0
  1  2  1  0
  2  3  1  0
  3  4  1  0
  4  5  1  0
  5  6  1  0
  6  7  1  0
  7  8  1  0
  7  9  1  0
  2 10  1  0
 10 11  1  0
 11 12  1  0
 12 13  1  0
 13 14  1  1
 13 15  1  0
 15 16  1  0
 16 17  1  0
 17 18  2  0
 18 19  1  0
 19 20  1  0
 20 21  1  0
 21 22  1  0
 22 23  1  0
 22 24  1  0
 24 25  1  0
 24 26  1  0
 19 27  1  0
 27 28  1  6
 27 29  1  0
 29 30  1  0
 30 31  1  0
 31 32  1  6
  7  5  1  0
 31 10  1  0
 31 13  1  0
 27 15  1  0
 24 18  1  0
  1 33  1  0
  1 34  1  0
  1 35  1  0
  2 36  1  1
  3 37  1  0
  3 38  1  0
  4 39  1  0
  4 40  1  0
  5 41  1  6
  8 42  1  0
  8 43  1  0
  8 44  1  0
  9 45  1  0
  9 46  1  0
  9 47  1  0
 10 48  1  1
 11 49  1  0
 11 50  1  0
 12 51  1  0
 12 52  1  0
 14 53  1  0
 14 54  1  0
 14 55  1  0
 15 56  1  6
 16 57  1  0
 16 58  1  0
 17 59  1  0
 19 60  1  1
 20 61  1  0
 20 62  1  0
 21 63  1  0
 21 64  1  0
 22 65  1  1
 23 66  1  0
 25 67  1  0
 25 68  1  0
 25 69  1  0
 26 70  1  0
 26 71  1  0
 26 72  1  0
 28 73  1  0
 28 74  1  0
 28 75  1  0
 29 76  1  0
 29 77  1  0
 30 78  1  0
 30 79  1  0
 32 80  1  0
 32 81  1  0
 32 82  1  0
M  END
>  <meeko>  (1) 
{"is_sidechain": [false], "intermolecular_energy": 2.731, "internal_energy": -0.839}

$$$$
EPH_relaxed_0001_pdb2pqr_Repair_211_r2_0001_out
     RDKit          3D

 82 86  0  0  0  0  0  0  0  0999 V2000
    2.0280   19.6140   -0.5680 C   0  0  0  0  0  0  0  0  0  0  0  0
    2.4070   18.3970    0.2810 C   0  0  2  0  0  0  0  0  0  0  0  0
    3.8560   17.9370    0.0220 C   0  0  0  0  0  0  0  0  0  0  0  0
    4.8300   18.3100    1.1430 C   0  0  0  0  0  0  0  0  0  0  0  0
    4.1420   19.0460    2.2530 C   0  0  2  0  0  0  0  0  0  0  0  0
    4.8500   20.1940    2.7380 O   0  0  0  0  0  0  0  0  0  0  0  0
    4.6800   19.1140    3.6700 C   0  0  0  0  0  0  0  0  0  0  0  0
    5.9570   18.4350    4.0540 C   0  0  0  0  0  0  0  0  0  0  0  0
    3.7270   19.4220    4.7830 C   0  0  0  0  0  0  0  0  0  0  0  0
    1.4400   17.2510    0.0090 C   0  0  1  0  0  0  0  0  0  0  0  0
    0.1480   17.7180   -0.7120 C   0  0  0  0  0  0  0  0  0  0  0  0
   -0.2700   16.5720   -1.6690 C   0  0  0  0  0  0  0  0  0  0  0  0
    0.5910   15.3650   -1.2300 C   0  0  1  0  0  0  0  0  0  0  0  0
   -0.1510   14.7710    0.0080 C   0  0  0  0  0  0  0  0  0  0  0  0
    0.8600   14.2750   -2.3190 C   0  0  2  0  0  0  0  0  0  0  0  0
   -0.3950   13.5580   -2.8470 C   0  0  0  0  0  0  0  0  0  0  0  0
   -0.7810   12.3210   -2.1060 C   0  0  0  0  0  0  0  0  0  0  0  0
    0.0040   11.6480   -1.2450 C   0  0  0  0  0  0  0  0  0  0  0  0
    1.4620   12.0670   -1.0150 C   0  0  1  0  0  0  0  0  0  0  0  0
    2.3740   10.8130   -1.0590 C   0  0  0  0  0  0  0  0  0  0  0  0
    1.9210    9.7250   -0.0900 C   0  0  0  0  0  0  0  0  0  0  0  0
    0.4870    9.2940   -0.3870 C   0  0  2  0  0  0  0  0  0  0  0  0
    0.4560    8.6420   -1.6610 O   0  0  0  0  0  0  0  0  0  0  0  0
   -0.5230   10.4760   -0.3800 C   0  0  0  0  0  0  0  0  0  0  0  0
   -0.7130   10.9890    1.0690 C   0  0  0  0  0  0  0  0  0  0  0  0
   -1.9030    9.9280   -0.8320 C   0  0  0  0  0  0  0  0  0  0  0  0
    1.9980   13.2440   -1.9380 C   0  0  1  0  0  0  0  0  0  0  0  0
    2.5400   12.6640   -3.2800 C   0  0  0  0  0  0  0  0  0  0  0  0
    3.2200   13.9380   -1.2290 C   0  0  0  0  0  0  0  0  0  0  0  0
    2.8980   15.0870   -0.2540 C   0  0  0  0  0  0  0  0  0  0  0  0
    1.9410   16.0970   -0.8950 C   0  0  2  0  0  0  0  0  0  0  0  0
    2.6700   16.7270   -2.1310 C   0  0  0  0  0  0  0  0  0  0  0  0
    1.7663   20.4543    0.0919 H   0  0  0  0  0  0  0  0  0  0  0  0
    2.8803   19.8980   -1.2028 H   0  0  0  0  0  0  0  0  0  0  0  0
    1.1652   19.3639   -1.2028 H   0  0  0  0  0  0  0  0  0  0  0  0
    2.3395   18.6968    1.3372 H   0  0  0  0  0  0  0  0  0  0  0  0
    3.8582   16.8427   -0.0901 H   0  0  0  0  0  0  0  0  0  0  0  0
    4.1993   18.4527   -0.8869 H   0  0  0  0  0  0  0  0  0  0  0  0
    5.2764   17.3899    1.5483 H   0  0  0  0  0  0  0  0  0  0  0  0
    5.6022   18.9699    0.7209 H   0  0  0  0  0  0  0  0  0  0  0  0
    3.1538   18.7779    1.8510 H   0  0  0  0  0  0  0  0  0  0  0  0
    6.0349   18.3936    5.1505 H   0  0  0  0  0  0  0  0  0  0  0  0
    5.9657   17.4131    3.6469 H   0  0  0  0  0  0  0  0  0  0  0  0
    6.8091   18.9992    3.6469 H   0  0  0  0  0  0  0  0  0  0  0  0
    4.2272   19.2603    5.7493 H   0  0  0  0  0  0  0  0  0  0  0  0
    3.4030   20.4706    4.7087 H   0  0  0  0  0  0  0  0  0  0  0  0
    2.8506   18.7613    4.7087 H   0  0  0  0  0  0  0  0  0  0  0  0
    1.2921   16.8871    1.0365 H   0  0  0  0  0  0  0  0  0  0  0  0
   -0.6484   17.9072    0.0228 H   0  0  0  0  0  0  0  0  0  0  0  0
    0.3211   18.6520   -1.2666 H   0  0  0  0  0  0  0  0  0  0  0  0
   -1.3409   16.3456   -1.5596 H   0  0  0  0  0  0  0  0  0  0  0  0
   -0.1146   16.8332   -2.7262 H   0  0  0  0  0  0  0  0  0  0  0  0
    0.3169   15.1455    0.9304 H   0  0  0  0  0  0  0  0  0  0  0  0
   -1.2077   15.0756   -0.0169 H   0  0  0  0  0  0  0  0  0  0  0  0
   -0.0851   13.6733   -0.0169 H   0  0  0  0  0  0  0  0  0  0  0  0
    1.2404   14.8716   -3.1612 H   0  0  0  0  0  0  0  0  0  0  0  0
   -1.2374   14.2633   -2.7934 H   0  0  0  0  0  0  0  0  0  0  0  0
   -0.1542   13.2369   -3.8712 H   0  0  0  0  0  0  0  0  0  0  0  0
   -1.7931   11.9261   -2.2785 H   0  0  0  0  0  0  0  0  0  0  0  0
    1.4950   12.5172   -0.0119 H   0  0  0  0  0  0  0  0  0  0  0  0
    2.3612   10.4035   -2.0798 H   0  0  0  0  0  0  0  0  0  0  0  0
    3.3855   11.1255   -0.7605 H   0  0  0  0  0  0  0  0  0  0  0  0
    2.5865    8.8547   -0.1889 H   0  0  0  0  0  0  0  0  0  0  0  0
    1.9627   10.1261    0.9334 H   0  0  0  0  0  0  0  0  0  0  0  0
    0.1751    8.6109    0.4168 H   0  0  0  0  0  0  0  0  0  0  0  0
    1.3470    8.2980   -1.8370 H   0  0  0  0  0  0  0  0  0  0  0  0
   -0.4210   10.2006    1.7783 H   0  0  0  0  0  0  0  0  0  0  0  0
   -0.0842   11.8773    1.2289 H   0  0  0  0  0  0  0  0  0  0  0  0
   -1.7687   11.2534    1.2289 H   0  0  0  0  0  0  0  0  0  0  0  0
   -2.5097    9.6871    0.0534 H   0  0  0  0  0  0  0  0  0  0  0  0
   -2.4201   10.6890   -1.4349 H   0  0  0  0  0  0  0  0  0  0  0  0
   -1.7572    9.0195   -1.4349 H   0  0  0  0  0  0  0  0  0  0  0  0
    3.2769   11.8754   -3.0676 H   0  0  0  0  0  0  0  0  0  0  0  0
    1.7065   12.2405   -3.8596 H   0  0  0  0  0  0  0  0  0  0  0  0
    3.0190   13.4669   -3.8596 H   0  0  0  0  0  0  0  0  0  0  0  0
    3.7602   13.1640   -0.6641 H   0  0  0  0  0  0  0  0  0  0  0  0
    3.7970   14.4037   -2.0415 H   0  0  0  0  0  0  0  0  0  0  0  0
    2.4297   14.6712    0.6503 H   0  0  0  0  0  0  0  0  0  0  0  0
    3.8348   15.6040    0.0010 H   0  0  0  0  0  0  0  0  0  0  0  0
    3.4594   17.4092   -1.7826 H   0  0  0  0  0  0  0  0  0  0  0  0
    3.1184   15.9274   -2.7390 H   0  0  0  0  0  0  0  0  0  0  0  0
    1.9439   17.2865   -2.7390 H   0  0  0  0  0  0  0  0  0  0  0  0
  1  2  1  0
  2  3  1  0
  3  4  1  0
  4  5  1  0
  5  6  1  0
  6  7  1  0
  7  8  1  0
  7  9  1  0
  2 10  1  0
 10 11  1  0
 11 12  1  0
 12 13  1  0
 13 14  1  1
 13 15  1  0
 15 16  1  0
 16 17  1  0
 17 18  2  0
 18 19  1  0
 19 20  1  0
 20 21  1  0
 21 22  1  0
 22 23  1  0
 22 24  1  0
 24 25  1  0
 24 26  1  0
 19 27  1  0
 27 28  1  6
 27 29  1  0
 29 30  1  0
 30 31  1  0
 31 32  1  6
  7  5  1  0
 31 10  1  0
 31 13  1  0
 27 15  1  0
 24 18  1  0
  1 33  1  0
  1 34  1  0
  1 35  1  0
  2 36  1  1
  3 37  1  0
  3 38  1  0
  4 39  1  0
  4 40  1  0
  5 41  1  1
  8 42  1  0
  8 43  1  0
  8 44  1  0
  9 45  1  0
  9 46  1  0
  9 47  1  0
 10 48  1  1
 11 49  1  0
 11 50  1  0
 12 51  1  0
 12 52  1  0
 14 53  1  0
 14 54  1  0
 14 55  1  0
 15 56  1  6
 16 57  1  0
 16 58  1  0
 17 59  1  0
 19 60  1  1
 20 61  1  0
 20 62  1  0
 21 63  1  0
 21 64  1  0
 22 65  1  1
 23 66  1  0
 25 67  1  0
 25 68  1  0
 25 69  1  0
 26 70  1  0
 26 71  1  0
 26 72  1  0
 28 73  1  0
 28 74  1  0
 28 75  1  0
 29 76  1  0
 29 77  1  0
 30 78  1  0
 30 79  1  0
 32 80  1  0
 32 81  1  0
 32 82  1  0
M  END
>  <meeko>  (2) 
{"is_sidechain": [false], "intermolecular_energy": 2.731, "internal_energy": -0.839}

$$$$
EPH_relaxed_0001_pdb2pqr_Repair_211_r2_0001_out
     RDKit          3D

 82 86  0  0  0  0  0  0  0  0999 V2000
    0.4100   18.4130    0.0160 C   0  0  0  0  0  0  0  0  0  0  0  0
    1.4990   17.3640   -0.2270 C   0  0  2  0  0  0  0  0  0  0  0  0
    2.6980   17.9400   -1.0060 C   0  0  0  0  0  0  0  0  0  0  0  0
    3.9350   18.1850   -0.1390 C   0  0  0  0  0  0  0  0  0  0  0  0
    3.5640   18.6450    1.2390 C   0  0  2  0  0  0  0  0  0  0  0  0
    3.8110   20.0340    1.4930 O   0  0  0  0  0  0  0  0  0  0  0  0
    4.5800   19.1010    2.2700 C   0  0  0  0  0  0  0  0  0  0  0  0
    6.0450   19.1190    1.9670 C   0  0  0  0  0  0  0  0  0  0  0  0
    4.1970   19.0630    3.7170 C   0  0  0  0  0  0  0  0  0  0  0  0
    0.9140   16.1730   -0.9770 C   0  0  1  0  0  0  0  0  0  0  0  0
    0.7550   16.4430   -2.4970 C   0  0  0  0  0  0  0  0  0  0  0  0
    1.0350   15.1020   -3.2220 C   0  0  0  0  0  0  0  0  0  0  0  0
    1.0180   14.0400   -2.0980 C   0  0  1  0  0  0  0  0  0  0  0  0
   -0.4940   13.7380   -1.8550 C   0  0  0  0  0  0  0  0  0  0  0  0
    1.8310   12.7330   -2.3700 C   0  0  2  0  0  0  0  0  0  0  0  0
    1.3410   11.8960   -3.5640 C   0  0  0  0  0  0  0  0  0  0  0  0
    0.3190   10.8570   -3.2390 C   0  0  0  0  0  0  0  0  0  0  0  0
    0.0220   10.4120   -2.0040 C   0  0  0  0  0  0  0  0  0  0  0  0
    0.8150   10.8930   -0.7810 C   0  0  1  0  0  0  0  0  0  0  0  0
    1.1920    9.6750    0.1030 C   0  0  0  0  0  0  0  0  0  0  0  0
   -0.0210    8.8340    0.4880 C   0  0  0  0  0  0  0  0  0  0  0  0
   -0.7490    8.3260   -0.7540 C   0  0  2  0  0  0  0  0  0  0  0  0
    0.0980    7.3980   -1.4380 O   0  0  0  0  0  0  0  0  0  0  0  0
   -1.1700    9.4640   -1.7250 C   0  0  0  0  0  0  0  0  0  0  0  0
   -2.3130   10.2940   -1.0900 C   0  0  0  0  0  0  0  0  0  0  0  0
   -1.7670    8.8080   -3.0000 C   0  0  0  0  0  0  0  0  0  0  0  0
    2.0590   11.8330   -1.0880 C   0  0  1  0  0  0  0  0  0  0  0  0
    3.3240   10.9660   -1.3720 C   0  0  0  0  0  0  0  0  0  0  0  0
    2.3860   12.6880    0.1930 C   0  0  0  0  0  0  0  0  0  0  0  0
    1.6370   14.0260    0.3440 C   0  0  0  0  0  0  0  0  0  0  0  0
    1.7180   14.8480   -0.9450 C   0  0  2  0  0  0  0  0  0  0  0  0
    3.2250   15.1860   -1.2040 C   0  0  0  0  0  0  0  0  0  0  0  0
    0.2678   18.5500    1.0981 H   0  0  0  0  0  0  0  0  0  0  0  0
    0.7131   19.3681   -0.4378 H   0  0  0  0  0  0  0  0  0  0  0  0
   -0.5331   18.0744   -0.4378 H   0  0  0  0  0  0  0  0  0  0  0  0
    1.8706   17.0391    0.7560 H   0  0  0  0  0  0  0  0  0  0  0  0
    2.9673   17.2310   -1.8027 H   0  0  0  0  0  0  0  0  0  0  0  0
    2.3844   18.9172   -1.4018 H   0  0  0  0  0  0  0  0  0  0  0  0
    4.5064   17.2484   -0.0604 H   0  0  0  0  0  0  0  0  0  0  0  0
    4.5358   18.9746   -0.6140 H   0  0  0  0  0  0  0  0  0  0  0  0
    2.7405   17.9172    1.2863 H   0  0  0  0  0  0  0  0  0  0  0  0
    6.6141   19.1260    2.9083 H   0  0  0  0  0  0  0  0  0  0  0  0
    6.3101   18.2240    1.3849 H   0  0  0  0  0  0  0  0  0  0  0  0
    6.2880   20.0202    1.3849 H   0  0  0  0  0  0  0  0  0  0  0  0
    5.1006   19.1526    4.3379 H   0  0  0  0  0  0  0  0  0  0  0  0
    3.5159   19.8980    3.9381 H   0  0  0  0  0  0  0  0  0  0  0  0
    3.6932   18.1105    3.9381 H   0  0  0  0  0  0  0  0  0  0  0  0
   -0.0306   16.0542   -0.4260 H   0  0  0  0  0  0  0  0  0  0  0  0
   -0.2672   16.7855   -2.7158 H   0  0  0  0  0  0  0  0  0  0  0  0
    1.4503   17.2262   -2.8335 H   0  0  0  0  0  0  0  0  0  0  0  0
    0.2527   14.8922   -3.9663 H   0  0  0  0  0  0  0  0  0  0  0  0
    1.9891   15.1149   -3.7693 H   0  0  0  0  0  0  0  0  0  0  0  0
   -0.6908   13.6987   -0.7735 H   0  0  0  0  0  0  0  0  0  0  0  0
   -1.1043   14.5320   -2.3101 H   0  0  0  0  0  0  0  0  0  0  0  0
   -0.7524   12.7705   -2.3101 H   0  0  0  0  0  0  0  0  0  0  0  0
    2.8157   13.1250   -2.6645 H   0  0  0  0  0  0  0  0  0  0  0  0
    0.9039   12.5828   -4.3038 H   0  0  0  0  0  0  0  0  0  0  0  0
    2.2215   11.3507   -3.9347 H   0  0  0  0  0  0  0  0  0  0  0  0
   -0.2382   10.4183   -4.0799 H   0  0  0  0  0  0  0  0  0  0  0  0
    0.1421   11.5629   -0.2257 H   0  0  0  0  0  0  0  0  0  0  0  0
    1.8985    9.0411   -0.4528 H   0  0  0  0  0  0  0  0  0  0  0  0
    1.6386   10.0614    1.0310 H   0  0  0  0  0  0  0  0  0  0  0  0
    0.3128    7.9737    1.0867 H   0  0  0  0  0  0  0  0  0  0  0  0
   -0.7132    9.4614    1.0687 H   0  0  0  0  0  0  0  0  0  0  0  0
   -1.6775    7.8416   -0.4173 H   0  0  0  0  0  0  0  0  0  0  0  0
   -0.3390    6.5300   -1.4180 H   0  0  0  0  0  0  0  0  0  0  0  0
   -2.2395   10.2407    0.0062 H   0  0  0  0  0  0  0  0  0  0  0  0
   -2.2279   11.3422   -1.4126 H   0  0  0  0  0  0  0  0  0  0  0  0
   -3.2834    9.8887   -1.4126 H   0  0  0  0  0  0  0  0  0  0  0  0
   -2.4809    8.0235   -2.7087 H   0  0  0  0  0  0  0  0  0  0  0  0
   -2.2857    9.5725   -3.5971 H   0  0  0  0  0  0  0  0  0  0  0  0
   -0.9572    8.3634   -3.5971 H   0  0  0  0  0  0  0  0  0  0  0  0
    3.7772   10.6554   -0.4190 H   0  0  0  0  0  0  0  0  0  0  0  0
    3.0358   10.0747   -1.9486 H   0  0  0  0  0  0  0  0  0  0  0  0
    4.0513   11.5564   -1.9486 H   0  0  0  0  0  0  0  0  0  0  0  0
    2.1491   12.0726    1.0734 H   0  0  0  0  0  0  0  0  0  0  0  0
    3.4469   12.9612    0.0941 H   0  0  0  0  0  0  0  0  0  0  0  0
    0.5810   13.8231    0.5756 H   0  0  0  0  0  0  0  0  0  0  0  0
    2.1059   14.6006    1.1564 H   0  0  0  0  0  0  0  0  0  0  0  0
    3.7452   15.3027   -0.2418 H   0  0  0  0  0  0  0  0  0  0  0  0
    3.6907   14.3700   -1.7760 H   0  0  0  0  0  0  0  0  0  0  0  0
    3.2976   16.1227   -1.7760 H   0  0  0  0  0  0  0  0  0  0  0  0
  1  2  1  0
  2  3  1  0
  3  4  1  0
  4  5  1  0
  5  6  1  0
  6  7  1  0
  7  8  1  0
  7  9  1  0
  2 10  1  0
 10 11  1  0
 11 12  1  0
 12 13  1  0
 13 14  1  1
 13 15  1  0
 15 16  1  0
 16 17  1  0
 17 18  2  0
 18 19  1  0
 19 20  1  0
 20 21  1  0
 21 22  1  0
 22 23  1  0
 22 24  1  0
 24 25  1  0
 24 26  1  0
 19 27  1  0
 27 28  1  6
 27 29  1  0
 29 30  1  0
 30 31  1  0
 31 32  1  6
  7  5  1  0
 31 10  1  0
 31 13  1  0
 27 15  1  0
 24 18  1  0
  1 33  1  0
  1 34  1  0
  1 35  1  0
  2 36  1  1
  3 37  1  0
  3 38  1  0
  4 39  1  0
  4 40  1  0
  5 41  1  1
  8 42  1  0
  8 43  1  0
  8 44  1  0
  9 45  1  0
  9 46  1  0
  9 47  1  0
 10 48  1  1
 11 49  1  0
 11 50  1  0
 12 51  1  0
 12 52  1  0
 14 53  1  0
 14 54  1  0
 14 55  1  0
 15 56  1  6
 16 57  1  0
 16 58  1  0
 17 59  1  0
 19 60  1  1
 20 61  1  0
 20 62  1  0
 21 63  1  0
 21 64  1  0
 22 65  1  1
 23 66  1  0
 25 67  1  0
 25 68  1  0
 25 69  1  0
 26 70  1  0
 26 71  1  0
 26 72  1  0
 28 73  1  0
 28 74  1  0
 28 75  1  0
 29 76  1  0
 29 77  1  0
 30 78  1  0
 30 79  1  0
 32 80  1  0
 32 81  1  0
 32 82  1  0
M  END
>  <meeko>  (3) 
{"is_sidechain": [false], "intermolecular_energy": 2.731, "internal_energy": -0.839}

$$$$
EPH_relaxed_0001_pdb2pqr_Repair_211_r2_0001_out
     RDKit          3D

 82 86  0  0  0  0  0  0  0  0999 V2000
    2.4050   18.0060   -2.6900 C   0  0  0  0  0  0  0  0  0  0  0  0
    1.0910   17.6490   -1.9890 C   0  0  2  0  0  0  0  0  0  0  0  0
    1.2150   17.7170   -0.4530 C   0  0  0  0  0  0  0  0  0  0  0  0
    0.8590   19.0850    0.1340 C   0  0  0  0  0  0  0  0  0  0  0  0
   -0.6000   19.1850    0.4620 C   0  0  2  0  0  0  0  0  0  0  0  0
   -1.4370   18.2580   -0.2430 O   0  0  0  0  0  0  0  0  0  0  0  0
   -1.6510   19.6500   -0.5300 C   0  0  0  0  0  0  0  0  0  0  0  0
   -1.2850   20.0470   -1.9260 C   0  0  0  0  0  0  0  0  0  0  0  0
   -2.9470   20.1820   -0.0020 C   0  0  0  0  0  0  0  0  0  0  0  0
    0.6360   16.2580   -2.4140 C   0  0  1  0  0  0  0  0  0  0  0  0
    0.6900   16.0560   -3.9520 C   0  0  0  0  0  0  0  0  0  0  0  0
    1.0890   14.5780   -4.1950 C   0  0  0  0  0  0  0  0  0  0  0  0
    0.9280   13.8980   -2.8150 C   0  0  1  0  0  0  0  0  0  0  0  0
   -0.5990   13.5970   -2.6920 C   0  0  0  0  0  0  0  0  0  0  0  0
    1.7900   12.6170   -2.5700 C   0  0  2  0  0  0  0  0  0  0  0  0
    1.4860   11.4370   -3.5100 C   0  0  0  0  0  0  0  0  0  0  0  0
    0.4430   10.4870   -3.0230 C   0  0  0  0  0  0  0  0  0  0  0  0
   -0.0190   10.4120   -1.7610 C   0  0  0  0  0  0  0  0  0  0  0  0
    0.5850   11.2780   -0.6480 C   0  0  1  0  0  0  0  0  0  0  0  0
    0.8500   10.4010    0.6040 C   0  0  0  0  0  0  0  0  0  0  0  0
   -0.3930    9.6450    1.0630 C   0  0  0  0  0  0  0  0  0  0  0  0
   -0.9310    8.7520   -0.0520 C   0  0  2  0  0  0  0  0  0  0  0  0
    0.0180    7.7120   -0.3070 O   0  0  0  0  0  0  0  0  0  0  0  0
   -1.2260    9.5240   -1.3680 C   0  0  0  0  0  0  0  0  0  0  0  0
   -2.4590   10.4400   -1.1690 C   0  0  0  0  0  0  0  0  0  0  0  0
   -1.6260    8.4870   -2.4510 C   0  0  0  0  0  0  0  0  0  0  0  0
    1.8470   12.1530   -1.0580 C   0  0  1  0  0  0  0  0  0  0  0  0
    3.1510   11.3140   -0.8990 C   0  0  0  0  0  0  0  0  0  0  0  0
    1.9760   13.3670   -0.0640 C   0  0  0  0  0  0  0  0  0  0  0  0
    1.1940   14.6450   -0.4230 C   0  0  0  0  0  0  0  0  0  0  0  0
    1.4450   15.0510   -1.8790 C   0  0  2  0  0  0  0  0  0  0  0  0
    2.9700   15.3810   -2.0270 C   0  0  0  0  0  0  0  0  0  0  0  0
    3.1777   18.2159   -1.9358 H   0  0  0  0  0  0  0  0  0  0  0  0
    2.7260   17.1625   -3.3189 H   0  0  0  0  0  0  0  0  0  0  0  0
    2.2551   18.8960   -3.3189 H   0  0  0  0  0  0  0  0  0  0  0  0
    0.3409   18.3940   -2.2928 H   0  0  0  0  0  0  0  0  0  0  0  0
    0.5402   16.9658   -0.0167 H   0  0  0  0  0  0  0  0  0  0  0  0
    2.2703   17.5270   -0.2074 H   0  0  0  0  0  0  0  0  0  0  0  0
    1.4425   19.2412    1.0533 H   0  0  0  0  0  0  0  0  0  0  0  0
    1.0947   19.8525   -0.6179 H   0  0  0  0  0  0  0  0  0  0  0  0
   -0.3714   19.4925    1.4931 H   0  0  0  0  0  0  0  0  0  0  0  0
   -0.5397   20.8554   -1.8938 H   0  0  0  0  0  0  0  0  0  0  0  0
   -0.8628   19.1799   -2.4550 H   0  0  0  0  0  0  0  0  0  0  0  0
   -2.1835   20.3975   -2.4550 H   0  0  0  0  0  0  0  0  0  0  0  0
   -2.9260   20.1734    1.0978 H   0  0  0  0  0  0  0  0  0  0  0  0
   -3.0925   21.2126   -0.3579 H   0  0  0  0  0  0  0  0  0  0  0  0
   -3.7747   19.5509   -0.3579 H   0  0  0  0  0  0  0  0  0  0  0  0
   -0.3752   16.2544   -1.9810 H   0  0  0  0  0  0  0  0  0  0  0  0
   -0.2956   16.2602   -4.3957 H   0  0  0  0  0  0  0  0  0  0  0  0
    1.4144   16.7420   -4.4153 H   0  0  0  0  0  0  0  0  0  0  0  0
    0.4232   14.1131   -4.9370 H   0  0  0  0  0  0  0  0  0  0  0  0
    2.1108   14.4816   -4.5907 H   0  0  0  0  0  0  0  0  0  0  0  0
   -0.8775   13.5421   -1.6292 H   0  0  0  0  0  0  0  0  0  0  0  0
   -1.1714   14.3996   -3.1800 H   0  0  0  0  0  0  0  0  0  0  0  0
   -0.8240   12.6372   -3.1800 H   0  0  0  0  0  0  0  0  0  0  0  0
    2.8012   12.9582   -2.8365 H   0  0  0  0  0  0  0  0  0  0  0  0
    1.1487   11.8477   -4.4731 H   0  0  0  0  0  0  0  0  0  0  0  0
    2.4176   10.8563   -3.5810 H   0  0  0  0  0  0  0  0  0  0  0  0
    0.0156    9.7889   -3.7578 H   0  0  0  0  0  0  0  0  0  0  0  0
   -0.1697   12.0435   -0.4148 H   0  0  0  0  0  0  0  0  0  0  0  0
    1.6374    9.6716    0.3632 H   0  0  0  0  0  0  0  0  0  0  0  0
    1.1544   11.0705    1.4220 H   0  0  0  0  0  0  0  0  0  0  0  0
   -0.1346    9.0208    1.9311 H   0  0  0  0  0  0  0  0  0  0  0  0
   -1.1692   10.3763    1.3325 H   0  0  0  0  0  0  0  0  0  0  0  0
   -1.8913    8.3393    0.2906 H   0  0  0  0  0  0  0  0  0  0  0  0
    0.4370    7.4810    0.5390 H   0  0  0  0  0  0  0  0  0  0  0  0
   -2.6439   10.5774   -0.0934 H   0  0  0  0  0  0  0  0  0  0  0  0
   -2.2688   11.4175   -1.6361 H   0  0  0  0  0  0  0  0  0  0  0  0
   -3.3400    9.9756   -1.6361 H   0  0  0  0  0  0  0  0  0  0  0  0
   -1.9810    7.5667   -1.9641 H   0  0  0  0  0  0  0  0  0  0  0  0
   -2.4282    8.9028   -3.0783 H   0  0  0  0  0  0  0  0  0  0  0  0
   -0.7523    8.2564   -3.0783 H   0  0  0  0  0  0  0  0  0  0  0  0
    3.3688   11.1739    0.1701 H   0  0  0  0  0  0  0  0  0  0  0  0
    3.0163   10.3327   -1.3774 H   0  0  0  0  0  0  0  0  0  0  0  0
    3.9882   11.8433   -1.3774 H   0  0  0  0  0  0  0  0  0  0  0  0
    1.6254   13.0284    0.9221 H   0  0  0  0  0  0  0  0  0  0  0  0
    3.0361   13.6582   -0.1014 H   0  0  0  0  0  0  0  0  0  0  0  0
    0.1189   14.4608   -0.2811 H   0  0  0  0  0  0  0  0  0  0  0  0
    1.5348   15.4603    0.2321 H   0  0  0  0  0  0  0  0  0  0  0  0
    3.4225   15.4789   -1.0292 H   0  0  0  0  0  0  0  0  0  0  0  0
    3.4689   14.5700   -2.5779 H   0  0  0  0  0  0  0  0  0  0  0  0
    3.0890   16.3257   -2.5779 H   0  0  0  0  0  0  0  0  0  0  0  0
  1  2  1  0
  2  3  1  0
  3  4  1  0
  4  5  1  0
  5  6  1  0
  6  7  1  0
  7  8  1  0
  7  9  1  0
  2 10  1  0
 10 11  1  0
 11 12  1  0
 12 13  1  0
 13 14  1  1
 13 15  1  0
 15 16  1  0
 16 17  1  0
 17 18  2  0
 18 19  1  0
 19 20  1  0
 20 21  1  0
 21 22  1  0
 22 23  1  0
 22 24  1  0
 24 25  1  0
 24 26  1  0
 19 27  1  0
 27 28  1  6
 27 29  1  0
 29 30  1  0
 30 31  1  0
 31 32  1  1
  7  5  1  0
 31 10  1  0
 31 13  1  0
 27 15  1  0
 24 18  1  0
  1 33  1  0
  1 34  1  0
  1 35  1  0
  2 36  1  6
  3 37  1  0
  3 38  1  0
  4 39  1  0
  4 40  1  0
  5 41  1  1
  8 42  1  0
  8 43  1  0
  8 44  1  0
  9 45  1  0
  9 46  1  0
  9 47  1  0
 10 48  1  1
 11 49  1  0
 11 50  1  0
 12 51  1  0
 12 52  1  0
 14 53  1  0
 14 54  1  0
 14 55  1  0
 15 56  1  6
 16 57  1  0
 16 58  1  0
 17 59  1  0
 19 60  1  1
 20 61  1  0
 20 62  1  0
 21 63  1  0
 21 64  1  0
 22 65  1  1
 23 66  1  0
 25 67  1  0
 25 68  1  0
 25 69  1  0
 26 70  1  0
 26 71  1  0
 26 72  1  0
 28 73  1  0
 28 74  1  0
 28 75  1  0
 29 76  1  0
 29 77  1  0
 30 78  1  0
 30 79  1  0
 32 80  1  0
 32 81  1  0
 32 82  1  0
M  END
>  <meeko>  (4) 
{"is_sidechain": [false], "intermolecular_energy": 2.731, "internal_energy": -0.839}

$$$$
EPH_relaxed_0001_pdb2pqr_Repair_211_r2_0001_out
     RDKit          3D

 82 86  0  0  0  0  0  0  0  0999 V2000
    3.9310   17.5310    0.2440 C   0  0  0  0  0  0  0  0  0  0  0  0
    2.8190   17.9140   -0.7360 C   0  0  2  0  0  0  0  0  0  0  0  0
    2.1840   19.2760   -0.3910 C   0  0  0  0  0  0  0  0  0  0  0  0
    1.1210   19.1980    0.7080 C   0  0  0  0  0  0  0  0  0  0  0  0
   -0.1110   19.9700    0.3430 C   0  0  2  0  0  0  0  0  0  0  0  0
   -1.0200   20.1940    1.4280 O   0  0  0  0  0  0  0  0  0  0  0  0
   -1.5060   19.3740    0.3540 C   0  0  0  0  0  0  0  0  0  0  0  0
   -1.7410   17.9460    0.7360 C   0  0  0  0  0  0  0  0  0  0  0  0
   -2.5700   20.0280   -0.4710 C   0  0  0  0  0  0  0  0  0  0  0  0
    1.7480   16.8300   -0.7570 C   0  0  1  0  0  0  0  0  0  0  0  0
    0.4140   17.3200   -1.3800 C   0  0  0  0  0  0  0  0  0  0  0  0
   -0.1960   16.1120   -2.1370 C   0  0  0  0  0  0  0  0  0  0  0  0
    0.6240   14.8930   -1.6540 C   0  0  1  0  0  0  0  0  0  0  0  0
   -0.0020   14.5080   -0.2770 C   0  0  0  0  0  0  0  0  0  0  0  0
    0.6810   13.6700   -2.6250 C   0  0  2  0  0  0  0  0  0  0  0  0
   -0.6750   13.0050   -2.9180 C   0  0  0  0  0  0  0  0  0  0  0  0
   -1.0550   11.8960   -1.9930 C   0  0  0  0  0  0  0  0  0  0  0  0
   -0.2210   11.2610   -1.1490 C   0  0  0  0  0  0  0  0  0  0  0  0
    1.2800   11.5800   -1.1370 C   0  0  1  0  0  0  0  0  0  0  0  0
    2.0900   10.2560   -1.1300 C   0  0  0  0  0  0  0  0  0  0  0  0
    1.6810    9.3270    0.0090 C   0  0  0  0  0  0  0  0  0  0  0  0
    0.1950    8.9870   -0.0700 C   0  0  2  0  0  0  0  0  0  0  0  0
   -0.0360    8.2010   -1.2430 O   0  0  0  0  0  0  0  0  0  0  0  0
   -0.7200   10.2430   -0.0940 C   0  0  0  0  0  0  0  0  0  0  0  0
   -0.6970   10.9300    1.2930 C   0  0  0  0  0  0  0  0  0  0  0  0
   -2.1800    9.7660   -0.3190 C   0  0  0  0  0  0  0  0  0  0  0  0
    1.7820   12.5960   -2.2510 C   0  0  1  0  0  0  0  0  0  0  0  0
    2.1150   11.8240   -3.5640 C   0  0  0  0  0  0  0  0  0  0  0  0
    3.1270   13.2600   -1.7730 C   0  0  0  0  0  0  0  0  0  0  0  0
    3.0070   14.5340   -0.9160 C   0  0  0  0  0  0  0  0  0  0  0  0
    2.0530   15.5430   -1.5640 C   0  0  2  0  0  0  0  0  0  0  0  0
    2.6690   15.9660   -2.9410 C   0  0  0  0  0  0  0  0  0  0  0  0
    3.5696   17.6555    1.2755 H   0  0  0  0  0  0  0  0  0  0  0  0
    4.2187   16.4820    0.0803 H   0  0  0  0  0  0  0  0  0  0  0  0
    4.8037   18.1804    0.0803 H   0  0  0  0  0  0  0  0  0  0  0  0
    3.2744   18.0056   -1.7331 H   0  0  0  0  0  0  0  0  0  0  0  0
    2.9810   19.9559   -0.0557 H   0  0  0  0  0  0  0  0  0  0  0  0
    1.6807   19.6359   -1.3005 H   0  0  0  0  0  0  0  0  0  0  0  0
    0.8478   18.1442    0.8656 H   0  0  0  0  0  0  0  0  0  0  0  0
    1.5421   19.6372    1.6244 H   0  0  0  0  0  0  0  0  0  0  0  0
    0.4425   20.5383   -0.4191 H   0  0  0  0  0  0  0  0  0  0  0  0
   -1.7556   17.8574    1.8323 H   0  0  0  0  0  0  0  0  0  0  0  0
   -2.7063   17.6114    0.3282 H   0  0  0  0  0  0  0  0  0  0  0  0
   -0.9338   17.3198    0.3282 H   0  0  0  0  0  0  0  0  0  0  0  0
   -3.3176   20.4875    0.1922 H   0  0  0  0  0  0  0  0  0  0  0  0
   -2.1168   20.8037   -1.1058 H   0  0  0  0  0  0  0  0  0  0  0  0
   -3.0575   19.2734   -1.1058 H   0  0  0  0  0  0  0  0  0  0  0  0
    1.7008   16.5978    0.3172 H   0  0  0  0  0  0  0  0  0  0  0  0
   -0.2722   17.6572   -0.5892 H   0  0  0  0  0  0  0  0  0  0  0  0
    0.5834   18.1678   -2.0601 H   0  0  0  0  0  0  0  0  0  0  0  0
   -1.2590   15.9905   -1.8816 H   0  0  0  0  0  0  0  0  0  0  0  0
   -0.1508   16.2385   -3.2288 H   0  0  0  0  0  0  0  0  0  0  0  0
    0.6303   14.8969    0.5348 H   0  0  0  0  0  0  0  0  0  0  0  0
   -1.0092   14.9429   -0.1977 H   0  0  0  0  0  0  0  0  0  0  0  0
   -0.0682   13.4129   -0.1977 H   0  0  0  0  0  0  0  0  0  0  0  0
    0.9961   14.1351   -3.5707 H   0  0  0  0  0  0  0  0  0  0  0  0
   -1.4535   13.7797   -2.8576 H   0  0  0  0  0  0  0  0  0  0  0  0
   -0.5818   12.5507   -3.9154 H   0  0  0  0  0  0  0  0  0  0  0  0
   -2.1057   11.5705   -2.0023 H   0  0  0  0  0  0  0  0  0  0  0  0
    1.4654   12.1368   -0.2066 H   0  0  0  0  0  0  0  0  0  0  0  0
    1.9251    9.7365   -2.0855 H   0  0  0  0  0  0  0  0  0  0  0  0
    3.1499   10.5133   -0.9873 H   0  0  0  0  0  0  0  0  0  0  0  0
    2.2666    8.3981   -0.0563 H   0  0  0  0  0  0  0  0  0  0  0  0
    1.8737    9.8373    0.9642 H   0  0  0  0  0  0  0  0  0  0  0  0
   -0.0645    8.4273    0.8407 H   0  0  0  0  0  0  0  0  0  0  0  0
   -0.4610    7.3730   -0.9640 H   0  0  0  0  0  0  0  0  0  0  0  0
   -0.7226   10.1640    2.0821 H   0  0  0  0  0  0  0  0  0  0  0  0
    0.2216   11.5270    1.3913 H   0  0  0  0  0  0  0  0  0  0  0  0
   -1.5736   11.5871    1.3913 H   0  0  0  0  0  0  0  0  0  0  0  0
   -2.6677    9.6066    0.6540 H   0  0  0  0  0  0  0  0  0  0  0  0
   -2.7323   10.5304   -0.8852 H   0  0  0  0  0  0  0  0  0  0  0  0
   -2.1745    8.8229   -0.8852 H   0  0  0  0  0  0  0  0  0  0  0  0
    2.5392   10.8405   -3.3135 H   0  0  0  0  0  0  0  0  0  0  0  0
    1.1957   11.6877   -4.1524 H   0  0  0  0  0  0  0  0  0  0  0  0
    2.8450   12.3992   -4.1524 H   0  0  0  0  0  0  0  0  0  0  0  0
    3.6756   12.5119   -1.1819 H   0  0  0  0  0  0  0  0  0  0  0  0
    3.6331   13.5806   -2.6955 H   0  0  0  0  0  0  0  0  0  0  0  0
    2.6233   14.2637    0.0788 H   0  0  0  0  0  0  0  0  0  0  0  0
    4.0020   14.9956   -0.8326 H   0  0  0  0  0  0  0  0  0  0  0  0
    3.5646   16.5810   -2.7686 H   0  0  0  0  0  0  0  0  0  0  0  0
    2.9459   15.0666   -3.5106 H   0  0  0  0  0  0  0  0  0  0  0  0
    1.9290   16.5474   -3.5106 H   0  0  0  0  0  0  0  0  0  0  0  0
  1  2  1  0
  2  3  1  0
  3  4  1  0
  4  5  1  0
  5  6  1  0
  6  7  1  0
  7  8  1  0
  7  9  1  0
  2 10  1  0
 10 11  1  0
 11 12  1  0
 12 13  1  0
 13 14  1  1
 13 15  1  0
 15 16  1  0
 16 17  1  0
 17 18  2  0
 18 19  1  0
 19 20  1  0
 20 21  1  0
 21 22  1  0
 22 23  1  0
 22 24  1  0
 24 25  1  0
 24 26  1  0
 19 27  1  0
 27 28  1  6
 27 29  1  0
 29 30  1  0
 30 31  1  0
 31 32  1  6
  7  5  1  0
 31 10  1  0
 31 13  1  0
 27 15  1  0
 24 18  1  0
  1 33  1  0
  1 34  1  0
  1 35  1  0
  2 36  1  6
  3 37  1  0
  3 38  1  0
  4 39  1  0
  4 40  1  0
  5 41  1  6
  8 42  1  0
  8 43  1  0
  8 44  1  0
  9 45  1  0
  9 46  1  0
  9 47  1  0
 10 48  1  1
 11 49  1  0
 11 50  1  0
 12 51  1  0
 12 52  1  0
 14 53  1  0
 14 54  1  0
 14 55  1  0
 15 56  1  6
 16 57  1  0
 16 58  1  0
 17 59  1  0
 19 60  1  1
 20 61  1  0
 20 62  1  0
 21 63  1  0
 21 64  1  0
 22 65  1  1
 23 66  1  0
 25 67  1  0
 25 68  1  0
 25 69  1  0
 26 70  1  0
 26 71  1  0
 26 72  1  0
 28 73  1  0
 28 74  1  0
 28 75  1  0
 29 76  1  0
 29 77  1  0
 30 78  1  0
 30 79  1  0
 32 80  1  0
 32 81  1  0
 32 82  1  0
M  END
>  <meeko>  (5) 
{"is_sidechain": [false], "intermolecular_energy": 2.731, "internal_energy": -0.839}

$$$$
EPH_relaxed_0001_pdb2pqr_Repair_211_r2_0001_out
     RDKit          3D

 82 86  0  0  0  0  0  0  0  0999 V2000
   -5.1980    5.7730   -1.6910 C   0  0  0  0  0  0  0  0  0  0  0  0
   -5.4660    7.2780   -1.7890 C   0  0  2  0  0  0  0  0  0  0  0  0
   -5.2240    8.0000   -0.4490 C   0  0  0  0  0  0  0  0  0  0  0  0
   -4.2020    9.1370   -0.5380 C   0  0  0  0  0  0  0  0  0  0  0  0
   -2.8210    8.6210   -0.8060 C   0  0  2  0  0  0  0  0  0  0  0  0
   -1.8490    8.9680    0.1890 O   0  0  0  0  0  0  0  0  0  0  0  0
   -1.6390    9.5180   -1.1220 C   0  0  0  0  0  0  0  0  0  0  0  0
   -1.7850   11.0060   -1.1870 C   0  0  0  0  0  0  0  0  0  0  0  0
   -0.4660    8.9300   -1.8420 C   0  0  0  0  0  0  0  0  0  0  0  0
   -6.8950    7.5210   -2.2600 C   0  0  1  0  0  0  0  0  0  0  0  0
   -7.2030    6.8290   -3.6150 C   0  0  0  0  0  0  0  0  0  0  0  0
   -8.6840    6.3730   -3.5590 C   0  0  0  0  0  0  0  0  0  0  0  0
   -9.2690    7.1000   -2.3260 C   0  0  1  0  0  0  0  0  0  0  0  0
   -9.6010    8.5400   -2.8290 C   0  0  0  0  0  0  0  0  0  0  0  0
  -10.5070    6.4260   -1.6490 C   0  0  2  0  0  0  0  0  0  0  0  0
  -11.7570    6.3150   -2.5380 C   0  0  0  0  0  0  0  0  0  0  0  0
  -12.6990    7.4710   -2.4620 C   0  0  0  0  0  0  0  0  0  0  0  0
  -12.6970    8.4200   -1.5060 C   0  0  0  0  0  0  0  0  0  0  0  0
  -11.7400    8.3310   -0.3110 C   0  0  1  0  0  0  0  0  0  0  0  0
  -12.5200    8.6190    0.9990 C   0  0  0  0  0  0  0  0  0  0  0  0
  -13.2740    9.9440    0.9520 C   0  0  0  0  0  0  0  0  0  0  0  0
  -14.2570    9.9710   -0.2150 C   0  0  2  0  0  0  0  0  0  0  0  0
  -15.2870    9.0070    0.0270 O   0  0  0  0  0  0  0  0  0  0  0  0
  -13.5870    9.6840   -1.5880 C   0  0  0  0  0  0  0  0  0  0  0  0
  -12.6920   10.8830   -1.9900 C   0  0  0  0  0  0  0  0  0  0  0  0
  -14.7080    9.6010   -2.6590 C   0  0  0  0  0  0  0  0  0  0  0  0
  -10.8620    7.0090   -0.2210 C   0  0  1  0  0  0  0  0  0  0  0  0
  -11.6540    5.8950    0.5300 C   0  0  0  0  0  0  0  0  0  0  0  0
   -9.5790    7.3010    0.6430 C   0  0  0  0  0  0  0  0  0  0  0  0
   -8.3500    7.8540   -0.1040 C   0  0  0  0  0  0  0  0  0  0  0  0
   -8.0410    7.0150   -1.3480 C   0  0  2  0  0  0  0  0  0  0  0  0
   -7.6820    5.5670   -0.8710 C   0  0  0  0  0  0  0  0  0  0  0  0
   -5.1455    5.4781   -0.6326 H   0  0  0  0  0  0  0  0  0  0  0  0
   -6.0123    5.2226   -2.1850 H   0  0  0  0  0  0  0  0  0  0  0  0
   -4.2438    5.5375   -2.1850 H   0  0  0  0  0  0  0  0  0  0  0  0
   -4.7568    7.6933   -2.5202 H   0  0  0  0  0  0  0  0  0  0  0  0
   -6.1803    8.4190   -0.1026 H   0  0  0  0  0  0  0  0  0  0  0  0
   -4.8152    7.2543    0.2487 H   0  0  0  0  0  0  0  0  0  0  0  0
   -4.4936    9.8154   -1.3533 H   0  0  0  0  0  0  0  0  0  0  0  0
   -4.1899    9.6637    0.4277 H   0  0  0  0  0  0  0  0  0  0  0  0
   -3.2260    7.7303   -1.3087 H   0  0  0  0  0  0  0  0  0  0  0  0
   -1.8252   11.4154   -0.1668 H   0  0  0  0  0  0  0  0  0  0  0  0
   -0.9247   11.4359   -1.7210 H   0  0  0  0  0  0  0  0  0  0  0  0
   -2.7124   11.2605   -1.7210 H   0  0  0  0  0  0  0  0  0  0  0  0
    0.2674    8.5624   -1.1092 H   0  0  0  0  0  0  0  0  0  0  0  0
   -0.8041    8.0948   -2.4730 H   0  0  0  0  0  0  0  0  0  0  0  0
    0.0008    9.7006   -2.4730 H   0  0  0  0  0  0  0  0  0  0  0  0
   -6.8945    8.6206   -2.2892 H   0  0  0  0  0  0  0  0  0  0  0  0
   -7.0559    7.5371   -4.4438 H   0  0  0  0  0  0  0  0  0  0  0  0
   -6.5326    5.9731   -3.7823 H   0  0  0  0  0  0  0  0  0  0  0  0
   -9.2168    6.6703   -4.4742 H   0  0  0  0  0  0  0  0  0  0  0  0
   -8.7816    5.2799   -3.4842 H   0  0  0  0  0  0  0  0  0  0  0  0
   -9.7541    9.2039   -1.9654 H   0  0  0  0  0  0  0  0  0  0  0  0
   -8.7663    8.9172   -3.4380 H   0  0  0  0  0  0  0  0  0  0  0  0
  -10.5166    8.5136   -3.4380 H   0  0  0  0  0  0  0  0  0  0  0  0
  -10.1588    5.3941   -1.4946 H   0  0  0  0  0  0  0  0  0  0  0  0
  -11.4240    6.2161   -3.5817 H   0  0  0  0  0  0  0  0  0  0  0  0
  -12.3160    5.4424   -2.1690 H   0  0  0  0  0  0  0  0  0  0  0  0
  -13.4585    7.5547   -3.2533 H   0  0  0  0  0  0  0  0  0  0  0  0
  -10.9796    9.1094   -0.4721 H   0  0  0  0  0  0  0  0  0  0  0  0
  -13.2437    7.8072    1.1641 H   0  0  0  0  0  0  0  0  0  0  0  0
  -11.7872    8.6809    1.8170 H   0  0  0  0  0  0  0  0  0  0  0  0
  -13.8284   10.0763    1.8928 H   0  0  0  0  0  0  0  0  0  0  0  0
  -12.5461   10.7576    0.8168 H   0  0  0  0  0  0  0  0  0  0  0  0
  -14.6702   10.9888   -0.2737 H   0  0  0  0  0  0  0  0  0  0  0  0
  -15.9850    9.1500   -0.6340 H   0  0  0  0  0  0  0  0  0  0  0  0
  -12.3192   11.3824   -1.0836 H   0  0  0  0  0  0  0  0  0  0  0  0
  -11.8409   10.5217   -2.5859 H   0  0  0  0  0  0  0  0  0  0  0  0
  -13.2804   11.5962   -2.5859 H   0  0  0  0  0  0  0  0  0  0  0  0
  -15.6862    9.5286   -2.1611 H   0  0  0  0  0  0  0  0  0  0  0  0
  -14.6823   10.5035   -3.2874 H   0  0  0  0  0  0  0  0  0  0  0  0
  -14.5497    8.7121   -3.2874 H   0  0  0  0  0  0  0  0  0  0  0  0
  -11.5508    6.0401    1.6155 H   0  0  0  0  0  0  0  0  0  0  0  0
  -12.7169    5.9500    0.2521 H   0  0  0  0  0  0  0  0  0  0  0  0
  -11.2529    4.9092    0.2521 H   0  0  0  0  0  0  0  0  0  0  0  0
   -9.8571    8.0339    1.4147 H   0  0  0  0  0  0  0  0  0  0  0  0
   -9.2636    6.3211    1.0306 H   0  0  0  0  0  0  0  0  0  0  0  0
   -8.5517    8.8910   -0.4104 H   0  0  0  0  0  0  0  0  0  0  0  0
   -7.4821    7.8137    0.5706 H   0  0  0  0  0  0  0  0  0  0  0  0
   -7.6740    5.5346    0.2285 H   0  0  0  0  0  0  0  0  0  0  0  0
   -8.4317    4.8586   -1.2532 H   0  0  0  0  0  0  0  0  0  0  0  0
   -6.6882    5.2909   -1.2532 H   0  0  0  0  0  0  0  0  0  0  0  0
  1  2  1  0
  2  3  1  0
  3  4  1  0
  4  5  1  0
  5  6  1  0
  6  7  1  0
  7  8  1  0
  7  9  1  0
  2 10  1  0
 10 11  1  0
 11 12  1  0
 12 13  1  0
 13 14  1  6
 13 15  1  0
 15 16  1  0
 16 17  1  0
 17 18  2  0
 18 19  1  0
 19 20  1  0
 20 21  1  0
 21 22  1  0
 22 23  1  0
 22 24  1  0
 24 25  1  0
 24 26  1  0
 19 27  1  0
 27 28  1  1
 27 29  1  0
 29 30  1  0
 30 31  1  0
 31 32  1  1
  7  5  1  0
 31 10  1  0
 31 13  1  0
 27 15  1  0
 24 18  1  0
  1 33  1  0
  1 34  1  0
  1 35  1  0
  2 36  1  6
  3 37  1  0
  3 38  1  0
  4 39  1  0
  4 40  1  0
  5 41  1  6
  8 42  1  0
  8 43  1  0
  8 44  1  0
  9 45  1  0
  9 46  1  0
  9 47  1  0
 10 48  1  6
 11 49  1  0
 11 50  1  0
 12 51  1  0
 12 52  1  0
 14 53  1  0
 14 54  1  0
 14 55  1  0
 15 56  1  1
 16 57  1  0
 16 58  1  0
 17 59  1  0
 19 60  1  6
 20 61  1  0
 20 62  1  0
 21 63  1  0
 21 64  1  0
 22 65  1  6
 23 66  1  0
 25 67  1  0
 25 68  1  0
 25 69  1  0
 26 70  1  0
 26 71  1  0
 26 72  1  0
 28 73  1  0
 28 74  1  0
 28 75  1  0
 29 76  1  0
 29 77  1  0
 30 78  1  0
 30 79  1  0
 32 80  1  0
 32 81  1  0
 32 82  1  0
M  END
>  <meeko>  (6) 
{"is_sidechain": [false], "intermolecular_energy": 2.731, "internal_energy": -0.839}

$$$$
EPH_relaxed_0001_pdb2pqr_Repair_211_r2_0001_out
     RDKit          3D

 82 86  0  0  0  0  0  0  0  0999 V2000
    0.4390    8.8040   -2.3610 C   0  0  0  0  0  0  0  0  0  0  0  0
    1.1780    9.9460   -3.0650 C   0  0  2  0  0  0  0  0  0  0  0  0
    2.6800    9.9680   -2.7170 C   0  0  0  0  0  0  0  0  0  0  0  0
    3.5550   10.5900   -3.8090 C   0  0  0  0  0  0  0  0  0  0  0  0
    4.9530   10.8320   -3.3270 C   0  0  2  0  0  0  0  0  0  0  0  0
    5.5550   12.0380   -3.8160 O   0  0  0  0  0  0  0  0  0  0  0  0
    6.1680   10.8080   -4.2360 C   0  0  0  0  0  0  0  0  0  0  0  0
    6.0400   10.5330   -5.7010 C   0  0  0  0  0  0  0  0  0  0  0  0
    7.5130   10.5660   -3.6260 C   0  0  0  0  0  0  0  0  0  0  0  0
    0.5390   11.2810   -2.6990 C   0  0  1  0  0  0  0  0  0  0  0  0
   -0.8390   11.1140   -2.0060 C   0  0  0  0  0  0  0  0  0  0  0  0
   -0.9560   12.2550   -0.9620 C   0  0  0  0  0  0  0  0  0  0  0  0
    0.1950   13.2250   -1.3150 C   0  0  1  0  0  0  0  0  0  0  0  0
   -0.3510   14.0830   -2.4990 C   0  0  0  0  0  0  0  0  0  0  0  0
    0.7250   14.1220   -0.1480 C   0  0  2  0  0  0  0  0  0  0  0  0
   -0.3060   15.1000    0.4420 C   0  0  0  0  0  0  0  0  0  0  0  0
   -0.3480   16.4470   -0.2000 C   0  0  0  0  0  0  0  0  0  0  0  0
    0.5960   16.9550   -1.0150 C   0  0  0  0  0  0  0  0  0  0  0  0
    1.8970   16.1890   -1.2860 C   0  0  1  0  0  0  0  0  0  0  0  0
    3.1040   17.1550   -1.1550 C   0  0  0  0  0  0  0  0  0  0  0  0
    2.9610   18.3930   -2.0350 C   0  0  0  0  0  0  0  0  0  0  0  0
    1.6850   19.1590   -1.6950 C   0  0  2  0  0  0  0  0  0  0  0  0
    1.8090   19.6990   -0.3760 O   0  0  0  0  0  0  0  0  0  0  0  0
    0.4030   18.2850   -1.7840 C   0  0  0  0  0  0  0  0  0  0  0  0
    0.1030   17.9500   -3.2660 C   0  0  0  0  0  0  0  0  0  0  0  0
   -0.7920   19.1390   -1.2820 C   0  0  0  0  0  0  0  0  0  0  0  0
    2.0970   14.8470   -0.4590 C   0  0  1  0  0  0  0  0  0  0  0  0
    2.7550   15.1640    0.9190 C   0  0  0  0  0  0  0  0  0  0  0  0
    3.1050   13.9140   -1.2290 C   0  0  0  0  0  0  0  0  0  0  0  0
    2.5060   12.9650   -2.2850 C   0  0  0  0  0  0  0  0  0  0  0  0
    1.3120   12.1940   -1.7140 C   0  0  2  0  0  0  0  0  0  0  0  0
    1.8360   11.3050   -0.5350 C   0  0  0  0  0  0  0  0  0  0  0  0
    0.5211    8.9308   -1.2714 H   0  0  0  0  0  0  0  0  0  0  0  0
   -0.6214    8.8185   -2.6530 H   0  0  0  0  0  0  0  0  0  0  0  0
    0.8866    7.8426   -2.6530 H   0  0  0  0  0  0  0  0  0  0  0  0
    1.0931    9.7770   -4.1486 H   0  0  0  0  0  0  0  0  0  0  0  0
    2.8139   10.5482   -1.7921 H   0  0  0  0  0  0  0  0  0  0  0  0
    2.9999    8.9215   -2.6055 H   0  0  0  0  0  0  0  0  0  0  0  0
    3.5881    9.9077   -4.6712 H   0  0  0  0  0  0  0  0  0  0  0  0
    3.1163   11.5588   -4.0901 H   0  0  0  0  0  0  0  0  0  0  0  0
    4.7356   10.3300   -2.3727 H   0  0  0  0  0  0  0  0  0  0  0  0
    5.5801    9.5449   -5.8498 H   0  0  0  0  0  0  0  0  0  0  0  0
    5.4086   11.3050   -6.1652 H   0  0  0  0  0  0  0  0  0  0  0  0
    7.0372   10.5469   -6.1652 H   0  0  0  0  0  0  0  0  0  0  0  0
    7.4265   10.5816   -2.5295 H   0  0  0  0  0  0  0  0  0  0  0  0
    7.8915    9.5853   -3.9501 H   0  0  0  0  0  0  0  0  0  0  0  0
    8.2096   11.3532   -3.9501 H   0  0  0  0  0  0  0  0  0  0  0  0
    0.5038   11.7469   -3.6948 H   0  0  0  0  0  0  0  0  0  0  0  0
   -1.6479   11.1942   -2.7471 H   0  0  0  0  0  0  0  0  0  0  0  0
   -0.9223   10.1283   -1.5248 H   0  0  0  0  0  0  0  0  0  0  0  0
   -1.9294   12.7603   -1.0462 H   0  0  0  0  0  0  0  0  0  0  0  0
   -0.8873   11.8841    0.0713 H   0  0  0  0  0  0  0  0  0  0  0  0
   -0.9016   14.9483   -2.1014 H   0  0  0  0  0  0  0  0  0  0  0  0
    0.4896   14.4349   -3.1150 H   0  0  0  0  0  0  0  0  0  0  0  0
   -1.0258   13.4705   -3.1150 H   0  0  0  0  0  0  0  0  0  0  0  0
    0.9260   13.3852    0.6436 H   0  0  0  0  0  0  0  0  0  0  0  0
   -1.3023   14.6447    0.3419 H   0  0  0  0  0  0  0  0  0  0  0  0
   -0.0017   15.2698    1.4853 H   0  0  0  0  0  0  0  0  0  0  0  0
   -1.2241   17.0780    0.0104 H   0  0  0  0  0  0  0  0  0  0  0  0
    1.8234   15.8218   -2.3203 H   0  0  0  0  0  0  0  0  0  0  0  0
    3.1867   17.4757   -0.1060 H   0  0  0  0  0  0  0  0  0  0  0  0
    4.0026   16.6130   -1.4848 H   0  0  0  0  0  0  0  0  0  0  0  0
    3.8287   19.0501   -1.8758 H   0  0  0  0  0  0  0  0  0  0  0  0
    2.9090   18.0728   -3.0861 H   0  0  0  0  0  0  0  0  0  0  0  0
    1.5714   19.9582   -2.4422 H   0  0  0  0  0  0  0  0  0  0  0  0
    2.7210   20.0220   -0.2740 H   0  0  0  0  0  0  0  0  0  0  0  0
   -0.6301   17.1314   -3.3157 H   0  0  0  0  0  0  0  0  0  0  0  0
   -0.3061   18.8395   -3.7674 H   0  0  0  0  0  0  0  0  0  0  0  0
    1.0321   17.6412   -3.7674 H   0  0  0  0  0  0  0  0  0  0  0  0
   -0.8014   19.1457   -0.1821 H   0  0  0  0  0  0  0  0  0  0  0  0
   -0.6885   20.1690   -1.6541 H   0  0  0  0  0  0  0  0  0  0  0  0
   -1.7329   18.7075   -1.6541 H   0  0  0  0  0  0  0  0  0  0  0  0
    2.0842   14.8408    1.7287 H   0  0  0  0  0  0  0  0  0  0  0  0
    3.7123   14.6282    1.0001 H   0  0  0  0  0  0  0  0  0  0  0  0
    2.9327   16.2465    1.0001 H   0  0  0  0  0  0  0  0  0  0  0  0
    3.8342   14.5609   -1.7386 H   0  0  0  0  0  0  0  0  0  0  0  0
    3.5322   13.2547   -0.4591 H   0  0  0  0  0  0  0  0  0  0  0  0
    2.1724   13.5551   -3.1513 H   0  0  0  0  0  0  0  0  0  0  0  0
    3.2788   12.2425   -2.5862 H   0  0  0  0  0  0  0  0  0  0  0  0
    1.5624   11.7693    0.4240 H   0  0  0  0  0  0  0  0  0  0  0  0
    1.3830   10.3047   -0.6006 H   0  0  0  0  0  0  0  0  0  0  0  0
    2.9305   11.2169   -0.6006 H   0  0  0  0  0  0  0  0  0  0  0  0
  1  2  1  0
  2  3  1  0
  3  4  1  0
  4  5  1  0
  5  6  1  0
  6  7  1  0
  7  8  1  0
  7  9  1  0
  2 10  1  0
 10 11  1  0
 11 12  1  0
 12 13  1  0
 13 14  1  6
 13 15  1  0
 15 16  1  0
 16 17  1  0
 17 18  2  0
 18 19  1  0
 19 20  1  0
 20 21  1  0
 21 22  1  0
 22 23  1  0
 22 24  1  0
 24 25  1  0
 24 26  1  0
 19 27  1  0
 27 28  1  1
 27 29  1  0
 29 30  1  0
 30 31  1  0
 31 32  1  1
  7  5  1  0
 31 10  1  0
 31 13  1  0
 27 15  1  0
 24 18  1  0
  1 33  1  0
  1 34  1  0
  1 35  1  0
  2 36  1  6
  3 37  1  0
  3 38  1  0
  4 39  1  0
  4 40  1  0
  5 41  1  1
  8 42  1  0
  8 43  1  0
  8 44  1  0
  9 45  1  0
  9 46  1  0
  9 47  1  0
 10 48  1  6
 11 49  1  0
 11 50  1  0
 12 51  1  0
 12 52  1  0
 14 53  1  0
 14 54  1  0
 14 55  1  0
 15 56  1  1
 16 57  1  0
 16 58  1  0
 17 59  1  0
 19 60  1  6
 20 61  1  0
 20 62  1  0
 21 63  1  0
 21 64  1  0
 22 65  1  6
 23 66  1  0
 25 67  1  0
 25 68  1  0
 25 69  1  0
 26 70  1  0
 26 71  1  0
 26 72  1  0
 28 73  1  0
 28 74  1  0
 28 75  1  0
 29 76  1  0
 29 77  1  0
 30 78  1  0
 30 79  1  0
 32 80  1  0
 32 81  1  0
 32 82  1  0
M  END
>  <meeko>  (7) 
{"is_sidechain": [false], "intermolecular_energy": 2.731, "internal_energy": -0.839}

$$$$
EPH_relaxed_0001_pdb2pqr_Repair_211_r2_0001_out
     RDKit          3D

 82 86  0  0  0  0  0  0  0  0999 V2000
    2.7350   19.0590   -0.8340 C   0  0  0  0  0  0  0  0  0  0  0  0
    2.6090   18.0600   -1.9880 C   0  0  2  0  0  0  0  0  0  0  0  0
    1.2600   18.1910   -2.7240 C   0  0  0  0  0  0  0  0  0  0  0  0
    0.4600   19.4350   -2.3270 C   0  0  0  0  0  0  0  0  0  0  0  0
   -0.8060   19.0740   -1.6120 C   0  0  2  0  0  0  0  0  0  0  0  0
   -1.6030   20.1940   -1.2040 O   0  0  0  0  0  0  0  0  0  0  0  0
   -1.0580   19.3870   -0.1480 C   0  0  0  0  0  0  0  0  0  0  0  0
   -0.0340   20.0880    0.6880 C   0  0  0  0  0  0  0  0  0  0  0  0
   -2.0860   18.5840    0.5880 C   0  0  0  0  0  0  0  0  0  0  0  0
    2.7820   16.6390   -1.4660 C   0  0  1  0  0  0  0  0  0  0  0  0
    3.4490   16.5940   -0.0650 C   0  0  0  0  0  0  0  0  0  0  0  0
    2.8100   15.4040    0.6960 C   0  0  0  0  0  0  0  0  0  0  0  0
    2.0500   14.6080   -0.3910 C   0  0  1  0  0  0  0  0  0  0  0  0
    3.1420   13.7390   -1.0890 C   0  0  0  0  0  0  0  0  0  0  0  0
    0.8490   13.7380    0.1030 C   0  0  2  0  0  0  0  0  0  0  0  0
    1.2180   12.6090    1.0810 C   0  0  0  0  0  0  0  0  0  0  0  0
    1.5430   11.2980    0.4460 C   0  0  0  0  0  0  0  0  0  0  0  0
    1.2660   10.9540   -0.8250 C   0  0  0  0  0  0  0  0  0  0  0  0
    0.4710   11.8940   -1.7400 C   0  0  1  0  0  0  0  0  0  0  0  0
   -0.6300   11.0900   -2.4800 C   0  0  0  0  0  0  0  0  0  0  0  0
   -0.0710    9.8830   -3.2270 C   0  0  0  0  0  0  0  0  0  0  0  0
    0.6620    8.9430   -2.2740 C   0  0  2  0  0  0  0  0  0  0  0  0
   -0.2890    8.3670   -1.3730 O   0  0  0  0  0  0  0  0  0  0  0  0
    1.7890    9.6440   -1.4660 C   0  0  0  0  0  0  0  0  0  0  0  0
    2.9630   10.0010   -2.4120 C   0  0  0  0  0  0  0  0  0  0  0  0
    2.3520    8.6210   -0.4430 C   0  0  0  0  0  0  0  0  0  0  0  0
   -0.0920   13.2140   -1.0570 C   0  0  1  0  0  0  0  0  0  0  0  0
   -1.4800   12.9260   -0.4080 C   0  0  0  0  0  0  0  0  0  0  0  0
   -0.3370   14.3030   -2.1670 C   0  0  0  0  0  0  0  0  0  0  0  0
    0.8550   15.2100   -2.5260 C   0  0  0  0  0  0  0  0  0  0  0  0
    1.5000   15.7940   -1.2640 C   0  0  2  0  0  0  0  0  0  0  0  0
    0.4310   16.6910   -0.5530 C   0  0  0  0  0  0  0  0  0  0  0  0
    2.6674   18.5229    0.1241 H   0  0  0  0  0  0  0  0  0  0  0  0
    3.7051   19.5734   -0.8986 H   0  0  0  0  0  0  0  0  0  0  0  0
    1.9230   19.7982   -0.8986 H   0  0  0  0  0  0  0  0  0  0  0  0
    3.4041   18.2888   -2.7129 H   0  0  0  0  0  0  0  0  0  0  0  0
    1.4573   18.2355   -3.8052 H   0  0  0  0  0  0  0  0  0  0  0  0
    0.6546   17.3165   -2.4433 H   0  0  0  0  0  0  0  0  0  0  0  0
    1.0776   20.0599   -1.6651 H   0  0  0  0  0  0  0  0  0  0  0  0
    0.1925   19.9785   -3.2452 H   0  0  0  0  0  0  0  0  0  0  0  0
   -0.8991   18.1459   -2.1951 H   0  0  0  0  0  0  0  0  0  0  0  0
   -0.2612   19.9325    1.7530 H   0  0  0  0  0  0  0  0  0  0  0  0
    0.9634   19.6823    0.4628 H   0  0  0  0  0  0  0  0  0  0  0  0
   -0.0513   21.1646    0.4628 H   0  0  0  0  0  0  0  0  0  0  0  0
   -1.9360   18.7011    1.6714 H   0  0  0  0  0  0  0  0  0  0  0  0
   -3.0914   18.9384    0.3166 H   0  0  0  0  0  0  0  0  0  0  0  0
   -1.9856   17.5228    0.3166 H   0  0  0  0  0  0  0  0  0  0  0  0
    3.3866   16.2160   -2.2818 H   0  0  0  0  0  0  0  0  0  0  0  0
    4.5335   16.4404   -0.1664 H   0  0  0  0  0  0  0  0  0  0  0  0
    3.2941   17.5386    0.4770 H   0  0  0  0  0  0  0  0  0  0  0  0
    3.5863   14.7799    1.1628 H   0  0  0  0  0  0  0  0  0  0  0  0
    2.1478   15.7363    1.5090 H   0  0  0  0  0  0  0  0  0  0  0  0
    3.7616   13.2459   -0.3255 H   0  0  0  0  0  0  0  0  0  0  0  0
    2.6578   12.9765   -1.7168 H   0  0  0  0  0  0  0  0  0  0  0  0
    3.7764   14.3820   -1.7168 H   0  0  0  0  0  0  0  0  0  0  0  0
    0.2616   14.4596    0.6897 H   0  0  0  0  0  0  0  0  0  0  0  0
    2.0954   12.9335    1.6596 H   0  0  0  0  0  0  0  0  0  0  0  0
    0.3239   12.4356    1.6978 H   0  0  0  0  0  0  0  0  0  0  0  0
    2.0524   10.5491    1.0703 H   0  0  0  0  0  0  0  0  0  0  0  0
    1.1938   12.2921   -2.4674 H   0  0  0  0  0  0  0  0  0  0  0  0
   -1.3658   10.7381   -1.7419 H   0  0  0  0  0  0  0  0  0  0  0  0
   -1.0895   11.7588   -3.2227 H   0  0  0  0  0  0  0  0  0  0  0  0
   -0.9000    9.3386   -3.7028 H   0  0  0  0  0  0  0  0  0  0  0  0
    0.6413   10.2389   -3.9859 H   0  0  0  0  0  0  0  0  0  0  0  0
    1.1502    8.1696   -2.8851 H   0  0  0  0  0  0  0  0  0  0  0  0
   -0.0600    7.4280   -1.2640 H   0  0  0  0  0  0  0  0  0  0  0  0
    3.8466   10.2697   -1.8145 H   0  0  0  0  0  0  0  0  0  0  0  0
    3.1992    9.1341   -3.0465 H   0  0  0  0  0  0  0  0  0  0  0  0
    2.6766   10.8527   -3.0465 H   0  0  0  0  0  0  0  0  0  0  0  0
    2.1555    8.9781    0.5787 H   0  0  0  0  0  0  0  0  0  0  0  0
    1.8629    7.6470   -0.5914 H   0  0  0  0  0  0  0  0  0  0  0  0
    3.4366    8.5131   -0.5914 H   0  0  0  0  0  0  0  0  0  0  0  0
   -1.3837   12.9460    0.6876 H   0  0  0  0  0  0  0  0  0  0  0  0
   -2.2003   13.6938   -0.7268 H   0  0  0  0  0  0  0  0  0  0  0  0
   -1.8353   11.9350   -0.7268 H   0  0  0  0  0  0  0  0  0  0  0  0
   -0.6449   13.7797   -3.0842 H   0  0  0  0  0  0  0  0  0  0  0  0
   -1.0954   14.9786   -1.7446 H   0  0  0  0  0  0  0  0  0  0  0  0
    1.6047   14.6193   -3.0728 H   0  0  0  0  0  0  0  0  0  0  0  0
    0.4892   16.0396   -3.1489 H   0  0  0  0  0  0  0  0  0  0  0  0
    0.5414   16.5984    0.5375 H   0  0  0  0  0  0  0  0  0  0  0  0
    0.5777   17.7403   -0.8486 H   0  0  0  0  0  0  0  0  0  0  0  0
   -0.5769   16.3643   -0.8486 H   0  0  0  0  0  0  0  0  0  0  0  0
  1  2  1  0
  2  3  1  0
  3  4  1  0
  4  5  1  0
  5  6  1  0
  6  7  1  0
  7  8  1  0
  7  9  1  0
  2 10  1  0
 10 11  1  0
 11 12  1  0
 12 13  1  0
 13 14  1  6
 13 15  1  0
 15 16  1  0
 16 17  1  0
 17 18  2  0
 18 19  1  0
 19 20  1  0
 20 21  1  0
 21 22  1  0
 22 23  1  0
 22 24  1  0
 24 25  1  0
 24 26  1  0
 19 27  1  0
 27 28  1  1
 27 29  1  0
 29 30  1  0
 30 31  1  0
 31 32  1  1
  7  5  1  0
 31 10  1  0
 31 13  1  0
 27 15  1  0
 24 18  1  0
  1 33  1  0
  1 34  1  0
  1 35  1  0
  2 36  1  6
  3 37  1  0
  3 38  1  0
  4 39  1  0
  4 40  1  0
  5 41  1  6
  8 42  1  0
  8 43  1  0
  8 44  1  0
  9 45  1  0
  9 46  1  0
  9 47  1  0
 10 48  1  6
 11 49  1  0
 11 50  1  0
 12 51  1  0
 12 52  1  0
 14 53  1  0
 14 54  1  0
 14 55  1  0
 15 56  1  1
 16 57  1  0
 16 58  1  0
 17 59  1  0
 19 60  1  6
 20 61  1  0
 20 62  1  0
 21 63  1  0
 21 64  1  0
 22 65  1  6
 23 66  1  0
 25 67  1  0
 25 68  1  0
 25 69  1  0
 26 70  1  0
 26 71  1  0
 26 72  1  0
 28 73  1  0
 28 74  1  0
 28 75  1  0
 29 76  1  0
 29 77  1  0
 30 78  1  0
 30 79  1  0
 32 80  1  0
 32 81  1  0
 32 82  1  0
M  END
>  <meeko>  (8) 
{"is_sidechain": [false], "intermolecular_energy": 2.731, "internal_energy": -0.839}

$$$$
EPH_relaxed_0001_pdb2pqr_Repair_211_r2_0001_out
     RDKit          3D

 82 86  0  0  0  0  0  0  0  0999 V2000
   -0.9200   16.3890   -5.8830 C   0  0  0  0  0  0  0  0  0  0  0  0
    0.1810   15.6900   -6.6860 C   0  0  2  0  0  0  0  0  0  0  0  0
   -0.2150   15.4900   -8.1630 C   0  0  0  0  0  0  0  0  0  0  0  0
    0.4350   16.4960   -9.1160 C   0  0  0  0  0  0  0  0  0  0  0  0
    1.8420   16.1080   -9.4560 C   0  0  2  0  0  0  0  0  0  0  0  0
    2.3420   16.6750  -10.6750 O   0  0  0  0  0  0  0  0  0  0  0  0
    2.2070   15.2450  -10.6490 C   0  0  0  0  0  0  0  0  0  0  0  0
    1.1600   14.7160  -11.5790 C   0  0  0  0  0  0  0  0  0  0  0  0
    3.5150   14.5170  -10.6330 C   0  0  0  0  0  0  0  0  0  0  0  0
    0.5150   14.3460   -6.0490 C   0  0  1  0  0  0  0  0  0  0  0  0
    1.7430   13.6610   -6.7070 C   0  0  0  0  0  0  0  0  0  0  0  0
    2.4950   12.9110   -5.5780 C   0  0  0  0  0  0  0  0  0  0  0  0
    1.5090   12.9090   -4.3860 C   0  0  1  0  0  0  0  0  0  0  0  0
    0.5240   11.7350   -4.6830 C   0  0  0  0  0  0  0  0  0  0  0  0
    2.1440   12.7850   -2.9630 C   0  0  2  0  0  0  0  0  0  0  0  0
    2.9110   11.4770   -2.7040 C   0  0  0  0  0  0  0  0  0  0  0  0
    2.0990   10.3630   -2.1310 C   0  0  0  0  0  0  0  0  0  0  0  0
    0.8810   10.4910   -1.5730 C   0  0  0  0  0  0  0  0  0  0  0  0
    0.2400   11.8730   -1.3870 C   0  0  1  0  0  0  0  0  0  0  0  0
   -0.3400   11.9860    0.0470 C   0  0  0  0  0  0  0  0  0  0  0  0
   -1.3000   10.8490    0.3820 C   0  0  0  0  0  0  0  0  0  0  0  0
   -0.6100    9.4940    0.2420 C   0  0  2  0  0  0  0  0  0  0  0  0
    0.4010    9.3860    1.2480 O   0  0  0  0  0  0  0  0  0  0  0  0
    0.0220    9.2700   -1.1600 C   0  0  0  0  0  0  0  0  0  0  0  0
   -1.0990    9.0860   -2.2130 C   0  0  0  0  0  0  0  0  0  0  0  0
    0.8050    7.9300   -1.1220 C   0  0  0  0  0  0  0  0  0  0  0  0
    1.1490   13.1160   -1.7780 C   0  0  1  0  0  0  0  0  0  0  0  0
    2.0300   13.5350   -0.5610 C   0  0  0  0  0  0  0  0  0  0  0  0
    0.2240   14.3490   -2.1010 C   0  0  0  0  0  0  0  0  0  0  0  0
   -0.2750   14.4820   -3.5520 C   0  0  0  0  0  0  0  0  0  0  0  0
    0.8840   14.3430   -4.5450 C   0  0  2  0  0  0  0  0  0  0  0  0
    1.8800   15.5250   -4.2850 C   0  0  0  0  0  0  0  0  0  0  0  0
   -0.7245   16.2649   -4.8076 H   0  0  0  0  0  0  0  0  0  0  0  0
   -0.9317   17.4603   -6.1323 H   0  0  0  0  0  0  0  0  0  0  0  0
   -1.8945   15.9438   -6.1323 H   0  0  0  0  0  0  0  0  0  0  0  0
    1.0678   16.3405   -6.6678 H   0  0  0  0  0  0  0  0  0  0  0  0
    0.0859   14.4772   -8.4691 H   0  0  0  0  0  0  0  0  0  0  0  0
   -1.3025   15.6423   -8.2277 H   0  0  0  0  0  0  0  0  0  0  0  0
   -0.1559   16.5423  -10.0427 H   0  0  0  0  0  0  0  0  0  0  0  0
    0.4607   17.4752   -8.6156 H   0  0  0  0  0  0  0  0  0  0  0  0
    2.1064   16.0435   -8.3902 H   0  0  0  0  0  0  0  0  0  0  0  0
    0.3285   14.2959  -10.9941 H   0  0  0  0  0  0  0  0  0  0  0  0
    0.7861   15.5333  -12.2131 H   0  0  0  0  0  0  0  0  0  0  0  0
    1.5961   13.9301  -12.2131 H   0  0  0  0  0  0  0  0  0  0  0  0
    3.8257   14.3441   -9.5920 H   0  0  0  0  0  0  0  0  0  0  0  0
    3.4034   13.5512  -11.1476 H   0  0  0  0  0  0  0  0  0  0  0  0
    4.2770   15.1208  -11.1476 H   0  0  0  0  0  0  0  0  0  0  0  0
   -0.4430   13.8275   -6.2021 H   0  0  0  0  0  0  0  0  0  0  0  0
    1.4120   12.9504   -7.4787 H   0  0  0  0  0  0  0  0  0  0  0  0
    2.3957   14.4018   -7.1919 H   0  0  0  0  0  0  0  0  0  0  0  0
    2.7329   11.8824   -5.8868 H   0  0  0  0  0  0  0  0  0  0  0  0
    3.4529   13.3893   -5.3259 H   0  0  0  0  0  0  0  0  0  0  0  0
    0.1658   11.3081   -3.7346 H   0  0  0  0  0  0  0  0  0  0  0  0
   -0.3320   12.1121   -5.2618 H   0  0  0  0  0  0  0  0  0  0  0  0
    1.0441   10.9575   -5.2618 H   0  0  0  0  0  0  0  0  0  0  0  0
    2.9036   13.5806   -2.9728 H   0  0  0  0  0  0  0  0  0  0  0  0
    3.3305   11.1340   -3.6613 H   0  0  0  0  0  0  0  0  0  0  0  0
    3.6738   11.7166   -1.9485 H   0  0  0  0  0  0  0  0  0  0  0  0
    2.5326    9.3527   -2.1680 H   0  0  0  0  0  0  0  0  0  0  0  0
   -0.5744   11.9329   -2.1240 H   0  0  0  0  0  0  0  0  0  0  0  0
    0.4922   11.9681    0.7662 H   0  0  0  0  0  0  0  0  0  0  0  0
   -0.9054   12.9278    0.1047 H   0  0  0  0  0  0  0  0  0  0  0  0
   -1.6524   10.9684    1.4172 H   0  0  0  0  0  0  0  0  0  0  0  0
   -2.1469   10.8861   -0.3190 H   0  0  0  0  0  0  0  0  0  0  0  0
   -1.3793    8.7177    0.3665 H   0  0  0  0  0  0  0  0  0  0  0  0
   -0.0160    9.0210    2.0470 H   0  0  0  0  0  0  0  0  0  0  0  0
   -2.0601    8.9283   -1.7017 H   0  0  0  0  0  0  0  0  0  0  0  0
   -1.1620    9.9858   -2.8426 H   0  0  0  0  0  0  0  0  0  0  0  0
   -0.8710    8.2133   -2.8426 H   0  0  0  0  0  0  0  0  0  0  0  0
    0.9771    7.6354   -0.0762 H   0  0  0  0  0  0  0  0  0  0  0  0
    0.2209    7.1494   -1.6314 H   0  0  0  0  0  0  0  0  0  0  0  0
    1.7718    8.0557   -1.6314 H   0  0  0  0  0  0  0  0  0  0  0  0
    1.5063   13.2860    0.3738 H   0  0  0  0  0  0  0  0  0  0  0  0
    2.9882   12.9962   -0.5992 H   0  0  0  0  0  0  0  0  0  0  0  0
    2.2167   14.6184   -0.5992 H   0  0  0  0  0  0  0  0  0  0  0  0
   -0.6601   14.2812   -1.4500 H   0  0  0  0  0  0  0  0  0  0  0  0
    0.8548   15.2341   -1.9315 H   0  0  0  0  0  0  0  0  0  0  0  0
   -1.0162   13.6941   -3.7514 H   0  0  0  0  0  0  0  0  0  0  0  0
   -0.7275   15.4767   -3.6777 H   0  0  0  0  0  0  0  0  0  0  0  0
    2.0021   15.6700   -3.2015 H   0  0  0  0  0  0  0  0  0  0  0  0
    2.8552   15.2885   -4.7355 H   0  0  0  0  0  0  0  0  0  0  0  0
    1.4816   16.4460   -4.7355 H   0  0  0  0  0  0  0  0  0  0  0  0
  1  2  1  0
  2  3  1  0
  3  4  1  0
  4  5  1  0
  5  6  1  0
  6  7  1  0
  7  8  1  0
  7  9  1  0
  2 10  1  0
 10 11  1  0
 11 12  1  0
 12 13  1  0
 13 14  1  6
 13 15  1  0
 15 16  1  0
 16 17  1  0
 17 18  2  0
 18 19  1  0
 19 20  1  0
 20 21  1  0
 21 22  1  0
 22 23  1  0
 22 24  1  0
 24 25  1  0
 24 26  1  0
 19 27  1  0
 27 28  1  1
 27 29  1  0
 29 30  1  0
 30 31  1  0
 31 32  1  6
  7  5  1  0
 31 10  1  0
 31 13  1  0
 27 15  1  0
 24 18  1  0
  1 33  1  0
  1 34  1  0
  1 35  1  0
  2 36  1  6
  3 37  1  0
  3 38  1  0
  4 39  1  0
  4 40  1  0
  5 41  1  1
  8 42  1  0
  8 43  1  0
  8 44  1  0
  9 45  1  0
  9 46  1  0
  9 47  1  0
 10 48  1  1
 11 49  1  0
 11 50  1  0
 12 51  1  0
 12 52  1  0
 14 53  1  0
 14 54  1  0
 14 55  1  0
 15 56  1  6
 16 57  1  0
 16 58  1  0
 17 59  1  0
 19 60  1  6
 20 61  1  0
 20 62  1  0
 21 63  1  0
 21 64  1  0
 22 65  1  1
 23 66  1  0
 25 67  1  0
 25 68  1  0
 25 69  1  0
 26 70  1  0
 26 71  1  0
 26 72  1  0
 28 73  1  0
 28 74  1  0
 28 75  1  0
 29 76  1  0
 29 77  1  0
 30 78  1  0
 30 79  1  0
 32 80  1  0
 32 81  1  0
 32 82  1  0
M  END
>  <meeko>  (9) 
{"is_sidechain": [false], "intermolecular_energy": 2.731, "internal_energy": -0.839}

$$$$
EPH_relaxed_0001_pdb2pqr_Repair_211_r2_0001_out
     RDKit          3D

 82 86  0  0  0  0  0  0  0  0999 V2000
   -3.7660    7.3080   -3.5850 C   0  0  0  0  0  0  0  0  0  0  0  0
   -3.6330    7.2900   -2.0600 C   0  0  2  0  0  0  0  0  0  0  0  0
   -4.9650    6.9430   -1.3650 C   0  0  0  0  0  0  0  0  0  0  0  0
   -6.1390    6.7760   -2.3340 C   0  0  0  0  0  0  0  0  0  0  0  0
   -7.4440    7.1360   -1.6900 C   0  0  2  0  0  0  0  0  0  0  0  0
   -8.2010    6.0200   -1.2060 O   0  0  0  0  0  0  0  0  0  0  0  0
   -8.7950    6.7720   -2.2770 C   0  0  0  0  0  0  0  0  0  0  0  0
   -8.9080    6.0140   -3.5630 C   0  0  0  0  0  0  0  0  0  0  0  0
   -9.9930    7.5680   -1.8630 C   0  0  0  0  0  0  0  0  0  0  0  0
   -3.1250    8.6400   -1.5670 C   0  0  1  0  0  0  0  0  0  0  0  0
   -3.7950    9.0820   -0.2390 C   0  0  0  0  0  0  0  0  0  0  0  0
   -2.7180    9.8450    0.5740 C   0  0  0  0  0  0  0  0  0  0  0  0
   -1.5780   10.1060   -0.4380 C   0  0  1  0  0  0  0  0  0  0  0  0
   -2.0370   11.3600   -1.2460 C   0  0  0  0  0  0  0  0  0  0  0  0
   -0.1490   10.3000    0.1650 C   0  0  2  0  0  0  0  0  0  0  0  0
    0.0070   11.5160    1.0940 C   0  0  0  0  0  0  0  0  0  0  0  0
    0.4250   12.7820    0.4230 C   0  0  0  0  0  0  0  0  0  0  0  0
    0.9400   12.8770   -0.8180 C   0  0  0  0  0  0  0  0  0  0  0  0
    1.2390   11.6190   -1.6440 C   0  0  1  0  0  0  0  0  0  0  0  0
    2.6510   11.7390   -2.2760 C   0  0  0  0  0  0  0  0  0  0  0  0
    2.8230   13.0220   -3.0830 C   0  0  0  0  0  0  0  0  0  0  0  0
    2.5740   14.2510   -2.2130 C   0  0  2  0  0  0  0  0  0  0  0  0
    3.6070   14.3350   -1.2270 O   0  0  0  0  0  0  0  0  0  0  0  0
    1.1850   14.2370   -1.5150 C   0  0  0  0  0  0  0  0  0  0  0  0
    0.0710   14.4510   -2.5700 C   0  0  0  0  0  0  0  0  0  0  0  0
    1.1190   15.4590   -0.5600 C   0  0  0  0  0  0  0  0  0  0  0  0
    1.0200   10.2320   -0.9000 C   0  0  1  0  0  0  0  0  0  0  0  0
    2.3110    9.8370   -0.1200 C   0  0  0  0  0  0  0  0  0  0  0  0
    0.7860    9.1040   -1.9730 C   0  0  0  0  0  0  0  0  0  0  0  0
   -0.6640    8.8800   -2.4420 C   0  0  0  0  0  0  0  0  0  0  0  0
   -1.6140    8.7570   -1.2460 C   0  0  2  0  0  0  0  0  0  0  0  0
   -1.1900    7.4910   -0.4270 C   0  0  0  0  0  0  0  0  0  0  0  0
   -4.8216    7.4509   -3.8593 H   0  0  0  0  0  0  0  0  0  0  0  0
   -3.1655    8.1331   -3.9957 H   0  0  0  0  0  0  0  0  0  0  0  0
   -3.4064    6.3530   -3.9957 H   0  0  0  0  0  0  0  0  0  0  0  0
   -2.9100    6.5028   -1.8001 H   0  0  0  0  0  0  0  0  0  0  0  0
   -4.8336    6.0008   -0.8128 H   0  0  0  0  0  0  0  0  0  0  0  0
   -5.2117    7.7861   -0.7030 H   0  0  0  0  0  0  0  0  0  0  0  0
   -5.9787    7.4292   -3.2044 H   0  0  0  0  0  0  0  0  0  0  0  0
   -6.1859    5.7198   -2.6376 H   0  0  0  0  0  0  0  0  0  0  0  0
   -7.0293    8.0883   -1.3279 H   0  0  0  0  0  0  0  0  0  0  0  0
   -9.0670    4.9472   -3.3471 H   0  0  0  0  0  0  0  0  0  0  0  0
   -9.7583    6.4013   -4.1434 H   0  0  0  0  0  0  0  0  0  0  0  0
   -7.9817    6.1365   -4.1434 H   0  0  0  0  0  0  0  0  0  0  0  0
  -10.0476    7.6042   -0.7650 H   0  0  0  0  0  0  0  0  0  0  0  0
   -9.9089    8.5904   -2.2599 H   0  0  0  0  0  0  0  0  0  0  0  0
  -10.9030    7.0943   -2.2599 H   0  0  0  0  0  0  0  0  0  0  0  0
   -3.3735    9.2605   -2.4407 H   0  0  0  0  0  0  0  0  0  0  0  0
   -4.6500    9.7419   -0.4476 H   0  0  0  0  0  0  0  0  0  0  0  0
   -4.1708    8.2134    0.3216 H   0  0  0  0  0  0  0  0  0  0  0  0
   -3.1211   10.7937    0.9582 H   0  0  0  0  0  0  0  0  0  0  0  0
   -2.3756    9.2755    1.4506 H   0  0  0  0  0  0  0  0  0  0  0  0
   -2.3294   12.1588   -0.5485 H   0  0  0  0  0  0  0  0  0  0  0  0
   -1.2091   11.7112   -1.8795 H   0  0  0  0  0  0  0  0  0  0  0  0
   -2.8960   11.0938   -1.8795 H   0  0  0  0  0  0  0  0  0  0  0  0
   -0.0436    9.4153    0.8101 H   0  0  0  0  0  0  0  0  0  0  0  0
   -0.9610   11.6951    1.5848 H   0  0  0  0  0  0  0  0  0  0  0  0
    0.8160   11.2617    1.7946 H   0  0  0  0  0  0  0  0  0  0  0  0
    0.3021   13.7166    0.9899 H   0  0  0  0  0  0  0  0  0  0  0  0
    0.4761   11.5867   -2.4358 H   0  0  0  0  0  0  0  0  0  0  0  0
    3.4002   11.7258   -1.4707 H   0  0  0  0  0  0  0  0  0  0  0  0
    2.7820   10.8912   -2.9645 H   0  0  0  0  0  0  0  0  0  0  0  0
    3.8483   13.0633   -3.4794 H   0  0  0  0  0  0  0  0  0  0  0  0
    2.0925   13.0201   -3.9054 H   0  0  0  0  0  0  0  0  0  0  0  0
    2.5836   15.1301   -2.8741 H   0  0  0  0  0  0  0  0  0  0  0  0
    4.4530   14.1530   -1.6700 H   0  0  0  0  0  0  0  0  0  0  0  0
   -0.8863   14.6349   -2.0603 H   0  0  0  0  0  0  0  0  0  0  0  0
    0.3236   15.3170   -3.1994 H   0  0  0  0  0  0  0  0  0  0  0  0
   -0.0153   13.5530   -3.1994 H   0  0  0  0  0  0  0  0  0  0  0  0
    1.1378   15.1105    0.4832 H   0  0  0  0  0  0  0  0  0  0  0  0
    1.9830   16.1146   -0.7432 H   0  0  0  0  0  0  0  0  0  0  0  0
    0.1894   16.0178   -0.7432 H   0  0  0  0  0  0  0  0  0  0  0  0
    2.1185    9.8959    0.9614 H   0  0  0  0  0  0  0  0  0  0  0  0
    2.5999    8.8094   -0.3856 H   0  0  0  0  0  0  0  0  0  0  0  0
    3.1254   10.5271   -0.3856 H   0  0  0  0  0  0  0  0  0  0  0  0
    1.3866    9.3580   -2.8589 H   0  0  0  0  0  0  0  0  0  0  0  0
    1.0741    8.1676   -1.4729 H   0  0  0  0  0  0  0  0  0  0  0  0
   -0.9767    9.7317   -3.0640 H   0  0  0  0  0  0  0  0  0  0  0  0
   -0.7053    7.9453   -3.0205 H   0  0  0  0  0  0  0  0  0  0  0  0
   -1.2630    7.7088    0.6487 H   0  0  0  0  0  0  0  0  0  0  0  0
   -1.8563    6.6523   -0.6773 H   0  0  0  0  0  0  0  0  0  0  0  0
   -0.1530    7.2228   -0.6773 H   0  0  0  0  0  0  0  0  0  0  0  0
  1  2  1  0
  2  3  1  0
  3  4  1  0
  4  5  1  0
  5  6  1  0
  6  7  1  0
  7  8  1  0
  7  9  1  0
  2 10  1  0
 10 11  1  0
 11 12  1  0
 12 13  1  0
 13 14  1  6
 13 15  1  0
 15 16  1  0
 16 17  1  0
 17 18  2  0
 18 19  1  0
 19 20  1  0
 20 21  1  0
 21 22  1  0
 22 23  1  0
 22 24  1  0
 24 25  1  0
 24 26  1  0
 19 27  1  0
 27 28  1  1
 27 29  1  0
 29 30  1  0
 30 31  1  0
 31 32  1  1
  7  5  1  0
 31 10  1  0
 31 13  1  0
 27 15  1  0
 24 18  1  0
  1 33  1  0
  1 34  1  0
  1 35  1  0
  2 36  1  6
  3 37  1  0
  3 38  1  0
  4 39  1  0
  4 40  1  0
  5 41  1  1
  8 42  1  0
  8 43  1  0
  8 44  1  0
  9 45  1  0
  9 46  1  0
  9 47  1  0
 10 48  1  6
 11 49  1  0
 11 50  1  0
 12 51  1  0
 12 52  1  0
 14 53  1  0
 14 54  1  0
 14 55  1  0
 15 56  1  1
 16 57  1  0
 16 58  1  0
 17 59  1  0
 19 60  1  6
 20 61  1  0
 20 62  1  0
 21 63  1  0
 21 64  1  0
 22 65  1  6
 23 66  1  0
 25 67  1  0
 25 68  1  0
 25 69  1  0
 26 70  1  0
 26 71  1  0
 26 72  1  0
 28 73  1  0
 28 74  1  0
 28 75  1  0
 29 76  1  0
 29 77  1  0
 30 78  1  0
 30 79  1  0
 32 80  1  0
 32 81  1  0
 32 82  1  0
M  END
>  <meeko>  (10) 
{"is_sidechain": [false], "intermolecular_energy": 2.731, "internal_energy": -0.839}

$$$$
EPH_relaxed_0001_pdb2pqr_Repair_211_r2_0001_out
     RDKit          3D

 82 86  0  0  0  0  0  0  0  0999 V2000
   -0.2830   15.1160   -7.7090 C   0  0  0  0  0  0  0  0  0  0  0  0
    1.0800   15.1100   -7.0120 C   0  0  2  0  0  0  0  0  0  0  0  0
    2.2460   15.2140   -8.0160 C   0  0  0  0  0  0  0  0  0  0  0  0
    2.2630   16.5250   -8.8060 C   0  0  0  0  0  0  0  0  0  0  0  0
    1.8770   16.3140  -10.2390 C   0  0  2  0  0  0  0  0  0  0  0  0
    1.2160   15.0700  -10.5040 O   0  0  0  0  0  0  0  0  0  0  0  0
    2.4990   15.2510  -11.1250 C   0  0  0  0  0  0  0  0  0  0  0  0
    3.5600   14.3290  -10.6110 C   0  0  0  0  0  0  0  0  0  0  0  0
    2.4300   15.4270  -12.6100 C   0  0  0  0  0  0  0  0  0  0  0  0
    1.2280   13.8480   -6.1700 C   0  0  1  0  0  0  0  0  0  0  0  0
    2.6560   13.2450   -6.2430 C   0  0  0  0  0  0  0  0  0  0  0  0
    2.9600   12.6450   -4.8460 C   0  0  0  0  0  0  0  0  0  0  0  0
    1.5920   12.6240   -4.1250 C   0  0  1  0  0  0  0  0  0  0  0  0
    0.8770   11.3430   -4.6590 C   0  0  0  0  0  0  0  0  0  0  0  0
    1.6340   12.6520   -2.5620 C   0  0  2  0  0  0  0  0  0  0  0  0
    2.3250   11.4440   -1.9060 C   0  0  0  0  0  0  0  0  0  0  0  0
    1.4280   10.2960   -1.5810 C   0  0  0  0  0  0  0  0  0  0  0  0
    0.0830   10.3410   -1.5420 C   0  0  0  0  0  0  0  0  0  0  0  0
   -0.6670   11.6630   -1.7480 C   0  0  1  0  0  0  0  0  0  0  0  0
   -1.7630   11.8110   -0.6600 C   0  0  0  0  0  0  0  0  0  0  0  0
   -2.7020   10.6100   -0.6070 C   0  0  0  0  0  0  0  0  0  0  0  0
   -1.9250    9.3220   -0.3430 C   0  0  2  0  0  0  0  0  0  0  0  0
   -1.3770    9.3770    0.9770 O   0  0  0  0  0  0  0  0  0  0  0  0
   -0.7870    9.0710   -1.3720 C   0  0  0  0  0  0  0  0  0  0  0  0
   -1.3990    8.7130   -2.7480 C   0  0  0  0  0  0  0  0  0  0  0  0
    0.0060    7.8190   -0.9100 C   0  0  0  0  0  0  0  0  0  0  0  0
    0.2400   12.9610   -1.8820 C   0  0  1  0  0  0  0  0  0  0  0  0
    0.5520   13.5400   -0.4680 C   0  0  0  0  0  0  0  0  0  0  0  0
   -0.5670   14.0750   -2.6490 C   0  0  0  0  0  0  0  0  0  0  0  0
   -0.4730   14.0670   -4.1860 C   0  0  0  0  0  0  0  0  0  0  0  0
    0.9860   13.9780   -4.6460 C   0  0  2  0  0  0  0  0  0  0  0  0
    1.7250   15.2640   -4.1420 C   0  0  0  0  0  0  0  0  0  0  0  0
   -1.0816   15.1195   -6.9526 H   0  0  0  0  0  0  0  0  0  0  0  0
   -0.3694   16.0145   -8.3376 H   0  0  0  0  0  0  0  0  0  0  0  0
   -0.3773   14.2183   -8.3376 H   0  0  0  0  0  0  0  0  0  0  0  0
    1.1236   15.9968   -6.3627 H   0  0  0  0  0  0  0  0  0  0  0  0
    3.1915   15.1314   -7.4599 H   0  0  0  0  0  0  0  0  0  0  0  0
    2.1155   14.4010   -8.7454 H   0  0  0  0  0  0  0  0  0  0  0  0
    1.5532   17.2279   -8.3454 H   0  0  0  0  0  0  0  0  0  0  0  0
    3.2869   16.9263   -8.7823 H   0  0  0  0  0  0  0  0  0  0  0  0
    1.7210   17.3936  -10.3805 H   0  0  0  0  0  0  0  0  0  0  0  0
    3.5511   14.3367   -9.5111 H   0  0  0  0  0  0  0  0  0  0  0  0
    3.3652   13.3084  -10.9721 H   0  0  0  0  0  0  0  0  0  0  0  0
    4.5435   14.6642  -10.9721 H   0  0  0  0  0  0  0  0  0  0  0  0
    2.0376   16.4279  -12.8428 H   0  0  0  0  0  0  0  0  0  0  0  0
    3.4370   15.3190  -13.0392 H   0  0  0  0  0  0  0  0  0  0  0  0
    1.7647   14.6634  -13.0392 H   0  0  0  0  0  0  0  0  0  0  0  0
    0.4400   13.2296   -6.6246 H   0  0  0  0  0  0  0  0  0  0  0  0
    2.6960   12.4578   -7.0103 H   0  0  0  0  0  0  0  0  0  0  0  0
    3.3958   14.0131   -6.5125 H   0  0  0  0  0  0  0  0  0  0  0  0
    3.3650   11.6266   -4.9404 H   0  0  0  0  0  0  0  0  0  0  0  0
    3.7128   13.2287   -4.2959 H   0  0  0  0  0  0  0  0  0  0  0  0
    0.5362   10.7324   -3.8099 H   0  0  0  0  0  0  0  0  0  0  0  0
    0.0113   11.6348   -5.2717 H   0  0  0  0  0  0  0  0  0  0  0  0
    1.5798   10.7593   -5.2717 H   0  0  0  0  0  0  0  0  0  0  0  0
    2.2857   13.5145   -2.3589 H   0  0  0  0  0  0  0  0  0  0  0  0
    3.1037   11.0829   -2.5939 H   0  0  0  0  0  0  0  0  0  0  0  0
    2.7195   11.8040   -0.9443 H   0  0  0  0  0  0  0  0  0  0  0  0
    1.9063    9.3318   -1.3542 H   0  0  0  0  0  0  0  0  0  0  0  0
   -1.1342   11.5965   -2.7416 H   0  0  0  0  0  0  0  0  0  0  0  0
   -1.2747   11.9201    0.3196 H   0  0  0  0  0  0  0  0  0  0  0  0
   -2.3665   12.6952   -0.9128 H   0  0  0  0  0  0  0  0  0  0  0  0
   -3.4343   10.7607    0.1999 H   0  0  0  0  0  0  0  0  0  0  0  0
   -3.2125   10.5199   -1.5772 H   0  0  0  0  0  0  0  0  0  0  0  0
   -2.6303    8.4841   -0.4455 H   0  0  0  0  0  0  0  0  0  0  0  0
   -0.5640    9.9090    0.9370 H   0  0  0  0  0  0  0  0  0  0  0  0
   -2.3397    8.1627   -2.5989 H   0  0  0  0  0  0  0  0  0  0  0  0
   -1.5996    9.6362   -3.3115 H   0  0  0  0  0  0  0  0  0  0  0  0
   -0.6926    8.0857   -3.3115 H   0  0  0  0  0  0  0  0  0  0  0  0
    0.0282    7.7840    0.1892 H   0  0  0  0  0  0  0  0  0  0  0  0
   -0.4829    6.9123   -1.2959 H   0  0  0  0  0  0  0  0  0  0  0  0
    1.0346    7.8735   -1.2959 H   0  0  0  0  0  0  0  0  0  0  0  0
    0.1793   12.8483    0.3019 H   0  0  0  0  0  0  0  0  0  0  0  0
    1.6391   13.6640   -0.3542 H   0  0  0  0  0  0  0  0  0  0  0  0
    0.0577   14.5161   -0.3542 H   0  0  0  0  0  0  0  0  0  0  0  0
   -1.6276   13.9623   -2.3800 H   0  0  0  0  0  0  0  0  0  0  0  0
   -0.1108   15.0264   -2.3379 H   0  0  0  0  0  0  0  0  0  0  0  0
   -1.0267   13.2001   -4.5758 H   0  0  0  0  0  0  0  0  0  0  0  0
   -0.9048   15.0036   -4.5686 H   0  0  0  0  0  0  0  0  0  0  0  0
    1.7317   15.2757   -3.0421 H   0  0  0  0  0  0  0  0  0  0  0  0
    2.7598   15.2622   -4.5150 H   0  0  0  0  0  0  0  0  0  0  0  0
    1.2024   16.1572   -4.5150 H   0  0  0  0  0  0  0  0  0  0  0  0
  1  2  1  0
  2  3  1  0
  3  4  1  0
  4  5  1  0
  5  6  1  0
  6  7  1  0
  7  8  1  0
  7  9  1  0
  2 10  1  0
 10 11  1  0
 11 12  1  0
 12 13  1  0
 13 14  1  1
 13 15  1  0
 15 16  1  0
 16 17  1  0
 17 18  2  0
 18 19  1  0
 19 20  1  0
 20 21  1  0
 21 22  1  0
 22 23  1  0
 22 24  1  0
 24 25  1  0
 24 26  1  0
 19 27  1  0
 27 28  1  1
 27 29  1  0
 29 30  1  0
 30 31  1  0
 31 32  1  1
  7  5  1  0
 31 10  1  0
 31 13  1  0
 27 15  1  0
 24 18  1  0
  1 33  1  0
  1 34  1  0
  1 35  1  0
  2 36  1  1
  3 37  1  0
  3 38  1  0
  4 39  1  0
  4 40  1  0
  5 41  1  6
  8 42  1  0
  8 43  1  0
  8 44  1  0
  9 45  1  0
  9 46  1  0
  9 47  1  0
 10 48  1  6
 11 49  1  0
 11 50  1  0
 12 51  1  0
 12 52  1  0
 14 53  1  0
 14 54  1  0
 14 55  1  0
 15 56  1  6
 16 57  1  0
 16 58  1  0
 17 59  1  0
 19 60  1  6
 20 61  1  0
 20 62  1  0
 21 63  1  0
 21 64  1  0
 22 65  1  1
 23 66  1  0
 25 67  1  0
 25 68  1  0
 25 69  1  0
 26 70  1  0
 26 71  1  0
 26 72  1  0
 28 73  1  0
 28 74  1  0
 28 75  1  0
 29 76  1  0
 29 77  1  0
 30 78  1  0
 30 79  1  0
 32 80  1  0
 32 81  1  0
 32 82  1  0
M  END
>  <meeko>  (11) 
{"is_sidechain": [false], "intermolecular_energy": 2.731, "internal_energy": -0.839}

$$$$
EPH_relaxed_0001_pdb2pqr_Repair_211_r2_0001_out
     RDKit          3D

 82 86  0  0  0  0  0  0  0  0999 V2000
   -0.3370    9.3030   -2.1760 C   0  0  0  0  0  0  0  0  0  0  0  0
    0.7790   10.2450   -2.6380 C   0  0  2  0  0  0  0  0  0  0  0  0
    2.1490    9.5400   -2.6870 C   0  0  0  0  0  0  0  0  0  0  0  0
    3.0530   10.0310   -3.8220 C   0  0  0  0  0  0  0  0  0  0  0  0
    4.3830   10.4960   -3.3090 C   0  0  2  0  0  0  0  0  0  0  0  0
    4.7810   11.7940   -3.7700 O   0  0  0  0  0  0  0  0  0  0  0  0
    5.5990   10.6920   -4.1950 C   0  0  0  0  0  0  0  0  0  0  0  0
    5.5430   10.4250   -5.6670 C   0  0  0  0  0  0  0  0  0  0  0  0
    6.9560   10.6690   -3.5630 C   0  0  0  0  0  0  0  0  0  0  0  0
    0.8500   11.4580   -1.7180 C   0  0  1  0  0  0  0  0  0  0  0  0
    1.9010   11.2900   -0.5880 C   0  0  0  0  0  0  0  0  0  0  0  0
    2.5110   12.6930   -0.3340 C   0  0  0  0  0  0  0  0  0  0  0  0
    1.5710   13.6690   -1.0790 C   0  0  1  0  0  0  0  0  0  0  0  0
    0.3640   13.8800   -0.1120 C   0  0  0  0  0  0  0  0  0  0  0  0
    2.1990   15.0290   -1.5240 C   0  0  2  0  0  0  0  0  0  0  0  0
    2.6940   15.9260   -0.3760 C   0  0  0  0  0  0  0  0  0  0  0  0
    1.6860   16.8880    0.1610 C   0  0  0  0  0  0  0  0  0  0  0  0
    0.5310   17.2280   -0.4410 C   0  0  0  0  0  0  0  0  0  0  0  0
    0.1860   16.6990   -1.8390 C   0  0  1  0  0  0  0  0  0  0  0  0
   -0.3280   17.8660   -2.7220 C   0  0  0  0  0  0  0  0  0  0  0  0
   -1.4900   18.6190   -2.0800 C   0  0  0  0  0  0  0  0  0  0  0  0
   -1.0890   19.1790   -0.7170 C   0  0  2  0  0  0  0  0  0  0  0  0
   -0.0980   20.1940   -0.9100 O   0  0  0  0  0  0  0  0  0  0  0  0
   -0.5460   18.0960    0.2560 C   0  0  0  0  0  0  0  0  0  0  0  0
   -1.7040   17.1690    0.7010 C   0  0  0  0  0  0  0  0  0  0  0  0
   -0.0470   18.8140    1.5390 C   0  0  0  0  0  0  0  0  0  0  0  0
    1.3170   15.8440   -2.5560 C   0  0  1  0  0  0  0  0  0  0  0  0
    2.2910   16.7880   -3.3250 C   0  0  0  0  0  0  0  0  0  0  0  0
    0.6510   14.9150   -3.6380 C   0  0  0  0  0  0  0  0  0  0  0  0
    0.1580   13.5350   -3.1620 C   0  0  0  0  0  0  0  0  0  0  0  0
    1.2440   12.8130   -2.3570 C   0  0  2  0  0  0  0  0  0  0  0  0
    2.4620   12.5670   -3.3110 C   0  0  0  0  0  0  0  0  0  0  0  0
   -0.3651    9.2793   -1.0766 H   0  0  0  0  0  0  0  0  0  0  0  0
   -1.3030    9.6630   -2.5598 H   0  0  0  0  0  0  0  0  0  0  0  0
   -0.1443    8.2903   -2.5598 H   0  0  0  0  0  0  0  0  0  0  0  0
    0.5369   10.5688   -3.6610 H   0  0  0  0  0  0  0  0  0  0  0  0
    2.6646    9.7158   -1.7314 H   0  0  0  0  0  0  0  0  0  0  0  0
    1.9553    8.4725   -2.8687 H   0  0  0  0  0  0  0  0  0  0  0  0
    3.2132    9.2066   -4.5324 H   0  0  0  0  0  0  0  0  0  0  0  0
    2.5574   10.8822   -4.3118 H   0  0  0  0  0  0  0  0  0  0  0  0
    4.2379    9.9485   -2.3660 H   0  0  0  0  0  0  0  0  0  0  0  0
    5.3200    9.3616   -5.8385 H   0  0  0  0  0  0  0  0  0  0  0  0
    4.7549   11.0430   -6.1220 H   0  0  0  0  0  0  0  0  0  0  0  0
    6.5130   10.6742   -6.1220 H   0  0  0  0  0  0  0  0  0  0  0  0
    6.8506   10.6708   -2.4681 H   0  0  0  0  0  0  0  0  0  0  0  0
    7.4920    9.7616   -3.8783 H   0  0  0  0  0  0  0  0  0  0  0  0
    7.5224   11.5577   -3.8783 H   0  0  0  0  0  0  0  0  0  0  0  0
   -0.1954   11.4927   -1.3775 H   0  0  0  0  0  0  0  0  0  0  0  0
    1.4178   10.9156    0.3265 H   0  0  0  0  0  0  0  0  0  0  0  0
    2.6785   10.5668   -0.8753 H   0  0  0  0  0  0  0  0  0  0  0  0
    2.5306   12.9186    0.7424 H   0  0  0  0  0  0  0  0  0  0  0  0
    3.5506   12.7653   -0.6861 H   0  0  0  0  0  0  0  0  0  0  0  0
    0.7134   13.8189    0.9293 H   0  0  0  0  0  0  0  0  0  0  0  0
   -0.0813   14.8696   -0.2919 H   0  0  0  0  0  0  0  0  0  0  0  0
   -0.3906   13.1002   -0.2919 H   0  0  0  0  0  0  0  0  0  0  0  0
    3.1028   14.7065   -2.0617 H   0  0  0  0  0  0  0  0  0  0  0  0
    3.0160   15.2746    0.4498 H   0  0  0  0  0  0  0  0  0  0  0  0
    3.5057   16.5381   -0.7960 H   0  0  0  0  0  0  0  0  0  0  0  0
    1.9059   17.3587    1.1306 H   0  0  0  0  0  0  0  0  0  0  0  0
   -0.6151   15.9592   -1.6944 H   0  0  0  0  0  0  0  0  0  0  0  0
    0.4991   18.5714   -2.8903 H   0  0  0  0  0  0  0  0  0  0  0  0
   -0.6913   17.4347   -3.6664 H   0  0  0  0  0  0  0  0  0  0  0  0
   -1.7882   19.4493   -2.7371 H   0  0  0  0  0  0  0  0  0  0  0  0
   -2.3278   17.9200   -1.9404 H   0  0  0  0  0  0  0  0  0  0  0  0
   -1.9955   19.5917   -0.2502 H   0  0  0  0  0  0  0  0  0  0  0  0
    0.2660   20.4190   -0.0370 H   0  0  0  0  0  0  0  0  0  0  0  0
   -1.7455   17.1358    1.7997 H   0  0  0  0  0  0  0  0  0  0  0  0
   -2.6558   17.5576    0.3097 H   0  0  0  0  0  0  0  0  0  0  0  0
   -1.5332   16.1552    0.3097 H   0  0  0  0  0  0  0  0  0  0  0  0
   -0.4182   18.2798    2.4260 H   0  0  0  0  0  0  0  0  0  0  0  0
    1.0529   18.8229    1.5500 H   0  0  0  0  0  0  0  0  0  0  0  0
   -0.4221   19.8480    1.5500 H   0  0  0  0  0  0  0  0  0  0  0  0
    2.8873   17.3660   -2.6037 H   0  0  0  0  0  0  0  0  0  0  0  0
    2.9615   16.1871   -3.9569 H   0  0  0  0  0  0  0  0  0  0  0  0
    1.7113   17.4769   -3.9569 H   0  0  0  0  0  0  0  0  0  0  0  0
   -0.2149   15.4532   -4.0509 H   0  0  0  0  0  0  0  0  0  0  0  0
    1.4497   14.7003   -4.3632 H   0  0  0  0  0  0  0  0  0  0  0  0
   -0.7307   13.6693   -2.5279 H   0  0  0  0  0  0  0  0  0  0  0  0
   -0.0877   12.9264   -4.0447 H   0  0  0  0  0  0  0  0  0  0  0  0
    3.3661   12.3844   -2.7117 H   0  0  0  0  0  0  0  0  0  0  0  0
    2.2597   11.6916   -3.9456 H   0  0  0  0  0  0  0  0  0  0  0  0
    2.6154   13.4523   -3.9456 H   0  0  0  0  0  0  0  0  0  0  0  0
  1  2  1  0
  2  3  1  0
  3  4  1  0
  4  5  1  0
  5  6  1  0
  6  7  1  0
  7  8  1  0
  7  9  1  0
  2 10  1  0
 10 11  1  0
 11 12  1  0
 12 13  1  0
 13 14  1  1
 13 15  1  0
 15 16  1  0
 16 17  1  0
 17 18  2  0
 18 19  1  0
 19 20  1  0
 20 21  1  0
 21 22  1  0
 22 23  1  0
 22 24  1  0
 24 25  1  0
 24 26  1  0
 19 27  1  0
 27 28  1  6
 27 29  1  0
 29 30  1  0
 30 31  1  0
 31 32  1  6
  7  5  1  0
 31 10  1  0
 31 13  1  0
 27 15  1  0
 24 18  1  0
  1 33  1  0
  1 34  1  0
  1 35  1  0
  2 36  1  6
  3 37  1  0
  3 38  1  0
  4 39  1  0
  4 40  1  0
  5 41  1  1
  8 42  1  0
  8 43  1  0
  8 44  1  0
  9 45  1  0
  9 46  1  0
  9 47  1  0
 10 48  1  1
 11 49  1  0
 11 50  1  0
 12 51  1  0
 12 52  1  0
 14 53  1  0
 14 54  1  0
 14 55  1  0
 15 56  1  6
 16 57  1  0
 16 58  1  0
 17 59  1  0
 19 60  1  1
 20 61  1  0
 20 62  1  0
 21 63  1  0
 21 64  1  0
 22 65  1  1
 23 66  1  0
 25 67  1  0
 25 68  1  0
 25 69  1  0
 26 70  1  0
 26 71  1  0
 26 72  1  0
 28 73  1  0
 28 74  1  0
 28 75  1  0
 29 76  1  0
 29 77  1  0
 30 78  1  0
 30 79  1  0
 32 80  1  0
 32 81  1  0
 32 82  1  0
M  END
>  <meeko>  (12) 
{"is_sidechain": [false], "intermolecular_energy": 2.731, "internal_energy": -0.839}

$$$$
EPH_relaxed_0001_pdb2pqr_Repair_211_r2_0001_out
     RDKit          3D

 82 86  0  0  0  0  0  0  0  0999 V2000
   -2.2900    7.7890   -2.3010 C   0  0  0  0  0  0  0  0  0  0  0  0
   -2.2450    8.3780   -0.8890 C   0  0  2  0  0  0  0  0  0  0  0  0
   -3.6250    8.3450   -0.2010 C   0  0  0  0  0  0  0  0  0  0  0  0
   -4.7970    8.2210   -1.1790 C   0  0  0  0  0  0  0  0  0  0  0  0
   -5.8980    7.3730   -0.6190 C   0  0  2  0  0  0  0  0  0  0  0  0
   -6.2160    6.2130   -1.3990 O   0  0  0  0  0  0  0  0  0  0  0  0
   -7.2490    7.2050   -1.2910 C   0  0  0  0  0  0  0  0  0  0  0  0
   -7.5690    7.8930   -2.5810 C   0  0  0  0  0  0  0  0  0  0  0  0
   -8.4140    6.7740   -0.4560 C   0  0  0  0  0  0  0  0  0  0  0  0
   -1.7230    9.8090   -0.9390 C   0  0  1  0  0  0  0  0  0  0  0  0
   -1.3020   10.3410    0.4570 C   0  0  0  0  0  0  0  0  0  0  0  0
   -0.0810   11.2700    0.2320 C   0  0  0  0  0  0  0  0  0  0  0  0
   -0.0460   11.5050   -1.2960 C   0  0  1  0  0  0  0  0  0  0  0  0
   -1.1040   12.6240   -1.5540 C   0  0  0  0  0  0  0  0  0  0  0  0
    1.3450   11.8750   -1.9060 C   0  0  2  0  0  0  0  0  0  0  0  0
    1.9510   13.1940   -1.3980 C   0  0  0  0  0  0  0  0  0  0  0  0
    1.5950   14.4070   -2.1920 C   0  0  0  0  0  0  0  0  0  0  0  0
    1.0580   14.4040   -3.4260 C   0  0  0  0  0  0  0  0  0  0  0  0
    0.8460   13.0900   -4.1890 C   0  0  1  0  0  0  0  0  0  0  0  0
    1.3570   13.2490   -5.6450 C   0  0  0  0  0  0  0  0  0  0  0  0
    0.7330   14.4450   -6.3580 C   0  0  0  0  0  0  0  0  0  0  0  0
    1.0150   15.7390   -5.5990 C   0  0  2  0  0  0  0  0  0  0  0  0
    2.4190   16.0100   -5.6570 O   0  0  0  0  0  0  0  0  0  0  0  0
    0.5520   15.6950   -4.1160 C   0  0  0  0  0  0  0  0  0  0  0  0
   -0.9950   15.7040   -4.0540 C   0  0  0  0  0  0  0  0  0  0  0  0
    1.0230   17.0050   -3.4290 C   0  0  0  0  0  0  0  0  0  0  0  0
    1.4060   11.7810   -3.4850 C   0  0  1  0  0  0  0  0  0  0  0  0
    2.9050   11.5740   -3.8610 C   0  0  0  0  0  0  0  0  0  0  0  0
    0.6320   10.5270   -4.0400 C   0  0  0  0  0  0  0  0  0  0  0  0
   -0.6740   10.1420   -3.3190 C   0  0  0  0  0  0  0  0  0  0  0  0
   -0.4650   10.0780   -1.8030 C   0  0  2  0  0  0  0  0  0  0  0  0
    0.5780    8.9460   -1.5110 C   0  0  0  0  0  0  0  0  0  0  0  0
   -2.3737    6.6939   -2.2390 H   0  0  0  0  0  0  0  0  0  0  0  0
   -3.1599    8.1933   -2.8394 H   0  0  0  0  0  0  0  0  0  0  0  0
   -1.3688    8.0565   -2.8394 H   0  0  0  0  0  0  0  0  0  0  0  0
   -1.5635    7.7538   -0.2923 H   0  0  0  0  0  0  0  0  0  0  0  0
   -3.6513    7.4845    0.4837 H   0  0  0  0  0  0  0  0  0  0  0  0
   -3.7451    9.3035    0.3252 H   0  0  0  0  0  0  0  0  0  0  0  0
   -5.1928    9.2253   -1.3904 H   0  0  0  0  0  0  0  0  0  0  0  0
   -4.4280    7.7416   -2.0977 H   0  0  0  0  0  0  0  0  0  0  0  0
   -5.6132    7.6404    0.4093 H   0  0  0  0  0  0  0  0  0  0  0  0
   -8.0244    8.8721   -2.3712 H   0  0  0  0  0  0  0  0  0  0  0  0
   -6.6445    8.0351   -3.1600 H   0  0  0  0  0  0  0  0  0  0  0  0
   -8.2733    7.2775   -3.1600 H   0  0  0  0  0  0  0  0  0  0  0  0
   -8.1568    6.8692    0.6093 H   0  0  0  0  0  0  0  0  0  0  0  0
   -9.2823    7.4104   -0.6818 H   0  0  0  0  0  0  0  0  0  0  0  0
   -8.6591    5.7257   -0.6818 H   0  0  0  0  0  0  0  0  0  0  0  0
   -2.5977   10.3081   -1.3815 H   0  0  0  0  0  0  0  0  0  0  0  0
   -2.1289   10.9058    0.9123 H   0  0  0  0  0  0  0  0  0  0  0  0
   -1.0486    9.5129    1.1353 H   0  0  0  0  0  0  0  0  0  0  0  0
   -0.2128   12.2213    0.7683 H   0  0  0  0  0  0  0  0  0  0  0  0
    0.8539   10.8286    0.6077 H   0  0  0  0  0  0  0  0  0  0  0  0
   -1.4702   13.0113   -0.5917 H   0  0  0  0  0  0  0  0  0  0  0  0
   -0.6410   13.4416   -2.1260 H   0  0  0  0  0  0  0  0  0  0  0  0
   -1.9462   12.2075   -2.1260 H   0  0  0  0  0  0  0  0  0  0  0  0
    1.9936   11.0782   -1.5131 H   0  0  0  0  0  0  0  0  0  0  0  0
    1.6065   13.3507   -0.3651 H   0  0  0  0  0  0  0  0  0  0  0  0
    3.0417   13.0817   -1.4865 H   0  0  0  0  0  0  0  0  0  0  0  0
    1.7879   15.3861   -1.7293 H   0  0  0  0  0  0  0  0  0  0  0  0
   -0.2394   12.9116   -4.1916 H   0  0  0  0  0  0  0  0  0  0  0  0
    2.4487   13.3822   -5.6228 H   0  0  0  0  0  0  0  0  0  0  0  0
    1.0703   12.3434   -6.1997 H   0  0  0  0  0  0  0  0  0  0  0  0
    1.1561   14.5217   -7.3705 H   0  0  0  0  0  0  0  0  0  0  0  0
   -0.3558   14.2963   -6.4071 H   0  0  0  0  0  0  0  0  0  0  0  0
    0.4349   16.5382   -6.0836 H   0  0  0  0  0  0  0  0  0  0  0  0
    2.8010   15.7680   -4.7970 H   0  0  0  0  0  0  0  0  0  0  0  0
   -1.3198   15.7059   -3.0031 H   0  0  0  0  0  0  0  0  0  0  0  0
   -1.3769   16.6044   -4.5574 H   0  0  0  0  0  0  0  0  0  0  0  0
   -1.3874   14.8081   -4.5574 H   0  0  0  0  0  0  0  0  0  0  0  0
    0.9790   16.8825   -2.3367 H   0  0  0  0  0  0  0  0  0  0  0  0
    2.0571   17.2265   -3.7317 H   0  0  0  0  0  0  0  0  0  0  0  0
    0.3667   17.8342   -3.7317 H   0  0  0  0  0  0  0  0  0  0  0  0
    3.5052   11.4911   -2.9429 H   0  0  0  0  0  0  0  0  0  0  0  0
    3.0108   10.6527   -4.4527 H   0  0  0  0  0  0  0  0  0  0  0  0
    3.2565   12.4321   -4.4527 H   0  0  0  0  0  0  0  0  0  0  0  0
    0.3842   10.7279   -5.0927 H   0  0  0  0  0  0  0  0  0  0  0  0
    1.3106    9.6760   -3.8806 H   0  0  0  0  0  0  0  0  0  0  0  0
   -1.4447   10.8938   -3.5446 H   0  0  0  0  0  0  0  0  0  0  0  0
   -0.9898    9.1491   -3.6717 H   0  0  0  0  0  0  0  0  0  0  0  0
    0.6911    8.8232   -0.4237 H   0  0  0  0  0  0  0  0  0  0  0  0
    0.2271    8.0014   -1.9521 H   0  0  0  0  0  0  0  0  0  0  0  0
    1.5481    9.2186   -1.9521 H   0  0  0  0  0  0  0  0  0  0  0  0
  1  2  1  0
  2  3  1  0
  3  4  1  0
  4  5  1  0
  5  6  1  0
  6  7  1  0
  7  8  1  0
  7  9  1  0
  2 10  1  0
 10 11  1  0
 11 12  1  0
 12 13  1  0
 13 14  1  1
 13 15  1  0
 15 16  1  0
 16 17  1  0
 17 18  2  0
 18 19  1  0
 19 20  1  0
 20 21  1  0
 21 22  1  0
 22 23  1  0
 22 24  1  0
 24 25  1  0
 24 26  1  0
 19 27  1  0
 27 28  1  1
 27 29  1  0
 29 30  1  0
 30 31  1  0
 31 32  1  6
  7  5  1  0
 31 10  1  0
 31 13  1  0
 27 15  1  0
 24 18  1  0
  1 33  1  0
  1 34  1  0
  1 35  1  0
  2 36  1  1
  3 37  1  0
  3 38  1  0
  4 39  1  0
  4 40  1  0
  5 41  1  1
  8 42  1  0
  8 43  1  0
  8 44  1  0
  9 45  1  0
  9 46  1  0
  9 47  1  0
 10 48  1  6
 11 49  1  0
 11 50  1  0
 12 51  1  0
 12 52  1  0
 14 53  1  0
 14 54  1  0
 14 55  1  0
 15 56  1  1
 16 57  1  0
 16 58  1  0
 17 59  1  0
 19 60  1  6
 20 61  1  0
 20 62  1  0
 21 63  1  0
 21 64  1  0
 22 65  1  6
 23 66  1  0
 25 67  1  0
 25 68  1  0
 25 69  1  0
 26 70  1  0
 26 71  1  0
 26 72  1  0
 28 73  1  0
 28 74  1  0
 28 75  1  0
 29 76  1  0
 29 77  1  0
 30 78  1  0
 30 79  1  0
 32 80  1  0
 32 81  1  0
 32 82  1  0
M  END
>  <meeko>  (13) 
{"is_sidechain": [false], "intermolecular_energy": 2.731, "internal_energy": -0.839}

$$$$
EPH_relaxed_0001_pdb2pqr_Repair_211_r2_0001_out
     RDKit          3D

 82 86  0  0  0  0  0  0  0  0999 V2000
    2.8660   11.4290   -5.3610 C   0  0  0  0  0  0  0  0  0  0  0  0
    1.8200   11.1210   -4.2860 C   0  0  2  0  0  0  0  0  0  0  0  0
    0.6950   10.2080   -4.8150 C   0  0  0  0  0  0  0  0  0  0  0  0
   -0.3610    9.8600   -3.7620 C   0  0  0  0  0  0  0  0  0  0  0  0
    0.2320    9.1020   -2.6130 C   0  0  2  0  0  0  0  0  0  0  0  0
   -0.5600    8.0000   -2.1510 O   0  0  0  0  0  0  0  0  0  0  0  0
   -0.3770    9.0810   -1.2230 C   0  0  0  0  0  0  0  0  0  0  0  0
   -1.6320    9.8330   -0.9090 C   0  0  0  0  0  0  0  0  0  0  0  0
    0.5030    8.7360   -0.0620 C   0  0  0  0  0  0  0  0  0  0  0  0
    1.2280   12.4190   -3.7490 C   0  0  1  0  0  0  0  0  0  0  0  0
   -0.3130   12.3470   -3.5790 C   0  0  0  0  0  0  0  0  0  0  0  0
   -0.6640   13.1940   -2.3280 C   0  0  0  0  0  0  0  0  0  0  0  0
    0.6270   13.9870   -2.0190 C   0  0  1  0  0  0  0  0  0  0  0  0
    0.5980   15.1990   -3.0030 C   0  0  0  0  0  0  0  0  0  0  0  0
    0.8150   14.4510   -0.5380 C   0  0  2  0  0  0  0  0  0  0  0  0
   -0.2550   15.4280   -0.0190 C   0  0  0  0  0  0  0  0  0  0  0  0
    0.0540   16.8750   -0.2160 C   0  0  0  0  0  0  0  0  0  0  0  0
    1.2620   17.3820   -0.5240 C   0  0  0  0  0  0  0  0  0  0  0  0
    2.4970   16.4770   -0.6110 C   0  0  1  0  0  0  0  0  0  0  0  0
    3.6760   17.1350    0.1530 C   0  0  0  0  0  0  0  0  0  0  0  0
    3.9600   18.5560   -0.3220 C   0  0  0  0  0  0  0  0  0  0  0  0
    2.7260   19.4410   -0.1660 C   0  0  2  0  0  0  0  0  0  0  0  0
    2.4480   19.6030    1.2280 O   0  0  0  0  0  0  0  0  0  0  0  0
    1.4710   18.8730   -0.8870 C   0  0  0  0  0  0  0  0  0  0  0  0
    1.6590   18.9790   -2.4200 C   0  0  0  0  0  0  0  0  0  0  0  0
    0.2640   19.7840   -0.5330 C   0  0  0  0  0  0  0  0  0  0  0  0
    2.2740   14.9580   -0.1980 C   0  0  1  0  0  0  0  0  0  0  0  0
    2.4550   14.7940    1.3420 C   0  0  0  0  0  0  0  0  0  0  0  0
    3.3880   14.0730   -0.8720 C   0  0  0  0  0  0  0  0  0  0  0  0
    3.0920   13.5460   -2.2900 C   0  0  0  0  0  0  0  0  0  0  0  0
    1.7070   12.8960   -2.3550 C   0  0  2  0  0  0  0  0  0  0  0  0
    1.7120   11.6600   -1.3920 C   0  0  0  0  0  0  0  0  0  0  0  0
    3.8149   11.7084   -4.8799 H   0  0  0  0  0  0  0  0  0  0  0  0
    3.0209   10.5384   -5.9877 H   0  0  0  0  0  0  0  0  0  0  0  0
    2.5136   12.2615   -5.9877 H   0  0  0  0  0  0  0  0  0  0  0  0
    2.3293   10.5811   -3.4742 H   0  0  0  0  0  0  0  0  0  0  0  0
    0.1963   10.7201   -5.6511 H   0  0  0  0  0  0  0  0  0  0  0  0
    1.1659    9.2628   -5.1230 H   0  0  0  0  0  0  0  0  0  0  0  0
   -0.8069   10.7913   -3.3827 H   0  0  0  0  0  0  0  0  0  0  0  0
   -1.1224    9.2237   -4.2366 H   0  0  0  0  0  0  0  0  0  0  0  0
    1.2515    9.3111   -2.9692 H   0  0  0  0  0  0  0  0  0  0  0  0
   -1.7528    9.9054    0.1819 H   0  0  0  0  0  0  0  0  0  0  0  0
   -1.5712   10.8436   -1.3391 H   0  0  0  0  0  0  0  0  0  0  0  0
   -2.4945    9.3028   -1.3391 H   0  0  0  0  0  0  0  0  0  0  0  0
   -0.0302    8.9451    0.8771 H   0  0  0  0  0  0  0  0  0  0  0  0
    0.7651    7.6685   -0.1050 H   0  0  0  0  0  0  0  0  0  0  0  0
    1.4207    9.3409   -0.1050 H   0  0  0  0  0  0  0  0  0  0  0  0
    1.5769   13.1160   -4.5252 H   0  0  0  0  0  0  0  0  0  0  0  0
   -0.8121   12.7595   -4.4682 H   0  0  0  0  0  0  0  0  0  0  0  0
   -0.6495   11.3066   -3.4593 H   0  0  0  0  0  0  0  0  0  0  0  0
   -1.4978   13.8783   -2.5438 H   0  0  0  0  0  0  0  0  0  0  0  0
   -0.9845   12.5717   -1.4794 H   0  0  0  0  0  0  0  0  0  0  0  0
    0.5756   16.1370   -2.4288 H   0  0  0  0  0  0  0  0  0  0  0  0
    1.4969   15.1784   -3.6367 H   0  0  0  0  0  0  0  0  0  0  0  0
   -0.2989   15.1354   -3.6367 H   0  0  0  0  0  0  0  0  0  0  0  0
    0.6632   13.5168    0.0225 H   0  0  0  0  0  0  0  0  0  0  0  0
   -1.1981   15.2077   -0.5406 H   0  0  0  0  0  0  0  0  0  0  0  0
   -0.3067   15.2731    1.0688 H   0  0  0  0  0  0  0  0  0  0  0  0
   -0.7761   17.5874   -0.0996 H   0  0  0  0  0  0  0  0  0  0  0  0
    2.7424   16.3992   -1.6805 H   0  0  0  0  0  0  0  0  0  0  0  0
    3.4294   17.1641    1.2246 H   0  0  0  0  0  0  0  0  0  0  0  0
    4.5761   16.5325   -0.0390 H   0  0  0  0  0  0  0  0  0  0  0  0
    4.7827   18.9772    0.2745 H   0  0  0  0  0  0  0  0  0  0  0  0
    4.2348   18.5217   -1.3866 H   0  0  0  0  0  0  0  0  0  0  0  0
    2.9504   20.4076   -0.6407 H   0  0  0  0  0  0  0  0  0  0  0  0
    2.8470   20.4430    1.5120 H   0  0  0  0  0  0  0  0  0  0  0  0
    2.5981   19.5085   -2.6385 H   0  0  0  0  0  0  0  0  0  0  0  0
    1.6974   17.9696   -2.8554 H   0  0  0  0  0  0  0  0  0  0  0  0
    0.8151   19.5343   -2.8554 H   0  0  0  0  0  0  0  0  0  0  0  0
    0.1677   19.8567    0.5604 H   0  0  0  0  0  0  0  0  0  0  0  0
    0.4258   20.7872   -0.9543 H   0  0  0  0  0  0  0  0  0  0  0  0
   -0.6564   19.3534   -0.9543 H   0  0  0  0  0  0  0  0  0  0  0  0
    1.7385   15.4432    1.8666 H   0  0  0  0  0  0  0  0  0  0  0  0
    2.2740   13.7460    1.6229 H   0  0  0  0  0  0  0  0  0  0  0  0
    3.4801   15.0771    1.6229 H   0  0  0  0  0  0  0  0  0  0  0  0
    4.3057   14.6770   -0.9261 H   0  0  0  0  0  0  0  0  0  0  0  0
    3.4642   13.1753   -0.2408 H   0  0  0  0  0  0  0  0  0  0  0  0
    3.1296   14.3847   -3.0008 H   0  0  0  0  0  0  0  0  0  0  0  0
    3.8473   12.7889   -2.5476 H   0  0  0  0  0  0  0  0  0  0  0  0
    1.7106   12.0082   -0.3486 H   0  0  0  0  0  0  0  0  0  0  0  0
    0.8163   11.0484   -1.5757 H   0  0  0  0  0  0  0  0  0  0  0  0
    2.6126   11.0557   -1.5757 H   0  0  0  0  0  0  0  0  0  0  0  0
  1  2  1  0
  2  3  1  0
  3  4  1  0
  4  5  1  0
  5  6  1  0
  6  7  1  0
  7  8  1  0
  7  9  1  0
  2 10  1  0
 10 11  1  0
 11 12  1  0
 12 13  1  0
 13 14  1  6
 13 15  1  0
 15 16  1  0
 16 17  1  0
 17 18  2  0
 18 19  1  0
 19 20  1  0
 20 21  1  0
 21 22  1  0
 22 23  1  0
 22 24  1  0
 24 25  1  0
 24 26  1  0
 19 27  1  0
 27 28  1  1
 27 29  1  0
 29 30  1  0
 30 31  1  0
 31 32  1  1
  7  5  1  0
 31 10  1  0
 31 13  1  0
 27 15  1  0
 24 18  1  0
  1 33  1  0
  1 34  1  0
  1 35  1  0
  2 36  1  1
  3 37  1  0
  3 38  1  0
  4 39  1  0
  4 40  1  0
  5 41  1  1
  8 42  1  0
  8 43  1  0
  8 44  1  0
  9 45  1  0
  9 46  1  0
  9 47  1  0
 10 48  1  6
 11 49  1  0
 11 50  1  0
 12 51  1  0
 12 52  1  0
 14 53  1  0
 14 54  1  0
 14 55  1  0
 15 56  1  1
 16 57  1  0
 16 58  1  0
 17 59  1  0
 19 60  1  6
 20 61  1  0
 20 62  1  0
 21 63  1  0
 21 64  1  0
 22 65  1  6
 23 66  1  0
 25 67  1  0
 25 68  1  0
 25 69  1  0
 26 70  1  0
 26 71  1  0
 26 72  1  0
 28 73  1  0
 28 74  1  0
 28 75  1  0
 29 76  1  0
 29 77  1  0
 30 78  1  0
 30 79  1  0
 32 80  1  0
 32 81  1  0
 32 82  1  0
M  END
>  <meeko>  (14) 
{"is_sidechain": [false], "intermolecular_energy": 2.731, "internal_energy": -0.839}

$$$$
EPH_relaxed_0001_pdb2pqr_Repair_211_r2_0001_out
     RDKit          3D

 82 86  0  0  0  0  0  0  0  0999 V2000
    0.6880    9.4460    0.0930 C   0  0  0  0  0  0  0  0  0  0  0  0
   -0.4970   10.4150    0.0750 C   0  0  2  0  0  0  0  0  0  0  0  0
   -1.1900   10.4580   -1.3020 C   0  0  0  0  0  0  0  0  0  0  0  0
   -0.4090    9.7430   -2.4070 C   0  0  0  0  0  0  0  0  0  0  0  0
   -0.2060   10.6250   -3.6020 C   0  0  2  0  0  0  0  0  0  0  0  0
    0.4140    9.9810   -4.7230 O   0  0  0  0  0  0  0  0  0  0  0  0
    1.1620   11.0440   -4.1090 C   0  0  0  0  0  0  0  0  0  0  0  0
    2.4170   10.5920   -3.4310 C   0  0  0  0  0  0  0  0  0  0  0  0
    1.2650   12.2740   -4.9550 C   0  0  0  0  0  0  0  0  0  0  0  0
   -0.0320   11.8120    0.4680 C   0  0  1  0  0  0  0  0  0  0  0  0
    1.0940   11.7890    1.5360 C   0  0  0  0  0  0  0  0  0  0  0  0
    2.0350   12.9800    1.2210 C   0  0  0  0  0  0  0  0  0  0  0  0
    1.2500   13.8370    0.2000 C   0  0  1  0  0  0  0  0  0  0  0  0
    0.2620   14.6830    1.0630 C   0  0  0  0  0  0  0  0  0  0  0  0
    2.1060   14.7390   -0.7470 C   0  0  2  0  0  0  0  0  0  0  0  0
    2.9390   15.8230   -0.0400 C   0  0  0  0  0  0  0  0  0  0  0  0
    2.2560   17.1390    0.1340 C   0  0  0  0  0  0  0  0  0  0  0  0
    1.1390   17.5320   -0.5070 C   0  0  0  0  0  0  0  0  0  0  0  0
    0.5010   16.6510   -1.5880 C   0  0  1  0  0  0  0  0  0  0  0  0
    0.1530   17.5210   -2.8250 C   0  0  0  0  0  0  0  0  0  0  0  0
   -0.7120   18.7260   -2.4680 C   0  0  0  0  0  0  0  0  0  0  0  0
   -0.0180   19.6080   -1.4330 C   0  0  2  0  0  0  0  0  0  0  0  0
    1.1420   20.1940   -2.0310 O   0  0  0  0  0  0  0  0  0  0  0  0
    0.3890   18.8370   -0.1460 C   0  0  0  0  0  0  0  0  0  0  0  0
   -0.8800   18.4630    0.6590 C   0  0  0  0  0  0  0  0  0  0  0  0
    1.2030   19.8070    0.7530 C   0  0  0  0  0  0  0  0  0  0  0  0
    1.3040   15.3350   -1.9740 C   0  0  1  0  0  0  0  0  0  0  0  0
    2.3560   15.6580   -3.0790 C   0  0  0  0  0  0  0  0  0  0  0  0
    0.3070   14.2900   -2.6020 C   0  0  0  0  0  0  0  0  0  0  0  0
   -0.4180   13.3470   -1.6230 C   0  0  0  0  0  0  0  0  0  0  0  0
    0.5710   12.7010   -0.6480 C   0  0  2  0  0  0  0  0  0  0  0  0
    1.5650   11.8260   -1.4860 C   0  0  0  0  0  0  0  0  0  0  0  0
    0.9624    9.2216    1.1343 H   0  0  0  0  0  0  0  0  0  0  0  0
    0.4080    8.5148   -0.4212 H   0  0  0  0  0  0  0  0  0  0  0  0
    1.5451    9.9053   -0.4212 H   0  0  0  0  0  0  0  0  0  0  0  0
   -1.2346   10.0501    0.8049 H   0  0  0  0  0  0  0  0  0  0  0  0
   -2.1765    9.9802   -1.2093 H   0  0  0  0  0  0  0  0  0  0  0  0
   -1.2616   11.5165   -1.5926 H   0  0  0  0  0  0  0  0  0  0  0  0
    0.5737    9.4446   -2.0131 H   0  0  0  0  0  0  0  0  0  0  0  0
   -0.9899    8.8643   -2.7240 H   0  0  0  0  0  0  0  0  0  0  0  0
   -1.1118   11.2007   -3.3611 H   0  0  0  0  0  0  0  0  0  0  0  0
    2.2824   10.6405   -2.3403 H   0  0  0  0  0  0  0  0  0  0  0  0
    2.6413    9.5566   -3.7271 H   0  0  0  0  0  0  0  0  0  0  0  0
    3.2499   11.2466   -3.7271 H   0  0  0  0  0  0  0  0  0  0  0  0
    1.3392   13.1597   -4.3069 H   0  0  0  0  0  0  0  0  0  0  0  0
    2.1608   12.2083   -5.5900 H   0  0  0  0  0  0  0  0  0  0  0  0
    0.3708   12.3582   -5.5900 H   0  0  0  0  0  0  0  0  0  0  0  0
   -0.9881   12.2343    0.8108 H   0  0  0  0  0  0  0  0  0  0  0  0
    0.6639   11.9021    2.5421 H   0  0  0  0  0  0  0  0  0  0  0  0
    1.6422   10.8357    1.5109 H   0  0  0  0  0  0  0  0  0  0  0  0
    2.2475   13.5587    2.1320 H   0  0  0  0  0  0  0  0  0  0  0  0
    3.0084   12.6505    0.8286 H   0  0  0  0  0  0  0  0  0  0  0  0
    0.4654   14.5088    2.1299 H   0  0  0  0  0  0  0  0  0  0  0  0
    0.3963   15.7504    0.8336 H   0  0  0  0  0  0  0  0  0  0  0  0
   -0.7720   14.3860    0.8336 H   0  0  0  0  0  0  0  0  0  0  0  0
    2.8341   14.0242   -1.1581 H   0  0  0  0  0  0  0  0  0  0  0  0
    3.2108   15.4465    0.9572 H   0  0  0  0  0  0  0  0  0  0  0  0
    3.8057   16.0133   -0.6900 H   0  0  0  0  0  0  0  0  0  0  0  0
    2.7033   17.8478    0.8464 H   0  0  0  0  0  0  0  0  0  0  0  0
   -0.4204   16.2451   -1.1450 H   0  0  0  0  0  0  0  0  0  0  0  0
    1.0888   17.8805   -3.2778 H   0  0  0  0  0  0  0  0  0  0  0  0
   -0.4201   16.8939   -3.5238 H   0  0  0  0  0  0  0  0  0  0  0  0
   -0.8993   19.3167   -3.3769 H   0  0  0  0  0  0  0  0  0  0  0  0
   -1.6597   18.3643   -2.0424 H   0  0  0  0  0  0  0  0  0  0  0  0
   -0.7367   20.3802   -1.1213 H   0  0  0  0  0  0  0  0  0  0  0  0
    1.9130   19.9240   -1.5030 H   0  0  0  0  0  0  0  0  0  0  0  0
   -0.6634   18.5269    1.7356 H   0  0  0  0  0  0  0  0  0  0  0  0
   -1.6929   19.1598    0.4066 H   0  0  0  0  0  0  0  0  0  0  0  0
   -1.1851   17.4367    0.4066 H   0  0  0  0  0  0  0  0  0  0  0  0
    1.0093   19.5761    1.8109 H   0  0  0  0  0  0  0  0  0  0  0  0
    2.2761   19.6886    0.5424 H   0  0  0  0  0  0  0  0  0  0  0  0
    0.9002   20.8433    0.5424 H   0  0  0  0  0  0  0  0  0  0  0  0
    3.3058   15.9496   -2.6070 H   0  0  0  0  0  0  0  0  0  0  0  0
    2.5157   14.7675   -3.7047 H   0  0  0  0  0  0  0  0  0  0  0  0
    1.9885   16.4847   -3.7047 H   0  0  0  0  0  0  0  0  0  0  0  0
   -0.4612   14.8524   -3.1529 H   0  0  0  0  0  0  0  0  0  0  0  0
    0.9325   13.6333   -3.2245 H   0  0  0  0  0  0  0  0  0  0  0  0
   -1.1611   13.9233   -1.0523 H   0  0  0  0  0  0  0  0  0  0  0  0
   -0.9091   12.5512   -2.2022 H   0  0  0  0  0  0  0  0  0  0  0  0
    2.2138   11.2548   -0.8057 H   0  0  0  0  0  0  0  0  0  0  0  0
    0.9960   11.1303   -2.1203 H   0  0  0  0  0  0  0  0  0  0  0  0
    2.1829   12.4786   -2.1203 H   0  0  0  0  0  0  0  0  0  0  0  0
  1  2  1  0
  2  3  1  0
  3  4  1  0
  4  5  1  0
  5  6  1  0
  6  7  1  0
  7  8  1  0
  7  9  1  0
  2 10  1  0
 10 11  1  0
 11 12  1  0
 12 13  1  0
 13 14  1  1
 13 15  1  0
 15 16  1  0
 16 17  1  0
 17 18  2  0
 18 19  1  0
 19 20  1  0
 20 21  1  0
 21 22  1  0
 22 23  1  0
 22 24  1  0
 24 25  1  0
 24 26  1  0
 19 27  1  0
 27 28  1  6
 27 29  1  0
 29 30  1  0
 30 31  1  0
 31 32  1  6
  7  5  1  0
 31 10  1  0
 31 13  1  0
 27 15  1  0
 24 18  1  0
  1 33  1  0
  1 34  1  0
  1 35  1  0
  2 36  1  1
  3 37  1  0
  3 38  1  0
  4 39  1  0
  4 40  1  0
  5 41  1  6
  8 42  1  0
  8 43  1  0
  8 44  1  0
  9 45  1  0
  9 46  1  0
  9 47  1  0
 10 48  1  1
 11 49  1  0
 11 50  1  0
 12 51  1  0
 12 52  1  0
 14 53  1  0
 14 54  1  0
 14 55  1  0
 15 56  1  6
 16 57  1  0
 16 58  1  0
 17 59  1  0
 19 60  1  1
 20 61  1  0
 20 62  1  0
 21 63  1  0
 21 64  1  0
 22 65  1  1
 23 66  1  0
 25 67  1  0
 25 68  1  0
 25 69  1  0
 26 70  1  0
 26 71  1  0
 26 72  1  0
 28 73  1  0
 28 74  1  0
 28 75  1  0
 29 76  1  0
 29 77  1  0
 30 78  1  0
 30 79  1  0
 32 80  1  0
 32 81  1  0
 32 82  1  0
M  END
>  <meeko>  (15) 
{"is_sidechain": [false], "intermolecular_energy": 2.731, "internal_energy": -0.839}

$$$$
EPH_relaxed_0001_pdb2pqr_Repair_211_r2_0001_out
     RDKit          3D

 82 86  0  0  0  0  0  0  0  0999 V2000
    1.2280   20.1610   -0.9240 C   0  0  0  0  0  0  0  0  0  0  0  0
    0.9210   19.5440   -2.2910 C   0  0  2  0  0  0  0  0  0  0  0  0
   -0.5940   19.4590   -2.5630 C   0  0  0  0  0  0  0  0  0  0  0  0
   -1.4470   20.1940   -1.5260 C   0  0  0  0  0  0  0  0  0  0  0  0
   -2.2480   19.2420   -0.6910 C   0  0  2  0  0  0  0  0  0  0  0  0
   -2.9180   19.8410    0.4250 O   0  0  0  0  0  0  0  0  0  0  0  0
   -1.8950   18.8820    0.7400 C   0  0  0  0  0  0  0  0  0  0  0  0
   -0.6980   19.4700    1.4190 C   0  0  0  0  0  0  0  0  0  0  0  0
   -2.4230   17.6020    1.3070 C   0  0  0  0  0  0  0  0  0  0  0  0
    1.5460   18.1570   -2.3870 C   0  0  1  0  0  0  0  0  0  0  0  0
    3.0840   18.1780   -2.1770 C   0  0  0  0  0  0  0  0  0  0  0  0
    3.4520   16.8660   -1.4370 C   0  0  0  0  0  0  0  0  0  0  0  0
    2.1820   15.9900   -1.5400 C   0  0  1  0  0  0  0  0  0  0  0  0
    2.2480   15.3540   -2.9640 C   0  0  0  0  0  0  0  0  0  0  0  0
    2.0000   14.9040   -0.4310 C   0  0  2  0  0  0  0  0  0  0  0  0
    3.0930   13.8220   -0.3900 C   0  0  0  0  0  0  0  0  0  0  0  0
    2.8250   12.6130   -1.2240 C   0  0  0  0  0  0  0  0  0  0  0  0
    1.6330   12.2730   -1.7480 C   0  0  0  0  0  0  0  0  0  0  0  0
    0.3730   13.0920   -1.4370 C   0  0  1  0  0  0  0  0  0  0  0  0
   -0.7910   12.1340   -1.0720 C   0  0  0  0  0  0  0  0  0  0  0  0
   -1.0330   11.0740   -2.1420 C   0  0  0  0  0  0  0  0  0  0  0  0
    0.2240   10.2420   -2.3810 C   0  0  2  0  0  0  0  0  0  0  0  0
    0.5000    9.4750   -1.2050 O   0  0  0  0  0  0  0  0  0  0  0  0
    1.4670   11.1020   -2.7470 C   0  0  0  0  0  0  0  0  0  0  0  0
    1.2890   11.6950   -4.1660 C   0  0  0  0  0  0  0  0  0  0  0  0
    2.6960   10.1560   -2.8220 C   0  0  0  0  0  0  0  0  0  0  0  0
    0.5530   14.2650   -0.3800 C   0  0  1  0  0  0  0  0  0  0  0  0
    0.3600   13.7130    1.0650 C   0  0  0  0  0  0  0  0  0  0  0  0
   -0.5820   15.3350   -0.6020 C   0  0  0  0  0  0  0  0  0  0  0  0
   -0.2940   16.4510   -1.6240 C   0  0  0  0  0  0  0  0  0  0  0  0
    1.0730   17.0910   -1.3660 C   0  0  2  0  0  0  0  0  0  0  0  0
    1.0300   17.7590    0.0500 C   0  0  0  0  0  0  0  0  0  0  0  0
    0.8890   19.4797   -0.1297 H   0  0  0  0  0  0  0  0  0  0  0  0
    2.3119   20.3232   -0.8300 H   0  0  0  0  0  0  0  0  0  0  0  0
    0.7037   21.1234   -0.8300 H   0  0  0  0  0  0  0  0  0  0  0  0
    1.3571   20.2025   -3.0567 H   0  0  0  0  0  0  0  0  0  0  0  0
   -0.7946   19.8976   -3.5516 H   0  0  0  0  0  0  0  0  0  0  0  0
   -0.8709   18.3956   -2.5119 H   0  0  0  0  0  0  0  0  0  0  0  0
   -0.7849   20.7754   -0.8675 H   0  0  0  0  0  0  0  0  0  0  0  0
   -2.1469   20.8518   -2.0622 H   0  0  0  0  0  0  0  0  0  0  0  0
   -2.4748   18.6243   -1.5725 H   0  0  0  0  0  0  0  0  0  0  0  0
   -0.8271   19.4066    2.5096 H   0  0  0  0  0  0  0  0  0  0  0  0
    0.2024   18.9117    1.1233 H   0  0  0  0  0  0  0  0  0  0  0  0
   -0.5895   20.5239    1.1233 H   0  0  0  0  0  0  0  0  0  0  0  0
   -2.4025   17.6516    2.4057 H   0  0  0  0  0  0  0  0  0  0  0  0
   -3.4576   17.4492    0.9661 H   0  0  0  0  0  0  0  0  0  0  0  0
   -1.7970   16.7642    0.9661 H   0  0  0  0  0  0  0  0  0  0  0  0
    1.2203   17.8784   -3.4000 H   0  0  0  0  0  0  0  0  0  0  0  0
    3.5984   18.2222   -3.1483 H   0  0  0  0  0  0  0  0  0  0  0  0
    3.3913   19.0594   -1.5951 H   0  0  0  0  0  0  0  0  0  0  0  0
    4.3052   16.3716   -1.9244 H   0  0  0  0  0  0  0  0  0  0  0  0
    3.7511   17.0456   -0.3938 H   0  0  0  0  0  0  0  0  0  0  0  0
    2.3612   14.2636   -2.8737 H   0  0  0  0  0  0  0  0  0  0  0  0
    1.3213   15.5824   -3.5109 H   0  0  0  0  0  0  0  0  0  0  0  0
    3.1080   15.7678   -3.5109 H   0  0  0  0  0  0  0  0  0  0  0  0
    2.1240   15.4888    0.4924 H   0  0  0  0  0  0  0  0  0  0  0  0
    4.0326   14.2746   -0.7396 H   0  0  0  0  0  0  0  0  0  0  0  0
    3.1342   13.4703    0.6514 H   0  0  0  0  0  0  0  0  0  0  0  0
    3.6737   11.9435   -1.4274 H   0  0  0  0  0  0  0  0  0  0  0  0
    0.1298   13.6386   -2.3601 H   0  0  0  0  0  0  0  0  0  0  0  0
   -0.5491   11.6300   -0.1246 H   0  0  0  0  0  0  0  0  0  0  0  0
   -1.7065   12.7379   -0.9869 H   0  0  0  0  0  0  0  0  0  0  0  0
   -1.8466   10.4105   -1.8137 H   0  0  0  0  0  0  0  0  0  0  0  0
   -1.3031   11.5790   -3.0812 H   0  0  0  0  0  0  0  0  0  0  0  0
    0.0282    9.5890   -3.2443 H   0  0  0  0  0  0  0  0  0  0  0  0
   -0.3180    9.0110   -0.9580 H   0  0  0  0  0  0  0  0  0  0  0  0
    0.9736   12.7459   -4.0873 H   0  0  0  0  0  0  0  0  0  0  0  0
    2.2437   11.6384   -4.7094 H   0  0  0  0  0  0  0  0  0  0  0  0
    0.5233   11.1220   -4.7094 H   0  0  0  0  0  0  0  0  0  0  0  0
    3.0259    9.9021   -1.8038 H   0  0  0  0  0  0  0  0  0  0  0  0
    2.4185    9.2362   -3.3577 H   0  0  0  0  0  0  0  0  0  0  0  0
    3.5142   10.6596   -3.3577 H   0  0  0  0  0  0  0  0  0  0  0  0
    0.6319   14.4906    1.7939 H   0  0  0  0  0  0  0  0  0  0  0  0
   -0.6919   13.4258    1.2104 H   0  0  0  0  0  0  0  0  0  0  0  0
    1.0038   12.8330    1.2104 H   0  0  0  0  0  0  0  0  0  0  0  0
   -1.4825   14.8001   -0.9382 H   0  0  0  0  0  0  0  0  0  0  0  0
   -0.6856   15.8496    0.3647 H   0  0  0  0  0  0  0  0  0  0  0  0
   -0.3054   16.0228   -2.6372 H   0  0  0  0  0  0  0  0  0  0  0  0
   -1.0684   17.2259   -1.5247 H   0  0  0  0  0  0  0  0  0  0  0  0
    1.0802   16.9797    0.8247 H   0  0  0  0  0  0  0  0  0  0  0  0
    1.8861   18.4409    0.1599 H   0  0  0  0  0  0  0  0  0  0  0  0
    0.0935   18.3255    0.1599 H   0  0  0  0  0  0  0  0  0  0  0  0
  1  2  1  0
  2  3  1  0
  3  4  1  0
  4  5  1  0
  5  6  1  0
  6  7  1  0
  7  8  1  0
  7  9  1  0
  2 10  1  0
 10 11  1  0
 11 12  1  0
 12 13  1  0
 13 14  1  6
 13 15  1  0
 15 16  1  0
 16 17  1  0
 17 18  2  0
 18 19  1  0
 19 20  1  0
 20 21  1  0
 21 22  1  0
 22 23  1  0
 22 24  1  0
 24 25  1  0
 24 26  1  0
 19 27  1  0
 27 28  1  1
 27 29  1  0
 29 30  1  0
 30 31  1  0
 31 32  1  1
  7  5  1  0
 31 10  1  0
 31 13  1  0
 27 15  1  0
 24 18  1  0
  1 33  1  0
  1 34  1  0
  1 35  1  0
  2 36  1  6
  3 37  1  0
  3 38  1  0
  4 39  1  0
  4 40  1  0
  5 41  1  6
  8 42  1  0
  8 43  1  0
  8 44  1  0
  9 45  1  0
  9 46  1  0
  9 47  1  0
 10 48  1  6
 11 49  1  0
 11 50  1  0
 12 51  1  0
 12 52  1  0
 14 53  1  0
 14 54  1  0
 14 55  1  0
 15 56  1  1
 16 57  1  0
 16 58  1  0
 17 59  1  0
 19 60  1  6
 20 61  1  0
 20 62  1  0
 21 63  1  0
 21 64  1  0
 22 65  1  6
 23 66  1  0
 25 67  1  0
 25 68  1  0
 25 69  1  0
 26 70  1  0
 26 71  1  0
 26 72  1  0
 28 73  1  0
 28 74  1  0
 28 75  1  0
 29 76  1  0
 29 77  1  0
 30 78  1  0
 30 79  1  0
 32 80  1  0
 32 81  1  0
 32 82  1  0
M  END
>  <meeko>  (16) 
{"is_sidechain": [false], "intermolecular_energy": 2.731, "internal_energy": -0.839}

$$$$
EPH_relaxed_0001_pdb2pqr_Repair_211_r2_0001_out
     RDKit          3D

 82 86  0  0  0  0  0  0  0  0999 V2000
    0.9070   14.9340   -2.6780 C   0  0  0  0  0  0  0  0  0  0  0  0
    1.1700   14.2550   -4.0250 C   0  0  2  0  0  0  0  0  0  0  0  0
    0.4610   14.9780   -5.1880 C   0  0  0  0  0  0  0  0  0  0  0  0
    0.9880   14.5830   -6.5700 C   0  0  0  0  0  0  0  0  0  0  0  0
    0.7700   15.6700   -7.5780 C   0  0  2  0  0  0  0  0  0  0  0  0
    0.4320   15.2090   -8.8930 O   0  0  0  0  0  0  0  0  0  0  0  0
    1.6830   15.9050   -8.7670 C   0  0  0  0  0  0  0  0  0  0  0  0
    2.8840   15.0460   -9.0100 C   0  0  0  0  0  0  0  0  0  0  0  0
    1.6880   17.2570   -9.4100 C   0  0  0  0  0  0  0  0  0  0  0  0
    0.7240   12.7980   -3.9680 C   0  0  1  0  0  0  0  0  0  0  0  0
    1.8550   11.8120   -4.3640 C   0  0  0  0  0  0  0  0  0  0  0  0
    1.6700   10.5440   -3.4910 C   0  0  0  0  0  0  0  0  0  0  0  0
    0.2620   10.7020   -2.8690 C   0  0  1  0  0  0  0  0  0  0  0  0
   -0.7240   10.2320   -3.9830 C   0  0  0  0  0  0  0  0  0  0  0  0
    0.0140    9.9480   -1.5220 C   0  0  2  0  0  0  0  0  0  0  0  0
    0.1220    8.4150   -1.6030 C   0  0  0  0  0  0  0  0  0  0  0  0
   -1.1510    7.7010   -1.9130 C   0  0  0  0  0  0  0  0  0  0  0  0
   -2.3850    8.2340   -1.8390 C   0  0  0  0  0  0  0  0  0  0  0  0
   -2.5970    9.6600   -1.3140 C   0  0  1  0  0  0  0  0  0  0  0  0
   -3.7660    9.6680   -0.2940 C   0  0  0  0  0  0  0  0  0  0  0  0
   -5.0440    9.0600   -0.8640 C   0  0  0  0  0  0  0  0  0  0  0  0
   -4.8070    7.6230   -1.3220 C   0  0  2  0  0  0  0  0  0  0  0  0
   -4.5340    6.8130   -0.1750 O   0  0  0  0  0  0  0  0  0  0  0  0
   -3.6450    7.4900   -2.3450 C   0  0  0  0  0  0  0  0  0  0  0  0
   -4.0680    8.1140   -3.6980 C   0  0  0  0  0  0  0  0  0  0  0  0
   -3.4190    5.9780   -2.6170 C   0  0  0  0  0  0  0  0  0  0  0  0
   -1.3000   10.3950   -0.7620 C   0  0  1  0  0  0  0  0  0  0  0  0
   -1.0870   10.0400    0.7420 C   0  0  0  0  0  0  0  0  0  0  0  0
   -1.5270   11.9520   -0.8230 C   0  0  0  0  0  0  0  0  0  0  0  0
   -1.1500   12.6570   -2.1400 C   0  0  0  0  0  0  0  0  0  0  0  0
    0.2540   12.2510   -2.5970 C   0  0  2  0  0  0  0  0  0  0  0  0
    1.2710   12.7310   -1.5060 C   0  0  0  0  0  0  0  0  0  0  0  0
    1.1735   14.2459   -1.8623 H   0  0  0  0  0  0  0  0  0  0  0  0
    1.5168   15.8464   -2.6020 H   0  0  0  0  0  0  0  0  0  0  0  0
   -0.1583   15.1976   -2.6020 H   0  0  0  0  0  0  0  0  0  0  0  0
    2.2521   14.3056   -4.2158 H   0  0  0  0  0  0  0  0  0  0  0  0
   -0.6117   14.7383   -5.1437 H   0  0  0  0  0  0  0  0  0  0  0  0
    0.6558   16.0536   -5.0647 H   0  0  0  0  0  0  0  0  0  0  0  0
    2.0660   14.3774   -6.4950 H   0  0  0  0  0  0  0  0  0  0  0  0
    0.4387   13.6905   -6.9041 H   0  0  0  0  0  0  0  0  0  0  0  0
    0.3831   16.3449   -6.8003 H   0  0  0  0  0  0  0  0  0  0  0  0
    3.3153   14.7376   -8.0462 H   0  0  0  0  0  0  0  0  0  0  0  0
    2.5873   14.1540   -9.5812 H   0  0  0  0  0  0  0  0  0  0  0  0
    3.6323   15.6150   -9.5812 H   0  0  0  0  0  0  0  0  0  0  0  0
    1.6909   18.0335   -8.6309 H   0  0  0  0  0  0  0  0  0  0  0  0
    2.5865   17.3621  -10.0358 H   0  0  0  0  0  0  0  0  0  0  0  0
    0.7903   17.3687  -10.0358 H   0  0  0  0  0  0  0  0  0  0  0  0
   -0.1239   12.8369   -4.6677 H   0  0  0  0  0  0  0  0  0  0  0  0
    1.7753   11.5527   -5.4300 H   0  0  0  0  0  0  0  0  0  0  0  0
    2.8456   12.2619   -4.2016 H   0  0  0  0  0  0  0  0  0  0  0  0
    1.7220    9.6357   -4.1092 H   0  0  0  0  0  0  0  0  0  0  0  0
    2.4553   10.4446   -2.7272 H   0  0  0  0  0  0  0  0  0  0  0  0
   -1.6242    9.8029   -3.5187 H   0  0  0  0  0  0  0  0  0  0  0  0
   -1.0080   11.0916   -4.6079 H   0  0  0  0  0  0  0  0  0  0  0  0
   -0.2350    9.4701   -4.6079 H   0  0  0  0  0  0  0  0  0  0  0  0
    0.8657   10.2756   -0.9077 H   0  0  0  0  0  0  0  0  0  0  0  0
    0.8507    8.1668   -2.3887 H   0  0  0  0  0  0  0  0  0  0  0  0
    0.4229    8.0781   -0.6000 H   0  0  0  0  0  0  0  0  0  0  0  0
   -1.0747    6.6501   -2.2288 H   0  0  0  0  0  0  0  0  0  0  0  0
   -2.8621   10.2706   -2.1897 H   0  0  0  0  0  0  0  0  0  0  0  0
   -3.4650    9.0896    0.5919 H   0  0  0  0  0  0  0  0  0  0  0  0
   -3.9798   10.7166   -0.0394 H   0  0  0  0  0  0  0  0  0  0  0  0
   -5.8233    9.0666   -0.0877 H   0  0  0  0  0  0  0  0  0  0  0  0
   -5.3607    9.6575   -1.7316 H   0  0  0  0  0  0  0  0  0  0  0  0
   -5.7183    7.2864   -1.8379 H   0  0  0  0  0  0  0  0  0  0  0  0
   -3.7640    7.1950    0.2780 H   0  0  0  0  0  0  0  0  0  0  0  0
   -4.6765    9.0116   -3.5135 H   0  0  0  0  0  0  0  0  0  0  0  0
   -3.1705    8.3907   -4.2707 H   0  0  0  0  0  0  0  0  0  0  0  0
   -4.6574    7.3828   -4.2707 H   0  0  0  0  0  0  0  0  0  0  0  0
   -3.3388    5.4413   -1.6602 H   0  0  0  0  0  0  0  0  0  0  0  0
   -4.2673    5.5780   -3.1918 H   0  0  0  0  0  0  0  0  0  0  0  0
   -2.4908    5.8436   -3.1918 H   0  0  0  0  0  0  0  0  0  0  0  0
   -1.5514   10.8140    1.3708 H   0  0  0  0  0  0  0  0  0  0  0  0
   -1.5499    9.0658    0.9579 H   0  0  0  0  0  0  0  0  0  0  0  0
   -0.0096    9.9899    0.9579 H   0  0  0  0  0  0  0  0  0  0  0  0
   -2.5949   12.1403   -0.6384 H   0  0  0  0  0  0  0  0  0  0  0  0
   -0.8479   12.3721   -0.0665 H   0  0  0  0  0  0  0  0  0  0  0  0
   -1.8762   12.3784   -2.9179 H   0  0  0  0  0  0  0  0  0  0  0  0
   -1.1634   13.7440   -1.9721 H   0  0  0  0  0  0  0  0  0  0  0  0
    0.8559   12.5351   -0.5063 H   0  0  0  0  0  0  0  0  0  0  0  0
    2.2189   12.1852   -1.6229 H   0  0  0  0  0  0  0  0  0  0  0  0
    1.4522   13.8097   -1.6229 H   0  0  0  0  0  0  0  0  0  0  0  0
  1  2  1  0
  2  3  1  0
  3  4  1  0
  4  5  1  0
  5  6  1  0
  6  7  1  0
  7  8  1  0
  7  9  1  0
  2 10  1  0
 10 11  1  0
 11 12  1  0
 12 13  1  0
 13 14  1  6
 13 15  1  0
 15 16  1  0
 16 17  1  0
 17 18  2  0
 18 19  1  0
 19 20  1  0
 20 21  1  0
 21 22  1  0
 22 23  1  0
 22 24  1  0
 24 25  1  0
 24 26  1  0
 19 27  1  0
 27 28  1  1
 27 29  1  0
 29 30  1  0
 30 31  1  0
 31 32  1  1
  7  5  1  0
 31 10  1  0
 31 13  1  0
 27 15  1  0
 24 18  1  0
  1 33  1  0
  1 34  1  0
  1 35  1  0
  2 36  1  6
  3 37  1  0
  3 38  1  0
  4 39  1  0
  4 40  1  0
  5 41  1  1
  8 42  1  0
  8 43  1  0
  8 44  1  0
  9 45  1  0
  9 46  1  0
  9 47  1  0
 10 48  1  6
 11 49  1  0
 11 50  1  0
 12 51  1  0
 12 52  1  0
 14 53  1  0
 14 54  1  0
 14 55  1  0
 15 56  1  1
 16 57  1  0
 16 58  1  0
 17 59  1  0
 19 60  1  6
 20 61  1  0
 20 62  1  0
 21 63  1  0
 21 64  1  0
 22 65  1  6
 23 66  1  0
 25 67  1  0
 25 68  1  0
 25 69  1  0
 26 70  1  0
 26 71  1  0
 26 72  1  0
 28 73  1  0
 28 74  1  0
 28 75  1  0
 29 76  1  0
 29 77  1  0
 30 78  1  0
 30 79  1  0
 32 80  1  0
 32 81  1  0
 32 82  1  0
M  END
>  <meeko>  (17) 
{"is_sidechain": [false], "intermolecular_energy": 2.731, "internal_energy": -0.839}

$$$$
EPH_relaxed_0001_pdb2pqr_Repair_211_r2_0001_out
     RDKit          3D

 82 86  0  0  0  0  0  0  0  0999 V2000
   -1.7490   14.8080    0.4490 C   0  0  0  0  0  0  0  0  0  0  0  0
   -0.4030   15.5120    0.2590 C   0  0  2  0  0  0  0  0  0  0  0  0
   -0.4410   16.5400   -0.8890 C   0  0  0  0  0  0  0  0  0  0  0  0
   -0.0520   17.9570   -0.4610 C   0  0  0  0  0  0  0  0  0  0  0  0
    1.3750   18.0260   -0.0070 C   0  0  2  0  0  0  0  0  0  0  0  0
    2.0450   19.2540   -0.3220 O   0  0  0  0  0  0  0  0  0  0  0  0
    2.5550   18.0730   -0.9610 C   0  0  0  0  0  0  0  0  0  0  0  0
    2.3600   18.0510   -2.4440 C   0  0  0  0  0  0  0  0  0  0  0  0
    3.8990   17.6480   -0.4570 C   0  0  0  0  0  0  0  0  0  0  0  0
    0.6900   14.4820   -0.0010 C   0  0  1  0  0  0  0  0  0  0  0  0
    0.8200   13.4460    1.1480 C   0  0  0  0  0  0  0  0  0  0  0  0
    1.1990   12.0940    0.4910 C   0  0  0  0  0  0  0  0  0  0  0  0
    1.5980   12.4630   -0.9580 C   0  0  1  0  0  0  0  0  0  0  0  0
    3.0710   12.9680   -0.8520 C   0  0  0  0  0  0  0  0  0  0  0  0
    1.4520   11.3290   -2.0240 C   0  0  2  0  0  0  0  0  0  0  0  0
    2.3360   10.0930   -1.7880 C   0  0  0  0  0  0  0  0  0  0  0  0
    3.6830   10.1390   -2.4320 C   0  0  0  0  0  0  0  0  0  0  0  0
    4.0580   10.9970   -3.3990 C   0  0  0  0  0  0  0  0  0  0  0  0
    3.0530   11.9810   -4.0120 C   0  0  1  0  0  0  0  0  0  0  0  0
    3.1810   11.9570   -5.5580 C   0  0  0  0  0  0  0  0  0  0  0  0
    4.6090   12.2100   -6.0310 C   0  0  0  0  0  0  0  0  0  0  0  0
    5.5690   11.1770   -5.4470 C   0  0  2  0  0  0  0  0  0  0  0  0
    5.2560    9.8940   -5.9980 O   0  0  0  0  0  0  0  0  0  0  0  0
    5.5210   11.1040   -3.8950 C   0  0  0  0  0  0  0  0  0  0  0  0
    6.1450   12.3880   -3.2940 C   0  0  0  0  0  0  0  0  0  0  0  0
    6.4290    9.9280   -3.4440 C   0  0  0  0  0  0  0  0  0  0  0  0
    1.5490   11.8320   -3.5220 C   0  0  1  0  0  0  0  0  0  0  0  0
    0.8070   10.7740   -4.3950 C   0  0  0  0  0  0  0  0  0  0  0  0
    0.7970   13.1970   -3.7440 C   0  0  0  0  0  0  0  0  0  0  0  0
    0.8800   14.2300   -2.6040 C   0  0  0  0  0  0  0  0  0  0  0  0
    0.5400   13.5860   -1.2560 C   0  0  2  0  0  0  0  0  0  0  0  0
   -0.9440   13.0880   -1.3250 C   0  0  0  0  0  0  0  0  0  0  0  0
   -1.9573   14.6990    1.5236 H   0  0  0  0  0  0  0  0  0  0  0  0
   -2.5447   15.4054   -0.0200 H   0  0  0  0  0  0  0  0  0  0  0  0
   -1.7122   13.8137   -0.0200 H   0  0  0  0  0  0  0  0  0  0  0  0
   -0.1840   16.0615    1.1864 H   0  0  0  0  0  0  0  0  0  0  0  0
    0.2566   16.2105   -1.6731 H   0  0  0  0  0  0  0  0  0  0  0  0
   -1.4811   16.5862   -1.2440 H   0  0  0  0  0  0  0  0  0  0  0  0
   -0.1880   18.6374   -1.3146 H   0  0  0  0  0  0  0  0  0  0  0  0
   -0.6950   18.2497    0.3821 H   0  0  0  0  0  0  0  0  0  0  0  0
    1.1538   17.3901    0.8629 H   0  0  0  0  0  0  0  0  0  0  0  0
    1.2906   17.9303   -2.6714 H   0  0  0  0  0  0  0  0  0  0  0  0
    2.7223   18.9957   -2.8755 H   0  0  0  0  0  0  0  0  0  0  0  0
    2.9237   17.2108   -2.8755 H   0  0  0  0  0  0  0  0  0  0  0  0
    3.8953   17.6492    0.6430 H   0  0  0  0  0  0  0  0  0  0  0  0
    4.1239   16.6349   -0.8218 H   0  0  0  0  0  0  0  0  0  0  0  0
    4.6654   18.3476   -0.8218 H   0  0  0  0  0  0  0  0  0  0  0  0
    1.5521   15.1548   -0.1198 H   0  0  0  0  0  0  0  0  0  0  0  0
    1.6052   13.7581    1.8523 H   0  0  0  0  0  0  0  0  0  0  0  0
   -0.1210   13.3611    1.7114 H   0  0  0  0  0  0  0  0  0  0  0  0
    2.0437   11.6284    1.0199 H   0  0  0  0  0  0  0  0  0  0  0  0
    0.3735   11.3678    0.5245 H   0  0  0  0  0  0  0  0  0  0  0  0
    3.3504   13.0638    0.2076 H   0  0  0  0  0  0  0  0  0  0  0  0
    3.7416   12.2485   -1.3444 H   0  0  0  0  0  0  0  0  0  0  0  0
    3.1591   13.9477   -1.3444 H   0  0  0  0  0  0  0  0  0  0  0  0
    0.4176   10.9895   -1.8669 H   0  0  0  0  0  0  0  0  0  0  0  0
    2.4815    9.9814   -0.7034 H   0  0  0  0  0  0  0  0  0  0  0  0
    1.8063    9.2474   -2.2510 H   0  0  0  0  0  0  0  0  0  0  0  0
    4.4314    9.4104   -2.0870 H   0  0  0  0  0  0  0  0  0  0  0  0
    3.3298   12.9747   -3.6300 H   0  0  0  0  0  0  0  0  0  0  0  0
    2.8581   10.9709   -5.9232 H   0  0  0  0  0  0  0  0  0  0  0  0
    2.5491   12.7638   -5.9578 H   0  0  0  0  0  0  0  0  0  0  0  0
    4.6403   12.1501   -7.1289 H   0  0  0  0  0  0  0  0  0  0  0  0
    4.9194   13.2090   -5.6909 H   0  0  0  0  0  0  0  0  0  0  0  0
    6.5898   11.4870   -5.7151 H   0  0  0  0  0  0  0  0  0  0  0  0
    4.3790    9.9580   -6.4120 H   0  0  0  0  0  0  0  0  0  0  0  0
    6.1168   12.3300   -2.1959 H   0  0  0  0  0  0  0  0  0  0  0  0
    7.1885   12.4803   -3.6297 H   0  0  0  0  0  0  0  0  0  0  0  0
    5.5729   13.2655   -3.6297 H   0  0  0  0  0  0  0  0  0  0  0  0
    6.4593    9.8887   -2.3451 H   0  0  0  0  0  0  0  0  0  0  0  0
    6.0246    8.9822   -3.8337 H   0  0  0  0  0  0  0  0  0  0  0  0
    7.4464   10.0800   -3.8337 H   0  0  0  0  0  0  0  0  0  0  0  0
    0.2992   10.0499   -3.7409 H   0  0  0  0  0  0  0  0  0  0  0  0
    0.0639   11.2786   -5.0299 H   0  0  0  0  0  0  0  0  0  0  0  0
    1.5345   10.2472   -5.0299 H   0  0  0  0  0  0  0  0  0  0  0  0
    1.2157   13.6643   -4.6475 H   0  0  0  0  0  0  0  0  0  0  0  0
   -0.2680   12.9306   -3.8136 H   0  0  0  0  0  0  0  0  0  0  0  0
    1.9008   14.6375   -2.5610 H   0  0  0  0  0  0  0  0  0  0  0  0
    0.1539   15.0319   -2.8032 H   0  0  0  0  0  0  0  0  0  0  0  0
   -1.3346   12.9569   -0.3051 H   0  0  0  0  0  0  0  0  0  0  0  0
   -1.5554   13.8302   -1.8592 H   0  0  0  0  0  0  0  0  0  0  0  0
   -0.9839   12.1272   -1.8592 H   0  0  0  0  0  0  0  0  0  0  0  0
  1  2  1  0
  2  3  1  0
  3  4  1  0
  4  5  1  0
  5  6  1  0
  6  7  1  0
  7  8  1  0
  7  9  1  0
  2 10  1  0
 10 11  1  0
 11 12  1  0
 12 13  1  0
 13 14  1  1
 13 15  1  0
 15 16  1  0
 16 17  1  0
 17 18  2  0
 18 19  1  0
 19 20  1  0
 20 21  1  0
 21 22  1  0
 22 23  1  0
 22 24  1  0
 24 25  1  0
 24 26  1  0
 19 27  1  0
 27 28  1  6
 27 29  1  0
 29 30  1  0
 30 31  1  0
 31 32  1  6
  7  5  1  0
 31 10  1  0
 31 13  1  0
 27 15  1  0
 24 18  1  0
  1 33  1  0
  1 34  1  0
  1 35  1  0
  2 36  1  1
  3 37  1  0
  3 38  1  0
  4 39  1  0
  4 40  1  0
  5 41  1  1
  8 42  1  0
  8 43  1  0
  8 44  1  0
  9 45  1  0
  9 46  1  0
  9 47  1  0
 10 48  1  6
 11 49  1  0
 11 50  1  0
 12 51  1  0
 12 52  1  0
 14 53  1  0
 14 54  1  0
 14 55  1  0
 15 56  1  6
 16 57  1  0
 16 58  1  0
 17 59  1  0
 19 60  1  1
 20 61  1  0
 20 62  1  0
 21 63  1  0
 21 64  1  0
 22 65  1  1
 23 66  1  0
 25 67  1  0
 25 68  1  0
 25 69  1  0
 26 70  1  0
 26 71  1  0
 26 72  1  0
 28 73  1  0
 28 74  1  0
 28 75  1  0
 29 76  1  0
 29 77  1  0
 30 78  1  0
 30 79  1  0
 32 80  1  0
 32 81  1  0
 32 82  1  0
M  END
>  <meeko>  (18) 
{"is_sidechain": [false], "intermolecular_energy": 2.731, "internal_energy": -0.839}

$$$$
EPH_relaxed_0001_pdb2pqr_Repair_211_r2_0001_out
     RDKit          3D

 82 86  0  0  0  0  0  0  0  0999 V2000
   -0.1800    9.3550   -4.2650 C   0  0  0  0  0  0  0  0  0  0  0  0
    0.0510    9.5580   -2.7650 C   0  0  2  0  0  0  0  0  0  0  0  0
   -0.7020    8.5140   -1.9160 C   0  0  0  0  0  0  0  0  0  0  0  0
   -2.2230    8.5640   -2.0850 C   0  0  0  0  0  0  0  0  0  0  0  0
   -2.7590    7.2910   -2.6660 C   0  0  2  0  0  0  0  0  0  0  0  0
   -3.7750    7.4680   -3.6610 O   0  0  0  0  0  0  0  0  0  0  0  0
   -4.1800    6.8070   -2.4520 C   0  0  0  0  0  0  0  0  0  0  0  0
   -5.1550    7.5880   -1.6280 C   0  0  0  0  0  0  0  0  0  0  0  0
   -4.4750    5.3500   -2.6320 C   0  0  0  0  0  0  0  0  0  0  0  0
   -0.3740   10.9640   -2.3590 C   0  0  1  0  0  0  0  0  0  0  0  0
   -1.5760   10.9650   -1.3770 C   0  0  0  0  0  0  0  0  0  0  0  0
   -1.3610   12.1570   -0.4100 C   0  0  0  0  0  0  0  0  0  0  0  0
   -0.2360   12.9930   -1.0630 C   0  0  1  0  0  0  0  0  0  0  0  0
   -0.9530   13.8460   -2.1560 C   0  0  0  0  0  0  0  0  0  0  0  0
    0.6120   13.8850   -0.0990 C   0  0  2  0  0  0  0  0  0  0  0  0
   -0.1750   14.9850    0.6330 C   0  0  0  0  0  0  0  0  0  0  0  0
   -0.2400   16.3000   -0.0720 C   0  0  0  0  0  0  0  0  0  0  0  0
    0.5420   16.6740   -1.1010 C   0  0  0  0  0  0  0  0  0  0  0  0
    1.6810   15.7720   -1.5940 C   0  0  1  0  0  0  0  0  0  0  0  0
    2.9660   16.6190   -1.7880 C   0  0  0  0  0  0  0  0  0  0  0  0
    2.7410   17.8240   -2.6960 C   0  0  0  0  0  0  0  0  0  0  0  0
    1.6420   18.7270   -2.1420 C   0  0  2  0  0  0  0  0  0  0  0  0
    2.0990   19.3110   -0.9180 O   0  0  0  0  0  0  0  0  0  0  0  0
    0.3010   17.9810   -1.8970 C   0  0  0  0  0  0  0  0  0  0  0  0
   -0.3440   17.6110   -3.2550 C   0  0  0  0  0  0  0  0  0  0  0  0
   -0.6760   18.9700   -1.2070 C   0  0  0  0  0  0  0  0  0  0  0  0
    1.9400   14.4550   -0.7430 C   0  0  1  0  0  0  0  0  0  0  0  0
    2.9090   14.7670    0.4380 C   0  0  0  0  0  0  0  0  0  0  0  0
    2.6700   13.3940   -1.6480 C   0  0  0  0  0  0  0  0  0  0  0  0
    1.7750   12.4620   -2.4870 C   0  0  0  0  0  0  0  0  0  0  0  0
    0.6720   11.8390   -1.6250 C   0  0  2  0  0  0  0  0  0  0  0  0
    1.3630   10.9570   -0.5300 C   0  0  0  0  0  0  0  0  0  0  0  0
   -0.9985    8.6357   -4.4159 H   0  0  0  0  0  0  0  0  0  0  0  0
   -0.4466   10.3164   -4.7283 H   0  0  0  0  0  0  0  0  0  0  0  0
    0.7391    8.9671   -4.7283 H   0  0  0  0  0  0  0  0  0  0  0  0
    1.1263    9.4256   -2.5745 H   0  0  0  0  0  0  0  0  0  0  0  0
   -0.3530    7.5124   -2.2075 H   0  0  0  0  0  0  0  0  0  0  0  0
   -0.4882    8.7427   -0.8615 H   0  0  0  0  0  0  0  0  0  0  0  0
   -2.6857    8.7290   -1.1008 H   0  0  0  0  0  0  0  0  0  0  0  0
   -2.4640    9.3845   -2.7769 H   0  0  0  0  0  0  0  0  0  0  0  0
   -1.7845    6.7964   -2.5408 H   0  0  0  0  0  0  0  0  0  0  0  0
   -4.9482    7.4224   -0.5604 H   0  0  0  0  0  0  0  0  0  0  0  0
   -5.0552    8.6588   -1.8590 H   0  0  0  0  0  0  0  0  0  0  0  0
   -6.1782    7.2569   -1.8590 H   0  0  0  0  0  0  0  0  0  0  0  0
   -4.5720    4.8710   -1.6465 H   0  0  0  0  0  0  0  0  0  0  0  0
   -5.4151    5.2326   -3.1909 H   0  0  0  0  0  0  0  0  0  0  0  0
   -3.6546    4.8761   -3.1909 H   0  0  0  0  0  0  0  0  0  0  0  0
   -0.5867   11.3860   -3.3523 H   0  0  0  0  0  0  0  0  0  0  0  0
   -2.5179   11.0915   -1.9310 H   0  0  0  0  0  0  0  0  0  0  0  0
   -1.6372   10.0149   -0.8260 H   0  0  0  0  0  0  0  0  0  0  0  0
   -2.2817   12.7515   -0.3162 H   0  0  0  0  0  0  0  0  0  0  0  0
   -1.0986   11.8271    0.6060 H   0  0  0  0  0  0  0  0  0  0  0  0
   -1.5887   14.6023   -1.6724 H   0  0  0  0  0  0  0  0  0  0  0  0
   -0.2003   14.3463   -2.7829 H   0  0  0  0  0  0  0  0  0  0  0  0
   -1.5753   13.1905   -2.7829 H   0  0  0  0  0  0  0  0  0  0  0  0
    0.9168   13.1686    0.6781 H   0  0  0  0  0  0  0  0  0  0  0  0
   -1.2046   14.6264    0.7789 H   0  0  0  0  0  0  0  0  0  0  0  0
    0.3646   15.1704    1.5735 H   0  0  0  0  0  0  0  0  0  0  0  0
   -0.9902   17.0236    0.2796 H   0  0  0  0  0  0  0  0  0  0  0  0
    1.3514   15.3680   -2.5626 H   0  0  0  0  0  0  0  0  0  0  0  0
    3.3042   16.9770   -0.8044 H   0  0  0  0  0  0  0  0  0  0  0  0
    3.7201   15.9767   -2.2664 H   0  0  0  0  0  0  0  0  0  0  0  0
    3.6760   18.3987   -2.7698 H   0  0  0  0  0  0  0  0  0  0  0  0
    2.4320   17.4631   -3.6881 H   0  0  0  0  0  0  0  0  0  0  0  0
    1.4368   19.4990   -2.8983 H   0  0  0  0  0  0  0  0  0  0  0  0
    1.4010   19.1840   -0.2530 H   0  0  0  0  0  0  0  0  0  0  0  0
   -1.2858   17.0707   -3.0785 H   0  0  0  0  0  0  0  0  0  0  0  0
   -0.5491   18.5288   -3.8257 H   0  0  0  0  0  0  0  0  0  0  0  0
    0.3447   16.9706   -3.8257 H   0  0  0  0  0  0  0  0  0  0  0  0
   -0.5828   18.8756   -0.1150 H   0  0  0  0  0  0  0  0  0  0  0  0
   -0.4299   19.9989   -1.5085 H   0  0  0  0  0  0  0  0  0  0  0  0
   -1.7078   18.7365   -1.5085 H   0  0  0  0  0  0  0  0  0  0  0  0
    2.3891   14.5996    1.3928 H   0  0  0  0  0  0  0  0  0  0  0  0
    3.7860   14.1058    0.3772 H   0  0  0  0  0  0  0  0  0  0  0  0
    3.2355   15.8157    0.3772 H   0  0  0  0  0  0  0  0  0  0  0  0
    3.3228   13.9425   -2.3430 H   0  0  0  0  0  0  0  0  0  0  0  0
    3.1968   12.7311   -0.9458 H   0  0  0  0  0  0  0  0  0  0  0  0
    1.3126   13.0422   -3.2991 H   0  0  0  0  0  0  0  0  0  0  0  0
    2.3979   11.6537   -2.8978 H   0  0  0  0  0  0  0  0  0  0  0  0
    1.0777   11.3212    0.4680 H   0  0  0  0  0  0  0  0  0  0  0  0
    1.0412    9.9114   -0.6446 H   0  0  0  0  0  0  0  0  0  0  0  0
    2.4552   11.0192   -0.6446 H   0  0  0  0  0  0  0  0  0  0  0  0
  1  2  1  0
  2  3  1  0
  3  4  1  0
  4  5  1  0
  5  6  1  0
  6  7  1  0
  7  8  1  0
  7  9  1  0
  2 10  1  0
 10 11  1  0
 11 12  1  0
 12 13  1  0
 13 14  1  6
 13 15  1  0
 15 16  1  0
 16 17  1  0
 17 18  2  0
 18 19  1  0
 19 20  1  0
 20 21  1  0
 21 22  1  0
 22 23  1  0
 22 24  1  0
 24 25  1  0
 24 26  1  0
 19 27  1  0
 27 28  1  1
 27 29  1  0
 29 30  1  0
 30 31  1  0
 31 32  1  1
  7  5  1  0
 31 10  1  0
 31 13  1  0
 27 15  1  0
 24 18  1  0
  1 33  1  0
  1 34  1  0
  1 35  1  0
  2 36  1  6
  3 37  1  0
  3 38  1  0
  4 39  1  0
  4 40  1  0
  5 41  1  6
  8 42  1  0
  8 43  1  0
  8 44  1  0
  9 45  1  0
  9 46  1  0
  9 47  1  0
 10 48  1  6
 11 49  1  0
 11 50  1  0
 12 51  1  0
 12 52  1  0
 14 53  1  0
 14 54  1  0
 14 55  1  0
 15 56  1  1
 16 57  1  0
 16 58  1  0
 17 59  1  0
 19 60  1  6
 20 61  1  0
 20 62  1  0
 21 63  1  0
 21 64  1  0
 22 65  1  6
 23 66  1  0
 25 67  1  0
 25 68  1  0
 25 69  1  0
 26 70  1  0
 26 71  1  0
 26 72  1  0
 28 73  1  0
 28 74  1  0
 28 75  1  0
 29 76  1  0
 29 77  1  0
 30 78  1  0
 30 79  1  0
 32 80  1  0
 32 81  1  0
 32 82  1  0
M  END
>  <meeko>  (19) 
{"is_sidechain": [false], "intermolecular_energy": 2.731, "internal_energy": -0.839}

$$$$
