EPH_relaxed_0001_pdb2pqr_Repair_223_r2_0001_out
     RDKit          3D

 82 86  0  0  0  0  0  0  0  0999 V2000
   -1.7200    8.5890   -1.8730 C   0  0  0  0  0  0  0  0  0  0  0  0
   -2.1000    9.1070   -0.4830 C   0  0  2  0  0  0  0  0  0  0  0  0
   -3.5940    9.4730   -0.3880 C   0  0  0  0  0  0  0  0  0  0  0  0
   -4.5150    8.2610   -0.2210 C   0  0  0  0  0  0  0  0  0  0  0  0
   -5.2150    7.9150   -1.5000 C   0  0  2  0  0  0  0  0  0  0  0  0
   -6.3500    8.7360   -1.8020 O   0  0  0  0  0  0  0  0  0  0  0  0
   -6.6200    7.3460   -1.5580 C   0  0  0  0  0  0  0  0  0  0  0  0
   -7.4090    7.0890   -0.3130 C   0  0  0  0  0  0  0  0  0  0  0  0
   -7.0350    6.5890   -2.7810 C   0  0  0  0  0  0  0  0  0  0  0  0
   -1.2440   10.3170   -0.1280 C   0  0  1  0  0  0  0  0  0  0  0  0
   -0.2230   10.0160    1.0010 C   0  0  0  0  0  0  0  0  0  0  0  0
    1.0500   10.8430    0.6860 C   0  0  0  0  0  0  0  0  0  0  0  0
    0.6080   11.8360   -0.4140 C   0  0  1  0  0  0  0  0  0  0  0  0
   -0.1060   12.9930    0.3530 C   0  0  0  0  0  0  0  0  0  0  0  0
    1.7360   12.3760   -1.3530 C   0  0  2  0  0  0  0  0  0  0  0  0
    2.8330   13.1950   -0.6500 C   0  0  0  0  0  0  0  0  0  0  0  0
    2.5810   14.6640   -0.5730 C   0  0  0  0  0  0  0  0  0  0  0  0
    1.6640   15.3390   -1.2920 C   0  0  0  0  0  0  0  0  0  0  0  0
    0.8290   14.6320   -2.3670 C   0  0  1  0  0  0  0  0  0  0  0  0
    0.8140   15.4900   -3.6590 C   0  0  0  0  0  0  0  0  0  0  0  0
    0.3480   16.9210   -3.4050 C   0  0  0  0  0  0  0  0  0  0  0  0
    1.2380   17.6100   -2.3740 C   0  0  2  0  0  0  0  0  0  0  0  0
    2.5450   17.7770   -2.9320 O   0  0  0  0  0  0  0  0  0  0  0  0
    1.3380   16.8310   -1.0330 C   0  0  0  0  0  0  0  0  0  0  0  0
   -0.0150   16.9090   -0.2830 C   0  0  0  0  0  0  0  0  0  0  0  0
    2.3740   17.5580   -0.1340 C   0  0  0  0  0  0  0  0  0  0  0  0
    1.2040   13.1130   -2.6480 C   0  0  1  0  0  0  0  0  0  0  0  0
    2.3470   13.0340   -3.7060 C   0  0  0  0  0  0  0  0  0  0  0  0
   -0.0400   12.3860   -3.2820 C   0  0  0  0  0  0  0  0  0  0  0  0
   -1.0580   11.7690   -2.3040 C   0  0  0  0  0  0  0  0  0  0  0  0
   -0.3530   10.9120   -1.2480 C   0  0  2  0  0  0  0  0  0  0  0  0
    0.3550    9.7270   -1.9880 C   0  0  0  0  0  0  0  0  0  0  0  0
   -1.0722    7.7059   -1.7707 H   0  0  0  0  0  0  0  0  0  0  0  0
   -2.6316    8.3132   -2.4234 H   0  0  0  0  0  0  0  0  0  0  0  0
   -1.1832    9.3757   -2.4234 H   0  0  0  0  0  0  0  0  0  0  0  0
   -1.9130    8.2951    0.2352 H   0  0  0  0  0  0  0  0  0  0  0  0
   -3.7344   10.1378    0.4771 H   0  0  0  0  0  0  0  0  0  0  0  0
   -3.8677    9.9565   -1.3374 H   0  0  0  0  0  0  0  0  0  0  0  0
   -3.9134    7.3980    0.1006 H   0  0  0  0  0  0  0  0  0  0  0  0
   -5.2784    8.5120    0.5301 H   0  0  0  0  0  0  0  0  0  0  0  0
   -4.2686    7.5907   -1.9573 H   0  0  0  0  0  0  0  0  0  0  0  0
   -6.7818    7.2933    0.5673 H   0  0  0  0  0  0  0  0  0  0  0  0
   -8.2908    7.7464   -0.2955 H   0  0  0  0  0  0  0  0  0  0  0  0
   -7.7345    6.0384   -0.2955 H   0  0  0  0  0  0  0  0  0  0  0  0
   -7.5439    5.6606   -2.4825 H   0  0  0  0  0  0  0  0  0  0  0  0
   -7.7206    7.2068   -3.3796 H   0  0  0  0  0  0  0  0  0  0  0  0
   -6.1454    6.3433   -3.3796 H   0  0  0  0  0  0  0  0  0  0  0  0
   -2.0368   11.0304    0.1412 H   0  0  0  0  0  0  0  0  0  0  0  0
   -0.6370   10.3145    1.9754 H   0  0  0  0  0  0  0  0  0  0  0  0
    0.0065    8.9413    1.0494 H   0  0  0  0  0  0  0  0  0  0  0  0
    1.3938   11.3826    1.5808 H   0  0  0  0  0  0  0  0  0  0  0  0
    1.8895   10.2097    0.3633 H   0  0  0  0  0  0  0  0  0  0  0  0
   -0.0061   12.8311    1.4364 H   0  0  0  0  0  0  0  0  0  0  0  0
    0.3568   13.9533    0.0815 H   0  0  0  0  0  0  0  0  0  0  0  0
   -1.1718   13.0099    0.0815 H   0  0  0  0  0  0  0  0  0  0  0  0
    2.2248   11.4505   -1.6915 H   0  0  0  0  0  0  0  0  0  0  0  0
    2.9367   12.8136    0.3765 H   0  0  0  0  0  0  0  0  0  0  0  0
    3.7410   13.0734   -1.2589 H   0  0  0  0  0  0  0  0  0  0  0  0
    3.1962   15.2443    0.1304 H   0  0  0  0  0  0  0  0  0  0  0  0
   -0.1895   14.5546   -1.9587 H   0  0  0  0  0  0  0  0  0  0  0  0
    1.8319   15.5191   -4.0750 H   0  0  0  0  0  0  0  0  0  0  0  0
    0.1038   15.0266   -4.3597 H   0  0  0  0  0  0  0  0  0  0  0  0
    0.3871   17.4851   -4.3485 H   0  0  0  0  0  0  0  0  0  0  0  0
   -0.6808   16.8914   -3.0167 H   0  0  0  0  0  0  0  0  0  0  0  0
    0.7793   18.5817   -2.1386 H   0  0  0  0  0  0  0  0  0  0  0  0
    2.4410   18.1960   -3.8030 H   0  0  0  0  0  0  0  0  0  0  0  0
    0.1661   16.8986    0.8019 H   0  0  0  0  0  0  0  0  0  0  0  0
   -0.5343   17.8386   -0.5592 H   0  0  0  0  0  0  0  0  0  0  0  0
   -0.6376   16.0453   -0.5592 H   0  0  0  0  0  0  0  0  0  0  0  0
    2.1271   17.3847    0.9238 H   0  0  0  0  0  0  0  0  0  0  0  0
    3.3804   17.1670   -0.3444 H   0  0  0  0  0  0  0  0  0  0  0  0
    2.3486   18.6374   -0.3444 H   0  0  0  0  0  0  0  0  0  0  0  0
    3.3176   12.9669   -3.1928 H   0  0  0  0  0  0  0  0  0  0  0  0
    2.2029   12.1437   -4.3357 H   0  0  0  0  0  0  0  0  0  0  0  0
    2.3267   13.9357   -4.3357 H   0  0  0  0  0  0  0  0  0  0  0  0
   -0.5760   13.1216   -3.8997 H   0  0  0  0  0  0  0  0  0  0  0  0
    0.3777   11.5336   -3.8378 H   0  0  0  0  0  0  0  0  0  0  0  0
   -1.6100   12.5771   -1.8018 H   0  0  0  0  0  0  0  0  0  0  0  0
   -1.7474   11.1280   -2.8731 H   0  0  0  0  0  0  0  0  0  0  0  0
    0.7721    9.0289   -1.2472 H   0  0  0  0  0  0  0  0  0  0  0  0
   -0.3759    9.1992   -2.6183 H   0  0  0  0  0  0  0  0  0  0  0  0
    1.1661   10.1206   -2.6183 H   0  0  0  0  0  0  0  0  0  0  0  0
  1  2  1  0
  2  3  1  0
  3  4  1  0
  4  5  1  0
  5  6  1  0
  6  7  1  0
  7  8  1  0
  7  9  1  0
  2 10  1  0
 10 11  1  0
 11 12  1  0
 12 13  1  0
 13 14  1  1
 13 15  1  0
 15 16  1  0
 16 17  1  0
 17 18  2  0
 18 19  1  0
 19 20  1  0
 20 21  1  0
 21 22  1  0
 22 23  1  0
 22 24  1  0
 24 25  1  0
 24 26  1  0
 19 27  1  0
 27 28  1  6
 27 29  1  0
 29 30  1  0
 30 31  1  0
 31 32  1  6
  7  5  1  0
 31 10  1  0
 31 13  1  0
 27 15  1  0
 24 18  1  0
  1 33  1  0
  1 34  1  0
  1 35  1  0
  2 36  1  1
  3 37  1  0
  3 38  1  0
  4 39  1  0
  4 40  1  0
  5 41  1  6
  8 42  1  0
  8 43  1  0
  8 44  1  0
  9 45  1  0
  9 46  1  0
  9 47  1  0
 10 48  1  1
 11 49  1  0
 11 50  1  0
 12 51  1  0
 12 52  1  0
 14 53  1  0
 14 54  1  0
 14 55  1  0
 15 56  1  6
 16 57  1  0
 16 58  1  0
 17 59  1  0
 19 60  1  1
 20 61  1  0
 20 62  1  0
 21 63  1  0
 21 64  1  0
 22 65  1  1
 23 66  1  0
 25 67  1  0
 25 68  1  0
 25 69  1  0
 26 70  1  0
 26 71  1  0
 26 72  1  0
 28 73  1  0
 28 74  1  0
 28 75  1  0
 29 76  1  0
 29 77  1  0
 30 78  1  0
 30 79  1  0
 32 80  1  0
 32 81  1  0
 32 82  1  0
M  END
>  <meeko>  (1) 
{"is_sidechain": [false], "intermolecular_energy": 2.731, "internal_energy": -0.839}

$$$$
EPH_relaxed_0001_pdb2pqr_Repair_223_r2_0001_out
     RDKit          3D

 82 86  0  0  0  0  0  0  0  0999 V2000
    0.4370   18.3790    0.0380 C   0  0  0  0  0  0  0  0  0  0  0  0
    1.5250   17.3310   -0.2080 C   0  0  2  0  0  0  0  0  0  0  0  0
    2.7250   17.9110   -0.9840 C   0  0  0  0  0  0  0  0  0  0  0  0
    3.9540   18.1750   -0.1100 C   0  0  0  0  0  0  0  0  0  0  0  0
    3.5690   18.6640    1.2530 C   0  0  2  0  0  0  0  0  0  0  0  0
    3.8570   20.0470    1.4960 O   0  0  0  0  0  0  0  0  0  0  0  0
    4.5770   19.0990    2.3010 C   0  0  0  0  0  0  0  0  0  0  0  0
    6.0490   19.0650    2.0300 C   0  0  0  0  0  0  0  0  0  0  0  0
    4.1630   19.0920    3.7390 C   0  0  0  0  0  0  0  0  0  0  0  0
    0.9410   16.1430   -0.9640 C   0  0  1  0  0  0  0  0  0  0  0  0
    0.8040   16.4120   -2.4860 C   0  0  0  0  0  0  0  0  0  0  0  0
    1.0830   15.0670   -3.2050 C   0  0  0  0  0  0  0  0  0  0  0  0
    1.0430   14.0070   -2.0790 C   0  0  1  0  0  0  0  0  0  0  0  0
   -0.4750   13.7170   -1.8550 C   0  0  0  0  0  0  0  0  0  0  0  0
    1.8490   12.6930   -2.3380 C   0  0  2  0  0  0  0  0  0  0  0  0
    1.3680   11.8570   -3.5370 C   0  0  0  0  0  0  0  0  0  0  0  0
    0.3330   10.8280   -3.2230 C   0  0  0  0  0  0  0  0  0  0  0  0
    0.0170   10.3880   -1.9910 C   0  0  0  0  0  0  0  0  0  0  0  0
    0.7980   10.8640   -0.7590 C   0  0  1  0  0  0  0  0  0  0  0  0
    1.1530    9.6450    0.1320 C   0  0  0  0  0  0  0  0  0  0  0  0
   -0.0710    8.8150    0.5030 C   0  0  0  0  0  0  0  0  0  0  0  0
   -0.7870    8.3100   -0.7470 C   0  0  2  0  0  0  0  0  0  0  0  0
    0.0610    7.3740   -1.4180 O   0  0  0  0  0  0  0  0  0  0  0  0
   -1.1870    9.4500   -1.7260 C   0  0  0  0  0  0  0  0  0  0  0  0
   -2.3310   10.2900   -1.1080 C   0  0  0  0  0  0  0  0  0  0  0  0
   -1.7720    8.7950   -3.0070 C   0  0  0  0  0  0  0  0  0  0  0  0
    2.0530   11.7940   -1.0510 C   0  0  1  0  0  0  0  0  0  0  0  0
    3.3150   10.9160   -1.3170 C   0  0  0  0  0  0  0  0  0  0  0  0
    2.3690   12.6490    0.2320 C   0  0  0  0  0  0  0  0  0  0  0  0
    1.6300   13.9930    0.3710 C   0  0  0  0  0  0  0  0  0  0  0  0
    1.7340   14.8120   -0.9190 C   0  0  2  0  0  0  0  0  0  0  0  0
    3.2470   15.1380   -1.1580 C   0  0  0  0  0  0  0  0  0  0  0  0
    0.2964   18.5144    1.1205 H   0  0  0  0  0  0  0  0  0  0  0  0
    0.7394   19.3348   -0.4149 H   0  0  0  0  0  0  0  0  0  0  0  0
   -0.5068   18.0410   -0.4149 H   0  0  0  0  0  0  0  0  0  0  0  0
    1.8950   17.0013    0.7740 H   0  0  0  0  0  0  0  0  0  0  0  0
    3.0064   17.1973   -1.7723 H   0  0  0  0  0  0  0  0  0  0  0  0
    2.4056   18.8818   -1.3909 H   0  0  0  0  0  0  0  0  0  0  0  0
    4.5248   17.2405   -0.0056 H   0  0  0  0  0  0  0  0  0  0  0  0
    4.5597   18.9542   -0.5958 H   0  0  0  0  0  0  0  0  0  0  0  0
    2.7208   17.9646    1.2905 H   0  0  0  0  0  0  0  0  0  0  0  0
    6.5972   19.0523    2.9836 H   0  0  0  0  0  0  0  0  0  0  0  0
    6.2949   18.1609    1.4536 H   0  0  0  0  0  0  0  0  0  0  0  0
    6.3364   19.9567    1.4536 H   0  0  0  0  0  0  0  0  0  0  0  0
    5.0580   19.1071    4.3783 H   0  0  0  0  0  0  0  0  0  0  0  0
    3.5481   19.9799    3.9479 H   0  0  0  0  0  0  0  0  0  0  0  0
    3.5785   18.1838    3.9479 H   0  0  0  0  0  0  0  0  0  0  0  0
   -0.0117   16.0320   -0.4254 H   0  0  0  0  0  0  0  0  0  0  0  0
   -0.2125   16.7622   -2.7188 H   0  0  0  0  0  0  0  0  0  0  0  0
    1.5095   17.1893   -2.8147 H   0  0  0  0  0  0  0  0  0  0  0  0
    0.3089   14.8619   -3.9591 H   0  0  0  0  0  0  0  0  0  0  0  0
    2.0442   15.0714   -3.7398 H   0  0  0  0  0  0  0  0  0  0  0  0
   -0.6853   13.6768   -0.7760 H   0  0  0  0  0  0  0  0  0  0  0  0
   -1.0730   14.5171   -2.3156 H   0  0  0  0  0  0  0  0  0  0  0  0
   -0.7360   12.7528   -2.3156 H   0  0  0  0  0  0  0  0  0  0  0  0
    2.8404   13.0765   -2.6208 H   0  0  0  0  0  0  0  0  0  0  0  0
    0.9469   12.5456   -4.2843 H   0  0  0  0  0  0  0  0  0  0  0  0
    2.2487   11.3034   -3.8947 H   0  0  0  0  0  0  0  0  0  0  0  0
   -0.2177   10.3928   -4.0699 H   0  0  0  0  0  0  0  0  0  0  0  0
    0.1234   11.5402   -0.2134 H   0  0  0  0  0  0  0  0  0  0  0  0
    1.8614    9.0041   -0.4134 H   0  0  0  0  0  0  0  0  0  0  0  0
    1.5904   10.0299    1.0650 H   0  0  0  0  0  0  0  0  0  0  0  0
    0.2481    7.9535    1.1079 H   0  0  0  0  0  0  0  0  0  0  0  0
   -0.7656    9.4492    1.0734 H   0  0  0  0  0  0  0  0  0  0  0  0
   -1.7234    7.8335   -0.4213 H   0  0  0  0  0  0  0  0  0  0  0  0
   -0.4620    6.5740   -1.5920 H   0  0  0  0  0  0  0  0  0  0  0  0
   -2.2682   10.2439   -0.0108 H   0  0  0  0  0  0  0  0  0  0  0  0
   -2.2373   11.3354   -1.4370 H   0  0  0  0  0  0  0  0  0  0  0  0
   -3.3004    9.8875   -1.4370 H   0  0  0  0  0  0  0  0  0  0  0  0
   -2.4799    8.0024   -2.7230 H   0  0  0  0  0  0  0  0  0  0  0  0
   -2.2951    9.5576   -3.6026 H   0  0  0  0  0  0  0  0  0  0  0  0
   -0.9553    8.3611   -3.6026 H   0  0  0  0  0  0  0  0  0  0  0  0
    3.7567   10.6087   -0.3576 H   0  0  0  0  0  0  0  0  0  0  0  0
    3.0261   10.0229   -1.8905 H   0  0  0  0  0  0  0  0  0  0  0  0
    4.0519   11.4974   -1.8905 H   0  0  0  0  0  0  0  0  0  0  0  0
    2.1150   12.0373    1.1102 H   0  0  0  0  0  0  0  0  0  0  0  0
    3.4333   12.9136    0.1462 H   0  0  0  0  0  0  0  0  0  0  0  0
    0.5695   13.7995    0.5898 H   0  0  0  0  0  0  0  0  0  0  0  0
    2.0937   14.5653    1.1880 H   0  0  0  0  0  0  0  0  0  0  0  0
    3.7560   15.2477   -0.1890 H   0  0  0  0  0  0  0  0  0  0  0  0
    3.7131   14.3197   -1.7264 H   0  0  0  0  0  0  0  0  0  0  0  0
    3.3347   16.0757   -1.7264 H   0  0  0  0  0  0  0  0  0  0  0  0
  1  2  1  0
  2  3  1  0
  3  4  1  0
  4  5  1  0
  5  6  1  0
  6  7  1  0
  7  8  1  0
  7  9  1  0
  2 10  1  0
 10 11  1  0
 11 12  1  0
 12 13  1  0
 13 14  1  1
 13 15  1  0
 15 16  1  0
 16 17  1  0
 17 18  2  0
 18 19  1  0
 19 20  1  0
 20 21  1  0
 21 22  1  0
 22 23  1  0
 22 24  1  0
 24 25  1  0
 24 26  1  0
 19 27  1  0
 27 28  1  6
 27 29  1  0
 29 30  1  0
 30 31  1  0
 31 32  1  6
  7  5  1  0
 31 10  1  0
 31 13  1  0
 27 15  1  0
 24 18  1  0
  1 33  1  0
  1 34  1  0
  1 35  1  0
  2 36  1  1
  3 37  1  0
  3 38  1  0
  4 39  1  0
  4 40  1  0
  5 41  1  1
  8 42  1  0
  8 43  1  0
  8 44  1  0
  9 45  1  0
  9 46  1  0
  9 47  1  0
 10 48  1  1
 11 49  1  0
 11 50  1  0
 12 51  1  0
 12 52  1  0
 14 53  1  0
 14 54  1  0
 14 55  1  0
 15 56  1  6
 16 57  1  0
 16 58  1  0
 17 59  1  0
 19 60  1  1
 20 61  1  0
 20 62  1  0
 21 63  1  0
 21 64  1  0
 22 65  1  1
 23 66  1  0
 25 67  1  0
 25 68  1  0
 25 69  1  0
 26 70  1  0
 26 71  1  0
 26 72  1  0
 28 73  1  0
 28 74  1  0
 28 75  1  0
 29 76  1  0
 29 77  1  0
 30 78  1  0
 30 79  1  0
 32 80  1  0
 32 81  1  0
 32 82  1  0
M  END
>  <meeko>  (2) 
{"is_sidechain": [false], "intermolecular_energy": 2.731, "internal_energy": -0.839}

$$$$
EPH_relaxed_0001_pdb2pqr_Repair_223_r2_0001_out
     RDKit          3D

 82 86  0  0  0  0  0  0  0  0999 V2000
    4.2080   17.5360   -0.5630 C   0  0  0  0  0  0  0  0  0  0  0  0
    2.8450   18.1080   -0.1640 C   0  0  2  0  0  0  0  0  0  0  0  0
    2.8880   18.8050    1.2110 C   0  0  0  0  0  0  0  0  0  0  0  0
    4.2410   18.6900    1.9170 C   0  0  0  0  0  0  0  0  0  0  0  0
    4.1820   19.2190    3.3180 C   0  0  2  0  0  0  0  0  0  0  0  0
    5.1840   20.1950    3.6330 O   0  0  0  0  0  0  0  0  0  0  0  0
    5.2560   18.9560    4.3580 C   0  0  0  0  0  0  0  0  0  0  0  0
    6.4650   18.1340    4.0390 C   0  0  0  0  0  0  0  0  0  0  0  0
    4.8970   19.0830    5.8050 C   0  0  0  0  0  0  0  0  0  0  0  0
    1.7980   17.0000   -0.1540 C   0  0  1  0  0  0  0  0  0  0  0  0
    0.3700   17.5250   -0.4590 C   0  0  0  0  0  0  0  0  0  0  0  0
   -0.3520   16.4150   -1.2650 C   0  0  0  0  0  0  0  0  0  0  0  0
    0.5540   15.1700   -1.1130 C   0  0  1  0  0  0  0  0  0  0  0  0
    0.1850   14.5730    0.2820 C   0  0  0  0  0  0  0  0  0  0  0  0
    0.4510   14.0980   -2.2450 C   0  0  2  0  0  0  0  0  0  0  0  0
   -0.9290   13.4330   -2.3910 C   0  0  0  0  0  0  0  0  0  0  0  0
   -1.1280   12.1920   -1.5840 C   0  0  0  0  0  0  0  0  0  0  0  0
   -0.1510   11.4760   -0.9990 C   0  0  0  0  0  0  0  0  0  0  0  0
    1.3250   11.8420   -1.2020 C   0  0  1  0  0  0  0  0  0  0  0  0
    2.1370   10.5610   -1.5260 C   0  0  0  0  0  0  0  0  0  0  0  0
    1.9460    9.4670   -0.4800 C   0  0  0  0  0  0  0  0  0  0  0  0
    0.4730    9.0890   -0.3490 C   0  0  2  0  0  0  0  0  0  0  0  0
    0.0470    8.4670   -1.5650 O   0  0  0  0  0  0  0  0  0  0  0  0
   -0.4450   10.3020   -0.0320 C   0  0  0  0  0  0  0  0  0  0  0  0
   -0.1840   10.7880    1.4160 C   0  0  0  0  0  0  0  0  0  0  0  0
   -1.9160    9.8090   -0.0650 C   0  0  0  0  0  0  0  0  0  0  0  0
    1.6110   13.0220   -2.2270 C   0  0  1  0  0  0  0  0  0  0  0  0
    1.7150   12.4550   -3.6760 C   0  0  0  0  0  0  0  0  0  0  0  0
    3.0130   13.6600   -1.8990 C   0  0  0  0  0  0  0  0  0  0  0  0
    3.0330   14.7970   -0.8590 C   0  0  0  0  0  0  0  0  0  0  0  0
    1.9690   15.8510   -1.1800 C   0  0  2  0  0  0  0  0  0  0  0  0
    2.3270   16.4850   -2.5670 C   0  0  0  0  0  0  0  0  0  0  0  0
    4.7836   17.2944    0.3427 H   0  0  0  0  0  0  0  0  0  0  0  0
    4.0623   16.6231   -1.1592 H   0  0  0  0  0  0  0  0  0  0  0  0
    4.7574   18.2795   -1.1592 H   0  0  0  0  0  0  0  0  0  0  0  0
    2.5738   18.8682   -0.9114 H   0  0  0  0  0  0  0  0  0  0  0  0
    2.6610   19.8716    1.0669 H   0  0  0  0  0  0  0  0  0  0  0  0
    2.1480   18.3011    1.8501 H   0  0  0  0  0  0  0  0  0  0  0  0
    4.5381   17.6313    1.9479 H   0  0  0  0  0  0  0  0  0  0  0  0
    4.9730   19.2886    1.3550 H   0  0  0  0  0  0  0  0  0  0  0  0
    3.0885   19.1022    3.3407 H   0  0  0  0  0  0  0  0  0  0  0  0
    6.9441   17.8083    4.9741 H   0  0  0  0  0  0  0  0  0  0  0  0
    6.1649   17.2520    3.4542 H   0  0  0  0  0  0  0  0  0  0  0  0
    7.1748   18.7375    3.4542 H   0  0  0  0  0  0  0  0  0  0  0  0
    5.7545   18.7796    6.4235 H   0  0  0  0  0  0  0  0  0  0  0  0
    4.6358   20.1281    6.0276 H   0  0  0  0  0  0  0  0  0  0  0  0
    4.0367   18.4346    6.0276 H   0  0  0  0  0  0  0  0  0  0  0  0
    1.9434   16.6178    0.8672 H   0  0  0  0  0  0  0  0  0  0  0  0
   -0.1690   17.7234    0.4791 H   0  0  0  0  0  0  0  0  0  0  0  0
    0.4082   18.4653   -1.0286 H   0  0  0  0  0  0  0  0  0  0  0  0
   -1.3516   16.2209   -0.8490 H   0  0  0  0  0  0  0  0  0  0  0  0
   -0.5027   16.6951   -2.3180 H   0  0  0  0  0  0  0  0  0  0  0  0
    0.5855   15.2209    1.0756 H   0  0  0  0  0  0  0  0  0  0  0  0
   -0.9092   14.5110    0.3765 H   0  0  0  0  0  0  0  0  0  0  0  0
    0.6188   13.5666    0.3765 H   0  0  0  0  0  0  0  0  0  0  0  0
    0.5896   14.7021   -3.1538 H   0  0  0  0  0  0  0  0  0  0  0  0
   -1.6924   14.1635   -2.0849 H   0  0  0  0  0  0  0  0  0  0  0  0
   -1.0093   13.1269   -3.4445 H   0  0  0  0  0  0  0  0  0  0  0  0
   -2.1602   11.8335   -1.4574 H   0  0  0  0  0  0  0  0  0  0  0  0
    1.6670   12.2679   -0.2472 H   0  0  0  0  0  0  0  0  0  0  0  0
    1.8116   10.1751   -2.5033 H   0  0  0  0  0  0  0  0  0  0  0  0
    3.2026   10.8340   -1.5328 H   0  0  0  0  0  0  0  0  0  0  0  0
    2.5205    8.5781   -0.7797 H   0  0  0  0  0  0  0  0  0  0  0  0
    2.2995    9.8440    0.4910 H   0  0  0  0  0  0  0  0  0  0  0  0
    0.3840    8.3983    0.5025 H   0  0  0  0  0  0  0  0  0  0  0  0
    0.2070    9.0960   -2.2890 H   0  0  0  0  0  0  0  0  0  0  0  0
   -0.5808   10.0492    2.1279 H   0  0  0  0  0  0  0  0  0  0  0  0
    0.8983   10.9050    1.5740 H   0  0  0  0  0  0  0  0  0  0  0  0
   -0.6842   11.7548    1.5740 H   0  0  0  0  0  0  0  0  0  0  0  0
   -2.2845    9.6855    0.9641 H   0  0  0  0  0  0  0  0  0  0  0  0
   -2.5385   10.5476   -0.5912 H   0  0  0  0  0  0  0  0  0  0  0  0
   -1.9677    8.8444   -0.5912 H   0  0  0  0  0  0  0  0  0  0  0  0
    1.9133   11.3739   -3.6333 H   0  0  0  0  0  0  0  0  0  0  0  0
    0.7691   12.6336   -4.2084 H   0  0  0  0  0  0  0  0  0  0  0  0
    2.5359   12.9576   -4.2084 H   0  0  0  0  0  0  0  0  0  0  0  0
    3.6652   12.8565   -1.5261 H   0  0  0  0  0  0  0  0  0  0  0  0
    3.3449   14.1243   -2.8393 H   0  0  0  0  0  0  0  0  0  0  0  0
    2.8341   14.3766    0.1379 H   0  0  0  0  0  0  0  0  0  0  0  0
    4.0221   15.2778   -0.8833 H   0  0  0  0  0  0  0  0  0  0  0  0
    2.8623   17.4330   -2.4096 H   0  0  0  0  0  0  0  0  0  0  0  0
    2.9671   15.7920   -3.1327 H   0  0  0  0  0  0  0  0  0  0  0  0
    1.4030   16.6752   -3.1327 H   0  0  0  0  0  0  0  0  0  0  0  0
  1  2  1  0
  2  3  1  0
  3  4  1  0
  4  5  1  0
  5  6  1  0
  6  7  1  0
  7  8  1  0
  7  9  1  0
  2 10  1  0
 10 11  1  0
 11 12  1  0
 12 13  1  0
 13 14  1  1
 13 15  1  0
 15 16  1  0
 16 17  1  0
 17 18  2  0
 18 19  1  0
 19 20  1  0
 20 21  1  0
 21 22  1  0
 22 23  1  0
 22 24  1  0
 24 25  1  0
 24 26  1  0
 19 27  1  0
 27 28  1  6
 27 29  1  0
 29 30  1  0
 30 31  1  0
 31 32  1  6
  7  5  1  0
 31 10  1  0
 31 13  1  0
 27 15  1  0
 24 18  1  0
  1 33  1  0
  1 34  1  0
  1 35  1  0
  2 36  1  6
  3 37  1  0
  3 38  1  0
  4 39  1  0
  4 40  1  0
  5 41  1  1
  8 42  1  0
  8 43  1  0
  8 44  1  0
  9 45  1  0
  9 46  1  0
  9 47  1  0
 10 48  1  1
 11 49  1  0
 11 50  1  0
 12 51  1  0
 12 52  1  0
 14 53  1  0
 14 54  1  0
 14 55  1  0
 15 56  1  6
 16 57  1  0
 16 58  1  0
 17 59  1  0
 19 60  1  1
 20 61  1  0
 20 62  1  0
 21 63  1  0
 21 64  1  0
 22 65  1  1
 23 66  1  0
 25 67  1  0
 25 68  1  0
 25 69  1  0
 26 70  1  0
 26 71  1  0
 26 72  1  0
 28 73  1  0
 28 74  1  0
 28 75  1  0
 29 76  1  0
 29 77  1  0
 30 78  1  0
 30 79  1  0
 32 80  1  0
 32 81  1  0
 32 82  1  0
M  END
>  <meeko>  (3) 
{"is_sidechain": [false], "intermolecular_energy": 2.731, "internal_energy": -0.839}

$$$$
EPH_relaxed_0001_pdb2pqr_Repair_223_r2_0001_out
     RDKit          3D

 82 86  0  0  0  0  0  0  0  0999 V2000
    2.3270   17.9690   -2.6980 C   0  0  0  0  0  0  0  0  0  0  0  0
    1.0450   17.5690   -1.9630 C   0  0  2  0  0  0  0  0  0  0  0  0
    1.2160   17.6130   -0.4310 C   0  0  0  0  0  0  0  0  0  0  0  0
    0.8630   18.9670    0.1890 C   0  0  0  0  0  0  0  0  0  0  0  0
   -0.5910   19.0530    0.5430 C   0  0  2  0  0  0  0  0  0  0  0  0
   -1.4480   18.2080   -0.2360 O   0  0  0  0  0  0  0  0  0  0  0  0
   -1.6460   19.6230   -0.3870 C   0  0  0  0  0  0  0  0  0  0  0  0
   -1.2900   20.1460   -1.7430 C   0  0  0  0  0  0  0  0  0  0  0  0
   -2.9290   20.1180    0.2040 C   0  0  0  0  0  0  0  0  0  0  0  0
    0.6090   16.1750   -2.3990 C   0  0  1  0  0  0  0  0  0  0  0  0
    0.7270   15.9650   -3.9320 C   0  0  0  0  0  0  0  0  0  0  0  0
    1.1370   14.4860   -4.1500 C   0  0  0  0  0  0  0  0  0  0  0  0
    0.9180   13.8140   -2.7750 C   0  0  1  0  0  0  0  0  0  0  0  0
   -0.6120   13.5120   -2.7140 C   0  0  0  0  0  0  0  0  0  0  0  0
    1.7700   12.5350   -2.4870 C   0  0  2  0  0  0  0  0  0  0  0  0
    1.5070   11.3490   -3.4320 C   0  0  0  0  0  0  0  0  0  0  0  0
    0.4450   10.4000   -2.9840 C   0  0  0  0  0  0  0  0  0  0  0  0
   -0.0700   10.3330   -1.7420 C   0  0  0  0  0  0  0  0  0  0  0  0
    0.4870   11.2050   -0.6100 C   0  0  1  0  0  0  0  0  0  0  0  0
    0.7010   10.3350    0.6570 C   0  0  0  0  0  0  0  0  0  0  0  0
   -0.5600    9.5810    1.0680 C   0  0  0  0  0  0  0  0  0  0  0  0
   -1.0500    8.6810   -0.0630 C   0  0  2  0  0  0  0  0  0  0  0  0
   -0.0910    7.6400   -0.2730 O   0  0  0  0  0  0  0  0  0  0  0  0
   -1.2910    9.4460   -1.3950 C   0  0  0  0  0  0  0  0  0  0  0  0
   -2.5320   10.3610   -1.2520 C   0  0  0  0  0  0  0  0  0  0  0  0
   -1.6450    8.4020   -2.4880 C   0  0  0  0  0  0  0  0  0  0  0  0
    1.7640   12.0790   -0.9720 C   0  0  1  0  0  0  0  0  0  0  0  0
    3.0620   11.2410   -0.7540 C   0  0  0  0  0  0  0  0  0  0  0  0
    1.8510   13.2980    0.0200 C   0  0  0  0  0  0  0  0  0  0  0  0
    1.0850   14.5740   -0.3780 C   0  0  0  0  0  0  0  0  0  0  0  0
    1.3960   14.9710   -1.8240 C   0  0  2  0  0  0  0  0  0  0  0  0
    2.9250   15.3020   -1.9110 C   0  0  0  0  0  0  0  0  0  0  0  0
    3.1094   18.2131   -1.9643 H   0  0  0  0  0  0  0  0  0  0  0  0
    2.6639   17.1333   -3.3289 H   0  0  0  0  0  0  0  0  0  0  0  0
    2.1289   18.8480   -3.3289 H   0  0  0  0  0  0  0  0  0  0  0  0
    0.2687   18.3013   -2.2294 H   0  0  0  0  0  0  0  0  0  0  0  0
    0.5636   16.8469    0.0134 H   0  0  0  0  0  0  0  0  0  0  0  0
    2.2803   17.4311   -0.2211 H   0  0  0  0  0  0  0  0  0  0  0  0
    1.4609   19.1079    1.1015 H   0  0  0  0  0  0  0  0  0  0  0  0
    1.0824   19.7505   -0.5512 H   0  0  0  0  0  0  0  0  0  0  0  0
   -0.3468   19.2580    1.5958 H   0  0  0  0  0  0  0  0  0  0  0  0
   -0.6739   21.0511   -1.6368 H   0  0  0  0  0  0  0  0  0  0  0  0
   -0.7247   19.3803   -2.2945 H   0  0  0  0  0  0  0  0  0  0  0  0
   -2.2096   20.3911   -2.2945 H   0  0  0  0  0  0  0  0  0  0  0  0
   -2.8612   20.0919    1.3016 H   0  0  0  0  0  0  0  0  0  0  0  0
   -3.1110   21.1509   -0.1276 H   0  0  0  0  0  0  0  0  0  0  0  0
   -3.7576   19.4750   -0.1276 H   0  0  0  0  0  0  0  0  0  0  0  0
   -0.4193   16.1727   -2.0083 H   0  0  0  0  0  0  0  0  0  0  0  0
   -0.2395   16.1658   -4.4174 H   0  0  0  0  0  0  0  0  0  0  0  0
    1.4693   16.6493   -4.3686 H   0  0  0  0  0  0  0  0  0  0  0  0
    0.5036   14.0164   -4.9170 H   0  0  0  0  0  0  0  0  0  0  0  0
    2.1747   14.3882   -4.5016 H   0  0  0  0  0  0  0  0  0  0  0  0
   -0.9317   13.4489   -1.6634 H   0  0  0  0  0  0  0  0  0  0  0  0
   -1.1653   14.3183   -3.2178 H   0  0  0  0  0  0  0  0  0  0  0  0
   -0.8174   12.5560   -3.2178 H   0  0  0  0  0  0  0  0  0  0  0  0
    2.7909   12.8766   -2.7131 H   0  0  0  0  0  0  0  0  0  0  0  0
    1.2103   11.7537   -4.4109 H   0  0  0  0  0  0  0  0  0  0  0  0
    2.4413   10.7691   -3.4599 H   0  0  0  0  0  0  0  0  0  0  0  0
    0.0502    9.6964   -3.7317 H   0  0  0  0  0  0  0  0  0  0  0  0
   -0.2775   11.9709   -0.4125 H   0  0  0  0  0  0  0  0  0  0  0  0
    1.4979    9.6047    0.4530 H   0  0  0  0  0  0  0  0  0  0  0  0
    0.9717   11.0088    1.4832 H   0  0  0  0  0  0  0  0  0  0  0  0
   -0.3382    8.9623    1.9501 H   0  0  0  0  0  0  0  0  0  0  0  0
   -1.3472   10.3134    1.3002 H   0  0  0  0  0  0  0  0  0  0  0  0
   -2.0231    8.2688    0.2423 H   0  0  0  0  0  0  0  0  0  0  0  0
   -0.0330    7.4820   -1.2300 H   0  0  0  0  0  0  0  0  0  0  0  0
   -2.7488   10.5208   -0.1855 H   0  0  0  0  0  0  0  0  0  0  0  0
   -2.3314   11.3290   -1.7345 H   0  0  0  0  0  0  0  0  0  0  0  0
   -3.3974    9.8832   -1.7345 H   0  0  0  0  0  0  0  0  0  0  0  0
   -1.9631    7.4639   -2.0097 H   0  0  0  0  0  0  0  0  0  0  0  0
   -2.4620    8.7896   -3.1144 H   0  0  0  0  0  0  0  0  0  0  0  0
   -0.7608    8.2128   -3.1144 H   0  0  0  0  0  0  0  0  0  0  0  0
    3.2453   11.1227    0.3241 H   0  0  0  0  0  0  0  0  0  0  0  0
    2.9407   10.2502   -1.2162 H   0  0  0  0  0  0  0  0  0  0  0  0
    3.9150   11.7593   -1.2162 H   0  0  0  0  0  0  0  0  0  0  0  0
    1.4592   12.9644    0.9922 H   0  0  0  0  0  0  0  0  0  0  0  0
    2.9117   13.5892    0.0255 H   0  0  0  0  0  0  0  0  0  0  0  0
    0.0048   14.3908   -0.2794 H   0  0  0  0  0  0  0  0  0  0  0  0
    1.3986   15.3930    0.2859 H   0  0  0  0  0  0  0  0  0  0  0  0
    3.3391   15.3916   -0.8959 H   0  0  0  0  0  0  0  0  0  0  0  0
    3.4447   14.4956   -2.4491 H   0  0  0  0  0  0  0  0  0  0  0  0
    3.0646   16.2512   -2.4491 H   0  0  0  0  0  0  0  0  0  0  0  0
  1  2  1  0
  2  3  1  0
  3  4  1  0
  4  5  1  0
  5  6  1  0
  6  7  1  0
  7  8  1  0
  7  9  1  0
  2 10  1  0
 10 11  1  0
 11 12  1  0
 12 13  1  0
 13 14  1  1
 13 15  1  0
 15 16  1  0
 16 17  1  0
 17 18  2  0
 18 19  1  0
 19 20  1  0
 20 21  1  0
 21 22  1  0
 22 23  1  0
 22 24  1  0
 24 25  1  0
 24 26  1  0
 19 27  1  0
 27 28  1  6
 27 29  1  0
 29 30  1  0
 30 31  1  0
 31 32  1  1
  7  5  1  0
 31 10  1  0
 31 13  1  0
 27 15  1  0
 24 18  1  0
  1 33  1  0
  1 34  1  0
  1 35  1  0
  2 36  1  1
  3 37  1  0
  3 38  1  0
  4 39  1  0
  4 40  1  0
  5 41  1  1
  8 42  1  0
  8 43  1  0
  8 44  1  0
  9 45  1  0
  9 46  1  0
  9 47  1  0
 10 48  1  1
 11 49  1  0
 11 50  1  0
 12 51  1  0
 12 52  1  0
 14 53  1  0
 14 54  1  0
 14 55  1  0
 15 56  1  6
 16 57  1  0
 16 58  1  0
 17 59  1  0
 19 60  1  1
 20 61  1  0
 20 62  1  0
 21 63  1  0
 21 64  1  0
 22 65  1  1
 23 66  1  0
 25 67  1  0
 25 68  1  0
 25 69  1  0
 26 70  1  0
 26 71  1  0
 26 72  1  0
 28 73  1  0
 28 74  1  0
 28 75  1  0
 29 76  1  0
 29 77  1  0
 30 78  1  0
 30 79  1  0
 32 80  1  0
 32 81  1  0
 32 82  1  0
M  END
>  <meeko>  (4) 
{"is_sidechain": [false], "intermolecular_energy": 2.731, "internal_energy": -0.839}

$$$$
EPH_relaxed_0001_pdb2pqr_Repair_223_r2_0001_out
     RDKit          3D

 82 86  0  0  0  0  0  0  0  0999 V2000
   -5.1170    5.9040   -1.9100 C   0  0  0  0  0  0  0  0  0  0  0  0
   -5.4630    7.3960   -1.8740 C   0  0  2  0  0  0  0  0  0  0  0  0
   -5.2500    8.0080   -0.4750 C   0  0  0  0  0  0  0  0  0  0  0  0
   -4.2030    9.1240   -0.4450 C   0  0  0  0  0  0  0  0  0  0  0  0
   -2.8360    8.6110   -0.7820 C   0  0  2  0  0  0  0  0  0  0  0  0
   -1.8200    8.9410    0.1740 O   0  0  0  0  0  0  0  0  0  0  0  0
   -1.6680    9.5130   -1.1360 C   0  0  0  0  0  0  0  0  0  0  0  0
   -1.8150   11.0020   -1.1700 C   0  0  0  0  0  0  0  0  0  0  0  0
   -0.5300    8.9360   -1.9170 C   0  0  0  0  0  0  0  0  0  0  0  0
   -6.9050    7.6050   -2.3210 C   0  0  1  0  0  0  0  0  0  0  0  0
   -7.2220    6.9010   -3.6670 C   0  0  0  0  0  0  0  0  0  0  0  0
   -8.6910    6.4130   -3.5820 C   0  0  0  0  0  0  0  0  0  0  0  0
   -9.2700    7.1320   -2.3420 C   0  0  1  0  0  0  0  0  0  0  0  0
   -9.6430    8.5620   -2.8450 C   0  0  0  0  0  0  0  0  0  0  0  0
  -10.4800    6.4330   -1.6400 C   0  0  2  0  0  0  0  0  0  0  0  0
  -11.7440    6.2910   -2.5060 C   0  0  0  0  0  0  0  0  0  0  0  0
  -12.7090    7.4270   -2.4170 C   0  0  0  0  0  0  0  0  0  0  0  0
  -12.7110    8.3790   -1.4660 C   0  0  0  0  0  0  0  0  0  0  0  0
  -11.7310    8.3170   -0.2870 C   0  0  1  0  0  0  0  0  0  0  0  0
  -12.4930    8.5920    1.0350 C   0  0  0  0  0  0  0  0  0  0  0  0
  -13.2770    9.9000    0.9970 C   0  0  0  0  0  0  0  0  0  0  0  0
  -14.2820    9.9010   -0.1520 C   0  0  2  0  0  0  0  0  0  0  0  0
  -15.2860    8.9160    0.1120 O   0  0  0  0  0  0  0  0  0  0  0  0
  -13.6300    9.6230   -1.5360 C   0  0  0  0  0  0  0  0  0  0  0  0
  -12.7690   10.8400   -1.9590 C   0  0  0  0  0  0  0  0  0  0  0  0
  -14.7680    9.5110   -2.5860 C   0  0  0  0  0  0  0  0  0  0  0  0
  -10.8230    7.0150   -0.2080 C   0  0  1  0  0  0  0  0  0  0  0  0
  -11.5760    5.8870    0.5610 C   0  0  0  0  0  0  0  0  0  0  0  0
   -9.5310    7.3390    0.6310 C   0  0  0  0  0  0  0  0  0  0  0  0
   -8.3280    7.9150   -0.1400 C   0  0  0  0  0  0  0  0  0  0  0  0
   -8.0230    7.0780   -1.3860 C   0  0  2  0  0  0  0  0  0  0  0  0
   -7.6230    5.6400   -0.9100 C   0  0  0  0  0  0  0  0  0  0  0  0
   -5.0287    5.5232   -0.8818 H   0  0  0  0  0  0  0  0  0  0  0  0
   -5.9119    5.3559   -2.4370 H   0  0  0  0  0  0  0  0  0  0  0  0
   -4.1620    5.7617   -2.4370 H   0  0  0  0  0  0  0  0  0  0  0  0
   -4.7808    7.9114   -2.5661 H   0  0  0  0  0  0  0  0  0  0  0  0
   -6.2082    8.4212   -0.1271 H   0  0  0  0  0  0  0  0  0  0  0  0
   -4.8798    7.2020    0.1757 H   0  0  0  0  0  0  0  0  0  0  0  0
   -4.4842    9.8963   -1.1761 H   0  0  0  0  0  0  0  0  0  0  0  0
   -4.1723    9.5379    0.5737 H   0  0  0  0  0  0  0  0  0  0  0  0
   -3.2641    7.7285   -1.2800 H   0  0  0  0  0  0  0  0  0  0  0  0
   -1.8533   11.3902   -0.1415 H   0  0  0  0  0  0  0  0  0  0  0  0
   -0.9561   11.4433   -1.6967 H   0  0  0  0  0  0  0  0  0  0  0  0
   -2.7437   11.2668   -1.6967 H   0  0  0  0  0  0  0  0  0  0  0  0
    0.2318    8.5497   -1.2239 H   0  0  0  0  0  0  0  0  0  0  0  0
   -0.8987    8.1159   -2.5507 H   0  0  0  0  0  0  0  0  0  0  0  0
   -0.0864    9.7181   -2.5507 H   0  0  0  0  0  0  0  0  0  0  0  0
   -6.9292    8.7042   -2.3554 H   0  0  0  0  0  0  0  0  0  0  0  0
   -7.1057    7.6086   -4.5011 H   0  0  0  0  0  0  0  0  0  0  0  0
   -6.5360    6.0594   -3.8434 H   0  0  0  0  0  0  0  0  0  0  0  0
   -9.2467    6.6944   -4.4887 H   0  0  0  0  0  0  0  0  0  0  0  0
   -8.7627    5.3184   -3.5007 H   0  0  0  0  0  0  0  0  0  0  0  0
   -9.8149    9.2212   -1.9814 H   0  0  0  0  0  0  0  0  0  0  0  0
   -8.8194    8.9629   -3.4540 H   0  0  0  0  0  0  0  0  0  0  0  0
  -10.5575    8.5095   -3.4540 H   0  0  0  0  0  0  0  0  0  0  0  0
  -10.1056    5.4099   -1.4880 H   0  0  0  0  0  0  0  0  0  0  0  0
  -11.4281    6.1948   -3.5553 H   0  0  0  0  0  0  0  0  0  0  0  0
  -12.2772    5.4081   -2.1237 H   0  0  0  0  0  0  0  0  0  0  0  0
  -13.4841    7.4911   -3.1949 H   0  0  0  0  0  0  0  0  0  0  0  0
  -10.9920    9.1123   -0.4641 H   0  0  0  0  0  0  0  0  0  0  0  0
  -13.1954    7.7650    1.2157 H   0  0  0  0  0  0  0  0  0  0  0  0
  -11.7473    8.6729    1.8396 H   0  0  0  0  0  0  0  0  0  0  0  0
  -13.8168   10.0238    1.9474 H   0  0  0  0  0  0  0  0  0  0  0  0
  -12.5698   10.7287    0.8453 H   0  0  0  0  0  0  0  0  0  0  0  0
  -14.7189   10.9090   -0.2067 H   0  0  0  0  0  0  0  0  0  0  0  0
  -15.9360    8.9570   -0.6090 H   0  0  0  0  0  0  0  0  0  0  0  0
  -12.4018   11.3591   -1.0614 H   0  0  0  0  0  0  0  0  0  0  0  0
  -11.9138   10.4937   -2.5579 H   0  0  0  0  0  0  0  0  0  0  0  0
  -13.3802   11.5311   -2.5579 H   0  0  0  0  0  0  0  0  0  0  0  0
  -15.7348    9.4158   -2.0701 H   0  0  0  0  0  0  0  0  0  0  0  0
  -14.7757   10.4127   -3.2159 H   0  0  0  0  0  0  0  0  0  0  0  0
  -14.5998    8.6251   -3.2159 H   0  0  0  0  0  0  0  0  0  0  0  0
  -11.4691    6.0472    1.6440 H   0  0  0  0  0  0  0  0  0  0  0  0
  -12.6421    5.9077    0.2908 H   0  0  0  0  0  0  0  0  0  0  0  0
  -11.1481    4.9103    0.2908 H   0  0  0  0  0  0  0  0  0  0  0  0
   -9.8110    8.0693    1.4045 H   0  0  0  0  0  0  0  0  0  0  0  0
   -9.1873    6.3678    1.0165 H   0  0  0  0  0  0  0  0  0  0  0  0
   -8.5576    8.9462   -0.4466 H   0  0  0  0  0  0  0  0  0  0  0  0
   -7.4476    7.8960    0.5192 H   0  0  0  0  0  0  0  0  0  0  0  0
   -7.6138    5.6070    0.1895 H   0  0  0  0  0  0  0  0  0  0  0  0
   -8.3525    4.9110   -1.2926 H   0  0  0  0  0  0  0  0  0  0  0  0
   -6.6219    5.3923   -1.2926 H   0  0  0  0  0  0  0  0  0  0  0  0
  1  2  1  0
  2  3  1  0
  3  4  1  0
  4  5  1  0
  5  6  1  0
  6  7  1  0
  7  8  1  0
  7  9  1  0
  2 10  1  0
 10 11  1  0
 11 12  1  0
 12 13  1  0
 13 14  1  6
 13 15  1  0
 15 16  1  0
 16 17  1  0
 17 18  2  0
 18 19  1  0
 19 20  1  0
 20 21  1  0
 21 22  1  0
 22 23  1  0
 22 24  1  0
 24 25  1  0
 24 26  1  0
 19 27  1  0
 27 28  1  1
 27 29  1  0
 29 30  1  0
 30 31  1  0
 31 32  1  1
  7  5  1  0
 31 10  1  0
 31 13  1  0
 27 15  1  0
 24 18  1  0
  1 33  1  0
  1 34  1  0
  1 35  1  0
  2 36  1  6
  3 37  1  0
  3 38  1  0
  4 39  1  0
  4 40  1  0
  5 41  1  6
  8 42  1  0
  8 43  1  0
  8 44  1  0
  9 45  1  0
  9 46  1  0
  9 47  1  0
 10 48  1  6
 11 49  1  0
 11 50  1  0
 12 51  1  0
 12 52  1  0
 14 53  1  0
 14 54  1  0
 14 55  1  0
 15 56  1  1
 16 57  1  0
 16 58  1  0
 17 59  1  0
 19 60  1  6
 20 61  1  0
 20 62  1  0
 21 63  1  0
 21 64  1  0
 22 65  1  6
 23 66  1  0
 25 67  1  0
 25 68  1  0
 25 69  1  0
 26 70  1  0
 26 71  1  0
 26 72  1  0
 28 73  1  0
 28 74  1  0
 28 75  1  0
 29 76  1  0
 29 77  1  0
 30 78  1  0
 30 79  1  0
 32 80  1  0
 32 81  1  0
 32 82  1  0
M  END
>  <meeko>  (5) 
{"is_sidechain": [false], "intermolecular_energy": 2.731, "internal_energy": -0.839}

$$$$
EPH_relaxed_0001_pdb2pqr_Repair_223_r2_0001_out
     RDKit          3D

 82 86  0  0  0  0  0  0  0  0999 V2000
    0.3950    8.9050   -2.6330 C   0  0  0  0  0  0  0  0  0  0  0  0
    1.1700   10.0780   -3.2410 C   0  0  2  0  0  0  0  0  0  0  0  0
    2.6570   10.0640   -2.8360 C   0  0  0  0  0  0  0  0  0  0  0  0
    3.5920   10.6370   -3.9040 C   0  0  0  0  0  0  0  0  0  0  0  0
    4.9780   10.8460   -3.3740 C   0  0  2  0  0  0  0  0  0  0  0  0
    5.6060   12.0620   -3.8030 O   0  0  0  0  0  0  0  0  0  0  0  0
    6.2180   10.8400   -4.2480 C   0  0  0  0  0  0  0  0  0  0  0  0
    6.1300   10.6190   -5.7260 C   0  0  0  0  0  0  0  0  0  0  0  0
    7.5430   10.5620   -3.6090 C   0  0  0  0  0  0  0  0  0  0  0  0
    0.5290   11.3960   -2.8230 C   0  0  1  0  0  0  0  0  0  0  0  0
   -0.8490   11.2000   -2.1380 C   0  0  0  0  0  0  0  0  0  0  0  0
   -0.9680   12.2980   -1.0500 C   0  0  0  0  0  0  0  0  0  0  0  0
    0.1820   13.2840   -1.3640 C   0  0  1  0  0  0  0  0  0  0  0  0
   -0.3660   14.1860   -2.5130 C   0  0  0  0  0  0  0  0  0  0  0  0
    0.7090   14.1360   -0.1630 C   0  0  2  0  0  0  0  0  0  0  0  0
   -0.3240   15.0880    0.4650 C   0  0  0  0  0  0  0  0  0  0  0  0
   -0.3670   16.4590   -0.1240 C   0  0  0  0  0  0  0  0  0  0  0  0
    0.5760   17.0000   -0.9180 C   0  0  0  0  0  0  0  0  0  0  0  0
    1.8780   16.2470   -1.2190 C   0  0  1  0  0  0  0  0  0  0  0  0
    3.0830   17.2090   -1.0490 C   0  0  0  0  0  0  0  0  0  0  0  0
    2.9390   18.4800   -1.8800 C   0  0  0  0  0  0  0  0  0  0  0  0
    1.6620   19.2310   -1.5110 C   0  0  2  0  0  0  0  0  0  0  0  0
    1.7840   19.7190   -0.1720 O   0  0  0  0  0  0  0  0  0  0  0  0
    0.3810   18.3590   -1.6350 C   0  0  0  0  0  0  0  0  0  0  0  0
    0.0820   18.0810   -3.1290 C   0  0  0  0  0  0  0  0  0  0  0  0
   -0.8160   19.1900   -1.1000 C   0  0  0  0  0  0  0  0  0  0  0  0
    2.0800   14.8740   -0.4450 C   0  0  1  0  0  0  0  0  0  0  0  0
    2.7370   15.1380    0.9450 C   0  0  0  0  0  0  0  0  0  0  0  0
    3.0900   13.9730   -1.2500 C   0  0  0  0  0  0  0  0  0  0  0  0
    2.4930   13.0660   -2.3420 C   0  0  0  0  0  0  0  0  0  0  0  0
    1.3000   12.2710   -1.8030 C   0  0  2  0  0  0  0  0  0  0  0  0
    1.8250   11.3370   -0.6600 C   0  0  0  0  0  0  0  0  0  0  0  0
    0.4364    8.9677   -1.5356 H   0  0  0  0  0  0  0  0  0  0  0  0
   -0.6533    8.9476   -2.9634 H   0  0  0  0  0  0  0  0  0  0  0  0
    0.8454    7.9574   -2.9634 H   0  0  0  0  0  0  0  0  0  0  0  0
    1.1252    9.9727   -4.3350 H   0  0  0  0  0  0  0  0  0  0  0  0
    2.7724   10.6592   -1.9182 H   0  0  0  0  0  0  0  0  0  0  0  0
    2.9407    9.0110   -2.6924 H   0  0  0  0  0  0  0  0  0  0  0  0
    3.6363    9.9371   -4.7514 H   0  0  0  0  0  0  0  0  0  0  0  0
    3.1948   11.6133   -4.2189 H   0  0  0  0  0  0  0  0  0  0  0  0
    4.7282   10.3133   -2.4446 H   0  0  0  0  0  0  0  0  0  0  0  0
    5.7297    9.6136   -5.9232 H   0  0  0  0  0  0  0  0  0  0  0  0
    5.4634   11.3728   -6.1704 H   0  0  0  0  0  0  0  0  0  0  0  0
    7.1323   10.7082   -6.1704 H   0  0  0  0  0  0  0  0  0  0  0  0
    7.4343   10.5848   -2.5146 H   0  0  0  0  0  0  0  0  0  0  0  0
    7.8997    9.5695   -3.9214 H   0  0  0  0  0  0  0  0  0  0  0  0
    8.2686   11.3275   -3.9214 H   0  0  0  0  0  0  0  0  0  0  0  0
    0.4936   11.9005   -3.7999 H   0  0  0  0  0  0  0  0  0  0  0  0
   -1.6576   11.3086   -2.8758 H   0  0  0  0  0  0  0  0  0  0  0  0
   -0.9312   10.1959   -1.6964 H   0  0  0  0  0  0  0  0  0  0  0  0
   -1.9423   12.8045   -1.1143 H   0  0  0  0  0  0  0  0  0  0  0  0
   -0.8986   11.8864   -0.0323 H   0  0  0  0  0  0  0  0  0  0  0  0
   -0.8914   15.0507   -2.0815 H   0  0  0  0  0  0  0  0  0  0  0  0
    0.4711   14.5380   -3.1338 H   0  0  0  0  0  0  0  0  0  0  0  0
   -1.0641   13.6053   -3.1338 H   0  0  0  0  0  0  0  0  0  0  0  0
    0.9102   13.3697    0.6001 H   0  0  0  0  0  0  0  0  0  0  0  0
   -1.3196   14.6356    0.3465 H   0  0  0  0  0  0  0  0  0  0  0  0
   -0.0213   15.2166    1.5147 H   0  0  0  0  0  0  0  0  0  0  0  0
   -1.2440   17.0802    0.1108 H   0  0  0  0  0  0  0  0  0  0  0  0
    1.8052   15.9206   -2.2669 H   0  0  0  0  0  0  0  0  0  0  0  0
    3.1640   17.4886    0.0118 H   0  0  0  0  0  0  0  0  0  0  0  0
    3.9829   16.6818   -1.3987 H   0  0  0  0  0  0  0  0  0  0  0  0
    3.8059   19.1313   -1.6950 H   0  0  0  0  0  0  0  0  0  0  0  0
    2.8877   18.2009   -2.9428 H   0  0  0  0  0  0  0  0  0  0  0  0
    1.5483   20.0590   -2.2262 H   0  0  0  0  0  0  0  0  0  0  0  0
    2.1440   20.6210   -0.2190 H   0  0  0  0  0  0  0  0  0  0  0  0
   -0.7214   17.3340   -3.2093 H   0  0  0  0  0  0  0  0  0  0  0  0
   -0.2340   19.0135   -3.6194 H   0  0  0  0  0  0  0  0  0  0  0  0
    0.9891   17.6980   -3.6194 H   0  0  0  0  0  0  0  0  0  0  0  0
   -0.8051   19.1825   -0.0001 H   0  0  0  0  0  0  0  0  0  0  0  0
   -0.7334   20.2260   -1.4604 H   0  0  0  0  0  0  0  0  0  0  0  0
   -1.7577   18.7504   -1.4604 H   0  0  0  0  0  0  0  0  0  0  0  0
    2.0340   14.8555    1.7424 H   0  0  0  0  0  0  0  0  0  0  0  0
    3.6550   14.5389    1.0364 H   0  0  0  0  0  0  0  0  0  0  0  0
    2.9853   16.2057    1.0364 H   0  0  0  0  0  0  0  0  0  0  0  0
    3.8189   14.6402   -1.7333 H   0  0  0  0  0  0  0  0  0  0  0  0
    3.5177   13.2847   -0.5062 H   0  0  0  0  0  0  0  0  0  0  0  0
    2.1589   13.6894   -3.1845 H   0  0  0  0  0  0  0  0  0  0  0  0
    3.2671   12.3570   -2.6707 H   0  0  0  0  0  0  0  0  0  0  0  0
    1.5771   11.7780    0.3168 H   0  0  0  0  0  0  0  0  0  0  0  0
    1.3503   10.3485   -0.7471 H   0  0  0  0  0  0  0  0  0  0  0  0
    2.9162   11.2287   -0.7471 H   0  0  0  0  0  0  0  0  0  0  0  0
  1  2  1  0
  2  3  1  0
  3  4  1  0
  4  5  1  0
  5  6  1  0
  6  7  1  0
  7  8  1  0
  7  9  1  0
  2 10  1  0
 10 11  1  0
 11 12  1  0
 12 13  1  0
 13 14  1  6
 13 15  1  0
 15 16  1  0
 16 17  1  0
 17 18  2  0
 18 19  1  0
 19 20  1  0
 20 21  1  0
 21 22  1  0
 22 23  1  0
 22 24  1  0
 24 25  1  0
 24 26  1  0
 19 27  1  0
 27 28  1  1
 27 29  1  0
 29 30  1  0
 30 31  1  0
 31 32  1  1
  7  5  1  0
 31 10  1  0
 31 13  1  0
 27 15  1  0
 24 18  1  0
  1 33  1  0
  1 34  1  0
  1 35  1  0
  2 36  1  6
  3 37  1  0
  3 38  1  0
  4 39  1  0
  4 40  1  0
  5 41  1  1
  8 42  1  0
  8 43  1  0
  8 44  1  0
  9 45  1  0
  9 46  1  0
  9 47  1  0
 10 48  1  6
 11 49  1  0
 11 50  1  0
 12 51  1  0
 12 52  1  0
 14 53  1  0
 14 54  1  0
 14 55  1  0
 15 56  1  1
 16 57  1  0
 16 58  1  0
 17 59  1  0
 19 60  1  6
 20 61  1  0
 20 62  1  0
 21 63  1  0
 21 64  1  0
 22 65  1  6
 23 66  1  0
 25 67  1  0
 25 68  1  0
 25 69  1  0
 26 70  1  0
 26 71  1  0
 26 72  1  0
 28 73  1  0
 28 74  1  0
 28 75  1  0
 29 76  1  0
 29 77  1  0
 30 78  1  0
 30 79  1  0
 32 80  1  0
 32 81  1  0
 32 82  1  0
M  END
>  <meeko>  (6) 
{"is_sidechain": [false], "intermolecular_energy": 2.731, "internal_energy": -0.839}

$$$$
EPH_relaxed_0001_pdb2pqr_Repair_223_r2_0001_out
     RDKit          3D

 82 86  0  0  0  0  0  0  0  0999 V2000
   -3.7420    7.1540   -3.3350 C   0  0  0  0  0  0  0  0  0  0  0  0
   -3.7810    7.2660   -1.8080 C   0  0  2  0  0  0  0  0  0  0  0  0
   -5.2050    7.0750   -1.2480 C   0  0  0  0  0  0  0  0  0  0  0  0
   -6.3070    7.2550   -2.2950 C   0  0  0  0  0  0  0  0  0  0  0  0
   -7.6450    7.4790   -1.6590 C   0  0  2  0  0  0  0  0  0  0  0  0
   -8.2560    6.3010   -1.1170 O   0  0  0  0  0  0  0  0  0  0  0  0
   -8.9420    6.9220   -2.2160 C   0  0  0  0  0  0  0  0  0  0  0  0
   -8.9630    6.0960   -3.4640 C   0  0  0  0  0  0  0  0  0  0  0  0
  -10.2290    7.5800   -1.8300 C   0  0  0  0  0  0  0  0  0  0  0  0
   -3.2260    8.6160   -1.3720 C   0  0  1  0  0  0  0  0  0  0  0  0
   -3.8300    9.1050   -0.0280 C   0  0  0  0  0  0  0  0  0  0  0  0
   -2.7040    9.8650    0.7180 C   0  0  0  0  0  0  0  0  0  0  0  0
   -1.6030   10.0770   -0.3480 C   0  0  1  0  0  0  0  0  0  0  0  0
   -2.0720   11.3200   -1.1670 C   0  0  0  0  0  0  0  0  0  0  0  0
   -0.1460   10.2560    0.1900 C   0  0  2  0  0  0  0  0  0  0  0  0
    0.0740   11.4910    1.0800 C   0  0  0  0  0  0  0  0  0  0  0  0
    0.4870   12.7320    0.3590 C   0  0  0  0  0  0  0  0  0  0  0  0
    0.9500   12.7850   -0.9040 C   0  0  0  0  0  0  0  0  0  0  0  0
    1.1890   11.5010   -1.7100 C   0  0  1  0  0  0  0  0  0  0  0  0
    2.5740   11.5760   -2.4040 C   0  0  0  0  0  0  0  0  0  0  0  0
    2.7370   12.8350   -3.2500 C   0  0  0  0  0  0  0  0  0  0  0  0
    2.5500   14.0900   -2.4020 C   0  0  2  0  0  0  0  0  0  0  0  0
    3.6260   14.1760   -1.4630 O   0  0  0  0  0  0  0  0  0  0  0  0
    1.1920   14.1220   -1.6460 C   0  0  0  0  0  0  0  0  0  0  0  0
    0.0380   14.3330   -2.6570 C   0  0  0  0  0  0  0  0  0  0  0  0
    1.1910   15.3680   -0.7200 C   0  0  0  0  0  0  0  0  0  0  0  0
    0.9740   10.1380   -0.9220 C   0  0  1  0  0  0  0  0  0  0  0  0
    2.2890    9.7350   -0.1870 C   0  0  0  0  0  0  0  0  0  0  0  0
    0.6730    8.9890   -1.9550 C   0  0  0  0  0  0  0  0  0  0  0  0
   -0.8010    8.7840   -2.3560 C   0  0  0  0  0  0  0  0  0  0  0  0
   -1.7000    8.7100   -1.1180 C   0  0  2  0  0  0  0  0  0  0  0  0
   -1.2670    7.4560   -0.2860 C   0  0  0  0  0  0  0  0  0  0  0  0
   -3.3926    6.1507   -3.6203 H   0  0  0  0  0  0  0  0  0  0  0  0
   -4.7509    7.3201   -3.7407 H   0  0  0  0  0  0  0  0  0  0  0  0
   -3.0545    7.9108   -3.7407 H   0  0  0  0  0  0  0  0  0  0  0  0
   -3.1555    6.4581   -1.4005 H   0  0  0  0  0  0  0  0  0  0  0  0
   -5.2820    6.0588   -0.8339 H   0  0  0  0  0  0  0  0  0  0  0  0
   -5.3571    7.8519   -0.4843 H   0  0  0  0  0  0  0  0  0  0  0  0
   -6.0619    8.1230   -2.9248 H   0  0  0  0  0  0  0  0  0  0  0  0
   -6.3627    6.3351   -2.8956 H   0  0  0  0  0  0  0  0  0  0  0  0
   -7.3514    8.4919   -1.3461 H   0  0  0  0  0  0  0  0  0  0  0  0
   -8.9901    5.0292   -3.1972 H   0  0  0  0  0  0  0  0  0  0  0  0
   -9.8550    6.3487   -4.0560 H   0  0  0  0  0  0  0  0  0  0  0  0
   -8.0593    6.3031   -4.0560 H   0  0  0  0  0  0  0  0  0  0  0  0
  -10.3062    7.6195   -0.7334 H   0  0  0  0  0  0  0  0  0  0  0  0
  -10.2547    8.6019   -2.2364 H   0  0  0  0  0  0  0  0  0  0  0  0
  -11.0724    7.0025   -2.2364 H   0  0  0  0  0  0  0  0  0  0  0  0
   -3.4992    9.2193   -2.2503 H   0  0  0  0  0  0  0  0  0  0  0  0
   -4.6799    9.7773   -0.2170 H   0  0  0  0  0  0  0  0  0  0  0  0
   -4.1989    8.2589    0.5703 H   0  0  0  0  0  0  0  0  0  0  0  0
   -3.0711   10.8312    1.0944 H   0  0  0  0  0  0  0  0  0  0  0  0
   -2.3355    9.3101    1.5934 H   0  0  0  0  0  0  0  0  0  0  0  0
   -2.3743   12.1212   -0.4766 H   0  0  0  0  0  0  0  0  0  0  0  0
   -1.2458   11.6745   -1.8008 H   0  0  0  0  0  0  0  0  0  0  0  0
   -2.9264   11.0404   -1.8008 H   0  0  0  0  0  0  0  0  0  0  0  0
   -0.0309    9.3861    0.8533 H   0  0  0  0  0  0  0  0  0  0  0  0
   -0.8680   11.7020    1.6074 H   0  0  0  0  0  0  0  0  0  0  0  0
    0.9078   11.2375    1.7512 H   0  0  0  0  0  0  0  0  0  0  0  0
    0.4061   13.6829    0.9061 H   0  0  0  0  0  0  0  0  0  0  0  0
    0.3931   11.4650   -2.4684 H   0  0  0  0  0  0  0  0  0  0  0  0
    3.3567   11.5668   -1.6311 H   0  0  0  0  0  0  0  0  0  0  0  0
    2.6582   10.7091   -3.0758 H   0  0  0  0  0  0  0  0  0  0  0  0
    3.7450   12.8449   -3.6902 H   0  0  0  0  0  0  0  0  0  0  0  0
    1.9721   12.8282   -4.0405 H   0  0  0  0  0  0  0  0  0  0  0  0
    2.5488   14.9525   -3.0847 H   0  0  0  0  0  0  0  0  0  0  0  0
    4.2670   14.8200   -1.8080 H   0  0  0  0  0  0  0  0  0  0  0  0
   -0.9012   14.5047   -2.1108 H   0  0  0  0  0  0  0  0  0  0  0  0
    0.2593   15.2056   -3.2892 H   0  0  0  0  0  0  0  0  0  0  0  0
   -0.0638   13.4386   -3.2892 H   0  0  0  0  0  0  0  0  0  0  0  0
    1.1913   15.0437    0.3311 H   0  0  0  0  0  0  0  0  0  0  0  0
    2.0887   15.9723   -0.9175 H   0  0  0  0  0  0  0  0  0  0  0  0
    0.2924   15.9709   -0.9175 H   0  0  0  0  0  0  0  0  0  0  0  0
    2.1308    9.7835    0.9005 H   0  0  0  0  0  0  0  0  0  0  0  0
    2.5687    8.7099   -0.4715 H   0  0  0  0  0  0  0  0  0  0  0  0
    3.0950   10.4274   -0.4715 H   0  0  0  0  0  0  0  0  0  0  0  0
    1.2399    9.2087   -2.8717 H   0  0  0  0  0  0  0  0  0  0  0  0
    0.9646    8.0592   -1.4446 H   0  0  0  0  0  0  0  0  0  0  0  0
   -1.1234    9.6267   -2.9852 H   0  0  0  0  0  0  0  0  0  0  0  0
   -0.8860    7.8367   -2.9087 H   0  0  0  0  0  0  0  0  0  0  0  0
   -1.3455    7.6832    0.7874 H   0  0  0  0  0  0  0  0  0  0  0  0
   -1.9247    6.6088   -0.5305 H   0  0  0  0  0  0  0  0  0  0  0  0
   -0.2267    7.1951   -0.5305 H   0  0  0  0  0  0  0  0  0  0  0  0
  1  2  1  0
  2  3  1  0
  3  4  1  0
  4  5  1  0
  5  6  1  0
  6  7  1  0
  7  8  1  0
  7  9  1  0
  2 10  1  0
 10 11  1  0
 11 12  1  0
 12 13  1  0
 13 14  1  6
 13 15  1  0
 15 16  1  0
 16 17  1  0
 17 18  2  0
 18 19  1  0
 19 20  1  0
 20 21  1  0
 21 22  1  0
 22 23  1  0
 22 24  1  0
 24 25  1  0
 24 26  1  0
 19 27  1  0
 27 28  1  1
 27 29  1  0
 29 30  1  0
 30 31  1  0
 31 32  1  1
  7  5  1  0
 31 10  1  0
 31 13  1  0
 27 15  1  0
 24 18  1  0
  1 33  1  0
  1 34  1  0
  1 35  1  0
  2 36  1  1
  3 37  1  0
  3 38  1  0
  4 39  1  0
  4 40  1  0
  5 41  1  1
  8 42  1  0
  8 43  1  0
  8 44  1  0
  9 45  1  0
  9 46  1  0
  9 47  1  0
 10 48  1  6
 11 49  1  0
 11 50  1  0
 12 51  1  0
 12 52  1  0
 14 53  1  0
 14 54  1  0
 14 55  1  0
 15 56  1  1
 16 57  1  0
 16 58  1  0
 17 59  1  0
 19 60  1  6
 20 61  1  0
 20 62  1  0
 21 63  1  0
 21 64  1  0
 22 65  1  6
 23 66  1  0
 25 67  1  0
 25 68  1  0
 25 69  1  0
 26 70  1  0
 26 71  1  0
 26 72  1  0
 28 73  1  0
 28 74  1  0
 28 75  1  0
 29 76  1  0
 29 77  1  0
 30 78  1  0
 30 79  1  0
 32 80  1  0
 32 81  1  0
 32 82  1  0
M  END
>  <meeko>  (7) 
{"is_sidechain": [false], "intermolecular_energy": 2.731, "internal_energy": -0.839}

$$$$
EPH_relaxed_0001_pdb2pqr_Repair_223_r2_0001_out
     RDKit          3D

 82 86  0  0  0  0  0  0  0  0999 V2000
   -0.8490   16.3440   -5.8290 C   0  0  0  0  0  0  0  0  0  0  0  0
    0.2380   15.6400   -6.6460 C   0  0  2  0  0  0  0  0  0  0  0  0
   -0.1670   15.4650   -8.1230 C   0  0  0  0  0  0  0  0  0  0  0  0
    0.4650   16.4980   -9.0610 C   0  0  0  0  0  0  0  0  0  0  0  0
    1.8650   16.1190   -9.4400 C   0  0  2  0  0  0  0  0  0  0  0  0
    2.3260   16.6860  -10.6730 O   0  0  0  0  0  0  0  0  0  0  0  0
    2.2020   15.2550  -10.6410 C   0  0  0  0  0  0  0  0  0  0  0  0
    1.1330   14.7170  -11.5390 C   0  0  0  0  0  0  0  0  0  0  0  0
    3.5140   14.5360  -10.6590 C   0  0  0  0  0  0  0  0  0  0  0  0
    0.5540   14.2820   -6.0290 C   0  0  1  0  0  0  0  0  0  0  0  0
    1.8170   13.6250   -6.6460 C   0  0  0  0  0  0  0  0  0  0  0  0
    2.5230   12.8520   -5.5020 C   0  0  0  0  0  0  0  0  0  0  0  0
    1.4820   12.8110   -4.3580 C   0  0  1  0  0  0  0  0  0  0  0  0
    0.5230   11.6370   -4.7300 C   0  0  0  0  0  0  0  0  0  0  0  0
    2.0520   12.6550   -2.9110 C   0  0  2  0  0  0  0  0  0  0  0  0
    2.8180   11.3470   -2.6490 C   0  0  0  0  0  0  0  0  0  0  0  0
    1.9900   10.2120   -2.1430 C   0  0  0  0  0  0  0  0  0  0  0  0
    0.7460   10.3160   -1.6390 C   0  0  0  0  0  0  0  0  0  0  0  0
    0.0850   11.6880   -1.4490 C   0  0  1  0  0  0  0  0  0  0  0  0
   -0.5620   11.7600   -0.0410 C   0  0  0  0  0  0  0  0  0  0  0  0
   -1.5260   10.6060    0.2200 C   0  0  0  0  0  0  0  0  0  0  0  0
   -0.8180    9.2610    0.0780 C   0  0  2  0  0  0  0  0  0  0  0  0
    0.1470    9.1350    1.1270 O   0  0  0  0  0  0  0  0  0  0  0  0
   -0.1200    9.0780   -1.2990 C   0  0  0  0  0  0  0  0  0  0  0  0
   -1.1890    8.9130   -2.4070 C   0  0  0  0  0  0  0  0  0  0  0  0
    0.6730    7.7440   -1.2580 C   0  0  0  0  0  0  0  0  0  0  0  0
    1.0010   12.9480   -1.7650 C   0  0  1  0  0  0  0  0  0  0  0  0
    1.8200   13.3420   -0.4980 C   0  0  0  0  0  0  0  0  0  0  0  0
    0.0800   14.1810   -2.0990 C   0  0  0  0  0  0  0  0  0  0  0  0
   -0.3520   14.3480   -3.5690 C   0  0  0  0  0  0  0  0  0  0  0  0
    0.8530   14.2440   -4.5090 C   0  0  2  0  0  0  0  0  0  0  0  0
    1.8250   15.4260   -4.1740 C   0  0  0  0  0  0  0  0  0  0  0  0
   -0.6448   16.2118   -4.7562 H   0  0  0  0  0  0  0  0  0  0  0  0
   -0.8533   17.4168   -6.0719 H   0  0  0  0  0  0  0  0  0  0  0  0
   -1.8298   15.9091   -6.0719 H   0  0  0  0  0  0  0  0  0  0  0  0
    1.1342   16.2775   -6.6227 H   0  0  0  0  0  0  0  0  0  0  0  0
    0.1428   14.4620   -8.4516 H   0  0  0  0  0  0  0  0  0  0  0  0
   -1.2566   15.6061   -8.1766 H   0  0  0  0  0  0  0  0  0  0  0  0
   -0.1443   16.5705   -9.9740 H   0  0  0  0  0  0  0  0  0  0  0  0
    0.5015   17.4629   -8.5340 H   0  0  0  0  0  0  0  0  0  0  0  0
    2.1601   16.0592   -8.3820 H   0  0  0  0  0  0  0  0  0  0  0  0
    0.3150   14.3053  -10.9295 H   0  0  0  0  0  0  0  0  0  0  0  0
    0.7453   15.5273  -12.1738 H   0  0  0  0  0  0  0  0  0  0  0  0
    1.5528   13.9228  -12.1738 H   0  0  0  0  0  0  0  0  0  0  0  0
    3.8465   14.3538   -9.6264 H   0  0  0  0  0  0  0  0  0  0  0  0
    3.3984   13.5752  -11.1819 H   0  0  0  0  0  0  0  0  0  0  0  0
    4.2617   15.1504  -11.1819 H   0  0  0  0  0  0  0  0  0  0  0  0
   -0.3905   13.7591   -6.2399 H   0  0  0  0  0  0  0  0  0  0  0  0
    1.5290   12.9319   -7.4502 H   0  0  0  0  0  0  0  0  0  0  0  0
    2.4845   14.3835   -7.0809 H   0  0  0  0  0  0  0  0  0  0  0  0
    2.7849   11.8337   -5.8253 H   0  0  0  0  0  0  0  0  0  0  0  0
    3.4636   13.3315   -5.1931 H   0  0  0  0  0  0  0  0  0  0  0  0
    0.1414   11.1698   -3.8102 H   0  0  0  0  0  0  0  0  0  0  0  0
   -0.3197   12.0251   -5.3210 H   0  0  0  0  0  0  0  0  0  0  0  0
    1.0715   10.8887   -5.3210 H   0  0  0  0  0  0  0  0  0  0  0  0
    2.8044   13.4562   -2.8668 H   0  0  0  0  0  0  0  0  0  0  0  0
    3.2852   11.0319   -3.5937 H   0  0  0  0  0  0  0  0  0  0  0  0
    3.5422   11.5734   -1.8526 H   0  0  0  0  0  0  0  0  0  0  0  0
    2.4338    9.2064   -2.1857 H   0  0  0  0  0  0  0  0  0  0  0  0
   -0.6943   11.7605   -2.2219 H   0  0  0  0  0  0  0  0  0  0  0  0
    0.2359   11.7308    0.7156 H   0  0  0  0  0  0  0  0  0  0  0  0
   -1.1383   12.6953    0.0141 H   0  0  0  0  0  0  0  0  0  0  0  0
   -1.9271   10.6957    1.2403 H   0  0  0  0  0  0  0  0  0  0  0  0
   -2.3396   10.6542   -0.5187 H   0  0  0  0  0  0  0  0  0  0  0  0
   -1.5851    8.4757    0.1474 H   0  0  0  0  0  0  0  0  0  0  0  0
   -0.2800    8.6640    1.8640 H   0  0  0  0  0  0  0  0  0  0  0  0
   -2.1756    8.7607   -1.9449 H   0  0  0  0  0  0  0  0  0  0  0  0
   -1.2124    9.8182   -3.0316 H   0  0  0  0  0  0  0  0  0  0  0  0
   -0.9384    8.0429   -3.0316 H   0  0  0  0  0  0  0  0  0  0  0  0
    0.8463    7.4525   -0.2116 H   0  0  0  0  0  0  0  0  0  0  0  0
    0.0953    6.9582   -1.7667 H   0  0  0  0  0  0  0  0  0  0  0  0
    1.6393    7.8761   -1.7667 H   0  0  0  0  0  0  0  0  0  0  0  0
    1.2532   13.0693    0.4044 H   0  0  0  0  0  0  0  0  0  0  0  0
    2.7817   12.8080   -0.5023 H   0  0  0  0  0  0  0  0  0  0  0  0
    2.0029   14.4267   -0.5023 H   0  0  0  0  0  0  0  0  0  0  0  0
   -0.8329   14.0884   -1.4924 H   0  0  0  0  0  0  0  0  0  0  0  0
    0.6933   15.0667   -1.8770 H   0  0  0  0  0  0  0  0  0  0  0  0
   -1.0759   13.5598   -3.8232 H   0  0  0  0  0  0  0  0  0  0  0  0
   -0.8072   15.3420   -3.6904 H   0  0  0  0  0  0  0  0  0  0  0  0
    1.9116   15.5314   -3.0825 H   0  0  0  0  0  0  0  0  0  0  0  0
    2.8166   15.2178   -4.6021 H   0  0  0  0  0  0  0  0  0  0  0  0
    1.4292   16.3588   -4.6021 H   0  0  0  0  0  0  0  0  0  0  0  0
  1  2  1  0
  2  3  1  0
  3  4  1  0
  4  5  1  0
  5  6  1  0
  6  7  1  0
  7  8  1  0
  7  9  1  0
  2 10  1  0
 10 11  1  0
 11 12  1  0
 12 13  1  0
 13 14  1  6
 13 15  1  0
 15 16  1  0
 16 17  1  0
 17 18  2  0
 18 19  1  0
 19 20  1  0
 20 21  1  0
 21 22  1  0
 22 23  1  0
 22 24  1  0
 24 25  1  0
 24 26  1  0
 19 27  1  0
 27 28  1  1
 27 29  1  0
 29 30  1  0
 30 31  1  0
 31 32  1  1
  7  5  1  0
 31 10  1  0
 31 13  1  0
 27 15  1  0
 24 18  1  0
  1 33  1  0
  1 34  1  0
  1 35  1  0
  2 36  1  6
  3 37  1  0
  3 38  1  0
  4 39  1  0
  4 40  1  0
  5 41  1  1
  8 42  1  0
  8 43  1  0
  8 44  1  0
  9 45  1  0
  9 46  1  0
  9 47  1  0
 10 48  1  1
 11 49  1  0
 11 50  1  0
 12 51  1  0
 12 52  1  0
 14 53  1  0
 14 54  1  0
 14 55  1  0
 15 56  1  6
 16 57  1  0
 16 58  1  0
 17 59  1  0
 19 60  1  6
 20 61  1  0
 20 62  1  0
 21 63  1  0
 21 64  1  0
 22 65  1  1
 23 66  1  0
 25 67  1  0
 25 68  1  0
 25 69  1  0
 26 70  1  0
 26 71  1  0
 26 72  1  0
 28 73  1  0
 28 74  1  0
 28 75  1  0
 29 76  1  0
 29 77  1  0
 30 78  1  0
 30 79  1  0
 32 80  1  0
 32 81  1  0
 32 82  1  0
M  END
>  <meeko>  (8) 
{"is_sidechain": [false], "intermolecular_energy": 2.731, "internal_energy": -0.839}

$$$$
EPH_relaxed_0001_pdb2pqr_Repair_223_r2_0001_out
     RDKit          3D

 82 86  0  0  0  0  0  0  0  0999 V2000
   -2.2680    7.8110   -2.1690 C   0  0  0  0  0  0  0  0  0  0  0  0
   -2.2660    8.4280   -0.7680 C   0  0  2  0  0  0  0  0  0  0  0  0
   -3.6670    8.4110   -0.1240 C   0  0  0  0  0  0  0  0  0  0  0  0
   -4.8120    8.4420   -1.1400 C   0  0  0  0  0  0  0  0  0  0  0  0
   -5.6210    7.1810   -1.1030 C   0  0  2  0  0  0  0  0  0  0  0  0
   -5.8010    6.5480   -2.3770 O   0  0  0  0  0  0  0  0  0  0  0  0
   -6.9900    7.0470   -1.7430 C   0  0  0  0  0  0  0  0  0  0  0  0
   -7.6300    8.1910   -2.4650 C   0  0  0  0  0  0  0  0  0  0  0  0
   -7.9070    5.9700   -1.2510 C   0  0  0  0  0  0  0  0  0  0  0  0
   -1.7400    9.8570   -0.8310 C   0  0  1  0  0  0  0  0  0  0  0  0
   -1.3190   10.4000    0.5610 C   0  0  0  0  0  0  0  0  0  0  0  0
   -0.0950   11.3240    0.3290 C   0  0  0  0  0  0  0  0  0  0  0  0
   -0.0580   11.5450   -1.2010 C   0  0  1  0  0  0  0  0  0  0  0  0
   -1.1120   12.6640   -1.4700 C   0  0  0  0  0  0  0  0  0  0  0  0
    1.3350   11.9050   -1.8140 C   0  0  2  0  0  0  0  0  0  0  0  0
    1.9450   13.2270   -1.3160 C   0  0  0  0  0  0  0  0  0  0  0  0
    1.5930   14.4340   -2.1220 C   0  0  0  0  0  0  0  0  0  0  0  0
    1.0570   14.4220   -3.3560 C   0  0  0  0  0  0  0  0  0  0  0  0
    0.8410   13.1020   -4.1080 C   0  0  1  0  0  0  0  0  0  0  0  0
    1.3530   13.2460   -5.5650 C   0  0  0  0  0  0  0  0  0  0  0  0
    0.7330   14.4370   -6.2880 C   0  0  0  0  0  0  0  0  0  0  0  0
    1.0190   15.7380   -5.5420 C   0  0  2  0  0  0  0  0  0  0  0  0
    2.4240   16.0040   -5.6000 O   0  0  0  0  0  0  0  0  0  0  0  0
    0.5550   15.7070   -4.0590 C   0  0  0  0  0  0  0  0  0  0  0  0
   -0.9930   15.7220   -3.9970 C   0  0  0  0  0  0  0  0  0  0  0  0
    1.0280   17.0220   -3.3830 C   0  0  0  0  0  0  0  0  0  0  0  0
    1.3970   11.7970   -3.3910 C   0  0  1  0  0  0  0  0  0  0  0  0
    2.8960   11.5830   -3.7640 C   0  0  0  0  0  0  0  0  0  0  0  0
    0.6200   10.5400   -3.9360 C   0  0  0  0  0  0  0  0  0  0  0  0
   -0.6880   10.1650   -3.2130 C   0  0  0  0  0  0  0  0  0  0  0  0
   -0.4810   10.1140   -1.6960 C   0  0  2  0  0  0  0  0  0  0  0  0
    0.5590    8.9820   -1.3930 C   0  0  0  0  0  0  0  0  0  0  0  0
   -2.2716    6.7141   -2.0866 H   0  0  0  0  0  0  0  0  0  0  0  0
   -3.1651    8.1407   -2.7136 H   0  0  0  0  0  0  0  0  0  0  0  0
   -1.3688    8.1349   -2.7136 H   0  0  0  0  0  0  0  0  0  0  0  0
   -1.6051    7.8153   -0.1373 H   0  0  0  0  0  0  0  0  0  0  0  0
   -3.7615    7.4951    0.4778 H   0  0  0  0  0  0  0  0  0  0  0  0
   -3.7522    9.3236    0.4842 H   0  0  0  0  0  0  0  0  0  0  0  0
   -5.4691    9.2938   -0.9105 H   0  0  0  0  0  0  0  0  0  0  0  0
   -4.3757    8.5398   -2.1450 H   0  0  0  0  0  0  0  0  0  0  0  0
   -5.2521    6.9454   -0.0938 H   0  0  0  0  0  0  0  0  0  0  0  0
   -8.0311    8.9079   -1.7335 H   0  0  0  0  0  0  0  0  0  0  0  0
   -6.8808    8.6915   -3.0961 H   0  0  0  0  0  0  0  0  0  0  0  0
   -8.4485    7.8145   -3.0961 H   0  0  0  0  0  0  0  0  0  0  0  0
   -7.9106    5.9657   -0.1510 H   0  0  0  0  0  0  0  0  0  0  0  0
   -8.9258    6.1589   -1.6203 H   0  0  0  0  0  0  0  0  0  0  0  0
   -7.5581    4.9944   -1.6203 H   0  0  0  0  0  0  0  0  0  0  0  0
   -2.6123   10.3552   -1.2792 H   0  0  0  0  0  0  0  0  0  0  0  0
   -2.1448   10.9709    1.0106 H   0  0  0  0  0  0  0  0  0  0  0  0
   -1.0686    9.5772    1.2468 H   0  0  0  0  0  0  0  0  0  0  0  0
   -0.2249   12.2805    0.8565 H   0  0  0  0  0  0  0  0  0  0  0  0
    0.8384   10.8837    0.7097 H   0  0  0  0  0  0  0  0  0  0  0  0
   -1.4822   13.0570   -0.5116 H   0  0  0  0  0  0  0  0  0  0  0  0
   -0.6446   13.4777   -2.0440 H   0  0  0  0  0  0  0  0  0  0  0  0
   -1.9521   12.2460   -2.0440 H   0  0  0  0  0  0  0  0  0  0  0  0
    1.9810   11.1092   -1.4147 H   0  0  0  0  0  0  0  0  0  0  0  0
    1.5997   13.3939   -0.2850 H   0  0  0  0  0  0  0  0  0  0  0  0
    3.0355   13.1108   -1.4012 H   0  0  0  0  0  0  0  0  0  0  0  0
    1.7886   15.4167   -1.6680 H   0  0  0  0  0  0  0  0  0  0  0  0
   -0.2450   12.9273   -4.1104 H   0  0  0  0  0  0  0  0  0  0  0  0
    2.4451   13.3760   -5.5437 H   0  0  0  0  0  0  0  0  0  0  0  0
    1.0640   12.3363   -6.1118 H   0  0  0  0  0  0  0  0  0  0  0  0
    1.1558   14.5028   -7.3014 H   0  0  0  0  0  0  0  0  0  0  0  0
   -0.3563   14.2912   -6.3342 H   0  0  0  0  0  0  0  0  0  0  0  0
    0.4432   16.5348   -6.0355 H   0  0  0  0  0  0  0  0  0  0  0  0
    2.5730   16.8860   -5.2190 H   0  0  0  0  0  0  0  0  0  0  0  0
   -1.3179   15.7251   -2.9461 H   0  0  0  0  0  0  0  0  0  0  0  0
   -1.3714   16.6239   -4.5005 H   0  0  0  0  0  0  0  0  0  0  0  0
   -1.3888   14.8276   -4.5005 H   0  0  0  0  0  0  0  0  0  0  0  0
    0.9869   16.9076   -2.2897 H   0  0  0  0  0  0  0  0  0  0  0  0
    2.0613   17.2411   -3.6901 H   0  0  0  0  0  0  0  0  0  0  0  0
    0.3710   17.8491   -3.6901 H   0  0  0  0  0  0  0  0  0  0  0  0
    3.4940   11.4976   -2.8447 H   0  0  0  0  0  0  0  0  0  0  0  0
    2.9987   10.6611   -4.3552 H   0  0  0  0  0  0  0  0  0  0  0  0
    3.2526   12.4393   -4.3552 H   0  0  0  0  0  0  0  0  0  0  0  0
    0.3740   10.7323   -4.9907 H   0  0  0  0  0  0  0  0  0  0  0  0
    1.2960    9.6886   -3.7684 H   0  0  0  0  0  0  0  0  0  0  0  0
   -1.4563   10.9169   -3.4462 H   0  0  0  0  0  0  0  0  0  0  0  0
   -1.0060    9.1698   -3.5572 H   0  0  0  0  0  0  0  0  0  0  0  0
    0.6667    8.8648   -0.3046 H   0  0  0  0  0  0  0  0  0  0  0  0
    0.2088    8.0356   -1.8308 H   0  0  0  0  0  0  0  0  0  0  0  0
    1.5316    9.2509   -1.8308 H   0  0  0  0  0  0  0  0  0  0  0  0
  1  2  1  0
  2  3  1  0
  3  4  1  0
  4  5  1  0
  5  6  1  0
  6  7  1  0
  7  8  1  0
  7  9  1  0
  2 10  1  0
 10 11  1  0
 11 12  1  0
 12 13  1  0
 13 14  1  1
 13 15  1  0
 15 16  1  0
 16 17  1  0
 17 18  2  0
 18 19  1  0
 19 20  1  0
 20 21  1  0
 21 22  1  0
 22 23  1  0
 22 24  1  0
 24 25  1  0
 24 26  1  0
 19 27  1  0
 27 28  1  1
 27 29  1  0
 29 30  1  0
 30 31  1  0
 31 32  1  6
  7  5  1  0
 31 10  1  0
 31 13  1  0
 27 15  1  0
 24 18  1  0
  1 33  1  0
  1 34  1  0
  1 35  1  0
  2 36  1  1
  3 37  1  0
  3 38  1  0
  4 39  1  0
  4 40  1  0
  5 41  1  1
  8 42  1  0
  8 43  1  0
  8 44  1  0
  9 45  1  0
  9 46  1  0
  9 47  1  0
 10 48  1  6
 11 49  1  0
 11 50  1  0
 12 51  1  0
 12 52  1  0
 14 53  1  0
 14 54  1  0
 14 55  1  0
 15 56  1  1
 16 57  1  0
 16 58  1  0
 17 59  1  0
 19 60  1  6
 20 61  1  0
 20 62  1  0
 21 63  1  0
 21 64  1  0
 22 65  1  6
 23 66  1  0
 25 67  1  0
 25 68  1  0
 25 69  1  0
 26 70  1  0
 26 71  1  0
 26 72  1  0
 28 73  1  0
 28 74  1  0
 28 75  1  0
 29 76  1  0
 29 77  1  0
 30 78  1  0
 30 79  1  0
 32 80  1  0
 32 81  1  0
 32 82  1  0
M  END
>  <meeko>  (9) 
{"is_sidechain": [false], "intermolecular_energy": 2.731, "internal_energy": -0.839}

$$$$
EPH_relaxed_0001_pdb2pqr_Repair_223_r2_0001_out
     RDKit          3D

 82 86  0  0  0  0  0  0  0  0999 V2000
    2.3260   11.1240   -5.4230 C   0  0  0  0  0  0  0  0  0  0  0  0
    1.6900   10.9860   -4.0370 C   0  0  2  0  0  0  0  0  0  0  0  0
    0.5760    9.9200   -4.0120 C   0  0  0  0  0  0  0  0  0  0  0  0
    0.4390    9.2040   -2.6660 C   0  0  0  0  0  0  0  0  0  0  0  0
   -0.9930    9.1070   -2.2330 C   0  0  2  0  0  0  0  0  0  0  0  0
   -1.5940   10.3570   -1.8680 O   0  0  0  0  0  0  0  0  0  0  0  0
   -1.4590    9.3870   -0.8170 C   0  0  0  0  0  0  0  0  0  0  0  0
   -0.4960    9.7840    0.2580 C   0  0  0  0  0  0  0  0  0  0  0  0
   -2.7620    8.8040   -0.3640 C   0  0  0  0  0  0  0  0  0  0  0  0
    1.1350   12.3310   -3.5830 C   0  0  1  0  0  0  0  0  0  0  0  0
   -0.4080   12.3140   -3.4160 C   0  0  0  0  0  0  0  0  0  0  0  0
   -0.7390   13.2450   -2.2220 C   0  0  0  0  0  0  0  0  0  0  0  0
    0.5740   14.0190   -1.9550 C   0  0  1  0  0  0  0  0  0  0  0  0
    0.5840   15.1680   -3.0110 C   0  0  0  0  0  0  0  0  0  0  0  0
    0.7700   14.5660   -0.5040 C   0  0  2  0  0  0  0  0  0  0  0  0
   -0.2720   15.6040   -0.0510 C   0  0  0  0  0  0  0  0  0  0  0  0
    0.0800   17.0270   -0.3340 C   0  0  0  0  0  0  0  0  0  0  0  0
    1.3030   17.4790   -0.6670 C   0  0  0  0  0  0  0  0  0  0  0  0
    2.5120   16.5340   -0.6920 C   0  0  1  0  0  0  0  0  0  0  0  0
    3.7070   17.2040    0.0360 C   0  0  0  0  0  0  0  0  0  0  0  0
    4.0340   18.5850   -0.5240 C   0  0  0  0  0  0  0  0  0  0  0  0
    2.8250   19.5120   -0.4290 C   0  0  2  0  0  0  0  0  0  0  0  0
    2.5480   19.7670    0.9520 O   0  0  0  0  0  0  0  0  0  0  0  0
    1.5560   18.9380   -1.1190 C   0  0  0  0  0  0  0  0  0  0  0  0
    1.7520   18.9440   -2.6550 C   0  0  0  0  0  0  0  0  0  0  0  0
    0.3760   19.9040   -0.8280 C   0  0  0  0  0  0  0  0  0  0  0  0
    2.2430   15.0510   -0.1880 C   0  0  1  0  0  0  0  0  0  0  0  0
    2.4140   14.9760    1.3600 C   0  0  0  0  0  0  0  0  0  0  0  0
    3.3330   14.0940   -0.8020 C   0  0  0  0  0  0  0  0  0  0  0  0
    3.0270   13.4900   -2.1860 C   0  0  0  0  0  0  0  0  0  0  0  0
    1.6230   12.8780   -2.2180 C   0  0  2  0  0  0  0  0  0  0  0  0
    1.5890   11.7040   -1.1820 C   0  0  0  0  0  0  0  0  0  0  0  0
    3.3957   11.3561   -5.3141 H   0  0  0  0  0  0  0  0  0  0  0  0
    2.2100   10.1798   -5.9753 H   0  0  0  0  0  0  0  0  0  0  0  0
    1.8291   11.9352   -5.9753 H   0  0  0  0  0  0  0  0  0  0  0  0
    2.4775   10.6560   -3.3435 H   0  0  0  0  0  0  0  0  0  0  0  0
   -0.3805   10.4119   -4.2425 H   0  0  0  0  0  0  0  0  0  0  0  0
    0.8455    9.1562   -4.7563 H   0  0  0  0  0  0  0  0  0  0  0  0
    0.8531    8.1891   -2.7583 H   0  0  0  0  0  0  0  0  0  0  0  0
    0.9871    9.7861   -1.9105 H   0  0  0  0  0  0  0  0  0  0  0  0
   -1.1660    8.2597   -2.9128 H   0  0  0  0  0  0  0  0  0  0  0  0
   -0.9487    9.5974    1.2430 H   0  0  0  0  0  0  0  0  0  0  0  0
    0.4265    9.1928    0.1605 H   0  0  0  0  0  0  0  0  0  0  0  0
   -0.2581   10.8535    0.1605 H   0  0  0  0  0  0  0  0  0  0  0  0
   -2.7947    8.7894    0.7354 H   0  0  0  0  0  0  0  0  0  0  0  0
   -3.5910    9.4170   -0.7473 H   0  0  0  0  0  0  0  0  0  0  0  0
   -2.8574    7.7774   -0.7473 H   0  0  0  0  0  0  0  0  0  0  0  0
    1.5069   12.9689   -4.3984 H   0  0  0  0  0  0  0  0  0  0  0  0
   -0.8922   12.6852   -4.3313 H   0  0  0  0  0  0  0  0  0  0  0  0
   -0.7742   11.2929   -3.2339 H   0  0  0  0  0  0  0  0  0  0  0  0
   -1.5520   13.9381   -2.4838 H   0  0  0  0  0  0  0  0  0  0  0  0
   -1.0803   12.6853   -1.3387 H   0  0  0  0  0  0  0  0  0  0  0  0
    0.5925   16.1397   -2.4955 H   0  0  0  0  0  0  0  0  0  0  0  0
    1.4814   15.0793   -3.6409 H   0  0  0  0  0  0  0  0  0  0  0  0
   -0.3148   15.0949   -3.6409 H   0  0  0  0  0  0  0  0  0  0  0  0
    0.5884   13.6723    0.1111 H   0  0  0  0  0  0  0  0  0  0  0  0
   -1.2195   15.3801   -0.5629 H   0  0  0  0  0  0  0  0  0  0  0  0
   -0.3314   15.5174    1.0440 H   0  0  0  0  0  0  0  0  0  0  0  0
   -0.7291   17.7690   -0.2644 H   0  0  0  0  0  0  0  0  0  0  0  0
    2.7589   16.3827   -1.7532 H   0  0  0  0  0  0  0  0  0  0  0  0
    3.4577   17.3060    1.1025 H   0  0  0  0  0  0  0  0  0  0  0  0
    4.5899   16.5653   -0.1144 H   0  0  0  0  0  0  0  0  0  0  0  0
    4.8661   19.0185    0.0501 H   0  0  0  0  0  0  0  0  0  0  0  0
    4.3122   18.4778   -1.5828 H   0  0  0  0  0  0  0  0  0  0  0  0
    3.0783   20.4402   -0.9622 H   0  0  0  0  0  0  0  0  0  0  0  0
    2.0390   19.0130    1.2940 H   0  0  0  0  0  0  0  0  0  0  0  0
    2.8267   18.9769   -2.8874 H   0  0  0  0  0  0  0  0  0  0  0  0
    1.3118   18.0320   -3.0844 H   0  0  0  0  0  0  0  0  0  0  0  0
    1.2568   19.8274   -3.0844 H   0  0  0  0  0  0  0  0  0  0  0  0
    0.2477   20.0090    0.2594 H   0  0  0  0  0  0  0  0  0  0  0  0
    0.5910   20.8887   -1.2686 H   0  0  0  0  0  0  0  0  0  0  0  0
   -0.5468   19.4988   -1.2686 H   0  0  0  0  0  0  0  0  0  0  0  0
    1.5113   15.3719    1.8482 H   0  0  0  0  0  0  0  0  0  0  0  0
    2.5649   13.9291    1.6619 H   0  0  0  0  0  0  0  0  0  0  0  0
    3.2864   15.5741    1.6619 H   0  0  0  0  0  0  0  0  0  0  0  0
    4.2681   14.6668   -0.8883 H   0  0  0  0  0  0  0  0  0  0  0  0
    3.3803   13.2346   -0.1170 H   0  0  0  0  0  0  0  0  0  0  0  0
    3.0919   14.2819   -2.9467 H   0  0  0  0  0  0  0  0  0  0  0  0
    3.7605   12.6968   -2.3929 H   0  0  0  0  0  0  0  0  0  0  0  0
    1.6009   12.1149   -0.1617 H   0  0  0  0  0  0  0  0  0  0  0  0
    0.6733   11.1123   -1.3283 H   0  0  0  0  0  0  0  0  0  0  0  0
    2.4689   11.0603   -1.3283 H   0  0  0  0  0  0  0  0  0  0  0  0
  1  2  1  0
  2  3  1  0
  3  4  1  0
  4  5  1  0
  5  6  1  0
  6  7  1  0
  7  8  1  0
  7  9  1  0
  2 10  1  0
 10 11  1  0
 11 12  1  0
 12 13  1  0
 13 14  1  6
 13 15  1  0
 15 16  1  0
 16 17  1  0
 17 18  2  0
 18 19  1  0
 19 20  1  0
 20 21  1  0
 21 22  1  0
 22 23  1  0
 22 24  1  0
 24 25  1  0
 24 26  1  0
 19 27  1  0
 27 28  1  1
 27 29  1  0
 29 30  1  0
 30 31  1  0
 31 32  1  1
  7  5  1  0
 31 10  1  0
 31 13  1  0
 27 15  1  0
 24 18  1  0
  1 33  1  0
  1 34  1  0
  1 35  1  0
  2 36  1  1
  3 37  1  0
  3 38  1  0
  4 39  1  0
  4 40  1  0
  5 41  1  6
  8 42  1  0
  8 43  1  0
  8 44  1  0
  9 45  1  0
  9 46  1  0
  9 47  1  0
 10 48  1  6
 11 49  1  0
 11 50  1  0
 12 51  1  0
 12 52  1  0
 14 53  1  0
 14 54  1  0
 14 55  1  0
 15 56  1  1
 16 57  1  0
 16 58  1  0
 17 59  1  0
 19 60  1  6
 20 61  1  0
 20 62  1  0
 21 63  1  0
 21 64  1  0
 22 65  1  6
 23 66  1  0
 25 67  1  0
 25 68  1  0
 25 69  1  0
 26 70  1  0
 26 71  1  0
 26 72  1  0
 28 73  1  0
 28 74  1  0
 28 75  1  0
 29 76  1  0
 29 77  1  0
 30 78  1  0
 30 79  1  0
 32 80  1  0
 32 81  1  0
 32 82  1  0
M  END
>  <meeko>  (10) 
{"is_sidechain": [false], "intermolecular_energy": 2.731, "internal_energy": -0.839}

$$$$
EPH_relaxed_0001_pdb2pqr_Repair_223_r2_0001_out
     RDKit          3D

 82 86  0  0  0  0  0  0  0  0999 V2000
    0.9170   14.9040   -2.6360 C   0  0  0  0  0  0  0  0  0  0  0  0
    1.1830   14.2300   -3.9840 C   0  0  2  0  0  0  0  0  0  0  0  0
    0.4790   14.9580   -5.1470 C   0  0  0  0  0  0  0  0  0  0  0  0
    1.0330   14.5940   -6.5270 C   0  0  0  0  0  0  0  0  0  0  0  0
    0.8150   15.6950   -7.5200 C   0  0  2  0  0  0  0  0  0  0  0  0
    0.4010   15.2550   -8.8200 O   0  0  0  0  0  0  0  0  0  0  0  0
    1.6840   15.8990   -8.7470 C   0  0  0  0  0  0  0  0  0  0  0  0
    2.8370   14.9930   -9.0460 C   0  0  0  0  0  0  0  0  0  0  0  0
    1.7160   17.2530   -9.3840 C   0  0  0  0  0  0  0  0  0  0  0  0
    0.7360   12.7740   -3.9340 C   0  0  1  0  0  0  0  0  0  0  0  0
    1.8690   11.7870   -4.3220 C   0  0  0  0  0  0  0  0  0  0  0  0
    1.6740   10.5180   -3.4530 C   0  0  0  0  0  0  0  0  0  0  0  0
    0.2620   10.6770   -2.8430 C   0  0  1  0  0  0  0  0  0  0  0  0
   -0.7150   10.2100   -3.9670 C   0  0  0  0  0  0  0  0  0  0  0  0
    0.0010    9.9200   -1.5000 C   0  0  2  0  0  0  0  0  0  0  0  0
    0.1080    8.3870   -1.5830 C   0  0  0  0  0  0  0  0  0  0  0  0
   -1.1630    7.6750   -1.9060 C   0  0  0  0  0  0  0  0  0  0  0  0
   -2.3970    8.2090   -1.8410 C   0  0  0  0  0  0  0  0  0  0  0  0
   -2.6120    9.6340   -1.3150 C   0  0  1  0  0  0  0  0  0  0  0  0
   -3.7890    9.6420   -0.3050 C   0  0  0  0  0  0  0  0  0  0  0  0
   -5.0630    9.0370   -0.8880 C   0  0  0  0  0  0  0  0  0  0  0  0
   -4.8240    7.6000   -1.3460 C   0  0  2  0  0  0  0  0  0  0  0  0
   -4.5620    6.7870   -0.1980 O   0  0  0  0  0  0  0  0  0  0  0  0
   -3.6530    7.4670   -2.3590 C   0  0  0  0  0  0  0  0  0  0  0  0
   -4.0640    8.0940   -3.7150 C   0  0  0  0  0  0  0  0  0  0  0  0
   -3.4270    5.9560   -2.6320 C   0  0  0  0  0  0  0  0  0  0  0  0
   -1.3190   10.3670   -0.7500 C   0  0  1  0  0  0  0  0  0  0  0  0
   -1.1200   10.0090    0.7550 C   0  0  0  0  0  0  0  0  0  0  0  0
   -1.5430   11.9240   -0.8100 C   0  0  0  0  0  0  0  0  0  0  0  0
   -1.1540   12.6320   -2.1220 C   0  0  0  0  0  0  0  0  0  0  0  0
    0.2530   12.2250   -2.5690 C   0  0  2  0  0  0  0  0  0  0  0  0
    1.2610   12.7010   -1.4680 C   0  0  0  0  0  0  0  0  0  0  0  0
    1.1886   14.2158   -1.8220 H   0  0  0  0  0  0  0  0  0  0  0  0
    1.5210   15.8200   -2.5585 H   0  0  0  0  0  0  0  0  0  0  0  0
   -0.1498   15.1606   -2.5585 H   0  0  0  0  0  0  0  0  0  0  0  0
    2.2658   14.2804   -4.1710 H   0  0  0  0  0  0  0  0  0  0  0  0
   -0.5898   14.6989   -5.1226 H   0  0  0  0  0  0  0  0  0  0  0  0
    0.6535   16.0347   -5.0046 H   0  0  0  0  0  0  0  0  0  0  0  0
    2.1126   14.4024   -6.4385 H   0  0  0  0  0  0  0  0  0  0  0  0
    0.5018   13.6996   -6.8847 H   0  0  0  0  0  0  0  0  0  0  0  0
    0.4903   16.3810   -6.7238 H   0  0  0  0  0  0  0  0  0  0  0  0
    3.2824   14.6430   -8.1031 H   0  0  0  0  0  0  0  0  0  0  0  0
    2.4831   14.1288   -9.6273 H   0  0  0  0  0  0  0  0  0  0  0  0
    3.5930   15.5412   -9.6273 H   0  0  0  0  0  0  0  0  0  0  0  0
    1.7343   18.0260   -8.6016 H   0  0  0  0  0  0  0  0  0  0  0  0
    2.6165   17.3429  -10.0093 H   0  0  0  0  0  0  0  0  0  0  0  0
    0.8207   17.3853  -10.0093 H   0  0  0  0  0  0  0  0  0  0  0  0
   -0.1051   12.8155   -4.6417 H   0  0  0  0  0  0  0  0  0  0  0  0
    1.7983   11.5298   -5.3892 H   0  0  0  0  0  0  0  0  0  0  0  0
    2.8589   12.2349   -4.1503 H   0  0  0  0  0  0  0  0  0  0  0  0
    1.7296    9.6107   -4.0724 H   0  0  0  0  0  0  0  0  0  0  0  0
    2.4525   10.4160   -2.6826 H   0  0  0  0  0  0  0  0  0  0  0  0
   -1.6184    9.7782   -3.5115 H   0  0  0  0  0  0  0  0  0  0  0  0
   -0.9949   11.0717   -4.5908 H   0  0  0  0  0  0  0  0  0  0  0  0
   -0.2203    9.4510   -4.5908 H   0  0  0  0  0  0  0  0  0  0  0  0
    0.8479   10.2453   -0.8779 H   0  0  0  0  0  0  0  0  0  0  0  0
    0.8436    8.1395   -2.3625 H   0  0  0  0  0  0  0  0  0  0  0  0
    0.3994    8.0478   -0.5780 H   0  0  0  0  0  0  0  0  0  0  0  0
   -1.0850    6.6249   -2.2241 H   0  0  0  0  0  0  0  0  0  0  0  0
   -2.8690   10.2457   -2.1923 H   0  0  0  0  0  0  0  0  0  0  0  0
   -3.4965    9.0612    0.5822 H   0  0  0  0  0  0  0  0  0  0  0  0
   -4.0032   10.6902   -0.0494 H   0  0  0  0  0  0  0  0  0  0  0  0
   -5.8495    9.0438   -0.1190 H   0  0  0  0  0  0  0  0  0  0  0  0
   -5.3706    9.6364   -1.7576 H   0  0  0  0  0  0  0  0  0  0  0  0
   -5.7316    7.2658   -1.8700 H   0  0  0  0  0  0  0  0  0  0  0  0
   -3.6720    7.0110    0.1230 H   0  0  0  0  0  0  0  0  0  0  0  0
   -4.6588    9.0014   -3.5341 H   0  0  0  0  0  0  0  0  0  0  0  0
   -3.1613    8.3552   -4.2868 H   0  0  0  0  0  0  0  0  0  0  0  0
   -4.6636    7.3705   -4.2868 H   0  0  0  0  0  0  0  0  0  0  0  0
   -3.3466    5.4186   -1.6756 H   0  0  0  0  0  0  0  0  0  0  0  0
   -4.2754    5.5564   -3.2070 H   0  0  0  0  0  0  0  0  0  0  0  0
   -2.4988    5.8221   -3.2070 H   0  0  0  0  0  0  0  0  0  0  0  0
   -1.5594   10.7995    1.3811 H   0  0  0  0  0  0  0  0  0  0  0  0
   -1.6151    9.0512    0.9726 H   0  0  0  0  0  0  0  0  0  0  0  0
   -0.0451    9.9239    0.9726 H   0  0  0  0  0  0  0  0  0  0  0  0
   -2.6122   12.1134   -0.6341 H   0  0  0  0  0  0  0  0  0  0  0  0
   -0.8692   12.3412   -0.0472 H   0  0  0  0  0  0  0  0  0  0  0  0
   -1.8743   12.3568   -2.9065 H   0  0  0  0  0  0  0  0  0  0  0  0
   -1.1668   13.7185   -1.9510 H   0  0  0  0  0  0  0  0  0  0  0  0
    0.8379   12.5012   -0.4725 H   0  0  0  0  0  0  0  0  0  0  0  0
    2.2099   12.1558   -1.5793 H   0  0  0  0  0  0  0  0  0  0  0  0
    1.4429   13.7801   -1.5793 H   0  0  0  0  0  0  0  0  0  0  0  0
  1  2  1  0
  2  3  1  0
  3  4  1  0
  4  5  1  0
  5  6  1  0
  6  7  1  0
  7  8  1  0
  7  9  1  0
  2 10  1  0
 10 11  1  0
 11 12  1  0
 12 13  1  0
 13 14  1  6
 13 15  1  0
 15 16  1  0
 16 17  1  0
 17 18  2  0
 18 19  1  0
 19 20  1  0
 20 21  1  0
 21 22  1  0
 22 23  1  0
 22 24  1  0
 24 25  1  0
 24 26  1  0
 19 27  1  0
 27 28  1  1
 27 29  1  0
 29 30  1  0
 30 31  1  0
 31 32  1  1
  7  5  1  0
 31 10  1  0
 31 13  1  0
 27 15  1  0
 24 18  1  0
  1 33  1  0
  1 34  1  0
  1 35  1  0
  2 36  1  6
  3 37  1  0
  3 38  1  0
  4 39  1  0
  4 40  1  0
  5 41  1  1
  8 42  1  0
  8 43  1  0
  8 44  1  0
  9 45  1  0
  9 46  1  0
  9 47  1  0
 10 48  1  6
 11 49  1  0
 11 50  1  0
 12 51  1  0
 12 52  1  0
 14 53  1  0
 14 54  1  0
 14 55  1  0
 15 56  1  1
 16 57  1  0
 16 58  1  0
 17 59  1  0
 19 60  1  6
 20 61  1  0
 20 62  1  0
 21 63  1  0
 21 64  1  0
 22 65  1  6
 23 66  1  0
 25 67  1  0
 25 68  1  0
 25 69  1  0
 26 70  1  0
 26 71  1  0
 26 72  1  0
 28 73  1  0
 28 74  1  0
 28 75  1  0
 29 76  1  0
 29 77  1  0
 30 78  1  0
 30 79  1  0
 32 80  1  0
 32 81  1  0
 32 82  1  0
M  END
>  <meeko>  (11) 
{"is_sidechain": [false], "intermolecular_energy": 2.731, "internal_energy": -0.839}

$$$$
EPH_relaxed_0001_pdb2pqr_Repair_223_r2_0001_out
     RDKit          3D

 82 86  0  0  0  0  0  0  0  0999 V2000
   -1.6900   14.9050    0.4810 C   0  0  0  0  0  0  0  0  0  0  0  0
   -0.3420   15.5990    0.2630 C   0  0  2  0  0  0  0  0  0  0  0  0
   -0.3920   16.6110   -0.8990 C   0  0  0  0  0  0  0  0  0  0  0  0
    0.0050   18.0330   -0.4940 C   0  0  0  0  0  0  0  0  0  0  0  0
    1.4320   18.1030   -0.0420 C   0  0  2  0  0  0  0  0  0  0  0  0
    2.1150   19.3110   -0.4020 O   0  0  0  0  0  0  0  0  0  0  0  0
    2.6130   18.1000   -0.9950 C   0  0  0  0  0  0  0  0  0  0  0  0
    2.4190   18.0240   -2.4770 C   0  0  0  0  0  0  0  0  0  0  0  0
    3.9510   17.6790   -0.4740 C   0  0  0  0  0  0  0  0  0  0  0  0
    0.7410   14.5590    0.0020 C   0  0  1  0  0  0  0  0  0  0  0  0
    0.8840   13.5410    1.1640 C   0  0  0  0  0  0  0  0  0  0  0  0
    1.2460   12.1770    0.5220 C   0  0  0  0  0  0  0  0  0  0  0  0
    1.6240   12.5210   -0.9370 C   0  0  1  0  0  0  0  0  0  0  0  0
    3.1010   13.0200   -0.8630 C   0  0  0  0  0  0  0  0  0  0  0  0
    1.4550   11.3710   -1.9840 C   0  0  2  0  0  0  0  0  0  0  0  0
    2.3380   10.1340   -1.7420 C   0  0  0  0  0  0  0  0  0  0  0  0
    3.6740   10.1640   -2.4080 C   0  0  0  0  0  0  0  0  0  0  0  0
    4.0380   11.0050   -3.3940 C   0  0  0  0  0  0  0  0  0  0  0  0
    3.0280   11.9840   -4.0060 C   0  0  1  0  0  0  0  0  0  0  0  0
    3.1320   11.9350   -5.5530 C   0  0  0  0  0  0  0  0  0  0  0  0
    4.5540   12.1740   -6.0530 C   0  0  0  0  0  0  0  0  0  0  0  0
    5.5170   11.1450   -5.4680 C   0  0  2  0  0  0  0  0  0  0  0  0
    5.1900    9.8550   -5.9940 O   0  0  0  0  0  0  0  0  0  0  0  0
    5.4930   11.0970   -3.9140 C   0  0  0  0  0  0  0  0  0  0  0  0
    6.1330   12.3860   -3.3430 C   0  0  0  0  0  0  0  0  0  0  0  0
    6.4020    9.9230   -3.4590 C   0  0  0  0  0  0  0  0  0  0  0  0
    1.5310   11.8500   -3.4900 C   0  0  1  0  0  0  0  0  0  0  0  0
    0.7710   10.7830   -4.3350 C   0  0  0  0  0  0  0  0  0  0  0  0
    0.7830   13.2160   -3.7230 C   0  0  0  0  0  0  0  0  0  0  0  0
    0.8880   14.2660   -2.6000 C   0  0  0  0  0  0  0  0  0  0  0  0
    0.5660   13.6450   -1.2370 C   0  0  2  0  0  0  0  0  0  0  0  0
   -0.9210   13.1530   -1.2750 C   0  0  0  0  0  0  0  0  0  0  0  0
   -1.8814   14.8064    1.5597 H   0  0  0  0  0  0  0  0  0  0  0  0
   -2.4894   15.5036    0.0199 H   0  0  0  0  0  0  0  0  0  0  0  0
   -1.6672   13.9066    0.0199 H   0  0  0  0  0  0  0  0  0  0  0  0
   -0.1057   16.1599    1.1793 H   0  0  0  0  0  0  0  0  0  0  0  0
    0.2956   16.2695   -1.6868 H   0  0  0  0  0  0  0  0  0  0  0  0
   -1.4359   16.6543   -1.2430 H   0  0  0  0  0  0  0  0  0  0  0  0
   -0.1282   18.7001   -1.3584 H   0  0  0  0  0  0  0  0  0  0  0  0
   -0.6358   18.3419    0.3450 H   0  0  0  0  0  0  0  0  0  0  0  0
    1.2034   17.5026    0.8509 H   0  0  0  0  0  0  0  0  0  0  0  0
    1.4152   17.6308   -2.6957 H   0  0  0  0  0  0  0  0  0  0  0  0
    2.5220   19.0289   -2.9123 H   0  0  0  0  0  0  0  0  0  0  0  0
    3.1772   17.3564   -2.9123 H   0  0  0  0  0  0  0  0  0  0  0  0
    3.9344   17.6842    0.6259 H   0  0  0  0  0  0  0  0  0  0  0  0
    4.1815   16.6649   -0.8324 H   0  0  0  0  0  0  0  0  0  0  0  0
    4.7207   18.3784   -0.8324 H   0  0  0  0  0  0  0  0  0  0  0  0
    1.6050   15.2248   -0.1405 H   0  0  0  0  0  0  0  0  0  0  0  0
    1.6818   13.8599    1.8509 H   0  0  0  0  0  0  0  0  0  0  0  0
   -0.0483   13.4697    1.7434 H   0  0  0  0  0  0  0  0  0  0  0  0
    2.0964   11.7151    1.0449 H   0  0  0  0  0  0  0  0  0  0  0  0
    0.4174   11.4558    0.5794 H   0  0  0  0  0  0  0  0  0  0  0  0
    3.4014   13.1215    0.1903 H   0  0  0  0  0  0  0  0  0  0  0  0
    3.7588   12.2942   -1.3636 H   0  0  0  0  0  0  0  0  0  0  0  0
    3.1838   13.9960   -1.3636 H   0  0  0  0  0  0  0  0  0  0  0  0
    0.4213   11.0395   -1.8065 H   0  0  0  0  0  0  0  0  0  0  0  0
    2.5005   10.0392   -0.6582 H   0  0  0  0  0  0  0  0  0  0  0  0
    1.7974    9.2833   -2.1825 H   0  0  0  0  0  0  0  0  0  0  0  0
    4.4245    9.4372   -2.0637 H   0  0  0  0  0  0  0  0  0  0  0  0
    3.3147   12.9823   -3.6438 H   0  0  0  0  0  0  0  0  0  0  0  0
    2.7991   10.9447   -5.8974 H   0  0  0  0  0  0  0  0  0  0  0  0
    2.4977   12.7386   -5.9554 H   0  0  0  0  0  0  0  0  0  0  0  0
    4.5677   12.0971   -7.1502 H   0  0  0  0  0  0  0  0  0  0  0  0
    4.8748   13.1767   -5.7341 H   0  0  0  0  0  0  0  0  0  0  0  0
    6.5350   11.4452   -5.7570 H   0  0  0  0  0  0  0  0  0  0  0  0
    5.9230    9.2550   -5.7790 H   0  0  0  0  0  0  0  0  0  0  0  0
    6.1145   12.3487   -2.2438 H   0  0  0  0  0  0  0  0  0  0  0  0
    7.1741   12.4631   -3.6898 H   0  0  0  0  0  0  0  0  0  0  0  0
    5.5652   13.2620   -3.6898 H   0  0  0  0  0  0  0  0  0  0  0  0
    6.4306    9.8861   -2.3600 H   0  0  0  0  0  0  0  0  0  0  0  0
    5.9995    8.9758   -3.8474 H   0  0  0  0  0  0  0  0  0  0  0  0
    7.4198   10.0755   -3.8474 H   0  0  0  0  0  0  0  0  0  0  0  0
    0.2661   10.0741   -3.6622 H   0  0  0  0  0  0  0  0  0  0  0  0
    0.0238   11.2820   -4.9695 H   0  0  0  0  0  0  0  0  0  0  0  0
    1.4869   10.2399   -4.9695 H   0  0  0  0  0  0  0  0  0  0  0  0
    1.1914   13.6669   -4.6394 H   0  0  0  0  0  0  0  0  0  0  0  0
   -0.2843   12.9547   -3.7739 H   0  0  0  0  0  0  0  0  0  0  0  0
    1.9112   14.6694   -2.5790 H   0  0  0  0  0  0  0  0  0  0  0  0
    0.1621   15.0678   -2.8005 H   0  0  0  0  0  0  0  0  0  0  0  0
   -1.2929   13.0300   -0.2471 H   0  0  0  0  0  0  0  0  0  0  0  0
   -1.5392   13.8945   -1.8023 H   0  0  0  0  0  0  0  0  0  0  0  0
   -0.9749   12.1891   -1.8023 H   0  0  0  0  0  0  0  0  0  0  0  0
  1  2  1  0
  2  3  1  0
  3  4  1  0
  4  5  1  0
  5  6  1  0
  6  7  1  0
  7  8  1  0
  7  9  1  0
  2 10  1  0
 10 11  1  0
 11 12  1  0
 12 13  1  0
 13 14  1  1
 13 15  1  0
 15 16  1  0
 16 17  1  0
 17 18  2  0
 18 19  1  0
 19 20  1  0
 20 21  1  0
 21 22  1  0
 22 23  1  0
 22 24  1  0
 24 25  1  0
 24 26  1  0
 19 27  1  0
 27 28  1  6
 27 29  1  0
 29 30  1  0
 30 31  1  0
 31 32  1  6
  7  5  1  0
 31 10  1  0
 31 13  1  0
 27 15  1  0
 24 18  1  0
  1 33  1  0
  1 34  1  0
  1 35  1  0
  2 36  1  1
  3 37  1  0
  3 38  1  0
  4 39  1  0
  4 40  1  0
  5 41  1  1
  8 42  1  0
  8 43  1  0
  8 44  1  0
  9 45  1  0
  9 46  1  0
  9 47  1  0
 10 48  1  6
 11 49  1  0
 11 50  1  0
 12 51  1  0
 12 52  1  0
 14 53  1  0
 14 54  1  0
 14 55  1  0
 15 56  1  6
 16 57  1  0
 16 58  1  0
 17 59  1  0
 19 60  1  1
 20 61  1  0
 20 62  1  0
 21 63  1  0
 21 64  1  0
 22 65  1  1
 23 66  1  0
 25 67  1  0
 25 68  1  0
 25 69  1  0
 26 70  1  0
 26 71  1  0
 26 72  1  0
 28 73  1  0
 28 74  1  0
 28 75  1  0
 29 76  1  0
 29 77  1  0
 30 78  1  0
 30 79  1  0
 32 80  1  0
 32 81  1  0
 32 82  1  0
M  END
>  <meeko>  (12) 
{"is_sidechain": [false], "intermolecular_energy": 2.731, "internal_energy": -0.839}

$$$$
EPH_relaxed_0001_pdb2pqr_Repair_223_r2_0001_out
     RDKit          3D

 82 86  0  0  0  0  0  0  0  0999 V2000
   -2.4430    7.7750   -0.0540 C   0  0  0  0  0  0  0  0  0  0  0  0
   -3.0770    9.1690   -0.0640 C   0  0  2  0  0  0  0  0  0  0  0  0
   -4.5640    9.1280   -0.4670 C   0  0  0  0  0  0  0  0  0  0  0  0
   -5.1530    7.7150   -0.5040 C   0  0  0  0  0  0  0  0  0  0  0  0
   -5.8620    7.4430   -1.7960 C   0  0  2  0  0  0  0  0  0  0  0  0
   -6.8010    8.4530   -2.1880 O   0  0  0  0  0  0  0  0  0  0  0  0
   -7.3490    7.1580   -1.8910 C   0  0  0  0  0  0  0  0  0  0  0  0
   -8.2170    7.1300   -0.6720 C   0  0  0  0  0  0  0  0  0  0  0  0
   -7.8630    6.4310   -3.0940 C   0  0  0  0  0  0  0  0  0  0  0  0
   -2.3060   10.0830   -1.0080 C   0  0  1  0  0  0  0  0  0  0  0  0
   -2.9470   11.4910   -1.1330 C   0  0  0  0  0  0  0  0  0  0  0  0
   -1.7820   12.5000   -1.2990 C   0  0  0  0  0  0  0  0  0  0  0  0
   -0.5450   11.6220   -1.5970 C   0  0  1  0  0  0  0  0  0  0  0  0
   -0.6430   11.2920   -3.1190 C   0  0  0  0  0  0  0  0  0  0  0  0
    0.8440   12.2380   -1.2280 C   0  0  2  0  0  0  0  0  0  0  0  0
    1.2120   13.5220   -1.9920 C   0  0  0  0  0  0  0  0  0  0  0  0
    1.9580   13.3130   -3.2680 C   0  0  0  0  0  0  0  0  0  0  0  0
    2.5670   12.1710   -3.6400 C   0  0  0  0  0  0  0  0  0  0  0  0
    2.6240   10.9650   -2.6950 C   0  0  1  0  0  0  0  0  0  0  0  0
    4.0660   10.3920   -2.6730 C   0  0  0  0  0  0  0  0  0  0  0  0
    4.5870   10.0650   -4.0690 C   0  0  0  0  0  0  0  0  0  0  0  0
    4.5690   11.3030   -4.9610 C   0  0  2  0  0  0  0  0  0  0  0  0
    5.5220   12.2460   -4.4610 O   0  0  0  0  0  0  0  0  0  0  0  0
    3.1690   11.9720   -5.0530 C   0  0  0  0  0  0  0  0  0  0  0  0
    2.2120   11.0670   -5.8670 C   0  0  0  0  0  0  0  0  0  0  0  0
    3.3210   13.2860   -5.8670 C   0  0  0  0  0  0  0  0  0  0  0  0
    2.0370   11.1980   -1.2370 C   0  0  1  0  0  0  0  0  0  0  0  0
    3.1430   11.7810   -0.3050 C   0  0  0  0  0  0  0  0  0  0  0  0
    1.6250    9.8090   -0.6200 C   0  0  0  0  0  0  0  0  0  0  0  0
    0.1990    9.3110   -0.9220 C   0  0  0  0  0  0  0  0  0  0  0  0
   -0.8350   10.4060   -0.6430 C   0  0  2  0  0  0  0  0  0  0  0  0
   -0.7750   10.7430    0.8860 C   0  0  0  0  0  0  0  0  0  0  0  0
   -2.2940    7.4474    0.9855 H   0  0  0  0  0  0  0  0  0  0  0  0
   -3.1074    7.0663   -0.5701 H   0  0  0  0  0  0  0  0  0  0  0  0
   -1.4722    7.8100   -0.5701 H   0  0  0  0  0  0  0  0  0  0  0  0
   -3.0245    9.5640    0.9613 H   0  0  0  0  0  0  0  0  0  0  0  0
   -5.1370    9.7242    0.2584 H   0  0  0  0  0  0  0  0  0  0  0  0
   -4.6315    9.5313   -1.4882 H   0  0  0  0  0  0  0  0  0  0  0  0
   -4.3380    6.9860   -0.3844 H   0  0  0  0  0  0  0  0  0  0  0  0
   -5.8841    7.6271    0.3132 H   0  0  0  0  0  0  0  0  0  0  0  0
   -4.9829    6.9149   -2.1940 H   0  0  0  0  0  0  0  0  0  0  0  0
   -7.5854    7.1504    0.2284 H   0  0  0  0  0  0  0  0  0  0  0  0
   -8.8807    8.0072   -0.6742 H   0  0  0  0  0  0  0  0  0  0  0  0
   -8.8228    6.2118   -0.6742 H   0  0  0  0  0  0  0  0  0  0  0  0
   -8.4702    5.5722   -2.7718 H   0  0  0  0  0  0  0  0  0  0  0  0
   -8.4817    7.1117   -3.6972 H   0  0  0  0  0  0  0  0  0  0  0  0
   -7.0149    6.0747   -3.6972 H   0  0  0  0  0  0  0  0  0  0  0  0
   -2.3417    9.4738   -1.9232 H   0  0  0  0  0  0  0  0  0  0  0  0
   -3.6091   11.5292   -2.0106 H   0  0  0  0  0  0  0  0  0  0  0  0
   -3.5524   11.7294   -0.2460 H   0  0  0  0  0  0  0  0  0  0  0  0
   -1.9802   13.1880   -2.1341 H   0  0  0  0  0  0  0  0  0  0  0  0
   -1.6430   13.1272   -0.4061 H   0  0  0  0  0  0  0  0  0  0  0  0
   -0.9540   10.2448   -3.2478 H   0  0  0  0  0  0  0  0  0  0  0  0
   -1.3830   11.9550   -3.5910 H   0  0  0  0  0  0  0  0  0  0  0  0
    0.3389   11.4436   -3.5910 H   0  0  0  0  0  0  0  0  0  0  0  0
    0.6958   12.5449   -0.1821 H   0  0  0  0  0  0  0  0  0  0  0  0
    0.2799   14.0567   -2.2269 H   0  0  0  0  0  0  0  0  0  0  0  0
    1.8887   14.0852   -1.3325 H   0  0  0  0  0  0  0  0  0  0  0  0
    2.0151   14.1637   -3.9631 H   0  0  0  0  0  0  0  0  0  0  0  0
    1.9323   10.2185   -3.1125 H   0  0  0  0  0  0  0  0  0  0  0  0
    4.7337   11.1351   -2.2126 H   0  0  0  0  0  0  0  0  0  0  0  0
    4.0442    9.4552   -2.0969 H   0  0  0  0  0  0  0  0  0  0  0  0
    5.6192    9.6929   -3.9902 H   0  0  0  0  0  0  0  0  0  0  0  0
    3.9358    9.2998   -4.5167 H   0  0  0  0  0  0  0  0  0  0  0  0
    4.8285   10.9791   -5.9797 H   0  0  0  0  0  0  0  0  0  0  0  0
    6.3680   12.0740   -4.9060 H   0  0  0  0  0  0  0  0  0  0  0  0
    1.5892   10.4781   -5.1775 H   0  0  0  0  0  0  0  0  0  0  0  0
    1.5663   11.6926   -6.5009 H   0  0  0  0  0  0  0  0  0  0  0  0
    2.8005   10.3874   -6.5009 H   0  0  0  0  0  0  0  0  0  0  0  0
    3.4193   14.1361   -5.1759 H   0  0  0  0  0  0  0  0  0  0  0  0
    4.2179   13.2230   -6.5008 H   0  0  0  0  0  0  0  0  0  0  0  0
    2.4335   13.4294   -6.5008 H   0  0  0  0  0  0  0  0  0  0  0  0
    2.8547   11.6290    0.7456 H   0  0  0  0  0  0  0  0  0  0  0  0
    4.0960   11.2681   -0.5016 H   0  0  0  0  0  0  0  0  0  0  0  0
    3.2584   12.8571   -0.5016 H   0  0  0  0  0  0  0  0  0  0  0  0
    2.3288    9.0540   -1.0003 H   0  0  0  0  0  0  0  0  0  0  0  0
    1.6534    9.9580    0.4695 H   0  0  0  0  0  0  0  0  0  0  0  0
    0.1367    9.0186   -1.9806 H   0  0  0  0  0  0  0  0  0  0  0  0
   -0.0171    8.4507   -0.2714 H   0  0  0  0  0  0  0  0  0  0  0  0
   -0.9384    9.8255    1.4704 H   0  0  0  0  0  0  0  0  0  0  0  0
    0.2120   11.1626    1.1305 H   0  0  0  0  0  0  0  0  0  0  0  0
   -1.5565   11.4775    1.1305 H   0  0  0  0  0  0  0  0  0  0  0  0
  1  2  1  0
  2  3  1  0
  3  4  1  0
  4  5  1  0
  5  6  1  0
  6  7  1  0
  7  8  1  0
  7  9  1  0
  2 10  1  0
 10 11  1  0
 11 12  1  0
 12 13  1  0
 13 14  1  6
 13 15  1  0
 15 16  1  0
 16 17  1  0
 17 18  2  0
 18 19  1  0
 19 20  1  0
 20 21  1  0
 21 22  1  0
 22 23  1  0
 22 24  1  0
 24 25  1  0
 24 26  1  0
 19 27  1  0
 27 28  1  1
 27 29  1  0
 29 30  1  0
 30 31  1  0
 31 32  1  1
  7  5  1  0
 31 10  1  0
 31 13  1  0
 27 15  1  0
 24 18  1  0
  1 33  1  0
  1 34  1  0
  1 35  1  0
  2 36  1  1
  3 37  1  0
  3 38  1  0
  4 39  1  0
  4 40  1  0
  5 41  1  6
  8 42  1  0
  8 43  1  0
  8 44  1  0
  9 45  1  0
  9 46  1  0
  9 47  1  0
 10 48  1  6
 11 49  1  0
 11 50  1  0
 12 51  1  0
 12 52  1  0
 14 53  1  0
 14 54  1  0
 14 55  1  0
 15 56  1  1
 16 57  1  0
 16 58  1  0
 17 59  1  0
 19 60  1  6
 20 61  1  0
 20 62  1  0
 21 63  1  0
 21 64  1  0
 22 65  1  6
 23 66  1  0
 25 67  1  0
 25 68  1  0
 25 69  1  0
 26 70  1  0
 26 71  1  0
 26 72  1  0
 28 73  1  0
 28 74  1  0
 28 75  1  0
 29 76  1  0
 29 77  1  0
 30 78  1  0
 30 79  1  0
 32 80  1  0
 32 81  1  0
 32 82  1  0
M  END
>  <meeko>  (13) 
{"is_sidechain": [false], "intermolecular_energy": 2.731, "internal_energy": -0.839}

$$$$
EPH_relaxed_0001_pdb2pqr_Repair_223_r2_0001_out
     RDKit          3D

 82 86  0  0  0  0  0  0  0  0999 V2000
    3.0980   14.8240   -7.5600 C   0  0  0  0  0  0  0  0  0  0  0  0
    1.5750   14.8750   -7.4040 C   0  0  2  0  0  0  0  0  0  0  0  0
    0.9660   16.1260   -8.0680 C   0  0  0  0  0  0  0  0  0  0  0  0
    1.8930   16.7970   -9.0850 C   0  0  0  0  0  0  0  0  0  0  0  0
    1.5600   16.3930  -10.4900 C   0  0  2  0  0  0  0  0  0  0  0  0
    0.9830   15.0870  -10.6160 O   0  0  0  0  0  0  0  0  0  0  0  0
    2.2690   15.2740  -11.2290 C   0  0  0  0  0  0  0  0  0  0  0  0
    3.3690   14.4890  -10.5860 C   0  0  0  0  0  0  0  0  0  0  0  0
    2.2310   15.2680  -12.7250 C   0  0  0  0  0  0  0  0  0  0  0  0
    1.2020   14.8350   -5.9270 C   0  0  1  0  0  0  0  0  0  0  0  0
   -0.0480   15.6950   -5.6030 C   0  0  0  0  0  0  0  0  0  0  0  0
   -0.8200   14.9570   -4.4790 C   0  0  0  0  0  0  0  0  0  0  0  0
    0.1700   13.8850   -3.9660 C   0  0  1  0  0  0  0  0  0  0  0  0
    1.1170   14.6490   -2.9880 C   0  0  0  0  0  0  0  0  0  0  0  0
   -0.4650   12.6260   -3.2900 C   0  0  2  0  0  0  0  0  0  0  0  0
   -1.2710   12.9090   -2.0100 C   0  0  0  0  0  0  0  0  0  0  0  0
   -0.4910   12.8520   -0.7390 C   0  0  0  0  0  0  0  0  0  0  0  0
    0.7320   12.3080   -0.5950 C   0  0  0  0  0  0  0  0  0  0  0  0
    1.4150   11.5870   -1.7640 C   0  0  1  0  0  0  0  0  0  0  0  0
    2.0030   10.2390   -1.2680 C   0  0  0  0  0  0  0  0  0  0  0  0
    2.9280   10.4110   -0.0680 C   0  0  0  0  0  0  0  0  0  0  0  0
    2.1960   11.0790    1.0940 C   0  0  2  0  0  0  0  0  0  0  0  0
    1.1850   10.1880    1.5750 O   0  0  0  0  0  0  0  0  0  0  0  0
    1.5530   12.4410    0.7100 C   0  0  0  0  0  0  0  0  0  0  0  0
    2.6650   13.4950    0.4800 C   0  0  0  0  0  0  0  0  0  0  0  0
    0.7290   12.9400    1.9280 C   0  0  0  0  0  0  0  0  0  0  0  0
    0.5430   11.4240   -3.0830 C   0  0  1  0  0  0  0  0  0  0  0  0
   -0.3210   10.1290   -2.9940 C   0  0  0  0  0  0  0  0  0  0  0  0
    1.5050   11.2310   -4.3150 C   0  0  0  0  0  0  0  0  0  0  0  0
    2.0030   12.5110   -5.0140 C   0  0  0  0  0  0  0  0  0  0  0  0
    0.8380   13.4560   -5.3220 C   0  0  2  0  0  0  0  0  0  0  0  0
   -0.1200   12.7230   -6.3220 C   0  0  0  0  0  0  0  0  0  0  0  0
    3.5681   14.8083   -6.5656 H   0  0  0  0  0  0  0  0  0  0  0  0
    3.3797   13.9159   -8.1132 H   0  0  0  0  0  0  0  0  0  0  0  0
    3.4398   15.7112   -8.1132 H   0  0  0  0  0  0  0  0  0  0  0  0
    1.1598   13.9942   -7.9156 H   0  0  0  0  0  0  0  0  0  0  0  0
    0.0410   15.8295   -8.5842 H   0  0  0  0  0  0  0  0  0  0  0  0
    0.7842   16.8581   -7.2674 H   0  0  0  0  0  0  0  0  0  0  0  0
    1.7911   17.8885   -8.9943 H   0  0  0  0  0  0  0  0  0  0  0  0
    2.9240   16.4782   -8.8718 H   0  0  0  0  0  0  0  0  0  0  0  0
    1.3430   17.4361  -10.7637 H   0  0  0  0  0  0  0  0  0  0  0  0
    3.2758   14.5555   -9.4920 H   0  0  0  0  0  0  0  0  0  0  0  0
    3.2981   13.4362  -10.8967 H   0  0  0  0  0  0  0  0  0  0  0  0
    4.3416   14.8983  -10.8967 H   0  0  0  0  0  0  0  0  0  0  0  0
    1.1976   15.1048  -13.0649 H   0  0  0  0  0  0  0  0  0  0  0  0
    2.5936   16.2345  -13.1049 H   0  0  0  0  0  0  0  0  0  0  0  0
    2.8738   14.4602  -13.1049 H   0  0  0  0  0  0  0  0  0  0  0  0
    2.1427   15.2009   -5.4898 H   0  0  0  0  0  0  0  0  0  0  0  0
    0.2583   16.6940   -5.2591 H   0  0  0  0  0  0  0  0  0  0  0  0
   -0.6787   15.8264   -6.4946 H   0  0  0  0  0  0  0  0  0  0  0  0
   -1.0910   15.6535   -3.6719 H   0  0  0  0  0  0  0  0  0  0  0  0
   -1.7620   14.5174   -4.8387 H   0  0  0  0  0  0  0  0  0  0  0  0
    0.8338   14.4205   -1.9499 H   0  0  0  0  0  0  0  0  0  0  0  0
    2.1562   14.3334   -3.1625 H   0  0  0  0  0  0  0  0  0  0  0  0
    1.0283   15.7315   -3.1625 H   0  0  0  0  0  0  0  0  0  0  0  0
   -1.2004   12.3012   -4.0409 H   0  0  0  0  0  0  0  0  0  0  0  0
   -1.7050   13.9160   -2.0974 H   0  0  0  0  0  0  0  0  0  0  0  0
   -2.0230   12.1092   -1.9413 H   0  0  0  0  0  0  0  0  0  0  0  0
   -0.9548   13.2918    0.1562 H   0  0  0  0  0  0  0  0  0  0  0  0
    2.2278   12.2492   -2.0969 H   0  0  0  0  0  0  0  0  0  0  0  0
    1.1730    9.5764   -0.9814 H   0  0  0  0  0  0  0  0  0  0  0  0
    2.5972    9.8115   -2.0891 H   0  0  0  0  0  0  0  0  0  0  0  0
    3.2878    9.4226    0.2538 H   0  0  0  0  0  0  0  0  0  0  0  0
    3.7728   11.0500   -0.3646 H   0  0  0  0  0  0  0  0  0  0  0  0
    2.9409   11.2927    1.8747 H   0  0  0  0  0  0  0  0  0  0  0  0
    1.0170   10.4090    2.5060 H   0  0  0  0  0  0  0  0  0  0  0  0
    3.0399   13.8504    1.4512 H   0  0  0  0  0  0  0  0  0  0  0  0
    3.4902   13.0396   -0.0872 H   0  0  0  0  0  0  0  0  0  0  0  0
    2.2544   14.3433   -0.0872 H   0  0  0  0  0  0  0  0  0  0  0  0
    1.2302   12.6365    2.8589 H   0  0  0  0  0  0  0  0  0  0  0  0
    0.6518   14.0368    1.8939 H   0  0  0  0  0  0  0  0  0  0  0  0
   -0.2787   12.5002    1.8939 H   0  0  0  0  0  0  0  0  0  0  0  0
   -0.4913    9.8737   -1.9377 H   0  0  0  0  0  0  0  0  0  0  0  0
   -1.2877   10.2983   -3.4908 H   0  0  0  0  0  0  0  0  0  0  0  0
    0.2065    9.3014   -3.4908 H   0  0  0  0  0  0  0  0  0  0  0  0
    2.3887   10.6781   -3.9639 H   0  0  0  0  0  0  0  0  0  0  0  0
    0.9032   10.7054   -5.0710 H   0  0  0  0  0  0  0  0  0  0  0  0
    2.7190   13.0251   -4.3559 H   0  0  0  0  0  0  0  0  0  0  0  0
    2.4852   12.2283   -5.9614 H   0  0  0  0  0  0  0  0  0  0  0  0
   -0.8699   12.1493   -5.7576 H   0  0  0  0  0  0  0  0  0  0  0  0
   -0.6271   13.4659   -6.9552 H   0  0  0  0  0  0  0  0  0  0  0  0
    0.4644   12.0393   -6.9552 H   0  0  0  0  0  0  0  0  0  0  0  0
  1  2  1  0
  2  3  1  0
  3  4  1  0
  4  5  1  0
  5  6  1  0
  6  7  1  0
  7  8  1  0
  7  9  1  0
  2 10  1  0
 10 11  1  0
 11 12  1  0
 12 13  1  0
 13 14  1  1
 13 15  1  0
 15 16  1  0
 16 17  1  0
 17 18  2  0
 18 19  1  0
 19 20  1  0
 20 21  1  0
 21 22  1  0
 22 23  1  0
 22 24  1  0
 24 25  1  0
 24 26  1  0
 19 27  1  0
 27 28  1  1
 27 29  1  0
 29 30  1  0
 30 31  1  0
 31 32  1  6
  7  5  1  0
 31 10  1  0
 31 13  1  0
 27 15  1  0
 24 18  1  0
  1 33  1  0
  1 34  1  0
  1 35  1  0
  2 36  1  6
  3 37  1  0
  3 38  1  0
  4 39  1  0
  4 40  1  0
  5 41  1  6
  8 42  1  0
  8 43  1  0
  8 44  1  0
  9 45  1  0
  9 46  1  0
  9 47  1  0
 10 48  1  1
 11 49  1  0
 11 50  1  0
 12 51  1  0
 12 52  1  0
 14 53  1  0
 14 54  1  0
 14 55  1  0
 15 56  1  6
 16 57  1  0
 16 58  1  0
 17 59  1  0
 19 60  1  6
 20 61  1  0
 20 62  1  0
 21 63  1  0
 21 64  1  0
 22 65  1  1
 23 66  1  0
 25 67  1  0
 25 68  1  0
 25 69  1  0
 26 70  1  0
 26 71  1  0
 26 72  1  0
 28 73  1  0
 28 74  1  0
 28 75  1  0
 29 76  1  0
 29 77  1  0
 30 78  1  0
 30 79  1  0
 32 80  1  0
 32 81  1  0
 32 82  1  0
M  END
>  <meeko>  (14) 
{"is_sidechain": [false], "intermolecular_energy": 2.731, "internal_energy": -0.839}

$$$$
EPH_relaxed_0001_pdb2pqr_Repair_223_r2_0001_out
     RDKit          3D

 82 86  0  0  0  0  0  0  0  0999 V2000
    0.8720   14.7370   -4.8550 C   0  0  0  0  0  0  0  0  0  0  0  0
    0.5300   14.2170   -3.4570 C   0  0  2  0  0  0  0  0  0  0  0  0
    1.6830   14.4380   -2.4570 C   0  0  0  0  0  0  0  0  0  0  0  0
    1.3330   15.3940   -1.3140 C   0  0  0  0  0  0  0  0  0  0  0  0
    1.1010   16.7890   -1.8100 C   0  0  2  0  0  0  0  0  0  0  0  0
    2.0480   17.2420   -2.7860 O   0  0  0  0  0  0  0  0  0  0  0  0
    2.0460   17.9440   -1.5320 C   0  0  0  0  0  0  0  0  0  0  0  0
    3.2930   17.7540   -0.7270 C   0  0  0  0  0  0  0  0  0  0  0  0
    1.5150   19.3400   -1.6230 C   0  0  0  0  0  0  0  0  0  0  0  0
    0.1770   12.7360   -3.5250 C   0  0  1  0  0  0  0  0  0  0  0  0
    1.4020   11.8440   -3.8610 C   0  0  0  0  0  0  0  0  0  0  0  0
    1.2160   10.5170   -3.0810 C   0  0  0  0  0  0  0  0  0  0  0  0
   -0.2510   10.5530   -2.5940 C   0  0  1  0  0  0  0  0  0  0  0  0
   -1.0940   10.0940   -3.8250 C   0  0  0  0  0  0  0  0  0  0  0  0
   -0.5780    9.7040   -1.3230 C   0  0  2  0  0  0  0  0  0  0  0  0
   -0.3630    8.1880   -1.4770 C   0  0  0  0  0  0  0  0  0  0  0  0
   -1.5530    7.4200   -1.9510 C   0  0  0  0  0  0  0  0  0  0  0  0
   -2.8200    7.8740   -1.9700 C   0  0  0  0  0  0  0  0  0  0  0  0
   -3.1720    9.2500   -1.3900 C   0  0  1  0  0  0  0  0  0  0  0  0
   -4.4310    9.1260   -0.4930 C   0  0  0  0  0  0  0  0  0  0  0  0
   -5.6070    8.4800   -1.2190 C   0  0  0  0  0  0  0  0  0  0  0  0
   -5.2360    7.0910   -1.7300 C   0  0  2  0  0  0  0  0  0  0  0  0
   -5.0210    6.2290   -0.6080 O   0  0  0  0  0  0  0  0  0  0  0  0
   -3.9750    7.0890   -2.6390 C   0  0  0  0  0  0  0  0  0  0  0  0
   -4.3060    7.7690   -3.9910 C   0  0  0  0  0  0  0  0  0  0  0  0
   -3.6270    5.6120   -2.9700 C   0  0  0  0  0  0  0  0  0  0  0  0
   -1.9850   10.0250   -0.6730 C   0  0  1  0  0  0  0  0  0  0  0  0
   -1.8940    9.5920    0.8230 C   0  0  0  0  0  0  0  0  0  0  0  0
   -2.3050   11.5670   -0.6700 C   0  0  0  0  0  0  0  0  0  0  0  0
   -1.8510   12.3730   -1.9020 C   0  0  0  0  0  0  0  0  0  0  0  0
   -0.3860   12.0780   -2.2400 C   0  0  2  0  0  0  0  0  0  0  0  0
    0.4890   12.5500   -1.0280 C   0  0  0  0  0  0  0  0  0  0  0  0
    1.4746   15.6532   -4.7682 H   0  0  0  0  0  0  0  0  0  0  0  0
    1.4440   13.9723   -5.4009 H   0  0  0  0  0  0  0  0  0  0  0  0
   -0.0568   14.9593   -5.4009 H   0  0  0  0  0  0  0  0  0  0  0  0
   -0.3364   14.7895   -3.0941 H   0  0  0  0  0  0  0  0  0  0  0  0
    1.9579   13.4650   -2.0238 H   0  0  0  0  0  0  0  0  0  0  0  0
    2.5104   14.8974   -3.0176 H   0  0  0  0  0  0  0  0  0  0  0  0
    0.4195   15.0359   -0.8167 H   0  0  0  0  0  0  0  0  0  0  0  0
    2.1805   15.4156   -0.6131 H   0  0  0  0  0  0  0  0  0  0  0  0
    0.0138   16.6786   -1.6839 H   0  0  0  0  0  0  0  0  0  0  0  0
    3.0470   17.7915    0.3445 H   0  0  0  0  0  0  0  0  0  0  0  0
    3.7391   16.7775   -0.9669 H   0  0  0  0  0  0  0  0  0  0  0  0
    4.0096   18.5533   -0.9669 H   0  0  0  0  0  0  0  0  0  0  0  0
    1.3625   19.7410   -0.6101 H   0  0  0  0  0  0  0  0  0  0  0  0
    2.2356   19.9719   -2.1629 H   0  0  0  0  0  0  0  0  0  0  0  0
    0.5566   19.3333   -2.1629 H   0  0  0  0  0  0  0  0  0  0  0  0
   -0.6005   12.7686   -4.3024 H   0  0  0  0  0  0  0  0  0  0  0  0
    1.4410   11.6456   -4.9423 H   0  0  0  0  0  0  0  0  0  0  0  0
    2.3418   12.3404   -3.5777 H   0  0  0  0  0  0  0  0  0  0  0  0
    1.3854    9.6524   -3.7396 H   0  0  0  0  0  0  0  0  0  0  0  0
    1.9292   10.4185   -2.2494 H   0  0  0  0  0  0  0  0  0  0  0  0
   -2.0103    9.5951   -3.4764 H   0  0  0  0  0  0  0  0  0  0  0  0
   -1.3624   10.9705   -4.4330 H   0  0  0  0  0  0  0  0  0  0  0  0
   -0.5034    9.3929   -4.4330 H   0  0  0  0  0  0  0  0  0  0  0  0
    0.1880   10.0432   -0.6102 H   0  0  0  0  0  0  0  0  0  0  0  0
    0.4520    8.0319   -2.1991 H   0  0  0  0  0  0  0  0  0  0  0  0
   -0.1375    7.8086   -0.4694 H   0  0  0  0  0  0  0  0  0  0  0  0
   -1.3793    6.3968   -2.3154 H   0  0  0  0  0  0  0  0  0  0  0  0
   -3.3901    9.8971   -2.2524 H   0  0  0  0  0  0  0  0  0  0  0  0
   -4.1791    8.5130    0.3849 H   0  0  0  0  0  0  0  0  0  0  0  0
   -4.7356   10.1427   -0.2039 H   0  0  0  0  0  0  0  0  0  0  0  0
   -6.4553    8.3932   -0.5241 H   0  0  0  0  0  0  0  0  0  0  0  0
   -5.8774    9.1099   -2.0793 H   0  0  0  0  0  0  0  0  0  0  0  0
   -6.0710    6.7344   -2.3509 H   0  0  0  0  0  0  0  0  0  0  0  0
   -4.3640    5.5620   -0.8700 H   0  0  0  0  0  0  0  0  0  0  0  0
   -4.7805    8.7438   -3.8047 H   0  0  0  0  0  0  0  0  0  0  0  0
   -3.3787    7.9161   -4.5642 H   0  0  0  0  0  0  0  0  0  0  0  0
   -4.9938    7.1300   -4.5642 H   0  0  0  0  0  0  0  0  0  0  0  0
   -3.4942    5.0482   -2.0349 H   0  0  0  0  0  0  0  0  0  0  0  0
   -4.4444    5.1649   -3.5548 H   0  0  0  0  0  0  0  0  0  0  0  0
   -2.6960    5.5768   -3.5548 H   0  0  0  0  0  0  0  0  0  0  0  0
   -2.0772   10.4635    1.4687 H   0  0  0  0  0  0  0  0  0  0  0  0
   -2.6493    8.8189    1.0275 H   0  0  0  0  0  0  0  0  0  0  0  0
   -0.8914    9.1883    1.0275 H   0  0  0  0  0  0  0  0  0  0  0  0
   -3.3956   11.6804   -0.5815 H   0  0  0  0  0  0  0  0  0  0  0  0
   -1.7289   11.9789    0.1717 H   0  0  0  0  0  0  0  0  0  0  0  0
   -2.4806   12.1012   -2.7620 H   0  0  0  0  0  0  0  0  0  0  0  0
   -1.9502   13.4450   -1.6762 H   0  0  0  0  0  0  0  0  0  0  0  0
   -0.0120   12.2797   -0.0868 H   0  0  0  0  0  0  0  0  0  0  0  0
    1.4729   12.0603   -1.0734 H   0  0  0  0  0  0  0  0  0  0  0  0
    0.6201   13.6412   -1.0734 H   0  0  0  0  0  0  0  0  0  0  0  0
  1  2  1  0
  2  3  1  0
  3  4  1  0
  4  5  1  0
  5  6  1  0
  6  7  1  0
  7  8  1  0
  7  9  1  0
  2 10  1  0
 10 11  1  0
 11 12  1  0
 12 13  1  0
 13 14  1  6
 13 15  1  0
 15 16  1  0
 16 17  1  0
 17 18  2  0
 18 19  1  0
 19 20  1  0
 20 21  1  0
 21 22  1  0
 22 23  1  0
 22 24  1  0
 24 25  1  0
 24 26  1  0
 19 27  1  0
 27 28  1  1
 27 29  1  0
 29 30  1  0
 30 31  1  0
 31 32  1  1
  7  5  1  0
 31 10  1  0
 31 13  1  0
 27 15  1  0
 24 18  1  0
  1 33  1  0
  1 34  1  0
  1 35  1  0
  2 36  1  1
  3 37  1  0
  3 38  1  0
  4 39  1  0
  4 40  1  0
  5 41  1  6
  8 42  1  0
  8 43  1  0
  8 44  1  0
  9 45  1  0
  9 46  1  0
  9 47  1  0
 10 48  1  6
 11 49  1  0
 11 50  1  0
 12 51  1  0
 12 52  1  0
 14 53  1  0
 14 54  1  0
 14 55  1  0
 15 56  1  1
 16 57  1  0
 16 58  1  0
 17 59  1  0
 19 60  1  6
 20 61  1  0
 20 62  1  0
 21 63  1  0
 21 64  1  0
 22 65  1  6
 23 66  1  0
 25 67  1  0
 25 68  1  0
 25 69  1  0
 26 70  1  0
 26 71  1  0
 26 72  1  0
 28 73  1  0
 28 74  1  0
 28 75  1  0
 29 76  1  0
 29 77  1  0
 30 78  1  0
 30 79  1  0
 32 80  1  0
 32 81  1  0
 32 82  1  0
M  END
>  <meeko>  (15) 
{"is_sidechain": [false], "intermolecular_energy": 2.731, "internal_energy": -0.839}

$$$$
EPH_relaxed_0001_pdb2pqr_Repair_223_r2_0001_out
     RDKit          3D

 82 86  0  0  0  0  0  0  0  0999 V2000
    1.6610   18.5530   -2.0920 C   0  0  0  0  0  0  0  0  0  0  0  0
    2.1550   17.4310   -3.0090 C   0  0  2  0  0  0  0  0  0  0  0  0
    1.2060   17.1940   -4.2010 C   0  0  0  0  0  0  0  0  0  0  0  0
    1.6180   16.0190   -5.0920 C   0  0  0  0  0  0  0  0  0  0  0  0
    0.6050   15.7550   -6.1650 C   0  0  2  0  0  0  0  0  0  0  0  0
    0.6470   14.4320   -6.7160 O   0  0  0  0  0  0  0  0  0  0  0  0
    0.9700   15.5050   -7.6160 C   0  0  0  0  0  0  0  0  0  0  0  0
    2.3950   15.5070   -8.0740 C   0  0  0  0  0  0  0  0  0  0  0  0
   -0.0700   15.7430   -8.6660 C   0  0  0  0  0  0  0  0  0  0  0  0
    2.3190   16.1430   -2.2110 C   0  0  1  0  0  0  0  0  0  0  0  0
    2.9620   16.3810   -0.8180 C   0  0  0  0  0  0  0  0  0  0  0  0
    2.3100   15.3640    0.1540 C   0  0  0  0  0  0  0  0  0  0  0  0
    1.5690   14.3650   -0.7640 C   0  0  1  0  0  0  0  0  0  0  0  0
    2.6730   13.3770   -1.2560 C   0  0  0  0  0  0  0  0  0  0  0  0
    0.3590   13.6070   -0.1270 C   0  0  2  0  0  0  0  0  0  0  0  0
    0.7120   12.6970    1.0620 C   0  0  0  0  0  0  0  0  0  0  0  0
    1.0480   11.2860    0.7080 C   0  0  0  0  0  0  0  0  0  0  0  0
    0.7930   10.6940   -0.4730 C   0  0  0  0  0  0  0  0  0  0  0  0
    0.0140   11.4310   -1.5710 C   0  0  1  0  0  0  0  0  0  0  0  0
   -1.0740   10.4910   -2.1530 C   0  0  0  0  0  0  0  0  0  0  0  0
   -0.5020    9.1610   -2.6350 C   0  0  0  0  0  0  0  0  0  0  0  0
    0.2140    8.4330   -1.5020 C   0  0  2  0  0  0  0  0  0  0  0  0
   -0.7520    8.0450   -0.5200 O   0  0  0  0  0  0  0  0  0  0  0  0
    1.3270    9.2860   -0.8310 C   0  0  0  0  0  0  0  0  0  0  0  0
    2.5160    9.4510   -1.8090 C   0  0  0  0  0  0  0  0  0  0  0  0
    1.8720    8.4890    0.3850 C   0  0  0  0  0  0  0  0  0  0  0  0
   -0.5610   12.8580   -1.1740 C   0  0  1  0  0  0  0  0  0  0  0  0
   -1.9610   12.7010   -0.5050 C   0  0  0  0  0  0  0  0  0  0  0  0
   -0.7870   13.7030   -2.4840 C   0  0  0  0  0  0  0  0  0  0  0  0
    0.4110   14.5250   -2.9960 C   0  0  0  0  0  0  0  0  0  0  0  0
    1.0340   15.3500   -1.8660 C   0  0  2  0  0  0  0  0  0  0  0  0
   -0.0470   16.3680   -1.3660 C   0  0  0  0  0  0  0  0  0  0  0  0
    1.7930   18.2532   -1.0419 H   0  0  0  0  0  0  0  0  0  0  0  0
    2.2395   19.4679   -2.2876 H   0  0  0  0  0  0  0  0  0  0  0  0
    0.5955   18.7441   -2.2876 H   0  0  0  0  0  0  0  0  0  0  0  0
    3.1274   17.7424   -3.4183 H   0  0  0  0  0  0  0  0  0  0  0  0
    0.1980   16.9951   -3.8081 H   0  0  0  0  0  0  0  0  0  0  0  0
    1.2422   18.0989   -4.8254 H   0  0  0  0  0  0  0  0  0  0  0  0
    2.5845   16.2508   -5.5634 H   0  0  0  0  0  0  0  0  0  0  0  0
    1.6922   15.1204   -4.4619 H   0  0  0  0  0  0  0  0  0  0  0  0
   -0.1102   16.4443   -5.6923 H   0  0  0  0  0  0  0  0  0  0  0  0
    3.0614   15.5079   -7.1988 H   0  0  0  0  0  0  0  0  0  0  0  0
    2.5867   14.6091   -8.6799 H   0  0  0  0  0  0  0  0  0  0  0  0
    2.5842   16.4054   -8.6799 H   0  0  0  0  0  0  0  0  0  0  0  0
   -1.0339   15.9636   -8.1840 H   0  0  0  0  0  0  0  0  0  0  0  0
    0.2302   16.5957   -9.2928 H   0  0  0  0  0  0  0  0  0  0  0  0
   -0.1705   14.8446   -9.2928 H   0  0  0  0  0  0  0  0  0  0  0  0
    2.9374   15.5679   -2.9159 H   0  0  0  0  0  0  0  0  0  0  0  0
    4.0481   16.2143   -0.8684 H   0  0  0  0  0  0  0  0  0  0  0  0
    2.7977   17.4142   -0.4780 H   0  0  0  0  0  0  0  0  0  0  0  0
    3.0783   14.8482    0.7487 H   0  0  0  0  0  0  0  0  0  0  0  0
    1.6338   15.8496    0.8730 H   0  0  0  0  0  0  0  0  0  0  0  0
    3.1759   12.9270   -0.3873 H   0  0  0  0  0  0  0  0  0  0  0  0
    2.2116   12.5847   -1.8637 H   0  0  0  0  0  0  0  0  0  0  0  0
    3.4095   13.9232   -1.8637 H   0  0  0  0  0  0  0  0  0  0  0  0
   -0.2391   14.4292    0.2928 H   0  0  0  0  0  0  0  0  0  0  0  0
    1.5797   13.1337    1.5782 H   0  0  0  0  0  0  0  0  0  0  0  0
   -0.1927   12.6469    1.6857 H   0  0  0  0  0  0  0  0  0  0  0  0
    1.5463   10.6789    1.4781 H   0  0  0  0  0  0  0  0  0  0  0  0
    0.7487   11.6796   -2.3510 H   0  0  0  0  0  0  0  0  0  0  0  0
   -1.8216   10.2907   -1.3714 H   0  0  0  0  0  0  0  0  0  0  0  0
   -1.5215   10.9962   -3.0216 H   0  0  0  0  0  0  0  0  0  0  0  0
   -1.3226    8.5297   -3.0067 H   0  0  0  0  0  0  0  0  0  0  0  0
    0.2232    9.3609   -3.4375 H   0  0  0  0  0  0  0  0  0  0  0  0
    0.7125    7.5548   -1.9382 H   0  0  0  0  0  0  0  0  0  0  0  0
   -1.2300    8.8460   -0.2450 H   0  0  0  0  0  0  0  0  0  0  0  0
    3.4464    9.5801   -1.2366 H   0  0  0  0  0  0  0  0  0  0  0  0
    2.5966    8.5554   -2.4426 H   0  0  0  0  0  0  0  0  0  0  0  0
    2.3497   10.3347   -2.4426 H   0  0  0  0  0  0  0  0  0  0  0  0
    1.5422    8.9712    1.3170 H   0  0  0  0  0  0  0  0  0  0  0  0
    1.4885    7.4586    0.3497 H   0  0  0  0  0  0  0  0  0  0  0  0
    2.9713    8.4725    0.3497 H   0  0  0  0  0  0  0  0  0  0  0  0
   -1.8480   12.7137    0.5891 H   0  0  0  0  0  0  0  0  0  0  0  0
   -2.6113   13.5318   -0.8161 H   0  0  0  0  0  0  0  0  0  0  0  0
   -2.4111   11.7467   -0.8161 H   0  0  0  0  0  0  0  0  0  0  0  0
   -1.0782   13.0059   -3.2835 H   0  0  0  0  0  0  0  0  0  0  0  0
   -1.5533   14.4461   -2.2184 H   0  0  0  0  0  0  0  0  0  0  0  0
    1.1700   13.8400   -3.4019 H   0  0  0  0  0  0  0  0  0  0  0  0
    0.0555   15.2130   -3.7772 H   0  0  0  0  0  0  0  0  0  0  0  0
   -0.0590   16.3793   -0.2661 H   0  0  0  0  0  0  0  0  0  0  0  0
    0.1953   17.3735   -1.7404 H   0  0  0  0  0  0  0  0  0  0  0  0
   -1.0362   16.0658   -1.7404 H   0  0  0  0  0  0  0  0  0  0  0  0
  1  2  1  0
  2  3  1  0
  3  4  1  0
  4  5  1  0
  5  6  1  0
  6  7  1  0
  7  8  1  0
  7  9  1  0
  2 10  1  0
 10 11  1  0
 11 12  1  0
 12 13  1  0
 13 14  1  6
 13 15  1  0
 15 16  1  0
 16 17  1  0
 17 18  2  0
 18 19  1  0
 19 20  1  0
 20 21  1  0
 21 22  1  0
 22 23  1  0
 22 24  1  0
 24 25  1  0
 24 26  1  0
 19 27  1  0
 27 28  1  1
 27 29  1  0
 29 30  1  0
 30 31  1  0
 31 32  1  1
  7  5  1  0
 31 10  1  0
 31 13  1  0
 27 15  1  0
 24 18  1  0
  1 33  1  0
  1 34  1  0
  1 35  1  0
  2 36  1  6
  3 37  1  0
  3 38  1  0
  4 39  1  0
  4 40  1  0
  5 41  1  6
  8 42  1  0
  8 43  1  0
  8 44  1  0
  9 45  1  0
  9 46  1  0
  9 47  1  0
 10 48  1  6
 11 49  1  0
 11 50  1  0
 12 51  1  0
 12 52  1  0
 14 53  1  0
 14 54  1  0
 14 55  1  0
 15 56  1  1
 16 57  1  0
 16 58  1  0
 17 59  1  0
 19 60  1  6
 20 61  1  0
 20 62  1  0
 21 63  1  0
 21 64  1  0
 22 65  1  6
 23 66  1  0
 25 67  1  0
 25 68  1  0
 25 69  1  0
 26 70  1  0
 26 71  1  0
 26 72  1  0
 28 73  1  0
 28 74  1  0
 28 75  1  0
 29 76  1  0
 29 77  1  0
 30 78  1  0
 30 79  1  0
 32 80  1  0
 32 81  1  0
 32 82  1  0
M  END
>  <meeko>  (16) 
{"is_sidechain": [false], "intermolecular_energy": 2.731, "internal_energy": -0.839}

$$$$
EPH_relaxed_0001_pdb2pqr_Repair_223_r2_0001_out
     RDKit          3D

 82 86  0  0  0  0  0  0  0  0999 V2000
    2.5770    9.4230   -0.2020 C   0  0  0  0  0  0  0  0  0  0  0  0
    1.3210   10.0640   -0.8000 C   0  0  2  0  0  0  0  0  0  0  0  0
    0.6190    9.1350   -1.8100 C   0  0  0  0  0  0  0  0  0  0  0  0
   -0.1940    8.0150   -1.1550 C   0  0  0  0  0  0  0  0  0  0  0  0
   -1.6680    8.2400   -1.3060 C   0  0  2  0  0  0  0  0  0  0  0  0
   -2.0320    9.5560   -1.7420 O   0  0  0  0  0  0  0  0  0  0  0  0
   -2.4660    9.1820   -0.4250 C   0  0  0  0  0  0  0  0  0  0  0  0
   -1.8150    9.9600    0.6750 C   0  0  0  0  0  0  0  0  0  0  0  0
   -3.9450    8.9770   -0.3130 C   0  0  0  0  0  0  0  0  0  0  0  0
    1.6810   11.3850   -1.4700 C   0  0  1  0  0  0  0  0  0  0  0  0
    1.6070   11.3090   -3.0180 C   0  0  0  0  0  0  0  0  0  0  0  0
    1.1100   12.6930   -3.5100 C   0  0  0  0  0  0  0  0  0  0  0  0
    1.2320   13.6140   -2.2730 C   0  0  1  0  0  0  0  0  0  0  0  0
    2.7360   14.0290   -2.2300 C   0  0  0  0  0  0  0  0  0  0  0  0
    0.2880   14.8590   -2.2430 C   0  0  2  0  0  0  0  0  0  0  0  0
    0.5090   15.8730   -3.3800 C   0  0  0  0  0  0  0  0  0  0  0  0
    1.4890   16.9590   -3.0840 C   0  0  0  0  0  0  0  0  0  0  0  0
    1.9510   17.2840   -1.8630 C   0  0  0  0  0  0  0  0  0  0  0  0
    1.4100   16.5910   -0.6060 C   0  0  1  0  0  0  0  0  0  0  0  0
    1.0940   17.6560    0.4770 C   0  0  0  0  0  0  0  0  0  0  0  0
    2.2860   18.5590    0.7760 C   0  0  0  0  0  0  0  0  0  0  0  0
    2.7590   19.2750   -0.4870 C   0  0  2  0  0  0  0  0  0  0  0  0
    1.7420   20.1910   -0.9050 O   0  0  0  0  0  0  0  0  0  0  0  0
    3.0980   18.3030   -1.6510 C   0  0  0  0  0  0  0  0  0  0  0  0
    4.3900   17.5180   -1.3140 C   0  0  0  0  0  0  0  0  0  0  0  0
    3.4240   19.1580   -2.9060 C   0  0  0  0  0  0  0  0  0  0  0  0
    0.2080   15.5780   -0.8360 C   0  0  1  0  0  0  0  0  0  0  0  0
   -1.1490   16.3470   -0.8050 C   0  0  0  0  0  0  0  0  0  0  0  0
    0.1640   14.5520    0.3580 C   0  0  0  0  0  0  0  0  0  0  0  0
    1.0260   13.2840    0.2160 C   0  0  0  0  0  0  0  0  0  0  0  0
    0.7960   12.6130   -1.1420 C   0  0  2  0  0  0  0  0  0  0  0  0
   -0.7040   12.1640   -1.2050 C   0  0  0  0  0  0  0  0  0  0  0  0
    2.5170    9.4536    0.8959 H   0  0  0  0  0  0  0  0  0  0  0  0
    2.6497    8.3775   -0.5362 H   0  0  0  0  0  0  0  0  0  0  0  0
    3.4663    9.9775   -0.5362 H   0  0  0  0  0  0  0  0  0  0  0  0
    0.6169   10.2452    0.0255 H   0  0  0  0  0  0  0  0  0  0  0  0
   -0.0603    9.7423   -2.4263 H   0  0  0  0  0  0  0  0  0  0  0  0
    1.4084    8.6529   -2.4054 H   0  0  0  0  0  0  0  0  0  0  0  0
    0.0711    7.0581   -1.6285 H   0  0  0  0  0  0  0  0  0  0  0  0
    0.0430    8.0018   -0.0809 H   0  0  0  0  0  0  0  0  0  0  0  0
   -1.8219    7.1889   -1.5916 H   0  0  0  0  0  0  0  0  0  0  0  0
   -2.1447    9.5659    1.6476 H   0  0  0  0  0  0  0  0  0  0  0  0
   -0.7220    9.8666    0.5930 H   0  0  0  0  0  0  0  0  0  0  0  0
   -2.0997   11.0194    0.5930 H   0  0  0  0  0  0  0  0  0  0  0  0
   -4.2303    8.9375    0.7486 H   0  0  0  0  0  0  0  0  0  0  0  0
   -4.4689    9.8111   -0.8027 H   0  0  0  0  0  0  0  0  0  0  0  0
   -4.2223    8.0318   -0.8027 H   0  0  0  0  0  0  0  0  0  0  0  0
    2.6917   11.5300   -1.0607 H   0  0  0  0  0  0  0  0  0  0  0  0
    2.6019   11.0936   -3.4348 H   0  0  0  0  0  0  0  0  0  0  0  0
    0.9276   10.5070   -3.3423 H   0  0  0  0  0  0  0  0  0  0  0  0
    1.7403   13.0620   -4.3325 H   0  0  0  0  0  0  0  0  0  0  0  0
    0.0823   12.6526   -3.9001 H   0  0  0  0  0  0  0  0  0  0  0  0
    3.0618   14.1189   -1.1832 H   0  0  0  0  0  0  0  0  0  0  0  0
    3.3420   13.2645   -2.7382 H   0  0  0  0  0  0  0  0  0  0  0  0
    2.8642   14.9961   -2.7382 H   0  0  0  0  0  0  0  0  0  0  0  0
   -0.6991   14.4109   -2.4293 H   0  0  0  0  0  0  0  0  0  0  0  0
    0.8682   15.3221   -4.2617 H   0  0  0  0  0  0  0  0  0  0  0  0
   -0.4593   16.3711   -3.5361 H   0  0  0  0  0  0  0  0  0  0  0  0
    1.8655   17.5433   -3.9366 H   0  0  0  0  0  0  0  0  0  0  0  0
    2.2143   15.9284   -0.2537 H   0  0  0  0  0  0  0  0  0  0  0  0
    0.2590   18.2796    0.1250 H   0  0  0  0  0  0  0  0  0  0  0  0
    0.8387   17.1227    1.4046 H   0  0  0  0  0  0  0  0  0  0  0  0
    1.9909   19.3082    1.5254 H   0  0  0  0  0  0  0  0  0  0  0  0
    3.1101   17.9378    1.1567 H   0  0  0  0  0  0  0  0  0  0  0  0
    3.6914   19.8031   -0.2383 H   0  0  0  0  0  0  0  0  0  0  0  0
    1.0930   20.2600   -0.1840 H   0  0  0  0  0  0  0  0  0  0  0  0
    4.5030   17.4493   -0.2220 H   0  0  0  0  0  0  0  0  0  0  0  0
    4.3259   16.5060   -1.7403 H   0  0  0  0  0  0  0  0  0  0  0  0
    5.2586   18.0412   -1.7403 H   0  0  0  0  0  0  0  0  0  0  0  0
    3.7995   20.1429   -2.5913 H   0  0  0  0  0  0  0  0  0  0  0  0
    4.1909   18.6484   -3.5078 H   0  0  0  0  0  0  0  0  0  0  0  0
    2.5125   19.2883   -3.5078 H   0  0  0  0  0  0  0  0  0  0  0  0
   -1.4500   16.5176    0.2392 H   0  0  0  0  0  0  0  0  0  0  0  0
   -1.0341   17.3142   -1.3162 H   0  0  0  0  0  0  0  0  0  0  0  0
   -1.9197   15.7514   -1.3162 H   0  0  0  0  0  0  0  0  0  0  0  0
    0.4965   15.0807    1.2635 H   0  0  0  0  0  0  0  0  0  0  0  0
   -0.8748   14.1917    0.3897 H   0  0  0  0  0  0  0  0  0  0  0  0
    2.0873   13.5586    0.3064 H   0  0  0  0  0  0  0  0  0  0  0  0
    0.7420   12.5766    1.0090 H   0  0  0  0  0  0  0  0  0  0  0  0
   -1.0949   12.0470   -0.1835 H   0  0  0  0  0  0  0  0  0  0  0  0
   -1.2926   12.9253   -1.7379 H   0  0  0  0  0  0  0  0  0  0  0  0
   -0.7775   11.2045   -1.7379 H   0  0  0  0  0  0  0  0  0  0  0  0
  1  2  1  0
  2  3  1  0
  3  4  1  0
  4  5  1  0
  5  6  1  0
  6  7  1  0
  7  8  1  0
  7  9  1  0
  2 10  1  0
 10 11  1  0
 11 12  1  0
 12 13  1  0
 13 14  1  1
 13 15  1  0
 15 16  1  0
 16 17  1  0
 17 18  2  0
 18 19  1  0
 19 20  1  0
 20 21  1  0
 21 22  1  0
 22 23  1  0
 22 24  1  0
 24 25  1  0
 24 26  1  0
 19 27  1  0
 27 28  1  6
 27 29  1  0
 29 30  1  0
 30 31  1  0
 31 32  1  6
  7  5  1  0
 31 10  1  0
 31 13  1  0
 27 15  1  0
 24 18  1  0
  1 33  1  0
  1 34  1  0
  1 35  1  0
  2 36  1  1
  3 37  1  0
  3 38  1  0
  4 39  1  0
  4 40  1  0
  5 41  1  6
  8 42  1  0
  8 43  1  0
  8 44  1  0
  9 45  1  0
  9 46  1  0
  9 47  1  0
 10 48  1  6
 11 49  1  0
 11 50  1  0
 12 51  1  0
 12 52  1  0
 14 53  1  0
 14 54  1  0
 14 55  1  0
 15 56  1  6
 16 57  1  0
 16 58  1  0
 17 59  1  0
 19 60  1  1
 20 61  1  0
 20 62  1  0
 21 63  1  0
 21 64  1  0
 22 65  1  1
 23 66  1  0
 25 67  1  0
 25 68  1  0
 25 69  1  0
 26 70  1  0
 26 71  1  0
 26 72  1  0
 28 73  1  0
 28 74  1  0
 28 75  1  0
 29 76  1  0
 29 77  1  0
 30 78  1  0
 30 79  1  0
 32 80  1  0
 32 81  1  0
 32 82  1  0
M  END
>  <meeko>  (17) 
{"is_sidechain": [false], "intermolecular_energy": 2.731, "internal_energy": -0.839}

$$$$
EPH_relaxed_0001_pdb2pqr_Repair_223_r2_0001_out
     RDKit          3D

 82 86  0  0  0  0  0  0  0  0999 V2000
    1.8110   16.1800   -0.7570 C   0  0  0  0  0  0  0  0  0  0  0  0
    1.8430   15.8770   -2.2580 C   0  0  2  0  0  0  0  0  0  0  0  0
    1.3640   17.0740   -3.1020 C   0  0  0  0  0  0  0  0  0  0  0  0
    1.3640   18.4030   -2.3410 C   0  0  0  0  0  0  0  0  0  0  0  0
   -0.0260   18.8370   -1.9840 C   0  0  2  0  0  0  0  0  0  0  0  0
   -0.1260   20.1800   -1.4930 O   0  0  0  0  0  0  0  0  0  0  0  0
   -0.4690   19.1380   -0.5650 C   0  0  0  0  0  0  0  0  0  0  0  0
    0.4750   19.0170    0.5900 C   0  0  0  0  0  0  0  0  0  0  0  0
   -1.9300   19.0750   -0.2430 C   0  0  0  0  0  0  0  0  0  0  0  0
    0.9870   14.6520   -2.5580 C   0  0  1  0  0  0  0  0  0  0  0  0
    1.2450   14.0760   -3.9760 C   0  0  0  0  0  0  0  0  0  0  0  0
    1.0990   12.5370   -3.8680 C   0  0  0  0  0  0  0  0  0  0  0  0
    0.4420   12.3040   -2.4870 C   0  0  1  0  0  0  0  0  0  0  0  0
   -1.0800   12.5580   -2.7180 C   0  0  0  0  0  0  0  0  0  0  0  0
    0.7000   10.9110   -1.8250 C   0  0  2  0  0  0  0  0  0  0  0  0
    0.1560    9.7050   -2.6100 C   0  0  0  0  0  0  0  0  0  0  0  0
   -1.2380    9.2960   -2.2650 C   0  0  0  0  0  0  0  0  0  0  0  0
   -1.9190    9.6860   -1.1720 C   0  0  0  0  0  0  0  0  0  0  0  0
   -1.2510   10.5480   -0.0930 C   0  0  1  0  0  0  0  0  0  0  0  0
   -1.5710    9.9640    1.3080 C   0  0  0  0  0  0  0  0  0  0  0  0
   -3.0680    9.7930    1.5430 C   0  0  0  0  0  0  0  0  0  0  0  0
   -3.6850    8.8820    0.4850 C   0  0  2  0  0  0  0  0  0  0  0  0
   -3.1660    7.5600    0.6550 O   0  0  0  0  0  0  0  0  0  0  0  0
   -3.4210    9.3650   -0.9690 C   0  0  0  0  0  0  0  0  0  0  0  0
   -4.2350   10.6530   -1.2460 C   0  0  0  0  0  0  0  0  0  0  0  0
   -3.9730    8.2850   -1.9380 C   0  0  0  0  0  0  0  0  0  0  0  0
    0.2980   10.8350   -0.2960 C   0  0  1  0  0  0  0  0  0  0  0  0
    1.1400    9.6800    0.3290 C   0  0  0  0  0  0  0  0  0  0  0  0
    0.6870   12.1430    0.4900 C   0  0  0  0  0  0  0  0  0  0  0  0
    0.5220   13.4790   -0.2590 C   0  0  0  0  0  0  0  0  0  0  0  0
    1.1710   13.4140   -1.6450 C   0  0  2  0  0  0  0  0  0  0  0  0
    2.7070   13.1810   -1.4440 C   0  0  0  0  0  0  0  0  0  0  0  0
    1.9101   15.2418   -0.1914 H   0  0  0  0  0  0  0  0  0  0  0  0
    2.6431   16.8522   -0.5008 H   0  0  0  0  0  0  0  0  0  0  0  0
    0.8568   16.6636   -0.5008 H   0  0  0  0  0  0  0  0  0  0  0  0
    2.8889   15.6769   -2.5337 H   0  0  0  0  0  0  0  0  0  0  0  0
    2.0283   17.1727   -3.9732 H   0  0  0  0  0  0  0  0  0  0  0  0
    0.3224   16.8682   -3.3897 H   0  0  0  0  0  0  0  0  0  0  0  0
    1.9490   18.2848   -1.4170 H   0  0  0  0  0  0  0  0  0  0  0  0
    1.8068   19.1712   -2.9920 H   0  0  0  0  0  0  0  0  0  0  0  0
   -0.4534   18.1974   -2.7703 H   0  0  0  0  0  0  0  0  0  0  0  0
   -0.0876   19.0891    1.5325 H   0  0  0  0  0  0  0  0  0  0  0  0
    0.9890   18.0456    0.5432 H   0  0  0  0  0  0  0  0  0  0  0  0
    1.2174   19.8273    0.5432 H   0  0  0  0  0  0  0  0  0  0  0  0
   -2.0649   19.0692    0.8487 H   0  0  0  0  0  0  0  0  0  0  0  0
   -2.4379   19.9521   -0.6706 H   0  0  0  0  0  0  0  0  0  0  0  0
   -2.3605   18.1575   -0.6706 H   0  0  0  0  0  0  0  0  0  0  0  0
   -0.0129   15.0850   -2.4075 H   0  0  0  0  0  0  0  0  0  0  0  0
    0.5082   14.4772   -4.6874 H   0  0  0  0  0  0  0  0  0  0  0  0
    2.2461   14.3529   -4.3381 H   0  0  0  0  0  0  0  0  0  0  0  0
    0.4575   12.1502   -4.6736 H   0  0  0  0  0  0  0  0  0  0  0  0
    2.0643   12.0184   -3.9638 H   0  0  0  0  0  0  0  0  0  0  0  0
   -1.5891   12.6430   -1.7466 H   0  0  0  0  0  0  0  0  0  0  0  0
   -1.2141   13.4909   -3.2851 H   0  0  0  0  0  0  0  0  0  0  0  0
   -1.5098   11.7192   -3.2851 H   0  0  0  0  0  0  0  0  0  0  0  0
    1.7959   10.8275   -1.8709 H   0  0  0  0  0  0  0  0  0  0  0  0
    0.1813    9.9567   -3.6805 H   0  0  0  0  0  0  0  0  0  0  0  0
    0.7983    8.8529   -2.3426 H   0  0  0  0  0  0  0  0  0  0  0  0
   -1.7515    8.6187   -2.9633 H   0  0  0  0  0  0  0  0  0  0  0  0
   -1.6925   11.5510   -0.1883 H   0  0  0  0  0  0  0  0  0  0  0  0
   -1.0853    8.9813    1.3996 H   0  0  0  0  0  0  0  0  0  0  0  0
   -1.1943   10.6737    2.0592 H   0  0  0  0  0  0  0  0  0  0  0  0
   -3.2282    9.3503    2.5372 H   0  0  0  0  0  0  0  0  0  0  0  0
   -3.5486   10.7804    1.4800 H   0  0  0  0  0  0  0  0  0  0  0  0
   -4.7754    8.9015    0.6285 H   0  0  0  0  0  0  0  0  0  0  0  0
   -2.1980    7.6120    0.5790 H   0  0  0  0  0  0  0  0  0  0  0  0
   -4.5268   11.1148   -0.2912 H   0  0  0  0  0  0  0  0  0  0  0  0
   -3.6189   11.3594   -1.8218 H   0  0  0  0  0  0  0  0  0  0  0  0
   -5.1374   10.3997   -1.8218 H   0  0  0  0  0  0  0  0  0  0  0  0
   -4.3980    7.4535   -1.3566 H   0  0  0  0  0  0  0  0  0  0  0  0
   -4.7558    8.7269   -2.5720 H   0  0  0  0  0  0  0  0  0  0  0  0
   -3.1563    7.9094   -2.5720 H   0  0  0  0  0  0  0  0  0  0  0  0
    1.0931    9.7443    1.4261 H   0  0  0  0  0  0  0  0  0  0  0  0
    0.7345    8.7116    0.0008 H   0  0  0  0  0  0  0  0  0  0  0  0
    2.1861    9.7697    0.0008 H   0  0  0  0  0  0  0  0  0  0  0  0
    0.0596   12.1878    1.3924 H   0  0  0  0  0  0  0  0  0  0  0  0
    1.7662   12.0526    0.6825 H   0  0  0  0  0  0  0  0  0  0  0  0
   -0.5500   13.6974   -0.3735 H   0  0  0  0  0  0  0  0  0  0  0  0
    1.0161   14.2709    0.3230 H   0  0  0  0  0  0  0  0  0  0  0  0
    2.9350   13.1464   -0.3684 H   0  0  0  0  0  0  0  0  0  0  0  0
    2.9976   12.2285   -1.9112 H   0  0  0  0  0  0  0  0  0  0  0  0
    3.2670   14.0045   -1.9112 H   0  0  0  0  0  0  0  0  0  0  0  0
  1  2  1  0
  2  3  1  0
  3  4  1  0
  4  5  1  0
  5  6  1  0
  6  7  1  0
  7  8  1  0
  7  9  1  0
  2 10  1  0
 10 11  1  0
 11 12  1  0
 12 13  1  0
 13 14  1  6
 13 15  1  0
 15 16  1  0
 16 17  1  0
 17 18  2  0
 18 19  1  0
 19 20  1  0
 20 21  1  0
 21 22  1  0
 22 23  1  0
 22 24  1  0
 24 25  1  0
 24 26  1  0
 19 27  1  0
 27 28  1  1
 27 29  1  0
 29 30  1  0
 30 31  1  0
 31 32  1  1
  7  5  1  0
 31 10  1  0
 31 13  1  0
 27 15  1  0
 24 18  1  0
  1 33  1  0
  1 34  1  0
  1 35  1  0
  2 36  1  6
  3 37  1  0
  3 38  1  0
  4 39  1  0
  4 40  1  0
  5 41  1  6
  8 42  1  0
  8 43  1  0
  8 44  1  0
  9 45  1  0
  9 46  1  0
  9 47  1  0
 10 48  1  6
 11 49  1  0
 11 50  1  0
 12 51  1  0
 12 52  1  0
 14 53  1  0
 14 54  1  0
 14 55  1  0
 15 56  1  1
 16 57  1  0
 16 58  1  0
 17 59  1  0
 19 60  1  1
 20 61  1  0
 20 62  1  0
 21 63  1  0
 21 64  1  0
 22 65  1  1
 23 66  1  0
 25 67  1  0
 25 68  1  0
 25 69  1  0
 26 70  1  0
 26 71  1  0
 26 72  1  0
 28 73  1  0
 28 74  1  0
 28 75  1  0
 29 76  1  0
 29 77  1  0
 30 78  1  0
 30 79  1  0
 32 80  1  0
 32 81  1  0
 32 82  1  0
M  END
>  <meeko>  (18) 
{"is_sidechain": [false], "intermolecular_energy": 2.731, "internal_energy": -0.839}

$$$$
