EPH_relaxed_0001_pdb2pqr_Repair_56_r2_0001_out
     RDKit          3D

 82 86  0  0  0  0  0  0  0  0999 V2000
    2.3520   17.9840   -2.6750 C   0  0  0  0  0  0  0  0  0  0  0  0
    1.0350   17.6120   -1.9870 C   0  0  2  0  0  0  0  0  0  0  0  0
    1.1430   17.6820   -0.4500 C   0  0  0  0  0  0  0  0  0  0  0  0
    0.8190   19.0620    0.1270 C   0  0  0  0  0  0  0  0  0  0  0  0
   -0.6220   19.1710    0.5280 C   0  0  2  0  0  0  0  0  0  0  0  0
   -1.4990   18.2540   -0.1390 O   0  0  0  0  0  0  0  0  0  0  0  0
   -1.7160   19.6490   -0.4080 C   0  0  0  0  0  0  0  0  0  0  0  0
   -1.4170   20.0510   -1.8180 C   0  0  0  0  0  0  0  0  0  0  0  0
   -2.9800   20.1880    0.1860 C   0  0  0  0  0  0  0  0  0  0  0  0
    0.6010   16.2150   -2.4160 C   0  0  1  0  0  0  0  0  0  0  0  0
    0.7110   16.0000   -3.9490 C   0  0  0  0  0  0  0  0  0  0  0  0
    1.1240   14.5210   -4.1640 C   0  0  0  0  0  0  0  0  0  0  0  0
    0.9160   13.8530   -2.7850 C   0  0  1  0  0  0  0  0  0  0  0  0
   -0.6130   13.5470   -2.7140 C   0  0  0  0  0  0  0  0  0  0  0  0
    1.7740   12.5780   -2.4980 C   0  0  2  0  0  0  0  0  0  0  0  0
    1.5090   11.3880   -3.4370 C   0  0  0  0  0  0  0  0  0  0  0  0
    0.4530   10.4380   -2.9800 C   0  0  0  0  0  0  0  0  0  0  0  0
   -0.0540   10.3720   -1.7340 C   0  0  0  0  0  0  0  0  0  0  0  0
    0.5070   11.2500   -0.6080 C   0  0  1  0  0  0  0  0  0  0  0  0
    0.7310   10.3850    0.6600 C   0  0  0  0  0  0  0  0  0  0  0  0
   -0.5250    9.6290    1.0810 C   0  0  0  0  0  0  0  0  0  0  0  0
   -1.0190    8.7230   -0.0440 C   0  0  2  0  0  0  0  0  0  0  0  0
   -0.0580    7.6850   -0.2560 O   0  0  0  0  0  0  0  0  0  0  0  0
   -1.2700    9.4830   -1.3770 C   0  0  0  0  0  0  0  0  0  0  0  0
   -2.5130   10.3950   -1.2300 C   0  0  0  0  0  0  0  0  0  0  0  0
   -1.6280    8.4340   -2.4640 C   0  0  0  0  0  0  0  0  0  0  0  0
    1.7790   12.1270   -0.9810 C   0  0  1  0  0  0  0  0  0  0  0  0
    3.0800   11.2950   -0.7680 C   0  0  0  0  0  0  0  0  0  0  0  0
    1.8680   13.3500    0.0060 C   0  0  0  0  0  0  0  0  0  0  0  0
    1.0950   14.6220   -0.3920 C   0  0  0  0  0  0  0  0  0  0  0  0
    1.3960   15.0160   -1.8410 C   0  0  2  0  0  0  0  0  0  0  0  0
    2.9230   15.3510   -1.9380 C   0  0  0  0  0  0  0  0  0  0  0  0
    3.1155   18.1997   -1.9131 H   0  0  0  0  0  0  0  0  0  0  0  0
    2.6873   17.1454   -3.3030 H   0  0  0  0  0  0  0  0  0  0  0  0
    2.1990   18.8741   -3.3030 H   0  0  0  0  0  0  0  0  0  0  0  0
    0.2791   18.3479   -2.2986 H   0  0  0  0  0  0  0  0  0  0  0  0
    0.4421   16.9520   -0.0190 H   0  0  0  0  0  0  0  0  0  0  0  0
    2.1893   17.4626   -0.1908 H   0  0  0  0  0  0  0  0  0  0  0  0
    1.4493   19.2355    1.0116 H   0  0  0  0  0  0  0  0  0  0  0  0
    1.0163   19.8140   -0.6511 H   0  0  0  0  0  0  0  0  0  0  0  0
   -0.3408   19.4713    1.5482 H   0  0  0  0  0  0  0  0  0  0  0  0
   -0.7605   20.9336   -1.8163 H   0  0  0  0  0  0  0  0  0  0  0  0
   -0.9147   19.2214   -2.3371 H   0  0  0  0  0  0  0  0  0  0  0  0
   -2.3560   20.2935   -2.3371 H   0  0  0  0  0  0  0  0  0  0  0  0
   -2.9111   20.1586    1.2834 H   0  0  0  0  0  0  0  0  0  0  0  0
   -3.1266   21.2269   -0.1445 H   0  0  0  0  0  0  0  0  0  0  0  0
   -3.8312   19.5746   -0.1445 H   0  0  0  0  0  0  0  0  0  0  0  0
   -0.4252   16.2104   -2.0199 H   0  0  0  0  0  0  0  0  0  0  0  0
   -0.2587   16.1964   -4.4297 H   0  0  0  0  0  0  0  0  0  0  0  0
    1.4489   16.6849   -4.3923 H   0  0  0  0  0  0  0  0  0  0  0  0
    0.4870   14.0468   -4.9252 H   0  0  0  0  0  0  0  0  0  0  0  0
    2.1598   14.4251   -4.5218 H   0  0  0  0  0  0  0  0  0  0  0  0
   -0.9259   13.4844   -1.6613 H   0  0  0  0  0  0  0  0  0  0  0  0
   -1.1715   14.3512   -3.2153 H   0  0  0  0  0  0  0  0  0  0  0  0
   -0.8190   12.5898   -3.2153 H   0  0  0  0  0  0  0  0  0  0  0  0
    2.7923   12.9223   -2.7317 H   0  0  0  0  0  0  0  0  0  0  0  0
    1.2056   11.7883   -4.4156 H   0  0  0  0  0  0  0  0  0  0  0  0
    2.4448   10.8107   -3.4679 H   0  0  0  0  0  0  0  0  0  0  0  0
    0.0550    9.7319   -3.7236 H   0  0  0  0  0  0  0  0  0  0  0  0
   -0.2584   12.0143   -0.4081 H   0  0  0  0  0  0  0  0  0  0  0  0
    1.5287    9.6563    0.4535 H   0  0  0  0  0  0  0  0  0  0  0  0
    1.0047   11.0623    1.4824 H   0  0  0  0  0  0  0  0  0  0  0  0
   -0.2962    9.0144    1.9641 H   0  0  0  0  0  0  0  0  0  0  0  0
   -1.3130   10.3599    1.3149 H   0  0  0  0  0  0  0  0  0  0  0  0
   -1.9888    8.3084    0.2683 H   0  0  0  0  0  0  0  0  0  0  0  0
   -0.5450    6.8530   -0.3830 H   0  0  0  0  0  0  0  0  0  0  0  0
   -2.7279   10.5527   -0.1628 H   0  0  0  0  0  0  0  0  0  0  0  0
   -2.3157   11.3642   -1.7114 H   0  0  0  0  0  0  0  0  0  0  0  0
   -3.3783    9.9159   -1.7114 H   0  0  0  0  0  0  0  0  0  0  0  0
   -1.9471    7.4990   -1.9803 H   0  0  0  0  0  0  0  0  0  0  0  0
   -2.4453    8.8199   -3.0910 H   0  0  0  0  0  0  0  0  0  0  0  0
   -0.7453    8.2398   -3.0910 H   0  0  0  0  0  0  0  0  0  0  0  0
    3.2666   11.1757    0.3095 H   0  0  0  0  0  0  0  0  0  0  0  0
    2.9618   10.3045   -1.2316 H   0  0  0  0  0  0  0  0  0  0  0  0
    3.9296   11.8178   -1.2316 H   0  0  0  0  0  0  0  0  0  0  0  0
    1.4835   13.0187    0.9819 H   0  0  0  0  0  0  0  0  0  0  0  0
    2.9277   13.6449    0.0039 H   0  0  0  0  0  0  0  0  0  0  0  0
    0.0161   14.4351   -0.2867 H   0  0  0  0  0  0  0  0  0  0  0  0
    1.4097   15.4442    0.2675 H   0  0  0  0  0  0  0  0  0  0  0  0
    3.3432   15.4432   -0.9256 H   0  0  0  0  0  0  0  0  0  0  0  0
    3.4416   14.5453   -2.4783 H   0  0  0  0  0  0  0  0  0  0  0  0
    3.0566   16.2998   -2.4783 H   0  0  0  0  0  0  0  0  0  0  0  0
  1  2  1  0
  2  3  1  0
  3  4  1  0
  4  5  1  0
  5  6  1  0
  6  7  1  0
  7  8  1  0
  7  9  1  0
  2 10  1  0
 10 11  1  0
 11 12  1  0
 12 13  1  0
 13 14  1  1
 13 15  1  0
 15 16  1  0
 16 17  1  0
 17 18  2  0
 18 19  1  0
 19 20  1  0
 20 21  1  0
 21 22  1  0
 22 23  1  0
 22 24  1  0
 24 25  1  0
 24 26  1  0
 19 27  1  0
 27 28  1  6
 27 29  1  0
 29 30  1  0
 30 31  1  0
 31 32  1  1
  7  5  1  0
 31 10  1  0
 31 13  1  0
 27 15  1  0
 24 18  1  0
  1 33  1  0
  1 34  1  0
  1 35  1  0
  2 36  1  6
  3 37  1  0
  3 38  1  0
  4 39  1  0
  4 40  1  0
  5 41  1  1
  8 42  1  0
  8 43  1  0
  8 44  1  0
  9 45  1  0
  9 46  1  0
  9 47  1  0
 10 48  1  1
 11 49  1  0
 11 50  1  0
 12 51  1  0
 12 52  1  0
 14 53  1  0
 14 54  1  0
 14 55  1  0
 15 56  1  6
 16 57  1  0
 16 58  1  0
 17 59  1  0
 19 60  1  1
 20 61  1  0
 20 62  1  0
 21 63  1  0
 21 64  1  0
 22 65  1  1
 23 66  1  0
 25 67  1  0
 25 68  1  0
 25 69  1  0
 26 70  1  0
 26 71  1  0
 26 72  1  0
 28 73  1  0
 28 74  1  0
 28 75  1  0
 29 76  1  0
 29 77  1  0
 30 78  1  0
 30 79  1  0
 32 80  1  0
 32 81  1  0
 32 82  1  0
M  END
>  <meeko>  (1) 
{"is_sidechain": [false], "intermolecular_energy": 2.731, "internal_energy": -0.839}

$$$$
EPH_relaxed_0001_pdb2pqr_Repair_56_r2_0001_out
     RDKit          3D

 82 86  0  0  0  0  0  0  0  0999 V2000
    4.2110   17.5740   -0.0050 C   0  0  0  0  0  0  0  0  0  0  0  0
    2.8020   18.1620   -0.1180 C   0  0  2  0  0  0  0  0  0  0  0  0
    2.4910   19.1520    1.0220 C   0  0  0  0  0  0  0  0  0  0  0  0
    3.7230   19.8980    1.5420 C   0  0  0  0  0  0  0  0  0  0  0  0
    4.2400   19.2960    2.8130 C   0  0  2  0  0  0  0  0  0  0  0  0
    4.9950   20.1940    3.6370 O   0  0  0  0  0  0  0  0  0  0  0  0
    5.7150   19.0750    3.0950 C   0  0  0  0  0  0  0  0  0  0  0  0
    6.7650   19.4530    2.0970 C   0  0  0  0  0  0  0  0  0  0  0  0
    6.1030   18.0540    4.1180 C   0  0  0  0  0  0  0  0  0  0  0  0
    1.7700   17.0390   -0.1290 C   0  0  1  0  0  0  0  0  0  0  0  0
    0.3400   17.5450   -0.4550 C   0  0  0  0  0  0  0  0  0  0  0  0
   -0.3540   16.4280   -1.2760 C   0  0  0  0  0  0  0  0  0  0  0  0
    0.5670   15.1960   -1.1130 C   0  0  1  0  0  0  0  0  0  0  0  0
    0.1840   14.5890    0.2730 C   0  0  0  0  0  0  0  0  0  0  0  0
    0.4970   14.1250   -2.2500 C   0  0  2  0  0  0  0  0  0  0  0  0
   -0.8710   13.4420   -2.4200 C   0  0  0  0  0  0  0  0  0  0  0  0
   -1.0660   12.1970   -1.6210 C   0  0  0  0  0  0  0  0  0  0  0  0
   -0.0880   11.4910   -1.0220 C   0  0  0  0  0  0  0  0  0  0  0  0
    1.3850   11.8790   -1.2000 C   0  0  1  0  0  0  0  0  0  0  0  0
    2.2200   10.6100   -1.5150 C   0  0  0  0  0  0  0  0  0  0  0  0
    2.0280    9.5100   -0.4750 C   0  0  0  0  0  0  0  0  0  0  0  0
    0.5580    9.1110   -0.3690 C   0  0  2  0  0  0  0  0  0  0  0  0
    0.1600    8.4880   -1.5940 O   0  0  0  0  0  0  0  0  0  0  0  0
   -0.3820   10.3110   -0.0630 C   0  0  0  0  0  0  0  0  0  0  0  0
   -0.1510   10.7950    1.3900 C   0  0  0  0  0  0  0  0  0  0  0  0
   -1.8460    9.7980   -0.1220 C   0  0  0  0  0  0  0  0  0  0  0  0
    1.6720   13.0660   -2.2170 C   0  0  1  0  0  0  0  0  0  0  0  0
    1.8070   12.5050   -3.6660 C   0  0  0  0  0  0  0  0  0  0  0  0
    3.0590   13.7220   -1.8640 C   0  0  0  0  0  0  0  0  0  0  0  0
    3.0460   14.8550   -0.8210 C   0  0  0  0  0  0  0  0  0  0  0  0
    1.9740   15.8960   -1.1550 C   0  0  2  0  0  0  0  0  0  0  0  0
    2.3450   16.5400   -2.5340 C   0  0  0  0  0  0  0  0  0  0  0  0
    4.4778   17.4627    1.0563 H   0  0  0  0  0  0  0  0  0  0  0  0
    4.2379   16.5896   -0.4951 H   0  0  0  0  0  0  0  0  0  0  0  0
    4.9297   18.2473   -0.4951 H   0  0  0  0  0  0  0  0  0  0  0  0
    2.7528   18.7226   -1.0631 H   0  0  0  0  0  0  0  0  0  0  0  0
    1.7673   19.8927    0.6510 H   0  0  0  0  0  0  0  0  0  0  0  0
    2.0943   18.5618    1.8613 H   0  0  0  0  0  0  0  0  0  0  0  0
    4.5144   19.8544    0.7792 H   0  0  0  0  0  0  0  0  0  0  0  0
    3.4318   20.9384    1.7490 H   0  0  0  0  0  0  0  0  0  0  0  0
    3.3680   18.6287    2.8793 H   0  0  0  0  0  0  0  0  0  0  0  0
    7.6726   19.7797    2.6256 H   0  0  0  0  0  0  0  0  0  0  0  0
    7.0011   18.5834    1.4660 H   0  0  0  0  0  0  0  0  0  0  0  0
    6.3927   20.2735    1.4660 H   0  0  0  0  0  0  0  0  0  0  0  0
    5.9462   18.4666    5.1256 H   0  0  0  0  0  0  0  0  0  0  0  0
    5.4844   17.1534    3.9902 H   0  0  0  0  0  0  0  0  0  0  0  0
    7.1636   17.7915    3.9902 H   0  0  0  0  0  0  0  0  0  0  0  0
    1.9040   16.6553    0.8932 H   0  0  0  0  0  0  0  0  0  0  0  0
   -0.2165   17.7327    0.4751 H   0  0  0  0  0  0  0  0  0  0  0  0
    0.3743   18.4876   -1.0210 H   0  0  0  0  0  0  0  0  0  0  0  0
   -1.3573   16.2186   -0.8766 H   0  0  0  0  0  0  0  0  0  0  0  0
   -0.4924   16.7094   -2.3304 H   0  0  0  0  0  0  0  0  0  0  0  0
    0.5855   15.2253    1.0755 H   0  0  0  0  0  0  0  0  0  0  0  0
   -0.9113   14.5362    0.3602 H   0  0  0  0  0  0  0  0  0  0  0  0
    0.6079   13.5777    0.3602 H   0  0  0  0  0  0  0  0  0  0  0  0
    0.6415   14.7331   -3.1552 H   0  0  0  0  0  0  0  0  0  0  0  0
   -1.6490   14.1611   -2.1239 H   0  0  0  0  0  0  0  0  0  0  0  0
   -0.9302   13.1383   -3.4756 H   0  0  0  0  0  0  0  0  0  0  0  0
   -2.0952   11.8245   -1.5121 H   0  0  0  0  0  0  0  0  0  0  0  0
    1.7046   12.3076   -0.2387 H   0  0  0  0  0  0  0  0  0  0  0  0
    1.9153   10.2226   -2.4984 H   0  0  0  0  0  0  0  0  0  0  0  0
    3.2816   10.8978   -1.5044 H   0  0  0  0  0  0  0  0  0  0  0  0
    2.6198    8.6302   -0.7679 H   0  0  0  0  0  0  0  0  0  0  0  0
    2.3608    9.8887    0.5027 H   0  0  0  0  0  0  0  0  0  0  0  0
    0.4650    8.4159    0.4785 H   0  0  0  0  0  0  0  0  0  0  0  0
    0.0810    9.1850   -2.2670 H   0  0  0  0  0  0  0  0  0  0  0  0
   -0.5154   10.0315    2.0931 H   0  0  0  0  0  0  0  0  0  0  0  0
    0.9238   10.9618    1.5544 H   0  0  0  0  0  0  0  0  0  0  0  0
   -0.6973   11.7355    1.5544 H   0  0  0  0  0  0  0  0  0  0  0  0
   -2.2290    9.6638    0.9004 H   0  0  0  0  0  0  0  0  0  0  0  0
   -2.4702   10.5310   -0.6541 H   0  0  0  0  0  0  0  0  0  0  0  0
   -1.8762    8.8357   -0.6541 H   0  0  0  0  0  0  0  0  0  0  0  0
    2.0642   11.4363   -3.6230 H   0  0  0  0  0  0  0  0  0  0  0  0
    0.8528   12.6314   -4.1985 H   0  0  0  0  0  0  0  0  0  0  0  0
    2.5992   13.0516   -4.1985 H   0  0  0  0  0  0  0  0  0  0  0  0
    3.7160   12.9264   -1.4828 H   0  0  0  0  0  0  0  0  0  0  0  0
    3.4000   14.1939   -2.7973 H   0  0  0  0  0  0  0  0  0  0  0  0
    2.8364   14.4284    0.1710 H   0  0  0  0  0  0  0  0  0  0  0  0
    4.0287   15.3492   -0.8281 H   0  0  0  0  0  0  0  0  0  0  0  0
    2.8876   17.4818   -2.3647 H   0  0  0  0  0  0  0  0  0  0  0  0
    2.9822   15.8469   -3.1028 H   0  0  0  0  0  0  0  0  0  0  0  0
    1.4257   16.7435   -3.1028 H   0  0  0  0  0  0  0  0  0  0  0  0
  1  2  1  0
  2  3  1  0
  3  4  1  0
  4  5  1  0
  5  6  1  0
  6  7  1  0
  7  8  1  0
  7  9  1  0
  2 10  1  0
 10 11  1  0
 11 12  1  0
 12 13  1  0
 13 14  1  1
 13 15  1  0
 15 16  1  0
 16 17  1  0
 17 18  2  0
 18 19  1  0
 19 20  1  0
 20 21  1  0
 21 22  1  0
 22 23  1  0
 22 24  1  0
 24 25  1  0
 24 26  1  0
 19 27  1  0
 27 28  1  6
 27 29  1  0
 29 30  1  0
 30 31  1  0
 31 32  1  6
  7  5  1  0
 31 10  1  0
 31 13  1  0
 27 15  1  0
 24 18  1  0
  1 33  1  0
  1 34  1  0
  1 35  1  0
  2 36  1  6
  3 37  1  0
  3 38  1  0
  4 39  1  0
  4 40  1  0
  5 41  1  1
  8 42  1  0
  8 43  1  0
  8 44  1  0
  9 45  1  0
  9 46  1  0
  9 47  1  0
 10 48  1  1
 11 49  1  0
 11 50  1  0
 12 51  1  0
 12 52  1  0
 14 53  1  0
 14 54  1  0
 14 55  1  0
 15 56  1  6
 16 57  1  0
 16 58  1  0
 17 59  1  0
 19 60  1  1
 20 61  1  0
 20 62  1  0
 21 63  1  0
 21 64  1  0
 22 65  1  1
 23 66  1  0
 25 67  1  0
 25 68  1  0
 25 69  1  0
 26 70  1  0
 26 71  1  0
 26 72  1  0
 28 73  1  0
 28 74  1  0
 28 75  1  0
 29 76  1  0
 29 77  1  0
 30 78  1  0
 30 79  1  0
 32 80  1  0
 32 81  1  0
 32 82  1  0
M  END
>  <meeko>  (2) 
{"is_sidechain": [false], "intermolecular_energy": 2.731, "internal_energy": -0.839}

$$$$
EPH_relaxed_0001_pdb2pqr_Repair_56_r2_0001_out
     RDKit          3D

 82 86  0  0  0  0  0  0  0  0999 V2000
    0.4380   18.3820    0.0110 C   0  0  0  0  0  0  0  0  0  0  0  0
    1.5270   17.3330   -0.2260 C   0  0  2  0  0  0  0  0  0  0  0  0
    2.7290   17.9080   -1.0020 C   0  0  0  0  0  0  0  0  0  0  0  0
    3.9600   18.1660   -0.1280 C   0  0  0  0  0  0  0  0  0  0  0  0
    3.5780   18.6420    1.2400 C   0  0  2  0  0  0  0  0  0  0  0  0
    3.8390   20.0310    1.4850 O   0  0  0  0  0  0  0  0  0  0  0  0
    4.5860   19.0950    2.2800 C   0  0  0  0  0  0  0  0  0  0  0  0
    6.0550   19.0920    1.9960 C   0  0  0  0  0  0  0  0  0  0  0  0
    4.1850   19.0740    3.7220 C   0  0  0  0  0  0  0  0  0  0  0  0
    0.9450   16.1400   -0.9760 C   0  0  1  0  0  0  0  0  0  0  0  0
    0.8130   16.4000   -2.5000 C   0  0  0  0  0  0  0  0  0  0  0  0
    1.0940   15.0500   -3.2100 C   0  0  0  0  0  0  0  0  0  0  0  0
    1.0500   13.9970   -2.0780 C   0  0  1  0  0  0  0  0  0  0  0  0
   -0.4680   13.7100   -1.8570 C   0  0  0  0  0  0  0  0  0  0  0  0
    1.8570   12.6810   -2.3250 C   0  0  2  0  0  0  0  0  0  0  0  0
    1.3790   11.8390   -3.5210 C   0  0  0  0  0  0  0  0  0  0  0  0
    0.3430   10.8120   -3.2040 C   0  0  0  0  0  0  0  0  0  0  0  0
    0.0230   10.3790   -1.9700 C   0  0  0  0  0  0  0  0  0  0  0  0
    0.7990   10.8630   -0.7390 C   0  0  1  0  0  0  0  0  0  0  0  0
    1.1520    9.6490    0.1610 C   0  0  0  0  0  0  0  0  0  0  0  0
   -0.0740    8.8210    0.5330 C   0  0  0  0  0  0  0  0  0  0  0  0
   -0.7860    8.3100   -0.7170 C   0  0  2  0  0  0  0  0  0  0  0  0
    0.0640    7.3690   -1.3800 O   0  0  0  0  0  0  0  0  0  0  0  0
   -1.1820    9.4430   -1.7040 C   0  0  0  0  0  0  0  0  0  0  0  0
   -2.3280   10.2880   -1.0950 C   0  0  0  0  0  0  0  0  0  0  0  0
   -1.7630    8.7810   -2.9830 C   0  0  0  0  0  0  0  0  0  0  0  0
    2.0560   11.7900   -1.0330 C   0  0  1  0  0  0  0  0  0  0  0  0
    3.3180   10.9110   -1.2890 C   0  0  0  0  0  0  0  0  0  0  0  0
    2.3680   12.6530    0.2460 C   0  0  0  0  0  0  0  0  0  0  0  0
    1.6290   13.9990    0.3750 C   0  0  0  0  0  0  0  0  0  0  0  0
    1.7370   14.8100   -0.9200 C   0  0  2  0  0  0  0  0  0  0  0  0
    3.2520   15.1330   -1.1560 C   0  0  0  0  0  0  0  0  0  0  0  0
    0.2928   18.5219    1.0924 H   0  0  0  0  0  0  0  0  0  0  0  0
    0.7424   19.3359   -0.4445 H   0  0  0  0  0  0  0  0  0  0  0  0
   -0.5038   18.0422   -0.4445 H   0  0  0  0  0  0  0  0  0  0  0  0
    1.8947   17.0097    0.7590 H   0  0  0  0  0  0  0  0  0  0  0  0
    3.0069   17.1936   -1.7909 H   0  0  0  0  0  0  0  0  0  0  0  0
    2.4138   18.8804   -1.4082 H   0  0  0  0  0  0  0  0  0  0  0  0
    4.5323   17.2314   -0.0334 H   0  0  0  0  0  0  0  0  0  0  0  0
    4.5632   18.9506   -0.6081 H   0  0  0  0  0  0  0  0  0  0  0  0
    2.7454   17.9244    1.2832 H   0  0  0  0  0  0  0  0  0  0  0  0
    6.6118   19.0909    2.9446 H   0  0  0  0  0  0  0  0  0  0  0  0
    6.3147   18.1933    1.4173 H   0  0  0  0  0  0  0  0  0  0  0  0
    6.3184   19.9896    1.4173 H   0  0  0  0  0  0  0  0  0  0  0  0
    5.0845   19.1211    4.3534 H   0  0  0  0  0  0  0  0  0  0  0  0
    3.5409   19.9396    3.9361 H   0  0  0  0  0  0  0  0  0  0  0  0
    3.6349   18.1458    3.9361 H   0  0  0  0  0  0  0  0  0  0  0  0
   -0.0093   16.0320   -0.4397 H   0  0  0  0  0  0  0  0  0  0  0  0
   -0.2026   16.7491   -2.7382 H   0  0  0  0  0  0  0  0  0  0  0  0
    1.5197   17.1751   -2.8312 H   0  0  0  0  0  0  0  0  0  0  0  0
    0.3223   14.8405   -3.9654 H   0  0  0  0  0  0  0  0  0  0  0  0
    2.0570   15.0509   -3.7416 H   0  0  0  0  0  0  0  0  0  0  0  0
   -0.6803   13.6699   -0.7784 H   0  0  0  0  0  0  0  0  0  0  0  0
   -1.0637   14.5114   -2.3184 H   0  0  0  0  0  0  0  0  0  0  0  0
   -0.7300   12.7464   -2.3184 H   0  0  0  0  0  0  0  0  0  0  0  0
    2.8504   13.0616   -2.6048 H   0  0  0  0  0  0  0  0  0  0  0  0
    0.9599   12.5238   -4.2730 H   0  0  0  0  0  0  0  0  0  0  0  0
    2.2604   11.2835   -3.8738 H   0  0  0  0  0  0  0  0  0  0  0  0
   -0.2052   10.3719   -4.0500 H   0  0  0  0  0  0  0  0  0  0  0  0
    0.1223   11.5427   -0.2004 H   0  0  0  0  0  0  0  0  0  0  0  0
    1.8622    9.0049   -0.3782 H   0  0  0  0  0  0  0  0  0  0  0  0
    1.5868   10.0393    1.0930 H   0  0  0  0  0  0  0  0  0  0  0  0
    0.2429    7.9625    1.1433 H   0  0  0  0  0  0  0  0  0  0  0  0
   -0.7701    9.4581    1.0982 H   0  0  0  0  0  0  0  0  0  0  0  0
   -1.7241    7.8369   -0.3913 H   0  0  0  0  0  0  0  0  0  0  0  0
    0.0570    7.5830   -2.3280 H   0  0  0  0  0  0  0  0  0  0  0  0
   -2.2711   10.2460    0.0027 H   0  0  0  0  0  0  0  0  0  0  0  0
   -2.2305   11.3320   -1.4276 H   0  0  0  0  0  0  0  0  0  0  0  0
   -3.2965    9.8862   -1.4276 H   0  0  0  0  0  0  0  0  0  0  0  0
   -2.4636    7.9827   -2.6968 H   0  0  0  0  0  0  0  0  0  0  0  0
   -2.2935    9.5381   -3.5791 H   0  0  0  0  0  0  0  0  0  0  0  0
   -0.9434    8.3532   -3.5791 H   0  0  0  0  0  0  0  0  0  0  0  0
    3.7545   10.6070   -0.3262 H   0  0  0  0  0  0  0  0  0  0  0  0
    3.0316   10.0159   -1.8607 H   0  0  0  0  0  0  0  0  0  0  0  0
    4.0583   11.4899   -1.8607 H   0  0  0  0  0  0  0  0  0  0  0  0
    2.1108   12.0467    1.1270 H   0  0  0  0  0  0  0  0  0  0  0  0
    3.4326   12.9168    0.1617 H   0  0  0  0  0  0  0  0  0  0  0  0
    0.5678   13.8075    0.5922 H   0  0  0  0  0  0  0  0  0  0  0  0
    2.0908   14.5760    1.1898 H   0  0  0  0  0  0  0  0  0  0  0  0
    3.7593   15.2412   -0.1860 H   0  0  0  0  0  0  0  0  0  0  0  0
    3.7174   14.3139   -1.7239 H   0  0  0  0  0  0  0  0  0  0  0  0
    3.3429   16.0707   -1.7239 H   0  0  0  0  0  0  0  0  0  0  0  0
  1  2  1  0
  2  3  1  0
  3  4  1  0
  4  5  1  0
  5  6  1  0
  6  7  1  0
  7  8  1  0
  7  9  1  0
  2 10  1  0
 10 11  1  0
 11 12  1  0
 12 13  1  0
 13 14  1  1
 13 15  1  0
 15 16  1  0
 16 17  1  0
 17 18  2  0
 18 19  1  0
 19 20  1  0
 20 21  1  0
 21 22  1  0
 22 23  1  0
 22 24  1  0
 24 25  1  0
 24 26  1  0
 19 27  1  0
 27 28  1  6
 27 29  1  0
 29 30  1  0
 30 31  1  0
 31 32  1  6
  7  5  1  0
 31 10  1  0
 31 13  1  0
 27 15  1  0
 24 18  1  0
  1 33  1  0
  1 34  1  0
  1 35  1  0
  2 36  1  1
  3 37  1  0
  3 38  1  0
  4 39  1  0
  4 40  1  0
  5 41  1  1
  8 42  1  0
  8 43  1  0
  8 44  1  0
  9 45  1  0
  9 46  1  0
  9 47  1  0
 10 48  1  1
 11 49  1  0
 11 50  1  0
 12 51  1  0
 12 52  1  0
 14 53  1  0
 14 54  1  0
 14 55  1  0
 15 56  1  6
 16 57  1  0
 16 58  1  0
 17 59  1  0
 19 60  1  1
 20 61  1  0
 20 62  1  0
 21 63  1  0
 21 64  1  0
 22 65  1  1
 23 66  1  0
 25 67  1  0
 25 68  1  0
 25 69  1  0
 26 70  1  0
 26 71  1  0
 26 72  1  0
 28 73  1  0
 28 74  1  0
 28 75  1  0
 29 76  1  0
 29 77  1  0
 30 78  1  0
 30 79  1  0
 32 80  1  0
 32 81  1  0
 32 82  1  0
M  END
>  <meeko>  (3) 
{"is_sidechain": [false], "intermolecular_energy": 2.731, "internal_energy": -0.839}

$$$$
EPH_relaxed_0001_pdb2pqr_Repair_56_r2_0001_out
     RDKit          3D

 82 86  0  0  0  0  0  0  0  0999 V2000
   -1.6820    8.8090   -1.7850 C   0  0  0  0  0  0  0  0  0  0  0  0
   -1.7290    9.1290   -0.2880 C   0  0  2  0  0  0  0  0  0  0  0  0
   -3.1710    9.3310    0.2180 C   0  0  0  0  0  0  0  0  0  0  0  0
   -4.2410    9.0220   -0.8330 C   0  0  0  0  0  0  0  0  0  0  0  0
   -5.3260    8.1490   -0.2800 C   0  0  2  0  0  0  0  0  0  0  0  0
   -5.6200    6.9880   -1.0680 O   0  0  0  0  0  0  0  0  0  0  0  0
   -6.6730    7.9590   -0.9530 C   0  0  0  0  0  0  0  0  0  0  0  0
   -7.0060    8.6490   -2.2390 C   0  0  0  0  0  0  0  0  0  0  0  0
   -7.8300    7.4990   -0.1230 C   0  0  0  0  0  0  0  0  0  0  0  0
   -0.8960   10.3710    0.0040 C   0  0  1  0  0  0  0  0  0  0  0  0
    0.2090   10.1140    1.0630 C   0  0  0  0  0  0  0  0  0  0  0  0
    1.4270   10.9840    0.6600 C   0  0  0  0  0  0  0  0  0  0  0  0
    0.8750   11.9540   -0.4110 C   0  0  1  0  0  0  0  0  0  0  0  0
    0.1730   13.0890    0.3980 C   0  0  0  0  0  0  0  0  0  0  0  0
    1.9170   12.5290   -1.4250 C   0  0  2  0  0  0  0  0  0  0  0  0
    3.0280   13.3910   -0.8010 C   0  0  0  0  0  0  0  0  0  0  0  0
    2.7290   14.8510   -0.7130 C   0  0  0  0  0  0  0  0  0  0  0  0
    1.7420   15.4880   -1.3700 C   0  0  0  0  0  0  0  0  0  0  0  0
    0.8630   14.7450   -2.3840 C   0  0  1  0  0  0  0  0  0  0  0  0
    0.7290   15.5950   -3.6750 C   0  0  0  0  0  0  0  0  0  0  0  0
    0.2290   17.0090   -3.3950 C   0  0  0  0  0  0  0  0  0  0  0  0
    1.1610   17.7350   -2.4290 C   0  0  2  0  0  0  0  0  0  0  0  0
    2.4200   17.9470   -3.0740 O   0  0  0  0  0  0  0  0  0  0  0  0
    1.3790   16.9680   -1.0950 C   0  0  0  0  0  0  0  0  0  0  0  0
    0.0780   17.0020   -0.2560 C   0  0  0  0  0  0  0  0  0  0  0  0
    2.4470   17.7380   -0.2710 C   0  0  0  0  0  0  0  0  0  0  0  0
    1.2730   13.2390   -2.6840 C   0  0  1  0  0  0  0  0  0  0  0  0
    2.3440   13.1950   -3.8170 C   0  0  0  0  0  0  0  0  0  0  0  0
    0.0170   12.4630   -3.2310 C   0  0  0  0  0  0  0  0  0  0  0  0
   -0.9100   11.8160   -2.1840 C   0  0  0  0  0  0  0  0  0  0  0  0
   -0.1050   10.9910   -1.1750 C   0  0  2  0  0  0  0  0  0  0  0  0
    0.5950    9.8280   -1.9580 C   0  0  0  0  0  0  0  0  0  0  0  0
   -1.5234    7.7294   -1.9244 H   0  0  0  0  0  0  0  0  0  0  0  0
   -2.6330    9.1033   -2.2529 H   0  0  0  0  0  0  0  0  0  0  0  0
   -0.8558    9.3644   -2.2529 H   0  0  0  0  0  0  0  0  0  0  0  0
   -1.3094    8.2651    0.2482 H   0  0  0  0  0  0  0  0  0  0  0  0
   -3.3317    8.6696    1.0821 H   0  0  0  0  0  0  0  0  0  0  0  0
   -3.2742   10.3946    0.4788 H   0  0  0  0  0  0  0  0  0  0  0  0
   -4.6853    9.9673   -1.1779 H   0  0  0  0  0  0  0  0  0  0  0  0
   -3.7600    8.4857   -1.6643 H   0  0  0  0  0  0  0  0  0  0  0  0
   -5.0473    8.4155    0.7502 H   0  0  0  0  0  0  0  0  0  0  0  0
   -7.4748    9.6204   -2.0232 H   0  0  0  0  0  0  0  0  0  0  0  0
   -6.0851    8.8072   -2.8194 H   0  0  0  0  0  0  0  0  0  0  0  0
   -7.7028    8.0264   -2.8194 H   0  0  0  0  0  0  0  0  0  0  0  0
   -7.5790    7.5988    0.9433 H   0  0  0  0  0  0  0  0  0  0  0  0
   -8.7126    8.1146   -0.3511 H   0  0  0  0  0  0  0  0  0  0  0  0
   -8.0490    6.4454   -0.3511 H   0  0  0  0  0  0  0  0  0  0  0  0
   -1.6945   11.0568    0.3233 H   0  0  0  0  0  0  0  0  0  0  0  0
   -0.1492   10.4036    2.0619 H   0  0  0  0  0  0  0  0  0  0  0  0
    0.4801    9.0486    1.0998 H   0  0  0  0  0  0  0  0  0  0  0  0
    1.8108   11.5408    1.5276 H   0  0  0  0  0  0  0  0  0  0  0  0
    2.2655   10.3797    0.2836 H   0  0  0  0  0  0  0  0  0  0  0  0
    0.2909   12.8984    1.4749 H   0  0  0  0  0  0  0  0  0  0  0  0
    0.6305   14.0567    0.1446 H   0  0  0  0  0  0  0  0  0  0  0  0
   -0.8972   13.1118    0.1446 H   0  0  0  0  0  0  0  0  0  0  0  0
    2.4152   11.6194   -1.7917 H   0  0  0  0  0  0  0  0  0  0  0  0
    3.2141   13.0202    0.2178 H   0  0  0  0  0  0  0  0  0  0  0  0
    3.8967   13.2981   -1.4693 H   0  0  0  0  0  0  0  0  0  0  0  0
    3.3695   15.4574   -0.0557 H   0  0  0  0  0  0  0  0  0  0  0  0
   -0.1223   14.6329   -1.9079 H   0  0  0  0  0  0  0  0  0  0  0  0
    1.7147   15.6589   -4.1590 H   0  0  0  0  0  0  0  0  0  0  0  0
   -0.0096   15.1021   -4.3243 H   0  0  0  0  0  0  0  0  0  0  0  0
    0.1836   17.5688   -4.3408 H   0  0  0  0  0  0  0  0  0  0  0  0
   -0.7696   16.9446   -2.9382 H   0  0  0  0  0  0  0  0  0  0  0  0
    0.6840   18.6908   -2.1664 H   0  0  0  0  0  0  0  0  0  0  0  0
    3.0840   18.1010   -2.3810 H   0  0  0  0  0  0  0  0  0  0  0  0
    0.3317   16.9954    0.8143 H   0  0  0  0  0  0  0  0  0  0  0  0
   -0.4875   17.9152   -0.4932 H   0  0  0  0  0  0  0  0  0  0  0  0
   -0.5344   16.1196   -0.4932 H   0  0  0  0  0  0  0  0  0  0  0  0
    2.2528   17.5980    0.8026 H   0  0  0  0  0  0  0  0  0  0  0  0
    3.4475   17.3521   -0.5160 H   0  0  0  0  0  0  0  0  0  0  0  0
    2.3970   18.8092   -0.5160 H   0  0  0  0  0  0  0  0  0  0  0  0
    3.3485   13.1537   -3.3706 H   0  0  0  0  0  0  0  0  0  0  0  0
    2.1825   12.3027   -4.4397 H   0  0  0  0  0  0  0  0  0  0  0  0
    2.2563   14.0975   -4.4397 H   0  0  0  0  0  0  0  0  0  0  0  0
   -0.5856   13.1745   -3.8146 H   0  0  0  0  0  0  0  0  0  0  0  0
    0.4275   11.6229   -3.8104 H   0  0  0  0  0  0  0  0  0  0  0  0
   -1.4555   12.6070   -1.6485 H   0  0  0  0  0  0  0  0  0  0  0  0
   -1.6128   11.1475   -2.7028 H   0  0  0  0  0  0  0  0  0  0  0  0
    1.0260    9.1119   -1.2429 H   0  0  0  0  0  0  0  0  0  0  0  0
   -0.1443    9.3147   -2.5904 H   0  0  0  0  0  0  0  0  0  0  0  0
    1.3947   10.2410   -2.5904 H   0  0  0  0  0  0  0  0  0  0  0  0
  1  2  1  0
  2  3  1  0
  3  4  1  0
  4  5  1  0
  5  6  1  0
  6  7  1  0
  7  8  1  0
  7  9  1  0
  2 10  1  0
 10 11  1  0
 11 12  1  0
 12 13  1  0
 13 14  1  1
 13 15  1  0
 15 16  1  0
 16 17  1  0
 17 18  2  0
 18 19  1  0
 19 20  1  0
 20 21  1  0
 21 22  1  0
 22 23  1  0
 22 24  1  0
 24 25  1  0
 24 26  1  0
 19 27  1  0
 27 28  1  6
 27 29  1  0
 29 30  1  0
 30 31  1  0
 31 32  1  6
  7  5  1  0
 31 10  1  0
 31 13  1  0
 27 15  1  0
 24 18  1  0
  1 33  1  0
  1 34  1  0
  1 35  1  0
  2 36  1  1
  3 37  1  0
  3 38  1  0
  4 39  1  0
  4 40  1  0
  5 41  1  1
  8 42  1  0
  8 43  1  0
  8 44  1  0
  9 45  1  0
  9 46  1  0
  9 47  1  0
 10 48  1  1
 11 49  1  0
 11 50  1  0
 12 51  1  0
 12 52  1  0
 14 53  1  0
 14 54  1  0
 14 55  1  0
 15 56  1  6
 16 57  1  0
 16 58  1  0
 17 59  1  0
 19 60  1  1
 20 61  1  0
 20 62  1  0
 21 63  1  0
 21 64  1  0
 22 65  1  1
 23 66  1  0
 25 67  1  0
 25 68  1  0
 25 69  1  0
 26 70  1  0
 26 71  1  0
 26 72  1  0
 28 73  1  0
 28 74  1  0
 28 75  1  0
 29 76  1  0
 29 77  1  0
 30 78  1  0
 30 79  1  0
 32 80  1  0
 32 81  1  0
 32 82  1  0
M  END
>  <meeko>  (4) 
{"is_sidechain": [false], "intermolecular_energy": 2.731, "internal_energy": -0.839}

$$$$
EPH_relaxed_0001_pdb2pqr_Repair_56_r2_0001_out
     RDKit          3D

 82 86  0  0  0  0  0  0  0  0999 V2000
    3.7100   17.7370    0.6090 C   0  0  0  0  0  0  0  0  0  0  0  0
    2.7780   18.0460   -0.5650 C   0  0  2  0  0  0  0  0  0  0  0  0
    2.1020   19.4250   -0.4240 C   0  0  0  0  0  0  0  0  0  0  0  0
    1.2210   19.5540    0.8220 C   0  0  0  0  0  0  0  0  0  0  0  0
   -0.1170   20.1430    0.4960 C   0  0  2  0  0  0  0  0  0  0  0  0
   -1.0350   20.1910    1.5960 O   0  0  0  0  0  0  0  0  0  0  0  0
   -1.4070   19.3440    0.4970 C   0  0  0  0  0  0  0  0  0  0  0  0
   -1.4200   17.8850    0.8310 C   0  0  0  0  0  0  0  0  0  0  0  0
   -2.5690   19.8580   -0.2950 C   0  0  0  0  0  0  0  0  0  0  0  0
    1.7180   16.9570   -0.6880 C   0  0  1  0  0  0  0  0  0  0  0  0
    0.4480   17.4410   -1.4360 C   0  0  0  0  0  0  0  0  0  0  0  0
   -0.0820   16.2310   -2.2470 C   0  0  0  0  0  0  0  0  0  0  0  0
    0.6940   15.0160   -1.6880 C   0  0  1  0  0  0  0  0  0  0  0  0
   -0.0590   14.6280   -0.3770 C   0  0  0  0  0  0  0  0  0  0  0  0
    0.8490   13.7930   -2.6490 C   0  0  2  0  0  0  0  0  0  0  0  0
   -0.4700   13.1220   -3.0690 C   0  0  0  0  0  0  0  0  0  0  0  0
   -0.9310   12.0120   -2.1850 C   0  0  0  0  0  0  0  0  0  0  0  0
   -0.1790   11.3800   -1.2650 C   0  0  0  0  0  0  0  0  0  0  0  0
    1.3130   11.7050   -1.1100 C   0  0  1  0  0  0  0  0  0  0  0  0
    2.1240   10.3860   -1.0240 C   0  0  0  0  0  0  0  0  0  0  0  0
    1.6130    9.4540    0.0700 C   0  0  0  0  0  0  0  0  0  0  0  0
    0.1430    9.1080   -0.1510 C   0  0  2  0  0  0  0  0  0  0  0  0
    0.0290    8.3210   -1.3400 O   0  0  0  0  0  0  0  0  0  0  0  0
   -0.7720   10.3600   -0.2630 C   0  0  0  0  0  0  0  0  0  0  0  0
   -0.8850   11.0470    1.1210 C   0  0  0  0  0  0  0  0  0  0  0  0
   -2.2020    9.8760   -0.6250 C   0  0  0  0  0  0  0  0  0  0  0  0
    1.9140   12.7240   -2.1710 C   0  0  1  0  0  0  0  0  0  0  0  0
    2.3750   11.9540   -3.4460 C   0  0  0  0  0  0  0  0  0  0  0  0
    3.2050   13.3940   -1.5660 C   0  0  0  0  0  0  0  0  0  0  0  0
    2.9970   14.6680   -0.7250 C   0  0  0  0  0  0  0  0  0  0  0  0
    2.1050   15.6720   -1.4620 C   0  0  2  0  0  0  0  0  0  0  0  0
    2.8480   16.0980   -2.7740 C   0  0  0  0  0  0  0  0  0  0  0  0
    3.1782   17.9133    1.5556 H   0  0  0  0  0  0  0  0  0  0  0  0
    4.0282   16.6853    0.5576 H   0  0  0  0  0  0  0  0  0  0  0  0
    4.5935   18.3903    0.5576 H   0  0  0  0  0  0  0  0  0  0  0  0
    3.3929   18.0718   -1.4767 H   0  0  0  0  0  0  0  0  0  0  0  0
    2.8875   20.1935   -0.3750 H   0  0  0  0  0  0  0  0  0  0  0  0
    1.4448   19.5517   -1.2970 H   0  0  0  0  0  0  0  0  0  0  0  0
    1.0739   18.5555    1.2595 H   0  0  0  0  0  0  0  0  0  0  0  0
    1.7271   20.2248    1.5318 H   0  0  0  0  0  0  0  0  0  0  0  0
    0.3349   20.8136   -0.2497 H   0  0  0  0  0  0  0  0  0  0  0  0
   -1.4211   17.7590    1.9238 H   0  0  0  0  0  0  0  0  0  0  0  0
   -2.3223   17.4199    0.4073 H   0  0  0  0  0  0  0  0  0  0  0  0
   -0.5261   17.4039    0.4073 H   0  0  0  0  0  0  0  0  0  0  0  0
   -3.3553   20.2058    0.3912 H   0  0  0  0  0  0  0  0  0  0  0  0
   -2.2394   20.6943   -0.9290 H   0  0  0  0  0  0  0  0  0  0  0  0
   -2.9660   19.0515   -0.9290 H   0  0  0  0  0  0  0  0  0  0  0  0
    1.5687   16.7245    0.3767 H   0  0  0  0  0  0  0  0  0  0  0  0
   -0.3120   17.7756   -0.7146 H   0  0  0  0  0  0  0  0  0  0  0  0
    0.6785   18.2892   -2.0974 H   0  0  0  0  0  0  0  0  0  0  0  0
   -1.1639   16.1047   -2.0935 H   0  0  0  0  0  0  0  0  0  0  0  0
    0.0657   16.3578   -3.3296 H   0  0  0  0  0  0  0  0  0  0  0  0
    0.5384   14.9358    0.4938 H   0  0  0  0  0  0  0  0  0  0  0  0
   -1.0344   15.1357   -0.3504 H   0  0  0  0  0  0  0  0  0  0  0  0
   -0.2117   13.5390   -0.3504 H   0  0  0  0  0  0  0  0  0  0  0  0
    1.2509   14.2591   -3.5607 H   0  0  0  0  0  0  0  0  0  0  0  0
   -1.2542   13.8933   -3.0829 H   0  0  0  0  0  0  0  0  0  0  0  0
   -0.2803   12.6682   -4.0529 H   0  0  0  0  0  0  0  0  0  0  0  0
   -1.9746   11.6820   -2.2945 H   0  0  0  0  0  0  0  0  0  0  0  0
    1.4069   12.2622   -0.1662 H   0  0  0  0  0  0  0  0  0  0  0  0
    2.0545    9.8659   -1.9908 H   0  0  0  0  0  0  0  0  0  0  0  0
    3.1635   10.6492   -0.7789 H   0  0  0  0  0  0  0  0  0  0  0  0
    2.2063    8.5278    0.0600 H   0  0  0  0  0  0  0  0  0  0  0  0
    1.7118    9.9636    1.0398 H   0  0  0  0  0  0  0  0  0  0  0  0
   -0.2000    8.5476    0.7312 H   0  0  0  0  0  0  0  0  0  0  0  0
   -0.2070    7.4160   -1.0730 H   0  0  0  0  0  0  0  0  0  0  0  0
   -0.7614   10.2954    1.9146 H   0  0  0  0  0  0  0  0  0  0  0  0
   -0.1007   11.8125    1.2155 H   0  0  0  0  0  0  0  0  0  0  0  0
   -1.8732   11.5209    1.2155 H   0  0  0  0  0  0  0  0  0  0  0  0
   -2.7688    9.6842    0.2980 H   0  0  0  0  0  0  0  0  0  0  0  0
   -2.7132   10.6512   -1.2147 H   0  0  0  0  0  0  0  0  0  0  0  0
   -2.1373    8.9497   -1.2147 H   0  0  0  0  0  0  0  0  0  0  0  0
    2.9190   11.0453   -3.1489 H   0  0  0  0  0  0  0  0  0  0  0  0
    1.4950   11.6754   -4.0443 H   0  0  0  0  0  0  0  0  0  0  0  0
    3.0362   12.5981   -4.0443 H   0  0  0  0  0  0  0  0  0  0  0  0
    3.6974   12.6484   -0.9244 H   0  0  0  0  0  0  0  0  0  0  0  0
    3.7966   13.7164   -2.4356 H   0  0  0  0  0  0  0  0  0  0  0  0
    2.5209   14.3959    0.2286 H   0  0  0  0  0  0  0  0  0  0  0  0
    3.9771   15.1345   -0.5467 H   0  0  0  0  0  0  0  0  0  0  0  0
    3.7753   16.6296   -2.5141 H   0  0  0  0  0  0  0  0  0  0  0  0
    3.0919   15.2026   -3.3645 H   0  0  0  0  0  0  0  0  0  0  0  0
    2.1985   16.7609   -3.3645 H   0  0  0  0  0  0  0  0  0  0  0  0
  1  2  1  0
  2  3  1  0
  3  4  1  0
  4  5  1  0
  5  6  1  0
  6  7  1  0
  7  8  1  0
  7  9  1  0
  2 10  1  0
 10 11  1  0
 11 12  1  0
 12 13  1  0
 13 14  1  1
 13 15  1  0
 15 16  1  0
 16 17  1  0
 17 18  2  0
 18 19  1  0
 19 20  1  0
 20 21  1  0
 21 22  1  0
 22 23  1  0
 22 24  1  0
 24 25  1  0
 24 26  1  0
 19 27  1  0
 27 28  1  6
 27 29  1  0
 29 30  1  0
 30 31  1  0
 31 32  1  6
  7  5  1  0
 31 10  1  0
 31 13  1  0
 27 15  1  0
 24 18  1  0
  1 33  1  0
  1 34  1  0
  1 35  1  0
  2 36  1  6
  3 37  1  0
  3 38  1  0
  4 39  1  0
  4 40  1  0
  5 41  1  6
  8 42  1  0
  8 43  1  0
  8 44  1  0
  9 45  1  0
  9 46  1  0
  9 47  1  0
 10 48  1  1
 11 49  1  0
 11 50  1  0
 12 51  1  0
 12 52  1  0
 14 53  1  0
 14 54  1  0
 14 55  1  0
 15 56  1  6
 16 57  1  0
 16 58  1  0
 17 59  1  0
 19 60  1  1
 20 61  1  0
 20 62  1  0
 21 63  1  0
 21 64  1  0
 22 65  1  1
 23 66  1  0
 25 67  1  0
 25 68  1  0
 25 69  1  0
 26 70  1  0
 26 71  1  0
 26 72  1  0
 28 73  1  0
 28 74  1  0
 28 75  1  0
 29 76  1  0
 29 77  1  0
 30 78  1  0
 30 79  1  0
 32 80  1  0
 32 81  1  0
 32 82  1  0
M  END
>  <meeko>  (5) 
{"is_sidechain": [false], "intermolecular_energy": 2.731, "internal_energy": -0.839}

$$$$
EPH_relaxed_0001_pdb2pqr_Repair_56_r2_0001_out
     RDKit          3D

 82 86  0  0  0  0  0  0  0  0999 V2000
    0.4130    8.7990   -2.3530 C   0  0  0  0  0  0  0  0  0  0  0  0
    1.1510    9.9390   -3.0610 C   0  0  2  0  0  0  0  0  0  0  0  0
    2.6540    9.9580   -2.7190 C   0  0  0  0  0  0  0  0  0  0  0  0
    3.5260   10.5790   -3.8140 C   0  0  0  0  0  0  0  0  0  0  0  0
    4.9240   10.8290   -3.3330 C   0  0  2  0  0  0  0  0  0  0  0  0
    5.5200   12.0350   -3.8300 O   0  0  0  0  0  0  0  0  0  0  0  0
    6.1380   10.8050   -4.2430 C   0  0  0  0  0  0  0  0  0  0  0  0
    6.0100   10.5220   -5.7070 C   0  0  0  0  0  0  0  0  0  0  0  0
    7.4850   10.5720   -3.6330 C   0  0  0  0  0  0  0  0  0  0  0  0
    0.5160   11.2750   -2.6950 C   0  0  1  0  0  0  0  0  0  0  0  0
   -0.8570   11.1120   -1.9910 C   0  0  0  0  0  0  0  0  0  0  0  0
   -0.9650   12.2550   -0.9500 C   0  0  0  0  0  0  0  0  0  0  0  0
    0.1840   13.2240   -1.3150 C   0  0  1  0  0  0  0  0  0  0  0  0
   -0.3720   14.0780   -2.4970 C   0  0  0  0  0  0  0  0  0  0  0  0
    0.7220   14.1250   -0.1550 C   0  0  2  0  0  0  0  0  0  0  0  0
   -0.3030   15.1060    0.4390 C   0  0  0  0  0  0  0  0  0  0  0  0
   -0.3490   16.4500   -0.2070 C   0  0  0  0  0  0  0  0  0  0  0  0
    0.5890   16.9550   -1.0310 C   0  0  0  0  0  0  0  0  0  0  0  0
    1.8870   16.1870   -1.3090 C   0  0  1  0  0  0  0  0  0  0  0  0
    3.0950   17.1530   -1.1910 C   0  0  0  0  0  0  0  0  0  0  0  0
    2.9470   18.3880   -2.0740 C   0  0  0  0  0  0  0  0  0  0  0  0
    1.6740   19.1560   -1.7270 C   0  0  2  0  0  0  0  0  0  0  0  0
    1.8080   19.7000   -0.4110 O   0  0  0  0  0  0  0  0  0  0  0  0
    0.3910   18.2820   -1.8030 C   0  0  0  0  0  0  0  0  0  0  0  0
    0.0790   17.9420   -3.2820 C   0  0  0  0  0  0  0  0  0  0  0  0
   -0.8000   19.1380   -1.2940 C   0  0  0  0  0  0  0  0  0  0  0  0
    2.0920   14.8470   -0.4790 C   0  0  1  0  0  0  0  0  0  0  0  0
    2.7610   15.1690    0.8920 C   0  0  0  0  0  0  0  0  0  0  0  0
    3.0940   13.9110   -1.2530 C   0  0  0  0  0  0  0  0  0  0  0  0
    2.4870   12.9590   -2.3010 C   0  0  0  0  0  0  0  0  0  0  0  0
    1.2970   12.1910   -1.7190 C   0  0  2  0  0  0  0  0  0  0  0  0
    1.8290   11.3050   -0.5410 C   0  0  0  0  0  0  0  0  0  0  0  0
    0.4969    8.9285   -1.2639 H   0  0  0  0  0  0  0  0  0  0  0  0
   -0.6479    8.8129   -2.6433 H   0  0  0  0  0  0  0  0  0  0  0  0
    0.8600    7.8367   -2.6433 H   0  0  0  0  0  0  0  0  0  0  0  0
    1.0615    9.7694   -4.1442 H   0  0  0  0  0  0  0  0  0  0  0  0
    2.7926   10.5373   -1.7943 H   0  0  0  0  0  0  0  0  0  0  0  0
    2.9723    8.9108   -2.6094 H   0  0  0  0  0  0  0  0  0  0  0  0
    3.5617    9.8932   -4.6733 H   0  0  0  0  0  0  0  0  0  0  0  0
    3.0832   11.5447   -4.0992 H   0  0  0  0  0  0  0  0  0  0  0  0
    4.7099   10.3315   -2.3756 H   0  0  0  0  0  0  0  0  0  0  0  0
    5.5606    9.5283   -5.8504 H   0  0  0  0  0  0  0  0  0  0  0  0
    5.3693   11.2850   -6.1733 H   0  0  0  0  0  0  0  0  0  0  0  0
    7.0060   10.5447   -6.1733 H   0  0  0  0  0  0  0  0  0  0  0  0
    7.3985   10.5870   -2.5365 H   0  0  0  0  0  0  0  0  0  0  0  0
    7.8701    9.5939   -3.9571 H   0  0  0  0  0  0  0  0  0  0  0  0
    8.1762   11.3639   -3.9571 H   0  0  0  0  0  0  0  0  0  0  0  0
    0.4737   11.7371   -3.6924 H   0  0  0  0  0  0  0  0  0  0  0  0
   -1.6713   11.1913   -2.7263 H   0  0  0  0  0  0  0  0  0  0  0  0
   -0.9376   10.1278   -1.5063 H   0  0  0  0  0  0  0  0  0  0  0  0
   -1.9389   12.7605   -1.0277 H   0  0  0  0  0  0  0  0  0  0  0  0
   -0.8881   11.8868    0.0837 H   0  0  0  0  0  0  0  0  0  0  0  0
   -0.9312   14.9369   -2.0975 H   0  0  0  0  0  0  0  0  0  0  0  0
    0.4643   14.4396   -3.1133 H   0  0  0  0  0  0  0  0  0  0  0  0
   -1.0410   13.4595   -3.1133 H   0  0  0  0  0  0  0  0  0  0  0  0
    0.9266   13.3911    0.6384 H   0  0  0  0  0  0  0  0  0  0  0  0
   -1.3005   14.6512    0.3484 H   0  0  0  0  0  0  0  0  0  0  0  0
    0.0099   15.2795    1.4792 H   0  0  0  0  0  0  0  0  0  0  0  0
   -1.2232   17.0821    0.0079 H   0  0  0  0  0  0  0  0  0  0  0  0
    1.8058   15.8156   -2.3412 H   0  0  0  0  0  0  0  0  0  0  0  0
    3.1857   17.4774   -0.1438 H   0  0  0  0  0  0  0  0  0  0  0  0
    3.9904   16.6091   -1.5263 H   0  0  0  0  0  0  0  0  0  0  0  0
    3.8164   19.0449   -1.9233 H   0  0  0  0  0  0  0  0  0  0  0  0
    2.8874   18.0646   -3.1237 H   0  0  0  0  0  0  0  0  0  0  0  0
    1.5553   19.9528   -2.4760 H   0  0  0  0  0  0  0  0  0  0  0  0
    1.1390   20.3980   -0.3110 H   0  0  0  0  0  0  0  0  0  0  0  0
   -0.6642   17.1321   -3.3231 H   0  0  0  0  0  0  0  0  0  0  0  0
   -0.3219   18.8335   -3.7865 H   0  0  0  0  0  0  0  0  0  0  0  0
    1.0016   17.6190   -3.7865 H   0  0  0  0  0  0  0  0  0  0  0  0
   -0.8052   19.1417   -0.1940 H   0  0  0  0  0  0  0  0  0  0  0  0
   -0.6952   20.1687   -1.6637 H   0  0  0  0  0  0  0  0  0  0  0  0
   -1.7435   18.7101   -1.6637 H   0  0  0  0  0  0  0  0  0  0  0  0
    2.0966   14.8492    1.7083 H   0  0  0  0  0  0  0  0  0  0  0  0
    3.7187   14.6332    0.9675 H   0  0  0  0  0  0  0  0  0  0  0  0
    2.9397   16.2518    0.9675 H   0  0  0  0  0  0  0  0  0  0  0  0
    3.8198   14.5559   -1.7701 H   0  0  0  0  0  0  0  0  0  0  0  0
    3.5266   13.2542   -0.4840 H   0  0  0  0  0  0  0  0  0  0  0  0
    2.1476   13.5463   -3.1670 H   0  0  0  0  0  0  0  0  0  0  0  0
    3.2572   12.2349   -2.6051 H   0  0  0  0  0  0  0  0  0  0  0  0
    1.5522   11.7661    0.4186 H   0  0  0  0  0  0  0  0  0  0  0  0
    1.3841   10.3012   -0.6073 H   0  0  0  0  0  0  0  0  0  0  0  0
    2.9241   11.2259   -0.6073 H   0  0  0  0  0  0  0  0  0  0  0  0
  1  2  1  0
  2  3  1  0
  3  4  1  0
  4  5  1  0
  5  6  1  0
  6  7  1  0
  7  8  1  0
  7  9  1  0
  2 10  1  0
 10 11  1  0
 11 12  1  0
 12 13  1  0
 13 14  1  6
 13 15  1  0
 15 16  1  0
 16 17  1  0
 17 18  2  0
 18 19  1  0
 19 20  1  0
 20 21  1  0
 21 22  1  0
 22 23  1  0
 22 24  1  0
 24 25  1  0
 24 26  1  0
 19 27  1  0
 27 28  1  1
 27 29  1  0
 29 30  1  0
 30 31  1  0
 31 32  1  1
  7  5  1  0
 31 10  1  0
 31 13  1  0
 27 15  1  0
 24 18  1  0
  1 33  1  0
  1 34  1  0
  1 35  1  0
  2 36  1  6
  3 37  1  0
  3 38  1  0
  4 39  1  0
  4 40  1  0
  5 41  1  1
  8 42  1  0
  8 43  1  0
  8 44  1  0
  9 45  1  0
  9 46  1  0
  9 47  1  0
 10 48  1  6
 11 49  1  0
 11 50  1  0
 12 51  1  0
 12 52  1  0
 14 53  1  0
 14 54  1  0
 14 55  1  0
 15 56  1  1
 16 57  1  0
 16 58  1  0
 17 59  1  0
 19 60  1  6
 20 61  1  0
 20 62  1  0
 21 63  1  0
 21 64  1  0
 22 65  1  6
 23 66  1  0
 25 67  1  0
 25 68  1  0
 25 69  1  0
 26 70  1  0
 26 71  1  0
 26 72  1  0
 28 73  1  0
 28 74  1  0
 28 75  1  0
 29 76  1  0
 29 77  1  0
 30 78  1  0
 30 79  1  0
 32 80  1  0
 32 81  1  0
 32 82  1  0
M  END
>  <meeko>  (6) 
{"is_sidechain": [false], "intermolecular_energy": 2.731, "internal_energy": -0.839}

$$$$
EPH_relaxed_0001_pdb2pqr_Repair_56_r2_0001_out
     RDKit          3D

 82 86  0  0  0  0  0  0  0  0999 V2000
    2.3860   19.8110   -0.4910 C   0  0  0  0  0  0  0  0  0  0  0  0
    2.4250   18.9340   -1.7460 C   0  0  2  0  0  0  0  0  0  0  0  0
    1.0860   18.9550   -2.5110 C   0  0  0  0  0  0  0  0  0  0  0  0
    0.0800   19.9700   -1.9620 C   0  0  0  0  0  0  0  0  0  0  0  0
   -1.1350   19.2970   -1.3990 C   0  0  2  0  0  0  0  0  0  0  0  0
   -2.1690   20.1910   -0.9680 O   0  0  0  0  0  0  0  0  0  0  0  0
   -1.5480   19.3980    0.0570 C   0  0  0  0  0  0  0  0  0  0  0  0
   -0.7490   20.1940    1.0410 C   0  0  0  0  0  0  0  0  0  0  0  0
   -2.4410   18.3390    0.6230 C   0  0  0  0  0  0  0  0  0  0  0  0
    2.7860   17.5020   -1.3680 C   0  0  1  0  0  0  0  0  0  0  0  0
    3.5270   17.4120   -0.0070 C   0  0  0  0  0  0  0  0  0  0  0  0
    3.0690   16.0920    0.6650 C   0  0  0  0  0  0  0  0  0  0  0  0
    2.3480   15.3120   -0.4590 C   0  0  1  0  0  0  0  0  0  0  0  0
    3.4930   14.6430   -1.2820 C   0  0  0  0  0  0  0  0  0  0  0  0
    1.2810   14.2660    0.0020 C   0  0  2  0  0  0  0  0  0  0  0  0
    1.8280   13.1060    0.8520 C   0  0  0  0  0  0  0  0  0  0  0  0
    2.2650   11.9040    0.0830 C   0  0  0  0  0  0  0  0  0  0  0  0
    1.9610   11.6430   -1.2020 C   0  0  0  0  0  0  0  0  0  0  0  0
    1.0180   12.5610   -1.9900 C   0  0  1  0  0  0  0  0  0  0  0  0
   -0.0230   11.7010   -2.7540 C   0  0  0  0  0  0  0  0  0  0  0  0
    0.6290   10.6400   -3.6350 C   0  0  0  0  0  0  0  0  0  0  0  0
    1.5130    9.7120   -2.8070 C   0  0  2  0  0  0  0  0  0  0  0  0
    0.6830    8.9500   -1.9240 O   0  0  0  0  0  0  0  0  0  0  0  0
    2.5950   10.4670   -1.9850 C   0  0  0  0  0  0  0  0  0  0  0  0
    3.6680   11.0430   -2.9420 C   0  0  0  0  0  0  0  0  0  0  0  0
    3.3240    9.4310   -1.0880 C   0  0  0  0  0  0  0  0  0  0  0  0
    0.3450   13.7390   -1.1610 C   0  0  1  0  0  0  0  0  0  0  0  0
   -0.9650   13.2340   -0.4840 C   0  0  0  0  0  0  0  0  0  0  0  0
   -0.0810   14.8860   -2.1520 C   0  0  0  0  0  0  0  0  0  0  0  0
    0.9800   15.9560   -2.4750 C   0  0  0  0  0  0  0  0  0  0  0  0
    1.6200   16.4970   -1.1930 C   0  0  2  0  0  0  0  0  0  0  0  0
    0.4960   17.1960   -0.3540 C   0  0  0  0  0  0  0  0  0  0  0  0
    2.4144   19.1720    0.4039 H   0  0  0  0  0  0  0  0  0  0  0  0
    3.2550   20.4854   -0.4878 H   0  0  0  0  0  0  0  0  0  0  0  0
    1.4605   20.4056   -0.4878 H   0  0  0  0  0  0  0  0  0  0  0  0
    3.1941   19.3475   -2.4150 H   0  0  0  0  0  0  0  0  0  0  0  0
    1.2908   19.2030   -3.5629 H   0  0  0  0  0  0  0  0  0  0  0  0
    0.6337   17.9590   -2.3953 H   0  0  0  0  0  0  0  0  0  0  0  0
    0.5633   20.5566   -1.1668 H   0  0  0  0  0  0  0  0  0  0  0  0
   -0.2402   20.6184   -2.7909 H   0  0  0  0  0  0  0  0  0  0  0  0
   -0.9966   18.4352   -2.0684 H   0  0  0  0  0  0  0  0  0  0  0  0
   -1.0363   19.9078    2.0635 H   0  0  0  0  0  0  0  0  0  0  0  0
    0.3221   19.9933    0.8913 H   0  0  0  0  0  0  0  0  0  0  0  0
   -0.9456   21.2659    0.8913 H   0  0  0  0  0  0  0  0  0  0  0  0
   -2.4069   18.3794    1.7217 H   0  0  0  0  0  0  0  0  0  0  0  0
   -3.4729   18.5086    0.2817 H   0  0  0  0  0  0  0  0  0  0  0  0
   -2.0996   17.3506    0.2817 H   0  0  0  0  0  0  0  0  0  0  0  0
    3.3911   17.2270   -2.2445 H   0  0  0  0  0  0  0  0  0  0  0  0
    4.6150   17.3973   -0.1683 H   0  0  0  0  0  0  0  0  0  0  0  0
    3.2943   18.2798    0.6276 H   0  0  0  0  0  0  0  0  0  0  0  0
    3.9349   15.5250    1.0374 H   0  0  0  0  0  0  0  0  0  0  0  0
    2.4176   16.2700    1.5334 H   0  0  0  0  0  0  0  0  0  0  0  0
    4.2342   14.2099   -0.5942 H   0  0  0  0  0  0  0  0  0  0  0  0
    3.0728   13.8483   -1.9159 H   0  0  0  0  0  0  0  0  0  0  0  0
    3.9790   15.3993   -1.9159 H   0  0  0  0  0  0  0  0  0  0  0  0
    0.6476   14.8586    0.6784 H   0  0  0  0  0  0  0  0  0  0  0  0
    2.6929   13.4791    1.4201 H   0  0  0  0  0  0  0  0  0  0  0  0
    0.9937   12.7743    1.4876 H   0  0  0  0  0  0  0  0  0  0  0  0
    2.8890   11.1683    0.6116 H   0  0  0  0  0  0  0  0  0  0  0  0
    1.6511   13.1048   -2.7065 H   0  0  0  0  0  0  0  0  0  0  0  0
   -0.6728   11.2003   -2.0212 H   0  0  0  0  0  0  0  0  0  0  0  0
   -0.5956   12.3737   -3.4094 H   0  0  0  0  0  0  0  0  0  0  0  0
   -0.1568   10.0463   -4.1249 H   0  0  0  0  0  0  0  0  0  0  0  0
    1.2551   11.1436   -4.3862 H   0  0  0  0  0  0  0  0  0  0  0  0
    2.0519    9.0585   -3.5087 H   0  0  0  0  0  0  0  0  0  0  0  0
    0.3540    9.5530   -1.2370 H   0  0  0  0  0  0  0  0  0  0  0  0
    4.4866   11.4824   -2.3531 H   0  0  0  0  0  0  0  0  0  0  0  0
    4.0645   10.2365   -3.5763 H   0  0  0  0  0  0  0  0  0  0  0  0
    3.2149   11.8192   -3.5763 H   0  0  0  0  0  0  0  0  0  0  0  0
    3.1513    9.6764   -0.0297 H   0  0  0  0  0  0  0  0  0  0  0  0
    2.9341    8.4243   -1.2993 H   0  0  0  0  0  0  0  0  0  0  0  0
    4.4032    9.4581   -1.2993 H   0  0  0  0  0  0  0  0  0  0  0  0
   -0.8529   13.2772    0.6094 H   0  0  0  0  0  0  0  0  0  0  0  0
   -1.8064   13.8722   -0.7918 H   0  0  0  0  0  0  0  0  0  0  0  0
   -1.1603   12.1962   -0.7918 H   0  0  0  0  0  0  0  0  0  0  0  0
   -0.3763   14.4135   -3.1004 H   0  0  0  0  0  0  0  0  0  0  0  0
   -0.8873   15.4274   -1.6355 H   0  0  0  0  0  0  0  0  0  0  0  0
    1.7617   15.5087   -3.1065 H   0  0  0  0  0  0  0  0  0  0  0  0
    0.4901   16.7886   -3.0011 H   0  0  0  0  0  0  0  0  0  0  0  0
    0.7045   17.0663    0.7182 H   0  0  0  0  0  0  0  0  0  0  0  0
    0.4716   18.2688   -0.5957 H   0  0  0  0  0  0  0  0  0  0  0  0
   -0.4770   16.7435   -0.5957 H   0  0  0  0  0  0  0  0  0  0  0  0
  1  2  1  0
  2  3  1  0
  3  4  1  0
  4  5  1  0
  5  6  1  0
  6  7  1  0
  7  8  1  0
  7  9  1  0
  2 10  1  0
 10 11  1  0
 11 12  1  0
 12 13  1  0
 13 14  1  6
 13 15  1  0
 15 16  1  0
 16 17  1  0
 17 18  2  0
 18 19  1  0
 19 20  1  0
 20 21  1  0
 21 22  1  0
 22 23  1  0
 22 24  1  0
 24 25  1  0
 24 26  1  0
 19 27  1  0
 27 28  1  1
 27 29  1  0
 29 30  1  0
 30 31  1  0
 31 32  1  1
  7  5  1  0
 31 10  1  0
 31 13  1  0
 27 15  1  0
 24 18  1  0
  1 33  1  0
  1 34  1  0
  1 35  1  0
  2 36  1  6
  3 37  1  0
  3 38  1  0
  4 39  1  0
  4 40  1  0
  5 41  1  6
  8 42  1  0
  8 43  1  0
  8 44  1  0
  9 45  1  0
  9 46  1  0
  9 47  1  0
 10 48  1  6
 11 49  1  0
 11 50  1  0
 12 51  1  0
 12 52  1  0
 14 53  1  0
 14 54  1  0
 14 55  1  0
 15 56  1  1
 16 57  1  0
 16 58  1  0
 17 59  1  0
 19 60  1  6
 20 61  1  0
 20 62  1  0
 21 63  1  0
 21 64  1  0
 22 65  1  6
 23 66  1  0
 25 67  1  0
 25 68  1  0
 25 69  1  0
 26 70  1  0
 26 71  1  0
 26 72  1  0
 28 73  1  0
 28 74  1  0
 28 75  1  0
 29 76  1  0
 29 77  1  0
 30 78  1  0
 30 79  1  0
 32 80  1  0
 32 81  1  0
 32 82  1  0
M  END
>  <meeko>  (7) 
{"is_sidechain": [false], "intermolecular_energy": 2.731, "internal_energy": -0.839}

$$$$
EPH_relaxed_0001_pdb2pqr_Repair_56_r2_0001_out
     RDKit          3D

 82 86  0  0  0  0  0  0  0  0999 V2000
   -1.0470   10.2230   -2.8270 C   0  0  0  0  0  0  0  0  0  0  0  0
    0.2190   10.0800   -1.9780 C   0  0  2  0  0  0  0  0  0  0  0  0
    0.1290    8.8930   -0.9980 C   0  0  0  0  0  0  0  0  0  0  0  0
   -1.2770    8.2980   -0.8790 C   0  0  0  0  0  0  0  0  0  0  0  0
   -2.2990    9.3490   -0.5660 C   0  0  2  0  0  0  0  0  0  0  0  0
   -2.9080    9.2260    0.7260 O   0  0  0  0  0  0  0  0  0  0  0  0
   -3.7790    9.0550   -0.4040 C   0  0  0  0  0  0  0  0  0  0  0  0
   -4.3190    7.6670   -0.5510 C   0  0  0  0  0  0  0  0  0  0  0  0
   -4.7550   10.1750   -0.5880 C   0  0  0  0  0  0  0  0  0  0  0  0
    0.4790   11.3700   -1.2100 C   0  0  1  0  0  0  0  0  0  0  0  0
    1.5660   11.2060   -0.1150 C   0  0  0  0  0  0  0  0  0  0  0  0
    2.3450   12.5450   -0.0540 C   0  0  0  0  0  0  0  0  0  0  0  0
    1.4810   13.5370   -0.8660 C   0  0  1  0  0  0  0  0  0  0  0  0
    0.3630   13.9970    0.1220 C   0  0  0  0  0  0  0  0  0  0  0  0
    2.2330   14.7550   -1.4940 C   0  0  2  0  0  0  0  0  0  0  0  0
    2.8900   15.7090   -0.4820 C   0  0  0  0  0  0  0  0  0  0  0  0
    2.0310   16.8380   -0.0180 C   0  0  0  0  0  0  0  0  0  0  0  0
    0.8890   17.2440   -0.6040 C   0  0  0  0  0  0  0  0  0  0  0  0
    0.4070   16.6070   -1.9140 C   0  0  1  0  0  0  0  0  0  0  0  0
   -0.0210   17.7220   -2.9040 C   0  0  0  0  0  0  0  0  0  0  0  0
   -1.0510   18.6740   -2.3040 C   0  0  0  0  0  0  0  0  0  0  0  0
   -0.5130   19.3310   -1.0360 C   0  0  2  0  0  0  0  0  0  0  0  0
    0.5740   20.1920   -1.3890 O   0  0  0  0  0  0  0  0  0  0  0  0
   -0.0420   18.3050    0.0330 C   0  0  0  0  0  0  0  0  0  0  0  0
   -1.2700   17.5780    0.6330 C   0  0  0  0  0  0  0  0  0  0  0  0
    0.6080   19.0970    1.2000 C   0  0  0  0  0  0  0  0  0  0  0  0
    1.3920   15.5490   -2.5740 C   0  0  1  0  0  0  0  0  0  0  0  0
    2.4200   16.2790   -3.4910 C   0  0  0  0  0  0  0  0  0  0  0  0
    0.5640   14.5910   -3.5110 C   0  0  0  0  0  0  0  0  0  0  0  0
   -0.0540   13.3420   -2.8550 C   0  0  0  0  0  0  0  0  0  0  0  0
    0.9870   12.5900   -2.0200 C   0  0  2  0  0  0  0  0  0  0  0  0
    2.1130   12.0960   -2.9900 C   0  0  0  0  0  0  0  0  0  0  0  0
   -1.9217   10.3218   -2.1673 H   0  0  0  0  0  0  0  0  0  0  0  0
   -0.9637   11.1174   -3.4618 H   0  0  0  0  0  0  0  0  0  0  0  0
   -1.1653    9.3325   -3.4618 H   0  0  0  0  0  0  0  0  0  0  0  0
    1.0560    9.8806   -2.6633 H   0  0  0  0  0  0  0  0  0  0  0  0
    0.8119    8.1036   -1.3451 H   0  0  0  0  0  0  0  0  0  0  0  0
    0.4011    9.2760   -0.0034 H   0  0  0  0  0  0  0  0  0  0  0  0
   -1.5418    7.8157   -1.8315 H   0  0  0  0  0  0  0  0  0  0  0  0
   -1.2721    7.5684   -0.0558 H   0  0  0  0  0  0  0  0  0  0  0  0
   -1.7559   10.0905   -1.1703 H   0  0  0  0  0  0  0  0  0  0  0  0
   -4.4882    7.2320    0.4451 H   0  0  0  0  0  0  0  0  0  0  0  0
   -5.2699    7.7000   -1.1031 H   0  0  0  0  0  0  0  0  0  0  0  0
   -3.5958    7.0488   -1.1031 H   0  0  0  0  0  0  0  0  0  0  0  0
   -5.0778   10.5454    0.3962 H   0  0  0  0  0  0  0  0  0  0  0  0
   -4.2751   10.9913   -1.1477 H   0  0  0  0  0  0  0  0  0  0  0  0
   -5.6293    9.8112   -1.1477 H   0  0  0  0  0  0  0  0  0  0  0  0
   -0.5349   11.5654   -0.8306 H   0  0  0  0  0  0  0  0  0  0  0  0
    1.0958   10.9967    0.8572 H   0  0  0  0  0  0  0  0  0  0  0  0
    2.2389   10.3679   -0.3489 H   0  0  0  0  0  0  0  0  0  0  0  0
    2.4518   12.8849    0.9867 H   0  0  0  0  0  0  0  0  0  0  0  0
    3.3643   12.4530   -0.4573 H   0  0  0  0  0  0  0  0  0  0  0  0
    0.7074   13.8553    1.1571 H   0  0  0  0  0  0  0  0  0  0  0  0
    0.1387   15.0605   -0.0475 H   0  0  0  0  0  0  0  0  0  0  0  0
   -0.5448   13.3993   -0.0475 H   0  0  0  0  0  0  0  0  0  0  0  0
    3.0626   14.2692   -2.0286 H   0  0  0  0  0  0  0  0  0  0  0  0
    3.1823   15.1199    0.3998 H   0  0  0  0  0  0  0  0  0  0  0  0
    3.7401   16.1697   -1.0064 H   0  0  0  0  0  0  0  0  0  0  0  0
    2.3588   17.3845    0.8786 H   0  0  0  0  0  0  0  0  0  0  0  0
   -0.4631   15.9880   -1.6499 H   0  0  0  0  0  0  0  0  0  0  0  0
    0.8697   18.3008   -3.1896 H   0  0  0  0  0  0  0  0  0  0  0  0
   -0.4841   17.2352   -3.7749 H   0  0  0  0  0  0  0  0  0  0  0  0
   -1.2909   19.4553   -3.0402 H   0  0  0  0  0  0  0  0  0  0  0  0
   -1.9524   18.0987   -2.0460 H   0  0  0  0  0  0  0  0  0  0  0  0
   -1.3386   19.8992   -0.5825 H   0  0  0  0  0  0  0  0  0  0  0  0
    0.9690   19.8470   -2.2070 H   0  0  0  0  0  0  0  0  0  0  0  0
   -1.2150   17.6106    1.7311 H   0  0  0  0  0  0  0  0  0  0  0  0
   -2.1914   18.0763    0.2971 H   0  0  0  0  0  0  0  0  0  0  0  0
   -1.2763   16.5306    0.2971 H   0  0  0  0  0  0  0  0  0  0  0  0
    0.2670   18.6816    2.1598 H   0  0  0  0  0  0  0  0  0  0  0  0
    1.7029   19.0154    1.1334 H   0  0  0  0  0  0  0  0  0  0  0  0
    0.3144   20.1550    1.1334 H   0  0  0  0  0  0  0  0  0  0  0  0
    3.1591   16.8039   -2.8679 H   0  0  0  0  0  0  0  0  0  0  0  0
    2.9331   15.5418   -4.1260 H   0  0  0  0  0  0  0  0  0  0  0  0
    1.8931   17.0064   -4.1260 H   0  0  0  0  0  0  0  0  0  0  0  0
   -0.2573   15.1793   -3.9462 H   0  0  0  0  0  0  0  0  0  0  0  0
    1.2903   14.2035   -4.2406 H   0  0  0  0  0  0  0  0  0  0  0  0
   -0.8836   13.6514   -2.2023 H   0  0  0  0  0  0  0  0  0  0  0  0
   -0.4177   12.6725   -3.6484 H   0  0  0  0  0  0  0  0  0  0  0  0
    2.9648   11.7223   -2.4029 H   0  0  0  0  0  0  0  0  0  0  0  0
    1.7217   11.2869   -3.6242 H   0  0  0  0  0  0  0  0  0  0  0  0
    2.4434   12.9318   -3.6242 H   0  0  0  0  0  0  0  0  0  0  0  0
  1  2  1  0
  2  3  1  0
  3  4  1  0
  4  5  1  0
  5  6  1  0
  6  7  1  0
  7  8  1  0
  7  9  1  0
  2 10  1  0
 10 11  1  0
 11 12  1  0
 12 13  1  0
 13 14  1  1
 13 15  1  0
 15 16  1  0
 16 17  1  0
 17 18  2  0
 18 19  1  0
 19 20  1  0
 20 21  1  0
 21 22  1  0
 22 23  1  0
 22 24  1  0
 24 25  1  0
 24 26  1  0
 19 27  1  0
 27 28  1  6
 27 29  1  0
 29 30  1  0
 30 31  1  0
 31 32  1  6
  7  5  1  0
 31 10  1  0
 31 13  1  0
 27 15  1  0
 24 18  1  0
  1 33  1  0
  1 34  1  0
  1 35  1  0
  2 36  1  6
  3 37  1  0
  3 38  1  0
  4 39  1  0
  4 40  1  0
  5 41  1  1
  8 42  1  0
  8 43  1  0
  8 44  1  0
  9 45  1  0
  9 46  1  0
  9 47  1  0
 10 48  1  1
 11 49  1  0
 11 50  1  0
 12 51  1  0
 12 52  1  0
 14 53  1  0
 14 54  1  0
 14 55  1  0
 15 56  1  6
 16 57  1  0
 16 58  1  0
 17 59  1  0
 19 60  1  1
 20 61  1  0
 20 62  1  0
 21 63  1  0
 21 64  1  0
 22 65  1  1
 23 66  1  0
 25 67  1  0
 25 68  1  0
 25 69  1  0
 26 70  1  0
 26 71  1  0
 26 72  1  0
 28 73  1  0
 28 74  1  0
 28 75  1  0
 29 76  1  0
 29 77  1  0
 30 78  1  0
 30 79  1  0
 32 80  1  0
 32 81  1  0
 32 82  1  0
M  END
>  <meeko>  (8) 
{"is_sidechain": [false], "intermolecular_energy": 2.731, "internal_energy": -0.839}

$$$$
EPH_relaxed_0001_pdb2pqr_Repair_56_r2_0001_out
     RDKit          3D

 82 86  0  0  0  0  0  0  0  0999 V2000
   -0.8730   16.3570   -5.8430 C   0  0  0  0  0  0  0  0  0  0  0  0
    0.2140   15.6560   -6.6620 C   0  0  2  0  0  0  0  0  0  0  0  0
   -0.1940   15.4790   -8.1380 C   0  0  0  0  0  0  0  0  0  0  0  0
    0.4510   16.4970   -9.0820 C   0  0  0  0  0  0  0  0  0  0  0  0
    1.8560   16.1120   -9.4360 C   0  0  2  0  0  0  0  0  0  0  0  0
    2.3380   16.6690  -10.6650 O   0  0  0  0  0  0  0  0  0  0  0  0
    2.2100   15.2390  -10.6250 C   0  0  0  0  0  0  0  0  0  0  0  0
    1.1550   14.6960  -11.5360 C   0  0  0  0  0  0  0  0  0  0  0  0
    3.5210   14.5160  -10.6170 C   0  0  0  0  0  0  0  0  0  0  0  0
    0.5370   14.3010   -6.0450 C   0  0  1  0  0  0  0  0  0  0  0  0
    1.7970   13.6450   -6.6700 C   0  0  0  0  0  0  0  0  0  0  0  0
    2.5130   12.8760   -5.5300 C   0  0  0  0  0  0  0  0  0  0  0  0
    1.4810   12.8350   -4.3780 C   0  0  1  0  0  0  0  0  0  0  0  0
    0.5220   11.6590   -4.7410 C   0  0  0  0  0  0  0  0  0  0  0  0
    2.0620   12.6830   -2.9350 C   0  0  2  0  0  0  0  0  0  0  0  0
    2.8330   11.3770   -2.6760 C   0  0  0  0  0  0  0  0  0  0  0  0
    2.0100   10.2420   -2.1620 C   0  0  0  0  0  0  0  0  0  0  0  0
    0.7700   10.3440   -1.6490 C   0  0  0  0  0  0  0  0  0  0  0  0
    0.1080   11.7150   -1.4570 C   0  0  1  0  0  0  0  0  0  0  0  0
   -0.5290   11.7880   -0.0440 C   0  0  0  0  0  0  0  0  0  0  0  0
   -1.4890   10.6330    0.2260 C   0  0  0  0  0  0  0  0  0  0  0  0
   -0.7790    9.2890    0.0820 C   0  0  2  0  0  0  0  0  0  0  0  0
    0.1930    9.1670    1.1240 O   0  0  0  0  0  0  0  0  0  0  0  0
   -0.0910    9.1050   -1.3000 C   0  0  0  0  0  0  0  0  0  0  0  0
   -1.1680    8.9360   -2.4000 C   0  0  0  0  0  0  0  0  0  0  0  0
    0.7050    7.7730   -1.2620 C   0  0  0  0  0  0  0  0  0  0  0  0
    1.0180   12.9760   -1.7820 C   0  0  1  0  0  0  0  0  0  0  0  0
    1.8460   13.3740   -0.5220 C   0  0  0  0  0  0  0  0  0  0  0  0
    0.0920   14.2070   -2.1120 C   0  0  0  0  0  0  0  0  0  0  0  0
   -0.3500   14.3700   -3.5780 C   0  0  0  0  0  0  0  0  0  0  0  0
    0.8480   14.2660   -4.5270 C   0  0  2  0  0  0  0  0  0  0  0  0
    1.8200   15.4510   -4.2010 C   0  0  0  0  0  0  0  0  0  0  0  0
   -0.6671   16.2242   -4.7706 H   0  0  0  0  0  0  0  0  0  0  0  0
   -0.8797   17.4300   -6.0849 H   0  0  0  0  0  0  0  0  0  0  0  0
   -1.8532   15.9204   -6.0849 H   0  0  0  0  0  0  0  0  0  0  0  0
    1.1081   16.2965   -6.6415 H   0  0  0  0  0  0  0  0  0  0  0  0
    0.1016   14.4700   -8.4612 H   0  0  0  0  0  0  0  0  0  0  0  0
   -1.2815   15.6356   -8.1915 H   0  0  0  0  0  0  0  0  0  0  0  0
   -0.1456   16.5560  -10.0042 H   0  0  0  0  0  0  0  0  0  0  0  0
    0.4808   17.4696   -8.5690 H   0  0  0  0  0  0  0  0  0  0  0  0
    2.1339   16.0590   -8.3730 H   0  0  0  0  0  0  0  0  0  0  0  0
    0.3349   14.2739  -10.9367 H   0  0  0  0  0  0  0  0  0  0  0  0
    0.7662   15.5060  -12.1706 H   0  0  0  0  0  0  0  0  0  0  0  0
    1.5882   13.9088  -12.1706 H   0  0  0  0  0  0  0  0  0  0  0  0
    3.8372   14.3416   -9.5780 H   0  0  0  0  0  0  0  0  0  0  0  0
    3.4108   13.5511  -11.1336 H   0  0  0  0  0  0  0  0  0  0  0  0
    4.2782   15.1241  -11.1336 H   0  0  0  0  0  0  0  0  0  0  0  0
   -0.4084   13.7765   -6.2478 H   0  0  0  0  0  0  0  0  0  0  0  0
    1.5044   12.9496   -7.4705 H   0  0  0  0  0  0  0  0  0  0  0  0
    2.4597   14.4040   -7.1114 H   0  0  0  0  0  0  0  0  0  0  0  0
    2.7746   11.8577   -5.8533 H   0  0  0  0  0  0  0  0  0  0  0  0
    3.4548   13.3583   -5.2292 H   0  0  0  0  0  0  0  0  0  0  0  0
    0.1441   11.1957   -3.8177 H   0  0  0  0  0  0  0  0  0  0  0  0
   -0.3232   12.0437   -5.3306 H   0  0  0  0  0  0  0  0  0  0  0  0
    1.0689   10.9085   -5.3306 H   0  0  0  0  0  0  0  0  0  0  0  0
    2.8132   13.4856   -2.8976 H   0  0  0  0  0  0  0  0  0  0  0  0
    3.2941   11.0609   -3.6233 H   0  0  0  0  0  0  0  0  0  0  0  0
    3.5630   11.6061   -1.8857 H   0  0  0  0  0  0  0  0  0  0  0  0
    2.4551    9.2371   -2.2064 H   0  0  0  0  0  0  0  0  0  0  0  0
   -0.6766   11.7846   -2.2248 H   0  0  0  0  0  0  0  0  0  0  0  0
    0.2745   11.7614    0.7067 H   0  0  0  0  0  0  0  0  0  0  0  0
   -1.1066   12.7224    0.0138 H   0  0  0  0  0  0  0  0  0  0  0  0
   -1.8834   10.7241    1.2488 H   0  0  0  0  0  0  0  0  0  0  0  0
   -2.3079   10.6781   -0.5071 H   0  0  0  0  0  0  0  0  0  0  0  0
   -1.5435    8.5018    0.1588 H   0  0  0  0  0  0  0  0  0  0  0  0
    0.8570    8.5200    0.8330 H   0  0  0  0  0  0  0  0  0  0  0  0
   -2.1507    8.7818   -1.9304 H   0  0  0  0  0  0  0  0  0  0  0  0
   -1.1984    9.8404   -3.0255 H   0  0  0  0  0  0  0  0  0  0  0  0
   -0.9199    8.0658   -3.0255 H   0  0  0  0  0  0  0  0  0  0  0  0
    0.8800    7.4801   -0.2162 H   0  0  0  0  0  0  0  0  0  0  0  0
    0.1286    6.9867   -1.7714 H   0  0  0  0  0  0  0  0  0  0  0  0
    1.6705    7.9082   -1.7714 H   0  0  0  0  0  0  0  0  0  0  0  0
    1.2854   13.1045    0.3853 H   0  0  0  0  0  0  0  0  0  0  0  0
    2.8074   12.8396   -0.5312 H   0  0  0  0  0  0  0  0  0  0  0  0
    2.0292   14.4586   -0.5312 H   0  0  0  0  0  0  0  0  0  0  0  0
   -0.8165   14.1138   -1.4989 H   0  0  0  0  0  0  0  0  0  0  0  0
    0.7050   15.0944   -1.8958 H   0  0  0  0  0  0  0  0  0  0  0  0
   -1.0745   13.5801   -3.8253 H   0  0  0  0  0  0  0  0  0  0  0  0
   -0.8071   15.3633   -3.6980 H   0  0  0  0  0  0  0  0  0  0  0  0
    1.9106   15.5615   -3.1103 H   0  0  0  0  0  0  0  0  0  0  0  0
    2.8103   15.2421   -4.6319 H   0  0  0  0  0  0  0  0  0  0  0  0
    1.4215   16.3813   -4.6319 H   0  0  0  0  0  0  0  0  0  0  0  0
  1  2  1  0
  2  3  1  0
  3  4  1  0
  4  5  1  0
  5  6  1  0
  6  7  1  0
  7  8  1  0
  7  9  1  0
  2 10  1  0
 10 11  1  0
 11 12  1  0
 12 13  1  0
 13 14  1  6
 13 15  1  0
 15 16  1  0
 16 17  1  0
 17 18  2  0
 18 19  1  0
 19 20  1  0
 20 21  1  0
 21 22  1  0
 22 23  1  0
 22 24  1  0
 24 25  1  0
 24 26  1  0
 19 27  1  0
 27 28  1  1
 27 29  1  0
 29 30  1  0
 30 31  1  0
 31 32  1  1
  7  5  1  0
 31 10  1  0
 31 13  1  0
 27 15  1  0
 24 18  1  0
  1 33  1  0
  1 34  1  0
  1 35  1  0
  2 36  1  6
  3 37  1  0
  3 38  1  0
  4 39  1  0
  4 40  1  0
  5 41  1  1
  8 42  1  0
  8 43  1  0
  8 44  1  0
  9 45  1  0
  9 46  1  0
  9 47  1  0
 10 48  1  1
 11 49  1  0
 11 50  1  0
 12 51  1  0
 12 52  1  0
 14 53  1  0
 14 54  1  0
 14 55  1  0
 15 56  1  6
 16 57  1  0
 16 58  1  0
 17 59  1  0
 19 60  1  6
 20 61  1  0
 20 62  1  0
 21 63  1  0
 21 64  1  0
 22 65  1  1
 23 66  1  0
 25 67  1  0
 25 68  1  0
 25 69  1  0
 26 70  1  0
 26 71  1  0
 26 72  1  0
 28 73  1  0
 28 74  1  0
 28 75  1  0
 29 76  1  0
 29 77  1  0
 30 78  1  0
 30 79  1  0
 32 80  1  0
 32 81  1  0
 32 82  1  0
M  END
>  <meeko>  (9) 
{"is_sidechain": [false], "intermolecular_energy": 2.731, "internal_energy": -0.839}

$$$$
EPH_relaxed_0001_pdb2pqr_Repair_56_r2_0001_out
     RDKit          3D

 82 86  0  0  0  0  0  0  0  0999 V2000
    0.1740    9.4200   -2.5510 C   0  0  0  0  0  0  0  0  0  0  0  0
    1.2550   10.4350   -2.9330 C   0  0  2  0  0  0  0  0  0  0  0  0
    2.6580    9.7990   -2.9790 C   0  0  0  0  0  0  0  0  0  0  0  0
    3.6040   10.4670   -3.9800 C   0  0  0  0  0  0  0  0  0  0  0  0
    4.9680   10.6820   -3.3960 C   0  0  2  0  0  0  0  0  0  0  0  0
    5.5670   11.9430   -3.7240 O   0  0  0  0  0  0  0  0  0  0  0  0
    6.2310   10.7740   -4.2320 C   0  0  0  0  0  0  0  0  0  0  0  0
    6.1910   10.6520   -5.7230 C   0  0  0  0  0  0  0  0  0  0  0  0
    7.5460   10.4940   -3.5740 C   0  0  0  0  0  0  0  0  0  0  0  0
    1.2420   11.6010   -1.9510 C   0  0  1  0  0  0  0  0  0  0  0  0
    2.3060   11.4500   -0.8310 C   0  0  0  0  0  0  0  0  0  0  0  0
    2.8170   12.8760   -0.5040 C   0  0  0  0  0  0  0  0  0  0  0  0
    1.8070   13.8210   -1.1980 C   0  0  1  0  0  0  0  0  0  0  0  0
    0.5920   13.8960   -0.2220 C   0  0  0  0  0  0  0  0  0  0  0  0
    2.3370   15.2440   -1.5720 C   0  0  2  0  0  0  0  0  0  0  0  0
    2.7710   16.1130   -0.3780 C   0  0  0  0  0  0  0  0  0  0  0  0
    1.6990   16.9720    0.2070 C   0  0  0  0  0  0  0  0  0  0  0  0
    0.5220   17.2610   -0.3770 C   0  0  0  0  0  0  0  0  0  0  0  0
    0.2100   16.7810   -1.8010 C   0  0  1  0  0  0  0  0  0  0  0  0
   -0.3880   17.9530   -2.6230 C   0  0  0  0  0  0  0  0  0  0  0  0
   -1.5970   18.5880   -1.9430 C   0  0  0  0  0  0  0  0  0  0  0  0
   -1.2330   19.1040   -0.5530 C   0  0  2  0  0  0  0  0  0  0  0  0
   -0.3170   20.1940   -0.6920 O   0  0  0  0  0  0  0  0  0  0  0  0
   -0.6120   18.0130    0.3630 C   0  0  0  0  0  0  0  0  0  0  0  0
   -1.7000   16.9840    0.7580 C   0  0  0  0  0  0  0  0  0  0  0  0
   -0.1610   18.6970    1.6820 C   0  0  0  0  0  0  0  0  0  0  0  0
    1.3970   16.0460   -2.5600 C   0  0  1  0  0  0  0  0  0  0  0  0
    2.2990   17.0960   -3.2790 C   0  0  0  0  0  0  0  0  0  0  0  0
    0.7950   15.1300   -3.6900 C   0  0  0  0  0  0  0  0  0  0  0  0
    0.4020   13.6960   -3.2860 C   0  0  0  0  0  0  0  0  0  0  0  0
    1.5380   13.0120   -2.5190 C   0  0  2  0  0  0  0  0  0  0  0  0
    2.7680   12.9020   -3.4830 C   0  0  0  0  0  0  0  0  0  0  0  0
    0.1038    9.3541   -1.4552 H   0  0  0  0  0  0  0  0  0  0  0  0
   -0.7939    9.7432   -2.9617 H   0  0  0  0  0  0  0  0  0  0  0  0
    0.4356    8.4336   -2.9617 H   0  0  0  0  0  0  0  0  0  0  0  0
    1.0254   10.7991   -3.9453 H   0  0  0  0  0  0  0  0  0  0  0  0
    3.1053    9.8718   -1.9767 H   0  0  0  0  0  0  0  0  0  0  0  0
    2.5279    8.7568   -3.3059 H   0  0  0  0  0  0  0  0  0  0  0  0
    3.6939    9.8249   -4.8686 H   0  0  0  0  0  0  0  0  0  0  0  0
    3.1855   11.4494   -4.2441 H   0  0  0  0  0  0  0  0  0  0  0  0
    4.7108   10.0798   -2.5121 H   0  0  0  0  0  0  0  0  0  0  0  0
    5.8593    9.6403   -5.9993 H   0  0  0  0  0  0  0  0  0  0  0  0
    5.4887   11.3928   -6.1328 H   0  0  0  0  0  0  0  0  0  0  0  0
    7.1956   10.8332   -6.1328 H   0  0  0  0  0  0  0  0  0  0  0  0
    7.4222   10.5204   -2.4813 H   0  0  0  0  0  0  0  0  0  0  0  0
    7.9040    9.4995   -3.8786 H   0  0  0  0  0  0  0  0  0  0  0  0
    8.2781   11.2564   -3.8786 H   0  0  0  0  0  0  0  0  0  0  0  0
    0.1978   11.5438   -1.6099 H   0  0  0  0  0  0  0  0  0  0  0  0
    1.8533   10.9957    0.0627 H   0  0  0  0  0  0  0  0  0  0  0  0
    3.1315   10.7996   -1.1558 H   0  0  0  0  0  0  0  0  0  0  0  0
    2.8245   13.0462    0.5827 H   0  0  0  0  0  0  0  0  0  0  0  0
    3.8479   13.0396   -0.8511 H   0  0  0  0  0  0  0  0  0  0  0  0
    0.9540   13.8737    0.8165 H   0  0  0  0  0  0  0  0  0  0  0  0
    0.0381   14.8300   -0.3972 H   0  0  0  0  0  0  0  0  0  0  0  0
   -0.0726   13.0372   -0.3972 H   0  0  0  0  0  0  0  0  0  0  0  0
    3.2598   15.0150   -2.1253 H   0  0  0  0  0  0  0  0  0  0  0  0
    3.1404   15.4440    0.4132 H   0  0  0  0  0  0  0  0  0  0  0  0
    3.5366   16.8018   -0.7645 H   0  0  0  0  0  0  0  0  0  0  0  0
    1.8877   17.4055    1.2002 H   0  0  0  0  0  0  0  0  0  0  0  0
   -0.5367   15.9802   -1.6957 H   0  0  0  0  0  0  0  0  0  0  0  0
    0.3869   18.7225   -2.7548 H   0  0  0  0  0  0  0  0  0  0  0  0
   -0.7235   17.5464   -3.5885 H   0  0  0  0  0  0  0  0  0  0  0  0
   -1.9550   19.4280   -2.5564 H   0  0  0  0  0  0  0  0  0  0  0  0
   -2.3825   17.8249   -1.8395 H   0  0  0  0  0  0  0  0  0  0  0  0
   -2.1651   19.4274   -0.0667 H   0  0  0  0  0  0  0  0  0  0  0  0
   -0.0530   20.4720    0.2010 H   0  0  0  0  0  0  0  0  0  0  0  0
   -1.7654   16.9221    1.8543 H   0  0  0  0  0  0  0  0  0  0  0  0
   -2.6708   17.3020    0.3501 H   0  0  0  0  0  0  0  0  0  0  0  0
   -1.4365   15.9970    0.3501 H   0  0  0  0  0  0  0  0  0  0  0  0
   -0.5394   18.1230    2.5407 H   0  0  0  0  0  0  0  0  0  0  0  0
    0.9378   18.7319    1.7199 H   0  0  0  0  0  0  0  0  0  0  0  0
   -0.5618   19.7207    1.7199 H   0  0  0  0  0  0  0  0  0  0  0  0
    2.8225   17.7054   -2.5277 H   0  0  0  0  0  0  0  0  0  0  0  0
    3.0366   16.5763   -3.9082 H   0  0  0  0  0  0  0  0  0  0  0  0
    1.6740   17.7468   -3.9082 H   0  0  0  0  0  0  0  0  0  0  0  0
   -0.1079   15.6265   -4.0751 H   0  0  0  0  0  0  0  0  0  0  0  0
    1.6044   15.0103   -4.4252 H   0  0  0  0  0  0  0  0  0  0  0  0
   -0.4920   13.7345   -2.6463 H   0  0  0  0  0  0  0  0  0  0  0  0
    0.1972   13.1178   -4.1991 H   0  0  0  0  0  0  0  0  0  0  0  0
    3.6915   12.8194   -2.8911 H   0  0  0  0  0  0  0  0  0  0  0  0
    2.6581   12.0101   -4.1174 H   0  0  0  0  0  0  0  0  0  0  0  0
    2.8181   13.7993   -4.1174 H   0  0  0  0  0  0  0  0  0  0  0  0
  1  2  1  0
  2  3  1  0
  3  4  1  0
  4  5  1  0
  5  6  1  0
  6  7  1  0
  7  8  1  0
  7  9  1  0
  2 10  1  0
 10 11  1  0
 11 12  1  0
 12 13  1  0
 13 14  1  1
 13 15  1  0
 15 16  1  0
 16 17  1  0
 17 18  2  0
 18 19  1  0
 19 20  1  0
 20 21  1  0
 21 22  1  0
 22 23  1  0
 22 24  1  0
 24 25  1  0
 24 26  1  0
 19 27  1  0
 27 28  1  6
 27 29  1  0
 29 30  1  0
 30 31  1  0
 31 32  1  6
  7  5  1  0
 31 10  1  0
 31 13  1  0
 27 15  1  0
 24 18  1  0
  1 33  1  0
  1 34  1  0
  1 35  1  0
  2 36  1  6
  3 37  1  0
  3 38  1  0
  4 39  1  0
  4 40  1  0
  5 41  1  1
  8 42  1  0
  8 43  1  0
  8 44  1  0
  9 45  1  0
  9 46  1  0
  9 47  1  0
 10 48  1  1
 11 49  1  0
 11 50  1  0
 12 51  1  0
 12 52  1  0
 14 53  1  0
 14 54  1  0
 14 55  1  0
 15 56  1  6
 16 57  1  0
 16 58  1  0
 17 59  1  0
 19 60  1  1
 20 61  1  0
 20 62  1  0
 21 63  1  0
 21 64  1  0
 22 65  1  1
 23 66  1  0
 25 67  1  0
 25 68  1  0
 25 69  1  0
 26 70  1  0
 26 71  1  0
 26 72  1  0
 28 73  1  0
 28 74  1  0
 28 75  1  0
 29 76  1  0
 29 77  1  0
 30 78  1  0
 30 79  1  0
 32 80  1  0
 32 81  1  0
 32 82  1  0
M  END
>  <meeko>  (10) 
{"is_sidechain": [false], "intermolecular_energy": 2.731, "internal_energy": -0.839}

$$$$
EPH_relaxed_0001_pdb2pqr_Repair_56_r2_0001_out
     RDKit          3D

 82 86  0  0  0  0  0  0  0  0999 V2000
    4.4360   16.0940    0.2750 C   0  0  0  0  0  0  0  0  0  0  0  0
    3.2640   16.5190   -0.6140 C   0  0  2  0  0  0  0  0  0  0  0  0
    2.8450   17.9810   -0.3630 C   0  0  0  0  0  0  0  0  0  0  0  0
    2.7160   18.8130   -1.6420 C   0  0  0  0  0  0  0  0  0  0  0  0
    1.4850   19.6680   -1.6260 C   0  0  2  0  0  0  0  0  0  0  0  0
    0.4830   19.2560   -0.6880 O   0  0  0  0  0  0  0  0  0  0  0  0
    0.1210   19.1780   -2.0760 C   0  0  0  0  0  0  0  0  0  0  0  0
   -0.0810   17.7820   -2.5750 C   0  0  0  0  0  0  0  0  0  0  0  0
   -0.9010   20.1900   -2.4900 C   0  0  0  0  0  0  0  0  0  0  0  0
    2.0770   15.5900   -0.3890 C   0  0  1  0  0  0  0  0  0  0  0  0
    0.7810   16.3580   -0.0160 C   0  0  0  0  0  0  0  0  0  0  0  0
   -0.3990   15.5810   -0.6550 C   0  0  0  0  0  0  0  0  0  0  0  0
    0.2140   14.2280   -1.0860 C   0  0  1  0  0  0  0  0  0  0  0  0
    0.2410   13.3660    0.2150 C   0  0  0  0  0  0  0  0  0  0  0  0
   -0.5090   13.4840   -2.2560 C   0  0  2  0  0  0  0  0  0  0  0  0
   -1.9600   13.0630   -1.9640 C   0  0  0  0  0  0  0  0  0  0  0  0
   -2.1220   11.7020   -1.3720 C   0  0  0  0  0  0  0  0  0  0  0  0
   -1.1790   10.7420   -1.3480 C   0  0  0  0  0  0  0  0  0  0  0  0
    0.1720   10.9470   -2.0440 C   0  0  1  0  0  0  0  0  0  0  0  0
    0.5230    9.6860   -2.8760 C   0  0  0  0  0  0  0  0  0  0  0  0
    0.4840    8.4070   -2.0450 C   0  0  0  0  0  0  0  0  0  0  0  0
   -0.8930    8.2080   -1.4170 C   0  0  2  0  0  0  0  0  0  0  0  0
   -1.8430    7.9600   -2.4570 O   0  0  0  0  0  0  0  0  0  0  0  0
   -1.3580    9.4200   -0.5620 C   0  0  0  0  0  0  0  0  0  0  0  0
   -0.5060    9.5030    0.7290 C   0  0  0  0  0  0  0  0  0  0  0  0
   -2.8160    9.1490   -0.1030 C   0  0  0  0  0  0  0  0  0  0  0  0
    0.3240   12.2910   -2.8790 C   0  0  1  0  0  0  0  0  0  0  0  0
   -0.2130   12.0820   -4.3280 C   0  0  0  0  0  0  0  0  0  0  0  0
    1.8540   12.6390   -3.0190 C   0  0  0  0  0  0  0  0  0  0  0  0
    2.4810   13.4780   -1.8900 C   0  0  0  0  0  0  0  0  0  0  0  0
    1.6260   14.7110   -1.5820 C   0  0  2  0  0  0  0  0  0  0  0  0
    1.5980   15.6070   -2.8660 C   0  0  0  0  0  0  0  0  0  0  0  0
    4.1506   16.1975    1.3323 H   0  0  0  0  0  0  0  0  0  0  0  0
    4.6935   15.0452    0.0657 H   0  0  0  0  0  0  0  0  0  0  0  0
    5.3059   16.7339    0.0657 H   0  0  0  0  0  0  0  0  0  0  0  0
    3.5987   16.4470   -1.6594 H   0  0  0  0  0  0  0  0  0  0  0  0
    1.8721   17.9801    0.1502 H   0  0  0  0  0  0  0  0  0  0  0  0
    3.6387   18.4433    0.2423 H   0  0  0  0  0  0  0  0  0  0  0  0
    3.5993   19.4618   -1.7357 H   0  0  0  0  0  0  0  0  0  0  0  0
    2.6420   18.1217   -2.4945 H   0  0  0  0  0  0  0  0  0  0  0  0
    2.0720   20.5604   -1.8885 H   0  0  0  0  0  0  0  0  0  0  0  0
   -0.1800   17.0976   -1.7196 H   0  0  0  0  0  0  0  0  0  0  0  0
   -0.9946   17.7397   -3.1861 H   0  0  0  0  0  0  0  0  0  0  0  0
    0.7832   17.4824   -3.1861 H   0  0  0  0  0  0  0  0  0  0  0  0
   -1.3552   20.6398   -1.5948 H   0  0  0  0  0  0  0  0  0  0  0  0
   -0.4175   20.9752   -3.0897 H   0  0  0  0  0  0  0  0  0  0  0  0
   -1.6814   19.6988   -3.0897 H   0  0  0  0  0  0  0  0  0  0  0  0
    2.4871   14.9560    0.4109 H   0  0  0  0  0  0  0  0  0  0  0  0
    0.6632   16.3939    1.0771 H   0  0  0  0  0  0  0  0  0  0  0  0
    0.8165   17.3943   -0.3831 H   0  0  0  0  0  0  0  0  0  0  0  0
   -1.2047   15.4266    0.0778 H   0  0  0  0  0  0  0  0  0  0  0  0
   -0.8478   16.1241   -1.4998 H   0  0  0  0  0  0  0  0  0  0  0  0
    0.2203   14.0275    1.0936 H   0  0  0  0  0  0  0  0  0  0  0  0
   -0.6368   12.7034    0.2341 H   0  0  0  0  0  0  0  0  0  0  0  0
    1.1586   12.7596    0.2341 H   0  0  0  0  0  0  0  0  0  0  0  0
   -0.5738   14.2655   -3.0274 H   0  0  0  0  0  0  0  0  0  0  0  0
   -2.3910   13.7924   -1.2624 H   0  0  0  0  0  0  0  0  0  0  0  0
   -2.4705   13.0341   -2.9380 H   0  0  0  0  0  0  0  0  0  0  0  0
   -3.0946   11.4636   -0.9168 H   0  0  0  0  0  0  0  0  0  0  0  0
    0.9111   11.0808   -1.2404 H   0  0  0  0  0  0  0  0  0  0  0  0
   -0.2009    9.5939   -3.6991 H   0  0  0  0  0  0  0  0  0  0  0  0
    1.5496    9.8089   -3.2515 H   0  0  0  0  0  0  0  0  0  0  0  0
    0.7114    7.5485   -2.6941 H   0  0  0  0  0  0  0  0  0  0  0  0
    1.2294    8.4877   -1.2401 H   0  0  0  0  0  0  0  0  0  0  0  0
   -0.8216    7.3504   -0.7319 H   0  0  0  0  0  0  0  0  0  0  0  0
   -1.6280    7.0990   -2.8540 H   0  0  0  0  0  0  0  0  0  0  0  0
   -1.1646    9.4388    1.6077 H   0  0  0  0  0  0  0  0  0  0  0  0
    0.2129    8.6706    0.7480 H   0  0  0  0  0  0  0  0  0  0  0  0
    0.0387   10.4585    0.7480 H   0  0  0  0  0  0  0  0  0  0  0  0
   -2.8589    9.1410    0.9961 H   0  0  0  0  0  0  0  0  0  0  0  0
   -3.4752    9.9400   -0.4899 H   0  0  0  0  0  0  0  0  0  0  0  0
   -3.1470    8.1740   -0.4899 H   0  0  0  0  0  0  0  0  0  0  0  0
   -1.2373   11.6833   -4.2855 H   0  0  0  0  0  0  0  0  0  0  0  0
   -0.2160   13.0446   -4.8603 H   0  0  0  0  0  0  0  0  0  0  0  0
    0.4355   11.3706   -4.8603 H   0  0  0  0  0  0  0  0  0  0  0  0
    2.4074   11.6900   -3.0752 H   0  0  0  0  0  0  0  0  0  0  0  0
    1.9252   13.2678   -3.9187 H   0  0  0  0  0  0  0  0  0  0  0  0
    2.5599   12.8596   -0.9837 H   0  0  0  0  0  0  0  0  0  0  0  0
    3.4765   13.8145   -2.2152 H   0  0  0  0  0  0  0  0  0  0  0  0
    1.5649   16.6667   -2.5730 H   0  0  0  0  0  0  0  0  0  0  0  0
    2.5024   15.4199   -3.4635 H   0  0  0  0  0  0  0  0  0  0  0  0
    0.7070   15.3638   -3.4635 H   0  0  0  0  0  0  0  0  0  0  0  0
  1  2  1  0
  2  3  1  0
  3  4  1  0
  4  5  1  0
  5  6  1  0
  6  7  1  0
  7  8  1  0
  7  9  1  0
  2 10  1  0
 10 11  1  0
 11 12  1  0
 12 13  1  0
 13 14  1  1
 13 15  1  0
 15 16  1  0
 16 17  1  0
 17 18  2  0
 18 19  1  0
 19 20  1  0
 20 21  1  0
 21 22  1  0
 22 23  1  0
 22 24  1  0
 24 25  1  0
 24 26  1  0
 19 27  1  0
 27 28  1  6
 27 29  1  0
 29 30  1  0
 30 31  1  0
 31 32  1  6
  7  5  1  0
 31 10  1  0
 31 13  1  0
 27 15  1  0
 24 18  1  0
  1 33  1  0
  1 34  1  0
  1 35  1  0
  2 36  1  6
  3 37  1  0
  3 38  1  0
  4 39  1  0
  4 40  1  0
  5 41  1  1
  8 42  1  0
  8 43  1  0
  8 44  1  0
  9 45  1  0
  9 46  1  0
  9 47  1  0
 10 48  1  1
 11 49  1  0
 11 50  1  0
 12 51  1  0
 12 52  1  0
 14 53  1  0
 14 54  1  0
 14 55  1  0
 15 56  1  6
 16 57  1  0
 16 58  1  0
 17 59  1  0
 19 60  1  1
 20 61  1  0
 20 62  1  0
 21 63  1  0
 21 64  1  0
 22 65  1  1
 23 66  1  0
 25 67  1  0
 25 68  1  0
 25 69  1  0
 26 70  1  0
 26 71  1  0
 26 72  1  0
 28 73  1  0
 28 74  1  0
 28 75  1  0
 29 76  1  0
 29 77  1  0
 30 78  1  0
 30 79  1  0
 32 80  1  0
 32 81  1  0
 32 82  1  0
M  END
>  <meeko>  (11) 
{"is_sidechain": [false], "intermolecular_energy": 2.731, "internal_energy": -0.839}

$$$$
EPH_relaxed_0001_pdb2pqr_Repair_56_r2_0001_out
     RDKit          3D

 82 86  0  0  0  0  0  0  0  0999 V2000
    2.8400   11.3630   -5.3510 C   0  0  0  0  0  0  0  0  0  0  0  0
    1.8250   11.0540   -4.2470 C   0  0  2  0  0  0  0  0  0  0  0  0
    0.7070   10.1110   -4.7350 C   0  0  0  0  0  0  0  0  0  0  0  0
   -0.3620    9.8250   -3.6760 C   0  0  0  0  0  0  0  0  0  0  0  0
    0.1860    9.0200   -2.5380 C   0  0  2  0  0  0  0  0  0  0  0  0
   -0.6420    7.9250   -2.1250 O   0  0  0  0  0  0  0  0  0  0  0  0
   -0.4520    8.9740   -1.1620 C   0  0  0  0  0  0  0  0  0  0  0  0
   -1.6940    9.7480   -0.8520 C   0  0  0  0  0  0  0  0  0  0  0  0
    0.3940    8.5730    0.0060 C   0  0  0  0  0  0  0  0  0  0  0  0
    1.2200   12.3500   -3.7200 C   0  0  1  0  0  0  0  0  0  0  0  0
   -0.3190   12.2600   -3.5350 C   0  0  0  0  0  0  0  0  0  0  0  0
   -0.6710   13.1160   -2.2920 C   0  0  0  0  0  0  0  0  0  0  0  0
    0.6120   13.9310   -2.0030 C   0  0  1  0  0  0  0  0  0  0  0  0
    0.5580   15.1300   -3.0010 C   0  0  0  0  0  0  0  0  0  0  0  0
    0.8070   14.4140   -0.5290 C   0  0  2  0  0  0  0  0  0  0  0  0
   -0.2720   15.3820   -0.0120 C   0  0  0  0  0  0  0  0  0  0  0  0
    0.0150   16.8310   -0.2290 C   0  0  0  0  0  0  0  0  0  0  0  0
    1.2130   17.3510   -0.5540 C   0  0  0  0  0  0  0  0  0  0  0  0
    2.4600   16.4620   -0.6410 C   0  0  1  0  0  0  0  0  0  0  0  0
    3.6370   17.1450    0.1040 C   0  0  0  0  0  0  0  0  0  0  0  0
    3.8970   18.5650   -0.3900 C   0  0  0  0  0  0  0  0  0  0  0  0
    2.6520   19.4340   -0.2330 C   0  0  2  0  0  0  0  0  0  0  0  0
    2.3840   19.6090    1.1610 O   0  0  0  0  0  0  0  0  0  0  0  0
    1.3980   18.8400   -0.9360 C   0  0  0  0  0  0  0  0  0  0  0  0
    1.5710   18.9310   -2.4720 C   0  0  0  0  0  0  0  0  0  0  0  0
    0.1830   19.7390   -0.5820 C   0  0  0  0  0  0  0  0  0  0  0  0
    2.2620   14.9460   -0.2080 C   0  0  1  0  0  0  0  0  0  0  0  0
    2.4590   14.8020    1.3320 C   0  0  0  0  0  0  0  0  0  0  0  0
    3.3820   14.0680   -0.8830 C   0  0  0  0  0  0  0  0  0  0  0  0
    3.0810   13.5200   -2.2910 C   0  0  0  0  0  0  0  0  0  0  0  0
    1.7040   12.8500   -2.3360 C   0  0  2  0  0  0  0  0  0  0  0  0
    1.7350   11.6260   -1.3590 C   0  0  0  0  0  0  0  0  0  0  0  0
    3.7984   11.6548   -4.8967 H   0  0  0  0  0  0  0  0  0  0  0  0
    2.9870   10.4689   -5.9747 H   0  0  0  0  0  0  0  0  0  0  0  0
    2.4638   12.1873   -5.9747 H   0  0  0  0  0  0  0  0  0  0  0  0
    2.3624   10.5385   -3.4374 H   0  0  0  0  0  0  0  0  0  0  0  0
    0.2186   10.5726   -5.6058 H   0  0  0  0  0  0  0  0  0  0  0  0
    1.1815    9.1496   -4.9811 H   0  0  0  0  0  0  0  0  0  0  0  0
   -0.7419   10.7808   -3.2860 H   0  0  0  0  0  0  0  0  0  0  0  0
   -1.1671    9.2443   -4.1500 H   0  0  0  0  0  0  0  0  0  0  0  0
    1.2175    9.2141   -2.8671 H   0  0  0  0  0  0  0  0  0  0  0  0
   -1.8160    9.8240    0.2386 H   0  0  0  0  0  0  0  0  0  0  0  0
   -1.6146   10.7568   -1.2833 H   0  0  0  0  0  0  0  0  0  0  0  0
   -2.5647    9.2323   -1.2833 H   0  0  0  0  0  0  0  0  0  0  0  0
   -0.1300    8.8214    0.9407 H   0  0  0  0  0  0  0  0  0  0  0  0
    0.5822    7.4899   -0.0322 H   0  0  0  0  0  0  0  0  0  0  0  0
    1.3515    9.1131   -0.0322 H   0  0  0  0  0  0  0  0  0  0  0  0
    1.5530   13.0417   -4.5078 H   0  0  0  0  0  0  0  0  0  0  0  0
   -0.8312   12.6554   -4.4246 H   0  0  0  0  0  0  0  0  0  0  0  0
   -0.6401   11.2166   -3.3997 H   0  0  0  0  0  0  0  0  0  0  0  0
   -1.5161   13.7860   -2.5086 H   0  0  0  0  0  0  0  0  0  0  0  0
   -0.9755   12.4993   -1.4336 H   0  0  0  0  0  0  0  0  0  0  0  0
    0.5155   16.0740   -2.4380 H   0  0  0  0  0  0  0  0  0  0  0  0
    1.4575   15.1209   -3.6341 H   0  0  0  0  0  0  0  0  0  0  0  0
   -0.3370   15.0400   -3.6341 H   0  0  0  0  0  0  0  0  0  0  0  0
    0.6741   13.4842    0.0435 H   0  0  0  0  0  0  0  0  0  0  0  0
   -1.2165   15.1423   -0.5224 H   0  0  0  0  0  0  0  0  0  0  0  0
   -0.3120   15.2394    1.0780 H   0  0  0  0  0  0  0  0  0  0  0  0
   -0.8239   17.5331   -0.1134 H   0  0  0  0  0  0  0  0  0  0  0  0
    2.6966   16.3750   -1.7117 H   0  0  0  0  0  0  0  0  0  0  0  0
    3.4002   17.1830    1.1775 H   0  0  0  0  0  0  0  0  0  0  0  0
    4.5435   16.5528   -0.0900 H   0  0  0  0  0  0  0  0  0  0  0  0
    4.7188   19.0046    0.1943 H   0  0  0  0  0  0  0  0  0  0  0  0
    4.1631   18.5224   -1.4565 H   0  0  0  0  0  0  0  0  0  0  0  0
    2.8589   20.3978   -0.7212 H   0  0  0  0  0  0  0  0  0  0  0  0
    2.5340   20.5450    1.3750 H   0  0  0  0  0  0  0  0  0  0  0  0
    2.5225   19.4315   -2.7048 H   0  0  0  0  0  0  0  0  0  0  0  0
    1.5748   17.9182   -2.9012 H   0  0  0  0  0  0  0  0  0  0  0  0
    0.7386   19.5080   -2.9012 H   0  0  0  0  0  0  0  0  0  0  0  0
    0.0861   19.8107    0.5114 H   0  0  0  0  0  0  0  0  0  0  0  0
    0.3352   20.7437   -1.0033 H   0  0  0  0  0  0  0  0  0  0  0  0
   -0.7333   19.2997   -1.0033 H   0  0  0  0  0  0  0  0  0  0  0  0
    1.6784   15.3726    1.8565 H   0  0  0  0  0  0  0  0  0  0  0  0
    2.3888   13.7408    1.6130 H   0  0  0  0  0  0  0  0  0  0  0  0
    3.4488   15.1910    1.6130 H   0  0  0  0  0  0  0  0  0  0  0  0
    4.2907   14.6840   -0.9529 H   0  0  0  0  0  0  0  0  0  0  0  0
    3.4758   13.1789   -0.2422 H   0  0  0  0  0  0  0  0  0  0  0  0
    3.1008   14.3504   -3.0121 H   0  0  0  0  0  0  0  0  0  0  0  0
    3.8443   12.7702   -2.5460 H   0  0  0  0  0  0  0  0  0  0  0  0
    1.7259   11.9861   -0.3197 H   0  0  0  0  0  0  0  0  0  0  0  0
    0.8526   10.9934   -1.5356 H   0  0  0  0  0  0  0  0  0  0  0  0
    2.6483   11.0389   -1.5356 H   0  0  0  0  0  0  0  0  0  0  0  0
  1  2  1  0
  2  3  1  0
  3  4  1  0
  4  5  1  0
  5  6  1  0
  6  7  1  0
  7  8  1  0
  7  9  1  0
  2 10  1  0
 10 11  1  0
 11 12  1  0
 12 13  1  0
 13 14  1  6
 13 15  1  0
 15 16  1  0
 16 17  1  0
 17 18  2  0
 18 19  1  0
 19 20  1  0
 20 21  1  0
 21 22  1  0
 22 23  1  0
 22 24  1  0
 24 25  1  0
 24 26  1  0
 19 27  1  0
 27 28  1  1
 27 29  1  0
 29 30  1  0
 30 31  1  0
 31 32  1  1
  7  5  1  0
 31 10  1  0
 31 13  1  0
 27 15  1  0
 24 18  1  0
  1 33  1  0
  1 34  1  0
  1 35  1  0
  2 36  1  1
  3 37  1  0
  3 38  1  0
  4 39  1  0
  4 40  1  0
  5 41  1  1
  8 42  1  0
  8 43  1  0
  8 44  1  0
  9 45  1  0
  9 46  1  0
  9 47  1  0
 10 48  1  6
 11 49  1  0
 11 50  1  0
 12 51  1  0
 12 52  1  0
 14 53  1  0
 14 54  1  0
 14 55  1  0
 15 56  1  1
 16 57  1  0
 16 58  1  0
 17 59  1  0
 19 60  1  6
 20 61  1  0
 20 62  1  0
 21 63  1  0
 21 64  1  0
 22 65  1  6
 23 66  1  0
 25 67  1  0
 25 68  1  0
 25 69  1  0
 26 70  1  0
 26 71  1  0
 26 72  1  0
 28 73  1  0
 28 74  1  0
 28 75  1  0
 29 76  1  0
 29 77  1  0
 30 78  1  0
 30 79  1  0
 32 80  1  0
 32 81  1  0
 32 82  1  0
M  END
>  <meeko>  (12) 
{"is_sidechain": [false], "intermolecular_energy": 2.731, "internal_energy": -0.839}

$$$$
EPH_relaxed_0001_pdb2pqr_Repair_56_r2_0001_out
     RDKit          3D

 82 86  0  0  0  0  0  0  0  0999 V2000
   -0.0480   17.7260   -2.5840 C   0  0  0  0  0  0  0  0  0  0  0  0
    0.0810   17.1960   -1.1540 C   0  0  2  0  0  0  0  0  0  0  0  0
    0.4460   18.3100   -0.1520 C   0  0  0  0  0  0  0  0  0  0  0  0
    1.9140   18.7410   -0.2190 C   0  0  0  0  0  0  0  0  0  0  0  0
    2.4330   19.1520    1.1260 C   0  0  2  0  0  0  0  0  0  0  0  0
    3.4170   20.1940    1.0950 O   0  0  0  0  0  0  0  0  0  0  0  0
    3.8610   18.9160    1.5790 C   0  0  0  0  0  0  0  0  0  0  0  0
    4.8600   18.2430    0.6920 C   0  0  0  0  0  0  0  0  0  0  0  0
    4.1520   18.8960    3.0470 C   0  0  0  0  0  0  0  0  0  0  0  0
    1.1250   16.0870   -1.1020 C   0  0  1  0  0  0  0  0  0  0  0  0
    1.3540   15.5480    0.3350 C   0  0  0  0  0  0  0  0  0  0  0  0
    1.6430   14.0300    0.2020 C   0  0  0  0  0  0  0  0  0  0  0  0
    1.8990   13.8120   -1.3080 C   0  0  1  0  0  0  0  0  0  0  0  0
    3.3830   14.2430   -1.5290 C   0  0  0  0  0  0  0  0  0  0  0  0
    1.6280   12.3730   -1.8540 C   0  0  2  0  0  0  0  0  0  0  0  0
    2.5120   11.2680   -1.2490 C   0  0  0  0  0  0  0  0  0  0  0  0
    3.7870   11.0010   -1.9790 C   0  0  0  0  0  0  0  0  0  0  0  0
    4.0760   11.4170   -3.2260 C   0  0  0  0  0  0  0  0  0  0  0  0
    3.0310   12.1540   -4.0730 C   0  0  1  0  0  0  0  0  0  0  0  0
    3.0020   11.5490   -5.5010 C   0  0  0  0  0  0  0  0  0  0  0  0
    4.3790   11.5340   -6.1580 C   0  0  0  0  0  0  0  0  0  0  0  0
    5.3760   10.7420   -5.3150 C   0  0  2  0  0  0  0  0  0  0  0  0
    4.9890    9.3650   -5.3160 O   0  0  0  0  0  0  0  0  0  0  0  0
    5.4830   11.2540   -3.8520 C   0  0  0  0  0  0  0  0  0  0  0  0
    6.1850   12.6350   -3.8340 C   0  0  0  0  0  0  0  0  0  0  0  0
    6.4130   10.2850   -3.0740 C   0  0  0  0  0  0  0  0  0  0  0  0
    1.5810   12.2770   -3.4330 C   0  0  1  0  0  0  0  0  0  0  0  0
    0.7390   11.0110   -3.7770 C   0  0  0  0  0  0  0  0  0  0  0  0
    0.8330   13.4990   -4.0850 C   0  0  0  0  0  0  0  0  0  0  0  0
    1.0470   14.8760   -3.4270 C   0  0  0  0  0  0  0  0  0  0  0  0
    0.8350   14.7990   -1.9120 C   0  0  2  0  0  0  0  0  0  0  0  0
   -0.6560   14.3890   -1.6580 C   0  0  0  0  0  0  0  0  0  0  0  0
   -0.3081   18.7945   -2.5570 H   0  0  0  0  0  0  0  0  0  0  0  0
    0.9083   17.5946   -3.1114 H   0  0  0  0  0  0  0  0  0  0  0  0
   -0.8370   17.1698   -3.1114 H   0  0  0  0  0  0  0  0  0  0  0  0
   -0.9008   16.7963   -0.8603 H   0  0  0  0  0  0  0  0  0  0  0  0
   -0.1835   19.1870   -0.3632 H   0  0  0  0  0  0  0  0  0  0  0  0
    0.2756   17.9043    0.8561 H   0  0  0  0  0  0  0  0  0  0  0  0
    2.5161   17.8991   -0.5914 H   0  0  0  0  0  0  0  0  0  0  0  0
    1.9868   19.6066   -0.8939 H   0  0  0  0  0  0  0  0  0  0  0  0
    1.4637   18.9273    1.5950 H   0  0  0  0  0  0  0  0  0  0  0  0
    5.6149   17.7345    1.3097 H   0  0  0  0  0  0  0  0  0  0  0  0
    4.3481   17.5049    0.0570 H   0  0  0  0  0  0  0  0  0  0  0  0
    5.3517   18.9947    0.0570 H   0  0  0  0  0  0  0  0  0  0  0  0
    3.2085   18.9608    3.6087 H   0  0  0  0  0  0  0  0  0  0  0  0
    4.6691   17.9602    3.3056 H   0  0  0  0  0  0  0  0  0  0  0  0
    4.7923   19.7523    3.3056 H   0  0  0  0  0  0  0  0  0  0  0  0
    1.9822   16.6207   -1.5384 H   0  0  0  0  0  0  0  0  0  0  0  0
    2.2114   16.0577    0.7987 H   0  0  0  0  0  0  0  0  0  0  0  0
    0.4740   15.7287    0.9698 H   0  0  0  0  0  0  0  0  0  0  0  0
    2.5294   13.7505    0.7904 H   0  0  0  0  0  0  0  0  0  0  0  0
    0.8134   13.4131    0.5777 H   0  0  0  0  0  0  0  0  0  0  0  0
    3.8726   14.3852   -0.5543 H   0  0  0  0  0  0  0  0  0  0  0  0
    3.9116   13.4613   -2.0942 H   0  0  0  0  0  0  0  0  0  0  0  0
    3.4106   15.1863   -2.0942 H   0  0  0  0  0  0  0  0  0  0  0  0
    0.6091   12.1713   -1.4919 H   0  0  0  0  0  0  0  0  0  0  0  0
    2.7646   11.5604   -0.2191 H   0  0  0  0  0  0  0  0  0  0  0  0
    1.9250   10.3398   -1.3116 H   0  0  0  0  0  0  0  0  0  0  0  0
    4.5550   10.4148   -1.4531 H   0  0  0  0  0  0  0  0  0  0  0  0
    3.3608   13.2024   -4.1182 H   0  0  0  0  0  0  0  0  0  0  0  0
    2.6297   10.5158   -5.4387 H   0  0  0  0  0  0  0  0  0  0  0  0
    2.3447   12.1797   -6.1176 H   0  0  0  0  0  0  0  0  0  0  0  0
    4.2988   11.0696   -7.1520 H   0  0  0  0  0  0  0  0  0  0  0  0
    4.7379   12.5701   -6.2460 H   0  0  0  0  0  0  0  0  0  0  0  0
    6.3698   10.8752   -5.7673 H   0  0  0  0  0  0  0  0  0  0  0  0
    4.1740    9.2880   -4.7900 H   0  0  0  0  0  0  0  0  0  0  0  0
    6.3457   12.9511   -2.7927 H   0  0  0  0  0  0  0  0  0  0  0  0
    7.1545   12.5602   -4.3483 H   0  0  0  0  0  0  0  0  0  0  0  0
    5.5532   13.3742   -4.3483 H   0  0  0  0  0  0  0  0  0  0  0  0
    6.2727   10.4311   -1.9928 H   0  0  0  0  0  0  0  0  0  0  0  0
    6.1647    9.2467   -3.3389 H   0  0  0  0  0  0  0  0  0  0  0  0
    7.4607   10.4905   -3.3389 H   0  0  0  0  0  0  0  0  0  0  0  0
    0.4142   10.5227   -2.8464 H   0  0  0  0  0  0  0  0  0  0  0  0
   -0.1435   11.3059   -4.3637 H   0  0  0  0  0  0  0  0  0  0  0  0
    1.3522   10.3111   -4.3637 H   0  0  0  0  0  0  0  0  0  0  0  0
    1.1668   13.5742   -5.1304 H   0  0  0  0  0  0  0  0  0  0  0  0
   -0.2379   13.2823   -3.9575 H   0  0  0  0  0  0  0  0  0  0  0  0
    2.0733   15.2161   -3.6298 H   0  0  0  0  0  0  0  0  0  0  0  0
    0.3167   15.5829   -3.8477 H   0  0  0  0  0  0  0  0  0  0  0  0
   -0.8428   14.3376   -0.5752 H   0  0  0  0  0  0  0  0  0  0  0  0
   -1.3240   15.1368   -2.1103 H   0  0  0  0  0  0  0  0  0  0  0  0
   -0.8478   13.4048   -2.1103 H   0  0  0  0  0  0  0  0  0  0  0  0
  1  2  1  0
  2  3  1  0
  3  4  1  0
  4  5  1  0
  5  6  1  0
  6  7  1  0
  7  8  1  0
  7  9  1  0
  2 10  1  0
 10 11  1  0
 11 12  1  0
 12 13  1  0
 13 14  1  1
 13 15  1  0
 15 16  1  0
 16 17  1  0
 17 18  2  0
 18 19  1  0
 19 20  1  0
 20 21  1  0
 21 22  1  0
 22 23  1  0
 22 24  1  0
 24 25  1  0
 24 26  1  0
 19 27  1  0
 27 28  1  1
 27 29  1  0
 29 30  1  0
 30 31  1  0
 31 32  1  6
  7  5  1  0
 31 10  1  0
 31 13  1  0
 27 15  1  0
 24 18  1  0
  1 33  1  0
  1 34  1  0
  1 35  1  0
  2 36  1  1
  3 37  1  0
  3 38  1  0
  4 39  1  0
  4 40  1  0
  5 41  1  1
  8 42  1  0
  8 43  1  0
  8 44  1  0
  9 45  1  0
  9 46  1  0
  9 47  1  0
 10 48  1  6
 11 49  1  0
 11 50  1  0
 12 51  1  0
 12 52  1  0
 14 53  1  0
 14 54  1  0
 14 55  1  0
 15 56  1  1
 16 57  1  0
 16 58  1  0
 17 59  1  0
 19 60  1  6
 20 61  1  0
 20 62  1  0
 21 63  1  0
 21 64  1  0
 22 65  1  6
 23 66  1  0
 25 67  1  0
 25 68  1  0
 25 69  1  0
 26 70  1  0
 26 71  1  0
 26 72  1  0
 28 73  1  0
 28 74  1  0
 28 75  1  0
 29 76  1  0
 29 77  1  0
 30 78  1  0
 30 79  1  0
 32 80  1  0
 32 81  1  0
 32 82  1  0
M  END
>  <meeko>  (13) 
{"is_sidechain": [false], "intermolecular_energy": 2.731, "internal_energy": -0.839}

$$$$
EPH_relaxed_0001_pdb2pqr_Repair_56_r2_0001_out
     RDKit          3D

 82 86  0  0  0  0  0  0  0  0999 V2000
    0.7550    9.3980   -0.0810 C   0  0  0  0  0  0  0  0  0  0  0  0
   -0.4410   10.3540   -0.0960 C   0  0  2  0  0  0  0  0  0  0  0  0
   -1.1170   10.4170   -1.4800 C   0  0  0  0  0  0  0  0  0  0  0  0
   -0.3100    9.7380   -2.5900 C   0  0  0  0  0  0  0  0  0  0  0  0
   -0.1320   10.6380   -3.7750 C   0  0  2  0  0  0  0  0  0  0  0  0
    0.4980   10.0210   -4.9060 O   0  0  0  0  0  0  0  0  0  0  0  0
    1.2230   11.0940   -4.2830 C   0  0  0  0  0  0  0  0  0  0  0  0
    2.4910   10.6650   -3.6150 C   0  0  0  0  0  0  0  0  0  0  0  0
    1.2930   12.3370   -5.1150 C   0  0  0  0  0  0  0  0  0  0  0  0
    0.0030   11.7490    0.3310 C   0  0  1  0  0  0  0  0  0  0  0  0
    1.1150   11.7170    1.4130 C   0  0  0  0  0  0  0  0  0  0  0  0
    2.0450   12.9250    1.1340 C   0  0  0  0  0  0  0  0  0  0  0  0
    1.2640   13.7930    0.1210 C   0  0  1  0  0  0  0  0  0  0  0  0
    0.2540   14.6100    0.9870 C   0  0  0  0  0  0  0  0  0  0  0  0
    2.1210   14.7240   -0.7980 C   0  0  2  0  0  0  0  0  0  0  0  0
    2.9320   15.8030   -0.0590 C   0  0  0  0  0  0  0  0  0  0  0  0
    2.2310   17.1070    0.1330 C   0  0  0  0  0  0  0  0  0  0  0  0
    1.1180   17.4990   -0.5140 C   0  0  0  0  0  0  0  0  0  0  0  0
    0.5030   16.6330   -1.6210 C   0  0  1  0  0  0  0  0  0  0  0  0
    0.1610   17.5240   -2.8450 C   0  0  0  0  0  0  0  0  0  0  0  0
   -0.7230   18.7110   -2.4750 C   0  0  0  0  0  0  0  0  0  0  0  0
   -0.0520   19.5800   -1.4140 C   0  0  2  0  0  0  0  0  0  0  0  0
    1.1090   20.1910   -1.9850 O   0  0  0  0  0  0  0  0  0  0  0  0
    0.3470   18.7890   -0.1370 C   0  0  0  0  0  0  0  0  0  0  0  0
   -0.9270   18.3830    0.6440 C   0  0  0  0  0  0  0  0  0  0  0  0
    1.1390   19.7500    0.7910 C   0  0  0  0  0  0  0  0  0  0  0  0
    1.3270   15.3350   -2.0230 C   0  0  1  0  0  0  0  0  0  0  0  0
    2.3890   15.6920   -3.1080 C   0  0  0  0  0  0  0  0  0  0  0  0
    0.3510   14.2910   -2.6840 C   0  0  0  0  0  0  0  0  0  0  0  0
   -0.3760   13.3210   -1.7330 C   0  0  0  0  0  0  0  0  0  0  0  0
    0.6090   12.6670   -0.7590 C   0  0  2  0  0  0  0  0  0  0  0  0
    1.6230   11.8200   -1.6010 C   0  0  0  0  0  0  0  0  0  0  0  0
    1.0335    9.1754    0.9596 H   0  0  0  0  0  0  0  0  0  0  0  0
    0.4846    8.4643   -0.5959 H   0  0  0  0  0  0  0  0  0  0  0  0
    1.6061    9.8675   -0.5959 H   0  0  0  0  0  0  0  0  0  0  0  0
   -1.1837    9.9657    0.6165 H   0  0  0  0  0  0  0  0  0  0  0  0
   -2.0971    9.9223   -1.4108 H   0  0  0  0  0  0  0  0  0  0  0  0
   -1.2019   11.4804   -1.7484 H   0  0  0  0  0  0  0  0  0  0  0  0
    0.6806    9.4671   -2.1960 H   0  0  0  0  0  0  0  0  0  0  0  0
   -0.8615    8.8444   -2.9176 H   0  0  0  0  0  0  0  0  0  0  0  0
   -1.0496   11.1901   -3.5234 H   0  0  0  0  0  0  0  0  0  0  0  0
    2.3631   10.7083   -2.5233 H   0  0  0  0  0  0  0  0  0  0  0  0
    2.7333    9.6349   -3.9153 H   0  0  0  0  0  0  0  0  0  0  0  0
    3.3089   11.3364   -3.9153 H   0  0  0  0  0  0  0  0  0  0  0  0
    1.3425   13.2167   -4.4565 H   0  0  0  0  0  0  0  0  0  0  0  0
    2.1907   12.3032   -5.7499 H   0  0  0  0  0  0  0  0  0  0  0  0
    0.3972   12.4042   -5.7499 H   0  0  0  0  0  0  0  0  0  0  0  0
   -0.9621   12.1538    0.6697 H   0  0  0  0  0  0  0  0  0  0  0  0
    0.6708   11.8045    2.4155 H   0  0  0  0  0  0  0  0  0  0  0  0
    1.6748   10.7708    1.3763 H   0  0  0  0  0  0  0  0  0  0  0  0
    2.2388   13.4876    2.0592 H   0  0  0  0  0  0  0  0  0  0  0  0
    3.0270   12.6147    0.7474 H   0  0  0  0  0  0  0  0  0  0  0  0
    0.4640   14.4401    2.0533 H   0  0  0  0  0  0  0  0  0  0  0  0
    0.3580   15.6811    0.7589 H   0  0  0  0  0  0  0  0  0  0  0  0
   -0.7717   14.2845    0.7589 H   0  0  0  0  0  0  0  0  0  0  0  0
    2.8623   14.0263   -1.2147 H   0  0  0  0  0  0  0  0  0  0  0  0
    3.1961   15.4095    0.9337 H   0  0  0  0  0  0  0  0  0  0  0  0
    3.8043   16.0168   -0.6941 H   0  0  0  0  0  0  0  0  0  0  0  0
    2.6605   17.8065    0.8652 H   0  0  0  0  0  0  0  0  0  0  0  0
   -0.4196   16.2083   -1.1986 H   0  0  0  0  0  0  0  0  0  0  0  0
    1.0983   17.9036   -3.2778 H   0  0  0  0  0  0  0  0  0  0  0  0
   -0.3950   16.9047   -3.5642 H   0  0  0  0  0  0  0  0  0  0  0  0
   -0.9064   19.3176   -3.3741 H   0  0  0  0  0  0  0  0  0  0  0  0
   -1.6715   18.3298   -2.0688 H   0  0  0  0  0  0  0  0  0  0  0  0
   -0.7837   20.3378   -1.0970 H   0  0  0  0  0  0  0  0  0  0  0  0
    1.2170   19.8350   -2.8830 H   0  0  0  0  0  0  0  0  0  0  0  0
   -0.7303   18.4457    1.7245 H   0  0  0  0  0  0  0  0  0  0  0  0
   -1.7506   19.0632    0.3812 H   0  0  0  0  0  0  0  0  0  0  0  0
   -1.2051   17.3517    0.3812 H   0  0  0  0  0  0  0  0  0  0  0  0
    0.9319   19.4987    1.8417 H   0  0  0  0  0  0  0  0  0  0  0  0
    2.2161   19.6448    0.5943 H   0  0  0  0  0  0  0  0  0  0  0  0
    0.8300   20.7872    0.5943 H   0  0  0  0  0  0  0  0  0  0  0  0
    3.3225   16.0058   -2.6181 H   0  0  0  0  0  0  0  0  0  0  0  0
    2.5829   14.8097   -3.7356 H   0  0  0  0  0  0  0  0  0  0  0  0
    2.0106   16.5123   -3.7356 H   0  0  0  0  0  0  0  0  0  0  0  0
   -0.4164   14.8550   -3.2345 H   0  0  0  0  0  0  0  0  0  0  0  0
    0.9925   13.6536   -3.3102 H   0  0  0  0  0  0  0  0  0  0  0  0
   -1.1323   13.8777   -1.1603 H   0  0  0  0  0  0  0  0  0  0  0  0
   -0.8518   12.5317   -2.3335 H   0  0  0  0  0  0  0  0  0  0  0  0
    2.2881   11.2645   -0.9235 H   0  0  0  0  0  0  0  0  0  0  0  0
    1.0707   11.1111   -2.2354 H   0  0  0  0  0  0  0  0  0  0  0  0
    2.2222   12.4897   -2.2354 H   0  0  0  0  0  0  0  0  0  0  0  0
  1  2  1  0
  2  3  1  0
  3  4  1  0
  4  5  1  0
  5  6  1  0
  6  7  1  0
  7  8  1  0
  7  9  1  0
  2 10  1  0
 10 11  1  0
 11 12  1  0
 12 13  1  0
 13 14  1  1
 13 15  1  0
 15 16  1  0
 16 17  1  0
 17 18  2  0
 18 19  1  0
 19 20  1  0
 20 21  1  0
 21 22  1  0
 22 23  1  0
 22 24  1  0
 24 25  1  0
 24 26  1  0
 19 27  1  0
 27 28  1  6
 27 29  1  0
 29 30  1  0
 30 31  1  0
 31 32  1  6
  7  5  1  0
 31 10  1  0
 31 13  1  0
 27 15  1  0
 24 18  1  0
  1 33  1  0
  1 34  1  0
  1 35  1  0
  2 36  1  1
  3 37  1  0
  3 38  1  0
  4 39  1  0
  4 40  1  0
  5 41  1  6
  8 42  1  0
  8 43  1  0
  8 44  1  0
  9 45  1  0
  9 46  1  0
  9 47  1  0
 10 48  1  1
 11 49  1  0
 11 50  1  0
 12 51  1  0
 12 52  1  0
 14 53  1  0
 14 54  1  0
 14 55  1  0
 15 56  1  6
 16 57  1  0
 16 58  1  0
 17 59  1  0
 19 60  1  1
 20 61  1  0
 20 62  1  0
 21 63  1  0
 21 64  1  0
 22 65  1  1
 23 66  1  0
 25 67  1  0
 25 68  1  0
 25 69  1  0
 26 70  1  0
 26 71  1  0
 26 72  1  0
 28 73  1  0
 28 74  1  0
 28 75  1  0
 29 76  1  0
 29 77  1  0
 30 78  1  0
 30 79  1  0
 32 80  1  0
 32 81  1  0
 32 82  1  0
M  END
>  <meeko>  (14) 
{"is_sidechain": [false], "intermolecular_energy": 2.731, "internal_energy": -0.839}

$$$$
EPH_relaxed_0001_pdb2pqr_Repair_56_r2_0001_out
     RDKit          3D

 82 86  0  0  0  0  0  0  0  0999 V2000
    0.9190   15.0090   -2.6770 C   0  0  0  0  0  0  0  0  0  0  0  0
    1.1890   14.3230   -4.0180 C   0  0  2  0  0  0  0  0  0  0  0  0
    0.4680   15.0250   -5.1860 C   0  0  0  0  0  0  0  0  0  0  0  0
    1.0160   14.6470   -6.5650 C   0  0  0  0  0  0  0  0  0  0  0  0
    0.8120   15.7460   -7.5630 C   0  0  2  0  0  0  0  0  0  0  0  0
    0.4040   15.3050   -8.8640 O   0  0  0  0  0  0  0  0  0  0  0  0
    1.6910   15.9390   -8.7850 C   0  0  0  0  0  0  0  0  0  0  0  0
    2.8400   15.0250   -9.0730 C   0  0  0  0  0  0  0  0  0  0  0  0
    1.7370   17.2910   -9.4260 C   0  0  0  0  0  0  0  0  0  0  0  0
    0.7640   12.8600   -3.9480 C   0  0  1  0  0  0  0  0  0  0  0  0
    1.9100   11.8860   -4.3320 C   0  0  0  0  0  0  0  0  0  0  0  0
    1.7410   10.6250   -3.4470 C   0  0  0  0  0  0  0  0  0  0  0  0
    0.3300   10.7690   -2.8290 C   0  0  1  0  0  0  0  0  0  0  0  0
   -0.6470   10.2740   -3.9400 C   0  0  0  0  0  0  0  0  0  0  0  0
    0.0900   10.0240   -1.4750 C   0  0  2  0  0  0  0  0  0  0  0  0
    0.2210    8.4930   -1.5410 C   0  0  0  0  0  0  0  0  0  0  0  0
   -1.0420    7.7580   -1.8460 C   0  0  0  0  0  0  0  0  0  0  0  0
   -2.2840    8.2740   -1.7790 C   0  0  0  0  0  0  0  0  0  0  0  0
   -2.5170    9.7010   -1.2680 C   0  0  1  0  0  0  0  0  0  0  0  0
   -3.6870    9.7020   -0.2510 C   0  0  0  0  0  0  0  0  0  0  0  0
   -4.9550    9.0710   -0.8170 C   0  0  0  0  0  0  0  0  0  0  0  0
   -4.6980    7.6330   -1.2600 C   0  0  2  0  0  0  0  0  0  0  0  0
   -4.4150    6.8380   -0.1050 O   0  0  0  0  0  0  0  0  0  0  0  0
   -3.5320    7.5060   -2.2800 C   0  0  0  0  0  0  0  0  0  0  0  0
   -3.9610    8.1110   -3.6400 C   0  0  0  0  0  0  0  0  0  0  0  0
   -3.2840    5.9950   -2.5360 C   0  0  0  0  0  0  0  0  0  0  0  0
   -1.2320   10.4600   -0.7210 C   0  0  1  0  0  0  0  0  0  0  0  0
   -1.0160   10.1230    0.7860 C   0  0  0  0  0  0  0  0  0  0  0  0
   -1.4800   12.0130   -0.7980 C   0  0  0  0  0  0  0  0  0  0  0  0
   -1.1110   12.7110   -2.1210 C   0  0  0  0  0  0  0  0  0  0  0  0
    0.2990   12.3200   -2.5730 C   0  0  2  0  0  0  0  0  0  0  0  0
    1.3070   12.8250   -1.4840 C   0  0  0  0  0  0  0  0  0  0  0  0
    1.1871   14.3277   -1.8561 H   0  0  0  0  0  0  0  0  0  0  0  0
    1.5236   15.9251   -2.6055 H   0  0  0  0  0  0  0  0  0  0  0  0
   -0.1479   15.2673   -2.6055 H   0  0  0  0  0  0  0  0  0  0  0  0
    2.2700   14.3882   -4.2108 H   0  0  0  0  0  0  0  0  0  0  0  0
   -0.5974   14.7537   -5.1496 H   0  0  0  0  0  0  0  0  0  0  0  0
    0.6309   16.1057   -5.0609 H   0  0  0  0  0  0  0  0  0  0  0  0
    2.0930   14.4413   -6.4764 H   0  0  0  0  0  0  0  0  0  0  0  0
    0.4725   13.7582   -6.9180 H   0  0  0  0  0  0  0  0  0  0  0  0
    0.4865   16.4370   -6.7714 H   0  0  0  0  0  0  0  0  0  0  0  0
    3.2778   14.6767   -8.1259 H   0  0  0  0  0  0  0  0  0  0  0  0
    2.4843   14.1603   -9.6524 H   0  0  0  0  0  0  0  0  0  0  0  0
    3.6026   15.5660   -9.6524 H   0  0  0  0  0  0  0  0  0  0  0  0
    1.7634   18.0660   -8.6458 H   0  0  0  0  0  0  0  0  0  0  0  0
    2.6383   17.3697  -10.0516 H   0  0  0  0  0  0  0  0  0  0  0  0
    0.8431   17.4308  -10.0516 H   0  0  0  0  0  0  0  0  0  0  0  0
   -0.0825   12.8799   -4.6502 H   0  0  0  0  0  0  0  0  0  0  0  0
    1.8362   11.6149   -5.3955 H   0  0  0  0  0  0  0  0  0  0  0  0
    2.8938   12.3514   -4.1723 H   0  0  0  0  0  0  0  0  0  0  0  0
    1.8069    9.7113   -4.0560 H   0  0  0  0  0  0  0  0  0  0  0  0
    2.5261   10.5446   -2.6807 H   0  0  0  0  0  0  0  0  0  0  0  0
   -1.5354    9.8239   -3.4730 H   0  0  0  0  0  0  0  0  0  0  0  0
   -0.9531   11.1257   -4.5652 H   0  0  0  0  0  0  0  0  0  0  0  0
   -0.1413    9.5234   -4.5652 H   0  0  0  0  0  0  0  0  0  0  0  0
    0.9355   10.3695   -0.8620 H   0  0  0  0  0  0  0  0  0  0  0  0
    0.9544    8.2479   -2.3234 H   0  0  0  0  0  0  0  0  0  0  0  0
    0.5260    8.1698   -0.5348 H   0  0  0  0  0  0  0  0  0  0  0  0
   -0.9503    6.7053   -2.1515 H   0  0  0  0  0  0  0  0  0  0  0  0
   -2.7890   10.2993   -2.1501 H   0  0  0  0  0  0  0  0  0  0  0  0
   -3.3794    9.1362    0.6408 H   0  0  0  0  0  0  0  0  0  0  0  0
   -3.9160   10.7498   -0.0068 H   0  0  0  0  0  0  0  0  0  0  0  0
   -5.7358    9.0749   -0.0422 H   0  0  0  0  0  0  0  0  0  0  0  0
   -5.2778    9.6553   -1.6913 H   0  0  0  0  0  0  0  0  0  0  0  0
   -5.6043    7.2790   -1.7732 H   0  0  0  0  0  0  0  0  0  0  0  0
   -5.2470    6.7270    0.3860 H   0  0  0  0  0  0  0  0  0  0  0  0
   -4.5892    8.9969   -3.4654 H   0  0  0  0  0  0  0  0  0  0  0  0
   -3.0666    8.4024   -4.2102 H   0  0  0  0  0  0  0  0  0  0  0  0
   -4.5319    7.3633   -4.2102 H   0  0  0  0  0  0  0  0  0  0  0  0
   -3.1977    5.4694   -1.5736 H   0  0  0  0  0  0  0  0  0  0  0  0
   -4.1256    5.5770   -3.1079 H   0  0  0  0  0  0  0  0  0  0  0  0
   -2.3530    5.8680   -3.1079 H   0  0  0  0  0  0  0  0  0  0  0  0
   -1.5061   10.8876    1.4066 H   0  0  0  0  0  0  0  0  0  0  0  0
   -1.4509    9.1372    1.0073 H   0  0  0  0  0  0  0  0  0  0  0  0
    0.0614   10.1065    1.0073 H   0  0  0  0  0  0  0  0  0  0  0  0
   -2.5507   12.1883   -0.6167 H   0  0  0  0  0  0  0  0  0  0  0  0
   -0.8072   12.4494   -0.0451 H   0  0  0  0  0  0  0  0  0  0  0  0
   -1.8324   12.4155   -2.8970 H   0  0  0  0  0  0  0  0  0  0  0  0
   -1.1392   13.7992   -1.9629 H   0  0  0  0  0  0  0  0  0  0  0  0
    0.8986   12.6204   -0.4833 H   0  0  0  0  0  0  0  0  0  0  0  0
    2.2672   12.3015   -1.6022 H   0  0  0  0  0  0  0  0  0  0  0  0
    1.4626   13.9075   -1.6022 H   0  0  0  0  0  0  0  0  0  0  0  0
  1  2  1  0
  2  3  1  0
  3  4  1  0
  4  5  1  0
  5  6  1  0
  6  7  1  0
  7  8  1  0
  7  9  1  0
  2 10  1  0
 10 11  1  0
 11 12  1  0
 12 13  1  0
 13 14  1  6
 13 15  1  0
 15 16  1  0
 16 17  1  0
 17 18  2  0
 18 19  1  0
 19 20  1  0
 20 21  1  0
 21 22  1  0
 22 23  1  0
 22 24  1  0
 24 25  1  0
 24 26  1  0
 19 27  1  0
 27 28  1  1
 27 29  1  0
 29 30  1  0
 30 31  1  0
 31 32  1  1
  7  5  1  0
 31 10  1  0
 31 13  1  0
 27 15  1  0
 24 18  1  0
  1 33  1  0
  1 34  1  0
  1 35  1  0
  2 36  1  6
  3 37  1  0
  3 38  1  0
  4 39  1  0
  4 40  1  0
  5 41  1  1
  8 42  1  0
  8 43  1  0
  8 44  1  0
  9 45  1  0
  9 46  1  0
  9 47  1  0
 10 48  1  6
 11 49  1  0
 11 50  1  0
 12 51  1  0
 12 52  1  0
 14 53  1  0
 14 54  1  0
 14 55  1  0
 15 56  1  1
 16 57  1  0
 16 58  1  0
 17 59  1  0
 19 60  1  6
 20 61  1  0
 20 62  1  0
 21 63  1  0
 21 64  1  0
 22 65  1  6
 23 66  1  0
 25 67  1  0
 25 68  1  0
 25 69  1  0
 26 70  1  0
 26 71  1  0
 26 72  1  0
 28 73  1  0
 28 74  1  0
 28 75  1  0
 29 76  1  0
 29 77  1  0
 30 78  1  0
 30 79  1  0
 32 80  1  0
 32 81  1  0
 32 82  1  0
M  END
>  <meeko>  (15) 
{"is_sidechain": [false], "intermolecular_energy": 2.731, "internal_energy": -0.839}

$$$$
EPH_relaxed_0001_pdb2pqr_Repair_56_r2_0001_out
     RDKit          3D

 82 86  0  0  0  0  0  0  0  0999 V2000
   -2.0610    7.8230   -1.9900 C   0  0  0  0  0  0  0  0  0  0  0  0
   -2.1770    8.5170   -0.6310 C   0  0  2  0  0  0  0  0  0  0  0  0
   -3.6290    8.5430   -0.1130 C   0  0  0  0  0  0  0  0  0  0  0  0
   -4.5650    7.5870   -0.8590 C   0  0  0  0  0  0  0  0  0  0  0  0
   -5.5520    8.3280   -1.7090 C   0  0  2  0  0  0  0  0  0  0  0  0
   -6.1980    9.4280   -1.0550 O   0  0  0  0  0  0  0  0  0  0  0  0
   -7.0460    8.3350   -1.4450 C   0  0  0  0  0  0  0  0  0  0  0  0
   -7.6370    7.5840   -0.2930 C   0  0  0  0  0  0  0  0  0  0  0  0
   -7.9710    8.6620   -2.5750 C   0  0  0  0  0  0  0  0  0  0  0  0
   -1.6320    9.9380   -0.7240 C   0  0  1  0  0  0  0  0  0  0  0  0
   -1.1420   10.4810    0.6440 C   0  0  0  0  0  0  0  0  0  0  0  0
    0.0840   11.3840    0.3540 C   0  0  0  0  0  0  0  0  0  0  0  0
    0.0570   11.5980   -1.1780 C   0  0  1  0  0  0  0  0  0  0  0  0
   -0.9910   12.7310   -1.4060 C   0  0  0  0  0  0  0  0  0  0  0  0
    1.4270   11.9330   -1.8530 C   0  0  2  0  0  0  0  0  0  0  0  0
    2.0780   13.2480   -1.3910 C   0  0  0  0  0  0  0  0  0  0  0  0
    1.7090   14.4570   -2.1860 C   0  0  0  0  0  0  0  0  0  0  0  0
    1.1180   14.4460   -3.3960 C   0  0  0  0  0  0  0  0  0  0  0  0
    0.8500   13.1260   -4.1300 C   0  0  1  0  0  0  0  0  0  0  0  0
    1.3000   13.2550   -5.6090 C   0  0  0  0  0  0  0  0  0  0  0  0
    0.6660   14.4530   -6.3110 C   0  0  0  0  0  0  0  0  0  0  0  0
    1.0040   15.7520   -5.5840 C   0  0  2  0  0  0  0  0  0  0  0  0
    2.4090   15.9970   -5.7070 O   0  0  0  0  0  0  0  0  0  0  0  0
    0.6050   15.7360   -4.0820 C   0  0  0  0  0  0  0  0  0  0  0  0
   -0.9370   15.7750   -3.9530 C   0  0  0  0  0  0  0  0  0  0  0  0
    1.1280   17.0470   -3.4350 C   0  0  0  0  0  0  0  0  0  0  0  0
    1.4170   11.8160   -3.4310 C   0  0  1  0  0  0  0  0  0  0  0  0
    2.8950   11.5780   -3.8690 C   0  0  0  0  0  0  0  0  0  0  0  0
    0.5980   10.5700   -3.9340 C   0  0  0  0  0  0  0  0  0  0  0  0
   -0.6820   10.2180   -3.1520 C   0  0  0  0  0  0  0  0  0  0  0  0
   -0.4090   10.1710   -1.6460 C   0  0  2  0  0  0  0  0  0  0  0  0
    0.6260    9.0240   -1.3830 C   0  0  0  0  0  0  0  0  0  0  0  0
   -1.8814    6.7484   -1.8388 H   0  0  0  0  0  0  0  0  0  0  0  0
   -2.9950    7.9628   -2.5540 H   0  0  0  0  0  0  0  0  0  0  0  0
   -1.2233    8.2590   -2.5540 H   0  0  0  0  0  0  0  0  0  0  0  0
   -1.5807    7.9361    0.0880 H   0  0  0  0  0  0  0  0  0  0  0  0
   -3.6234    8.2640    0.9510 H   0  0  0  0  0  0  0  0  0  0  0  0
   -4.0112    9.5613   -0.2773 H   0  0  0  0  0  0  0  0  0  0  0  0
   -3.9630    6.9291   -1.5031 H   0  0  0  0  0  0  0  0  0  0  0  0
   -5.1248    7.0038   -0.1130 H   0  0  0  0  0  0  0  0  0  0  0  0
   -4.9644    8.1181   -2.6149 H   0  0  0  0  0  0  0  0  0  0  0  0
   -7.2882    8.0273    0.6514 H   0  0  0  0  0  0  0  0  0  0  0  0
   -8.7344    7.6418   -0.3419 H   0  0  0  0  0  0  0  0  0  0  0  0
   -7.3228    6.5310   -0.3419 H   0  0  0  0  0  0  0  0  0  0  0  0
   -8.9360    9.0031   -2.1719 H   0  0  0  0  0  0  0  0  0  0  0  0
   -7.5291    9.4584   -3.1918 H   0  0  0  0  0  0  0  0  0  0  0  0
   -8.1278    7.7648   -3.1918 H   0  0  0  0  0  0  0  0  0  0  0  0
   -2.5158   10.4479   -1.1349 H   0  0  0  0  0  0  0  0  0  0  0  0
   -1.9384   11.0670    1.1261 H   0  0  0  0  0  0  0  0  0  0  0  0
   -0.8742    9.6577    1.3226 H   0  0  0  0  0  0  0  0  0  0  0  0
   -0.0076   12.3446    0.8820 H   0  0  0  0  0  0  0  0  0  0  0  0
    1.0263   10.9306    0.6955 H   0  0  0  0  0  0  0  0  0  0  0  0
   -1.3402   13.1085   -0.4336 H   0  0  0  0  0  0  0  0  0  0  0  0
   -0.5265   13.5515   -1.9726 H   0  0  0  0  0  0  0  0  0  0  0  0
   -1.8452   12.3318   -1.9726 H   0  0  0  0  0  0  0  0  0  0  0  0
    2.0780   11.1299   -1.4771 H   0  0  0  0  0  0  0  0  0  0  0  0
    1.7821   13.4249   -0.3464 H   0  0  0  0  0  0  0  0  0  0  0  0
    3.1615   13.1146   -1.5259 H   0  0  0  0  0  0  0  0  0  0  0  0
    1.9392   15.4387   -1.7465 H   0  0  0  0  0  0  0  0  0  0  0  0
   -0.2376   12.9678   -4.0835 H   0  0  0  0  0  0  0  0  0  0  0  0
    2.3938   13.3685   -5.6362 H   0  0  0  0  0  0  0  0  0  0  0  0
    0.9741   12.3471   -6.1377 H   0  0  0  0  0  0  0  0  0  0  0  0
    1.0451   14.5083   -7.3421 H   0  0  0  0  0  0  0  0  0  0  0  0
   -0.4263   14.3235   -6.3096 H   0  0  0  0  0  0  0  0  0  0  0  0
    0.4181   16.5553   -6.0546 H   0  0  0  0  0  0  0  0  0  0  0  0
    2.6200   16.0330   -6.6550 H   0  0  0  0  0  0  0  0  0  0  0  0
   -1.2159   15.7821   -2.8890 H   0  0  0  0  0  0  0  0  0  0  0  0
   -1.3228   16.6832   -4.4392 H   0  0  0  0  0  0  0  0  0  0  0  0
   -1.3682   14.8875   -4.4392 H   0  0  0  0  0  0  0  0  0  0  0  0
    1.0914   16.9552   -2.3394 H   0  0  0  0  0  0  0  0  0  0  0  0
    2.1658   17.2245   -3.7536 H   0  0  0  0  0  0  0  0  0  0  0  0
    0.4974   17.8901   -3.7536 H   0  0  0  0  0  0  0  0  0  0  0  0
    3.5300   11.4758   -2.9766 H   0  0  0  0  0  0  0  0  0  0  0  0
    2.9559   10.6585   -4.4696 H   0  0  0  0  0  0  0  0  0  0  0  0
    3.2415   12.4319   -4.4696 H   0  0  0  0  0  0  0  0  0  0  0  0
    0.3082   10.7616   -4.9777 H   0  0  0  0  0  0  0  0  0  0  0  0
    1.2678    9.7091   -3.7920 H   0  0  0  0  0  0  0  0  0  0  0  0
   -1.4487   10.9802   -3.3551 H   0  0  0  0  0  0  0  0  0  0  0  0
   -1.0295    9.2261   -3.4765 H   0  0  0  0  0  0  0  0  0  0  0  0
    0.7516    8.8849   -0.2991 H   0  0  0  0  0  0  0  0  0  0  0  0
    0.2597    8.0893   -1.8327 H   0  0  0  0  0  0  0  0  0  0  0  0
    1.5933    9.2927   -1.8327 H   0  0  0  0  0  0  0  0  0  0  0  0
  1  2  1  0
  2  3  1  0
  3  4  1  0
  4  5  1  0
  5  6  1  0
  6  7  1  0
  7  8  1  0
  7  9  1  0
  2 10  1  0
 10 11  1  0
 11 12  1  0
 12 13  1  0
 13 14  1  1
 13 15  1  0
 15 16  1  0
 16 17  1  0
 17 18  2  0
 18 19  1  0
 19 20  1  0
 20 21  1  0
 21 22  1  0
 22 23  1  0
 22 24  1  0
 24 25  1  0
 24 26  1  0
 19 27  1  0
 27 28  1  6
 27 29  1  0
 29 30  1  0
 30 31  1  0
 31 32  1  6
  7  5  1  0
 31 10  1  0
 31 13  1  0
 27 15  1  0
 24 18  1  0
  1 33  1  0
  1 34  1  0
  1 35  1  0
  2 36  1  1
  3 37  1  0
  3 38  1  0
  4 39  1  0
  4 40  1  0
  5 41  1  6
  8 42  1  0
  8 43  1  0
  8 44  1  0
  9 45  1  0
  9 46  1  0
  9 47  1  0
 10 48  1  6
 11 49  1  0
 11 50  1  0
 12 51  1  0
 12 52  1  0
 14 53  1  0
 14 54  1  0
 14 55  1  0
 15 56  1  1
 16 57  1  0
 16 58  1  0
 17 59  1  0
 19 60  1  6
 20 61  1  0
 20 62  1  0
 21 63  1  0
 21 64  1  0
 22 65  1  6
 23 66  1  0
 25 67  1  0
 25 68  1  0
 25 69  1  0
 26 70  1  0
 26 71  1  0
 26 72  1  0
 28 73  1  0
 28 74  1  0
 28 75  1  0
 29 76  1  0
 29 77  1  0
 30 78  1  0
 30 79  1  0
 32 80  1  0
 32 81  1  0
 32 82  1  0
M  END
>  <meeko>  (16) 
{"is_sidechain": [false], "intermolecular_energy": 2.731, "internal_energy": -0.839}

$$$$
EPH_relaxed_0001_pdb2pqr_Repair_56_r2_0001_out
     RDKit          3D

 82 86  0  0  0  0  0  0  0  0999 V2000
   -1.7940   14.7640    0.2130 C   0  0  0  0  0  0  0  0  0  0  0  0
   -0.4230   15.4370    0.3240 C   0  0  2  0  0  0  0  0  0  0  0  0
   -0.2850   16.6340   -0.6380 C   0  0  0  0  0  0  0  0  0  0  0  0
   -0.8010   17.9530   -0.0570 C   0  0  0  0  0  0  0  0  0  0  0  0
    0.3040   18.7590    0.5560 C   0  0  2  0  0  0  0  0  0  0  0  0
    0.0240   20.1590    0.6830 O   0  0  0  0  0  0  0  0  0  0  0  0
    1.0970   19.8050   -0.2040 C   0  0  0  0  0  0  0  0  0  0  0  0
    0.8190   20.1010   -1.6450 C   0  0  0  0  0  0  0  0  0  0  0  0
    2.4520   20.1860    0.3060 C   0  0  0  0  0  0  0  0  0  0  0  0
    0.6790   14.4200    0.0510 C   0  0  1  0  0  0  0  0  0  0  0  0
    0.8260   13.3780    1.1920 C   0  0  0  0  0  0  0  0  0  0  0  0
    1.2150   12.0340    0.5240 C   0  0  0  0  0  0  0  0  0  0  0  0
    1.6020   12.4170   -0.9240 C   0  0  1  0  0  0  0  0  0  0  0  0
    3.0700   12.9370   -0.8220 C   0  0  0  0  0  0  0  0  0  0  0  0
    1.4620   11.2890   -1.9970 C   0  0  2  0  0  0  0  0  0  0  0  0
    2.3610   10.0600   -1.7740 C   0  0  0  0  0  0  0  0  0  0  0  0
    3.7030   10.1250   -2.4240 C   0  0  0  0  0  0  0  0  0  0  0  0
    4.0640   10.9930   -3.3880 C   0  0  0  0  0  0  0  0  0  0  0  0
    3.0460   11.9710   -3.9890 C   0  0  1  0  0  0  0  0  0  0  0  0
    3.1660   11.9580   -5.5350 C   0  0  0  0  0  0  0  0  0  0  0  0
    4.5890   12.2290   -6.0140 C   0  0  0  0  0  0  0  0  0  0  0  0
    5.5630   11.2020   -5.4420 C   0  0  2  0  0  0  0  0  0  0  0  0
    5.2600    9.9200   -6.0010 O   0  0  0  0  0  0  0  0  0  0  0  0
    5.5240   11.1190   -3.8900 C   0  0  0  0  0  0  0  0  0  0  0  0
    6.1370   12.4050   -3.2850 C   0  0  0  0  0  0  0  0  0  0  0  0
    6.4460    9.9490   -3.4520 C   0  0  0  0  0  0  0  0  0  0  0  0
    1.5460   11.8020   -3.4920 C   0  0  1  0  0  0  0  0  0  0  0  0
    0.8110   10.7430   -4.3680 C   0  0  0  0  0  0  0  0  0  0  0  0
    0.7790   13.1610   -3.7010 C   0  0  0  0  0  0  0  0  0  0  0  0
    0.8570   14.1870   -2.5550 C   0  0  0  0  0  0  0  0  0  0  0  0
    0.5310   13.5310   -1.2090 C   0  0  2  0  0  0  0  0  0  0  0  0
   -0.9480   13.0180   -1.2730 C   0  0  0  0  0  0  0  0  0  0  0  0
   -2.1898   14.5697    1.2208 H   0  0  0  0  0  0  0  0  0  0  0  0
   -2.4843   15.4257   -0.3308 H   0  0  0  0  0  0  0  0  0  0  0  0
   -1.6928   13.8132   -0.3308 H   0  0  0  0  0  0  0  0  0  0  0  0
   -0.3260   15.8238    1.3492 H   0  0  0  0  0  0  0  0  0  0  0  0
    0.7790   16.7575   -0.8884 H   0  0  0  0  0  0  0  0  0  0  0  0
   -0.9007   16.4091   -1.5214 H   0  0  0  0  0  0  0  0  0  0  0  0
   -1.2655   18.5400   -0.8630 H   0  0  0  0  0  0  0  0  0  0  0  0
   -1.5316   17.7179    0.7310 H   0  0  0  0  0  0  0  0  0  0  0  0
    0.6138   17.9056    1.1771 H   0  0  0  0  0  0  0  0  0  0  0  0
    0.0675   20.9011   -1.7166 H   0  0  0  0  0  0  0  0  0  0  0  0
    1.7473   20.4246   -2.1386 H   0  0  0  0  0  0  0  0  0  0  0  0
    0.4379   19.1948   -2.1386 H   0  0  0  0  0  0  0  0  0  0  0  0
    2.4438   20.1837    1.4060 H   0  0  0  0  0  0  0  0  0  0  0  0
    3.1970   19.4625   -0.0566 H   0  0  0  0  0  0  0  0  0  0  0  0
    2.7108   21.1917   -0.0566 H   0  0  0  0  0  0  0  0  0  0  0  0
    1.5335   15.1023   -0.0681 H   0  0  0  0  0  0  0  0  0  0  0  0
    1.6120   13.6934    1.8939 H   0  0  0  0  0  0  0  0  0  0  0  0
   -0.1109   13.2798    1.7599 H   0  0  0  0  0  0  0  0  0  0  0  0
    2.0673   11.5735    1.0451 H   0  0  0  0  0  0  0  0  0  0  0  0
    0.3973   11.2990    0.5572 H   0  0  0  0  0  0  0  0  0  0  0  0
    3.3510   13.0365    0.2368 H   0  0  0  0  0  0  0  0  0  0  0  0
    3.7467   12.2239   -1.3155 H   0  0  0  0  0  0  0  0  0  0  0  0
    3.1469   13.9171   -1.3155 H   0  0  0  0  0  0  0  0  0  0  0  0
    0.4317   10.9386   -1.8366 H   0  0  0  0  0  0  0  0  0  0  0  0
    2.5133    9.9424   -0.6910 H   0  0  0  0  0  0  0  0  0  0  0  0
    1.8380    9.2120   -2.2402 H   0  0  0  0  0  0  0  0  0  0  0  0
    4.4612    9.4028   -2.0870 H   0  0  0  0  0  0  0  0  0  0  0  0
    3.3143   12.9652   -3.6023 H   0  0  0  0  0  0  0  0  0  0  0  0
    2.8515   10.9709   -5.9047 H   0  0  0  0  0  0  0  0  0  0  0  0
    2.5236   12.7606   -5.9264 H   0  0  0  0  0  0  0  0  0  0  0  0
    4.6150   12.1768   -7.1125 H   0  0  0  0  0  0  0  0  0  0  0  0
    4.8908   13.2289   -5.6688 H   0  0  0  0  0  0  0  0  0  0  0  0
    6.5796   11.5233   -5.7127 H   0  0  0  0  0  0  0  0  0  0  0  0
    4.6900   10.0630   -6.7750 H   0  0  0  0  0  0  0  0  0  0  0  0
    6.1078   12.3437   -2.1871 H   0  0  0  0  0  0  0  0  0  0  0  0
    7.1802   12.5062   -3.6190 H   0  0  0  0  0  0  0  0  0  0  0  0
    5.5587   13.2791   -3.6190 H   0  0  0  0  0  0  0  0  0  0  0  0
    6.4827    9.9025   -2.3536 H   0  0  0  0  0  0  0  0  0  0  0  0
    6.0488    9.0019   -3.8461 H   0  0  0  0  0  0  0  0  0  0  0  0
    7.4597   10.1137   -3.8461 H   0  0  0  0  0  0  0  0  0  0  0  0
    0.3057   10.0150   -3.7163 H   0  0  0  0  0  0  0  0  0  0  0  0
    0.0664   11.2454   -5.0030 H   0  0  0  0  0  0  0  0  0  0  0  0
    1.5421   10.2212   -5.0030 H   0  0  0  0  0  0  0  0  0  0  0  0
    1.1884   13.6386   -4.6034 H   0  0  0  0  0  0  0  0  0  0  0  0
   -0.2835   12.8841   -3.7669 H   0  0  0  0  0  0  0  0  0  0  0  0
    1.8737   14.6051   -2.5148 H   0  0  0  0  0  0  0  0  0  0  0  0
    0.1212   14.9822   -2.7452 H   0  0  0  0  0  0  0  0  0  0  0  0
   -1.3342   12.8841   -0.2518 H   0  0  0  0  0  0  0  0  0  0  0  0
   -1.5684   13.7534   -1.8061 H   0  0  0  0  0  0  0  0  0  0  0  0
   -0.9798   12.0563   -1.8061 H   0  0  0  0  0  0  0  0  0  0  0  0
  1  2  1  0
  2  3  1  0
  3  4  1  0
  4  5  1  0
  5  6  1  0
  6  7  1  0
  7  8  1  0
  7  9  1  0
  2 10  1  0
 10 11  1  0
 11 12  1  0
 12 13  1  0
 13 14  1  1
 13 15  1  0
 15 16  1  0
 16 17  1  0
 17 18  2  0
 18 19  1  0
 19 20  1  0
 20 21  1  0
 21 22  1  0
 22 23  1  0
 22 24  1  0
 24 25  1  0
 24 26  1  0
 19 27  1  0
 27 28  1  6
 27 29  1  0
 29 30  1  0
 30 31  1  0
 31 32  1  6
  7  5  1  0
 31 10  1  0
 31 13  1  0
 27 15  1  0
 24 18  1  0
  1 33  1  0
  1 34  1  0
  1 35  1  0
  2 36  1  1
  3 37  1  0
  3 38  1  0
  4 39  1  0
  4 40  1  0
  5 41  1  1
  8 42  1  0
  8 43  1  0
  8 44  1  0
  9 45  1  0
  9 46  1  0
  9 47  1  0
 10 48  1  6
 11 49  1  0
 11 50  1  0
 12 51  1  0
 12 52  1  0
 14 53  1  0
 14 54  1  0
 14 55  1  0
 15 56  1  6
 16 57  1  0
 16 58  1  0
 17 59  1  0
 19 60  1  1
 20 61  1  0
 20 62  1  0
 21 63  1  0
 21 64  1  0
 22 65  1  1
 23 66  1  0
 25 67  1  0
 25 68  1  0
 25 69  1  0
 26 70  1  0
 26 71  1  0
 26 72  1  0
 28 73  1  0
 28 74  1  0
 28 75  1  0
 29 76  1  0
 29 77  1  0
 30 78  1  0
 30 79  1  0
 32 80  1  0
 32 81  1  0
 32 82  1  0
M  END
>  <meeko>  (17) 
{"is_sidechain": [false], "intermolecular_energy": 2.731, "internal_energy": -0.839}

$$$$
