EPH_relaxed_0001_pdb2pqr_Repair_16_r2_0001_out
     RDKit          3D

 82 86  0  0  0  0  0  0  0  0999 V2000
   -1.7020    8.5690   -1.8700 C   0  0  0  0  0  0  0  0  0  0  0  0
   -2.0690    9.0940   -0.4790 C   0  0  2  0  0  0  0  0  0  0  0  0
   -3.5600    9.4740   -0.3760 C   0  0  0  0  0  0  0  0  0  0  0  0
   -4.4930    8.2680   -0.2310 C   0  0  0  0  0  0  0  0  0  0  0  0
   -5.1930    7.9510   -1.5180 C   0  0  2  0  0  0  0  0  0  0  0  0
   -6.3390    8.7680   -1.7930 O   0  0  0  0  0  0  0  0  0  0  0  0
   -6.5920    7.3680   -1.5870 C   0  0  0  0  0  0  0  0  0  0  0  0
   -7.3740    7.0670   -0.3480 C   0  0  0  0  0  0  0  0  0  0  0  0
   -7.0030    6.6410   -2.8300 C   0  0  0  0  0  0  0  0  0  0  0  0
   -1.2000   10.2970   -0.1330 C   0  0  1  0  0  0  0  0  0  0  0  0
   -0.1550    9.9820    0.9710 C   0  0  0  0  0  0  0  0  0  0  0  0
    1.1140   10.8060    0.6340 C   0  0  0  0  0  0  0  0  0  0  0  0
    0.6510   11.8110   -0.4470 C   0  0  1  0  0  0  0  0  0  0  0  0
   -0.0400   12.9630    0.3460 C   0  0  0  0  0  0  0  0  0  0  0  0
    1.7610   12.3540   -1.4060 C   0  0  2  0  0  0  0  0  0  0  0  0
    2.8770   13.1620   -0.7210 C   0  0  0  0  0  0  0  0  0  0  0  0
    2.6330   14.6320   -0.6260 C   0  0  0  0  0  0  0  0  0  0  0  0
    1.7040   15.3170   -1.3170 C   0  0  0  0  0  0  0  0  0  0  0  0
    0.8420   14.6230   -2.3800 C   0  0  1  0  0  0  0  0  0  0  0  0
    0.8010   15.4930   -3.6630 C   0  0  0  0  0  0  0  0  0  0  0  0
    0.3470   16.9230   -3.3860 C   0  0  0  0  0  0  0  0  0  0  0  0
    1.2630   17.5990   -2.3690 C   0  0  2  0  0  0  0  0  0  0  0  0
    2.5580   17.7660   -2.9550 O   0  0  0  0  0  0  0  0  0  0  0  0
    1.3900   16.8080   -1.0380 C   0  0  0  0  0  0  0  0  0  0  0  0
    0.0540   16.8850   -0.2570 C   0  0  0  0  0  0  0  0  0  0  0  0
    2.4490   17.5220   -0.1560 C   0  0  0  0  0  0  0  0  0  0  0  0
    1.2030   13.1050   -2.6820 C   0  0  1  0  0  0  0  0  0  0  0  0
    2.3210   13.0310   -3.7660 C   0  0  0  0  0  0  0  0  0  0  0  0
   -0.0580   12.3890   -3.2950 C   0  0  0  0  0  0  0  0  0  0  0  0
   -1.0560   11.7680   -2.2990 C   0  0  0  0  0  0  0  0  0  0  0  0
   -0.3320   10.8980   -1.2670 C   0  0  2  0  0  0  0  0  0  0  0  0
    0.3550    9.7170   -2.0340 C   0  0  0  0  0  0  0  0  0  0  0  0
   -1.0744    7.6712   -1.7693 H   0  0  0  0  0  0  0  0  0  0  0  0
   -2.6201    8.3148   -2.4199 H   0  0  0  0  0  0  0  0  0  0  0  0
   -1.1479    9.3439   -2.4199 H   0  0  0  0  0  0  0  0  0  0  0  0
   -1.8852    8.2825    0.2405 H   0  0  0  0  0  0  0  0  0  0  0  0
   -3.6932   10.1238    0.5015 H   0  0  0  0  0  0  0  0  0  0  0  0
   -3.8294    9.9783   -1.3157 H   0  0  0  0  0  0  0  0  0  0  0  0
   -3.9006    7.3939    0.0773 H   0  0  0  0  0  0  0  0  0  0  0  0
   -5.2556    8.5130    0.5229 H   0  0  0  0  0  0  0  0  0  0  0  0
   -4.2447    7.6509   -1.9878 H   0  0  0  0  0  0  0  0  0  0  0  0
   -6.7640    7.3018    0.5367 H   0  0  0  0  0  0  0  0  0  0  0  0
   -8.2892    7.6771   -0.3348 H   0  0  0  0  0  0  0  0  0  0  0  0
   -7.6439    6.0007   -0.3348 H   0  0  0  0  0  0  0  0  0  0  0  0
   -7.5273    5.7136   -2.5560 H   0  0  0  0  0  0  0  0  0  0  0  0
   -7.6737    7.2797   -3.4235 H   0  0  0  0  0  0  0  0  0  0  0  0
   -6.1100    6.3957   -3.4235 H   0  0  0  0  0  0  0  0  0  0  0  0
   -1.9836   11.0113    0.1599 H   0  0  0  0  0  0  0  0  0  0  0  0
   -0.5457   10.2743    1.9569 H   0  0  0  0  0  0  0  0  0  0  0  0
    0.0706    8.9059    1.0058 H   0  0  0  0  0  0  0  0  0  0  0  0
    1.4809   11.3360    1.5253 H   0  0  0  0  0  0  0  0  0  0  0  0
    1.9430   10.1720    0.2864 H   0  0  0  0  0  0  0  0  0  0  0  0
    0.0688   12.7817    1.4255 H   0  0  0  0  0  0  0  0  0  0  0  0
    0.4322   13.9218    0.0859 H   0  0  0  0  0  0  0  0  0  0  0  0
   -1.1082   12.9978    0.0859 H   0  0  0  0  0  0  0  0  0  0  0  0
    2.2384   11.4295   -1.7628 H   0  0  0  0  0  0  0  0  0  0  0  0
    3.0020   12.7714    0.2997 H   0  0  0  0  0  0  0  0  0  0  0  0
    3.7707   13.0417   -1.3510 H   0  0  0  0  0  0  0  0  0  0  0  0
    3.2668   15.2035    0.0681 H   0  0  0  0  0  0  0  0  0  0  0  0
   -0.1676   14.5460   -1.9501 H   0  0  0  0  0  0  0  0  0  0  0  0
    1.8093   15.5219   -4.1018 H   0  0  0  0  0  0  0  0  0  0  0  0
    0.0728   15.0389   -4.3512 H   0  0  0  0  0  0  0  0  0  0  0  0
    0.3673   17.4954   -4.3251 H   0  0  0  0  0  0  0  0  0  0  0  0
   -0.6730   16.8941   -2.9751 H   0  0  0  0  0  0  0  0  0  0  0  0
    0.8136   18.5702   -2.1145 H   0  0  0  0  0  0  0  0  0  0  0  0
    3.1860   17.9430   -2.2340 H   0  0  0  0  0  0  0  0  0  0  0  0
    0.2597   16.8731    0.8235 H   0  0  0  0  0  0  0  0  0  0  0  0
   -0.4714   17.8149   -0.5200 H   0  0  0  0  0  0  0  0  0  0  0  0
   -0.5748   16.0216   -0.5200 H   0  0  0  0  0  0  0  0  0  0  0  0
    2.2105   17.3612    0.9057 H   0  0  0  0  0  0  0  0  0  0  0  0
    3.4456   17.1107   -0.3743 H   0  0  0  0  0  0  0  0  0  0  0  0
    2.4414   18.6001   -0.3743 H   0  0  0  0  0  0  0  0  0  0  0  0
    3.3035   12.9660   -3.2756 H   0  0  0  0  0  0  0  0  0  0  0  0
    2.1649   12.1412   -4.3936 H   0  0  0  0  0  0  0  0  0  0  0  0
    2.2835   13.9336   -4.3936 H   0  0  0  0  0  0  0  0  0  0  0  0
   -0.6045   13.1323   -3.8941 H   0  0  0  0  0  0  0  0  0  0  0  0
    0.3429   11.5401   -3.8682 H   0  0  0  0  0  0  0  0  0  0  0  0
   -1.5921   12.5743   -1.7771 H   0  0  0  0  0  0  0  0  0  0  0  0
   -1.7611   11.1352   -2.8579 H   0  0  0  0  0  0  0  0  0  0  0  0
    0.7710    9.0018   -1.3092 H   0  0  0  0  0  0  0  0  0  0  0  0
   -0.3882    9.2084   -2.6657 H   0  0  0  0  0  0  0  0  0  0  0  0
    1.1645   10.1116   -2.6657 H   0  0  0  0  0  0  0  0  0  0  0  0
  1  2  1  0
  2  3  1  0
  3  4  1  0
  4  5  1  0
  5  6  1  0
  6  7  1  0
  7  8  1  0
  7  9  1  0
  2 10  1  0
 10 11  1  0
 11 12  1  0
 12 13  1  0
 13 14  1  1
 13 15  1  0
 15 16  1  0
 16 17  1  0
 17 18  2  0
 18 19  1  0
 19 20  1  0
 20 21  1  0
 21 22  1  0
 22 23  1  0
 22 24  1  0
 24 25  1  0
 24 26  1  0
 19 27  1  0
 27 28  1  6
 27 29  1  0
 29 30  1  0
 30 31  1  0
 31 32  1  6
  7  5  1  0
 31 10  1  0
 31 13  1  0
 27 15  1  0
 24 18  1  0
  1 33  1  0
  1 34  1  0
  1 35  1  0
  2 36  1  1
  3 37  1  0
  3 38  1  0
  4 39  1  0
  4 40  1  0
  5 41  1  6
  8 42  1  0
  8 43  1  0
  8 44  1  0
  9 45  1  0
  9 46  1  0
  9 47  1  0
 10 48  1  1
 11 49  1  0
 11 50  1  0
 12 51  1  0
 12 52  1  0
 14 53  1  0
 14 54  1  0
 14 55  1  0
 15 56  1  6
 16 57  1  0
 16 58  1  0
 17 59  1  0
 19 60  1  1
 20 61  1  0
 20 62  1  0
 21 63  1  0
 21 64  1  0
 22 65  1  1
 23 66  1  0
 25 67  1  0
 25 68  1  0
 25 69  1  0
 26 70  1  0
 26 71  1  0
 26 72  1  0
 28 73  1  0
 28 74  1  0
 28 75  1  0
 29 76  1  0
 29 77  1  0
 30 78  1  0
 30 79  1  0
 32 80  1  0
 32 81  1  0
 32 82  1  0
M  END
>  <meeko>  (1) 
{"is_sidechain": [false], "intermolecular_energy": 2.731, "internal_energy": -0.839}

$$$$
EPH_relaxed_0001_pdb2pqr_Repair_16_r2_0001_out
     RDKit          3D

 82 86  0  0  0  0  0  0  0  0999 V2000
    1.9390   19.7010   -0.5770 C   0  0  0  0  0  0  0  0  0  0  0  0
    2.3500   18.4710    0.2360 C   0  0  2  0  0  0  0  0  0  0  0  0
    3.8060   18.0490   -0.0450 C   0  0  0  0  0  0  0  0  0  0  0  0
    4.7360   18.2000    1.1620 C   0  0  0  0  0  0  0  0  0  0  0  0
    4.1010   19.0100    2.2520 C   0  0  2  0  0  0  0  0  0  0  0  0
    4.8520   20.1620    2.6560 O   0  0  0  0  0  0  0  0  0  0  0  0
    4.6830   19.1360    3.6470 C   0  0  0  0  0  0  0  0  0  0  0  0
    5.9540   18.4430    4.0280 C   0  0  0  0  0  0  0  0  0  0  0  0
    3.7730   19.5260    4.7700 C   0  0  0  0  0  0  0  0  0  0  0  0
    1.4050   17.3120   -0.0600 C   0  0  1  0  0  0  0  0  0  0  0  0
    0.1460   17.7560   -0.8500 C   0  0  0  0  0  0  0  0  0  0  0  0
   -0.2180   16.5880   -1.8040 C   0  0  0  0  0  0  0  0  0  0  0  0
    0.6300   15.3960   -1.3020 C   0  0  1  0  0  0  0  0  0  0  0  0
   -0.1670   14.8200   -0.0890 C   0  0  0  0  0  0  0  0  0  0  0  0
    0.9570   14.2890   -2.3560 C   0  0  2  0  0  0  0  0  0  0  0  0
   -0.2650   13.5510   -2.9290 C   0  0  0  0  0  0  0  0  0  0  0  0
   -0.6780   12.3250   -2.1840 C   0  0  0  0  0  0  0  0  0  0  0  0
    0.0700   11.6750   -1.2730 C   0  0  0  0  0  0  0  0  0  0  0  0
    1.5120   12.1100   -0.9820 C   0  0  1  0  0  0  0  0  0  0  0  0
    2.4340   10.8630   -0.9580 C   0  0  0  0  0  0  0  0  0  0  0  0
    1.9420    9.7900    0.0080 C   0  0  0  0  0  0  0  0  0  0  0  0
    0.5270    9.3420   -0.3480 C   0  0  2  0  0  0  0  0  0  0  0  0
    0.5610    8.6660   -1.6090 O   0  0  0  0  0  0  0  0  0  0  0  0
   -0.4900   10.5160   -0.4120 C   0  0  0  0  0  0  0  0  0  0  0  0
   -0.7540   11.0540    1.0160 C   0  0  0  0  0  0  0  0  0  0  0  0
   -1.8430    9.9480   -0.9190 C   0  0  0  0  0  0  0  0  0  0  0  0
    2.0830   13.2740   -1.9010 C   0  0  1  0  0  0  0  0  0  0  0  0
    2.6930   12.6720   -3.2040 C   0  0  0  0  0  0  0  0  0  0  0  0
    3.2660   13.9900   -1.1470 C   0  0  0  0  0  0  0  0  0  0  0  0
    2.8890   15.1550   -0.2110 C   0  0  0  0  0  0  0  0  0  0  0  0
    1.9570   16.1450   -0.9170 C   0  0  2  0  0  0  0  0  0  0  0  0
    2.7390   16.7580   -2.1280 C   0  0  0  0  0  0  0  0  0  0  0  0
    1.6660   20.5181    0.1069 H   0  0  0  0  0  0  0  0  0  0  0  0
    2.7797   20.0191   -1.2111 H   0  0  0  0  0  0  0  0  0  0  0  0
    1.0760   19.4498   -1.2111 H   0  0  0  0  0  0  0  0  0  0  0  0
    2.2844   18.7412    1.3003 H   0  0  0  0  0  0  0  0  0  0  0  0
    3.8078   16.9934   -0.3545 H   0  0  0  0  0  0  0  0  0  0  0  0
    4.1881   18.7180   -0.8301 H   0  0  0  0  0  0  0  0  0  0  0  0
    4.9766   17.2008    1.5541 H   0  0  0  0  0  0  0  0  0  0  0  0
    5.6457   18.7226    0.8313 H   0  0  0  0  0  0  0  0  0  0  0  0
    3.0947   18.7481    1.8933 H   0  0  0  0  0  0  0  0  0  0  0  0
    6.0336   18.3996    5.1243 H   0  0  0  0  0  0  0  0  0  0  0  0
    5.9513   17.4215    3.6199 H   0  0  0  0  0  0  0  0  0  0  0  0
    6.8111   18.9986    3.6199 H   0  0  0  0  0  0  0  0  0  0  0  0
    4.2652   19.3151    5.7309 H   0  0  0  0  0  0  0  0  0  0  0  0
    3.5464   20.6003    4.7021 H   0  0  0  0  0  0  0  0  0  0  0  0
    2.8388   18.9492    4.7021 H   0  0  0  0  0  0  0  0  0  0  0  0
    1.2106   16.9654    0.9657 H   0  0  0  0  0  0  0  0  0  0  0  0
   -0.6858   17.9530   -0.1577 H   0  0  0  0  0  0  0  0  0  0  0  0
    0.3387   18.6810   -1.4133 H   0  0  0  0  0  0  0  0  0  0  0  0
   -1.2912   16.3550   -1.7409 H   0  0  0  0  0  0  0  0  0  0  0  0
   -0.0144   16.8307   -2.8574 H   0  0  0  0  0  0  0  0  0  0  0  0
    0.2988   15.1566    0.8489 H   0  0  0  0  0  0  0  0  0  0  0  0
   -1.2067   15.1767   -0.1307 H   0  0  0  0  0  0  0  0  0  0  0  0
   -0.1545   13.7209   -0.1307 H   0  0  0  0  0  0  0  0  0  0  0  0
    1.3709   14.8738   -3.1907 H   0  0  0  0  0  0  0  0  0  0  0  0
   -1.1143   14.2501   -2.9300 H   0  0  0  0  0  0  0  0  0  0  0  0
    0.0284   13.2118   -3.9334 H   0  0  0  0  0  0  0  0  0  0  0  0
   -1.6776   11.9186   -2.3975 H   0  0  0  0  0  0  0  0  0  0  0  0
    1.4938   12.5794    0.0127 H   0  0  0  0  0  0  0  0  0  0  0  0
    2.4739   10.4345   -1.9703 H   0  0  0  0  0  0  0  0  0  0  0  0
    3.4276   11.1891   -0.6168 H   0  0  0  0  0  0  0  0  0  0  0  0
    2.6174    8.9232   -0.0426 H   0  0  0  0  0  0  0  0  0  0  0  0
    1.9315   10.2110    1.0242 H   0  0  0  0  0  0  0  0  0  0  0  0
    0.1821    8.6718    0.4532 H   0  0  0  0  0  0  0  0  0  0  0  0
    0.5760    9.3440   -2.3060 H   0  0  0  0  0  0  0  0  0  0  0  0
   -0.3952   10.3229    1.7554 H   0  0  0  0  0  0  0  0  0  0  0  0
   -0.2208   12.0063    1.1534 H   0  0  0  0  0  0  0  0  0  0  0  0
   -1.8334   11.2150    1.1534 H   0  0  0  0  0  0  0  0  0  0  0  0
   -2.4748    9.6828   -0.0585 H   0  0  0  0  0  0  0  0  0  0  0  0
   -2.3541   10.7075   -1.5289 H   0  0  0  0  0  0  0  0  0  0  0  0
   -1.6588    9.0513   -1.5289 H   0  0  0  0  0  0  0  0  0  0  0  0
    3.4531   11.9218   -2.9404 H   0  0  0  0  0  0  0  0  0  0  0  0
    1.8972   12.1955   -3.7953 H   0  0  0  0  0  0  0  0  0  0  0  0
    3.1589   13.4740   -3.7953 H   0  0  0  0  0  0  0  0  0  0  0  0
    3.7830   13.2307   -0.5418 H   0  0  0  0  0  0  0  0  0  0  0  0
    3.8796   14.4440   -1.9391 H   0  0  0  0  0  0  0  0  0  0  0  0
    2.3804   14.7528    0.6776 H   0  0  0  0  0  0  0  0  0  0  0  0
    3.8087   15.6842    0.0788 H   0  0  0  0  0  0  0  0  0  0  0  0
    3.5530   17.3961   -1.7536 H   0  0  0  0  0  0  0  0  0  0  0  0
    3.1606   15.9473   -2.7404 H   0  0  0  0  0  0  0  0  0  0  0  0
    2.0525   17.3610   -2.7404 H   0  0  0  0  0  0  0  0  0  0  0  0
  1  2  1  0
  2  3  1  0
  3  4  1  0
  4  5  1  0
  5  6  1  0
  6  7  1  0
  7  8  1  0
  7  9  1  0
  2 10  1  0
 10 11  1  0
 11 12  1  0
 12 13  1  0
 13 14  1  1
 13 15  1  0
 15 16  1  0
 16 17  1  0
 17 18  2  0
 18 19  1  0
 19 20  1  0
 20 21  1  0
 21 22  1  0
 22 23  1  0
 22 24  1  0
 24 25  1  0
 24 26  1  0
 19 27  1  0
 27 28  1  6
 27 29  1  0
 29 30  1  0
 30 31  1  0
 31 32  1  6
  7  5  1  0
 31 10  1  0
 31 13  1  0
 27 15  1  0
 24 18  1  0
  1 33  1  0
  1 34  1  0
  1 35  1  0
  2 36  1  1
  3 37  1  0
  3 38  1  0
  4 39  1  0
  4 40  1  0
  5 41  1  1
  8 42  1  0
  8 43  1  0
  8 44  1  0
  9 45  1  0
  9 46  1  0
  9 47  1  0
 10 48  1  1
 11 49  1  0
 11 50  1  0
 12 51  1  0
 12 52  1  0
 14 53  1  0
 14 54  1  0
 14 55  1  0
 15 56  1  6
 16 57  1  0
 16 58  1  0
 17 59  1  0
 19 60  1  1
 20 61  1  0
 20 62  1  0
 21 63  1  0
 21 64  1  0
 22 65  1  1
 23 66  1  0
 25 67  1  0
 25 68  1  0
 25 69  1  0
 26 70  1  0
 26 71  1  0
 26 72  1  0
 28 73  1  0
 28 74  1  0
 28 75  1  0
 29 76  1  0
 29 77  1  0
 30 78  1  0
 30 79  1  0
 32 80  1  0
 32 81  1  0
 32 82  1  0
M  END
>  <meeko>  (2) 
{"is_sidechain": [false], "intermolecular_energy": 2.731, "internal_energy": -0.839}

$$$$
EPH_relaxed_0001_pdb2pqr_Repair_16_r2_0001_out
     RDKit          3D

 82 86  0  0  0  0  0  0  0  0999 V2000
    0.3890   18.4230   -0.0270 C   0  0  0  0  0  0  0  0  0  0  0  0
    1.4830   17.3760   -0.2530 C   0  0  2  0  0  0  0  0  0  0  0  0
    2.6880   17.9510   -1.0230 C   0  0  0  0  0  0  0  0  0  0  0  0
    3.9230   18.1840   -0.1480 C   0  0  0  0  0  0  0  0  0  0  0  0
    3.5490   18.6500    1.2270 C   0  0  2  0  0  0  0  0  0  0  0  0
    3.7990   20.0390    1.4760 O   0  0  0  0  0  0  0  0  0  0  0  0
    4.5620   19.1070    2.2600 C   0  0  0  0  0  0  0  0  0  0  0  0
    6.0290   19.1190    1.9620 C   0  0  0  0  0  0  0  0  0  0  0  0
    4.1740   19.0750    3.7050 C   0  0  0  0  0  0  0  0  0  0  0  0
    0.9090   16.1790   -1.0020 C   0  0  1  0  0  0  0  0  0  0  0  0
    0.7610   16.4420   -2.5250 C   0  0  0  0  0  0  0  0  0  0  0  0
    1.0530   15.0990   -3.2410 C   0  0  0  0  0  0  0  0  0  0  0  0
    1.0300   14.0420   -2.1120 C   0  0  1  0  0  0  0  0  0  0  0  0
   -0.4830   13.7350   -1.8810 C   0  0  0  0  0  0  0  0  0  0  0  0
    1.8500   12.7360   -2.3720 C   0  0  2  0  0  0  0  0  0  0  0  0
    1.3740   11.8920   -3.5660 C   0  0  0  0  0  0  0  0  0  0  0  0
    0.3530   10.8520   -3.2450 C   0  0  0  0  0  0  0  0  0  0  0  0
    0.0470   10.4110   -2.0100 C   0  0  0  0  0  0  0  0  0  0  0  0
    0.8280   10.9000   -0.7840 C   0  0  1  0  0  0  0  0  0  0  0  0
    1.2020    9.6870    0.1090 C   0  0  0  0  0  0  0  0  0  0  0  0
   -0.0110    8.8430    0.4880 C   0  0  0  0  0  0  0  0  0  0  0  0
   -0.7270    8.3280   -0.7570 C   0  0  2  0  0  0  0  0  0  0  0  0
    0.1290    7.4000   -1.4310 O   0  0  0  0  0  0  0  0  0  0  0  0
   -1.1440    9.4600   -1.7370 C   0  0  0  0  0  0  0  0  0  0  0  0
   -2.2950   10.2880   -1.1160 C   0  0  0  0  0  0  0  0  0  0  0  0
   -1.7280    8.7950   -3.0140 C   0  0  0  0  0  0  0  0  0  0  0  0
    2.0710   11.8430   -1.0840 C   0  0  1  0  0  0  0  0  0  0  0  0
    3.3410   10.9800   -1.3530 C   0  0  0  0  0  0  0  0  0  0  0  0
    2.3830   12.7050    0.1960 C   0  0  0  0  0  0  0  0  0  0  0  0
    1.6290   14.0410    0.3350 C   0  0  0  0  0  0  0  0  0  0  0  0
    1.7170   14.8580   -0.9580 C   0  0  2  0  0  0  0  0  0  0  0  0
    3.2260   15.2010   -1.2050 C   0  0  0  0  0  0  0  0  0  0  0  0
    0.2376   18.5679    1.0529 H   0  0  0  0  0  0  0  0  0  0  0  0
    0.6927   19.3755   -0.4857 H   0  0  0  0  0  0  0  0  0  0  0  0
   -0.5493   18.0778   -0.4857 H   0  0  0  0  0  0  0  0  0  0  0  0
    1.8455   17.0577    0.7355 H   0  0  0  0  0  0  0  0  0  0  0  0
    2.9573   17.2460   -1.8233 H   0  0  0  0  0  0  0  0  0  0  0  0
    2.3812   18.9323   -1.4141 H   0  0  0  0  0  0  0  0  0  0  0  0
    4.4837   17.2413   -0.0646 H   0  0  0  0  0  0  0  0  0  0  0  0
    4.5350   18.9665   -0.6204 H   0  0  0  0  0  0  0  0  0  0  0  0
    2.7236   17.9244    1.2743 H   0  0  0  0  0  0  0  0  0  0  0  0
    6.5948   19.1236    2.9053 H   0  0  0  0  0  0  0  0  0  0  0  0
    6.2924   18.2230    1.3808 H   0  0  0  0  0  0  0  0  0  0  0  0
    6.2778   20.0192    1.3808 H   0  0  0  0  0  0  0  0  0  0  0  0
    5.0769   19.1495    4.3288 H   0  0  0  0  0  0  0  0  0  0  0  0
    3.5061   19.9211    3.9241 H   0  0  0  0  0  0  0  0  0  0  0  0
    3.6538   18.1309    3.9241 H   0  0  0  0  0  0  0  0  0  0  0  0
   -0.0391   16.0586   -0.4574 H   0  0  0  0  0  0  0  0  0  0  0  0
   -0.2609   16.7789   -2.7537 H   0  0  0  0  0  0  0  0  0  0  0  0
    1.4551   17.2270   -2.8595 H   0  0  0  0  0  0  0  0  0  0  0  0
    0.2784   14.8826   -3.9914 H   0  0  0  0  0  0  0  0  0  0  0  0
    2.0120   15.1133   -3.7797 H   0  0  0  0  0  0  0  0  0  0  0  0
   -0.6880   13.6934   -0.8011 H   0  0  0  0  0  0  0  0  0  0  0  0
   -1.0922   14.5278   -2.3396 H   0  0  0  0  0  0  0  0  0  0  0  0
   -0.7350   12.7674   -2.3396 H   0  0  0  0  0  0  0  0  0  0  0  0
    2.8354   13.1305   -2.6609 H   0  0  0  0  0  0  0  0  0  0  0  0
    0.9415   12.5737   -4.3131 H   0  0  0  0  0  0  0  0  0  0  0  0
    2.2596   11.3480   -3.9263 H   0  0  0  0  0  0  0  0  0  0  0  0
   -0.1960   10.4081   -4.0885 H   0  0  0  0  0  0  0  0  0  0  0  0
    0.1480   11.5704   -0.2380 H   0  0  0  0  0  0  0  0  0  0  0  0
    1.9155    9.0532   -0.4380 H   0  0  0  0  0  0  0  0  0  0  0  0
    1.6392   10.0795    1.0390 H   0  0  0  0  0  0  0  0  0  0  0  0
    0.3212    7.9862    1.0926 H   0  0  0  0  0  0  0  0  0  0  0  0
   -0.7099    9.4700    1.0611 H   0  0  0  0  0  0  0  0  0  0  0  0
   -1.6565    7.8424   -0.4249 H   0  0  0  0  0  0  0  0  0  0  0  0
    0.9020    7.8940   -1.7530 H   0  0  0  0  0  0  0  0  0  0  0  0
   -2.2299   10.2412   -0.0189 H   0  0  0  0  0  0  0  0  0  0  0  0
   -2.2120   11.3347   -1.4439 H   0  0  0  0  0  0  0  0  0  0  0  0
   -3.2610    9.8765   -1.4439 H   0  0  0  0  0  0  0  0  0  0  0  0
   -2.4283    7.9976   -2.7246 H   0  0  0  0  0  0  0  0  0  0  0  0
   -2.2594    9.5510   -3.6107 H   0  0  0  0  0  0  0  0  0  0  0  0
   -0.9097    8.3656   -3.6107 H   0  0  0  0  0  0  0  0  0  0  0  0
    3.7877   10.6764   -0.3947 H   0  0  0  0  0  0  0  0  0  0  0  0
    3.0609   10.0844   -1.9270 H   0  0  0  0  0  0  0  0  0  0  0  0
    4.0705   11.5702   -1.9270 H   0  0  0  0  0  0  0  0  0  0  0  0
    2.1399   12.0926    1.0768 H   0  0  0  0  0  0  0  0  0  0  0  0
    3.4438   12.9816    0.1049 H   0  0  0  0  0  0  0  0  0  0  0  0
    0.5719   13.8358    0.5597 H   0  0  0  0  0  0  0  0  0  0  0  0
    2.0902   14.6208    1.1481 H   0  0  0  0  0  0  0  0  0  0  0  0
    3.7385   15.3175   -0.2387 H   0  0  0  0  0  0  0  0  0  0  0  0
    3.6985   14.3873   -1.7749 H   0  0  0  0  0  0  0  0  0  0  0  0
    3.3003   16.1389   -1.7749 H   0  0  0  0  0  0  0  0  0  0  0  0
  1  2  1  0
  2  3  1  0
  3  4  1  0
  4  5  1  0
  5  6  1  0
  6  7  1  0
  7  8  1  0
  7  9  1  0
  2 10  1  0
 10 11  1  0
 11 12  1  0
 12 13  1  0
 13 14  1  1
 13 15  1  0
 15 16  1  0
 16 17  1  0
 17 18  2  0
 18 19  1  0
 19 20  1  0
 20 21  1  0
 21 22  1  0
 22 23  1  0
 22 24  1  0
 24 25  1  0
 24 26  1  0
 19 27  1  0
 27 28  1  6
 27 29  1  0
 29 30  1  0
 30 31  1  0
 31 32  1  6
  7  5  1  0
 31 10  1  0
 31 13  1  0
 27 15  1  0
 24 18  1  0
  1 33  1  0
  1 34  1  0
  1 35  1  0
  2 36  1  1
  3 37  1  0
  3 38  1  0
  4 39  1  0
  4 40  1  0
  5 41  1  1
  8 42  1  0
  8 43  1  0
  8 44  1  0
  9 45  1  0
  9 46  1  0
  9 47  1  0
 10 48  1  1
 11 49  1  0
 11 50  1  0
 12 51  1  0
 12 52  1  0
 14 53  1  0
 14 54  1  0
 14 55  1  0
 15 56  1  6
 16 57  1  0
 16 58  1  0
 17 59  1  0
 19 60  1  1
 20 61  1  0
 20 62  1  0
 21 63  1  0
 21 64  1  0
 22 65  1  1
 23 66  1  0
 25 67  1  0
 25 68  1  0
 25 69  1  0
 26 70  1  0
 26 71  1  0
 26 72  1  0
 28 73  1  0
 28 74  1  0
 28 75  1  0
 29 76  1  0
 29 77  1  0
 30 78  1  0
 30 79  1  0
 32 80  1  0
 32 81  1  0
 32 82  1  0
M  END
>  <meeko>  (3) 
{"is_sidechain": [false], "intermolecular_energy": 2.731, "internal_energy": -0.839}

$$$$
EPH_relaxed_0001_pdb2pqr_Repair_16_r2_0001_out
     RDKit          3D

 82 86  0  0  0  0  0  0  0  0999 V2000
    2.3360   17.9660   -2.6820 C   0  0  0  0  0  0  0  0  0  0  0  0
    1.0490   17.5720   -1.9510 C   0  0  2  0  0  0  0  0  0  0  0  0
    1.2160   17.6110   -0.4190 C   0  0  0  0  0  0  0  0  0  0  0  0
    0.9330   18.9840    0.1960 C   0  0  0  0  0  0  0  0  0  0  0  0
   -0.5000   19.1190    0.6130 C   0  0  2  0  0  0  0  0  0  0  0  0
   -1.4040   18.2270   -0.0520 O   0  0  0  0  0  0  0  0  0  0  0  0
   -1.5940   19.6280   -0.3070 C   0  0  0  0  0  0  0  0  0  0  0  0
   -1.3010   20.0360   -1.7170 C   0  0  0  0  0  0  0  0  0  0  0  0
   -2.8400   20.1890    0.3050 C   0  0  0  0  0  0  0  0  0  0  0  0
    0.6060   16.1810   -2.3910 C   0  0  1  0  0  0  0  0  0  0  0  0
    0.7020   15.9820   -3.9280 C   0  0  0  0  0  0  0  0  0  0  0  0
    1.1090   14.5050   -4.1630 C   0  0  0  0  0  0  0  0  0  0  0  0
    0.9100   13.8220   -2.7890 C   0  0  1  0  0  0  0  0  0  0  0  0
   -0.6190   13.5200   -2.7080 C   0  0  0  0  0  0  0  0  0  0  0  0
    1.7660   12.5410   -2.5240 C   0  0  2  0  0  0  0  0  0  0  0  0
    1.4880   11.3630   -3.4730 C   0  0  0  0  0  0  0  0  0  0  0  0
    0.4330   10.4110   -3.0170 C   0  0  0  0  0  0  0  0  0  0  0  0
   -0.0640   10.3340   -1.7680 C   0  0  0  0  0  0  0  0  0  0  0  0
    0.5100   11.1970   -0.6380 C   0  0  1  0  0  0  0  0  0  0  0  0
    0.7410   10.3180    0.6190 C   0  0  0  0  0  0  0  0  0  0  0  0
   -0.5140    9.5610    1.0430 C   0  0  0  0  0  0  0  0  0  0  0  0
   -1.0210    8.6690   -0.0880 C   0  0  2  0  0  0  0  0  0  0  0  0
   -0.0650    7.6300   -0.3190 O   0  0  0  0  0  0  0  0  0  0  0  0
   -1.2800    9.4440   -1.4100 C   0  0  0  0  0  0  0  0  0  0  0  0
   -2.5190   10.3590   -1.2430 C   0  0  0  0  0  0  0  0  0  0  0  0
   -1.6510    8.4090   -2.5060 C   0  0  0  0  0  0  0  0  0  0  0  0
    1.7820   12.0740   -1.0120 C   0  0  1  0  0  0  0  0  0  0  0  0
    3.0810   11.2340   -0.8190 C   0  0  0  0  0  0  0  0  0  0  0  0
    1.8830   13.2860   -0.0120 C   0  0  0  0  0  0  0  0  0  0  0  0
    1.1110   14.5640   -0.3900 C   0  0  0  0  0  0  0  0  0  0  0  0
    1.4010   14.9730   -1.8370 C   0  0  2  0  0  0  0  0  0  0  0  0
    2.9290   15.3040   -1.9430 C   0  0  0  0  0  0  0  0  0  0  0  0
    3.1174   18.2052   -1.9456 H   0  0  0  0  0  0  0  0  0  0  0  0
    2.6704   17.1291   -3.3127 H   0  0  0  0  0  0  0  0  0  0  0  0
    2.1445   18.8467   -3.3127 H   0  0  0  0  0  0  0  0  0  0  0  0
    0.2781   18.3098   -2.2181 H   0  0  0  0  0  0  0  0  0  0  0  0
    0.5220   16.8820    0.0247 H   0  0  0  0  0  0  0  0  0  0  0  0
    2.2683   17.3732   -0.2041 H   0  0  0  0  0  0  0  0  0  0  0  0
    1.5755   19.1187    1.0787 H   0  0  0  0  0  0  0  0  0  0  0  0
    1.1428   19.7506   -0.5645 H   0  0  0  0  0  0  0  0  0  0  0  0
   -0.2011   19.4039    1.6325 H   0  0  0  0  0  0  0  0  0  0  0  0
   -0.6594   20.9295   -1.7144 H   0  0  0  0  0  0  0  0  0  0  0  0
   -0.7846   19.2153   -2.2364 H   0  0  0  0  0  0  0  0  0  0  0  0
   -2.2437   20.2631   -2.2364 H   0  0  0  0  0  0  0  0  0  0  0  0
   -2.7586   20.1523    1.4014 H   0  0  0  0  0  0  0  0  0  0  0  0
   -2.9697   21.2324   -0.0184 H   0  0  0  0  0  0  0  0  0  0  0  0
   -3.7071   19.5944   -0.0184 H   0  0  0  0  0  0  0  0  0  0  0  0
   -0.4164   16.1762   -1.9853 H   0  0  0  0  0  0  0  0  0  0  0  0
   -0.2714   16.1861   -4.3979 H   0  0  0  0  0  0  0  0  0  0  0  0
    1.4380   16.6697   -4.3701 H   0  0  0  0  0  0  0  0  0  0  0  0
    0.4646   14.0410   -4.9243 H   0  0  0  0  0  0  0  0  0  0  0  0
    2.1415   14.4102   -4.5303 H   0  0  0  0  0  0  0  0  0  0  0  0
   -0.9254   13.4595   -1.6533 H   0  0  0  0  0  0  0  0  0  0  0  0
   -1.1787   14.3250   -3.2068 H   0  0  0  0  0  0  0  0  0  0  0  0
   -0.8306   12.5627   -3.2068 H   0  0  0  0  0  0  0  0  0  0  0  0
    2.7836   12.8833   -2.7633 H   0  0  0  0  0  0  0  0  0  0  0  0
    1.1767   11.7753   -4.4441 H   0  0  0  0  0  0  0  0  0  0  0  0
    2.4215   10.7829   -3.5188 H   0  0  0  0  0  0  0  0  0  0  0  0
    0.0272    9.7133   -3.7644 H   0  0  0  0  0  0  0  0  0  0  0  0
   -0.2509   11.9619   -0.4237 H   0  0  0  0  0  0  0  0  0  0  0  0
    1.5347    9.5890    0.3984 H   0  0  0  0  0  0  0  0  0  0  0  0
    1.0230   10.9861    1.4461 H   0  0  0  0  0  0  0  0  0  0  0  0
   -0.2793    8.9358    1.9171 H   0  0  0  0  0  0  0  0  0  0  0  0
   -1.2976   10.2917    1.2923 H   0  0  0  0  0  0  0  0  0  0  0  0
   -1.9899    8.2546    0.2275 H   0  0  0  0  0  0  0  0  0  0  0  0
    0.7260    7.8350    0.2070 H   0  0  0  0  0  0  0  0  0  0  0  0
   -2.7223   10.5091   -0.1724 H   0  0  0  0  0  0  0  0  0  0  0  0
   -2.3236   11.3312   -1.7190 H   0  0  0  0  0  0  0  0  0  0  0  0
   -3.3908    9.8863   -1.7190 H   0  0  0  0  0  0  0  0  0  0  0  0
   -1.9857    7.4753   -2.0304 H   0  0  0  0  0  0  0  0  0  0  0  0
   -2.4606    8.8122   -3.1321 H   0  0  0  0  0  0  0  0  0  0  0  0
   -0.7696    8.2061   -3.1321 H   0  0  0  0  0  0  0  0  0  0  0  0
    3.2787   11.1062    0.2555 H   0  0  0  0  0  0  0  0  0  0  0  0
    2.9527   10.2474   -1.2882 H   0  0  0  0  0  0  0  0  0  0  0  0
    3.9281   11.7558   -1.2882 H   0  0  0  0  0  0  0  0  0  0  0  0
    1.5053   12.9452    0.9633 H   0  0  0  0  0  0  0  0  0  0  0  0
    2.9436   13.5776   -0.0191 H   0  0  0  0  0  0  0  0  0  0  0  0
    0.0325   14.3791   -0.2778 H   0  0  0  0  0  0  0  0  0  0  0  0
    1.4339   15.3781    0.2756 H   0  0  0  0  0  0  0  0  0  0  0  0
    3.3551   15.3963   -0.9331 H   0  0  0  0  0  0  0  0  0  0  0  0
    3.4424   14.4962   -2.4852 H   0  0  0  0  0  0  0  0  0  0  0  0
    3.0621   16.2518   -2.4852 H   0  0  0  0  0  0  0  0  0  0  0  0
  1  2  1  0
  2  3  1  0
  3  4  1  0
  4  5  1  0
  5  6  1  0
  6  7  1  0
  7  8  1  0
  7  9  1  0
  2 10  1  0
 10 11  1  0
 11 12  1  0
 12 13  1  0
 13 14  1  1
 13 15  1  0
 15 16  1  0
 16 17  1  0
 17 18  2  0
 18 19  1  0
 19 20  1  0
 20 21  1  0
 21 22  1  0
 22 23  1  0
 22 24  1  0
 24 25  1  0
 24 26  1  0
 19 27  1  0
 27 28  1  6
 27 29  1  0
 29 30  1  0
 30 31  1  0
 31 32  1  1
  7  5  1  0
 31 10  1  0
 31 13  1  0
 27 15  1  0
 24 18  1  0
  1 33  1  0
  1 34  1  0
  1 35  1  0
  2 36  1  1
  3 37  1  0
  3 38  1  0
  4 39  1  0
  4 40  1  0
  5 41  1  1
  8 42  1  0
  8 43  1  0
  8 44  1  0
  9 45  1  0
  9 46  1  0
  9 47  1  0
 10 48  1  1
 11 49  1  0
 11 50  1  0
 12 51  1  0
 12 52  1  0
 14 53  1  0
 14 54  1  0
 14 55  1  0
 15 56  1  6
 16 57  1  0
 16 58  1  0
 17 59  1  0
 19 60  1  1
 20 61  1  0
 20 62  1  0
 21 63  1  0
 21 64  1  0
 22 65  1  1
 23 66  1  0
 25 67  1  0
 25 68  1  0
 25 69  1  0
 26 70  1  0
 26 71  1  0
 26 72  1  0
 28 73  1  0
 28 74  1  0
 28 75  1  0
 29 76  1  0
 29 77  1  0
 30 78  1  0
 30 79  1  0
 32 80  1  0
 32 81  1  0
 32 82  1  0
M  END
>  <meeko>  (4) 
{"is_sidechain": [false], "intermolecular_energy": 2.731, "internal_energy": -0.839}

$$$$
EPH_relaxed_0001_pdb2pqr_Repair_16_r2_0001_out
     RDKit          3D

 82 86  0  0  0  0  0  0  0  0999 V2000
    3.9490   17.3950    0.2960 C   0  0  0  0  0  0  0  0  0  0  0  0
    2.8350   17.8170   -0.6660 C   0  0  2  0  0  0  0  0  0  0  0  0
    2.2210   19.1780   -0.2830 C   0  0  0  0  0  0  0  0  0  0  0  0
    1.0950   19.0780    0.7490 C   0  0  0  0  0  0  0  0  0  0  0  0
   -0.0970   19.8940    0.3490 C   0  0  2  0  0  0  0  0  0  0  0  0
   -1.0030   20.1940    1.4190 O   0  0  0  0  0  0  0  0  0  0  0  0
   -1.5180   19.3620    0.3680 C   0  0  0  0  0  0  0  0  0  0  0  0
   -1.8220   17.9600    0.7950 C   0  0  0  0  0  0  0  0  0  0  0  0
   -2.5460   20.0370   -0.4860 C   0  0  0  0  0  0  0  0  0  0  0  0
    1.7480   16.7480   -0.7030 C   0  0  1  0  0  0  0  0  0  0  0  0
    0.4240   17.2650   -1.3250 C   0  0  0  0  0  0  0  0  0  0  0  0
   -0.2010   16.0750   -2.0990 C   0  0  0  0  0  0  0  0  0  0  0  0
    0.6010   14.8390   -1.6280 C   0  0  1  0  0  0  0  0  0  0  0  0
   -0.0360   14.4460   -0.2580 C   0  0  0  0  0  0  0  0  0  0  0  0
    0.6440   13.6270   -2.6140 C   0  0  2  0  0  0  0  0  0  0  0  0
   -0.7210   12.9850   -2.9190 C   0  0  0  0  0  0  0  0  0  0  0  0
   -1.1200   11.8710   -2.0090 C   0  0  0  0  0  0  0  0  0  0  0  0
   -0.2970   11.2140   -1.1700 C   0  0  0  0  0  0  0  0  0  0  0  0
    1.2080   11.5100   -1.1500 C   0  0  1  0  0  0  0  0  0  0  0  0
    1.9990   10.1760   -1.1560 C   0  0  0  0  0  0  0  0  0  0  0  0
    1.5730    9.2380   -0.0300 C   0  0  0  0  0  0  0  0  0  0  0  0
    0.0830    8.9210   -0.1180 C   0  0  2  0  0  0  0  0  0  0  0  0
   -0.1550    8.1520   -1.3020 O   0  0  0  0  0  0  0  0  0  0  0  0
   -0.8150   10.1900   -0.1300 C   0  0  0  0  0  0  0  0  0  0  0  0
   -0.7870   10.8600    1.2660 C   0  0  0  0  0  0  0  0  0  0  0  0
   -2.2810    9.7360   -0.3650 C   0  0  0  0  0  0  0  0  0  0  0  0
    1.7280   12.5330   -2.2490 C   0  0  1  0  0  0  0  0  0  0  0  0
    2.0550   11.7730   -3.5710 C   0  0  0  0  0  0  0  0  0  0  0  0
    3.0810   13.1720   -1.7580 C   0  0  0  0  0  0  0  0  0  0  0  0
    2.9750   14.4370   -0.8860 C   0  0  0  0  0  0  0  0  0  0  0  0
    2.0380   15.4670   -1.5250 C   0  0  2  0  0  0  0  0  0  0  0  0
    2.6650   15.8980   -2.8950 C   0  0  0  0  0  0  0  0  0  0  0  0
    3.6064   17.5248    1.3332 H   0  0  0  0  0  0  0  0  0  0  0  0
    4.2023   16.3386    0.1229 H   0  0  0  0  0  0  0  0  0  0  0  0
    4.8386   18.0184    0.1229 H   0  0  0  0  0  0  0  0  0  0  0  0
    3.2841   17.9266   -1.6641 H   0  0  0  0  0  0  0  0  0  0  0  0
    3.0171   19.8133    0.1325 H   0  0  0  0  0  0  0  0  0  0  0  0
    1.7808   19.6004   -1.1983 H   0  0  0  0  0  0  0  0  0  0  0  0
    0.7908   18.0252    0.8439 H   0  0  0  0  0  0  0  0  0  0  0  0
    1.4716   19.4671    1.7065 H   0  0  0  0  0  0  0  0  0  0  0  0
    0.4871   20.4121   -0.4259 H   0  0  0  0  0  0  0  0  0  0  0  0
   -1.8338   17.9057    1.8936 H   0  0  0  0  0  0  0  0  0  0  0  0
   -2.8056   17.6623    0.4026 H   0  0  0  0  0  0  0  0  0  0  0  0
   -1.0501   17.2817    0.4026 H   0  0  0  0  0  0  0  0  0  0  0  0
   -3.2922   20.5270    0.1567 H   0  0  0  0  0  0  0  0  0  0  0  0
   -2.0576   20.7907   -1.1211 H   0  0  0  0  0  0  0  0  0  0  0  0
   -3.0435   19.2892   -1.1211 H   0  0  0  0  0  0  0  0  0  0  0  0
    1.6930   16.5031    0.3680 H   0  0  0  0  0  0  0  0  0  0  0  0
   -0.2602   17.6029   -0.5327 H   0  0  0  0  0  0  0  0  0  0  0  0
    0.6086   18.1183   -1.9942 H   0  0  0  0  0  0  0  0  0  0  0  0
   -1.2664   15.9653   -1.8482 H   0  0  0  0  0  0  0  0  0  0  0  0
   -0.1512   16.2141   -3.1890 H   0  0  0  0  0  0  0  0  0  0  0  0
    0.5890   14.8316    0.5610 H   0  0  0  0  0  0  0  0  0  0  0  0
   -1.0445   14.8791   -0.1848 H   0  0  0  0  0  0  0  0  0  0  0  0
   -0.1013   13.3504   -0.1848 H   0  0  0  0  0  0  0  0  0  0  0  0
    0.9691   14.0984   -3.5532 H   0  0  0  0  0  0  0  0  0  0  0  0
   -1.4884   13.7702   -2.8516 H   0  0  0  0  0  0  0  0  0  0  0  0
   -0.6310   12.5412   -3.9215 H   0  0  0  0  0  0  0  0  0  0  0  0
   -2.1752   11.5607   -2.0252 H   0  0  0  0  0  0  0  0  0  0  0  0
    1.3984   12.0519   -0.2119 H   0  0  0  0  0  0  0  0  0  0  0  0
    1.8309    9.6707   -2.1185 H   0  0  0  0  0  0  0  0  0  0  0  0
    3.0616   10.4172   -1.0056 H   0  0  0  0  0  0  0  0  0  0  0  0
    2.1453    8.3016   -0.1057 H   0  0  0  0  0  0  0  0  0  0  0  0
    1.7702    9.7328    0.9324 H   0  0  0  0  0  0  0  0  0  0  0  0
   -0.1875    8.3548    0.7855 H   0  0  0  0  0  0  0  0  0  0  0  0
   -0.2860    7.2280   -1.0310 H   0  0  0  0  0  0  0  0  0  0  0  0
   -0.8194   10.0846    2.0456 H   0  0  0  0  0  0  0  0  0  0  0  0
    0.1365   11.4481    1.3720 H   0  0  0  0  0  0  0  0  0  0  0  0
   -1.6582   11.5231    1.3720 H   0  0  0  0  0  0  0  0  0  0  0  0
   -2.7772    9.5823    0.6046 H   0  0  0  0  0  0  0  0  0  0  0  0
   -2.8179   10.5099   -0.9331 H   0  0  0  0  0  0  0  0  0  0  0  0
   -2.2866    8.7941   -0.9331 H   0  0  0  0  0  0  0  0  0  0  0  0
    2.4793   10.7868   -3.3316 H   0  0  0  0  0  0  0  0  0  0  0  0
    1.1331   11.6431   -4.1569 H   0  0  0  0  0  0  0  0  0  0  0  0
    2.7832   12.3531   -4.1569 H   0  0  0  0  0  0  0  0  0  0  0  0
    3.6168   12.4091   -1.1740 H   0  0  0  0  0  0  0  0  0  0  0  0
    3.5956   13.4963   -2.6745 H   0  0  0  0  0  0  0  0  0  0  0  0
    2.5835   14.1598    0.1039 H   0  0  0  0  0  0  0  0  0  0  0  0
    3.9759   14.8837   -0.7931 H   0  0  0  0  0  0  0  0  0  0  0  0
    3.5589   16.5124   -2.7120 H   0  0  0  0  0  0  0  0  0  0  0  0
    2.9469   15.0019   -3.4673 H   0  0  0  0  0  0  0  0  0  0  0  0
    1.9294   16.4822   -3.4673 H   0  0  0  0  0  0  0  0  0  0  0  0
  1  2  1  0
  2  3  1  0
  3  4  1  0
  4  5  1  0
  5  6  1  0
  6  7  1  0
  7  8  1  0
  7  9  1  0
  2 10  1  0
 10 11  1  0
 11 12  1  0
 12 13  1  0
 13 14  1  1
 13 15  1  0
 15 16  1  0
 16 17  1  0
 17 18  2  0
 18 19  1  0
 19 20  1  0
 20 21  1  0
 21 22  1  0
 22 23  1  0
 22 24  1  0
 24 25  1  0
 24 26  1  0
 19 27  1  0
 27 28  1  6
 27 29  1  0
 29 30  1  0
 30 31  1  0
 31 32  1  6
  7  5  1  0
 31 10  1  0
 31 13  1  0
 27 15  1  0
 24 18  1  0
  1 33  1  0
  1 34  1  0
  1 35  1  0
  2 36  1  6
  3 37  1  0
  3 38  1  0
  4 39  1  0
  4 40  1  0
  5 41  1  6
  8 42  1  0
  8 43  1  0
  8 44  1  0
  9 45  1  0
  9 46  1  0
  9 47  1  0
 10 48  1  1
 11 49  1  0
 11 50  1  0
 12 51  1  0
 12 52  1  0
 14 53  1  0
 14 54  1  0
 14 55  1  0
 15 56  1  6
 16 57  1  0
 16 58  1  0
 17 59  1  0
 19 60  1  1
 20 61  1  0
 20 62  1  0
 21 63  1  0
 21 64  1  0
 22 65  1  1
 23 66  1  0
 25 67  1  0
 25 68  1  0
 25 69  1  0
 26 70  1  0
 26 71  1  0
 26 72  1  0
 28 73  1  0
 28 74  1  0
 28 75  1  0
 29 76  1  0
 29 77  1  0
 30 78  1  0
 30 79  1  0
 32 80  1  0
 32 81  1  0
 32 82  1  0
M  END
>  <meeko>  (5) 
{"is_sidechain": [false], "intermolecular_energy": 2.731, "internal_energy": -0.839}

$$$$
EPH_relaxed_0001_pdb2pqr_Repair_16_r2_0001_out
     RDKit          3D

 82 86  0  0  0  0  0  0  0  0999 V2000
   -5.1540    5.8700   -1.8830 C   0  0  0  0  0  0  0  0  0  0  0  0
   -5.4790    7.3670   -1.8670 C   0  0  2  0  0  0  0  0  0  0  0  0
   -5.2570    7.9940   -0.4760 C   0  0  0  0  0  0  0  0  0  0  0  0
   -4.2150    9.1160   -0.4660 C   0  0  0  0  0  0  0  0  0  0  0  0
   -2.8380    8.5960   -0.7460 C   0  0  2  0  0  0  0  0  0  0  0  0
   -1.8520    8.9540    0.2310 O   0  0  0  0  0  0  0  0  0  0  0  0
   -1.6600    9.4890   -1.0890 C   0  0  0  0  0  0  0  0  0  0  0  0
   -1.8060   10.9760   -1.1700 C   0  0  0  0  0  0  0  0  0  0  0  0
   -0.4970    8.8920   -1.8180 C   0  0  0  0  0  0  0  0  0  0  0  0
   -6.9180    7.5910   -2.3150 C   0  0  1  0  0  0  0  0  0  0  0  0
   -7.2420    6.8880   -3.6600 C   0  0  0  0  0  0  0  0  0  0  0  0
   -8.7160    6.4160   -3.5750 C   0  0  0  0  0  0  0  0  0  0  0  0
   -9.2880    7.1450   -2.3370 C   0  0  1  0  0  0  0  0  0  0  0  0
   -9.6440    8.5780   -2.8440 C   0  0  0  0  0  0  0  0  0  0  0  0
  -10.5070    6.4630   -1.6350 C   0  0  2  0  0  0  0  0  0  0  0  0
  -11.7710    6.3330   -2.5020 C   0  0  0  0  0  0  0  0  0  0  0  0
  -12.7230    7.4790   -2.4170 C   0  0  0  0  0  0  0  0  0  0  0  0
  -12.7150    8.4340   -1.4680 C   0  0  0  0  0  0  0  0  0  0  0  0
  -11.7370    8.3640   -0.2890 C   0  0  1  0  0  0  0  0  0  0  0  0
  -12.4980    8.6520    1.0320 C   0  0  0  0  0  0  0  0  0  0  0  0
  -13.2670    9.9690    0.9900 C   0  0  0  0  0  0  0  0  0  0  0  0
  -14.2700    9.9770   -0.1610 C   0  0  2  0  0  0  0  0  0  0  0  0
  -15.2860    9.0050    0.1060 O   0  0  0  0  0  0  0  0  0  0  0  0
  -13.6200    9.6890   -1.5430 C   0  0  0  0  0  0  0  0  0  0  0  0
  -12.7450   10.8940   -1.9680 C   0  0  0  0  0  0  0  0  0  0  0  0
  -14.7580    9.5860   -2.5940 C   0  0  0  0  0  0  0  0  0  0  0  0
  -10.8450    7.0520   -0.2050 C   0  0  1  0  0  0  0  0  0  0  0  0
  -11.6110    5.9350    0.5670 C   0  0  0  0  0  0  0  0  0  0  0  0
   -9.5500    7.3630    0.6350 C   0  0  0  0  0  0  0  0  0  0  0  0
   -8.3400    7.9240   -0.1370 C   0  0  0  0  0  0  0  0  0  0  0  0
   -8.0430    7.0800   -1.3800 C   0  0  2  0  0  0  0  0  0  0  0  0
   -7.6600    5.6390   -0.8990 C   0  0  0  0  0  0  0  0  0  0  0  0
   -5.0739    5.5011   -0.8498 H   0  0  0  0  0  0  0  0  0  0  0  0
   -5.9551    5.3264   -2.4053 H   0  0  0  0  0  0  0  0  0  0  0  0
   -4.1997    5.7075   -2.4053 H   0  0  0  0  0  0  0  0  0  0  0  0
   -4.7902    7.8629   -2.5668 H   0  0  0  0  0  0  0  0  0  0  0  0
   -6.2143    8.4059   -0.1239 H   0  0  0  0  0  0  0  0  0  0  0  0
   -4.8770    7.1964    0.1793 H   0  0  0  0  0  0  0  0  0  0  0  0
   -4.4801    9.8556   -1.2359 H   0  0  0  0  0  0  0  0  0  0  0  0
   -4.2122    9.5725    0.5348 H   0  0  0  0  0  0  0  0  0  0  0  0
   -3.2503    7.6994   -1.2319 H   0  0  0  0  0  0  0  0  0  0  0  0
   -1.8473   11.3962   -0.1543 H   0  0  0  0  0  0  0  0  0  0  0  0
   -0.9452   11.4002   -1.7076 H   0  0  0  0  0  0  0  0  0  0  0  0
   -2.7329   11.2247   -1.7076 H   0  0  0  0  0  0  0  0  0  0  0  0
    0.2372    8.5151   -1.0908 H   0  0  0  0  0  0  0  0  0  0  0  0
   -0.8469    8.0621   -2.4495 H   0  0  0  0  0  0  0  0  0  0  0  0
   -0.0266    9.6601   -2.4495 H   0  0  0  0  0  0  0  0  0  0  0  0
   -6.9294    8.6903   -2.3513 H   0  0  0  0  0  0  0  0  0  0  0  0
   -7.1177    7.5929   -4.4953 H   0  0  0  0  0  0  0  0  0  0  0  0
   -6.5651    6.0387   -3.8345 H   0  0  0  0  0  0  0  0  0  0  0  0
   -9.2680    6.7008   -4.4829 H   0  0  0  0  0  0  0  0  0  0  0  0
   -8.7997    5.3224   -3.4909 H   0  0  0  0  0  0  0  0  0  0  0  0
   -9.8088    9.2414   -1.9822 H   0  0  0  0  0  0  0  0  0  0  0  0
   -8.8154    8.9677   -3.4535 H   0  0  0  0  0  0  0  0  0  0  0  0
  -10.5587    8.5346   -3.4535 H   0  0  0  0  0  0  0  0  0  0  0  0
  -10.1446    5.4361   -1.4799 H   0  0  0  0  0  0  0  0  0  0  0  0
  -11.4548    6.2308   -3.5506 H   0  0  0  0  0  0  0  0  0  0  0  0
  -12.3144    5.4569   -2.1183 H   0  0  0  0  0  0  0  0  0  0  0  0
  -13.4968    7.5495   -3.1956 H   0  0  0  0  0  0  0  0  0  0  0  0
  -10.9881    9.1495   -0.4680 H   0  0  0  0  0  0  0  0  0  0  0  0
  -13.2102    7.8337    1.2141 H   0  0  0  0  0  0  0  0  0  0  0  0
  -11.7521    8.7268    1.8370 H   0  0  0  0  0  0  0  0  0  0  0  0
  -13.8069   10.1014    1.9392 H   0  0  0  0  0  0  0  0  0  0  0  0
  -12.5507   10.7899    0.8380 H   0  0  0  0  0  0  0  0  0  0  0  0
  -14.6954   10.9897   -0.2206 H   0  0  0  0  0  0  0  0  0  0  0  0
  -15.2100    8.3080   -0.5690 H   0  0  0  0  0  0  0  0  0  0  0  0
  -12.3706   11.4096   -1.0714 H   0  0  0  0  0  0  0  0  0  0  0  0
  -11.8947   10.5364   -2.5673 H   0  0  0  0  0  0  0  0  0  0  0  0
  -13.3482   11.5919   -2.5673 H   0  0  0  0  0  0  0  0  0  0  0  0
  -15.7260    9.4984   -2.0789 H   0  0  0  0  0  0  0  0  0  0  0  0
  -14.7581   10.4878   -3.2239 H   0  0  0  0  0  0  0  0  0  0  0  0
  -14.5962    8.6988   -3.2239 H   0  0  0  0  0  0  0  0  0  0  0  0
  -11.5007    6.0958    1.6496 H   0  0  0  0  0  0  0  0  0  0  0  0
  -12.6771    5.9685    0.2981 H   0  0  0  0  0  0  0  0  0  0  0  0
  -11.1957    4.9526    0.2981 H   0  0  0  0  0  0  0  0  0  0  0  0
   -9.8223    8.0980    1.4068 H   0  0  0  0  0  0  0  0  0  0  0  0
   -9.2176    6.3890    1.0234 H   0  0  0  0  0  0  0  0  0  0  0  0
   -8.5584    8.9566   -0.4470 H   0  0  0  0  0  0  0  0  0  0  0  0
   -7.4603    7.8977    0.5229 H   0  0  0  0  0  0  0  0  0  0  0  0
   -7.6522    5.6095    0.2006 H   0  0  0  0  0  0  0  0  0  0  0  0
   -8.3975    4.9172   -1.2799 H   0  0  0  0  0  0  0  0  0  0  0  0
   -6.6615    5.3786   -1.2799 H   0  0  0  0  0  0  0  0  0  0  0  0
  1  2  1  0
  2  3  1  0
  3  4  1  0
  4  5  1  0
  5  6  1  0
  6  7  1  0
  7  8  1  0
  7  9  1  0
  2 10  1  0
 10 11  1  0
 11 12  1  0
 12 13  1  0
 13 14  1  6
 13 15  1  0
 15 16  1  0
 16 17  1  0
 17 18  2  0
 18 19  1  0
 19 20  1  0
 20 21  1  0
 21 22  1  0
 22 23  1  0
 22 24  1  0
 24 25  1  0
 24 26  1  0
 19 27  1  0
 27 28  1  1
 27 29  1  0
 29 30  1  0
 30 31  1  0
 31 32  1  1
  7  5  1  0
 31 10  1  0
 31 13  1  0
 27 15  1  0
 24 18  1  0
  1 33  1  0
  1 34  1  0
  1 35  1  0
  2 36  1  6
  3 37  1  0
  3 38  1  0
  4 39  1  0
  4 40  1  0
  5 41  1  6
  8 42  1  0
  8 43  1  0
  8 44  1  0
  9 45  1  0
  9 46  1  0
  9 47  1  0
 10 48  1  6
 11 49  1  0
 11 50  1  0
 12 51  1  0
 12 52  1  0
 14 53  1  0
 14 54  1  0
 14 55  1  0
 15 56  1  1
 16 57  1  0
 16 58  1  0
 17 59  1  0
 19 60  1  6
 20 61  1  0
 20 62  1  0
 21 63  1  0
 21 64  1  0
 22 65  1  6
 23 66  1  0
 25 67  1  0
 25 68  1  0
 25 69  1  0
 26 70  1  0
 26 71  1  0
 26 72  1  0
 28 73  1  0
 28 74  1  0
 28 75  1  0
 29 76  1  0
 29 77  1  0
 30 78  1  0
 30 79  1  0
 32 80  1  0
 32 81  1  0
 32 82  1  0
M  END
>  <meeko>  (6) 
{"is_sidechain": [false], "intermolecular_energy": 2.731, "internal_energy": -0.839}

$$$$
EPH_relaxed_0001_pdb2pqr_Repair_16_r2_0001_out
     RDKit          3D

 82 86  0  0  0  0  0  0  0  0999 V2000
    0.4390    8.7950   -2.3560 C   0  0  0  0  0  0  0  0  0  0  0  0
    1.1740    9.9370   -3.0620 C   0  0  2  0  0  0  0  0  0  0  0  0
    2.6770    9.9610   -2.7180 C   0  0  0  0  0  0  0  0  0  0  0  0
    3.5480   10.5940   -3.8060 C   0  0  0  0  0  0  0  0  0  0  0  0
    4.9480   10.8340   -3.3260 C   0  0  2  0  0  0  0  0  0  0  0  0
    5.5470   12.0440   -3.8070 O   0  0  0  0  0  0  0  0  0  0  0  0
    6.1600   10.8180   -4.2390 C   0  0  0  0  0  0  0  0  0  0  0  0
    6.0280   10.5560   -5.7060 C   0  0  0  0  0  0  0  0  0  0  0  0
    7.5070   10.5720   -3.6350 C   0  0  0  0  0  0  0  0  0  0  0  0
    0.5350   11.2720   -2.6970 C   0  0  1  0  0  0  0  0  0  0  0  0
   -0.8400   11.1040   -1.9970 C   0  0  0  0  0  0  0  0  0  0  0  0
   -0.9540   12.2460   -0.9550 C   0  0  0  0  0  0  0  0  0  0  0  0
    0.1950   13.2180   -1.3140 C   0  0  1  0  0  0  0  0  0  0  0  0
   -0.3590   14.0720   -2.4980 C   0  0  0  0  0  0  0  0  0  0  0  0
    0.7270   14.1180   -0.1520 C   0  0  2  0  0  0  0  0  0  0  0  0
   -0.3030   15.0960    0.4410 C   0  0  0  0  0  0  0  0  0  0  0  0
   -0.3490   16.4410   -0.2040 C   0  0  0  0  0  0  0  0  0  0  0  0
    0.5900   16.9490   -1.0240 C   0  0  0  0  0  0  0  0  0  0  0  0
    1.8910   16.1840   -1.3000 C   0  0  1  0  0  0  0  0  0  0  0  0
    3.0970   17.1530   -1.1750 C   0  0  0  0  0  0  0  0  0  0  0  0
    2.9480   18.3880   -2.0570 C   0  0  0  0  0  0  0  0  0  0  0  0
    1.6730   19.1530   -1.7140 C   0  0  2  0  0  0  0  0  0  0  0  0
    1.8020   19.6960   -0.3960 O   0  0  0  0  0  0  0  0  0  0  0  0
    0.3920   18.2770   -1.7950 C   0  0  0  0  0  0  0  0  0  0  0  0
    0.0860   17.9390   -3.2750 C   0  0  0  0  0  0  0  0  0  0  0  0
   -0.8030   19.1290   -1.2890 C   0  0  0  0  0  0  0  0  0  0  0  0
    2.0970   14.8440   -0.4710 C   0  0  1  0  0  0  0  0  0  0  0  0
    2.7610   15.1650    0.9040 C   0  0  0  0  0  0  0  0  0  0  0  0
    3.1030   13.9110   -1.2430 C   0  0  0  0  0  0  0  0  0  0  0  0
    2.5010   12.9590   -2.2940 C   0  0  0  0  0  0  0  0  0  0  0  0
    1.3110   12.1870   -1.7170 C   0  0  2  0  0  0  0  0  0  0  0  0
    1.8420   11.3010   -0.5390 C   0  0  0  0  0  0  0  0  0  0  0  0
    0.5218    8.9237   -1.2667 H   0  0  0  0  0  0  0  0  0  0  0  0
   -0.6218    8.8064   -2.6470 H   0  0  0  0  0  0  0  0  0  0  0  0
    0.8887    7.8342   -2.6470 H   0  0  0  0  0  0  0  0  0  0  0  0
    1.0857    9.7667   -4.1451 H   0  0  0  0  0  0  0  0  0  0  0  0
    2.8113   10.5340   -1.7887 H   0  0  0  0  0  0  0  0  0  0  0  0
    3.0000    8.9144   -2.6166 H   0  0  0  0  0  0  0  0  0  0  0  0
    3.5796    9.9197   -4.6745 H   0  0  0  0  0  0  0  0  0  0  0  0
    3.1071   11.5648   -4.0764 H   0  0  0  0  0  0  0  0  0  0  0  0
    4.7340   10.3245   -2.3749 H   0  0  0  0  0  0  0  0  0  0  0  0
    5.5381    9.5836   -5.8622 H   0  0  0  0  0  0  0  0  0  0  0  0
    5.4223   11.3500   -6.1672 H   0  0  0  0  0  0  0  0  0  0  0  0
    7.0265   10.5418   -6.1672 H   0  0  0  0  0  0  0  0  0  0  0  0
    7.4253   10.5869   -2.5381 H   0  0  0  0  0  0  0  0  0  0  0  0
    7.8815    9.5906   -3.9615 H   0  0  0  0  0  0  0  0  0  0  0  0
    8.2043   11.3577   -3.9615 H   0  0  0  0  0  0  0  0  0  0  0  0
    0.4947   11.7363   -3.6934 H   0  0  0  0  0  0  0  0  0  0  0  0
   -1.6525   11.1816   -2.7345 H   0  0  0  0  0  0  0  0  0  0  0  0
   -0.9194   10.1191   -1.5137 H   0  0  0  0  0  0  0  0  0  0  0  0
   -1.9285   12.7498   -1.0361 H   0  0  0  0  0  0  0  0  0  0  0  0
   -0.8803   11.8766    0.0785 H   0  0  0  0  0  0  0  0  0  0  0  0
   -0.9171   14.9323   -2.0999 H   0  0  0  0  0  0  0  0  0  0  0  0
    0.4784   14.4315   -3.1141 H   0  0  0  0  0  0  0  0  0  0  0  0
   -1.0286   13.4539   -3.1141 H   0  0  0  0  0  0  0  0  0  0  0  0
    0.9312   13.3836    0.6411 H   0  0  0  0  0  0  0  0  0  0  0  0
   -1.2992   14.6393    0.3464 H   0  0  0  0  0  0  0  0  0  0  0  0
    0.0052   15.2682    1.4828 H   0  0  0  0  0  0  0  0  0  0  0  0
   -1.2251   17.0712    0.0088 H   0  0  0  0  0  0  0  0  0  0  0  0
    1.8135   15.8145   -2.3332 H   0  0  0  0  0  0  0  0  0  0  0  0
    3.1826   17.4762   -0.1271 H   0  0  0  0  0  0  0  0  0  0  0  0
    3.9958   16.6123   -1.5063 H   0  0  0  0  0  0  0  0  0  0  0  0
    3.8154   19.0468   -1.9033 H   0  0  0  0  0  0  0  0  0  0  0  0
    2.8916   18.0647   -3.1069 H   0  0  0  0  0  0  0  0  0  0  0  0
    1.5552   19.9502   -2.4627 H   0  0  0  0  0  0  0  0  0  0  0  0
    1.1830   19.2170    0.1810 H   0  0  0  0  0  0  0  0  0  0  0  0
   -0.6516   17.1242   -3.3201 H   0  0  0  0  0  0  0  0  0  0  0  0
   -0.3197   18.8291   -3.7781 H   0  0  0  0  0  0  0  0  0  0  0  0
    1.0120   17.6236   -3.7781 H   0  0  0  0  0  0  0  0  0  0  0  0
   -0.8100   19.1340   -0.1890 H   0  0  0  0  0  0  0  0  0  0  0  0
   -0.7015   20.1597   -1.6597 H   0  0  0  0  0  0  0  0  0  0  0  0
   -1.7443   18.6971   -1.6597 H   0  0  0  0  0  0  0  0  0  0  0  0
    2.0942   14.8427    1.7173 H   0  0  0  0  0  0  0  0  0  0  0  0
    3.7194   14.6307    0.9820 H   0  0  0  0  0  0  0  0  0  0  0  0
    2.9375   16.2479    0.9820 H   0  0  0  0  0  0  0  0  0  0  0  0
    3.8291   14.5579   -1.7571 H   0  0  0  0  0  0  0  0  0  0  0  0
    3.5346   13.2541   -0.4734 H   0  0  0  0  0  0  0  0  0  0  0  0
    2.1627   13.5468   -3.1600 H   0  0  0  0  0  0  0  0  0  0  0  0
    3.2738   12.2370   -2.5966 H   0  0  0  0  0  0  0  0  0  0  0  0
    1.5654   11.7625    0.4204 H   0  0  0  0  0  0  0  0  0  0  0  0
    1.3963   10.2975   -0.6052 H   0  0  0  0  0  0  0  0  0  0  0  0
    2.9371   11.2209   -0.6052 H   0  0  0  0  0  0  0  0  0  0  0  0
  1  2  1  0
  2  3  1  0
  3  4  1  0
  4  5  1  0
  5  6  1  0
  6  7  1  0
  7  8  1  0
  7  9  1  0
  2 10  1  0
 10 11  1  0
 11 12  1  0
 12 13  1  0
 13 14  1  6
 13 15  1  0
 15 16  1  0
 16 17  1  0
 17 18  2  0
 18 19  1  0
 19 20  1  0
 20 21  1  0
 21 22  1  0
 22 23  1  0
 22 24  1  0
 24 25  1  0
 24 26  1  0
 19 27  1  0
 27 28  1  1
 27 29  1  0
 29 30  1  0
 30 31  1  0
 31 32  1  1
  7  5  1  0
 31 10  1  0
 31 13  1  0
 27 15  1  0
 24 18  1  0
  1 33  1  0
  1 34  1  0
  1 35  1  0
  2 36  1  6
  3 37  1  0
  3 38  1  0
  4 39  1  0
  4 40  1  0
  5 41  1  1
  8 42  1  0
  8 43  1  0
  8 44  1  0
  9 45  1  0
  9 46  1  0
  9 47  1  0
 10 48  1  6
 11 49  1  0
 11 50  1  0
 12 51  1  0
 12 52  1  0
 14 53  1  0
 14 54  1  0
 14 55  1  0
 15 56  1  1
 16 57  1  0
 16 58  1  0
 17 59  1  0
 19 60  1  6
 20 61  1  0
 20 62  1  0
 21 63  1  0
 21 64  1  0
 22 65  1  6
 23 66  1  0
 25 67  1  0
 25 68  1  0
 25 69  1  0
 26 70  1  0
 26 71  1  0
 26 72  1  0
 28 73  1  0
 28 74  1  0
 28 75  1  0
 29 76  1  0
 29 77  1  0
 30 78  1  0
 30 79  1  0
 32 80  1  0
 32 81  1  0
 32 82  1  0
M  END
>  <meeko>  (7) 
{"is_sidechain": [false], "intermolecular_energy": 2.731, "internal_energy": -0.839}

$$$$
EPH_relaxed_0001_pdb2pqr_Repair_16_r2_0001_out
     RDKit          3D

 82 86  0  0  0  0  0  0  0  0999 V2000
    2.4630   19.6520   -0.6660 C   0  0  0  0  0  0  0  0  0  0  0  0
    2.4400   18.7430   -1.8980 C   0  0  2  0  0  0  0  0  0  0  0  0
    1.0810   18.7820   -2.6250 C   0  0  0  0  0  0  0  0  0  0  0  0
    0.1270   19.8530   -2.0880 C   0  0  0  0  0  0  0  0  0  0  0  0
   -1.0930   19.2460   -1.4650 C   0  0  2  0  0  0  0  0  0  0  0  0
   -2.0730   20.1940   -1.0220 O   0  0  0  0  0  0  0  0  0  0  0  0
   -1.4490   19.4020    0.0010 C   0  0  0  0  0  0  0  0  0  0  0  0
   -0.5830   20.1870    0.9350 C   0  0  0  0  0  0  0  0  0  0  0  0
   -2.3640   18.3960    0.6260 C   0  0  0  0  0  0  0  0  0  0  0  0
    2.7740   17.3120   -1.4930 C   0  0  1  0  0  0  0  0  0  0  0  0
    3.5530   17.2360   -0.1540 C   0  0  0  0  0  0  0  0  0  0  0  0
    3.0800   15.9470    0.5670 C   0  0  0  0  0  0  0  0  0  0  0  0
    2.3030   15.1590   -0.5140 C   0  0  1  0  0  0  0  0  0  0  0  0
    3.4040   14.4370   -1.3520 C   0  0  0  0  0  0  0  0  0  0  0  0
    1.2220   14.1560    0.0060 C   0  0  2  0  0  0  0  0  0  0  0  0
    1.7630   13.0030    0.8700 C   0  0  0  0  0  0  0  0  0  0  0  0
    2.1440   11.7690    0.1210 C   0  0  0  0  0  0  0  0  0  0  0  0
    1.7930   11.4850   -1.1470 C   0  0  0  0  0  0  0  0  0  0  0  0
    0.8510   12.4080   -1.9300 C   0  0  1  0  0  0  0  0  0  0  0  0
   -0.2350   11.5590   -2.6400 C   0  0  0  0  0  0  0  0  0  0  0  0
    0.3600   10.4570   -3.5110 C   0  0  0  0  0  0  0  0  0  0  0  0
    1.2430    9.5260   -2.6860 C   0  0  2  0  0  0  0  0  0  0  0  0
    0.4200    8.8110   -1.7590 O   0  0  0  0  0  0  0  0  0  0  0  0
    2.3700   10.2710   -1.9170 C   0  0  0  0  0  0  0  0  0  0  0  0
    3.4290   10.7910   -2.9210 C   0  0  0  0  0  0  0  0  0  0  0  0
    3.0970    9.2380   -1.0150 C   0  0  0  0  0  0  0  0  0  0  0  0
    0.2380   13.6260   -1.1140 C   0  0  1  0  0  0  0  0  0  0  0  0
   -1.0650   13.1750   -0.3850 C   0  0  0  0  0  0  0  0  0  0  0  0
   -0.1870   14.7590   -2.1220 C   0  0  0  0  0  0  0  0  0  0  0  0
    0.8930   15.7890   -2.5040 C   0  0  0  0  0  0  0  0  0  0  0  0
    1.5860   16.3450   -1.2570 C   0  0  2  0  0  0  0  0  0  0  0  0
    0.5080   17.0960   -0.4040 C   0  0  0  0  0  0  0  0  0  0  0  0
    2.4474   19.0355    0.2449 H   0  0  0  0  0  0  0  0  0  0  0  0
    3.3769   20.2640   -0.6789 H   0  0  0  0  0  0  0  0  0  0  0  0
    1.5812   20.3095   -0.6789 H   0  0  0  0  0  0  0  0  0  0  0  0
    3.1991   19.1181   -2.6001 H   0  0  0  0  0  0  0  0  0  0  0  0
    1.2630   18.9819   -3.6913 H   0  0  0  0  0  0  0  0  0  0  0  0
    0.5983   17.8078   -2.4575 H   0  0  0  0  0  0  0  0  0  0  0  0
    0.6536   20.4521   -1.3305 H   0  0  0  0  0  0  0  0  0  0  0  0
   -0.1950   20.4801   -2.9324 H   0  0  0  0  0  0  0  0  0  0  0  0
   -1.0143   18.3621   -2.1150 H   0  0  0  0  0  0  0  0  0  0  0  0
   -0.8504   19.9446    1.9741 H   0  0  0  0  0  0  0  0  0  0  0  0
    0.4723   19.9313    0.7588 H   0  0  0  0  0  0  0  0  0  0  0  0
   -0.7341   21.2622    0.7588 H   0  0  0  0  0  0  0  0  0  0  0  0
   -2.2968   18.4699    1.7215 H   0  0  0  0  0  0  0  0  0  0  0  0
   -3.3983   18.5937    0.3080 H   0  0  0  0  0  0  0  0  0  0  0  0
   -2.0695   17.3850    0.3080 H   0  0  0  0  0  0  0  0  0  0  0  0
    3.3451   16.9978   -2.3791 H   0  0  0  0  0  0  0  0  0  0  0  0
    4.6347   17.1864   -0.3475 H   0  0  0  0  0  0  0  0  0  0  0  0
    3.3635   18.1261    0.4640 H   0  0  0  0  0  0  0  0  0  0  0  0
    3.9412   15.3655    0.9279 H   0  0  0  0  0  0  0  0  0  0  0  0
    2.4613   16.1656    1.4499 H   0  0  0  0  0  0  0  0  0  0  0  0
    4.1283   13.9620   -0.6740 H   0  0  0  0  0  0  0  0  0  0  0  0
    2.9373   13.6690   -1.9863 H   0  0  0  0  0  0  0  0  0  0  0  0
    3.9224   15.1711   -1.9863 H   0  0  0  0  0  0  0  0  0  0  0  0
    0.6255   14.7833    0.6847 H   0  0  0  0  0  0  0  0  0  0  0  0
    2.6545   13.3664    1.4021 H   0  0  0  0  0  0  0  0  0  0  0  0
    0.9394   12.7112    1.5382 H   0  0  0  0  0  0  0  0  0  0  0  0
    2.7636   11.0298    0.6498 H   0  0  0  0  0  0  0  0  0  0  0  0
    1.4761   12.9150   -2.6798 H   0  0  0  0  0  0  0  0  0  0  0  0
   -0.8765   11.0964   -1.8755 H   0  0  0  0  0  0  0  0  0  0  0  0
   -0.8073   12.2308   -3.2966 H   0  0  0  0  0  0  0  0  0  0  0  0
   -0.4567    9.8734   -3.9608 H   0  0  0  0  0  0  0  0  0  0  0  0
    0.9766   10.9230   -4.2937 H   0  0  0  0  0  0  0  0  0  0  0  0
    1.7420    8.8397   -3.3860 H   0  0  0  0  0  0  0  0  0  0  0  0
    0.9650    8.1120   -1.3600 H   0  0  0  0  0  0  0  0  0  0  0  0
    4.2830   11.2103   -2.3688 H   0  0  0  0  0  0  0  0  0  0  0  0
    3.7739    9.9598   -3.5535 H   0  0  0  0  0  0  0  0  0  0  0  0
    2.9821   11.5722   -3.5535 H   0  0  0  0  0  0  0  0  0  0  0  0
    2.9219    9.4868    0.0421 H   0  0  0  0  0  0  0  0  0  0  0  0
    2.7077    8.2306   -1.2239 H   0  0  0  0  0  0  0  0  0  0  0  0
    4.1767    9.2645   -1.2239 H   0  0  0  0  0  0  0  0  0  0  0  0
   -0.9132   13.2275    0.7032 H   0  0  0  0  0  0  0  0  0  0  0  0
   -1.8941   13.8384   -0.6720 H   0  0  0  0  0  0  0  0  0  0  0  0
   -1.3066   12.1410   -0.6720 H   0  0  0  0  0  0  0  0  0  0  0  0
   -0.5242   14.2711   -3.0484 H   0  0  0  0  0  0  0  0  0  0  0  0
   -0.9624   15.3359   -1.5967 H   0  0  0  0  0  0  0  0  0  0  0  0
    1.6427   15.3030   -3.1457 H   0  0  0  0  0  0  0  0  0  0  0  0
    0.4106   16.6213   -3.0375 H   0  0  0  0  0  0  0  0  0  0  0  0
    0.7191   16.9490    0.6655 H   0  0  0  0  0  0  0  0  0  0  0  0
    0.5374   18.1701   -0.6392 H   0  0  0  0  0  0  0  0  0  0  0  0
   -0.4894   16.6963   -0.6392 H   0  0  0  0  0  0  0  0  0  0  0  0
  1  2  1  0
  2  3  1  0
  3  4  1  0
  4  5  1  0
  5  6  1  0
  6  7  1  0
  7  8  1  0
  7  9  1  0
  2 10  1  0
 10 11  1  0
 11 12  1  0
 12 13  1  0
 13 14  1  6
 13 15  1  0
 15 16  1  0
 16 17  1  0
 17 18  2  0
 18 19  1  0
 19 20  1  0
 20 21  1  0
 21 22  1  0
 22 23  1  0
 22 24  1  0
 24 25  1  0
 24 26  1  0
 19 27  1  0
 27 28  1  1
 27 29  1  0
 29 30  1  0
 30 31  1  0
 31 32  1  1
  7  5  1  0
 31 10  1  0
 31 13  1  0
 27 15  1  0
 24 18  1  0
  1 33  1  0
  1 34  1  0
  1 35  1  0
  2 36  1  6
  3 37  1  0
  3 38  1  0
  4 39  1  0
  4 40  1  0
  5 41  1  6
  8 42  1  0
  8 43  1  0
  8 44  1  0
  9 45  1  0
  9 46  1  0
  9 47  1  0
 10 48  1  6
 11 49  1  0
 11 50  1  0
 12 51  1  0
 12 52  1  0
 14 53  1  0
 14 54  1  0
 14 55  1  0
 15 56  1  1
 16 57  1  0
 16 58  1  0
 17 59  1  0
 19 60  1  6
 20 61  1  0
 20 62  1  0
 21 63  1  0
 21 64  1  0
 22 65  1  6
 23 66  1  0
 25 67  1  0
 25 68  1  0
 25 69  1  0
 26 70  1  0
 26 71  1  0
 26 72  1  0
 28 73  1  0
 28 74  1  0
 28 75  1  0
 29 76  1  0
 29 77  1  0
 30 78  1  0
 30 79  1  0
 32 80  1  0
 32 81  1  0
 32 82  1  0
M  END
>  <meeko>  (8) 
{"is_sidechain": [false], "intermolecular_energy": 2.731, "internal_energy": -0.839}

$$$$
EPH_relaxed_0001_pdb2pqr_Repair_16_r2_0001_out
     RDKit          3D

 82 86  0  0  0  0  0  0  0  0999 V2000
   -3.7260    7.2020   -3.4290 C   0  0  0  0  0  0  0  0  0  0  0  0
   -3.7590    7.2730   -1.9000 C   0  0  2  0  0  0  0  0  0  0  0  0
   -5.1780    7.0510   -1.3390 C   0  0  0  0  0  0  0  0  0  0  0  0
   -6.2910    7.3210   -2.3550 C   0  0  0  0  0  0  0  0  0  0  0  0
   -7.6170    7.5190   -1.6860 C   0  0  2  0  0  0  0  0  0  0  0  0
   -8.1780    6.3340   -1.1060 O   0  0  0  0  0  0  0  0  0  0  0  0
   -8.9110    6.9130   -2.1970 C   0  0  0  0  0  0  0  0  0  0  0  0
   -8.9420    6.0640   -3.4290 C   0  0  0  0  0  0  0  0  0  0  0  0
  -10.2060    7.5420   -1.7870 C   0  0  0  0  0  0  0  0  0  0  0  0
   -3.2180    8.6180   -1.4300 C   0  0  1  0  0  0  0  0  0  0  0  0
   -3.8300    9.0690   -0.0760 C   0  0  0  0  0  0  0  0  0  0  0  0
   -2.7130    9.8220    0.6910 C   0  0  0  0  0  0  0  0  0  0  0  0
   -1.6120   10.0700   -0.3670 C   0  0  1  0  0  0  0  0  0  0  0  0
   -2.0910   11.3270   -1.1580 C   0  0  0  0  0  0  0  0  0  0  0  0
   -0.1580   10.2500    0.1780 C   0  0  2  0  0  0  0  0  0  0  0  0
    0.0480   11.4660    1.0980 C   0  0  0  0  0  0  0  0  0  0  0  0
    0.4510   12.7270    0.4070 C   0  0  0  0  0  0  0  0  0  0  0  0
    0.9160   12.8150   -0.8530 C   0  0  0  0  0  0  0  0  0  0  0  0
    1.1690   11.5530   -1.6890 C   0  0  1  0  0  0  0  0  0  0  0  0
    2.5550   11.6580   -2.3780 C   0  0  0  0  0  0  0  0  0  0  0  0
    2.7070   12.9380   -3.1930 C   0  0  0  0  0  0  0  0  0  0  0  0
    2.5060   14.1710   -2.3160 C   0  0  2  0  0  0  0  0  0  0  0  0
    3.5790   14.2450   -1.3720 O   0  0  0  0  0  0  0  0  0  0  0  0
    1.1470   14.1720   -1.5620 C   0  0  0  0  0  0  0  0  0  0  0  0
   -0.0070   14.3950   -2.5700 C   0  0  0  0  0  0  0  0  0  0  0  0
    1.1310   15.3950   -0.6060 C   0  0  0  0  0  0  0  0  0  0  0  0
    0.9660   10.1690   -0.9340 C   0  0  1  0  0  0  0  0  0  0  0  0
    2.2830    9.7620   -0.2060 C   0  0  0  0  0  0  0  0  0  0  0  0
    0.6780    9.0420   -1.9950 C   0  0  0  0  0  0  0  0  0  0  0  0
   -0.7930    8.8330   -2.4040 C   0  0  0  0  0  0  0  0  0  0  0  0
   -1.6940    8.7210   -1.1710 C   0  0  2  0  0  0  0  0  0  0  0  0
   -1.2500    7.4510   -0.3670 C   0  0  0  0  0  0  0  0  0  0  0  0
   -3.2815    6.2458   -3.7421 H   0  0  0  0  0  0  0  0  0  0  0  0
   -4.7508    7.2761   -3.8217 H   0  0  0  0  0  0  0  0  0  0  0  0
   -3.1219    8.0332   -3.8217 H   0  0  0  0  0  0  0  0  0  0  0  0
   -3.1219    6.4620   -1.5175 H   0  0  0  0  0  0  0  0  0  0  0  0
   -5.2595    6.0064   -1.0041 H   0  0  0  0  0  0  0  0  0  0  0  0
   -5.3138    7.7677   -0.5156 H   0  0  0  0  0  0  0  0  0  0  0  0
   -6.0407    8.2277   -2.9252 H   0  0  0  0  0  0  0  0  0  0  0  0
   -6.3690    6.4468   -3.0181 H   0  0  0  0  0  0  0  0  0  0  0  0
   -7.3455    8.5458   -1.3997 H   0  0  0  0  0  0  0  0  0  0  0  0
   -8.9807    5.0028   -3.1421 H   0  0  0  0  0  0  0  0  0  0  0  0
   -9.8316    6.3154   -4.0252 H   0  0  0  0  0  0  0  0  0  0  0  0
   -8.0365    6.2498   -4.0252 H   0  0  0  0  0  0  0  0  0  0  0  0
  -10.2677    7.5720   -0.6891 H   0  0  0  0  0  0  0  0  0  0  0  0
  -10.2586    8.5660   -2.1853 H   0  0  0  0  0  0  0  0  0  0  0  0
  -11.0434    6.9502   -2.1853 H   0  0  0  0  0  0  0  0  0  0  0  0
   -3.4954    9.2396   -2.2941 H   0  0  0  0  0  0  0  0  0  0  0  0
   -4.6860    9.7373   -0.2511 H   0  0  0  0  0  0  0  0  0  0  0  0
   -4.1920    8.2053    0.5010 H   0  0  0  0  0  0  0  0  0  0  0  0
   -3.0904   10.7753    1.0895 H   0  0  0  0  0  0  0  0  0  0  0  0
   -2.3411    9.2500    1.5539 H   0  0  0  0  0  0  0  0  0  0  0  0
   -2.3907   12.1136   -0.4499 H   0  0  0  0  0  0  0  0  0  0  0  0
   -1.2707   11.6966   -1.7909 H   0  0  0  0  0  0  0  0  0  0  0  0
   -2.9492   11.0569   -1.7909 H   0  0  0  0  0  0  0  0  0  0  0  0
   -0.0356    9.3654    0.8203 H   0  0  0  0  0  0  0  0  0  0  0  0
   -0.8973   11.6557    1.6276 H   0  0  0  0  0  0  0  0  0  0  0  0
    0.8821   11.2048    1.7659 H   0  0  0  0  0  0  0  0  0  0  0  0
    0.3601   13.6638    0.9763 H   0  0  0  0  0  0  0  0  0  0  0  0
    0.3749   11.5275   -2.4497 H   0  0  0  0  0  0  0  0  0  0  0  0
    3.3362   11.6380   -1.6038 H   0  0  0  0  0  0  0  0  0  0  0  0
    2.6493   10.8082   -3.0700 H   0  0  0  0  0  0  0  0  0  0  0  0
    3.7157   12.9683   -3.6307 H   0  0  0  0  0  0  0  0  0  0  0  0
    1.9435   12.9425   -3.9848 H   0  0  0  0  0  0  0  0  0  0  0  0
    2.4978   15.0489   -2.9787 H   0  0  0  0  0  0  0  0  0  0  0  0
    4.4100   14.1260   -1.8620 H   0  0  0  0  0  0  0  0  0  0  0  0
   -0.9432   14.5759   -2.0215 H   0  0  0  0  0  0  0  0  0  0  0  0
    0.2216   15.2656   -3.2023 H   0  0  0  0  0  0  0  0  0  0  0  0
   -0.1192   13.5019   -3.2023 H   0  0  0  0  0  0  0  0  0  0  0  0
    1.1356   15.0453    0.4369 H   0  0  0  0  0  0  0  0  0  0  0  0
    2.0211   16.0149   -0.7888 H   0  0  0  0  0  0  0  0  0  0  0  0
    0.2250   15.9914   -0.7888 H   0  0  0  0  0  0  0  0  0  0  0  0
    2.1300    9.8093    0.8823 H   0  0  0  0  0  0  0  0  0  0  0  0
    2.5590    8.7367   -0.4933 H   0  0  0  0  0  0  0  0  0  0  0  0
    3.0893   10.4529   -0.4933 H   0  0  0  0  0  0  0  0  0  0  0  0
    1.2447    9.2888   -2.9049 H   0  0  0  0  0  0  0  0  0  0  0  0
    0.9773    8.1031   -1.5063 H   0  0  0  0  0  0  0  0  0  0  0  0
   -1.1219    9.6875   -3.0136 H   0  0  0  0  0  0  0  0  0  0  0  0
   -0.8678    7.8983   -2.9791 H   0  0  0  0  0  0  0  0  0  0  0  0
   -1.3217    7.6561    0.7113 H   0  0  0  0  0  0  0  0  0  0  0  0
   -1.9062    6.6064   -0.6240 H   0  0  0  0  0  0  0  0  0  0  0  0
   -0.2105    7.1992   -0.6240 H   0  0  0  0  0  0  0  0  0  0  0  0
  1  2  1  0
  2  3  1  0
  3  4  1  0
  4  5  1  0
  5  6  1  0
  6  7  1  0
  7  8  1  0
  7  9  1  0
  2 10  1  0
 10 11  1  0
 11 12  1  0
 12 13  1  0
 13 14  1  6
 13 15  1  0
 15 16  1  0
 16 17  1  0
 17 18  2  0
 18 19  1  0
 19 20  1  0
 20 21  1  0
 21 22  1  0
 22 23  1  0
 22 24  1  0
 24 25  1  0
 24 26  1  0
 19 27  1  0
 27 28  1  1
 27 29  1  0
 29 30  1  0
 30 31  1  0
 31 32  1  1
  7  5  1  0
 31 10  1  0
 31 13  1  0
 27 15  1  0
 24 18  1  0
  1 33  1  0
  1 34  1  0
  1 35  1  0
  2 36  1  1
  3 37  1  0
  3 38  1  0
  4 39  1  0
  4 40  1  0
  5 41  1  1
  8 42  1  0
  8 43  1  0
  8 44  1  0
  9 45  1  0
  9 46  1  0
  9 47  1  0
 10 48  1  6
 11 49  1  0
 11 50  1  0
 12 51  1  0
 12 52  1  0
 14 53  1  0
 14 54  1  0
 14 55  1  0
 15 56  1  1
 16 57  1  0
 16 58  1  0
 17 59  1  0
 19 60  1  6
 20 61  1  0
 20 62  1  0
 21 63  1  0
 21 64  1  0
 22 65  1  6
 23 66  1  0
 25 67  1  0
 25 68  1  0
 25 69  1  0
 26 70  1  0
 26 71  1  0
 26 72  1  0
 28 73  1  0
 28 74  1  0
 28 75  1  0
 29 76  1  0
 29 77  1  0
 30 78  1  0
 30 79  1  0
 32 80  1  0
 32 81  1  0
 32 82  1  0
M  END
>  <meeko>  (9) 
{"is_sidechain": [false], "intermolecular_energy": 2.731, "internal_energy": -0.839}

$$$$
EPH_relaxed_0001_pdb2pqr_Repair_16_r2_0001_out
     RDKit          3D

 82 86  0  0  0  0  0  0  0  0999 V2000
   -1.2110   16.4430   -5.8650 C   0  0  0  0  0  0  0  0  0  0  0  0
   -0.0040   15.7390   -6.4930 C   0  0  2  0  0  0  0  0  0  0  0  0
   -0.2440   15.3860   -7.9740 C   0  0  0  0  0  0  0  0  0  0  0  0
    0.3470   16.4040   -8.9530 C   0  0  0  0  0  0  0  0  0  0  0  0
    1.7630   16.0700   -9.3130 C   0  0  2  0  0  0  0  0  0  0  0  0
    2.2420   16.7000  -10.5080 O   0  0  0  0  0  0  0  0  0  0  0  0
    2.1470   15.2660  -10.5410 C   0  0  0  0  0  0  0  0  0  0  0  0
    1.1120   14.7460  -11.4880 C   0  0  0  0  0  0  0  0  0  0  0  0
    3.4750   14.5750  -10.5570 C   0  0  0  0  0  0  0  0  0  0  0  0
    0.3300   14.4790   -5.7040 C   0  0  1  0  0  0  0  0  0  0  0  0
    1.3490   13.5670   -6.4390 C   0  0  0  0  0  0  0  0  0  0  0  0
    2.2360   12.9170   -5.3460 C   0  0  0  0  0  0  0  0  0  0  0  0
    1.4980   13.2090   -4.0190 C   0  0  1  0  0  0  0  0  0  0  0  0
    0.3800   12.1230   -3.9350 C   0  0  0  0  0  0  0  0  0  0  0  0
    2.3800   13.2300   -2.7280 C   0  0  2  0  0  0  0  0  0  0  0  0
    3.0700   11.8980   -2.3870 C   0  0  0  0  0  0  0  0  0  0  0  0
    2.2900   10.9850   -1.5000 C   0  0  0  0  0  0  0  0  0  0  0  0
    1.2160   11.3340   -0.7680 C   0  0  0  0  0  0  0  0  0  0  0  0
    0.7410   12.7920   -0.7130 C   0  0  1  0  0  0  0  0  0  0  0  0
    0.4560   13.1880    0.7600 C   0  0  0  0  0  0  0  0  0  0  0  0
   -0.5150   12.2310    1.4460 C   0  0  0  0  0  0  0  0  0  0  0  0
    0.0190   10.8020    1.4210 C   0  0  2  0  0  0  0  0  0  0  0  0
    1.1910   10.7330    2.2400 O   0  0  0  0  0  0  0  0  0  0  0  0
    0.3520   10.2960   -0.0110 C   0  0  0  0  0  0  0  0  0  0  0  0
   -0.9600   10.0830   -0.8050 C   0  0  0  0  0  0  0  0  0  0  0  0
    1.0130    8.8970    0.1190 C   0  0  0  0  0  0  0  0  0  0  0  0
    1.6600   13.8500   -1.4620 C   0  0  1  0  0  0  0  0  0  0  0  0
    2.7890   14.3450   -0.5070 C   0  0  0  0  0  0  0  0  0  0  0  0
    0.7970   15.1160   -1.8240 C   0  0  0  0  0  0  0  0  0  0  0  0
    0.0450   15.0830   -3.1680 C   0  0  0  0  0  0  0  0  0  0  0  0
    0.9770   14.6640   -4.3080 C   0  0  2  0  0  0  0  0  0  0  0  0
    2.1000   15.7490   -4.4320 C   0  0  0  0  0  0  0  0  0  0  0  0
   -1.1326   16.3973   -4.7687 H   0  0  0  0  0  0  0  0  0  0  0  0
   -1.2310   17.4944   -6.1877 H   0  0  0  0  0  0  0  0  0  0  0  0
   -2.1360   15.9428   -6.1877 H   0  0  0  0  0  0  0  0  0  0  0  0
    0.8447   16.4377   -6.4542 H   0  0  0  0  0  0  0  0  0  0  0  0
    0.2118   14.4053   -8.1755 H   0  0  0  0  0  0  0  0  0  0  0  0
   -1.3327   15.3832   -8.1314 H   0  0  0  0  0  0  0  0  0  0  0  0
   -0.2614   16.4119   -9.8694 H   0  0  0  0  0  0  0  0  0  0  0  0
    0.3406   17.3907   -8.4668 H   0  0  0  0  0  0  0  0  0  0  0  0
    2.0335   15.9698   -8.2515 H   0  0  0  0  0  0  0  0  0  0  0  0
    0.2718   14.3239  -10.9172 H   0  0  0  0  0  0  0  0  0  0  0  0
    0.7484   15.5685  -12.1215 H   0  0  0  0  0  0  0  0  0  0  0  0
    1.5548   13.9634  -12.1215 H   0  0  0  0  0  0  0  0  0  0  0  0
    3.8101   14.4006   -9.5239 H   0  0  0  0  0  0  0  0  0  0  0  0
    3.3808   13.6116  -11.0794 H   0  0  0  0  0  0  0  0  0  0  0  0
    4.2099   15.2051  -11.0794 H   0  0  0  0  0  0  0  0  0  0  0  0
   -0.6794   14.0551   -5.5972 H   0  0  0  0  0  0  0  0  0  0  0  0
    0.8193   12.7895   -7.0090 H   0  0  0  0  0  0  0  0  0  0  0  0
    1.9575   14.1463   -7.1490 H   0  0  0  0  0  0  0  0  0  0  0  0
    2.3236   11.8330   -5.5111 H   0  0  0  0  0  0  0  0  0  0  0  0
    3.2611   13.3159   -5.3494 H   0  0  0  0  0  0  0  0  0  0  0  0
    0.1574   11.9068   -2.8797 H   0  0  0  0  0  0  0  0  0  0  0  0
   -0.5284   12.4927   -4.4331 H   0  0  0  0  0  0  0  0  0  0  0  0
    0.7232   11.2042   -4.4331 H   0  0  0  0  0  0  0  0  0  0  0  0
    3.1890   13.9216   -3.0058 H   0  0  0  0  0  0  0  0  0  0  0  0
    3.2697   11.3675   -3.3297 H   0  0  0  0  0  0  0  0  0  0  0  0
    3.9803   12.1609   -1.8283 H   0  0  0  0  0  0  0  0  0  0  0  0
    2.6214    9.9378   -1.4396 H   0  0  0  0  0  0  0  0  0  0  0  0
   -0.1901   12.8306   -1.2975 H   0  0  0  0  0  0  0  0  0  0  0  0
    1.4053   13.1855    1.3158 H   0  0  0  0  0  0  0  0  0  0  0  0
   -0.0070   14.1858    0.7539 H   0  0  0  0  0  0  0  0  0  0  0  0
   -0.6527   12.5457    2.4910 H   0  0  0  0  0  0  0  0  0  0  0  0
   -1.4736   12.2572    0.9070 H   0  0  0  0  0  0  0  0  0  0  0  0
   -0.7756   10.1470    1.8078 H   0  0  0  0  0  0  0  0  0  0  0  0
    1.5670    9.8420    2.1420 H   0  0  0  0  0  0  0  0  0  0  0  0
   -1.7957    9.9473   -0.1027 H   0  0  0  0  0  0  0  0  0  0  0  0
   -1.1522   10.9617   -1.4382 H   0  0  0  0  0  0  0  0  0  0  0  0
   -0.8643    9.1886   -1.4382 H   0  0  0  0  0  0  0  0  0  0  0  0
    1.1320    8.6451    1.1831 H   0  0  0  0  0  0  0  0  0  0  0  0
    0.3756    8.1437   -0.3670 H   0  0  0  0  0  0  0  0  0  0  0  0
    1.9997    8.9111   -0.3670 H   0  0  0  0  0  0  0  0  0  0  0  0
    2.4728   14.2064    0.5374 H   0  0  0  0  0  0  0  0  0  0  0  0
    3.7060   13.7664   -0.6924 H   0  0  0  0  0  0  0  0  0  0  0  0
    2.9847   15.4115   -0.6924 H   0  0  0  0  0  0  0  0  0  0  0  0
    0.0497   15.2480   -1.0277 H   0  0  0  0  0  0  0  0  0  0  0  0
    1.5200   15.9395   -1.9190 H   0  0  0  0  0  0  0  0  0  0  0  0
   -0.7844   14.3637   -3.0986 H   0  0  0  0  0  0  0  0  0  0  0  0
   -0.3371   16.0924   -3.3807 H   0  0  0  0  0  0  0  0  0  0  0  0
    2.4219   16.0600   -3.4272 H   0  0  0  0  0  0  0  0  0  0  0  0
    2.9574   15.3285   -4.9779 H   0  0  0  0  0  0  0  0  0  0  0  0
    1.7093   16.6204   -4.9779 H   0  0  0  0  0  0  0  0  0  0  0  0
  1  2  1  0
  2  3  1  0
  3  4  1  0
  4  5  1  0
  5  6  1  0
  6  7  1  0
  7  8  1  0
  7  9  1  0
  2 10  1  0
 10 11  1  0
 11 12  1  0
 12 13  1  0
 13 14  1  1
 13 15  1  0
 15 16  1  0
 16 17  1  0
 17 18  2  0
 18 19  1  0
 19 20  1  0
 20 21  1  0
 21 22  1  0
 22 23  1  0
 22 24  1  0
 24 25  1  0
 24 26  1  0
 19 27  1  0
 27 28  1  1
 27 29  1  0
 29 30  1  0
 30 31  1  0
 31 32  1  6
  7  5  1  0
 31 10  1  0
 31 13  1  0
 27 15  1  0
 24 18  1  0
  1 33  1  0
  1 34  1  0
  1 35  1  0
  2 36  1  6
  3 37  1  0
  3 38  1  0
  4 39  1  0
  4 40  1  0
  5 41  1  1
  8 42  1  0
  8 43  1  0
  8 44  1  0
  9 45  1  0
  9 46  1  0
  9 47  1  0
 10 48  1  1
 11 49  1  0
 11 50  1  0
 12 51  1  0
 12 52  1  0
 14 53  1  0
 14 54  1  0
 14 55  1  0
 15 56  1  6
 16 57  1  0
 16 58  1  0
 17 59  1  0
 19 60  1  6
 20 61  1  0
 20 62  1  0
 21 63  1  0
 21 64  1  0
 22 65  1  1
 23 66  1  0
 25 67  1  0
 25 68  1  0
 25 69  1  0
 26 70  1  0
 26 71  1  0
 26 72  1  0
 28 73  1  0
 28 74  1  0
 28 75  1  0
 29 76  1  0
 29 77  1  0
 30 78  1  0
 30 79  1  0
 32 80  1  0
 32 81  1  0
 32 82  1  0
M  END
>  <meeko>  (10) 
{"is_sidechain": [false], "intermolecular_energy": 2.731, "internal_energy": -0.839}

$$$$
EPH_relaxed_0001_pdb2pqr_Repair_16_r2_0001_out
     RDKit          3D

 82 86  0  0  0  0  0  0  0  0999 V2000
   -0.2790   15.0760   -7.6090 C   0  0  0  0  0  0  0  0  0  0  0  0
    1.0900   15.0520   -6.9240 C   0  0  2  0  0  0  0  0  0  0  0  0
    2.2480   15.1420   -7.9380 C   0  0  0  0  0  0  0  0  0  0  0  0
    2.2910   16.4650   -8.7070 C   0  0  0  0  0  0  0  0  0  0  0  0
    1.8840   16.2880  -10.1390 C   0  0  2  0  0  0  0  0  0  0  0  0
    1.2010   15.0590  -10.4190 O   0  0  0  0  0  0  0  0  0  0  0  0
    2.4790   15.2320  -11.0520 C   0  0  0  0  0  0  0  0  0  0  0  0
    3.5310   14.2850  -10.5690 C   0  0  0  0  0  0  0  0  0  0  0  0
    2.3940   15.4380  -12.5330 C   0  0  0  0  0  0  0  0  0  0  0  0
    1.2290   13.7870   -6.0860 C   0  0  1  0  0  0  0  0  0  0  0  0
    2.6620   13.1920   -6.1340 C   0  0  0  0  0  0  0  0  0  0  0  0
    2.9420   12.5870   -4.7350 C   0  0  0  0  0  0  0  0  0  0  0  0
    1.5610   12.5540   -4.0400 C   0  0  1  0  0  0  0  0  0  0  0  0
    0.8640   11.2720   -4.5940 C   0  0  0  0  0  0  0  0  0  0  0  0
    1.5730   12.5750   -2.4760 C   0  0  2  0  0  0  0  0  0  0  0  0
    2.2580   11.3680   -1.8130 C   0  0  0  0  0  0  0  0  0  0  0  0
    1.3610   10.2130   -1.5110 C   0  0  0  0  0  0  0  0  0  0  0  0
    0.0160   10.2490   -1.4980 C   0  0  0  0  0  0  0  0  0  0  0  0
   -0.7380   11.5680   -1.7110 C   0  0  1  0  0  0  0  0  0  0  0  0
   -1.8550   11.7050   -0.6440 C   0  0  0  0  0  0  0  0  0  0  0  0
   -2.7880   10.4970   -0.6150 C   0  0  0  0  0  0  0  0  0  0  0  0
   -2.0090    9.2130   -0.3430 C   0  0  2  0  0  0  0  0  0  0  0  0
   -1.4870    9.2640    0.9880 O   0  0  0  0  0  0  0  0  0  0  0  0
   -0.8500    8.9740   -1.3500 C   0  0  0  0  0  0  0  0  0  0  0  0
   -1.4330    8.6190   -2.7400 C   0  0  0  0  0  0  0  0  0  0  0  0
   -0.0590    7.7240   -0.8800 C   0  0  0  0  0  0  0  0  0  0  0  0
    0.1640   12.8720   -1.8210 C   0  0  1  0  0  0  0  0  0  0  0  0
    0.4460   13.4460   -0.3990 C   0  0  0  0  0  0  0  0  0  0  0  0
   -0.6350   13.9850   -2.5980 C   0  0  0  0  0  0  0  0  0  0  0  0
   -0.5110   13.9850   -4.1340 C   0  0  0  0  0  0  0  0  0  0  0  0
    0.9570   13.9070   -4.5650 C   0  0  2  0  0  0  0  0  0  0  0  0
    1.6790   15.1950   -4.0410 C   0  0  0  0  0  0  0  0  0  0  0  0
   -1.0708   15.0899   -6.8456 H   0  0  0  0  0  0  0  0  0  0  0  0
   -0.3592   15.9757   -8.2368 H   0  0  0  0  0  0  0  0  0  0  0  0
   -0.3906   14.1797   -8.2368 H   0  0  0  0  0  0  0  0  0  0  0  0
    1.1508   15.9373   -6.2740 H   0  0  0  0  0  0  0  0  0  0  0  0
    3.1965   15.0260   -7.3932 H   0  0  0  0  0  0  0  0  0  0  0  0
    2.0894   14.3445   -8.6788 H   0  0  0  0  0  0  0  0  0  0  0  0
    1.6051   17.1786   -8.2271 H   0  0  0  0  0  0  0  0  0  0  0  0
    3.3254   16.8387   -8.6884 H   0  0  0  0  0  0  0  0  0  0  0  0
    1.7426   17.3723  -10.2585 H   0  0  0  0  0  0  0  0  0  0  0  0
    3.5400   14.2769   -9.4691 H   0  0  0  0  0  0  0  0  0  0  0  0
    3.3125   13.2733  -10.9413 H   0  0  0  0  0  0  0  0  0  0  0  0
    4.5143   14.6083  -10.9413 H   0  0  0  0  0  0  0  0  0  0  0  0
    1.9820   16.4364  -12.7413 H   0  0  0  0  0  0  0  0  0  0  0  0
    3.3990   15.3570  -12.9727 H   0  0  0  0  0  0  0  0  0  0  0  0
    1.7385   14.6718  -12.9727 H   0  0  0  0  0  0  0  0  0  0  0  0
    0.4532   13.1673   -6.5594 H   0  0  0  0  0  0  0  0  0  0  0  0
    2.7214   12.4088   -6.9042 H   0  0  0  0  0  0  0  0  0  0  0  0
    3.4026   13.9655   -6.3852 H   0  0  0  0  0  0  0  0  0  0  0  0
    3.3548   11.5715   -4.8267 H   0  0  0  0  0  0  0  0  0  0  0  0
    3.6803   13.1727   -4.1677 H   0  0  0  0  0  0  0  0  0  0  0  0
    0.5244   10.6474   -3.7546 H   0  0  0  0  0  0  0  0  0  0  0  0
   -0.0009   11.5615   -5.2089 H   0  0  0  0  0  0  0  0  0  0  0  0
    1.5772   10.7035   -5.2089 H   0  0  0  0  0  0  0  0  0  0  0  0
    2.2153   13.4406   -2.2565 H   0  0  0  0  0  0  0  0  0  0  0  0
    3.0519   11.0147   -2.4875 H   0  0  0  0  0  0  0  0  0  0  0  0
    2.6320   11.7253   -0.8422 H   0  0  0  0  0  0  0  0  0  0  0  0
    1.8407    9.2506   -1.2794 H   0  0  0  0  0  0  0  0  0  0  0  0
   -1.1862   11.5031   -2.7135 H   0  0  0  0  0  0  0  0  0  0  0  0
   -1.3863   11.8124    0.3454 H   0  0  0  0  0  0  0  0  0  0  0  0
   -2.4587   12.5871   -0.9039 H   0  0  0  0  0  0  0  0  0  0  0  0
   -3.5364   10.6390    0.1785 H   0  0  0  0  0  0  0  0  0  0  0  0
   -3.2791   10.4089   -1.5953 H   0  0  0  0  0  0  0  0  0  0  0  0
   -2.7074    8.3718   -0.4641 H   0  0  0  0  0  0  0  0  0  0  0  0
   -0.8540    8.5330    1.0840 H   0  0  0  0  0  0  0  0  0  0  0  0
   -2.3661    8.0508   -2.6120 H   0  0  0  0  0  0  0  0  0  0  0  0
   -1.6406    9.5441   -3.2977 H   0  0  0  0  0  0  0  0  0  0  0  0
   -0.7064    8.0099   -3.2977 H   0  0  0  0  0  0  0  0  0  0  0  0
   -0.0401    7.6941    0.2194 H   0  0  0  0  0  0  0  0  0  0  0  0
   -0.5471    6.8158   -1.2632 H   0  0  0  0  0  0  0  0  0  0  0  0
    0.9708    7.7763   -1.2632 H   0  0  0  0  0  0  0  0  0  0  0  0
    0.0953   12.7321    0.3608 H   0  0  0  0  0  0  0  0  0  0  0  0
    1.5270   13.6094   -0.2773 H   0  0  0  0  0  0  0  0  0  0  0  0
   -0.0853   14.4015   -0.2773 H   0  0  0  0  0  0  0  0  0  0  0  0
   -1.6999   13.8645   -2.3501 H   0  0  0  0  0  0  0  0  0  0  0  0
   -0.1910   14.9376   -2.2734 H   0  0  0  0  0  0  0  0  0  0  0  0
   -1.0516   13.1167   -4.5388 H   0  0  0  0  0  0  0  0  0  0  0  0
   -0.9412   14.9206   -4.5209 H   0  0  0  0  0  0  0  0  0  0  0  0
    1.6784   15.1939   -2.9410 H   0  0  0  0  0  0  0  0  0  0  0  0
    2.7162   15.2085   -4.4071 H   0  0  0  0  0  0  0  0  0  0  0  0
    1.1493   16.0869   -4.4071 H   0  0  0  0  0  0  0  0  0  0  0  0
  1  2  1  0
  2  3  1  0
  3  4  1  0
  4  5  1  0
  5  6  1  0
  6  7  1  0
  7  8  1  0
  7  9  1  0
  2 10  1  0
 10 11  1  0
 11 12  1  0
 12 13  1  0
 13 14  1  1
 13 15  1  0
 15 16  1  0
 16 17  1  0
 17 18  2  0
 18 19  1  0
 19 20  1  0
 20 21  1  0
 21 22  1  0
 22 23  1  0
 22 24  1  0
 24 25  1  0
 24 26  1  0
 19 27  1  0
 27 28  1  1
 27 29  1  0
 29 30  1  0
 30 31  1  0
 31 32  1  1
  7  5  1  0
 31 10  1  0
 31 13  1  0
 27 15  1  0
 24 18  1  0
  1 33  1  0
  1 34  1  0
  1 35  1  0
  2 36  1  1
  3 37  1  0
  3 38  1  0
  4 39  1  0
  4 40  1  0
  5 41  1  6
  8 42  1  0
  8 43  1  0
  8 44  1  0
  9 45  1  0
  9 46  1  0
  9 47  1  0
 10 48  1  6
 11 49  1  0
 11 50  1  0
 12 51  1  0
 12 52  1  0
 14 53  1  0
 14 54  1  0
 14 55  1  0
 15 56  1  6
 16 57  1  0
 16 58  1  0
 17 59  1  0
 19 60  1  6
 20 61  1  0
 20 62  1  0
 21 63  1  0
 21 64  1  0
 22 65  1  1
 23 66  1  0
 25 67  1  0
 25 68  1  0
 25 69  1  0
 26 70  1  0
 26 71  1  0
 26 72  1  0
 28 73  1  0
 28 74  1  0
 28 75  1  0
 29 76  1  0
 29 77  1  0
 30 78  1  0
 30 79  1  0
 32 80  1  0
 32 81  1  0
 32 82  1  0
M  END
>  <meeko>  (11) 
{"is_sidechain": [false], "intermolecular_energy": 2.731, "internal_energy": -0.839}

$$$$
EPH_relaxed_0001_pdb2pqr_Repair_16_r2_0001_out
     RDKit          3D

 82 86  0  0  0  0  0  0  0  0999 V2000
   -2.2210    7.8580   -2.0580 C   0  0  0  0  0  0  0  0  0  0  0  0
   -2.1830    8.4940   -0.6660 C   0  0  2  0  0  0  0  0  0  0  0  0
   -3.5690    8.4930    0.0110 C   0  0  0  0  0  0  0  0  0  0  0  0
   -4.7340    8.6320   -0.9730 C   0  0  0  0  0  0  0  0  0  0  0  0
   -5.4640    7.3350   -1.1530 C   0  0  2  0  0  0  0  0  0  0  0  0
   -5.6370    6.9300   -2.5170 O   0  0  0  0  0  0  0  0  0  0  0  0
   -6.8380    7.2300   -1.7880 C   0  0  0  0  0  0  0  0  0  0  0  0
   -7.5640    8.4420   -2.2830 C   0  0  0  0  0  0  0  0  0  0  0  0
   -7.6770    6.0280   -1.4850 C   0  0  0  0  0  0  0  0  0  0  0  0
   -1.6500    9.9190   -0.7590 C   0  0  1  0  0  0  0  0  0  0  0  0
   -1.1840   10.4740    0.6130 C   0  0  0  0  0  0  0  0  0  0  0  0
    0.0380   11.3860    0.3350 C   0  0  0  0  0  0  0  0  0  0  0  0
    0.0310   11.5920   -1.1980 C   0  0  1  0  0  0  0  0  0  0  0  0
   -1.0240   12.7150   -1.4470 C   0  0  0  0  0  0  0  0  0  0  0  0
    1.4070   11.9360   -1.8550 C   0  0  2  0  0  0  0  0  0  0  0  0
    2.0400   13.2590   -1.3900 C   0  0  0  0  0  0  0  0  0  0  0  0
    1.6720   14.4600   -2.1970 C   0  0  0  0  0  0  0  0  0  0  0  0
    1.0990   14.4380   -3.4150 C   0  0  0  0  0  0  0  0  0  0  0  0
    0.8520   13.1120   -4.1460 C   0  0  1  0  0  0  0  0  0  0  0  0
    1.3220   13.2380   -5.6190 C   0  0  0  0  0  0  0  0  0  0  0  0
    0.6880   14.4260   -6.3360 C   0  0  0  0  0  0  0  0  0  0  0  0
    1.0040   15.7320   -5.6120 C   0  0  2  0  0  0  0  0  0  0  0  0
    2.4080   15.9880   -5.7150 O   0  0  0  0  0  0  0  0  0  0  0  0
    0.5840   15.7200   -4.1150 C   0  0  0  0  0  0  0  0  0  0  0  0
   -0.9610   15.7460   -4.0080 C   0  0  0  0  0  0  0  0  0  0  0  0
    1.0860   17.0390   -3.4680 C   0  0  0  0  0  0  0  0  0  0  0  0
    1.4210   11.8110   -3.4330 C   0  0  1  0  0  0  0  0  0  0  0  0
    2.9070   11.5830   -3.8480 C   0  0  0  0  0  0  0  0  0  0  0  0
    0.6200   10.5540   -3.9410 C   0  0  0  0  0  0  0  0  0  0  0  0
   -0.6680   10.1950   -3.1750 C   0  0  0  0  0  0  0  0  0  0  0  0
   -0.4160   10.1580   -1.6650 C   0  0  2  0  0  0  0  0  0  0  0  0
    0.6250    9.0220   -1.3810 C   0  0  0  0  0  0  0  0  0  0  0  0
   -2.2863    6.7643   -1.9598 H   0  0  0  0  0  0  0  0  0  0  0  0
   -3.0985    8.2299   -2.6072 H   0  0  0  0  0  0  0  0  0  0  0  0
   -1.3054    8.1228   -2.6072 H   0  0  0  0  0  0  0  0  0  0  0  0
   -1.5105    7.8859   -0.0431 H   0  0  0  0  0  0  0  0  0  0  0  0
   -3.6876    7.5462    0.5583 H   0  0  0  0  0  0  0  0  0  0  0  0
   -3.6030    9.3688    0.6758 H   0  0  0  0  0  0  0  0  0  0  0  0
   -5.4366    9.3866   -0.5896 H   0  0  0  0  0  0  0  0  0  0  0  0
   -4.3254    8.9343   -1.9485 H   0  0  0  0  0  0  0  0  0  0  0  0
   -5.0563    6.9469   -0.2079 H   0  0  0  0  0  0  0  0  0  0  0  0
   -7.9180    9.0330   -1.4255 H   0  0  0  0  0  0  0  0  0  0  0  0
   -6.8832    9.0533   -2.8936 H   0  0  0  0  0  0  0  0  0  0  0  0
   -8.4242    8.1302   -2.8936 H   0  0  0  0  0  0  0  0  0  0  0  0
   -7.7624    5.9057   -0.3952 H   0  0  0  0  0  0  0  0  0  0  0  0
   -8.6791    6.1615   -1.9186 H   0  0  0  0  0  0  0  0  0  0  0  0
   -7.2061    5.1334   -1.9186 H   0  0  0  0  0  0  0  0  0  0  0  0
   -2.5326   10.4187   -1.1849 H   0  0  0  0  0  0  0  0  0  0  0  0
   -1.9921   11.0557    1.0805 H   0  0  0  0  0  0  0  0  0  0  0  0
   -0.9187    9.6569    1.3000 H   0  0  0  0  0  0  0  0  0  0  0  0
   -0.0693   12.3485    0.8566 H   0  0  0  0  0  0  0  0  0  0  0  0
    0.9792   10.9423    0.6918 H   0  0  0  0  0  0  0  0  0  0  0  0
   -1.3851   13.0994   -0.4817 H   0  0  0  0  0  0  0  0  0  0  0  0
   -0.5606   13.5335   -2.0174 H   0  0  0  0  0  0  0  0  0  0  0  0
   -1.8698   12.3036   -2.0174 H   0  0  0  0  0  0  0  0  0  0  0  0
    2.0595   11.1405   -1.4659 H   0  0  0  0  0  0  0  0  0  0  0  0
    1.7272   13.4388   -0.3509 H   0  0  0  0  0  0  0  0  0  0  0  0
    3.1266   13.1345   -1.5075 H   0  0  0  0  0  0  0  0  0  0  0  0
    1.8872   15.4460   -1.7594 H   0  0  0  0  0  0  0  0  0  0  0  0
   -0.2347   12.9444   -4.1138 H   0  0  0  0  0  0  0  0  0  0  0  0
    2.4150   13.3613   -5.6310 H   0  0  0  0  0  0  0  0  0  0  0  0
    1.0117   12.3247   -6.1477 H   0  0  0  0  0  0  0  0  0  0  0  0
    1.0812   14.4789   -7.3620 H   0  0  0  0  0  0  0  0  0  0  0  0
   -0.4031   14.2868   -6.3489 H   0  0  0  0  0  0  0  0  0  0  0  0
    0.4182   16.5274   -6.0960 H   0  0  0  0  0  0  0  0  0  0  0  0
    2.8760   15.1910   -5.4150 H   0  0  0  0  0  0  0  0  0  0  0  0
   -1.2551   15.7509   -2.9481 H   0  0  0  0  0  0  0  0  0  0  0  0
   -1.3474   16.6508   -4.5000 H   0  0  0  0  0  0  0  0  0  0  0  0
   -1.3777   14.8547   -4.5000 H   0  0  0  0  0  0  0  0  0  0  0  0
    1.0508   16.9466   -2.3725 H   0  0  0  0  0  0  0  0  0  0  0  0
    2.1208   17.2330   -3.7866 H   0  0  0  0  0  0  0  0  0  0  0  0
    0.4420   17.8719   -3.7866 H   0  0  0  0  0  0  0  0  0  0  0  0
    3.5291   11.4875   -2.9459 H   0  0  0  0  0  0  0  0  0  0  0  0
    2.9838   10.6626   -4.4454 H   0  0  0  0  0  0  0  0  0  0  0  0
    3.2562   12.4381   -4.4454 H   0  0  0  0  0  0  0  0  0  0  0  0
    0.3434   10.7372   -4.9898 H   0  0  0  0  0  0  0  0  0  0  0  0
    1.2954    9.6999   -3.7849 H   0  0  0  0  0  0  0  0  0  0  0  0
   -1.4382   10.9495   -3.3928 H   0  0  0  0  0  0  0  0  0  0  0  0
   -1.0024    9.1984   -3.4991 H   0  0  0  0  0  0  0  0  0  0  0  0
    0.7416    8.8947   -0.2946 H   0  0  0  0  0  0  0  0  0  0  0  0
    0.2700    8.0801   -1.8245 H   0  0  0  0  0  0  0  0  0  0  0  0
    1.5943    9.2936   -1.8245 H   0  0  0  0  0  0  0  0  0  0  0  0
  1  2  1  0
  2  3  1  0
  3  4  1  0
  4  5  1  0
  5  6  1  0
  6  7  1  0
  7  8  1  0
  7  9  1  0
  2 10  1  0
 10 11  1  0
 11 12  1  0
 12 13  1  0
 13 14  1  1
 13 15  1  0
 15 16  1  0
 16 17  1  0
 17 18  2  0
 18 19  1  0
 19 20  1  0
 20 21  1  0
 21 22  1  0
 22 23  1  0
 22 24  1  0
 24 25  1  0
 24 26  1  0
 19 27  1  0
 27 28  1  6
 27 29  1  0
 29 30  1  0
 30 31  1  0
 31 32  1  6
  7  5  1  0
 31 10  1  0
 31 13  1  0
 27 15  1  0
 24 18  1  0
  1 33  1  0
  1 34  1  0
  1 35  1  0
  2 36  1  1
  3 37  1  0
  3 38  1  0
  4 39  1  0
  4 40  1  0
  5 41  1  1
  8 42  1  0
  8 43  1  0
  8 44  1  0
  9 45  1  0
  9 46  1  0
  9 47  1  0
 10 48  1  6
 11 49  1  0
 11 50  1  0
 12 51  1  0
 12 52  1  0
 14 53  1  0
 14 54  1  0
 14 55  1  0
 15 56  1  1
 16 57  1  0
 16 58  1  0
 17 59  1  0
 19 60  1  6
 20 61  1  0
 20 62  1  0
 21 63  1  0
 21 64  1  0
 22 65  1  6
 23 66  1  0
 25 67  1  0
 25 68  1  0
 25 69  1  0
 26 70  1  0
 26 71  1  0
 26 72  1  0
 28 73  1  0
 28 74  1  0
 28 75  1  0
 29 76  1  0
 29 77  1  0
 30 78  1  0
 30 79  1  0
 32 80  1  0
 32 81  1  0
 32 82  1  0
M  END
>  <meeko>  (12) 
{"is_sidechain": [false], "intermolecular_energy": 2.731, "internal_energy": -0.839}

$$$$
EPH_relaxed_0001_pdb2pqr_Repair_16_r2_0001_out
     RDKit          3D

 82 86  0  0  0  0  0  0  0  0999 V2000
    2.8330   11.3330   -5.2570 C   0  0  0  0  0  0  0  0  0  0  0  0
    1.7840   11.0400   -4.1800 C   0  0  2  0  0  0  0  0  0  0  0  0
    0.6650   10.1130   -4.6960 C   0  0  0  0  0  0  0  0  0  0  0  0
   -0.4010    9.7920   -3.6460 C   0  0  0  0  0  0  0  0  0  0  0  0
    0.1720    9.0340   -2.4870 C   0  0  2  0  0  0  0  0  0  0  0  0
   -0.6400    7.9490   -2.0200 O   0  0  0  0  0  0  0  0  0  0  0  0
   -0.4430    9.0350   -1.1000 C   0  0  0  0  0  0  0  0  0  0  0  0
   -1.6870    9.8100   -0.7980 C   0  0  0  0  0  0  0  0  0  0  0  0
    0.4250    8.6840    0.0680 C   0  0  0  0  0  0  0  0  0  0  0  0
    1.1860   12.3440   -3.6680 C   0  0  1  0  0  0  0  0  0  0  0  0
   -0.3500   12.2560   -3.4600 C   0  0  0  0  0  0  0  0  0  0  0  0
   -0.6850   13.1350   -2.2270 C   0  0  0  0  0  0  0  0  0  0  0  0
    0.6000   13.9550   -1.9710 C   0  0  1  0  0  0  0  0  0  0  0  0
    0.5320   15.1360   -2.9900 C   0  0  0  0  0  0  0  0  0  0  0  0
    0.8150   14.4650   -0.5090 C   0  0  2  0  0  0  0  0  0  0  0  0
   -0.2570   15.4420    0.0050 C   0  0  0  0  0  0  0  0  0  0  0  0
    0.0260   16.8870   -0.2420 C   0  0  0  0  0  0  0  0  0  0  0  0
    1.2190   17.4020   -0.5930 C   0  0  0  0  0  0  0  0  0  0  0  0
    2.4650   16.5120   -0.6810 C   0  0  1  0  0  0  0  0  0  0  0  0
    3.6510   17.2090    0.0360 C   0  0  0  0  0  0  0  0  0  0  0  0
    3.9030   18.6200   -0.4880 C   0  0  0  0  0  0  0  0  0  0  0  0
    2.6590   19.4910   -0.3300 C   0  0  2  0  0  0  0  0  0  0  0  0
    2.4110   19.6900    1.0650 O   0  0  0  0  0  0  0  0  0  0  0  0
    1.3970   18.8840   -1.0040 C   0  0  0  0  0  0  0  0  0  0  0  0
    1.5490   18.9470   -2.5440 C   0  0  0  0  0  0  0  0  0  0  0  0
    0.1860   19.7880   -0.6500 C   0  0  0  0  0  0  0  0  0  0  0  0
    2.2750   15.0030   -0.2180 C   0  0  1  0  0  0  0  0  0  0  0  0
    2.4930   14.8880    1.3220 C   0  0  0  0  0  0  0  0  0  0  0  0
    3.3850   14.1140   -0.8920 C   0  0  0  0  0  0  0  0  0  0  0  0
    3.0660   13.5410   -2.2860 C   0  0  0  0  0  0  0  0  0  0  0  0
    1.6890   12.8700   -2.3000 C   0  0  2  0  0  0  0  0  0  0  0  0
    1.7350   11.6630   -1.3010 C   0  0  0  0  0  0  0  0  0  0  0  0
    3.7864   11.5993   -4.7774 H   0  0  0  0  0  0  0  0  0  0  0  0
    2.9746   10.4400   -5.8835 H   0  0  0  0  0  0  0  0  0  0  0  0
    2.4913   12.1701   -5.8835 H   0  0  0  0  0  0  0  0  0  0  0  0
    2.2925   10.5166   -3.3569 H   0  0  0  0  0  0  0  0  0  0  0  0
    0.1747   10.6027   -5.5502 H   0  0  0  0  0  0  0  0  0  0  0  0
    1.1395    9.1603   -4.9741 H   0  0  0  0  0  0  0  0  0  0  0  0
   -0.8329   10.7340   -3.2772 H   0  0  0  0  0  0  0  0  0  0  0  0
   -1.1701    9.1640   -4.1195 H   0  0  0  0  0  0  0  0  0  0  0  0
    1.1964    9.2235   -2.8400 H   0  0  0  0  0  0  0  0  0  0  0  0
   -1.8142    9.8892    0.2917 H   0  0  0  0  0  0  0  0  0  0  0  0
   -1.6057   10.8175   -1.2319 H   0  0  0  0  0  0  0  0  0  0  0  0
   -2.5555    9.2929   -1.2319 H   0  0  0  0  0  0  0  0  0  0  0  0
   -0.1126    8.9014    1.0028 H   0  0  0  0  0  0  0  0  0  0  0  0
    0.6760    7.6137    0.0298 H   0  0  0  0  0  0  0  0  0  0  0  0
    1.3494    9.2790    0.0298 H   0  0  0  0  0  0  0  0  0  0  0  0
    1.5077   13.0217   -4.4726 H   0  0  0  0  0  0  0  0  0  0  0  0
   -0.8751   12.6348   -4.3493 H   0  0  0  0  0  0  0  0  0  0  0  0
   -0.6684   11.2151   -3.3015 H   0  0  0  0  0  0  0  0  0  0  0  0
   -1.5335   13.8006   -2.4438 H   0  0  0  0  0  0  0  0  0  0  0  0
   -0.9767   12.5337   -1.3533 H   0  0  0  0  0  0  0  0  0  0  0  0
    0.4771   16.0891   -2.4435 H   0  0  0  0  0  0  0  0  0  0  0  0
    1.4321   15.1271   -3.6222 H   0  0  0  0  0  0  0  0  0  0  0  0
   -0.3612   15.0239   -3.6222 H   0  0  0  0  0  0  0  0  0  0  0  0
    0.6901   13.5460    0.0824 H   0  0  0  0  0  0  0  0  0  0  0  0
   -1.2083   15.1929   -0.4879 H   0  0  0  0  0  0  0  0  0  0  0  0
   -0.2817   15.3192    1.0979 H   0  0  0  0  0  0  0  0  0  0  0  0
   -0.8117   17.5906   -0.1274 H   0  0  0  0  0  0  0  0  0  0  0  0
    2.6863   16.4056   -1.7532 H   0  0  0  0  0  0  0  0  0  0  0  0
    3.4282   17.2667    1.1117 H   0  0  0  0  0  0  0  0  0  0  0  0
    4.5554   16.6138   -0.1583 H   0  0  0  0  0  0  0  0  0  0  0  0
    4.7323   19.0710    0.0767 H   0  0  0  0  0  0  0  0  0  0  0  0
    4.1546   18.5578   -1.5570 H   0  0  0  0  0  0  0  0  0  0  0  0
    2.8572   20.4460   -0.8387 H   0  0  0  0  0  0  0  0  0  0  0  0
    2.0410   18.8640    1.4190 H   0  0  0  0  0  0  0  0  0  0  0  0
    2.5376   19.3568   -2.7984 H   0  0  0  0  0  0  0  0  0  0  0  0
    1.4526   17.9348   -2.9637 H   0  0  0  0  0  0  0  0  0  0  0  0
    0.7648   19.5942   -2.9637 H   0  0  0  0  0  0  0  0  0  0  0  0
    0.0895   19.8601    0.4434 H   0  0  0  0  0  0  0  0  0  0  0  0
    0.3424   20.7920   -1.0713 H   0  0  0  0  0  0  0  0  0  0  0  0
   -0.7321   19.3526   -1.0713 H   0  0  0  0  0  0  0  0  0  0  0  0
    1.6385   15.3388    1.8480 H   0  0  0  0  0  0  0  0  0  0  0  0
    2.5781   13.8277    1.6021 H   0  0  0  0  0  0  0  0  0  0  0  0
    3.4162   15.4164    1.6021 H   0  0  0  0  0  0  0  0  0  0  0  0
    4.2925   14.7287   -0.9848 H   0  0  0  0  0  0  0  0  0  0  0  0
    3.4871   13.2362   -0.2370 H   0  0  0  0  0  0  0  0  0  0  0  0
    3.0757   14.3584   -3.0221 H   0  0  0  0  0  0  0  0  0  0  0  0
    3.8265   12.7873   -2.5383 H   0  0  0  0  0  0  0  0  0  0  0  0
    1.7206   12.0412   -0.2681 H   0  0  0  0  0  0  0  0  0  0  0  0
    0.8609   11.0162   -1.4669 H   0  0  0  0  0  0  0  0  0  0  0  0
    2.6558   11.0846   -1.4669 H   0  0  0  0  0  0  0  0  0  0  0  0
  1  2  1  0
  2  3  1  0
  3  4  1  0
  4  5  1  0
  5  6  1  0
  6  7  1  0
  7  8  1  0
  7  9  1  0
  2 10  1  0
 10 11  1  0
 11 12  1  0
 12 13  1  0
 13 14  1  6
 13 15  1  0
 15 16  1  0
 16 17  1  0
 17 18  2  0
 18 19  1  0
 19 20  1  0
 20 21  1  0
 21 22  1  0
 22 23  1  0
 22 24  1  0
 24 25  1  0
 24 26  1  0
 19 27  1  0
 27 28  1  1
 27 29  1  0
 29 30  1  0
 30 31  1  0
 31 32  1  1
  7  5  1  0
 31 10  1  0
 31 13  1  0
 27 15  1  0
 24 18  1  0
  1 33  1  0
  1 34  1  0
  1 35  1  0
  2 36  1  1
  3 37  1  0
  3 38  1  0
  4 39  1  0
  4 40  1  0
  5 41  1  1
  8 42  1  0
  8 43  1  0
  8 44  1  0
  9 45  1  0
  9 46  1  0
  9 47  1  0
 10 48  1  6
 11 49  1  0
 11 50  1  0
 12 51  1  0
 12 52  1  0
 14 53  1  0
 14 54  1  0
 14 55  1  0
 15 56  1  1
 16 57  1  0
 16 58  1  0
 17 59  1  0
 19 60  1  6
 20 61  1  0
 20 62  1  0
 21 63  1  0
 21 64  1  0
 22 65  1  6
 23 66  1  0
 25 67  1  0
 25 68  1  0
 25 69  1  0
 26 70  1  0
 26 71  1  0
 26 72  1  0
 28 73  1  0
 28 74  1  0
 28 75  1  0
 29 76  1  0
 29 77  1  0
 30 78  1  0
 30 79  1  0
 32 80  1  0
 32 81  1  0
 32 82  1  0
M  END
>  <meeko>  (13) 
{"is_sidechain": [false], "intermolecular_energy": 2.731, "internal_energy": -0.839}

$$$$
EPH_relaxed_0001_pdb2pqr_Repair_16_r2_0001_out
     RDKit          3D

 82 86  0  0  0  0  0  0  0  0999 V2000
    3.1160   14.7960   -7.5030 C   0  0  0  0  0  0  0  0  0  0  0  0
    1.5940   14.8680   -7.3540 C   0  0  2  0  0  0  0  0  0  0  0  0
    1.0050   16.1300   -8.0170 C   0  0  0  0  0  0  0  0  0  0  0  0
    1.9370   16.7780   -9.0440 C   0  0  0  0  0  0  0  0  0  0  0  0
    1.5810   16.3810  -10.4450 C   0  0  2  0  0  0  0  0  0  0  0  0
    0.9840   15.0840  -10.5660 O   0  0  0  0  0  0  0  0  0  0  0  0
    2.2650   15.2540  -11.1950 C   0  0  0  0  0  0  0  0  0  0  0  0
    3.3620   14.4520  -10.5670 C   0  0  0  0  0  0  0  0  0  0  0  0
    2.2080   15.2510  -12.6910 C   0  0  0  0  0  0  0  0  0  0  0  0
    1.2130   14.8290   -5.8790 C   0  0  1  0  0  0  0  0  0  0  0  0
   -0.0470   15.6790   -5.5640 C   0  0  0  0  0  0  0  0  0  0  0  0
   -0.8170   14.9380   -4.4420 C   0  0  0  0  0  0  0  0  0  0  0  0
    0.1790   13.8760   -3.9200 C   0  0  1  0  0  0  0  0  0  0  0  0
    1.1140   14.6510   -2.9400 C   0  0  0  0  0  0  0  0  0  0  0  0
   -0.4480   12.6130   -3.2440 C   0  0  2  0  0  0  0  0  0  0  0  0
   -1.2640   12.8930   -1.9700 C   0  0  0  0  0  0  0  0  0  0  0  0
   -0.4900   12.8460   -0.6940 C   0  0  0  0  0  0  0  0  0  0  0  0
    0.7370   12.3140   -0.5420 C   0  0  0  0  0  0  0  0  0  0  0  0
    1.4330   11.5960   -1.7050 C   0  0  1  0  0  0  0  0  0  0  0  0
    2.0300   10.2550   -1.2030 C   0  0  0  0  0  0  0  0  0  0  0  0
    2.9480   10.4390    0.0030 C   0  0  0  0  0  0  0  0  0  0  0  0
    2.2040   11.1040    1.1580 C   0  0  2  0  0  0  0  0  0  0  0  0
    1.1980   10.2050    1.6360 O   0  0  0  0  0  0  0  0  0  0  0  0
    1.5510   12.4590    0.7670 C   0  0  0  0  0  0  0  0  0  0  0  0
    2.6540   13.5220    0.5390 C   0  0  0  0  0  0  0  0  0  0  0  0
    0.7150   12.9530    1.9790 C   0  0  0  0  0  0  0  0  0  0  0  0
    0.5700   11.4210   -3.0290 C   0  0  1  0  0  0  0  0  0  0  0  0
   -0.2830   10.1180   -2.9400 C   0  0  0  0  0  0  0  0  0  0  0  0
    1.5400   11.2340   -4.2540 C   0  0  0  0  0  0  0  0  0  0  0  0
    2.0300   12.5150   -4.9550 C   0  0  0  0  0  0  0  0  0  0  0  0
    0.8580   13.4490   -5.2720 C   0  0  2  0  0  0  0  0  0  0  0  0
   -0.0880   12.7050   -6.2750 C   0  0  0  0  0  0  0  0  0  0  0  0
    3.5813   14.7740   -6.5065 H   0  0  0  0  0  0  0  0  0  0  0  0
    3.3877   13.8840   -8.0548 H   0  0  0  0  0  0  0  0  0  0  0  0
    3.4726   15.6783   -8.0548 H   0  0  0  0  0  0  0  0  0  0  0  0
    1.1695   13.9944   -7.8704 H   0  0  0  0  0  0  0  0  0  0  0  0
    0.0696   15.8513   -8.5242 H   0  0  0  0  0  0  0  0  0  0  0  0
    0.8452   16.8682   -7.2173 H   0  0  0  0  0  0  0  0  0  0  0  0
    1.8616   17.8717   -8.9535 H   0  0  0  0  0  0  0  0  0  0  0  0
    2.9622   16.4350   -8.8407 H   0  0  0  0  0  0  0  0  0  0  0  0
    1.3754   17.4276  -10.7141 H   0  0  0  0  0  0  0  0  0  0  0  0
    3.2795   14.5123   -9.4718 H   0  0  0  0  0  0  0  0  0  0  0  0
    3.2762   13.4021  -10.8839 H   0  0  0  0  0  0  0  0  0  0  0  0
    4.3364   14.8522  -10.8839 H   0  0  0  0  0  0  0  0  0  0  0  0
    1.1591   15.1958  -13.0179 H   0  0  0  0  0  0  0  0  0  0  0  0
    2.6643   16.1744  -13.0772 H   0  0  0  0  0  0  0  0  0  0  0  0
    2.7587   14.3806  -13.0772 H   0  0  0  0  0  0  0  0  0  0  0  0
    2.1481   15.2047   -5.4380 H   0  0  0  0  0  0  0  0  0  0  0  0
    0.2484   16.6819   -5.2221 H   0  0  0  0  0  0  0  0  0  0  0  0
   -0.6745   15.8017   -6.4591 H   0  0  0  0  0  0  0  0  0  0  0  0
   -1.0980   15.6348   -3.6385 H   0  0  0  0  0  0  0  0  0  0  0  0
   -1.7530   14.4887   -4.8054 H   0  0  0  0  0  0  0  0  0  0  0  0
    0.8323   14.4175   -1.9027 H   0  0  0  0  0  0  0  0  0  0  0  0
    2.1576   14.3494   -3.1133 H   0  0  0  0  0  0  0  0  0  0  0  0
    1.0112   15.7324   -3.1133 H   0  0  0  0  0  0  0  0  0  0  0  0
   -1.1763   12.2782   -3.9973 H   0  0  0  0  0  0  0  0  0  0  0  0
   -1.7058   13.8961   -2.0629 H   0  0  0  0  0  0  0  0  0  0  0  0
   -2.0102   12.0876   -1.9033 H   0  0  0  0  0  0  0  0  0  0  0  0
   -0.9628   13.2834    0.1977 H   0  0  0  0  0  0  0  0  0  0  0  0
    2.2415   12.2652   -2.0343 H   0  0  0  0  0  0  0  0  0  0  0  0
    1.2045    9.5856   -0.9192 H   0  0  0  0  0  0  0  0  0  0  0  0
    2.6322    9.8305   -2.0198 H   0  0  0  0  0  0  0  0  0  0  0  0
    3.3146    9.4548    0.3300 H   0  0  0  0  0  0  0  0  0  0  0  0
    3.7890   11.0842   -0.2909 H   0  0  0  0  0  0  0  0  0  0  0  0
    2.9428   11.3271    1.9419 H   0  0  0  0  0  0  0  0  0  0  0  0
    1.1460   10.3090    2.6020 H   0  0  0  0  0  0  0  0  0  0  0  0
    3.0251   13.8796    1.5108 H   0  0  0  0  0  0  0  0  0  0  0  0
    3.4834   13.0740   -0.0279 H   0  0  0  0  0  0  0  0  0  0  0  0
    2.2369   14.3674   -0.0279 H   0  0  0  0  0  0  0  0  0  0  0  0
    1.2144   12.6579    2.9136 H   0  0  0  0  0  0  0  0  0  0  0  0
    0.6261   14.0487    1.9409 H   0  0  0  0  0  0  0  0  0  0  0  0
   -0.2877   12.5023    1.9409 H   0  0  0  0  0  0  0  0  0  0  0  0
   -0.4511    9.8612   -1.8837 H   0  0  0  0  0  0  0  0  0  0  0  0
   -1.2512   10.2789   -3.4368 H   0  0  0  0  0  0  0  0  0  0  0  0
    0.2517    9.2950   -3.4368 H   0  0  0  0  0  0  0  0  0  0  0  0
    2.4270   10.6907   -3.8960 H   0  0  0  0  0  0  0  0  0  0  0  0
    0.9468   10.7008   -5.0115 H   0  0  0  0  0  0  0  0  0  0  0  0
    2.7384   13.0376   -4.2955 H   0  0  0  0  0  0  0  0  0  0  0  0
    2.5191   12.2330   -5.8991 H   0  0  0  0  0  0  0  0  0  0  0  0
   -0.8313   12.1204   -5.7130 H   0  0  0  0  0  0  0  0  0  0  0  0
   -0.6037   13.4421   -6.9081 H   0  0  0  0  0  0  0  0  0  0  0  0
    0.5068   12.0301   -6.9081 H   0  0  0  0  0  0  0  0  0  0  0  0
  1  2  1  0
  2  3  1  0
  3  4  1  0
  4  5  1  0
  5  6  1  0
  6  7  1  0
  7  8  1  0
  7  9  1  0
  2 10  1  0
 10 11  1  0
 11 12  1  0
 12 13  1  0
 13 14  1  1
 13 15  1  0
 15 16  1  0
 16 17  1  0
 17 18  2  0
 18 19  1  0
 19 20  1  0
 20 21  1  0
 21 22  1  0
 22 23  1  0
 22 24  1  0
 24 25  1  0
 24 26  1  0
 19 27  1  0
 27 28  1  1
 27 29  1  0
 29 30  1  0
 30 31  1  0
 31 32  1  6
  7  5  1  0
 31 10  1  0
 31 13  1  0
 27 15  1  0
 24 18  1  0
  1 33  1  0
  1 34  1  0
  1 35  1  0
  2 36  1  6
  3 37  1  0
  3 38  1  0
  4 39  1  0
  4 40  1  0
  5 41  1  6
  8 42  1  0
  8 43  1  0
  8 44  1  0
  9 45  1  0
  9 46  1  0
  9 47  1  0
 10 48  1  1
 11 49  1  0
 11 50  1  0
 12 51  1  0
 12 52  1  0
 14 53  1  0
 14 54  1  0
 14 55  1  0
 15 56  1  6
 16 57  1  0
 16 58  1  0
 17 59  1  0
 19 60  1  6
 20 61  1  0
 20 62  1  0
 21 63  1  0
 21 64  1  0
 22 65  1  1
 23 66  1  0
 25 67  1  0
 25 68  1  0
 25 69  1  0
 26 70  1  0
 26 71  1  0
 26 72  1  0
 28 73  1  0
 28 74  1  0
 28 75  1  0
 29 76  1  0
 29 77  1  0
 30 78  1  0
 30 79  1  0
 32 80  1  0
 32 81  1  0
 32 82  1  0
M  END
>  <meeko>  (14) 
{"is_sidechain": [false], "intermolecular_energy": 2.731, "internal_energy": -0.839}

$$$$
EPH_relaxed_0001_pdb2pqr_Repair_16_r2_0001_out
     RDKit          3D

 82 86  0  0  0  0  0  0  0  0999 V2000
    0.8900   14.7820   -2.6510 C   0  0  0  0  0  0  0  0  0  0  0  0
    1.1630   14.0920   -3.9900 C   0  0  2  0  0  0  0  0  0  0  0  0
    0.4800   14.8170   -5.1670 C   0  0  0  0  0  0  0  0  0  0  0  0
    1.1660   14.5830   -6.5160 C   0  0  0  0  0  0  0  0  0  0  0  0
    0.9030   15.7060   -7.4730 C   0  0  2  0  0  0  0  0  0  0  0  0
    0.3890   15.2990   -8.7470 O   0  0  0  0  0  0  0  0  0  0  0  0
    1.6870   15.9130   -8.7550 C   0  0  0  0  0  0  0  0  0  0  0  0
    2.7960   14.9880   -9.1500 C   0  0  0  0  0  0  0  0  0  0  0  0
    1.7050   17.2770   -9.3710 C   0  0  0  0  0  0  0  0  0  0  0  0
    0.6970   12.6410   -3.9310 C   0  0  1  0  0  0  0  0  0  0  0  0
    1.8270   11.6370   -4.2830 C   0  0  0  0  0  0  0  0  0  0  0  0
    1.5990   10.3810   -3.4020 C   0  0  0  0  0  0  0  0  0  0  0  0
    0.1760   10.5640   -2.8240 C   0  0  1  0  0  0  0  0  0  0  0  0
   -0.7830   10.0940   -3.9620 C   0  0  0  0  0  0  0  0  0  0  0  0
   -0.1220    9.8270   -1.4770 C   0  0  2  0  0  0  0  0  0  0  0  0
   -0.0300    8.2930   -1.5380 C   0  0  0  0  0  0  0  0  0  0  0  0
   -1.3030    7.5910   -1.8790 C   0  0  0  0  0  0  0  0  0  0  0  0
   -2.5320    8.1400   -1.8470 C   0  0  0  0  0  0  0  0  0  0  0  0
   -2.7400    9.5740   -1.3430 C   0  0  1  0  0  0  0  0  0  0  0  0
   -3.9390    9.6080   -0.3590 C   0  0  0  0  0  0  0  0  0  0  0  0
   -5.2070    9.0100   -0.9600 C   0  0  0  0  0  0  0  0  0  0  0  0
   -4.9760    7.5650   -1.3950 C   0  0  2  0  0  0  0  0  0  0  0  0
   -4.7470    6.7640   -0.2320 O   0  0  0  0  0  0  0  0  0  0  0  0
   -3.7850    7.4060   -2.3820 C   0  0  0  0  0  0  0  0  0  0  0  0
   -4.1600    8.0200   -3.7530 C   0  0  0  0  0  0  0  0  0  0  0  0
   -3.5710    5.8880   -2.6310 C   0  0  0  0  0  0  0  0  0  0  0  0
   -1.4520   10.2990   -0.7610 C   0  0  1  0  0  0  0  0  0  0  0  0
   -1.2870    9.9580    0.7520 C   0  0  0  0  0  0  0  0  0  0  0  0
   -1.6560   11.8580   -0.8450 C   0  0  0  0  0  0  0  0  0  0  0  0
   -1.2320   12.5440   -2.1580 C   0  0  0  0  0  0  0  0  0  0  0  0
    0.1800   12.1150   -2.5690 C   0  0  2  0  0  0  0  0  0  0  0  0
    1.1700   12.5940   -1.4540 C   0  0  0  0  0  0  0  0  0  0  0  0
    1.1583   14.1038   -1.8276 H   0  0  0  0  0  0  0  0  0  0  0  0
    1.4929   15.6994   -2.5816 H   0  0  0  0  0  0  0  0  0  0  0  0
   -0.1774   15.0386   -2.5816 H   0  0  0  0  0  0  0  0  0  0  0  0
    2.2483   14.1277   -4.1657 H   0  0  0  0  0  0  0  0  0  0  0  0
   -0.5582   14.4606   -5.2389 H   0  0  0  0  0  0  0  0  0  0  0  0
    0.5402   15.8954   -4.9586 H   0  0  0  0  0  0  0  0  0  0  0  0
    2.2508   14.4987   -6.3546 H   0  0  0  0  0  0  0  0  0  0  0  0
    0.7597   13.6584   -6.9519 H   0  0  0  0  0  0  0  0  0  0  0  0
    0.6508   16.3842   -6.6445 H   0  0  0  0  0  0  0  0  0  0  0  0
    3.2777   14.5862   -8.2464 H   0  0  0  0  0  0  0  0  0  0  0  0
    2.3873   14.1594   -9.7469 H   0  0  0  0  0  0  0  0  0  0  0  0
    3.5378   15.5388   -9.7469 H   0  0  0  0  0  0  0  0  0  0  0  0
    1.7150   18.0379   -8.5767 H   0  0  0  0  0  0  0  0  0  0  0  0
    2.6047   17.3859   -9.9945 H   0  0  0  0  0  0  0  0  0  0  0  0
    0.8085   17.4096   -9.9945 H   0  0  0  0  0  0  0  0  0  0  0  0
   -0.1294   12.6824   -4.6559 H   0  0  0  0  0  0  0  0  0  0  0  0
    1.7759   11.3671   -5.3481 H   0  0  0  0  0  0  0  0  0  0  0  0
    2.8182   12.0761   -4.0964 H   0  0  0  0  0  0  0  0  0  0  0  0
    1.6571    9.4652   -4.0086 H   0  0  0  0  0  0  0  0  0  0  0  0
    2.3599   10.2800   -2.6140 H   0  0  0  0  0  0  0  0  0  0  0  0
   -1.6874    9.6508   -3.5197 H   0  0  0  0  0  0  0  0  0  0  0  0
   -1.0640   10.9565   -4.5842 H   0  0  0  0  0  0  0  0  0  0  0  0
   -0.2735    9.3435   -4.5842 H   0  0  0  0  0  0  0  0  0  0  0  0
    0.7151   10.1504   -0.8409 H   0  0  0  0  0  0  0  0  0  0  0  0
    0.7190    8.0273   -2.2986 H   0  0  0  0  0  0  0  0  0  0  0  0
    0.2369    7.9634   -0.5230 H   0  0  0  0  0  0  0  0  0  0  0  0
   -1.2306    6.5360   -2.1820 H   0  0  0  0  0  0  0  0  0  0  0  0
   -2.9698   10.1783   -2.2329 H   0  0  0  0  0  0  0  0  0  0  0  0
   -3.6721    9.0358    0.5417 H   0  0  0  0  0  0  0  0  0  0  0  0
   -4.1468   10.6620   -0.1227 H   0  0  0  0  0  0  0  0  0  0  0  0
   -6.0088    9.0355   -0.2073 H   0  0  0  0  0  0  0  0  0  0  0  0
   -5.4895    9.6016   -1.8433 H   0  0  0  0  0  0  0  0  0  0  0  0
   -5.8765    7.2345   -1.9334 H   0  0  0  0  0  0  0  0  0  0  0  0
   -5.3850    7.0420    0.4470 H   0  0  0  0  0  0  0  0  0  0  0  0
   -4.7275    8.9491   -3.5958 H   0  0  0  0  0  0  0  0  0  0  0  0
   -3.2430    8.2417   -4.3186 H   0  0  0  0  0  0  0  0  0  0  0  0
   -4.7760    7.3054   -4.3186 H   0  0  0  0  0  0  0  0  0  0  0  0
   -3.4973    5.3650   -1.6661 H   0  0  0  0  0  0  0  0  0  0  0  0
   -4.4214    5.4866   -3.2016 H   0  0  0  0  0  0  0  0  0  0  0  0
   -2.6427    5.7373   -3.2016 H   0  0  0  0  0  0  0  0  0  0  0  0
   -1.6864   10.7834    1.3596 H   0  0  0  0  0  0  0  0  0  0  0  0
   -1.8376    9.0338    0.9817 H   0  0  0  0  0  0  0  0  0  0  0  0
   -0.2206    9.8162    0.9817 H   0  0  0  0  0  0  0  0  0  0  0  0
   -2.7261   12.0623   -0.6932 H   0  0  0  0  0  0  0  0  0  0  0  0
   -0.9930   12.2772   -0.0739 H   0  0  0  0  0  0  0  0  0  0  0  0
   -1.9386   12.2660   -2.9539 H   0  0  0  0  0  0  0  0  0  0  0  0
   -1.2367   13.6329   -2.0025 H   0  0  0  0  0  0  0  0  0  0  0  0
    0.7371   12.3846   -0.4647 H   0  0  0  0  0  0  0  0  0  0  0  0
    2.1253   12.0585   -1.5571 H   0  0  0  0  0  0  0  0  0  0  0  0
    1.3429   13.6754   -1.5571 H   0  0  0  0  0  0  0  0  0  0  0  0
  1  2  1  0
  2  3  1  0
  3  4  1  0
  4  5  1  0
  5  6  1  0
  6  7  1  0
  7  8  1  0
  7  9  1  0
  2 10  1  0
 10 11  1  0
 11 12  1  0
 12 13  1  0
 13 14  1  6
 13 15  1  0
 15 16  1  0
 16 17  1  0
 17 18  2  0
 18 19  1  0
 19 20  1  0
 20 21  1  0
 21 22  1  0
 22 23  1  0
 22 24  1  0
 24 25  1  0
 24 26  1  0
 19 27  1  0
 27 28  1  1
 27 29  1  0
 29 30  1  0
 30 31  1  0
 31 32  1  1
  7  5  1  0
 31 10  1  0
 31 13  1  0
 27 15  1  0
 24 18  1  0
  1 33  1  0
  1 34  1  0
  1 35  1  0
  2 36  1  6
  3 37  1  0
  3 38  1  0
  4 39  1  0
  4 40  1  0
  5 41  1  1
  8 42  1  0
  8 43  1  0
  8 44  1  0
  9 45  1  0
  9 46  1  0
  9 47  1  0
 10 48  1  6
 11 49  1  0
 11 50  1  0
 12 51  1  0
 12 52  1  0
 14 53  1  0
 14 54  1  0
 14 55  1  0
 15 56  1  1
 16 57  1  0
 16 58  1  0
 17 59  1  0
 19 60  1  6
 20 61  1  0
 20 62  1  0
 21 63  1  0
 21 64  1  0
 22 65  1  6
 23 66  1  0
 25 67  1  0
 25 68  1  0
 25 69  1  0
 26 70  1  0
 26 71  1  0
 26 72  1  0
 28 73  1  0
 28 74  1  0
 28 75  1  0
 29 76  1  0
 29 77  1  0
 30 78  1  0
 30 79  1  0
 32 80  1  0
 32 81  1  0
 32 82  1  0
M  END
>  <meeko>  (15) 
{"is_sidechain": [false], "intermolecular_energy": 2.731, "internal_energy": -0.839}

$$$$
EPH_relaxed_0001_pdb2pqr_Repair_16_r2_0001_out
     RDKit          3D

 82 86  0  0  0  0  0  0  0  0999 V2000
   -2.4540    7.7470   -0.0550 C   0  0  0  0  0  0  0  0  0  0  0  0
   -3.0810    9.1440   -0.0510 C   0  0  2  0  0  0  0  0  0  0  0  0
   -4.5720    9.1120   -0.4390 C   0  0  0  0  0  0  0  0  0  0  0  0
   -5.1610    7.7000   -0.5060 C   0  0  0  0  0  0  0  0  0  0  0  0
   -5.8920    7.4650   -1.7930 C   0  0  2  0  0  0  0  0  0  0  0  0
   -6.8250    8.4930   -2.1490 O   0  0  0  0  0  0  0  0  0  0  0  0
   -7.3830    7.1990   -1.8720 C   0  0  0  0  0  0  0  0  0  0  0  0
   -8.2340    7.1530   -0.6420 C   0  0  0  0  0  0  0  0  0  0  0  0
   -7.9230    6.5040   -3.0830 C   0  0  0  0  0  0  0  0  0  0  0  0
   -2.3150   10.0600   -0.9980 C   0  0  1  0  0  0  0  0  0  0  0  0
   -2.9660   11.4630   -1.1280 C   0  0  0  0  0  0  0  0  0  0  0  0
   -1.8080   12.4790   -1.2970 C   0  0  0  0  0  0  0  0  0  0  0  0
   -0.5640   11.6080   -1.5910 C   0  0  1  0  0  0  0  0  0  0  0  0
   -0.6590   11.2730   -3.1120 C   0  0  0  0  0  0  0  0  0  0  0  0
    0.8210   12.2340   -1.2230 C   0  0  2  0  0  0  0  0  0  0  0  0
    1.1810   13.5180   -1.9910 C   0  0  0  0  0  0  0  0  0  0  0  0
    1.9290   13.3100   -3.2660 C   0  0  0  0  0  0  0  0  0  0  0  0
    2.5450   12.1710   -3.6350 C   0  0  0  0  0  0  0  0  0  0  0  0
    2.6100   10.9680   -2.6860 C   0  0  1  0  0  0  0  0  0  0  0  0
    4.0550   10.4050   -2.6610 C   0  0  0  0  0  0  0  0  0  0  0  0
    4.5790   10.0770   -4.0560 C   0  0  0  0  0  0  0  0  0  0  0  0
    4.5530   11.3120   -4.9520 C   0  0  2  0  0  0  0  0  0  0  0  0
    5.4990   12.2630   -4.4540 O   0  0  0  0  0  0  0  0  0  0  0  0
    3.1490   11.9720   -5.0470 C   0  0  0  0  0  0  0  0  0  0  0  0
    2.1980   11.0580   -5.8580 C   0  0  0  0  0  0  0  0  0  0  0  0
    3.2920   13.2840   -5.8640 C   0  0  0  0  0  0  0  0  0  0  0  0
    2.0210   11.2020   -1.2280 C   0  0  1  0  0  0  0  0  0  0  0  0
    3.1220   11.7960   -0.2980 C   0  0  0  0  0  0  0  0  0  0  0  0
    1.6170    9.8130   -0.6070 C   0  0  0  0  0  0  0  0  0  0  0  0
    0.1940    9.3040   -0.9080 C   0  0  0  0  0  0  0  0  0  0  0  0
   -0.8470   10.3940   -0.6330 C   0  0  2  0  0  0  0  0  0  0  0  0
   -0.7890   10.7360    0.8940 C   0  0  0  0  0  0  0  0  0  0  0  0
   -2.3028    7.4100    0.9811 H   0  0  0  0  0  0  0  0  0  0  0  0
   -3.1238    7.0460   -0.5745 H   0  0  0  0  0  0  0  0  0  0  0  0
   -1.4850    7.7815   -0.5745 H   0  0  0  0  0  0  0  0  0  0  0  0
   -3.0160    9.5333    0.9758 H   0  0  0  0  0  0  0  0  0  0  0  0
   -5.1375    9.6890    0.3075 H   0  0  0  0  0  0  0  0  0  0  0  0
   -4.6504    9.5410   -1.4488 H   0  0  0  0  0  0  0  0  0  0  0  0
   -4.3439    6.9685   -0.4214 H   0  0  0  0  0  0  0  0  0  0  0  0
   -5.8777    7.5877    0.3209 H   0  0  0  0  0  0  0  0  0  0  0  0
   -5.0247    6.9364   -2.2154 H   0  0  0  0  0  0  0  0  0  0  0  0
   -7.5913    7.1877    0.2500 H   0  0  0  0  0  0  0  0  0  0  0  0
   -8.9166    8.0156   -0.6359 H   0  0  0  0  0  0  0  0  0  0  0  0
   -8.8197    6.2219   -0.6359 H   0  0  0  0  0  0  0  0  0  0  0  0
   -8.5700    5.6713   -2.7699 H   0  0  0  0  0  0  0  0  0  0  0  0
   -8.5071    7.2161   -3.6845 H   0  0  0  0  0  0  0  0  0  0  0  0
   -7.0887    6.1140   -3.6845 H   0  0  0  0  0  0  0  0  0  0  0  0
   -2.3452    9.4476   -1.9113 H   0  0  0  0  0  0  0  0  0  0  0  0
   -3.6280   11.4936   -2.0060 H   0  0  0  0  0  0  0  0  0  0  0  0
   -3.5736   11.7002   -0.2422 H   0  0  0  0  0  0  0  0  0  0  0  0
   -2.0103   13.1624   -2.1349 H   0  0  0  0  0  0  0  0  0  0  0  0
   -1.6739   13.1104   -0.4063 H   0  0  0  0  0  0  0  0  0  0  0  0
   -0.9571   10.2217   -3.2380 H   0  0  0  0  0  0  0  0  0  0  0  0
   -1.4075   11.9256   -3.5851 H   0  0  0  0  0  0  0  0  0  0  0  0
    0.3207   11.4355   -3.5851 H   0  0  0  0  0  0  0  0  0  0  0  0
    0.6702   12.5428   -0.1781 H   0  0  0  0  0  0  0  0  0  0  0  0
    0.2455   14.0458   -2.2280 H   0  0  0  0  0  0  0  0  0  0  0  0
    1.8538   14.0876   -1.3330 H   0  0  0  0  0  0  0  0  0  0  0  0
    1.9814   14.1592   -3.9632 H   0  0  0  0  0  0  0  0  0  0  0  0
    1.9237   10.2157   -3.1020 H   0  0  0  0  0  0  0  0  0  0  0  0
    4.7174   11.1540   -2.2025 H   0  0  0  0  0  0  0  0  0  0  0  0
    4.0392    9.4700   -2.0817 H   0  0  0  0  0  0  0  0  0  0  0  0
    5.6136    9.7122   -3.9755 H   0  0  0  0  0  0  0  0  0  0  0  0
    3.9333    9.3060   -4.5016 H   0  0  0  0  0  0  0  0  0  0  0  0
    4.8150   10.9861   -5.9694 H   0  0  0  0  0  0  0  0  0  0  0  0
    5.5430   12.9960   -5.0920 H   0  0  0  0  0  0  0  0  0  0  0  0
    1.5812   10.4652   -5.1666 H   0  0  0  0  0  0  0  0  0  0  0  0
    1.5463   11.6773   -6.4918 H   0  0  0  0  0  0  0  0  0  0  0  0
    2.7910   10.3822   -6.4918 H   0  0  0  0  0  0  0  0  0  0  0  0
    3.3849   14.1366   -5.1752 H   0  0  0  0  0  0  0  0  0  0  0  0
    4.1891   13.2253   -6.4979 H   0  0  0  0  0  0  0  0  0  0  0  0
    2.4033   13.4199   -6.4979 H   0  0  0  0  0  0  0  0  0  0  0  0
    2.8364   11.6419    0.7531 H   0  0  0  0  0  0  0  0  0  0  0  0
    4.0797   11.2922   -0.4954 H   0  0  0  0  0  0  0  0  0  0  0  0
    3.2268   12.8731   -0.4954 H   0  0  0  0  0  0  0  0  0  0  0  0
    2.3259    9.0612   -0.9842 H   0  0  0  0  0  0  0  0  0  0  0  0
    1.6431    9.9664    0.4819 H   0  0  0  0  0  0  0  0  0  0  0  0
    0.1339    9.0074   -1.9656 H   0  0  0  0  0  0  0  0  0  0  0  0
   -0.0169    8.4443   -0.2549 H   0  0  0  0  0  0  0  0  0  0  0  0
   -0.9445    9.8190    1.4813 H   0  0  0  0  0  0  0  0  0  0  0  0
    0.1946   11.1645    1.1367 H   0  0  0  0  0  0  0  0  0  0  0  0
   -1.5764   11.4648    1.1367 H   0  0  0  0  0  0  0  0  0  0  0  0
  1  2  1  0
  2  3  1  0
  3  4  1  0
  4  5  1  0
  5  6  1  0
  6  7  1  0
  7  8  1  0
  7  9  1  0
  2 10  1  0
 10 11  1  0
 11 12  1  0
 12 13  1  0
 13 14  1  6
 13 15  1  0
 15 16  1  0
 16 17  1  0
 17 18  2  0
 18 19  1  0
 19 20  1  0
 20 21  1  0
 21 22  1  0
 22 23  1  0
 22 24  1  0
 24 25  1  0
 24 26  1  0
 19 27  1  0
 27 28  1  1
 27 29  1  0
 29 30  1  0
 30 31  1  0
 31 32  1  1
  7  5  1  0
 31 10  1  0
 31 13  1  0
 27 15  1  0
 24 18  1  0
  1 33  1  0
  1 34  1  0
  1 35  1  0
  2 36  1  1
  3 37  1  0
  3 38  1  0
  4 39  1  0
  4 40  1  0
  5 41  1  6
  8 42  1  0
  8 43  1  0
  8 44  1  0
  9 45  1  0
  9 46  1  0
  9 47  1  0
 10 48  1  6
 11 49  1  0
 11 50  1  0
 12 51  1  0
 12 52  1  0
 14 53  1  0
 14 54  1  0
 14 55  1  0
 15 56  1  1
 16 57  1  0
 16 58  1  0
 17 59  1  0
 19 60  1  6
 20 61  1  0
 20 62  1  0
 21 63  1  0
 21 64  1  0
 22 65  1  6
 23 66  1  0
 25 67  1  0
 25 68  1  0
 25 69  1  0
 26 70  1  0
 26 71  1  0
 26 72  1  0
 28 73  1  0
 28 74  1  0
 28 75  1  0
 29 76  1  0
 29 77  1  0
 30 78  1  0
 30 79  1  0
 32 80  1  0
 32 81  1  0
 32 82  1  0
M  END
>  <meeko>  (16) 
{"is_sidechain": [false], "intermolecular_energy": 2.731, "internal_energy": -0.839}

$$$$
EPH_relaxed_0001_pdb2pqr_Repair_16_r2_0001_out
     RDKit          3D

 82 86  0  0  0  0  0  0  0  0999 V2000
   -1.7820   14.7270    0.3160 C   0  0  0  0  0  0  0  0  0  0  0  0
   -0.4170   15.4210    0.3340 C   0  0  2  0  0  0  0  0  0  0  0  0
   -0.3380   16.5750   -0.6850 C   0  0  0  0  0  0  0  0  0  0  0  0
    1.0830   17.0940   -0.9190 C   0  0  0  0  0  0  0  0  0  0  0  0
    1.2500   18.4980   -0.4220 C   0  0  2  0  0  0  0  0  0  0  0  0
    2.2950   19.2410   -1.0650 O   0  0  0  0  0  0  0  0  0  0  0  0
    2.4740   18.9770    0.3370 C   0  0  0  0  0  0  0  0  0  0  0  0
    3.6130   18.0560    0.6420 C   0  0  0  0  0  0  0  0  0  0  0  0
    2.3490   20.1940    1.1990 C   0  0  0  0  0  0  0  0  0  0  0  0
    0.6860   14.4050    0.0570 C   0  0  1  0  0  0  0  0  0  0  0  0
    0.8320   13.3570    1.1920 C   0  0  0  0  0  0  0  0  0  0  0  0
    1.2220   12.0180    0.5160 C   0  0  0  0  0  0  0  0  0  0  0  0
    1.6100   12.4080   -0.9300 C   0  0  1  0  0  0  0  0  0  0  0  0
    3.0780   12.9280   -0.8240 C   0  0  0  0  0  0  0  0  0  0  0  0
    1.4720   11.2870   -2.0100 C   0  0  2  0  0  0  0  0  0  0  0  0
    2.3700   10.0570   -1.7930 C   0  0  0  0  0  0  0  0  0  0  0  0
    3.7130   10.1260   -2.4420 C   0  0  0  0  0  0  0  0  0  0  0  0
    4.0750   10.9990   -3.4000 C   0  0  0  0  0  0  0  0  0  0  0  0
    3.0570   11.9810   -3.9960 C   0  0  1  0  0  0  0  0  0  0  0  0
    3.1780   11.9760   -5.5430 C   0  0  0  0  0  0  0  0  0  0  0  0
    4.6020   12.2510   -6.0180 C   0  0  0  0  0  0  0  0  0  0  0  0
    5.5750   11.2210   -5.4520 C   0  0  2  0  0  0  0  0  0  0  0  0
    5.2730    9.9420   -6.0180 O   0  0  0  0  0  0  0  0  0  0  0  0
    5.5340   11.1280   -3.9010 C   0  0  0  0  0  0  0  0  0  0  0  0
    6.1470   12.4110   -3.2860 C   0  0  0  0  0  0  0  0  0  0  0  0
    6.4570    9.9570   -3.4680 C   0  0  0  0  0  0  0  0  0  0  0  0
    1.5560   11.8090   -3.5010 C   0  0  1  0  0  0  0  0  0  0  0  0
    0.8220   10.7540   -4.3850 C   0  0  0  0  0  0  0  0  0  0  0  0
    0.7900   13.1690   -3.7030 C   0  0  0  0  0  0  0  0  0  0  0  0
    0.8660   14.1880   -2.5510 C   0  0  0  0  0  0  0  0  0  0  0  0
    0.5390   13.5240   -1.2090 C   0  0  2  0  0  0  0  0  0  0  0  0
   -0.9400   13.0110   -1.2780 C   0  0  0  0  0  0  0  0  0  0  0  0
   -2.1197   14.5553    1.3487 H   0  0  0  0  0  0  0  0  0  0  0  0
   -2.5104   15.3642   -0.2068 H   0  0  0  0  0  0  0  0  0  0  0  0
   -1.6963   13.7630   -0.2068 H   0  0  0  0  0  0  0  0  0  0  0  0
   -0.2801   15.8555    1.3352 H   0  0  0  0  0  0  0  0  0  0  0  0
   -0.7399   16.2186   -1.6449 H   0  0  0  0  0  0  0  0  0  0  0  0
   -0.9208   17.4105   -0.2699 H   0  0  0  0  0  0  0  0  0  0  0  0
    1.7925   16.4416   -0.3889 H   0  0  0  0  0  0  0  0  0  0  0  0
    1.2756   17.0888   -2.0020 H   0  0  0  0  0  0  0  0  0  0  0  0
    0.1734   18.5761   -0.2104 H   0  0  0  0  0  0  0  0  0  0  0  0
    3.7277   17.9632    1.7321 H   0  0  0  0  0  0  0  0  0  0  0  0
    3.4096   17.0654    0.2091 H   0  0  0  0  0  0  0  0  0  0  0  0
    4.5391   18.4622    0.2091 H   0  0  0  0  0  0  0  0  0  0  0  0
    2.3794   19.8979    2.2580 H   0  0  0  0  0  0  0  0  0  0  0  0
    3.1813   20.8810    0.9863 H   0  0  0  0  0  0  0  0  0  0  0  0
    1.3944   20.6975    0.9863 H   0  0  0  0  0  0  0  0  0  0  0  0
    1.5412   15.0874   -0.0564 H   0  0  0  0  0  0  0  0  0  0  0  0
    1.6172   13.6685    1.8966 H   0  0  0  0  0  0  0  0  0  0  0  0
   -0.1052   13.2553    1.7589 H   0  0  0  0  0  0  0  0  0  0  0  0
    2.0741   11.5549    1.0350 H   0  0  0  0  0  0  0  0  0  0  0  0
    0.4039   11.2832    0.5441 H   0  0  0  0  0  0  0  0  0  0  0  0
    3.3564   13.0266    0.2356 H   0  0  0  0  0  0  0  0  0  0  0  0
    3.7559   12.2153   -1.3164 H   0  0  0  0  0  0  0  0  0  0  0  0
    3.1561   13.9085   -1.3164 H   0  0  0  0  0  0  0  0  0  0  0  0
    0.4417   10.9350   -1.8532 H   0  0  0  0  0  0  0  0  0  0  0  0
    2.5214    9.9333   -0.7105 H   0  0  0  0  0  0  0  0  0  0  0  0
    1.8473    9.2114   -2.2639 H   0  0  0  0  0  0  0  0  0  0  0  0
    4.4708    9.4017   -2.1087 H   0  0  0  0  0  0  0  0  0  0  0  0
    3.3249   12.9730   -3.6034 H   0  0  0  0  0  0  0  0  0  0  0  0
    2.8649   10.9905   -5.9183 H   0  0  0  0  0  0  0  0  0  0  0  0
    2.5347   12.7793   -5.9315 H   0  0  0  0  0  0  0  0  0  0  0  0
    4.6297   12.2065   -7.1167 H   0  0  0  0  0  0  0  0  0  0  0  0
    4.9029   13.2486   -5.6654 H   0  0  0  0  0  0  0  0  0  0  0  0
    6.5914   11.5446   -5.7207 H   0  0  0  0  0  0  0  0  0  0  0  0
    6.0910    9.5940   -6.4120 H   0  0  0  0  0  0  0  0  0  0  0  0
    6.1146   12.3432   -2.1886 H   0  0  0  0  0  0  0  0  0  0  0  0
    7.1912   12.5132   -3.6164 H   0  0  0  0  0  0  0  0  0  0  0  0
    5.5704   13.2876   -3.6164 H   0  0  0  0  0  0  0  0  0  0  0  0
    6.4959    9.9076   -2.3698 H   0  0  0  0  0  0  0  0  0  0  0  0
    6.0591    9.0109   -3.8637 H   0  0  0  0  0  0  0  0  0  0  0  0
    7.4699   10.1229   -3.8637 H   0  0  0  0  0  0  0  0  0  0  0  0
    0.3138   10.0236   -3.7383 H   0  0  0  0  0  0  0  0  0  0  0  0
    0.0800   11.2602   -5.0200 H   0  0  0  0  0  0  0  0  0  0  0  0
    1.5546   10.2343   -5.0200 H   0  0  0  0  0  0  0  0  0  0  0  0
    1.2012   13.6519   -4.6017 H   0  0  0  0  0  0  0  0  0  0  0  0
   -0.2725   12.8927   -3.7724 H   0  0  0  0  0  0  0  0  0  0  0  0
    1.8823   14.6065   -2.5072 H   0  0  0  0  0  0  0  0  0  0  0  0
    0.1297   14.9837   -2.7373 H   0  0  0  0  0  0  0  0  0  0  0  0
   -1.3292   12.8760   -0.2581 H   0  0  0  0  0  0  0  0  0  0  0  0
   -1.5588   13.7470   -1.8122 H   0  0  0  0  0  0  0  0  0  0  0  0
   -0.9702   12.0499   -1.8122 H   0  0  0  0  0  0  0  0  0  0  0  0
  1  2  1  0
  2  3  1  0
  3  4  1  0
  4  5  1  0
  5  6  1  0
  6  7  1  0
  7  8  1  0
  7  9  1  0
  2 10  1  0
 10 11  1  0
 11 12  1  0
 12 13  1  0
 13 14  1  1
 13 15  1  0
 15 16  1  0
 16 17  1  0
 17 18  2  0
 18 19  1  0
 19 20  1  0
 20 21  1  0
 21 22  1  0
 22 23  1  0
 22 24  1  0
 24 25  1  0
 24 26  1  0
 19 27  1  0
 27 28  1  6
 27 29  1  0
 29 30  1  0
 30 31  1  0
 31 32  1  6
  7  5  1  0
 31 10  1  0
 31 13  1  0
 27 15  1  0
 24 18  1  0
  1 33  1  0
  1 34  1  0
  1 35  1  0
  2 36  1  1
  3 37  1  0
  3 38  1  0
  4 39  1  0
  4 40  1  0
  5 41  1  1
  8 42  1  0
  8 43  1  0
  8 44  1  0
  9 45  1  0
  9 46  1  0
  9 47  1  0
 10 48  1  6
 11 49  1  0
 11 50  1  0
 12 51  1  0
 12 52  1  0
 14 53  1  0
 14 54  1  0
 14 55  1  0
 15 56  1  6
 16 57  1  0
 16 58  1  0
 17 59  1  0
 19 60  1  1
 20 61  1  0
 20 62  1  0
 21 63  1  0
 21 64  1  0
 22 65  1  1
 23 66  1  0
 25 67  1  0
 25 68  1  0
 25 69  1  0
 26 70  1  0
 26 71  1  0
 26 72  1  0
 28 73  1  0
 28 74  1  0
 28 75  1  0
 29 76  1  0
 29 77  1  0
 30 78  1  0
 30 79  1  0
 32 80  1  0
 32 81  1  0
 32 82  1  0
M  END
>  <meeko>  (17) 
{"is_sidechain": [false], "intermolecular_energy": 2.731, "internal_energy": -0.839}

$$$$
EPH_relaxed_0001_pdb2pqr_Repair_16_r2_0001_out
     RDKit          3D

 82 86  0  0  0  0  0  0  0  0999 V2000
    0.2130   17.5900   -2.5540 C   0  0  0  0  0  0  0  0  0  0  0  0
    0.1910   16.9240   -1.1750 C   0  0  2  0  0  0  0  0  0  0  0  0
    0.4380   17.9350   -0.0380 C   0  0  0  0  0  0  0  0  0  0  0  0
    0.5360   19.3870   -0.5150 C   0  0  0  0  0  0  0  0  0  0  0  0
   -0.7300   20.1440   -0.2540 C   0  0  2  0  0  0  0  0  0  0  0  0
   -1.1250   20.1930    1.1240 O   0  0  0  0  0  0  0  0  0  0  0  0
   -2.0090   19.4910    0.2360 C   0  0  0  0  0  0  0  0  0  0  0  0
   -2.0850   18.0180    0.4920 C   0  0  0  0  0  0  0  0  0  0  0  0
   -3.3090   20.1940   -0.0010 C   0  0  0  0  0  0  0  0  0  0  0  0
    1.2320   15.8120   -1.1190 C   0  0  1  0  0  0  0  0  0  0  0  0
    1.4150   15.2380    0.3110 C   0  0  0  0  0  0  0  0  0  0  0  0
    1.7060   13.7230    0.1510 C   0  0  0  0  0  0  0  0  0  0  0  0
    2.0090   13.5420   -1.3550 C   0  0  1  0  0  0  0  0  0  0  0  0
    3.5000   13.9740   -1.5190 C   0  0  0  0  0  0  0  0  0  0  0  0
    1.7530   12.1160   -1.9440 C   0  0  2  0  0  0  0  0  0  0  0  0
    2.6170   10.9960   -1.3390 C   0  0  0  0  0  0  0  0  0  0  0  0
    3.9140   10.7440   -2.0350 C   0  0  0  0  0  0  0  0  0  0  0  0
    4.2420   11.1890   -3.2620 C   0  0  0  0  0  0  0  0  0  0  0  0
    3.2240   11.9480   -4.1230 C   0  0  1  0  0  0  0  0  0  0  0  0
    3.2390   11.3790   -5.5660 C   0  0  0  0  0  0  0  0  0  0  0  0
    4.6360   11.3760   -6.1800 C   0  0  0  0  0  0  0  0  0  0  0  0
    5.6050   10.5630   -5.3260 C   0  0  2  0  0  0  0  0  0  0  0  0
    5.2160    9.1860   -5.3720 O   0  0  0  0  0  0  0  0  0  0  0  0
    5.6680   11.0390   -3.8480 C   0  0  0  0  0  0  0  0  0  0  0  0
    6.3700   12.4170   -3.7740 C   0  0  0  0  0  0  0  0  0  0  0  0
    6.5720   10.0490   -3.0650 C   0  0  0  0  0  0  0  0  0  0  0  0
    1.7560   12.0580   -3.5250 C   0  0  1  0  0  0  0  0  0  0  0  0
    0.9220   10.8030   -3.9260 C   0  0  0  0  0  0  0  0  0  0  0  0
    1.0300   13.2980   -4.1700 C   0  0  0  0  0  0  0  0  0  0  0  0
    1.2250   14.6580   -3.4730 C   0  0  0  0  0  0  0  0  0  0  0  0
    0.9650   14.5440   -1.9680 C   0  0  2  0  0  0  0  0  0  0  0  0
   -0.5340   14.1320   -1.7710 C   0  0  0  0  0  0  0  0  0  0  0  0
    0.2491   18.6827   -2.4329 H   0  0  0  0  0  0  0  0  0  0  0  0
    1.1005   17.2532   -3.1098 H   0  0  0  0  0  0  0  0  0  0  0  0
   -0.6948   17.3125   -3.1098 H   0  0  0  0  0  0  0  0  0  0  0  0
   -0.8136   16.5009   -1.0274 H   0  0  0  0  0  0  0  0  0  0  0  0
   -0.3926   17.8605    0.6793 H   0  0  0  0  0  0  0  0  0  0  0  0
    1.4076   17.6793    0.4142 H   0  0  0  0  0  0  0  0  0  0  0  0
    1.3627   19.8814    0.0162 H   0  0  0  0  0  0  0  0  0  0  0  0
    0.7127   19.3795   -1.6007 H   0  0  0  0  0  0  0  0  0  0  0  0
   -0.5235   20.8254   -1.0925 H   0  0  0  0  0  0  0  0  0  0  0  0
   -2.0945   17.8343    1.5765 H   0  0  0  0  0  0  0  0  0  0  0  0
   -3.0051   17.6149    0.0438 H   0  0  0  0  0  0  0  0  0  0  0  0
   -1.2112   17.5224    0.0438 H   0  0  0  0  0  0  0  0  0  0  0  0
   -3.7719   20.4443    0.9650 H   0  0  0  0  0  0  0  0  0  0  0  0
   -3.1280   21.1172   -0.5711 H   0  0  0  0  0  0  0  0  0  0  0  0
   -3.9825   19.5371   -0.5711 H   0  0  0  0  0  0  0  0  0  0  0  0
    2.1027   16.3539   -1.5167 H   0  0  0  0  0  0  0  0  0  0  0  0
    2.2581   15.7347    0.8136 H   0  0  0  0  0  0  0  0  0  0  0  0
    0.5156   15.4051    0.9218 H   0  0  0  0  0  0  0  0  0  0  0  0
    2.5730   13.4275    0.7600 H   0  0  0  0  0  0  0  0  0  0  0  0
    0.8646   13.0985    0.4857 H   0  0  0  0  0  0  0  0  0  0  0  0
    3.9549   14.1058   -0.5262 H   0  0  0  0  0  0  0  0  0  0  0  0
    4.0479   13.1977   -2.0732 H   0  0  0  0  0  0  0  0  0  0  0  0
    3.5480   14.9230   -2.0732 H   0  0  0  0  0  0  0  0  0  0  0  0
    0.7230   11.9076   -1.6190 H   0  0  0  0  0  0  0  0  0  0  0  0
    2.8378   11.2634   -0.2951 H   0  0  0  0  0  0  0  0  0  0  0  0
    2.0314   10.0706   -1.4424 H   0  0  0  0  0  0  0  0  0  0  0  0
    4.6646   10.1440   -1.4996 H   0  0  0  0  0  0  0  0  0  0  0  0
    3.5558   12.9967   -4.1327 H   0  0  0  0  0  0  0  0  0  0  0  0
    2.8626   10.3457   -5.5414 H   0  0  0  0  0  0  0  0  0  0  0  0
    2.6031   12.0272   -6.1868 H   0  0  0  0  0  0  0  0  0  0  0  0
    4.5860   10.9350   -7.1865 H   0  0  0  0  0  0  0  0  0  0  0  0
    4.9989   12.4131   -6.2322 H   0  0  0  0  0  0  0  0  0  0  0  0
    6.6124   10.7059   -5.7440 H   0  0  0  0  0  0  0  0  0  0  0  0
    5.9480    8.6870   -5.7730 H   0  0  0  0  0  0  0  0  0  0  0  0
    6.5137   12.6992   -2.7206 H   0  0  0  0  0  0  0  0  0  0  0  0
    7.3478   12.3577   -4.2744 H   0  0  0  0  0  0  0  0  0  0  0  0
    5.7472   13.1731   -4.2744 H   0  0  0  0  0  0  0  0  0  0  0  0
    6.4328   10.2014   -1.9845 H   0  0  0  0  0  0  0  0  0  0  0  0
    6.2986    9.0164   -3.3278 H   0  0  0  0  0  0  0  0  0  0  0  0
    7.6251   10.2277   -3.3278 H   0  0  0  0  0  0  0  0  0  0  0  0
    0.5783   10.2858   -3.0181 H   0  0  0  0  0  0  0  0  0  0  0  0
    0.0517   11.1161   -4.5214 H   0  0  0  0  0  0  0  0  0  0  0  0
    1.5477   10.1219   -4.5214 H   0  0  0  0  0  0  0  0  0  0  0  0
    1.3962   13.3978   -5.2025 H   0  0  0  0  0  0  0  0  0  0  0  0
   -0.0446   13.0806   -4.0805 H   0  0  0  0  0  0  0  0  0  0  0  0
    2.2576   15.0008   -3.6350 H   0  0  0  0  0  0  0  0  0  0  0  0
    0.5098   15.3768   -3.8994 H   0  0  0  0  0  0  0  0  0  0  0  0
   -0.7590   14.0702   -0.6960 H   0  0  0  0  0  0  0  0  0  0  0  0
   -1.1856   14.8843   -2.2393 H   0  0  0  0  0  0  0  0  0  0  0  0
   -0.7096   13.1523   -2.2393 H   0  0  0  0  0  0  0  0  0  0  0  0
  1  2  1  0
  2  3  1  0
  3  4  1  0
  4  5  1  0
  5  6  1  0
  6  7  1  0
  7  8  1  0
  7  9  1  0
  2 10  1  0
 10 11  1  0
 11 12  1  0
 12 13  1  0
 13 14  1  1
 13 15  1  0
 15 16  1  0
 16 17  1  0
 17 18  2  0
 18 19  1  0
 19 20  1  0
 20 21  1  0
 21 22  1  0
 22 23  1  0
 22 24  1  0
 24 25  1  0
 24 26  1  0
 19 27  1  0
 27 28  1  1
 27 29  1  0
 29 30  1  0
 30 31  1  0
 31 32  1  6
  7  5  1  0
 31 10  1  0
 31 13  1  0
 27 15  1  0
 24 18  1  0
  1 33  1  0
  1 34  1  0
  1 35  1  0
  2 36  1  1
  3 37  1  0
  3 38  1  0
  4 39  1  0
  4 40  1  0
  5 41  1  6
  8 42  1  0
  8 43  1  0
  8 44  1  0
  9 45  1  0
  9 46  1  0
  9 47  1  0
 10 48  1  6
 11 49  1  0
 11 50  1  0
 12 51  1  0
 12 52  1  0
 14 53  1  0
 14 54  1  0
 14 55  1  0
 15 56  1  1
 16 57  1  0
 16 58  1  0
 17 59  1  0
 19 60  1  6
 20 61  1  0
 20 62  1  0
 21 63  1  0
 21 64  1  0
 22 65  1  6
 23 66  1  0
 25 67  1  0
 25 68  1  0
 25 69  1  0
 26 70  1  0
 26 71  1  0
 26 72  1  0
 28 73  1  0
 28 74  1  0
 28 75  1  0
 29 76  1  0
 29 77  1  0
 30 78  1  0
 30 79  1  0
 32 80  1  0
 32 81  1  0
 32 82  1  0
M  END
>  <meeko>  (18) 
{"is_sidechain": [false], "intermolecular_energy": 2.731, "internal_energy": -0.839}

$$$$
EPH_relaxed_0001_pdb2pqr_Repair_16_r2_0001_out
     RDKit          3D

 82 86  0  0  0  0  0  0  0  0999 V2000
   -0.8750    9.2950   -1.7420 C   0  0  0  0  0  0  0  0  0  0  0  0
    0.2420   10.1450   -2.3560 C   0  0  2  0  0  0  0  0  0  0  0  0
    1.5560    9.3530   -2.5100 C   0  0  0  0  0  0  0  0  0  0  0  0
    2.4290    9.8310   -3.6730 C   0  0  0  0  0  0  0  0  0  0  0  0
    3.8630    9.9820   -3.2640 C   0  0  2  0  0  0  0  0  0  0  0  0
    4.2420   11.3140   -2.8900 O   0  0  0  0  0  0  0  0  0  0  0  0
    4.8810   10.7780   -4.0600 C   0  0  0  0  0  0  0  0  0  0  0  0
    4.5070   11.4730   -5.3310 C   0  0  0  0  0  0  0  0  0  0  0  0
    6.3350   10.4750   -3.8670 C   0  0  0  0  0  0  0  0  0  0  0  0
    0.4790   11.3850   -1.5020 C   0  0  1  0  0  0  0  0  0  0  0  0
    1.6040   11.1820   -0.4530 C   0  0  0  0  0  0  0  0  0  0  0  0
    2.3380   12.5410   -0.3140 C   0  0  0  0  0  0  0  0  0  0  0  0
    1.4150   13.5570   -1.0280 C   0  0  1  0  0  0  0  0  0  0  0  0
    0.3110   13.9020    0.0210 C   0  0  0  0  0  0  0  0  0  0  0  0
    2.1050   14.8440   -1.5850 C   0  0  2  0  0  0  0  0  0  0  0  0
    2.7580   15.7460   -0.5230 C   0  0  0  0  0  0  0  0  0  0  0  0
    1.8740   16.8060    0.0460 C   0  0  0  0  0  0  0  0  0  0  0  0
    0.7020   17.2110   -0.4780 C   0  0  0  0  0  0  0  0  0  0  0  0
    0.2030   16.6530   -1.8180 C   0  0  1  0  0  0  0  0  0  0  0  0
   -0.2930   17.8200   -2.7120 C   0  0  0  0  0  0  0  0  0  0  0  0
   -1.3370   18.6870   -2.0150 C   0  0  0  0  0  0  0  0  0  0  0  0
   -0.7850   19.2700   -0.7170 C   0  0  2  0  0  0  0  0  0  0  0  0
    0.2600   20.1950   -1.0350 O   0  0  0  0  0  0  0  0  0  0  0  0
   -0.2460   18.1880    0.2600 C   0  0  0  0  0  0  0  0  0  0  0  0
   -1.4290   17.3740    0.8390 C   0  0  0  0  0  0  0  0  0  0  0  0
    0.4100   18.9160    1.4640 C   0  0  0  0  0  0  0  0  0  0  0  0
    1.2050   15.6830   -2.5810 C   0  0  1  0  0  0  0  0  0  0  0  0
    2.1790   16.5150   -3.4690 C   0  0  0  0  0  0  0  0  0  0  0  0
    0.3840   14.7650   -3.5620 C   0  0  0  0  0  0  0  0  0  0  0  0
   -0.1710   13.4500   -2.9830 C   0  0  0  0  0  0  0  0  0  0  0  0
    0.9200   12.6780   -2.2340 C   0  0  2  0  0  0  0  0  0  0  0  0
    2.0340   12.2980   -3.2680 C   0  0  0  0  0  0  0  0  0  0  0  0
   -0.8116    9.3433   -0.6449 H   0  0  0  0  0  0  0  0  0  0  0  0
   -1.8516    9.6805   -2.0701 H   0  0  0  0  0  0  0  0  0  0  0  0
   -0.7638    8.2510   -2.0701 H   0  0  0  0  0  0  0  0  0  0  0  0
   -0.0839   10.4432   -3.3634 H   0  0  0  0  0  0  0  0  0  0  0  0
    2.1329    9.4526   -1.5787 H   0  0  0  0  0  0  0  0  0  0  0  0
    1.2798    8.3097   -2.7226 H   0  0  0  0  0  0  0  0  0  0  0  0
    2.3668    9.0975   -4.4904 H   0  0  0  0  0  0  0  0  0  0  0  0
    2.0594   10.8150   -3.9974 H   0  0  0  0  0  0  0  0  0  0  0  0
    3.8795    8.9597   -2.8583 H   0  0  0  0  0  0  0  0  0  0  0  0
    3.9978   12.4192   -5.0954 H   0  0  0  0  0  0  0  0  0  0  0  0
    5.4150   11.6810   -5.9160 H   0  0  0  0  0  0  0  0  0  0  0  0
    3.8332   10.8298   -5.9160 H   0  0  0  0  0  0  0  0  0  0  0  0
    6.5601   10.4281   -2.7913 H   0  0  0  0  0  0  0  0  0  0  0  0
    6.5732    9.5079   -4.3340 H   0  0  0  0  0  0  0  0  0  0  0  0
    6.9396   11.2664   -4.3340 H   0  0  0  0  0  0  0  0  0  0  0  0
   -0.5290   11.5150   -1.0813 H   0  0  0  0  0  0  0  0  0  0  0  0
    1.1712   10.8848    0.5136 H   0  0  0  0  0  0  0  0  0  0  0  0
    2.2983   10.3889   -0.7675 H   0  0  0  0  0  0  0  0  0  0  0  0
    2.4635   12.8081    0.7457 H   0  0  0  0  0  0  0  0  0  0  0  0
    3.3478   12.5165   -0.7495 H   0  0  0  0  0  0  0  0  0  0  0  0
    0.7168   13.7752    1.0355 H   0  0  0  0  0  0  0  0  0  0  0  0
   -0.0128   14.9442   -0.1168 H   0  0  0  0  0  0  0  0  0  0  0  0
   -0.5486   13.2297   -0.1168 H   0  0  0  0  0  0  0  0  0  0  0  0
    2.9347   14.4293   -2.1763 H   0  0  0  0  0  0  0  0  0  0  0  0
    3.0966   15.1056    0.3048 H   0  0  0  0  0  0  0  0  0  0  0  0
    3.5756   16.2748   -1.0347 H   0  0  0  0  0  0  0  0  0  0  0  0
    2.2085   17.2975    0.9715 H   0  0  0  0  0  0  0  0  0  0  0  0
   -0.6369   15.9851   -1.5760 H   0  0  0  0  0  0  0  0  0  0  0  0
    0.5680   18.4505   -2.9788 H   0  0  0  0  0  0  0  0  0  0  0  0
   -0.7645   17.3809   -3.6036 H   0  0  0  0  0  0  0  0  0  0  0  0
   -1.6263   19.5102   -2.6848 H   0  0  0  0  0  0  0  0  0  0  0  0
   -2.2091   18.0610   -1.7752 H   0  0  0  0  0  0  0  0  0  0  0  0
   -1.6165   19.7721   -0.2008 H   0  0  0  0  0  0  0  0  0  0  0  0
   -0.0750   21.0900   -0.8580 H   0  0  0  0  0  0  0  0  0  0  0  0
   -1.3897   17.4011    1.9380 H   0  0  0  0  0  0  0  0  0  0  0  0
   -2.3780   17.8112    0.4952 H   0  0  0  0  0  0  0  0  0  0  0  0
   -1.3598   16.3314    0.4952 H   0  0  0  0  0  0  0  0  0  0  0  0
    0.0265   18.4904    2.4030 H   0  0  0  0  0  0  0  0  0  0  0  0
    1.5014   18.7855    1.4210 H   0  0  0  0  0  0  0  0  0  0  0  0
    0.1669   19.9880    1.4210 H   0  0  0  0  0  0  0  0  0  0  0  0
    2.8574   17.0945   -2.8256 H   0  0  0  0  0  0  0  0  0  0  0  0
    2.7668   15.8359   -4.1041 H   0  0  0  0  0  0  0  0  0  0  0  0
    1.6002   17.2018   -4.1041 H   0  0  0  0  0  0  0  0  0  0  0  0
   -0.4697   15.3524   -3.9311 H   0  0  0  0  0  0  0  0  0  0  0  0
    1.1020   14.4576   -4.3366 H   0  0  0  0  0  0  0  0  0  0  0  0
   -0.9910   13.6808   -2.2871 H   0  0  0  0  0  0  0  0  0  0  0  0
   -0.5350   12.8269   -3.8132 H   0  0  0  0  0  0  0  0  0  0  0  0
    2.9425   11.9881   -2.7308 H   0  0  0  0  0  0  0  0  0  0  0  0
    1.6808   11.4695   -3.8996 H   0  0  0  0  0  0  0  0  0  0  0  0
    2.2608   13.1696   -3.8996 H   0  0  0  0  0  0  0  0  0  0  0  0
  1  2  1  0
  2  3  1  0
  3  4  1  0
  4  5  1  0
  5  6  1  0
  6  7  1  0
  7  8  1  0
  7  9  1  0
  2 10  1  0
 10 11  1  0
 11 12  1  0
 12 13  1  0
 13 14  1  1
 13 15  1  0
 15 16  1  0
 16 17  1  0
 17 18  2  0
 18 19  1  0
 19 20  1  0
 20 21  1  0
 21 22  1  0
 22 23  1  0
 22 24  1  0
 24 25  1  0
 24 26  1  0
 19 27  1  0
 27 28  1  6
 27 29  1  0
 29 30  1  0
 30 31  1  0
 31 32  1  6
  7  5  1  0
 31 10  1  0
 31 13  1  0
 27 15  1  0
 24 18  1  0
  1 33  1  0
  1 34  1  0
  1 35  1  0
  2 36  1  6
  3 37  1  0
  3 38  1  0
  4 39  1  0
  4 40  1  0
  5 41  1  1
  8 42  1  0
  8 43  1  0
  8 44  1  0
  9 45  1  0
  9 46  1  0
  9 47  1  0
 10 48  1  1
 11 49  1  0
 11 50  1  0
 12 51  1  0
 12 52  1  0
 14 53  1  0
 14 54  1  0
 14 55  1  0
 15 56  1  6
 16 57  1  0
 16 58  1  0
 17 59  1  0
 19 60  1  1
 20 61  1  0
 20 62  1  0
 21 63  1  0
 21 64  1  0
 22 65  1  1
 23 66  1  0
 25 67  1  0
 25 68  1  0
 25 69  1  0
 26 70  1  0
 26 71  1  0
 26 72  1  0
 28 73  1  0
 28 74  1  0
 28 75  1  0
 29 76  1  0
 29 77  1  0
 30 78  1  0
 30 79  1  0
 32 80  1  0
 32 81  1  0
 32 82  1  0
M  END
>  <meeko>  (19) 
{"is_sidechain": [false], "intermolecular_energy": 2.731, "internal_energy": -0.839}

$$$$
