EPH_relaxed_0001_pdb2pqr_Repair_43_r2_0001_out
     RDKit          3D

 82 86  0  0  0  0  0  0  0  0999 V2000
   -1.4920    8.5500   -1.7980 C   0  0  0  0  0  0  0  0  0  0  0  0
   -1.8920    9.1390   -0.4420 C   0  0  2  0  0  0  0  0  0  0  0  0
   -3.3810    9.5370   -0.3970 C   0  0  0  0  0  0  0  0  0  0  0  0
   -4.3370    8.3410   -0.3700 C   0  0  0  0  0  0  0  0  0  0  0  0
   -4.9080    8.0580   -1.7260 C   0  0  2  0  0  0  0  0  0  0  0  0
   -6.3300    7.8780   -1.7510 O   0  0  0  0  0  0  0  0  0  0  0  0
   -5.5410    6.7320   -2.1070 C   0  0  0  0  0  0  0  0  0  0  0  0
   -5.6330    5.6020   -1.1290 C   0  0  0  0  0  0  0  0  0  0  0  0
   -5.6240    6.3690   -3.5570 C   0  0  0  0  0  0  0  0  0  0  0  0
   -1.0200   10.3480   -0.1230 C   0  0  1  0  0  0  0  0  0  0  0  0
    0.0870   10.0300    0.9170 C   0  0  0  0  0  0  0  0  0  0  0  0
    1.3260   10.8750    0.5260 C   0  0  0  0  0  0  0  0  0  0  0  0
    0.7930   11.8900   -0.5130 C   0  0  1  0  0  0  0  0  0  0  0  0
    0.1320   13.0220    0.3350 C   0  0  0  0  0  0  0  0  0  0  0  0
    1.8420   12.4620   -1.5210 C   0  0  2  0  0  0  0  0  0  0  0  0
    2.9840   13.2740   -0.8840 C   0  0  0  0  0  0  0  0  0  0  0  0
    2.7280   14.7390   -0.7530 C   0  0  0  0  0  0  0  0  0  0  0  0
    1.7550   15.4230   -1.3820 C   0  0  0  0  0  0  0  0  0  0  0  0
    0.8450   14.7340   -2.4080 C   0  0  1  0  0  0  0  0  0  0  0  0
    0.7240   15.6230   -3.6730 C   0  0  0  0  0  0  0  0  0  0  0  0
    0.2690   17.0420   -3.3500 C   0  0  0  0  0  0  0  0  0  0  0  0
    1.2300   17.7140   -2.3730 C   0  0  2  0  0  0  0  0  0  0  0  0
    2.4890   17.9070   -3.0250 O   0  0  0  0  0  0  0  0  0  0  0  0
    1.4380   16.9050   -1.0630 C   0  0  0  0  0  0  0  0  0  0  0  0
    0.1460   16.9530   -0.2110 C   0  0  0  0  0  0  0  0  0  0  0  0
    2.5350   17.6200   -0.2290 C   0  0  0  0  0  0  0  0  0  0  0  0
    1.2080   13.2250   -2.7530 C   0  0  1  0  0  0  0  0  0  0  0  0
    2.2670   13.1820   -3.8970 C   0  0  0  0  0  0  0  0  0  0  0  0
   -0.0760   12.5020   -3.3090 C   0  0  0  0  0  0  0  0  0  0  0  0
   -1.0110   11.8530   -2.2710 C   0  0  0  0  0  0  0  0  0  0  0  0
   -0.2220   10.9780   -1.2930 C   0  0  2  0  0  0  0  0  0  0  0  0
    0.4370    9.8170   -2.1140 C   0  0  0  0  0  0  0  0  0  0  0  0
   -0.8804    7.6494   -1.6405 H   0  0  0  0  0  0  0  0  0  0  0  0
   -2.3972    8.2842   -2.3637 H   0  0  0  0  0  0  0  0  0  0  0  0
   -0.9112    9.2934   -2.3637 H   0  0  0  0  0  0  0  0  0  0  0  0
   -1.7367    8.3575    0.3164 H   0  0  0  0  0  0  0  0  0  0  0  0
   -3.5524   10.1392    0.5075 H   0  0  0  0  0  0  0  0  0  0  0  0
   -3.5923   10.0968   -1.3200 H   0  0  0  0  0  0  0  0  0  0  0  0
   -3.7881    7.4535   -0.0219 H   0  0  0  0  0  0  0  0  0  0  0  0
   -5.1683    8.5814    0.3090 H   0  0  0  0  0  0  0  0  0  0  0  0
   -4.1312    8.6704   -2.2071 H   0  0  0  0  0  0  0  0  0  0  0  0
   -5.6006    6.0005   -0.1042 H   0  0  0  0  0  0  0  0  0  0  0  0
   -6.5782    5.0606   -1.2821 H   0  0  0  0  0  0  0  0  0  0  0  0
   -4.7878    4.9148   -1.2821 H   0  0  0  0  0  0  0  0  0  0  0  0
   -5.8682    5.3009   -3.6542 H   0  0  0  0  0  0  0  0  0  0  0  0
   -6.4079    6.9699   -4.0411 H   0  0  0  0  0  0  0  0  0  0  0  0
   -4.6568    6.5695   -4.0411 H   0  0  0  0  0  0  0  0  0  0  0  0
   -1.7952   11.0469    0.2242 H   0  0  0  0  0  0  0  0  0  0  0  0
   -0.2532   10.3019    1.9271 H   0  0  0  0  0  0  0  0  0  0  0  0
    0.3272    8.9566    0.9215 H   0  0  0  0  0  0  0  0  0  0  0  0
    1.7337   11.3963    1.4046 H   0  0  0  0  0  0  0  0  0  0  0  0
    2.1430   10.2572    0.1250 H   0  0  0  0  0  0  0  0  0  0  0  0
    0.2608   12.8014    1.4049 H   0  0  0  0  0  0  0  0  0  0  0  0
    0.6103   13.9840    0.0988 H   0  0  0  0  0  0  0  0  0  0  0  0
   -0.9409   13.0782    0.0988 H   0  0  0  0  0  0  0  0  0  0  0  0
    2.3098   11.5489   -1.9177 H   0  0  0  0  0  0  0  0  0  0  0  0
    3.1684   12.8697    0.1223 H   0  0  0  0  0  0  0  0  0  0  0  0
    3.8439   13.1746   -1.5628 H   0  0  0  0  0  0  0  0  0  0  0  0
    3.3916   15.3078   -0.0851 H   0  0  0  0  0  0  0  0  0  0  0  0
   -0.1390   14.6373   -1.9259 H   0  0  0  0  0  0  0  0  0  0  0  0
    1.7066   15.6713   -4.1651 H   0  0  0  0  0  0  0  0  0  0  0  0
   -0.0352   15.1701   -4.3276 H   0  0  0  0  0  0  0  0  0  0  0  0
    0.2323   17.6287   -4.2798 H   0  0  0  0  0  0  0  0  0  0  0  0
   -0.7271   16.9941   -2.8857 H   0  0  0  0  0  0  0  0  0  0  0  0
    0.7831   18.6752   -2.0791 H   0  0  0  0  0  0  0  0  0  0  0  0
    3.0770   18.3650   -2.4000 H   0  0  0  0  0  0  0  0  0  0  0  0
    0.4103   16.9432    0.8567 H   0  0  0  0  0  0  0  0  0  0  0  0
   -0.4117   17.8725   -0.4422 H   0  0  0  0  0  0  0  0  0  0  0  0
   -0.4784   16.0774   -0.4422 H   0  0  0  0  0  0  0  0  0  0  0  0
    2.3273   17.4847    0.8427 H   0  0  0  0  0  0  0  0  0  0  0  0
    3.5179   17.1885   -0.4694 H   0  0  0  0  0  0  0  0  0  0  0  0
    2.5370   18.6934   -0.4694 H   0  0  0  0  0  0  0  0  0  0  0  0
    3.2761   13.1410   -3.4611 H   0  0  0  0  0  0  0  0  0  0  0  0
    2.0995   12.2899   -4.5184 H   0  0  0  0  0  0  0  0  0  0  0  0
    2.1724   14.0847   -4.5184 H   0  0  0  0  0  0  0  0  0  0  0  0
   -0.6629   13.2473   -3.8658 H   0  0  0  0  0  0  0  0  0  0  0  0
    0.3036   11.6673   -3.9166 H   0  0  0  0  0  0  0  0  0  0  0  0
   -1.5286   12.6442   -1.7088 H   0  0  0  0  0  0  0  0  0  0  0  0
   -1.7369   11.2190   -2.8012 H   0  0  0  0  0  0  0  0  0  0  0  0
    0.8594    9.0729   -1.4227 H   0  0  0  0  0  0  0  0  0  0  0  0
   -0.3240    9.3383   -2.7478 H   0  0  0  0  0  0  0  0  0  0  0  0
    1.2382   10.2250   -2.7478 H   0  0  0  0  0  0  0  0  0  0  0  0
  1  2  1  0
  2  3  1  0
  3  4  1  0
  4  5  1  0
  5  6  1  0
  6  7  1  0
  7  8  1  0
  7  9  1  0
  2 10  1  0
 10 11  1  0
 11 12  1  0
 12 13  1  0
 13 14  1  1
 13 15  1  0
 15 16  1  0
 16 17  1  0
 17 18  2  0
 18 19  1  0
 19 20  1  0
 20 21  1  0
 21 22  1  0
 22 23  1  0
 22 24  1  0
 24 25  1  0
 24 26  1  0
 19 27  1  0
 27 28  1  6
 27 29  1  0
 29 30  1  0
 30 31  1  0
 31 32  1  6
  7  5  1  0
 31 10  1  0
 31 13  1  0
 27 15  1  0
 24 18  1  0
  1 33  1  0
  1 34  1  0
  1 35  1  0
  2 36  1  1
  3 37  1  0
  3 38  1  0
  4 39  1  0
  4 40  1  0
  5 41  1  6
  8 42  1  0
  8 43  1  0
  8 44  1  0
  9 45  1  0
  9 46  1  0
  9 47  1  0
 10 48  1  1
 11 49  1  0
 11 50  1  0
 12 51  1  0
 12 52  1  0
 14 53  1  0
 14 54  1  0
 14 55  1  0
 15 56  1  6
 16 57  1  0
 16 58  1  0
 17 59  1  0
 19 60  1  1
 20 61  1  0
 20 62  1  0
 21 63  1  0
 21 64  1  0
 22 65  1  1
 23 66  1  0
 25 67  1  0
 25 68  1  0
 25 69  1  0
 26 70  1  0
 26 71  1  0
 26 72  1  0
 28 73  1  0
 28 74  1  0
 28 75  1  0
 29 76  1  0
 29 77  1  0
 30 78  1  0
 30 79  1  0
 32 80  1  0
 32 81  1  0
 32 82  1  0
M  END
>  <meeko>  (1) 
{"is_sidechain": [false], "intermolecular_energy": 2.731, "internal_energy": -0.839}

$$$$
EPH_relaxed_0001_pdb2pqr_Repair_43_r2_0001_out
     RDKit          3D

 82 86  0  0  0  0  0  0  0  0999 V2000
    2.0100   19.6040   -0.5690 C   0  0  0  0  0  0  0  0  0  0  0  0
    2.4120   18.3730    0.2480 C   0  0  2  0  0  0  0  0  0  0  0  0
    3.8600   17.9300   -0.0440 C   0  0  0  0  0  0  0  0  0  0  0  0
    4.8550   18.3160    1.0540 C   0  0  0  0  0  0  0  0  0  0  0  0
    4.1630   18.8910    2.2520 C   0  0  2  0  0  0  0  0  0  0  0  0
    4.6170   20.1940    2.6390 O   0  0  0  0  0  0  0  0  0  0  0  0
    4.8550   19.1350    3.5810 C   0  0  0  0  0  0  0  0  0  0  0  0
    6.3020   18.8100    3.7780 C   0  0  0  0  0  0  0  0  0  0  0  0
    4.0170   19.2290    4.8170 C   0  0  0  0  0  0  0  0  0  0  0  0
    1.4500   17.2250   -0.0330 C   0  0  1  0  0  0  0  0  0  0  0  0
    0.1710   17.6870   -0.7800 C   0  0  0  0  0  0  0  0  0  0  0  0
   -0.2300   16.5340   -1.7360 C   0  0  0  0  0  0  0  0  0  0  0  0
    0.6220   15.3300   -1.2730 C   0  0  1  0  0  0  0  0  0  0  0  0
   -0.1420   14.7460   -0.0440 C   0  0  0  0  0  0  0  0  0  0  0  0
    0.9100   14.2320   -2.3480 C   0  0  2  0  0  0  0  0  0  0  0  0
   -0.3360   13.5110   -2.8930 C   0  0  0  0  0  0  0  0  0  0  0  0
   -0.7360   12.2800   -2.1500 C   0  0  0  0  0  0  0  0  0  0  0  0
    0.0330   11.6130   -1.2690 C   0  0  0  0  0  0  0  0  0  0  0  0
    1.4870   12.0330   -1.0170 C   0  0  1  0  0  0  0  0  0  0  0  0
    2.3990   10.7790   -1.0350 C   0  0  0  0  0  0  0  0  0  0  0  0
    1.9280    9.6990   -0.0660 C   0  0  0  0  0  0  0  0  0  0  0  0
    0.4990    9.2660   -0.3850 C   0  0  2  0  0  0  0  0  0  0  0  0
    0.4910    8.6040   -1.6540 O   0  0  0  0  0  0  0  0  0  0  0  0
   -0.5090   10.4480   -0.4050 C   0  0  0  0  0  0  0  0  0  0  0  0
   -0.7260   10.9720    1.0360 C   0  0  0  0  0  0  0  0  0  0  0  0
   -1.8820    9.8970   -0.8780 C   0  0  0  0  0  0  0  0  0  0  0  0
    2.0400   13.2040   -1.9390 C   0  0  1  0  0  0  0  0  0  0  0  0
    2.6060   12.6130   -3.2670 C   0  0  0  0  0  0  0  0  0  0  0  0
    3.2500   13.9020   -1.2130 C   0  0  0  0  0  0  0  0  0  0  0  0
    2.9110   15.0590   -0.2530 C   0  0  0  0  0  0  0  0  0  0  0  0
    1.9670   16.0640   -0.9190 C   0  0  2  0  0  0  0  0  0  0  0  0
    2.7170   16.6850   -2.1460 C   0  0  0  0  0  0  0  0  0  0  0  0
    1.7420   20.4248    0.1125 H   0  0  0  0  0  0  0  0  0  0  0  0
    2.8534   19.9146   -1.2032 H   0  0  0  0  0  0  0  0  0  0  0  0
    1.1459   19.3570   -1.2032 H   0  0  0  0  0  0  0  0  0  0  0  0
    2.3591   18.6503    1.3112 H   0  0  0  0  0  0  0  0  0  0  0  0
    3.8727   16.8357   -0.1551 H   0  0  0  0  0  0  0  0  0  0  0  0
    4.1761   18.4486   -0.9611 H   0  0  0  0  0  0  0  0  0  0  0  0
    5.4128   17.4190    1.3610 H   0  0  0  0  0  0  0  0  0  0  0  0
    5.5324   19.0821    0.6489 H   0  0  0  0  0  0  0  0  0  0  0  0
    3.2291   18.3719    1.9904 H   0  0  0  0  0  0  0  0  0  0  0  0
    6.5234   18.7603    4.8543 H   0  0  0  0  0  0  0  0  0  0  0  0
    6.5264   17.8391    3.3123 H   0  0  0  0  0  0  0  0  0  0  0  0
    6.9201   19.5917    3.3123 H   0  0  0  0  0  0  0  0  0  0  0  0
    4.6630   19.1565    5.7044 H   0  0  0  0  0  0  0  0  0  0  0  0
    3.4861   20.1923    4.8277 H   0  0  0  0  0  0  0  0  0  0  0  0
    3.2858   18.4072    4.8277 H   0  0  0  0  0  0  0  0  0  0  0  0
    1.2837   16.8684    0.9942 H   0  0  0  0  0  0  0  0  0  0  0  0
   -0.6383   17.8815   -0.0608 H   0  0  0  0  0  0  0  0  0  0  0  0
    0.3539   18.6171   -1.3380 H   0  0  0  0  0  0  0  0  0  0  0  0
   -1.3028   16.3088   -1.6444 H   0  0  0  0  0  0  0  0  0  0  0  0
   -0.0551   16.7875   -2.7920 H   0  0  0  0  0  0  0  0  0  0  0  0
    0.3274   15.1048    0.8839 H   0  0  0  0  0  0  0  0  0  0  0  0
   -1.1914   15.0743   -0.0748 H   0  0  0  0  0  0  0  0  0  0  0  0
   -0.1005   13.6472   -0.0748 H   0  0  0  0  0  0  0  0  0  0  0  0
    1.3058   14.8221   -3.1877 H   0  0  0  0  0  0  0  0  0  0  0  0
   -1.1789   14.2170   -2.8599 H   0  0  0  0  0  0  0  0  0  0  0  0
   -0.0767   13.1819   -3.9101 H   0  0  0  0  0  0  0  0  0  0  0  0
   -1.7449   11.8841   -2.3382 H   0  0  0  0  0  0  0  0  0  0  0  0
    1.5025   12.4906   -0.0168 H   0  0  0  0  0  0  0  0  0  0  0  0
    2.4044   10.3616   -2.0527 H   0  0  0  0  0  0  0  0  0  0  0  0
    3.4052   11.0935   -0.7210 H   0  0  0  0  0  0  0  0  0  0  0  0
    2.5947    8.8277   -0.1462 H   0  0  0  0  0  0  0  0  0  0  0  0
    1.9515   10.1083    0.9547 H   0  0  0  0  0  0  0  0  0  0  0  0
    0.1716    8.5893    0.4181 H   0  0  0  0  0  0  0  0  0  0  0  0
    1.1910    7.9300   -1.6400 H   0  0  0  0  0  0  0  0  0  0  0  0
   -0.4081   10.2045    1.7570 H   0  0  0  0  0  0  0  0  0  0  0  0
   -0.1322   11.8855    1.1873 H   0  0  0  0  0  0  0  0  0  0  0  0
   -1.7918   11.1982    1.1873 H   0  0  0  0  0  0  0  0  0  0  0  0
   -2.4992    9.6493   -0.0018 H   0  0  0  0  0  0  0  0  0  0  0  0
   -2.3941   10.6593   -1.4836 H   0  0  0  0  0  0  0  0  0  0  0  0
   -1.7251    8.9922   -1.4836 H   0  0  0  0  0  0  0  0  0  0  0  0
    3.3497   11.8364   -3.0351 H   0  0  0  0  0  0  0  0  0  0  0  0
    1.7850   12.1717   -3.8512 H   0  0  0  0  0  0  0  0  0  0  0  0
    3.0824   13.4141   -3.8512 H   0  0  0  0  0  0  0  0  0  0  0  0
    3.7787   13.1318   -0.6322 H   0  0  0  0  0  0  0  0  0  0  0  0
    3.8429   14.3605   -2.0181 H   0  0  0  0  0  0  0  0  0  0  0  0
    2.4260   14.6506    0.6459 H   0  0  0  0  0  0  0  0  0  0  0  0
    3.8434   15.5775    0.0150 H   0  0  0  0  0  0  0  0  0  0  0  0
    3.5183   17.3485   -1.7885 H   0  0  0  0  0  0  0  0  0  0  0  0
    3.1525   15.8795   -2.7556 H   0  0  0  0  0  0  0  0  0  0  0  0
    2.0069   17.2631   -2.7556 H   0  0  0  0  0  0  0  0  0  0  0  0
  1  2  1  0
  2  3  1  0
  3  4  1  0
  4  5  1  0
  5  6  1  0
  6  7  1  0
  7  8  1  0
  7  9  1  0
  2 10  1  0
 10 11  1  0
 11 12  1  0
 12 13  1  0
 13 14  1  1
 13 15  1  0
 15 16  1  0
 16 17  1  0
 17 18  2  0
 18 19  1  0
 19 20  1  0
 20 21  1  0
 21 22  1  0
 22 23  1  0
 22 24  1  0
 24 25  1  0
 24 26  1  0
 19 27  1  0
 27 28  1  6
 27 29  1  0
 29 30  1  0
 30 31  1  0
 31 32  1  6
  7  5  1  0
 31 10  1  0
 31 13  1  0
 27 15  1  0
 24 18  1  0
  1 33  1  0
  1 34  1  0
  1 35  1  0
  2 36  1  1
  3 37  1  0
  3 38  1  0
  4 39  1  0
  4 40  1  0
  5 41  1  1
  8 42  1  0
  8 43  1  0
  8 44  1  0
  9 45  1  0
  9 46  1  0
  9 47  1  0
 10 48  1  1
 11 49  1  0
 11 50  1  0
 12 51  1  0
 12 52  1  0
 14 53  1  0
 14 54  1  0
 14 55  1  0
 15 56  1  6
 16 57  1  0
 16 58  1  0
 17 59  1  0
 19 60  1  1
 20 61  1  0
 20 62  1  0
 21 63  1  0
 21 64  1  0
 22 65  1  1
 23 66  1  0
 25 67  1  0
 25 68  1  0
 25 69  1  0
 26 70  1  0
 26 71  1  0
 26 72  1  0
 28 73  1  0
 28 74  1  0
 28 75  1  0
 29 76  1  0
 29 77  1  0
 30 78  1  0
 30 79  1  0
 32 80  1  0
 32 81  1  0
 32 82  1  0
M  END
>  <meeko>  (2) 
{"is_sidechain": [false], "intermolecular_energy": 2.731, "internal_energy": -0.839}

$$$$
EPH_relaxed_0001_pdb2pqr_Repair_43_r2_0001_out
     RDKit          3D

 82 86  0  0  0  0  0  0  0  0999 V2000
    0.5030   18.4720    0.0220 C   0  0  0  0  0  0  0  0  0  0  0  0
    1.5720   17.3970   -0.1940 C   0  0  2  0  0  0  0  0  0  0  0  0
    2.7990   17.9420   -0.9520 C   0  0  0  0  0  0  0  0  0  0  0  0
    4.0260   18.1570   -0.0620 C   0  0  0  0  0  0  0  0  0  0  0  0
    3.6410   18.6150    1.3120 C   0  0  2  0  0  0  0  0  0  0  0  0
    3.8660   20.0090    1.5630 O   0  0  0  0  0  0  0  0  0  0  0  0
    4.6440   19.0900    2.3470 C   0  0  0  0  0  0  0  0  0  0  0  0
    6.1110   19.1290    2.0520 C   0  0  0  0  0  0  0  0  0  0  0  0
    4.2540   19.0510    3.7920 C   0  0  0  0  0  0  0  0  0  0  0  0
    0.9750   16.2160   -0.9510 C   0  0  1  0  0  0  0  0  0  0  0  0
    0.7940   16.5060   -2.4650 C   0  0  0  0  0  0  0  0  0  0  0  0
    1.0620   15.1740   -3.2110 C   0  0  0  0  0  0  0  0  0  0  0  0
    1.0610   14.0970   -2.1000 C   0  0  1  0  0  0  0  0  0  0  0  0
   -0.4480   13.7930   -1.8390 C   0  0  0  0  0  0  0  0  0  0  0  0
    1.8690   12.7930   -2.4010 C   0  0  2  0  0  0  0  0  0  0  0  0
    1.3610   11.9720   -3.5990 C   0  0  0  0  0  0  0  0  0  0  0  0
    0.3430   10.9300   -3.2710 C   0  0  0  0  0  0  0  0  0  0  0  0
    0.0640   10.4690   -2.0380 C   0  0  0  0  0  0  0  0  0  0  0  0
    0.8750   10.9340   -0.8210 C   0  0  1  0  0  0  0  0  0  0  0  0
    1.2640    9.7050    0.0410 C   0  0  0  0  0  0  0  0  0  0  0  0
    0.0560    8.8590    0.4340 C   0  0  0  0  0  0  0  0  0  0  0  0
   -0.6910    8.3680   -0.8030 C   0  0  2  0  0  0  0  0  0  0  0  0
    0.1460    7.4480   -1.5120 O   0  0  0  0  0  0  0  0  0  0  0  0
   -1.1250    9.5190   -1.7540 C   0  0  0  0  0  0  0  0  0  0  0  0
   -2.2580   10.3410   -1.0910 C   0  0  0  0  0  0  0  0  0  0  0  0
   -1.7410    8.8790   -3.0270 C   0  0  0  0  0  0  0  0  0  0  0  0
    2.1150   11.8770   -1.1340 C   0  0  1  0  0  0  0  0  0  0  0  0
    3.3750   11.0130   -1.4480 C   0  0  0  0  0  0  0  0  0  0  0  0
    2.4610   12.7150    0.1530 C   0  0  0  0  0  0  0  0  0  0  0  0
    1.7160   14.0520    0.3320 C   0  0  0  0  0  0  0  0  0  0  0  0
    1.7780   14.8910   -0.9480 C   0  0  2  0  0  0  0  0  0  0  0  0
    3.2820   15.2310   -1.2240 C   0  0  0  0  0  0  0  0  0  0  0  0
    0.3502   18.6257    1.1004 H   0  0  0  0  0  0  0  0  0  0  0  0
    0.8323   19.4146   -0.4396 H   0  0  0  0  0  0  0  0  0  0  0  0
   -0.4414   18.1480   -0.4396 H   0  0  0  0  0  0  0  0  0  0  0  0
    1.9160   17.0682    0.7978 H   0  0  0  0  0  0  0  0  0  0  0  0
    3.0650   17.2255   -1.7432 H   0  0  0  0  0  0  0  0  0  0  0  0
    2.5173   18.9261   -1.3547 H   0  0  0  0  0  0  0  0  0  0  0  0
    4.5775   17.2088    0.0198 H   0  0  0  0  0  0  0  0  0  0  0  0
    4.6501   18.9378   -0.5213 H   0  0  0  0  0  0  0  0  0  0  0  0
    2.8286   17.8747    1.3572 H   0  0  0  0  0  0  0  0  0  0  0  0
    6.6747   19.1440    2.9965 H   0  0  0  0  0  0  0  0  0  0  0  0
    6.3921   18.2380    1.4714 H   0  0  0  0  0  0  0  0  0  0  0  0
    6.3443   20.0337    1.4714 H   0  0  0  0  0  0  0  0  0  0  0  0
    5.1544   19.1410    4.4174 H   0  0  0  0  0  0  0  0  0  0  0  0
    3.5711   19.8853    4.0101 H   0  0  0  0  0  0  0  0  0  0  0  0
    3.7499   18.0980    4.0101 H   0  0  0  0  0  0  0  0  0  0  0  0
    0.0384   16.0905   -0.3879 H   0  0  0  0  0  0  0  0  0  0  0  0
   -0.2309   16.8522   -2.6644 H   0  0  0  0  0  0  0  0  0  0  0  0
    1.4849   17.2930   -2.8016 H   0  0  0  0  0  0  0  0  0  0  0  0
    0.2685   14.9742   -3.9461 H   0  0  0  0  0  0  0  0  0  0  0  0
    2.0079   15.1933   -3.7722 H   0  0  0  0  0  0  0  0  0  0  0  0
   -0.6324   13.7558   -0.7552 H   0  0  0  0  0  0  0  0  0  0  0  0
   -1.0647   14.5849   -2.2890 H   0  0  0  0  0  0  0  0  0  0  0  0
   -0.7100   12.8240   -2.2890 H   0  0  0  0  0  0  0  0  0  0  0  0
    2.8497   13.1876   -2.7051 H   0  0  0  0  0  0  0  0  0  0  0  0
    0.9136   12.6685   -4.3234 H   0  0  0  0  0  0  0  0  0  0  0  0
    2.2352   11.4314   -3.9907 H   0  0  0  0  0  0  0  0  0  0  0  0
   -0.2275   10.5028   -4.1088 H   0  0  0  0  0  0  0  0  0  0  0  0
    0.2108   11.5973   -0.2475 H   0  0  0  0  0  0  0  0  0  0  0  0
    1.9615    9.0779   -0.5337 H   0  0  0  0  0  0  0  0  0  0  0  0
    1.7246   10.0794    0.9671 H   0  0  0  0  0  0  0  0  0  0  0  0
    0.3985    7.9907    1.0161 H   0  0  0  0  0  0  0  0  0  0  0  0
   -0.6268    9.4787    1.0338 H   0  0  0  0  0  0  0  0  0  0  0  0
   -1.6150    7.8806   -0.4586 H   0  0  0  0  0  0  0  0  0  0  0  0
    0.3140    6.6920   -0.9260 H   0  0  0  0  0  0  0  0  0  0  0  0
   -2.1669   10.2749    0.0032 H   0  0  0  0  0  0  0  0  0  0  0  0
   -2.1785   11.3929   -1.4027 H   0  0  0  0  0  0  0  0  0  0  0  0
   -3.2333    9.9390   -1.4027 H   0  0  0  0  0  0  0  0  0  0  0  0
   -2.4763    8.1151   -2.7342 H   0  0  0  0  0  0  0  0  0  0  0  0
   -2.2387    9.6570   -3.6244 H   0  0  0  0  0  0  0  0  0  0  0  0
   -0.9445    8.4114   -3.6244 H   0  0  0  0  0  0  0  0  0  0  0  0
    3.8434   10.6918   -0.5060 H   0  0  0  0  0  0  0  0  0  0  0  0
    3.0772   10.1282   -2.0297 H   0  0  0  0  0  0  0  0  0  0  0  0
    4.0930   11.6096   -2.0297 H   0  0  0  0  0  0  0  0  0  0  0  0
    2.2357   12.0885    1.0287 H   0  0  0  0  0  0  0  0  0  0  0  0
    3.5208   12.9883    0.0425 H   0  0  0  0  0  0  0  0  0  0  0  0
    0.6634   13.8472    0.5771 H   0  0  0  0  0  0  0  0  0  0  0  0
    2.1983   14.6158    1.1441 H   0  0  0  0  0  0  0  0  0  0  0  0
    3.8123   15.3509   -0.2677 H   0  0  0  0  0  0  0  0  0  0  0  0
    3.7430   14.4144   -1.7990 H   0  0  0  0  0  0  0  0  0  0  0  0
    3.3469   16.1665   -1.7990 H   0  0  0  0  0  0  0  0  0  0  0  0
  1  2  1  0
  2  3  1  0
  3  4  1  0
  4  5  1  0
  5  6  1  0
  6  7  1  0
  7  8  1  0
  7  9  1  0
  2 10  1  0
 10 11  1  0
 11 12  1  0
 12 13  1  0
 13 14  1  1
 13 15  1  0
 15 16  1  0
 16 17  1  0
 17 18  2  0
 18 19  1  0
 19 20  1  0
 20 21  1  0
 21 22  1  0
 22 23  1  0
 22 24  1  0
 24 25  1  0
 24 26  1  0
 19 27  1  0
 27 28  1  6
 27 29  1  0
 29 30  1  0
 30 31  1  0
 31 32  1  6
  7  5  1  0
 31 10  1  0
 31 13  1  0
 27 15  1  0
 24 18  1  0
  1 33  1  0
  1 34  1  0
  1 35  1  0
  2 36  1  1
  3 37  1  0
  3 38  1  0
  4 39  1  0
  4 40  1  0
  5 41  1  1
  8 42  1  0
  8 43  1  0
  8 44  1  0
  9 45  1  0
  9 46  1  0
  9 47  1  0
 10 48  1  1
 11 49  1  0
 11 50  1  0
 12 51  1  0
 12 52  1  0
 14 53  1  0
 14 54  1  0
 14 55  1  0
 15 56  1  6
 16 57  1  0
 16 58  1  0
 17 59  1  0
 19 60  1  1
 20 61  1  0
 20 62  1  0
 21 63  1  0
 21 64  1  0
 22 65  1  1
 23 66  1  0
 25 67  1  0
 25 68  1  0
 25 69  1  0
 26 70  1  0
 26 71  1  0
 26 72  1  0
 28 73  1  0
 28 74  1  0
 28 75  1  0
 29 76  1  0
 29 77  1  0
 30 78  1  0
 30 79  1  0
 32 80  1  0
 32 81  1  0
 32 82  1  0
M  END
>  <meeko>  (3) 
{"is_sidechain": [false], "intermolecular_energy": 2.731, "internal_energy": -0.839}

$$$$
EPH_relaxed_0001_pdb2pqr_Repair_43_r2_0001_out
     RDKit          3D

 82 86  0  0  0  0  0  0  0  0999 V2000
    2.1840   18.0350   -2.5500 C   0  0  0  0  0  0  0  0  0  0  0  0
    0.6640   17.8930   -2.6660 C   0  0  2  0  0  0  0  0  0  0  0  0
   -0.0640   18.3850   -1.3990 C   0  0  0  0  0  0  0  0  0  0  0  0
    0.6230   17.9730   -0.0950 C   0  0  0  0  0  0  0  0  0  0  0  0
    1.2030   19.1540    0.6240 C   0  0  2  0  0  0  0  0  0  0  0  0
    2.1330   19.9260   -0.1470 O   0  0  0  0  0  0  0  0  0  0  0  0
    2.6660   19.2620    1.0110 C   0  0  0  0  0  0  0  0  0  0  0  0
    3.6400   18.1710    0.6930 C   0  0  0  0  0  0  0  0  0  0  0  0
    3.0460   20.1940    2.1190 C   0  0  0  0  0  0  0  0  0  0  0  0
    0.2970   16.4400   -2.9450 C   0  0  1  0  0  0  0  0  0  0  0  0
    0.3430   16.0920   -4.4570 C   0  0  0  0  0  0  0  0  0  0  0  0
    0.8380   14.6270   -4.5650 C   0  0  0  0  0  0  0  0  0  0  0  0
    0.7430   14.0760   -3.1230 C   0  0  1  0  0  0  0  0  0  0  0  0
   -0.7580   13.6890   -2.9390 C   0  0  0  0  0  0  0  0  0  0  0  0
    1.6930   12.8850   -2.7740 C   0  0  2  0  0  0  0  0  0  0  0  0
    1.4560   11.6010   -3.5880 C   0  0  0  0  0  0  0  0  0  0  0  0
    0.4870   10.6360   -2.9900 C   0  0  0  0  0  0  0  0  0  0  0  0
    0.0490   10.6550   -1.7180 C   0  0  0  0  0  0  0  0  0  0  0  0
    0.6090   11.6630   -0.7060 C   0  0  1  0  0  0  0  0  0  0  0  0
    0.9510   10.9320    0.6190 C   0  0  0  0  0  0  0  0  0  0  0  0
   -0.2310   10.1450    1.1740 C   0  0  0  0  0  0  0  0  0  0  0  0
   -0.7230    9.1130    0.1620 C   0  0  2  0  0  0  0  0  0  0  0  0
    0.2900    8.1180   -0.0110 O   0  0  0  0  0  0  0  0  0  0  0  0
   -1.0890    9.7320   -1.2150 C   0  0  0  0  0  0  0  0  0  0  0  0
   -2.3780   10.5790   -1.0800 C   0  0  0  0  0  0  0  0  0  0  0  0
   -1.4340    8.5690   -2.1850 C   0  0  0  0  0  0  0  0  0  0  0  0
    1.8030   12.5750   -1.2260 C   0  0  1  0  0  0  0  0  0  0  0  0
    3.1630   11.8430   -1.0140 C   0  0  0  0  0  0  0  0  0  0  0  0
    1.8640   13.8860   -0.3560 C   0  0  0  0  0  0  0  0  0  0  0  0
    0.9930   15.0690   -0.8200 C   0  0  0  0  0  0  0  0  0  0  0  0
    1.1950   15.3460   -2.3130 C   0  0  2  0  0  0  0  0  0  0  0  0
    2.6910   15.7600   -2.5250 C   0  0  0  0  0  0  0  0  0  0  0  0
    2.4698   18.0617   -1.4881 H   0  0  0  0  0  0  0  0  0  0  0  0
    2.6707   17.1784   -3.0393 H   0  0  0  0  0  0  0  0  0  0  0  0
    2.5036   18.9669   -3.0393 H   0  0  0  0  0  0  0  0  0  0  0  0
    0.3361   18.5271   -3.5029 H   0  0  0  0  0  0  0  0  0  0  0  0
   -0.1153   19.4833   -1.4324 H   0  0  0  0  0  0  0  0  0  0  0  0
   -1.0599   17.9179   -1.3989 H   0  0  0  0  0  0  0  0  0  0  0  0
   -0.1156   17.4855    0.5583 H   0  0  0  0  0  0  0  0  0  0  0  0
    1.4449   17.2853   -0.3431 H   0  0  0  0  0  0  0  0  0  0  0  0
    0.2758   19.2886    1.2004 H   0  0  0  0  0  0  0  0  0  0  0  0
    4.0254   17.7393    1.6285 H   0  0  0  0  0  0  0  0  0  0  0  0
    3.1353   17.3878    0.1084 H   0  0  0  0  0  0  0  0  0  0  0  0
    4.4752   18.5840    0.1084 H   0  0  0  0  0  0  0  0  0  0  0  0
    2.8493   19.7115    3.0877 H   0  0  0  0  0  0  0  0  0  0  0  0
    4.1157   20.4386    2.0417 H   0  0  0  0  0  0  0  0  0  0  0  0
    2.4523   21.1168    2.0417 H   0  0  0  0  0  0  0  0  0  0  0  0
   -0.7054   16.4126   -2.4928 H   0  0  0  0  0  0  0  0  0  0  0  0
   -0.6604   16.1861   -4.8979 H   0  0  0  0  0  0  0  0  0  0  0  0
    1.0129   16.7757   -4.9990 H   0  0  0  0  0  0  0  0  0  0  0  0
    0.1949   14.0489   -5.2448 H   0  0  0  0  0  0  0  0  0  0  0  0
    1.8582   14.5602   -4.9708 H   0  0  0  0  0  0  0  0  0  0  0  0
   -0.9922   13.6286   -1.8659 H   0  0  0  0  0  0  0  0  0  0  0  0
   -1.3940   14.4525   -3.4107 H   0  0  0  0  0  0  0  0  0  0  0  0
   -0.9455   12.7131   -3.4107 H   0  0  0  0  0  0  0  0  0  0  0  0
    2.6743   13.2653   -3.0941 H   0  0  0  0  0  0  0  0  0  0  0  0
    1.0779   11.8920   -4.5791 H   0  0  0  0  0  0  0  0  0  0  0  0
    2.4237   11.0790   -3.6210 H   0  0  0  0  0  0  0  0  0  0  0  0
    0.0981    9.8421   -3.6446 H   0  0  0  0  0  0  0  0  0  0  0  0
   -0.1924   12.3959   -0.5307 H   0  0  0  0  0  0  0  0  0  0  0  0
    1.7822   10.2359    0.4334 H   0  0  0  0  0  0  0  0  0  0  0  0
    1.2217   11.6966    1.3621 H   0  0  0  0  0  0  0  0  0  0  0  0
    0.0808    9.6275    2.0932 H   0  0  0  0  0  0  0  0  0  0  0  0
   -1.0510   10.8466    1.3868 H   0  0  0  0  0  0  0  0  0  0  0  0
   -1.6477    8.6723    0.5629 H   0  0  0  0  0  0  0  0  0  0  0  0
   -0.0950    7.3930   -0.5320 H   0  0  0  0  0  0  0  0  0  0  0  0
   -2.6077   10.7299   -0.0149 H   0  0  0  0  0  0  0  0  0  0  0  0
   -2.2278   11.5550   -1.5646 H   0  0  0  0  0  0  0  0  0  0  0  0
   -3.2143   10.0538   -1.5646 H   0  0  0  0  0  0  0  0  0  0  0  0
   -1.6996    7.6735   -1.6040 H   0  0  0  0  0  0  0  0  0  0  0  0
   -2.2844    8.8603   -2.8190 H   0  0  0  0  0  0  0  0  0  0  0  0
   -0.5623    8.3495   -2.8190 H   0  0  0  0  0  0  0  0  0  0  0  0
    3.3587   11.7377    0.0633 H   0  0  0  0  0  0  0  0  0  0  0  0
    3.1193   10.8465   -1.4779 H   0  0  0  0  0  0  0  0  0  0  0  0
    3.9706   12.4283   -1.4779 H   0  0  0  0  0  0  0  0  0  0  0  0
    1.5508   13.6226    0.6651 H   0  0  0  0  0  0  0  0  0  0  0  0
    2.9015   14.2410   -0.4430 H   0  0  0  0  0  0  0  0  0  0  0  0
   -0.0652   14.8298   -0.6383 H   0  0  0  0  0  0  0  0  0  0  0  0
    1.2878   15.9649   -0.2540 H   0  0  0  0  0  0  0  0  0  0  0  0
    3.1764   15.8943   -1.5471 H   0  0  0  0  0  0  0  0  0  0  0  0
    3.2131   14.9726   -3.0884 H   0  0  0  0  0  0  0  0  0  0  0  0
    2.7340   16.7038   -3.0884 H   0  0  0  0  0  0  0  0  0  0  0  0
  1  2  1  0
  2  3  1  0
  3  4  1  0
  4  5  1  0
  5  6  1  0
  6  7  1  0
  7  8  1  0
  7  9  1  0
  2 10  1  0
 10 11  1  0
 11 12  1  0
 12 13  1  0
 13 14  1  1
 13 15  1  0
 15 16  1  0
 16 17  1  0
 17 18  2  0
 18 19  1  0
 19 20  1  0
 20 21  1  0
 21 22  1  0
 22 23  1  0
 22 24  1  0
 24 25  1  0
 24 26  1  0
 19 27  1  0
 27 28  1  6
 27 29  1  0
 29 30  1  0
 30 31  1  0
 31 32  1  1
  7  5  1  0
 31 10  1  0
 31 13  1  0
 27 15  1  0
 24 18  1  0
  1 33  1  0
  1 34  1  0
  1 35  1  0
  2 36  1  6
  3 37  1  0
  3 38  1  0
  4 39  1  0
  4 40  1  0
  5 41  1  1
  8 42  1  0
  8 43  1  0
  8 44  1  0
  9 45  1  0
  9 46  1  0
  9 47  1  0
 10 48  1  1
 11 49  1  0
 11 50  1  0
 12 51  1  0
 12 52  1  0
 14 53  1  0
 14 54  1  0
 14 55  1  0
 15 56  1  6
 16 57  1  0
 16 58  1  0
 17 59  1  0
 19 60  1  1
 20 61  1  0
 20 62  1  0
 21 63  1  0
 21 64  1  0
 22 65  1  1
 23 66  1  0
 25 67  1  0
 25 68  1  0
 25 69  1  0
 26 70  1  0
 26 71  1  0
 26 72  1  0
 28 73  1  0
 28 74  1  0
 28 75  1  0
 29 76  1  0
 29 77  1  0
 30 78  1  0
 30 79  1  0
 32 80  1  0
 32 81  1  0
 32 82  1  0
M  END
>  <meeko>  (4) 
{"is_sidechain": [false], "intermolecular_energy": 2.731, "internal_energy": -0.839}

$$$$
EPH_relaxed_0001_pdb2pqr_Repair_43_r2_0001_out
     RDKit          3D

 82 86  0  0  0  0  0  0  0  0999 V2000
    2.3430   18.0260   -2.6900 C   0  0  0  0  0  0  0  0  0  0  0  0
    1.0350   17.6320   -1.9980 C   0  0  2  0  0  0  0  0  0  0  0  0
    1.1470   17.7010   -0.4620 C   0  0  0  0  0  0  0  0  0  0  0  0
    0.8260   19.0820    0.1170 C   0  0  0  0  0  0  0  0  0  0  0  0
   -0.6120   19.1920    0.5260 C   0  0  2  0  0  0  0  0  0  0  0  0
   -1.4900   18.2610   -0.1200 O   0  0  0  0  0  0  0  0  0  0  0  0
   -1.7150   19.6500   -0.4100 C   0  0  0  0  0  0  0  0  0  0  0  0
   -1.4270   20.0290   -1.8290 C   0  0  0  0  0  0  0  0  0  0  0  0
   -2.9770   20.1940    0.1830 C   0  0  0  0  0  0  0  0  0  0  0  0
    0.6220   16.2290   -2.4270 C   0  0  1  0  0  0  0  0  0  0  0  0
    0.7530   16.0100   -3.9580 C   0  0  0  0  0  0  0  0  0  0  0  0
    1.1850   14.5360   -4.1630 C   0  0  0  0  0  0  0  0  0  0  0  0
    0.9680   13.8700   -2.7840 C   0  0  1  0  0  0  0  0  0  0  0  0
   -0.5580   13.5460   -2.7310 C   0  0  0  0  0  0  0  0  0  0  0  0
    1.8370   12.6050   -2.4830 C   0  0  2  0  0  0  0  0  0  0  0  0
    1.5960   11.4100   -3.4210 C   0  0  0  0  0  0  0  0  0  0  0  0
    0.5450   10.4480   -2.9730 C   0  0  0  0  0  0  0  0  0  0  0  0
    0.0240   10.3820   -1.7340 C   0  0  0  0  0  0  0  0  0  0  0  0
    0.5610   11.2690   -0.6040 C   0  0  1  0  0  0  0  0  0  0  0  0
    0.7790   10.4110    0.6690 C   0  0  0  0  0  0  0  0  0  0  0  0
   -0.4730    9.6420    1.0780 C   0  0  0  0  0  0  0  0  0  0  0  0
   -0.9430    8.7270   -0.0510 C   0  0  2  0  0  0  0  0  0  0  0  0
    0.0320    7.6990   -0.2470 O   0  0  0  0  0  0  0  0  0  0  0  0
   -1.1860    9.4790   -1.3890 C   0  0  0  0  0  0  0  0  0  0  0  0
   -2.4410   10.3780   -1.2600 C   0  0  0  0  0  0  0  0  0  0  0  0
   -1.5190    8.4230   -2.4770 C   0  0  0  0  0  0  0  0  0  0  0  0
    1.8280   12.1590   -0.9650 C   0  0  1  0  0  0  0  0  0  0  0  0
    3.1360   11.3420   -0.7330 C   0  0  0  0  0  0  0  0  0  0  0  0
    1.8910   13.3870    0.0190 C   0  0  0  0  0  0  0  0  0  0  0  0
    1.1080   14.6480   -0.3920 C   0  0  0  0  0  0  0  0  0  0  0  0
    1.4230   15.0410   -1.8390 C   0  0  2  0  0  0  0  0  0  0  0  0
    2.9470   15.3930   -1.9190 C   0  0  0  0  0  0  0  0  0  0  0  0
    3.1049   18.2555   -1.9305 H   0  0  0  0  0  0  0  0  0  0  0  0
    2.6909   17.1928   -3.3183 H   0  0  0  0  0  0  0  0  0  0  0  0
    2.1728   18.9127   -3.3183 H   0  0  0  0  0  0  0  0  0  0  0  0
    0.2667   18.3565   -2.3061 H   0  0  0  0  0  0  0  0  0  0  0  0
    0.4463   16.9716   -0.0295 H   0  0  0  0  0  0  0  0  0  0  0  0
    2.1937   17.4802   -0.2056 H   0  0  0  0  0  0  0  0  0  0  0  0
    1.4613   19.2554    0.9981 H   0  0  0  0  0  0  0  0  0  0  0  0
    1.0188   19.8336   -0.6627 H   0  0  0  0  0  0  0  0  0  0  0  0
   -0.3247   19.5102    1.5390 H   0  0  0  0  0  0  0  0  0  0  0  0
   -0.7616   20.9047   -1.8468 H   0  0  0  0  0  0  0  0  0  0  0  0
   -0.9388   19.1870   -2.3415 H   0  0  0  0  0  0  0  0  0  0  0  0
   -2.3690   20.2738   -2.3415 H   0  0  0  0  0  0  0  0  0  0  0  0
   -2.9088   20.1646    1.2805 H   0  0  0  0  0  0  0  0  0  0  0  0
   -3.1193   21.2334   -0.1478 H   0  0  0  0  0  0  0  0  0  0  0  0
   -3.8304   19.5838   -0.1478 H   0  0  0  0  0  0  0  0  0  0  0  0
   -0.4086   16.2144   -2.0428 H   0  0  0  0  0  0  0  0  0  0  0  0
   -0.2130   16.1938   -4.4510 H   0  0  0  0  0  0  0  0  0  0  0  0
    1.4885   16.7017   -4.3946 H   0  0  0  0  0  0  0  0  0  0  0  0
    0.5626   14.0521   -4.9301 H   0  0  0  0  0  0  0  0  0  0  0  0
    2.2260   14.4507   -4.5081 H   0  0  0  0  0  0  0  0  0  0  0  0
   -0.8820   13.4772   -1.6821 H   0  0  0  0  0  0  0  0  0  0  0  0
   -1.1202   14.3448   -3.2368 H   0  0  0  0  0  0  0  0  0  0  0  0
   -0.7472   12.5877   -3.2368 H   0  0  0  0  0  0  0  0  0  0  0  0
    2.8543   12.9591   -2.7057 H   0  0  0  0  0  0  0  0  0  0  0  0
    1.2989   11.8042   -4.4040 H   0  0  0  0  0  0  0  0  0  0  0  0
    2.5386   10.8433   -3.4396 H   0  0  0  0  0  0  0  0  0  0  0  0
    0.1650    9.7337   -3.7182 H   0  0  0  0  0  0  0  0  0  0  0  0
   -0.2154   12.0250   -0.4151 H   0  0  0  0  0  0  0  0  0  0  0  0
    1.5873    9.6907    0.4745 H   0  0  0  0  0  0  0  0  0  0  0  0
    1.0347   11.0943    1.4922 H   0  0  0  0  0  0  0  0  0  0  0  0
   -0.2476    9.0325    1.9655 H   0  0  0  0  0  0  0  0  0  0  0  0
   -1.2721   10.3642    1.3012 H   0  0  0  0  0  0  0  0  0  0  0  0
   -1.9123    8.3031    0.2502 H   0  0  0  0  0  0  0  0  0  0  0  0
    0.3350    7.7530   -1.1700 H   0  0  0  0  0  0  0  0  0  0  0  0
   -2.6678   10.5405   -0.1960 H   0  0  0  0  0  0  0  0  0  0  0  0
   -2.2501   11.3461   -1.7462 H   0  0  0  0  0  0  0  0  0  0  0  0
   -3.2962    9.8858   -1.7462 H   0  0  0  0  0  0  0  0  0  0  0  0
   -1.8163    7.4804   -1.9942 H   0  0  0  0  0  0  0  0  0  0  0  0
   -2.3449    8.7903   -3.1039 H   0  0  0  0  0  0  0  0  0  0  0  0
   -0.6318    8.2501   -3.1039 H   0  0  0  0  0  0  0  0  0  0  0  0
    3.3127   11.2316    0.3471 H   0  0  0  0  0  0  0  0  0  0  0  0
    3.0331   10.3473   -1.1912 H   0  0  0  0  0  0  0  0  0  0  0  0
    3.9848   11.8708   -1.1912 H   0  0  0  0  0  0  0  0  0  0  0  0
    1.4992   13.0544    0.9915 H   0  0  0  0  0  0  0  0  0  0  0  0
    2.9471   13.6945    0.0278 H   0  0  0  0  0  0  0  0  0  0  0  0
    0.0302   14.4485   -0.2997 H   0  0  0  0  0  0  0  0  0  0  0  0
    1.4040   15.4759    0.2690 H   0  0  0  0  0  0  0  0  0  0  0  0
    3.3554   15.4873   -0.9020 H   0  0  0  0  0  0  0  0  0  0  0  0
    3.4801   14.5943   -2.4556 H   0  0  0  0  0  0  0  0  0  0  0  0
    3.0759   16.3446   -2.4556 H   0  0  0  0  0  0  0  0  0  0  0  0
  1  2  1  0
  2  3  1  0
  3  4  1  0
  4  5  1  0
  5  6  1  0
  6  7  1  0
  7  8  1  0
  7  9  1  0
  2 10  1  0
 10 11  1  0
 11 12  1  0
 12 13  1  0
 13 14  1  1
 13 15  1  0
 15 16  1  0
 16 17  1  0
 17 18  2  0
 18 19  1  0
 19 20  1  0
 20 21  1  0
 21 22  1  0
 22 23  1  0
 22 24  1  0
 24 25  1  0
 24 26  1  0
 19 27  1  0
 27 28  1  6
 27 29  1  0
 29 30  1  0
 30 31  1  0
 31 32  1  1
  7  5  1  0
 31 10  1  0
 31 13  1  0
 27 15  1  0
 24 18  1  0
  1 33  1  0
  1 34  1  0
  1 35  1  0
  2 36  1  6
  3 37  1  0
  3 38  1  0
  4 39  1  0
  4 40  1  0
  5 41  1  1
  8 42  1  0
  8 43  1  0
  8 44  1  0
  9 45  1  0
  9 46  1  0
  9 47  1  0
 10 48  1  1
 11 49  1  0
 11 50  1  0
 12 51  1  0
 12 52  1  0
 14 53  1  0
 14 54  1  0
 14 55  1  0
 15 56  1  6
 16 57  1  0
 16 58  1  0
 17 59  1  0
 19 60  1  1
 20 61  1  0
 20 62  1  0
 21 63  1  0
 21 64  1  0
 22 65  1  1
 23 66  1  0
 25 67  1  0
 25 68  1  0
 25 69  1  0
 26 70  1  0
 26 71  1  0
 26 72  1  0
 28 73  1  0
 28 74  1  0
 28 75  1  0
 29 76  1  0
 29 77  1  0
 30 78  1  0
 30 79  1  0
 32 80  1  0
 32 81  1  0
 32 82  1  0
M  END
>  <meeko>  (5) 
{"is_sidechain": [false], "intermolecular_energy": 2.731, "internal_energy": -0.839}

$$$$
EPH_relaxed_0001_pdb2pqr_Repair_43_r2_0001_out
     RDKit          3D

 82 86  0  0  0  0  0  0  0  0999 V2000
    3.8300   17.5070    0.4090 C   0  0  0  0  0  0  0  0  0  0  0  0
    2.8290   17.8020   -0.7110 C   0  0  2  0  0  0  0  0  0  0  0  0
    2.1830   19.1930   -0.5610 C   0  0  0  0  0  0  0  0  0  0  0  0
    1.3140   19.3370    0.6920 C   0  0  0  0  0  0  0  0  0  0  0  0
    0.0380   20.0660    0.4010 C   0  0  2  0  0  0  0  0  0  0  0  0
   -0.8470   20.1940    1.5210 O   0  0  0  0  0  0  0  0  0  0  0  0
   -1.3270   19.4040    0.4210 C   0  0  0  0  0  0  0  0  0  0  0  0
   -1.4840   17.9500    0.7400 C   0  0  0  0  0  0  0  0  0  0  0  0
   -2.4450   20.0460   -0.3390 C   0  0  0  0  0  0  0  0  0  0  0  0
    1.7490   16.7260   -0.7390 C   0  0  1  0  0  0  0  0  0  0  0  0
    0.4220   17.2290   -1.3680 C   0  0  0  0  0  0  0  0  0  0  0  0
   -0.1940   16.0270   -2.1310 C   0  0  0  0  0  0  0  0  0  0  0  0
    0.6140   14.8010   -1.6460 C   0  0  1  0  0  0  0  0  0  0  0  0
   -0.0230   14.4190   -0.2730 C   0  0  0  0  0  0  0  0  0  0  0  0
    0.6660   13.5790   -2.6190 C   0  0  2  0  0  0  0  0  0  0  0  0
   -0.6950   12.9260   -2.9200 C   0  0  0  0  0  0  0  0  0  0  0  0
   -1.0880   11.8190   -1.9990 C   0  0  0  0  0  0  0  0  0  0  0  0
   -0.2640   11.1750   -1.1520 C   0  0  0  0  0  0  0  0  0  0  0  0
    1.2400   11.4810   -1.1320 C   0  0  1  0  0  0  0  0  0  0  0  0
    2.0380   10.1510   -1.1230 C   0  0  0  0  0  0  0  0  0  0  0  0
    1.6160    9.2230    0.0120 C   0  0  0  0  0  0  0  0  0  0  0  0
    0.1280    8.8960   -0.0760 C   0  0  2  0  0  0  0  0  0  0  0  0
   -0.1030    8.1140   -1.2510 O   0  0  0  0  0  0  0  0  0  0  0  0
   -0.7770   10.1600   -0.1020 C   0  0  0  0  0  0  0  0  0  0  0  0
   -0.7560   10.8440    1.2870 C   0  0  0  0  0  0  0  0  0  0  0  0
   -2.2400    9.6940   -0.3340 C   0  0  0  0  0  0  0  0  0  0  0  0
    1.7560   12.4950   -2.2410 C   0  0  1  0  0  0  0  0  0  0  0  0
    2.0890   11.7230   -3.5540 C   0  0  0  0  0  0  0  0  0  0  0  0
    3.1040   13.1470   -1.7550 C   0  0  0  0  0  0  0  0  0  0  0  0
    2.9890   14.4210   -0.8960 C   0  0  0  0  0  0  0  0  0  0  0  0
    2.0480   15.4390   -1.5470 C   0  0  2  0  0  0  0  0  0  0  0  0
    2.6740   15.8590   -2.9210 C   0  0  0  0  0  0  0  0  0  0  0  0
    3.3419   17.6508    1.3842 H   0  0  0  0  0  0  0  0  0  0  0  0
    4.1798   16.4676    0.3238 H   0  0  0  0  0  0  0  0  0  0  0  0
    4.6876   18.1906    0.3238 H   0  0  0  0  0  0  0  0  0  0  0  0
    3.3839   17.7970   -1.6608 H   0  0  0  0  0  0  0  0  0  0  0  0
    2.9845   19.9450   -0.5159 H   0  0  0  0  0  0  0  0  0  0  0  0
    1.5219   19.3354   -1.4285 H   0  0  0  0  0  0  0  0  0  0  0  0
    1.0724   18.3346    1.0753 H   0  0  0  0  0  0  0  0  0  0  0  0
    1.8788   19.9181    1.4359 H   0  0  0  0  0  0  0  0  0  0  0  0
    0.5412   20.6964   -0.3469 H   0  0  0  0  0  0  0  0  0  0  0  0
   -1.4987   17.8136    1.8314 H   0  0  0  0  0  0  0  0  0  0  0  0
   -2.4273   17.5804    0.3115 H   0  0  0  0  0  0  0  0  0  0  0  0
   -0.6414   17.3875    0.3115 H   0  0  0  0  0  0  0  0  0  0  0  0
   -3.1756   20.4656    0.3682 H   0  0  0  0  0  0  0  0  0  0  0  0
   -2.0433   20.8510   -0.9719 H   0  0  0  0  0  0  0  0  0  0  0  0
   -2.9378   19.2933   -0.9719 H   0  0  0  0  0  0  0  0  0  0  0  0
    1.6941   16.4913    0.3343 H   0  0  0  0  0  0  0  0  0  0  0  0
   -0.2655   17.5703   -0.5800 H   0  0  0  0  0  0  0  0  0  0  0  0
    0.6018   18.0770   -2.0451 H   0  0  0  0  0  0  0  0  0  0  0  0
   -1.2593   15.9134   -1.8813 H   0  0  0  0  0  0  0  0  0  0  0  0
   -0.1424   16.1552   -3.2223 H   0  0  0  0  0  0  0  0  0  0  0  0
    0.6097   14.7984    0.5430 H   0  0  0  0  0  0  0  0  0  0  0  0
   -1.0257   14.8650   -0.1972 H   0  0  0  0  0  0  0  0  0  0  0  0
   -0.1019   13.3244   -0.1972 H   0  0  0  0  0  0  0  0  0  0  0  0
    0.9904   14.0425   -3.5624 H   0  0  0  0  0  0  0  0  0  0  0  0
   -1.4672   13.7072   -2.8617 H   0  0  0  0  0  0  0  0  0  0  0  0
   -0.6014   12.4731   -3.9181 H   0  0  0  0  0  0  0  0  0  0  0  0
   -2.1414   11.5025   -2.0139 H   0  0  0  0  0  0  0  0  0  0  0  0
    1.4258   12.0344   -0.1997 H   0  0  0  0  0  0  0  0  0  0  0  0
    1.8735    9.6347   -2.0803 H   0  0  0  0  0  0  0  0  0  0  0  0
    3.0992   10.3994   -0.9740 H   0  0  0  0  0  0  0  0  0  0  0  0
    2.1942    8.2894   -0.0523 H   0  0  0  0  0  0  0  0  0  0  0  0
    1.8084    9.7292    0.9695 H   0  0  0  0  0  0  0  0  0  0  0  0
   -0.1413    8.3370    0.8323 H   0  0  0  0  0  0  0  0  0  0  0  0
   -0.4550    8.7080   -1.9360 H   0  0  0  0  0  0  0  0  0  0  0  0
   -0.7796   10.0761    2.0743 H   0  0  0  0  0  0  0  0  0  0  0  0
    0.1610   11.4433    1.3867 H   0  0  0  0  0  0  0  0  0  0  0  0
   -1.6345   11.4985    1.3867 H   0  0  0  0  0  0  0  0  0  0  0  0
   -2.7331    9.5369    0.6367 H   0  0  0  0  0  0  0  0  0  0  0  0
   -2.7842   10.4633   -0.9015 H   0  0  0  0  0  0  0  0  0  0  0  0
   -2.2390    8.7517   -0.9015 H   0  0  0  0  0  0  0  0  0  0  0  0
    2.5132   10.7395   -3.3035 H   0  0  0  0  0  0  0  0  0  0  0  0
    1.1697   11.5867   -4.1424 H   0  0  0  0  0  0  0  0  0  0  0  0
    2.8190   12.2981   -4.1424 H   0  0  0  0  0  0  0  0  0  0  0  0
    3.6435   12.3935   -1.1624 H   0  0  0  0  0  0  0  0  0  0  0  0
    3.6180   13.4648   -2.6741 H   0  0  0  0  0  0  0  0  0  0  0  0
    2.5970   14.1518    0.0959 H   0  0  0  0  0  0  0  0  0  0  0  0
    3.9873   14.8742   -0.8060 H   0  0  0  0  0  0  0  0  0  0  0  0
    3.5755   16.4638   -2.7436 H   0  0  0  0  0  0  0  0  0  0  0  0
    2.9433   14.9581   -3.4919 H   0  0  0  0  0  0  0  0  0  0  0  0
    1.9425   16.4498   -3.4919 H   0  0  0  0  0  0  0  0  0  0  0  0
  1  2  1  0
  2  3  1  0
  3  4  1  0
  4  5  1  0
  5  6  1  0
  6  7  1  0
  7  8  1  0
  7  9  1  0
  2 10  1  0
 10 11  1  0
 11 12  1  0
 12 13  1  0
 13 14  1  1
 13 15  1  0
 15 16  1  0
 16 17  1  0
 17 18  2  0
 18 19  1  0
 19 20  1  0
 20 21  1  0
 21 22  1  0
 22 23  1  0
 22 24  1  0
 24 25  1  0
 24 26  1  0
 19 27  1  0
 27 28  1  6
 27 29  1  0
 29 30  1  0
 30 31  1  0
 31 32  1  6
  7  5  1  0
 31 10  1  0
 31 13  1  0
 27 15  1  0
 24 18  1  0
  1 33  1  0
  1 34  1  0
  1 35  1  0
  2 36  1  6
  3 37  1  0
  3 38  1  0
  4 39  1  0
  4 40  1  0
  5 41  1  6
  8 42  1  0
  8 43  1  0
  8 44  1  0
  9 45  1  0
  9 46  1  0
  9 47  1  0
 10 48  1  1
 11 49  1  0
 11 50  1  0
 12 51  1  0
 12 52  1  0
 14 53  1  0
 14 54  1  0
 14 55  1  0
 15 56  1  6
 16 57  1  0
 16 58  1  0
 17 59  1  0
 19 60  1  1
 20 61  1  0
 20 62  1  0
 21 63  1  0
 21 64  1  0
 22 65  1  1
 23 66  1  0
 25 67  1  0
 25 68  1  0
 25 69  1  0
 26 70  1  0
 26 71  1  0
 26 72  1  0
 28 73  1  0
 28 74  1  0
 28 75  1  0
 29 76  1  0
 29 77  1  0
 30 78  1  0
 30 79  1  0
 32 80  1  0
 32 81  1  0
 32 82  1  0
M  END
>  <meeko>  (6) 
{"is_sidechain": [false], "intermolecular_energy": 2.731, "internal_energy": -0.839}

$$$$
EPH_relaxed_0001_pdb2pqr_Repair_43_r2_0001_out
     RDKit          3D

 82 86  0  0  0  0  0  0  0  0999 V2000
   -4.4770    6.5300   -2.2970 C   0  0  0  0  0  0  0  0  0  0  0  0
   -5.0710    7.9050   -1.9810 C   0  0  2  0  0  0  0  0  0  0  0  0
   -4.9310    8.2690   -0.4890 C   0  0  0  0  0  0  0  0  0  0  0  0
   -3.8030    9.2630   -0.2010 C   0  0  0  0  0  0  0  0  0  0  0  0
   -2.5070    8.8230   -0.8130 C   0  0  2  0  0  0  0  0  0  0  0  0
   -1.3420    9.1380   -0.0390 O   0  0  0  0  0  0  0  0  0  0  0  0
   -1.4490    9.7870   -1.3170 C   0  0  0  0  0  0  0  0  0  0  0  0
   -1.6410   11.2690   -1.2320 C   0  0  0  0  0  0  0  0  0  0  0  0
   -0.4580    9.2980   -2.3260 C   0  0  0  0  0  0  0  0  0  0  0  0
   -6.5390    7.9450   -2.3910 C   0  0  1  0  0  0  0  0  0  0  0  0
   -6.8070    7.1930   -3.7220 C   0  0  0  0  0  0  0  0  0  0  0  0
   -8.2090    6.5420   -3.5930 C   0  0  0  0  0  0  0  0  0  0  0  0
   -8.8340    7.2070   -2.3450 C   0  0  1  0  0  0  0  0  0  0  0  0
   -9.3790    8.5790   -2.8520 C   0  0  0  0  0  0  0  0  0  0  0  0
   -9.9390    6.3860   -1.6050 C   0  0  2  0  0  0  0  0  0  0  0  0
  -11.2000    6.0910   -2.4360 C   0  0  0  0  0  0  0  0  0  0  0  0
  -12.2850    7.1110   -2.3330 C   0  0  0  0  0  0  0  0  0  0  0  0
  -12.3710    8.0690   -1.3910 C   0  0  0  0  0  0  0  0  0  0  0  0
  -11.3610    8.1330   -0.2380 C   0  0  1  0  0  0  0  0  0  0  0  0
  -12.1170    8.3370    1.1010 C   0  0  0  0  0  0  0  0  0  0  0  0
  -13.0450    9.5480    1.0700 C   0  0  0  0  0  0  0  0  0  0  0  0
  -14.0710    9.4200   -0.0520 C   0  0  2  0  0  0  0  0  0  0  0  0
  -14.9500    8.3310    0.2490 O   0  0  0  0  0  0  0  0  0  0  0  0
  -13.4270    9.2000   -1.4500 C   0  0  0  0  0  0  0  0  0  0  0  0
  -12.7210   10.5010   -1.9070 C   0  0  0  0  0  0  0  0  0  0  0  0
  -14.5700    8.9460   -2.4680 C   0  0  0  0  0  0  0  0  0  0  0  0
  -10.3100    6.9420   -0.1710 C   0  0  1  0  0  0  0  0  0  0  0  0
  -10.9110    5.7470    0.6300 C   0  0  0  0  0  0  0  0  0  0  0  0
   -9.0420    7.4210    0.6310 C   0  0  0  0  0  0  0  0  0  0  0  0
   -7.9320    8.1200   -0.1770 C   0  0  0  0  0  0  0  0  0  0  0  0
   -7.5660    7.3070   -1.4220 C   0  0  2  0  0  0  0  0  0  0  0  0
   -6.9940    5.9300   -0.9420 C   0  0  0  0  0  0  0  0  0  0  0  0
   -4.2498    6.0041   -1.3579 H   0  0  0  0  0  0  0  0  0  0  0  0
   -5.2017    5.9427   -2.8801 H   0  0  0  0  0  0  0  0  0  0  0  0
   -3.5527    6.6551   -2.8801 H   0  0  0  0  0  0  0  0  0  0  0  0
   -4.5038    8.6503   -2.5578 H   0  0  0  0  0  0  0  0  0  0  0  0
   -5.8790    8.7116   -0.1491 H   0  0  0  0  0  0  0  0  0  0  0  0
   -4.6854    7.3402    0.0467 H   0  0  0  0  0  0  0  0  0  0  0  0
   -4.0780   10.2442   -0.6153 H   0  0  0  0  0  0  0  0  0  0  0  0
   -3.6659    9.3199    0.8889 H   0  0  0  0  0  0  0  0  0  0  0  0
   -2.9952    7.9543   -1.2789 H   0  0  0  0  0  0  0  0  0  0  0  0
   -1.6805   11.5736   -0.1758 H   0  0  0  0  0  0  0  0  0  0  0  0
   -0.8011   11.7766   -1.7289 H   0  0  0  0  0  0  0  0  0  0  0  0
   -2.5825   11.5459   -1.7289 H   0  0  0  0  0  0  0  0  0  0  0  0
    0.4119    8.8687   -1.8074 H   0  0  0  0  0  0  0  0  0  0  0  0
   -0.9262    8.5275   -2.9562 H   0  0  0  0  0  0  0  0  0  0  0  0
   -0.1313   10.1383   -2.9562 H   0  0  0  0  0  0  0  0  0  0  0  0
   -6.6893    9.0338   -2.4343 H   0  0  0  0  0  0  0  0  0  0  0  0
   -6.7932    7.8990   -4.5655 H   0  0  0  0  0  0  0  0  0  0  0  0
   -6.0341    6.4330   -3.9091 H   0  0  0  0  0  0  0  0  0  0  0  0
   -8.8160    6.7467   -4.4872 H   0  0  0  0  0  0  0  0  0  0  0  0
   -8.1538    5.4474   -3.4991 H   0  0  0  0  0  0  0  0  0  0  0  0
   -9.6314    9.2143   -1.9902 H   0  0  0  0  0  0  0  0  0  0  0  0
   -8.6101    9.0763   -3.4615 H   0  0  0  0  0  0  0  0  0  0  0  0
  -10.2795    8.4132   -3.4615 H   0  0  0  0  0  0  0  0  0  0  0  0
   -9.4467    5.4141   -1.4530 H   0  0  0  0  0  0  0  0  0  0  0  0
  -10.9015    6.0179   -3.4922 H   0  0  0  0  0  0  0  0  0  0  0  0
  -11.6198    5.1584   -2.0310 H   0  0  0  0  0  0  0  0  0  0  0  0
  -13.0816    7.0770   -3.0908 H   0  0  0  0  0  0  0  0  0  0  0  0
  -10.7207    9.0041   -0.4412 H   0  0  0  0  0  0  0  0  0  0  0  0
  -12.7167    7.4383    1.3079 H   0  0  0  0  0  0  0  0  0  0  0  0
  -11.3659    8.5117    1.8854 H   0  0  0  0  0  0  0  0  0  0  0  0
  -13.5718    9.6226    2.0328 H   0  0  0  0  0  0  0  0  0  0  0  0
  -12.4402   10.4494    0.8917 H   0  0  0  0  0  0  0  0  0  0  0  0
  -14.6204   10.3714   -0.1061 H   0  0  0  0  0  0  0  0  0  0  0  0
  -14.9690    7.7450   -0.5270 H   0  0  0  0  0  0  0  0  0  0  0  0
  -12.4080   11.0778   -1.0242 H   0  0  0  0  0  0  0  0  0  0  0  0
  -11.8375   10.2461   -2.5106 H   0  0  0  0  0  0  0  0  0  0  0  0
  -13.4163   11.1029   -2.5106 H   0  0  0  0  0  0  0  0  0  0  0  0
  -15.5044    8.7384   -1.9259 H   0  0  0  0  0  0  0  0  0  0  0  0
  -14.7028    9.8365   -3.0999 H   0  0  0  0  0  0  0  0  0  0  0  0
  -14.3132    8.0830   -3.0999 H   0  0  0  0  0  0  0  0  0  0  0  0
  -10.8129    5.9420    1.7081 H   0  0  0  0  0  0  0  0  0  0  0  0
  -11.9744    5.6315    0.3735 H   0  0  0  0  0  0  0  0  0  0  0  0
  -10.3697    4.8244    0.3735 H   0  0  0  0  0  0  0  0  0  0  0  0
   -9.3837    8.1244    1.4046 H   0  0  0  0  0  0  0  0  0  0  0  0
   -8.5806    6.4999    1.0167 H   0  0  0  0  0  0  0  0  0  0  0  0
   -8.2848    9.1146   -0.4875 H   0  0  0  0  0  0  0  0  0  0  0  0
   -7.0387    8.2096    0.4586 H   0  0  0  0  0  0  0  0  0  0  0  0
   -6.9820    5.9012    0.1576 H   0  0  0  0  0  0  0  0  0  0  0  0
   -7.6286    5.1164   -1.3232 H   0  0  0  0  0  0  0  0  0  0  0  0
   -5.9697    5.8055   -1.3232 H   0  0  0  0  0  0  0  0  0  0  0  0
  1  2  1  0
  2  3  1  0
  3  4  1  0
  4  5  1  0
  5  6  1  0
  6  7  1  0
  7  8  1  0
  7  9  1  0
  2 10  1  0
 10 11  1  0
 11 12  1  0
 12 13  1  0
 13 14  1  6
 13 15  1  0
 15 16  1  0
 16 17  1  0
 17 18  2  0
 18 19  1  0
 19 20  1  0
 20 21  1  0
 21 22  1  0
 22 23  1  0
 22 24  1  0
 24 25  1  0
 24 26  1  0
 19 27  1  0
 27 28  1  1
 27 29  1  0
 29 30  1  0
 30 31  1  0
 31 32  1  1
  7  5  1  0
 31 10  1  0
 31 13  1  0
 27 15  1  0
 24 18  1  0
  1 33  1  0
  1 34  1  0
  1 35  1  0
  2 36  1  6
  3 37  1  0
  3 38  1  0
  4 39  1  0
  4 40  1  0
  5 41  1  6
  8 42  1  0
  8 43  1  0
  8 44  1  0
  9 45  1  0
  9 46  1  0
  9 47  1  0
 10 48  1  6
 11 49  1  0
 11 50  1  0
 12 51  1  0
 12 52  1  0
 14 53  1  0
 14 54  1  0
 14 55  1  0
 15 56  1  1
 16 57  1  0
 16 58  1  0
 17 59  1  0
 19 60  1  6
 20 61  1  0
 20 62  1  0
 21 63  1  0
 21 64  1  0
 22 65  1  6
 23 66  1  0
 25 67  1  0
 25 68  1  0
 25 69  1  0
 26 70  1  0
 26 71  1  0
 26 72  1  0
 28 73  1  0
 28 74  1  0
 28 75  1  0
 29 76  1  0
 29 77  1  0
 30 78  1  0
 30 79  1  0
 32 80  1  0
 32 81  1  0
 32 82  1  0
M  END
>  <meeko>  (7) 
{"is_sidechain": [false], "intermolecular_energy": 2.731, "internal_energy": -0.839}

$$$$
EPH_relaxed_0001_pdb2pqr_Repair_43_r2_0001_out
     RDKit          3D

 82 86  0  0  0  0  0  0  0  0999 V2000
    0.4560    8.8030   -2.3650 C   0  0  0  0  0  0  0  0  0  0  0  0
    1.1940    9.9460   -3.0660 C   0  0  2  0  0  0  0  0  0  0  0  0
    2.6960    9.9700   -2.7160 C   0  0  0  0  0  0  0  0  0  0  0  0
    3.5720   10.5940   -3.8050 C   0  0  0  0  0  0  0  0  0  0  0  0
    4.9710   10.8320   -3.3220 C   0  0  2  0  0  0  0  0  0  0  0  0
    5.5720   12.0420   -3.8030 O   0  0  0  0  0  0  0  0  0  0  0  0
    6.1850   10.8150   -4.2320 C   0  0  0  0  0  0  0  0  0  0  0  0
    6.0560   10.5520   -5.7000 C   0  0  0  0  0  0  0  0  0  0  0  0
    7.5310   10.5690   -3.6250 C   0  0  0  0  0  0  0  0  0  0  0  0
    0.5530   11.2800   -2.7010 C   0  0  1  0  0  0  0  0  0  0  0  0
   -0.8250   11.1100   -2.0080 C   0  0  0  0  0  0  0  0  0  0  0  0
   -0.9450   12.2500   -0.9650 C   0  0  0  0  0  0  0  0  0  0  0  0
    0.2050   13.2230   -1.3170 C   0  0  1  0  0  0  0  0  0  0  0  0
   -0.3430   14.0800   -2.5010 C   0  0  0  0  0  0  0  0  0  0  0  0
    0.7310   14.1210   -0.1500 C   0  0  2  0  0  0  0  0  0  0  0  0
   -0.3020   15.0970    0.4400 C   0  0  0  0  0  0  0  0  0  0  0  0
   -0.3460   16.4440   -0.2030 C   0  0  0  0  0  0  0  0  0  0  0  0
    0.5980   16.9540   -1.0170 C   0  0  0  0  0  0  0  0  0  0  0  0
    1.9000   16.1900   -1.2870 C   0  0  1  0  0  0  0  0  0  0  0  0
    3.1050   17.1590   -1.1550 C   0  0  0  0  0  0  0  0  0  0  0  0
    2.9600   18.3960   -2.0360 C   0  0  0  0  0  0  0  0  0  0  0  0
    1.6830   19.1600   -1.6970 C   0  0  2  0  0  0  0  0  0  0  0  0
    1.8050   19.7000   -0.3770 O   0  0  0  0  0  0  0  0  0  0  0  0
    0.4030   18.2830   -1.7860 C   0  0  0  0  0  0  0  0  0  0  0  0
    0.1040   17.9480   -3.2680 C   0  0  0  0  0  0  0  0  0  0  0  0
   -0.7950   19.1340   -1.2840 C   0  0  0  0  0  0  0  0  0  0  0  0
    2.1020   14.8480   -0.4600 C   0  0  1  0  0  0  0  0  0  0  0  0
    2.7590   15.1670    0.9180 C   0  0  0  0  0  0  0  0  0  0  0  0
    3.1130   13.9180   -1.2290 C   0  0  0  0  0  0  0  0  0  0  0  0
    2.5170   12.9680   -2.2850 C   0  0  0  0  0  0  0  0  0  0  0  0
    1.3240   12.1940   -1.7160 C   0  0  2  0  0  0  0  0  0  0  0  0
    1.8490   11.3060   -0.5360 C   0  0  0  0  0  0  0  0  0  0  0  0
    0.5369    8.9282   -1.2751 H   0  0  0  0  0  0  0  0  0  0  0  0
   -0.6042    8.8168   -2.6580 H   0  0  0  0  0  0  0  0  0  0  0  0
    0.9049    7.8425   -2.6580 H   0  0  0  0  0  0  0  0  0  0  0  0
    1.1106    9.7773   -4.1498 H   0  0  0  0  0  0  0  0  0  0  0  0
    2.8276   10.5493   -1.7902 H   0  0  0  0  0  0  0  0  0  0  0  0
    3.0170    8.9237   -2.6058 H   0  0  0  0  0  0  0  0  0  0  0  0
    3.6040    9.9147   -4.6696 H   0  0  0  0  0  0  0  0  0  0  0  0
    3.1351   11.5646   -4.0825 H   0  0  0  0  0  0  0  0  0  0  0  0
    4.7548   10.3226   -2.3713 H   0  0  0  0  0  0  0  0  0  0  0  0
    5.5765    9.5745   -5.8566 H   0  0  0  0  0  0  0  0  0  0  0  0
    5.4420   11.3397   -6.1611 H   0  0  0  0  0  0  0  0  0  0  0  0
    7.0547   10.5486   -6.1611 H   0  0  0  0  0  0  0  0  0  0  0  0
    7.4470   10.5844   -2.5283 H   0  0  0  0  0  0  0  0  0  0  0  0
    7.9061    9.5874   -3.9503 H   0  0  0  0  0  0  0  0  0  0  0  0
    8.2290   11.3544   -3.9503 H   0  0  0  0  0  0  0  0  0  0  0  0
    0.5174   11.7462   -3.6967 H   0  0  0  0  0  0  0  0  0  0  0  0
   -1.6339   11.1882   -2.7493 H   0  0  0  0  0  0  0  0  0  0  0  0
   -0.9059   10.1243   -1.5266 H   0  0  0  0  0  0  0  0  0  0  0  0
   -1.9194   12.7533   -1.0501 H   0  0  0  0  0  0  0  0  0  0  0  0
   -0.8763   11.8792    0.0683 H   0  0  0  0  0  0  0  0  0  0  0  0
   -0.8955   14.9440   -2.1033 H   0  0  0  0  0  0  0  0  0  0  0  0
    0.4968   14.4338   -3.1170 H   0  0  0  0  0  0  0  0  0  0  0  0
   -1.0165   13.4661   -3.1170 H   0  0  0  0  0  0  0  0  0  0  0  0
    0.9314   13.3847    0.6422 H   0  0  0  0  0  0  0  0  0  0  0  0
   -1.2975   14.6398    0.3400 H   0  0  0  0  0  0  0  0  0  0  0  0
    0.0014   15.2674    1.4835 H   0  0  0  0  0  0  0  0  0  0  0  0
   -1.2239   17.0731    0.0059 H   0  0  0  0  0  0  0  0  0  0  0  0
    1.8278   15.8219   -2.3211 H   0  0  0  0  0  0  0  0  0  0  0  0
    3.1857   17.4806   -0.1061 H   0  0  0  0  0  0  0  0  0  0  0  0
    4.0053   16.6189   -1.4832 H   0  0  0  0  0  0  0  0  0  0  0  0
    3.8266   19.0547   -1.8772 H   0  0  0  0  0  0  0  0  0  0  0  0
    2.9087   18.0748   -3.0868 H   0  0  0  0  0  0  0  0  0  0  0  0
    1.5687   19.9592   -2.4441 H   0  0  0  0  0  0  0  0  0  0  0  0
    2.2620   20.5550   -0.4500 H   0  0  0  0  0  0  0  0  0  0  0  0
   -0.6277   17.1282   -3.3182 H   0  0  0  0  0  0  0  0  0  0  0  0
   -0.3064   18.8370   -3.7693 H   0  0  0  0  0  0  0  0  0  0  0  0
    1.0337   17.6409   -3.7693 H   0  0  0  0  0  0  0  0  0  0  0  0
   -0.8045   19.1408   -0.1841 H   0  0  0  0  0  0  0  0  0  0  0  0
   -0.6944   20.1642   -1.6562 H   0  0  0  0  0  0  0  0  0  0  0  0
   -1.7347   18.6998   -1.6562 H   0  0  0  0  0  0  0  0  0  0  0  0
    2.0891   14.8418    1.7276 H   0  0  0  0  0  0  0  0  0  0  0  0
    3.7179   14.6342    0.9991 H   0  0  0  0  0  0  0  0  0  0  0  0
    2.9333   16.2501    0.9991 H   0  0  0  0  0  0  0  0  0  0  0  0
    3.8409   14.5668   -1.7380 H   0  0  0  0  0  0  0  0  0  0  0  0
    3.5418   13.2599   -0.4589 H   0  0  0  0  0  0  0  0  0  0  0  0
    2.1831   13.5575   -3.1516 H   0  0  0  0  0  0  0  0  0  0  0  0
    3.2917   12.2470   -2.5849 H   0  0  0  0  0  0  0  0  0  0  0  0
    1.5745   11.7704    0.4226 H   0  0  0  0  0  0  0  0  0  0  0  0
    1.3974   10.3051   -0.6012 H   0  0  0  0  0  0  0  0  0  0  0  0
    2.9436   11.2193   -0.6012 H   0  0  0  0  0  0  0  0  0  0  0  0
  1  2  1  0
  2  3  1  0
  3  4  1  0
  4  5  1  0
  5  6  1  0
  6  7  1  0
  7  8  1  0
  7  9  1  0
  2 10  1  0
 10 11  1  0
 11 12  1  0
 12 13  1  0
 13 14  1  6
 13 15  1  0
 15 16  1  0
 16 17  1  0
 17 18  2  0
 18 19  1  0
 19 20  1  0
 20 21  1  0
 21 22  1  0
 22 23  1  0
 22 24  1  0
 24 25  1  0
 24 26  1  0
 19 27  1  0
 27 28  1  1
 27 29  1  0
 29 30  1  0
 30 31  1  0
 31 32  1  1
  7  5  1  0
 31 10  1  0
 31 13  1  0
 27 15  1  0
 24 18  1  0
  1 33  1  0
  1 34  1  0
  1 35  1  0
  2 36  1  6
  3 37  1  0
  3 38  1  0
  4 39  1  0
  4 40  1  0
  5 41  1  1
  8 42  1  0
  8 43  1  0
  8 44  1  0
  9 45  1  0
  9 46  1  0
  9 47  1  0
 10 48  1  6
 11 49  1  0
 11 50  1  0
 12 51  1  0
 12 52  1  0
 14 53  1  0
 14 54  1  0
 14 55  1  0
 15 56  1  1
 16 57  1  0
 16 58  1  0
 17 59  1  0
 19 60  1  6
 20 61  1  0
 20 62  1  0
 21 63  1  0
 21 64  1  0
 22 65  1  6
 23 66  1  0
 25 67  1  0
 25 68  1  0
 25 69  1  0
 26 70  1  0
 26 71  1  0
 26 72  1  0
 28 73  1  0
 28 74  1  0
 28 75  1  0
 29 76  1  0
 29 77  1  0
 30 78  1  0
 30 79  1  0
 32 80  1  0
 32 81  1  0
 32 82  1  0
M  END
>  <meeko>  (8) 
{"is_sidechain": [false], "intermolecular_energy": 2.731, "internal_energy": -0.839}

$$$$
EPH_relaxed_0001_pdb2pqr_Repair_43_r2_0001_out
     RDKit          3D

 82 86  0  0  0  0  0  0  0  0999 V2000
   -0.1060   10.6290   -4.1950 C   0  0  0  0  0  0  0  0  0  0  0  0
    1.0230   10.3980   -3.1860 C   0  0  2  0  0  0  0  0  0  0  0  0
    0.8730    9.0530   -2.4460 C   0  0  0  0  0  0  0  0  0  0  0  0
   -0.5350    8.8060   -1.8980 C   0  0  0  0  0  0  0  0  0  0  0  0
   -0.6360    9.1690   -0.4470 C   0  0  2  0  0  0  0  0  0  0  0  0
   -1.9610    9.1000    0.0960 O   0  0  0  0  0  0  0  0  0  0  0  0
   -1.3590   10.4040    0.0580 C   0  0  0  0  0  0  0  0  0  0  0  0
   -2.0270   11.3560   -0.8830 C   0  0  0  0  0  0  0  0  0  0  0  0
   -0.9990   10.9410    1.4080 C   0  0  0  0  0  0  0  0  0  0  0  0
    1.0650   11.5430   -2.1820 C   0  0  1  0  0  0  0  0  0  0  0  0
    2.1010   11.3070   -1.0510 C   0  0  0  0  0  0  0  0  0  0  0  0
    2.6920   12.6950   -0.6890 C   0  0  0  0  0  0  0  0  0  0  0  0
    1.7510   13.7110   -1.3780 C   0  0  1  0  0  0  0  0  0  0  0  0
    0.5280   13.8400   -0.4160 C   0  0  0  0  0  0  0  0  0  0  0  0
    2.3690   15.1060   -1.7160 C   0  0  2  0  0  0  0  0  0  0  0  0
    2.8360   15.9250   -0.4990 C   0  0  0  0  0  0  0  0  0  0  0  0
    1.8100   16.8360    0.0880 C   0  0  0  0  0  0  0  0  0  0  0  0
    0.6600   17.2050   -0.5050 C   0  0  0  0  0  0  0  0  0  0  0  0
    0.3410   16.7720   -1.9420 C   0  0  1  0  0  0  0  0  0  0  0  0
   -0.1740   17.9930   -2.7490 C   0  0  0  0  0  0  0  0  0  0  0  0
   -1.3530   18.6860   -2.0730 C   0  0  0  0  0  0  0  0  0  0  0  0
   -0.9790   19.1530   -0.6680 C   0  0  2  0  0  0  0  0  0  0  0  0
    0.0020   20.1890   -0.7730 O   0  0  0  0  0  0  0  0  0  0  0  0
   -0.4370   18.0090    0.2340 C   0  0  0  0  0  0  0  0  0  0  0  0
   -1.5910   17.0400    0.5950 C   0  0  0  0  0  0  0  0  0  0  0  0
    0.0340   18.6400    1.5720 C   0  0  0  0  0  0  0  0  0  0  0  0
    1.4930   15.9820   -2.7000 C   0  0  1  0  0  0  0  0  0  0  0  0
    2.4670   16.9890   -3.3860 C   0  0  0  0  0  0  0  0  0  0  0  0
    0.8540   15.1250   -3.8560 C   0  0  0  0  0  0  0  0  0  0  0  0
    0.3710   13.7100   -3.4860 C   0  0  0  0  0  0  0  0  0  0  0  0
    1.4530   12.9440   -2.7180 C   0  0  2  0  0  0  0  0  0  0  0  0
    2.6880   12.7790   -3.6670 C   0  0  0  0  0  0  0  0  0  0  0  0
   -1.0456   10.8212   -3.6563 H   0  0  0  0  0  0  0  0  0  0  0  0
    0.1384   11.4957   -4.8267 H   0  0  0  0  0  0  0  0  0  0  0  0
   -0.2216    9.7359   -4.8267 H   0  0  0  0  0  0  0  0  0  0  0  0
    1.9678   10.3624   -3.7482 H   0  0  0  0  0  0  0  0  0  0  0  0
    1.1203    8.2417   -3.1465 H   0  0  0  0  0  0  0  0  0  0  0  0
    1.5534    9.0836   -1.5822 H   0  0  0  0  0  0  0  0  0  0  0  0
   -1.2517    9.4149   -2.4687 H   0  0  0  0  0  0  0  0  0  0  0  0
   -0.7599    7.7341   -2.0001 H   0  0  0  0  0  0  0  0  0  0  0  0
    0.3719    8.7732   -0.2532 H   0  0  0  0  0  0  0  0  0  0  0  0
   -2.5654   12.1233   -0.3074 H   0  0  0  0  0  0  0  0  0  0  0  0
   -1.2682   11.8382   -1.5168 H   0  0  0  0  0  0  0  0  0  0  0  0
   -2.7386   10.8065   -1.5168 H   0  0  0  0  0  0  0  0  0  0  0  0
   -1.4317   10.2956    2.1866 H   0  0  0  0  0  0  0  0  0  0  0  0
    0.0956   10.9609    1.5147 H   0  0  0  0  0  0  0  0  0  0  0  0
   -1.3964   11.9611    1.5147 H   0  0  0  0  0  0  0  0  0  0  0  0
    0.0144   11.5424   -1.8562 H   0  0  0  0  0  0  0  0  0  0  0  0
    1.6087   10.8641   -0.1727 H   0  0  0  0  0  0  0  0  0  0  0  0
    2.8908   10.6141   -1.3769 H   0  0  0  0  0  0  0  0  0  0  0  0
    2.6936   12.8442    0.4008 H   0  0  0  0  0  0  0  0  0  0  0  0
    3.7359   12.8029   -1.0187 H   0  0  0  0  0  0  0  0  0  0  0  0
    0.8763   13.8033    0.6268 H   0  0  0  0  0  0  0  0  0  0  0  0
    0.0173   14.7970   -0.5985 H   0  0  0  0  0  0  0  0  0  0  0  0
   -0.1712   13.0106   -0.5985 H   0  0  0  0  0  0  0  0  0  0  0  0
    3.2842   14.8324   -2.2614 H   0  0  0  0  0  0  0  0  0  0  0  0
    3.1524   15.2201    0.2839 H   0  0  0  0  0  0  0  0  0  0  0  0
    3.6470   16.5736   -0.8618 H   0  0  0  0  0  0  0  0  0  0  0  0
    2.0111   17.2403    1.0910 H   0  0  0  0  0  0  0  0  0  0  0  0
   -0.4535   16.0155   -1.8620 H   0  0  0  0  0  0  0  0  0  0  0  0
    0.6471   18.7173   -2.8551 H   0  0  0  0  0  0  0  0  0  0  0  0
   -0.5187   17.6255   -3.7268 H   0  0  0  0  0  0  0  0  0  0  0  0
   -1.6515   19.5573   -2.6744 H   0  0  0  0  0  0  0  0  0  0  0  0
   -2.1839   17.9694   -1.9953 H   0  0  0  0  0  0  0  0  0  0  0  0
   -1.8970   19.5223   -0.1876 H   0  0  0  0  0  0  0  0  0  0  0  0
   -0.4700   21.0360   -0.8400 H   0  0  0  0  0  0  0  0  0  0  0  0
   -1.6790   16.9661    1.6890 H   0  0  0  0  0  0  0  0  0  0  0  0
   -2.5341   17.4208    0.1761 H   0  0  0  0  0  0  0  0  0  0  0  0
   -1.3790   16.0452    0.1761 H   0  0  0  0  0  0  0  0  0  0  0  0
   -0.3894   18.0728    2.4140 H   0  0  0  0  0  0  0  0  0  0  0  0
    1.1323   18.6099    1.6250 H   0  0  0  0  0  0  0  0  0  0  0  0
   -0.3072   19.6844    1.6250 H   0  0  0  0  0  0  0  0  0  0  0  0
    3.0130   17.5535   -2.6158 H   0  0  0  0  0  0  0  0  0  0  0  0
    3.1830   16.4374   -4.0130 H   0  0  0  0  0  0  0  0  0  0  0  0
    1.8918   17.6862   -4.0130 H   0  0  0  0  0  0  0  0  0  0  0  0
   -0.0122   15.6817   -4.2431 H   0  0  0  0  0  0  0  0  0  0  0  0
    1.6654   14.9713   -4.5826 H   0  0  0  0  0  0  0  0  0  0  0  0
   -0.5282   13.7897   -2.8574 H   0  0  0  0  0  0  0  0  0  0  0  0
    0.1456   13.1629   -4.4133 H   0  0  0  0  0  0  0  0  0  0  0  0
    3.6000   12.6572   -3.0641 H   0  0  0  0  0  0  0  0  0  0  0  0
    2.5468   11.8917   -4.3017 H   0  0  0  0  0  0  0  0  0  0  0  0
    2.7846   13.6722   -4.3017 H   0  0  0  0  0  0  0  0  0  0  0  0
  1  2  1  0
  2  3  1  0
  3  4  1  0
  4  5  1  0
  5  6  1  0
  6  7  1  0
  7  8  1  0
  7  9  1  0
  2 10  1  0
 10 11  1  0
 11 12  1  0
 12 13  1  0
 13 14  1  1
 13 15  1  0
 15 16  1  0
 16 17  1  0
 17 18  2  0
 18 19  1  0
 19 20  1  0
 20 21  1  0
 21 22  1  0
 22 23  1  0
 22 24  1  0
 24 25  1  0
 24 26  1  0
 19 27  1  0
 27 28  1  6
 27 29  1  0
 29 30  1  0
 30 31  1  0
 31 32  1  6
  7  5  1  0
 31 10  1  0
 31 13  1  0
 27 15  1  0
 24 18  1  0
  1 33  1  0
  1 34  1  0
  1 35  1  0
  2 36  1  6
  3 37  1  0
  3 38  1  0
  4 39  1  0
  4 40  1  0
  5 41  1  1
  8 42  1  0
  8 43  1  0
  8 44  1  0
  9 45  1  0
  9 46  1  0
  9 47  1  0
 10 48  1  1
 11 49  1  0
 11 50  1  0
 12 51  1  0
 12 52  1  0
 14 53  1  0
 14 54  1  0
 14 55  1  0
 15 56  1  6
 16 57  1  0
 16 58  1  0
 17 59  1  0
 19 60  1  1
 20 61  1  0
 20 62  1  0
 21 63  1  0
 21 64  1  0
 22 65  1  1
 23 66  1  0
 25 67  1  0
 25 68  1  0
 25 69  1  0
 26 70  1  0
 26 71  1  0
 26 72  1  0
 28 73  1  0
 28 74  1  0
 28 75  1  0
 29 76  1  0
 29 77  1  0
 30 78  1  0
 30 79  1  0
 32 80  1  0
 32 81  1  0
 32 82  1  0
M  END
>  <meeko>  (9) 
{"is_sidechain": [false], "intermolecular_energy": 2.731, "internal_energy": -0.839}

$$$$
EPH_relaxed_0001_pdb2pqr_Repair_43_r2_0001_out
     RDKit          3D

 82 86  0  0  0  0  0  0  0  0999 V2000
    2.7020   18.0090   -3.8430 C   0  0  0  0  0  0  0  0  0  0  0  0
    1.9290   17.9220   -2.5250 C   0  0  2  0  0  0  0  0  0  0  0  0
    2.3180   19.0490   -1.5480 C   0  0  0  0  0  0  0  0  0  0  0  0
    1.3030   20.1940   -1.4950 C   0  0  0  0  0  0  0  0  0  0  0  0
    0.2720   19.9720   -0.4300 C   0  0  2  0  0  0  0  0  0  0  0  0
   -0.4380   18.7310   -0.5340 O   0  0  0  0  0  0  0  0  0  0  0  0
   -1.2200   19.9250   -0.7070 C   0  0  0  0  0  0  0  0  0  0  0  0
   -1.7630   20.1010   -2.0900 C   0  0  0  0  0  0  0  0  0  0  0  0
   -2.1660   20.1940    0.4220 C   0  0  0  0  0  0  0  0  0  0  0  0
    2.1640   16.5640   -1.8730 C   0  0  1  0  0  0  0  0  0  0  0  0
    2.6940   16.6830   -0.4190 C   0  0  0  0  0  0  0  0  0  0  0  0
    2.0820   15.5020    0.3780 C   0  0  0  0  0  0  0  0  0  0  0  0
    1.4960   14.5640   -0.7030 C   0  0  1  0  0  0  0  0  0  0  0  0
    2.7170   13.7430   -1.2260 C   0  0  0  0  0  0  0  0  0  0  0  0
    0.3260   13.6320   -0.2490 C   0  0  2  0  0  0  0  0  0  0  0  0
    0.6890   12.6160    0.8490 C   0  0  0  0  0  0  0  0  0  0  0  0
    1.1770   11.2940    0.3570 C   0  0  0  0  0  0  0  0  0  0  0  0
    1.0520   10.8320   -0.9010 C   0  0  0  0  0  0  0  0  0  0  0  0
    0.2770   11.6290   -1.9590 C   0  0  1  0  0  0  0  0  0  0  0  0
   -0.6800   10.6780   -2.7240 C   0  0  0  0  0  0  0  0  0  0  0  0
    0.0430    9.4720   -3.3160 C   0  0  0  0  0  0  0  0  0  0  0  0
    0.7530    8.6730   -2.2260 C   0  0  2  0  0  0  0  0  0  0  0  0
   -0.2310    8.0860   -1.3690 O   0  0  0  0  0  0  0  0  0  0  0  0
    1.7370    9.5290   -1.3810 C   0  0  0  0  0  0  0  0  0  0  0  0
    2.9640    9.9150   -2.2440 C   0  0  0  0  0  0  0  0  0  0  0  0
    2.2790    8.6390   -0.2310 C   0  0  0  0  0  0  0  0  0  0  0  0
   -0.4530   12.9420   -1.4400 C   0  0  1  0  0  0  0  0  0  0  0  0
   -1.8700   12.5840   -0.8980 C   0  0  0  0  0  0  0  0  0  0  0  0
   -0.6770   13.9190   -2.6550 C   0  0  0  0  0  0  0  0  0  0  0  0
    0.4690   14.8970   -2.9790 C   0  0  0  0  0  0  0  0  0  0  0  0
    0.9400   15.6280   -1.7180 C   0  0  2  0  0  0  0  0  0  0  0  0
   -0.2610   16.4800   -1.1820 C   0  0  0  0  0  0  0  0  0  0  0  0
    3.7747   18.1297   -3.6316 H   0  0  0  0  0  0  0  0  0  0  0  0
    2.5439   17.0874   -4.4223 H   0  0  0  0  0  0  0  0  0  0  0  0
    2.3430   18.8724   -4.4223 H   0  0  0  0  0  0  0  0  0  0  0  0
    0.8611   18.0423   -2.7596 H   0  0  0  0  0  0  0  0  0  0  0  0
    2.4093   18.6187   -0.5398 H   0  0  0  0  0  0  0  0  0  0  0  0
    3.2655   19.4753   -1.9092 H   0  0  0  0  0  0  0  0  0  0  0  0
    1.8358   21.1332   -1.2852 H   0  0  0  0  0  0  0  0  0  0  0  0
    0.7883   20.2412   -2.4660 H   0  0  0  0  0  0  0  0  0  0  0  0
    0.8694   20.5379    0.3000 H   0  0  0  0  0  0  0  0  0  0  0  0
   -2.8080   20.4397   -2.0333 H   0  0  0  0  0  0  0  0  0  0  0  0
   -1.1632   20.8507   -2.6268 H   0  0  0  0  0  0  0  0  0  0  0  0
   -1.7170   19.1420   -2.6268 H   0  0  0  0  0  0  0  0  0  0  0  0
   -1.6455   20.0460    1.3797 H   0  0  0  0  0  0  0  0  0  0  0  0
   -2.5281   21.2307    0.3579 H   0  0  0  0  0  0  0  0  0  0  0  0
   -3.0194   19.5029    0.3579 H   0  0  0  0  0  0  0  0  0  0  0  0
    2.8766   16.1351   -2.5929 H   0  0  0  0  0  0  0  0  0  0  0  0
    3.7920   16.6178   -0.4095 H   0  0  0  0  0  0  0  0  0  0  0  0
    2.4121   17.6484    0.0265 H   0  0  0  0  0  0  0  0  0  0  0  0
    2.8573   14.9846    0.9622 H   0  0  0  0  0  0  0  0  0  0  0  0
    1.3205   15.8351    1.0986 H   0  0  0  0  0  0  0  0  0  0  0  0
    3.2919   13.3564   -0.3716 H   0  0  0  0  0  0  0  0  0  0  0  0
    2.3584   12.9018   -1.8374 H   0  0  0  0  0  0  0  0  0  0  0  0
    3.3607   14.3925   -1.8374 H   0  0  0  0  0  0  0  0  0  0  0  0
   -0.3718   14.3416    0.2195 H   0  0  0  0  0  0  0  0  0  0  0  0
    1.4783   13.0586    1.4743 H   0  0  0  0  0  0  0  0  0  0  0  0
   -0.2434   12.4123    1.3960 H   0  0  0  0  0  0  0  0  0  0  0  0
    1.6819   10.6416    1.0846 H   0  0  0  0  0  0  0  0  0  0  0  0
    1.0317   12.0337   -2.6494 H   0  0  0  0  0  0  0  0  0  0  0  0
   -1.4518   10.3192   -2.0272 H   0  0  0  0  0  0  0  0  0  0  0  0
   -1.1192   11.2460   -3.5574 H   0  0  0  0  0  0  0  0  0  0  0  0
   -0.6900    8.8235   -3.8182 H   0  0  0  0  0  0  0  0  0  0  0  0
    0.7946    9.8309   -4.0345 H   0  0  0  0  0  0  0  0  0  0  0  0
    1.3573    7.9008   -2.7246 H   0  0  0  0  0  0  0  0  0  0  0  0
   -0.5770    7.2950   -1.8170 H   0  0  0  0  0  0  0  0  0  0  0  0
    3.8056   10.1798   -1.5871 H   0  0  0  0  0  0  0  0  0  0  0  0
    3.2484    9.0629   -2.8789 H   0  0  0  0  0  0  0  0  0  0  0  0
    2.7093   10.7764   -2.8789 H   0  0  0  0  0  0  0  0  0  0  0  0
    2.0073    9.0851    0.7371 H   0  0  0  0  0  0  0  0  0  0  0  0
    1.8398    7.6334   -0.3075 H   0  0  0  0  0  0  0  0  0  0  0  0
    3.3740    8.5677   -0.3075 H   0  0  0  0  0  0  0  0  0  0  0  0
   -1.8537   12.5881    0.2019 H   0  0  0  0  0  0  0  0  0  0  0  0
   -2.5981   13.3264   -1.2567 H   0  0  0  0  0  0  0  0  0  0  0  0
   -2.1581   11.5848   -1.2567 H   0  0  0  0  0  0  0  0  0  0  0  0
   -0.8523   13.3033   -3.5495 H   0  0  0  0  0  0  0  0  0  0  0  0
   -1.5247   14.5553   -2.3609 H   0  0  0  0  0  0  0  0  0  0  0  0
    1.3127   14.3341   -3.4047 H   0  0  0  0  0  0  0  0  0  0  0  0
    0.1005   15.6424   -3.6991 H   0  0  0  0  0  0  0  0  0  0  0  0
   -0.2527   16.4741   -0.0820 H   0  0  0  0  0  0  0  0  0  0  0  0
   -0.1670   17.5145   -1.5439 H   0  0  0  0  0  0  0  0  0  0  0  0
   -1.2064   16.0494   -1.5439 H   0  0  0  0  0  0  0  0  0  0  0  0
  1  2  1  0
  2  3  1  0
  3  4  1  0
  4  5  1  0
  5  6  1  0
  6  7  1  0
  7  8  1  0
  7  9  1  0
  2 10  1  0
 10 11  1  0
 11 12  1  0
 12 13  1  0
 13 14  1  6
 13 15  1  0
 15 16  1  0
 16 17  1  0
 17 18  2  0
 18 19  1  0
 19 20  1  0
 20 21  1  0
 21 22  1  0
 22 23  1  0
 22 24  1  0
 24 25  1  0
 24 26  1  0
 19 27  1  0
 27 28  1  1
 27 29  1  0
 29 30  1  0
 30 31  1  0
 31 32  1  1
  7  5  1  0
 31 10  1  0
 31 13  1  0
 27 15  1  0
 24 18  1  0
  1 33  1  0
  1 34  1  0
  1 35  1  0
  2 36  1  6
  3 37  1  0
  3 38  1  0
  4 39  1  0
  4 40  1  0
  5 41  1  1
  8 42  1  0
  8 43  1  0
  8 44  1  0
  9 45  1  0
  9 46  1  0
  9 47  1  0
 10 48  1  6
 11 49  1  0
 11 50  1  0
 12 51  1  0
 12 52  1  0
 14 53  1  0
 14 54  1  0
 14 55  1  0
 15 56  1  1
 16 57  1  0
 16 58  1  0
 17 59  1  0
 19 60  1  6
 20 61  1  0
 20 62  1  0
 21 63  1  0
 21 64  1  0
 22 65  1  6
 23 66  1  0
 25 67  1  0
 25 68  1  0
 25 69  1  0
 26 70  1  0
 26 71  1  0
 26 72  1  0
 28 73  1  0
 28 74  1  0
 28 75  1  0
 29 76  1  0
 29 77  1  0
 30 78  1  0
 30 79  1  0
 32 80  1  0
 32 81  1  0
 32 82  1  0
M  END
>  <meeko>  (10) 
{"is_sidechain": [false], "intermolecular_energy": 2.731, "internal_energy": -0.839}

$$$$
EPH_relaxed_0001_pdb2pqr_Repair_43_r2_0001_out
     RDKit          3D

 82 86  0  0  0  0  0  0  0  0999 V2000
   -0.9150   16.3930   -5.8730 C   0  0  0  0  0  0  0  0  0  0  0  0
    0.1810   15.6950   -6.6840 C   0  0  2  0  0  0  0  0  0  0  0  0
   -0.2230   15.5020   -8.1590 C   0  0  0  0  0  0  0  0  0  0  0  0
    0.4280   16.5080   -9.1120 C   0  0  0  0  0  0  0  0  0  0  0  0
    1.8370   16.1200   -9.4490 C   0  0  2  0  0  0  0  0  0  0  0  0
    2.3350   16.6780  -10.6720 O   0  0  0  0  0  0  0  0  0  0  0  0
    2.2030   15.2470  -10.6350 C   0  0  0  0  0  0  0  0  0  0  0  0
    1.1570   14.7080  -11.5590 C   0  0  0  0  0  0  0  0  0  0  0  0
    3.5130   14.5220  -10.6110 C   0  0  0  0  0  0  0  0  0  0  0  0
    0.5140   14.3480   -6.0540 C   0  0  1  0  0  0  0  0  0  0  0  0
    1.7420   13.6670   -6.7160 C   0  0  0  0  0  0  0  0  0  0  0  0
    2.4940   12.9110   -5.5910 C   0  0  0  0  0  0  0  0  0  0  0  0
    1.5080   12.9030   -4.3990 C   0  0  1  0  0  0  0  0  0  0  0  0
    0.5230   11.7300   -4.7010 C   0  0  0  0  0  0  0  0  0  0  0  0
    2.1440   12.7710   -2.9770 C   0  0  2  0  0  0  0  0  0  0  0  0
    2.9110   11.4610   -2.7240 C   0  0  0  0  0  0  0  0  0  0  0  0
    2.0980   10.3450   -2.1570 C   0  0  0  0  0  0  0  0  0  0  0  0
    0.8810   10.4700   -1.5980 C   0  0  0  0  0  0  0  0  0  0  0  0
    0.2410   11.8510   -1.4050 C   0  0  1  0  0  0  0  0  0  0  0  0
   -0.3390   11.9570    0.0300 C   0  0  0  0  0  0  0  0  0  0  0  0
   -1.2990   10.8170    0.3590 C   0  0  0  0  0  0  0  0  0  0  0  0
   -0.6090    9.4640    0.2120 C   0  0  2  0  0  0  0  0  0  0  0  0
    0.4020    9.3500    1.2170 O   0  0  0  0  0  0  0  0  0  0  0  0
    0.0220    9.2470   -1.1920 C   0  0  0  0  0  0  0  0  0  0  0  0
   -1.0990    9.0690   -2.2450 C   0  0  0  0  0  0  0  0  0  0  0  0
    0.8050    7.9070   -1.1610 C   0  0  0  0  0  0  0  0  0  0  0  0
    1.1500   13.0960   -1.7900 C   0  0  1  0  0  0  0  0  0  0  0  0
    2.0310   13.5080   -0.5710 C   0  0  0  0  0  0  0  0  0  0  0  0
    0.2240   14.3300   -2.1050 C   0  0  0  0  0  0  0  0  0  0  0  0
   -0.2740   14.4710   -3.5560 C   0  0  0  0  0  0  0  0  0  0  0  0
    0.8840   14.3380   -4.5500 C   0  0  2  0  0  0  0  0  0  0  0  0
    1.8800   15.5170   -4.2840 C   0  0  0  0  0  0  0  0  0  0  0  0
   -0.7142   16.2651   -4.7991 H   0  0  0  0  0  0  0  0  0  0  0  0
   -0.9265   17.4651   -6.1188 H   0  0  0  0  0  0  0  0  0  0  0  0
   -1.8914   15.9500   -6.1188 H   0  0  0  0  0  0  0  0  0  0  0  0
    1.0698   16.3430   -6.6676 H   0  0  0  0  0  0  0  0  0  0  0  0
    0.0711   14.4886   -8.4699 H   0  0  0  0  0  0  0  0  0  0  0  0
   -1.3100   15.6602   -8.2180 H   0  0  0  0  0  0  0  0  0  0  0  0
   -0.1611   16.5530  -10.0398 H   0  0  0  0  0  0  0  0  0  0  0  0
    0.4519   17.4879   -8.6127 H   0  0  0  0  0  0  0  0  0  0  0  0
    2.1023   16.0651   -8.3829 H   0  0  0  0  0  0  0  0  0  0  0  0
    0.3313   14.2825  -10.9698 H   0  0  0  0  0  0  0  0  0  0  0  0
    0.7739   15.5210  -12.1933 H   0  0  0  0  0  0  0  0  0  0  0  0
    1.5967   13.9242  -12.1933 H   0  0  0  0  0  0  0  0  0  0  0  0
    3.8192   14.3525   -9.5682 H   0  0  0  0  0  0  0  0  0  0  0  0
    3.4061   13.5546  -11.1236 H   0  0  0  0  0  0  0  0  0  0  0  0
    4.2759   15.1263  -11.1236 H   0  0  0  0  0  0  0  0  0  0  0  0
   -0.4439   13.8299   -6.2089 H   0  0  0  0  0  0  0  0  0  0  0  0
    1.4111   12.9606   -7.4916 H   0  0  0  0  0  0  0  0  0  0  0  0
    2.3946   14.4105   -7.1970 H   0  0  0  0  0  0  0  0  0  0  0  0
    2.7317   11.8840   -5.9051 H   0  0  0  0  0  0  0  0  0  0  0  0
    3.4520   13.3878   -5.3365 H   0  0  0  0  0  0  0  0  0  0  0  0
    0.1627   11.3009   -3.7544 H   0  0  0  0  0  0  0  0  0  0  0  0
   -0.3316   12.1089   -5.2807 H   0  0  0  0  0  0  0  0  0  0  0  0
    1.0440   10.9538   -5.2807 H   0  0  0  0  0  0  0  0  0  0  0  0
    2.9042   13.5660   -2.9843 H   0  0  0  0  0  0  0  0  0  0  0  0
    3.3309   11.1225   -3.6827 H   0  0  0  0  0  0  0  0  0  0  0  0
    3.6738   11.6965   -1.9673 H   0  0  0  0  0  0  0  0  0  0  0  0
    2.5308    9.3346   -2.1999 H   0  0  0  0  0  0  0  0  0  0  0  0
   -0.5733   11.9148   -2.1418 H   0  0  0  0  0  0  0  0  0  0  0  0
    0.4931   11.9359    0.7491 H   0  0  0  0  0  0  0  0  0  0  0  0
   -0.9046   12.8984    0.0928 H   0  0  0  0  0  0  0  0  0  0  0  0
   -1.6516   10.9307    1.3947 H   0  0  0  0  0  0  0  0  0  0  0  0
   -2.1458   10.8575   -0.3420 H   0  0  0  0  0  0  0  0  0  0  0  0
   -1.3782    8.6870    0.3332 H   0  0  0  0  0  0  0  0  0  0  0  0
    0.9980   10.1120    1.1230 H   0  0  0  0  0  0  0  0  0  0  0  0
   -2.0611    8.9162   -1.7341 H   0  0  0  0  0  0  0  0  0  0  0  0
   -1.1570    9.9692   -2.8745 H   0  0  0  0  0  0  0  0  0  0  0  0
   -0.8753    8.1951   -2.8745 H   0  0  0  0  0  0  0  0  0  0  0  0
    0.9795    7.6084   -0.1168 H   0  0  0  0  0  0  0  0  0  0  0  0
    0.2197    7.1284   -1.6721 H   0  0  0  0  0  0  0  0  0  0  0  0
    1.7706    8.0347   -1.6721 H   0  0  0  0  0  0  0  0  0  0  0  0
    1.5038   13.2615    0.3624 H   0  0  0  0  0  0  0  0  0  0  0  0
    2.9858   12.9630   -0.6078 H   0  0  0  0  0  0  0  0  0  0  0  0
    2.2249   14.5902   -0.6078 H   0  0  0  0  0  0  0  0  0  0  0  0
   -0.6604   14.2571   -1.4550 H   0  0  0  0  0  0  0  0  0  0  0  0
    0.8532   15.2149   -1.9289 H   0  0  0  0  0  0  0  0  0  0  0  0
   -1.0151   13.6841   -3.7599 H   0  0  0  0  0  0  0  0  0  0  0  0
   -0.7258   15.4667   -3.6759 H   0  0  0  0  0  0  0  0  0  0  0  0
    1.9995   15.6585   -3.1997 H   0  0  0  0  0  0  0  0  0  0  0  0
    2.8561   15.2807   -4.7327 H   0  0  0  0  0  0  0  0  0  0  0  0
    1.4839   16.4399   -4.7327 H   0  0  0  0  0  0  0  0  0  0  0  0
  1  2  1  0
  2  3  1  0
  3  4  1  0
  4  5  1  0
  5  6  1  0
  6  7  1  0
  7  8  1  0
  7  9  1  0
  2 10  1  0
 10 11  1  0
 11 12  1  0
 12 13  1  0
 13 14  1  6
 13 15  1  0
 15 16  1  0
 16 17  1  0
 17 18  2  0
 18 19  1  0
 19 20  1  0
 20 21  1  0
 21 22  1  0
 22 23  1  0
 22 24  1  0
 24 25  1  0
 24 26  1  0
 19 27  1  0
 27 28  1  1
 27 29  1  0
 29 30  1  0
 30 31  1  0
 31 32  1  6
  7  5  1  0
 31 10  1  0
 31 13  1  0
 27 15  1  0
 24 18  1  0
  1 33  1  0
  1 34  1  0
  1 35  1  0
  2 36  1  6
  3 37  1  0
  3 38  1  0
  4 39  1  0
  4 40  1  0
  5 41  1  1
  8 42  1  0
  8 43  1  0
  8 44  1  0
  9 45  1  0
  9 46  1  0
  9 47  1  0
 10 48  1  1
 11 49  1  0
 11 50  1  0
 12 51  1  0
 12 52  1  0
 14 53  1  0
 14 54  1  0
 14 55  1  0
 15 56  1  6
 16 57  1  0
 16 58  1  0
 17 59  1  0
 19 60  1  6
 20 61  1  0
 20 62  1  0
 21 63  1  0
 21 64  1  0
 22 65  1  1
 23 66  1  0
 25 67  1  0
 25 68  1  0
 25 69  1  0
 26 70  1  0
 26 71  1  0
 26 72  1  0
 28 73  1  0
 28 74  1  0
 28 75  1  0
 29 76  1  0
 29 77  1  0
 30 78  1  0
 30 79  1  0
 32 80  1  0
 32 81  1  0
 32 82  1  0
M  END
>  <meeko>  (11) 
{"is_sidechain": [false], "intermolecular_energy": 2.731, "internal_energy": -0.839}

$$$$
EPH_relaxed_0001_pdb2pqr_Repair_43_r2_0001_out
     RDKit          3D

 82 86  0  0  0  0  0  0  0  0999 V2000
   -2.1580    7.8530   -2.2420 C   0  0  0  0  0  0  0  0  0  0  0  0
   -2.1520    8.4680   -0.8390 C   0  0  2  0  0  0  0  0  0  0  0  0
   -3.5510    8.4530   -0.1920 C   0  0  0  0  0  0  0  0  0  0  0  0
   -4.6890    8.2200   -1.1900 C   0  0  0  0  0  0  0  0  0  0  0  0
   -5.7780    7.3740   -0.6030 C   0  0  2  0  0  0  0  0  0  0  0  0
   -6.0800    6.1860   -1.3460 O   0  0  0  0  0  0  0  0  0  0  0  0
   -7.1270    7.1680   -1.2660 C   0  0  0  0  0  0  0  0  0  0  0  0
   -7.4590    7.8120   -2.5750 C   0  0  0  0  0  0  0  0  0  0  0  0
   -8.2850    6.7460   -0.4160 C   0  0  0  0  0  0  0  0  0  0  0  0
   -1.6210    9.8950   -0.8990 C   0  0  1  0  0  0  0  0  0  0  0  0
   -1.1600   10.4200    0.4860 C   0  0  0  0  0  0  0  0  0  0  0  0
    0.0610   11.3410    0.2320 C   0  0  0  0  0  0  0  0  0  0  0  0
    0.0570   11.5810   -1.2960 C   0  0  1  0  0  0  0  0  0  0  0  0
   -0.9990   12.7070   -1.5230 C   0  0  0  0  0  0  0  0  0  0  0  0
    1.4340   11.9420   -1.9420 C   0  0  2  0  0  0  0  0  0  0  0  0
    2.0630   13.2560   -1.4470 C   0  0  0  0  0  0  0  0  0  0  0  0
    1.6950   14.4740   -2.2280 C   0  0  0  0  0  0  0  0  0  0  0  0
    1.1250   14.4780   -3.4470 C   0  0  0  0  0  0  0  0  0  0  0  0
    0.8830   13.1680   -4.2080 C   0  0  1  0  0  0  0  0  0  0  0  0
    1.3560   13.3270   -5.6770 C   0  0  0  0  0  0  0  0  0  0  0  0
    0.7220   14.5290   -6.3690 C   0  0  0  0  0  0  0  0  0  0  0  0
    1.0340   15.8190   -5.6150 C   0  0  2  0  0  0  0  0  0  0  0  0
    2.4370   16.0810   -5.7090 O   0  0  0  0  0  0  0  0  0  0  0  0
    0.6100   15.7740   -4.1210 C   0  0  0  0  0  0  0  0  0  0  0  0
   -0.9350   15.7940   -4.0170 C   0  0  0  0  0  0  0  0  0  0  0  0
    1.1070   17.0790   -3.4430 C   0  0  0  0  0  0  0  0  0  0  0  0
    1.4530   11.8520   -3.5220 C   0  0  1  0  0  0  0  0  0  0  0  0
    2.9400   11.6360   -3.9390 C   0  0  0  0  0  0  0  0  0  0  0  0
    0.6560   10.6050   -4.0600 C   0  0  0  0  0  0  0  0  0  0  0  0
   -0.6330   10.2270   -3.3060 C   0  0  0  0  0  0  0  0  0  0  0  0
   -0.3850   10.1570   -1.7960 C   0  0  2  0  0  0  0  0  0  0  0  0
    0.6570    9.0170   -1.5350 C   0  0  0  0  0  0  0  0  0  0  0  0
   -2.1687    6.7560   -2.1614 H   0  0  0  0  0  0  0  0  0  0  0  0
   -3.0529    8.1895   -2.7860 H   0  0  0  0  0  0  0  0  0  0  0  0
   -1.2567    8.1719   -2.7860 H   0  0  0  0  0  0  0  0  0  0  0  0
   -1.4917    7.8519   -0.2110 H   0  0  0  0  0  0  0  0  0  0  0  0
   -3.5777    7.6495    0.5588 H   0  0  0  0  0  0  0  0  0  0  0  0
   -3.7107    9.4471    0.2509 H   0  0  0  0  0  0  0  0  0  0  0  0
   -5.1117    9.1927   -1.4819 H   0  0  0  0  0  0  0  0  0  0  0  0
   -4.2768    7.6910   -2.0620 H   0  0  0  0  0  0  0  0  0  0  0  0
   -5.4956    7.6767    0.4161 H   0  0  0  0  0  0  0  0  0  0  0  0
   -7.9561    8.7763   -2.3936 H   0  0  0  0  0  0  0  0  0  0  0  0
   -6.5342    7.9781   -3.1469 H   0  0  0  0  0  0  0  0  0  0  0  0
   -8.1308    7.1550   -3.1469 H   0  0  0  0  0  0  0  0  0  0  0  0
   -8.0154    6.8443    0.6459 H   0  0  0  0  0  0  0  0  0  0  0  0
   -9.1527    7.3857   -0.6347 H   0  0  0  0  0  0  0  0  0  0  0  0
   -8.5377    5.6980   -0.6347 H   0  0  0  0  0  0  0  0  0  0  0  0
   -2.5033   10.4021   -1.3166 H   0  0  0  0  0  0  0  0  0  0  0  0
   -1.9707   10.9892    0.9643 H   0  0  0  0  0  0  0  0  0  0  0  0
   -0.8946    9.5882    1.1551 H   0  0  0  0  0  0  0  0  0  0  0  0
   -0.0498   12.2914    0.7747 H   0  0  0  0  0  0  0  0  0  0  0  0
    1.0024   10.8918    0.5814 H   0  0  0  0  0  0  0  0  0  0  0  0
   -1.3504   13.0817   -0.5503 H   0  0  0  0  0  0  0  0  0  0  0  0
   -0.5404   13.5310   -2.0894 H   0  0  0  0  0  0  0  0  0  0  0  0
   -1.8507   12.3022   -2.0894 H   0  0  0  0  0  0  0  0  0  0  0  0
    2.0864   11.1390   -1.5685 H   0  0  0  0  0  0  0  0  0  0  0  0
    1.7473   13.4124   -0.4049 H   0  0  0  0  0  0  0  0  0  0  0  0
    3.1500   13.1361   -1.5652 H   0  0  0  0  0  0  0  0  0  0  0  0
    1.9077   15.4504   -1.7683 H   0  0  0  0  0  0  0  0  0  0  0  0
   -0.2035   12.9979   -4.1824 H   0  0  0  0  0  0  0  0  0  0  0  0
    2.4488   13.4522   -5.6839 H   0  0  0  0  0  0  0  0  0  0  0  0
    1.0481   12.4250   -6.2262 H   0  0  0  0  0  0  0  0  0  0  0  0
    1.1178   14.6054   -7.3925 H   0  0  0  0  0  0  0  0  0  0  0  0
   -0.3688   14.3883   -6.3883 H   0  0  0  0  0  0  0  0  0  0  0  0
    0.4476   16.6235   -6.0830 H   0  0  0  0  0  0  0  0  0  0  0  0
    2.7150   15.8710   -6.6170 H   0  0  0  0  0  0  0  0  0  0  0  0
   -1.2312   15.7978   -2.9576 H   0  0  0  0  0  0  0  0  0  0  0  0
   -1.3240   16.6973   -4.5098 H   0  0  0  0  0  0  0  0  0  0  0  0
   -1.3473   14.9011   -4.5098 H   0  0  0  0  0  0  0  0  0  0  0  0
    1.0632   16.9639   -2.3499 H   0  0  0  0  0  0  0  0  0  0  0  0
    2.1443   17.2792   -3.7493 H   0  0  0  0  0  0  0  0  0  0  0  0
    0.4657   17.9186   -3.7493 H   0  0  0  0  0  0  0  0  0  0  0  0
    3.5641   11.5453   -3.0377 H   0  0  0  0  0  0  0  0  0  0  0  0
    3.0233   10.7163   -4.5367 H   0  0  0  0  0  0  0  0  0  0  0  0
    3.2815   12.4940   -4.5367 H   0  0  0  0  0  0  0  0  0  0  0  0
    0.3820   10.8108   -5.1053 H   0  0  0  0  0  0  0  0  0  0  0  0
    1.3326    9.7489   -3.9210 H   0  0  0  0  0  0  0  0  0  0  0  0
   -1.4040   10.9848   -3.5092 H   0  0  0  0  0  0  0  0  0  0  0  0
   -0.9647    9.2373   -3.6530 H   0  0  0  0  0  0  0  0  0  0  0  0
    0.7843    8.8777   -0.4513 H   0  0  0  0  0  0  0  0  0  0  0  0
    0.2963    8.0804   -1.9852 H   0  0  0  0  0  0  0  0  0  0  0  0
    1.6222    9.2923   -1.9852 H   0  0  0  0  0  0  0  0  0  0  0  0
  1  2  1  0
  2  3  1  0
  3  4  1  0
  4  5  1  0
  5  6  1  0
  6  7  1  0
  7  8  1  0
  7  9  1  0
  2 10  1  0
 10 11  1  0
 11 12  1  0
 12 13  1  0
 13 14  1  1
 13 15  1  0
 15 16  1  0
 16 17  1  0
 17 18  2  0
 18 19  1  0
 19 20  1  0
 20 21  1  0
 21 22  1  0
 22 23  1  0
 22 24  1  0
 24 25  1  0
 24 26  1  0
 19 27  1  0
 27 28  1  6
 27 29  1  0
 29 30  1  0
 30 31  1  0
 31 32  1  6
  7  5  1  0
 31 10  1  0
 31 13  1  0
 27 15  1  0
 24 18  1  0
  1 33  1  0
  1 34  1  0
  1 35  1  0
  2 36  1  1
  3 37  1  0
  3 38  1  0
  4 39  1  0
  4 40  1  0
  5 41  1  1
  8 42  1  0
  8 43  1  0
  8 44  1  0
  9 45  1  0
  9 46  1  0
  9 47  1  0
 10 48  1  6
 11 49  1  0
 11 50  1  0
 12 51  1  0
 12 52  1  0
 14 53  1  0
 14 54  1  0
 14 55  1  0
 15 56  1  1
 16 57  1  0
 16 58  1  0
 17 59  1  0
 19 60  1  6
 20 61  1  0
 20 62  1  0
 21 63  1  0
 21 64  1  0
 22 65  1  6
 23 66  1  0
 25 67  1  0
 25 68  1  0
 25 69  1  0
 26 70  1  0
 26 71  1  0
 26 72  1  0
 28 73  1  0
 28 74  1  0
 28 75  1  0
 29 76  1  0
 29 77  1  0
 30 78  1  0
 30 79  1  0
 32 80  1  0
 32 81  1  0
 32 82  1  0
M  END
>  <meeko>  (12) 
{"is_sidechain": [false], "intermolecular_energy": 2.731, "internal_energy": -0.839}

$$$$
EPH_relaxed_0001_pdb2pqr_Repair_43_r2_0001_out
     RDKit          3D

 82 86  0  0  0  0  0  0  0  0999 V2000
   -0.2840   15.1020   -7.7260 C   0  0  0  0  0  0  0  0  0  0  0  0
    1.0770   15.1030   -7.0230 C   0  0  2  0  0  0  0  0  0  0  0  0
    2.2460   15.2100   -8.0220 C   0  0  0  0  0  0  0  0  0  0  0  0
    2.2600   16.5180   -8.8170 C   0  0  0  0  0  0  0  0  0  0  0  0
    1.8660   16.3020  -10.2470 C   0  0  2  0  0  0  0  0  0  0  0  0
    1.2020   15.0580  -10.5040 O   0  0  0  0  0  0  0  0  0  0  0  0
    2.4820   15.2350  -11.1320 C   0  0  0  0  0  0  0  0  0  0  0  0
    3.5450   14.3130  -10.6190 C   0  0  0  0  0  0  0  0  0  0  0  0
    2.4070   15.4050  -12.6170 C   0  0  0  0  0  0  0  0  0  0  0  0
    1.2260   13.8440   -6.1780 C   0  0  1  0  0  0  0  0  0  0  0  0
    2.6570   13.2460   -6.2440 C   0  0  0  0  0  0  0  0  0  0  0  0
    2.9580   12.6510   -4.8450 C   0  0  0  0  0  0  0  0  0  0  0  0
    1.5880   12.6250   -4.1290 C   0  0  1  0  0  0  0  0  0  0  0  0
    0.8800   11.3410   -4.6620 C   0  0  0  0  0  0  0  0  0  0  0  0
    1.6240   12.6570   -2.5660 C   0  0  2  0  0  0  0  0  0  0  0  0
    2.3170   11.4530   -1.9040 C   0  0  0  0  0  0  0  0  0  0  0  0
    1.4230   10.3020   -1.5800 C   0  0  0  0  0  0  0  0  0  0  0  0
    0.0780   10.3420   -1.5470 C   0  0  0  0  0  0  0  0  0  0  0  0
   -0.6770   11.6600   -1.7580 C   0  0  1  0  0  0  0  0  0  0  0  0
   -1.7770   11.8070   -0.6740 C   0  0  0  0  0  0  0  0  0  0  0  0
   -2.7110   10.6010   -0.6230 C   0  0  0  0  0  0  0  0  0  0  0  0
   -1.9310    9.3180   -0.3530 C   0  0  2  0  0  0  0  0  0  0  0  0
   -1.3880    9.3770    0.9690 O   0  0  0  0  0  0  0  0  0  0  0  0
   -0.7880    9.0690   -1.3770 C   0  0  0  0  0  0  0  0  0  0  0  0
   -1.3940    8.7050   -2.7550 C   0  0  0  0  0  0  0  0  0  0  0  0
    0.0080    7.8210   -0.9100 C   0  0  0  0  0  0  0  0  0  0  0  0
    0.2250   12.9620   -1.8910 C   0  0  1  0  0  0  0  0  0  0  0  0
    0.5310   13.5450   -0.4770 C   0  0  0  0  0  0  0  0  0  0  0  0
   -0.5830   14.0710   -2.6630 C   0  0  0  0  0  0  0  0  0  0  0  0
   -0.4830   14.0600   -4.2010 C   0  0  0  0  0  0  0  0  0  0  0  0
    0.9780   13.9760   -4.6540 C   0  0  2  0  0  0  0  0  0  0  0  0
    1.7100   15.2660   -4.1510 C   0  0  0  0  0  0  0  0  0  0  0  0
   -1.0857   15.1014   -6.9728 H   0  0  0  0  0  0  0  0  0  0  0  0
   -0.3725   16.0001   -8.3550 H   0  0  0  0  0  0  0  0  0  0  0  0
   -0.3711   14.2038   -8.3550 H   0  0  0  0  0  0  0  0  0  0  0  0
    1.1149   15.9913   -6.3753 H   0  0  0  0  0  0  0  0  0  0  0  0
    3.1895   15.1345   -7.4615 H   0  0  0  0  0  0  0  0  0  0  0  0
    2.1224   14.3939   -8.7491 H   0  0  0  0  0  0  0  0  0  0  0  0
    1.5534   17.2234   -8.3552 H   0  0  0  0  0  0  0  0  0  0  0  0
    3.2844   16.9184   -8.8004 H   0  0  0  0  0  0  0  0  0  0  0  0
    1.7105   17.3813  -10.3917 H   0  0  0  0  0  0  0  0  0  0  0  0
    3.5369   14.3200   -9.5191 H   0  0  0  0  0  0  0  0  0  0  0  0
    3.3509   13.2924  -10.9806 H   0  0  0  0  0  0  0  0  0  0  0  0
    4.5279   14.6494  -10.9806 H   0  0  0  0  0  0  0  0  0  0  0  0
    1.9733   16.3882  -12.8521 H   0  0  0  0  0  0  0  0  0  0  0  0
    3.4180   15.3384  -13.0452 H   0  0  0  0  0  0  0  0  0  0  0  0
    1.7746   14.6134  -13.0452 H   0  0  0  0  0  0  0  0  0  0  0  0
    0.4416   13.2223   -6.6343 H   0  0  0  0  0  0  0  0  0  0  0  0
    2.7029   12.4570   -7.0091 H   0  0  0  0  0  0  0  0  0  0  0  0
    3.3949   14.0163   -6.5126 H   0  0  0  0  0  0  0  0  0  0  0  0
    3.3682   11.6344   -4.9355 H   0  0  0  0  0  0  0  0  0  0  0  0
    3.7057   13.2398   -4.2934 H   0  0  0  0  0  0  0  0  0  0  0  0
    0.5425   10.7290   -3.8126 H   0  0  0  0  0  0  0  0  0  0  0  0
    0.0126   11.6280   -5.2746 H   0  0  0  0  0  0  0  0  0  0  0  0
    1.5856   10.7607   -5.2746 H   0  0  0  0  0  0  0  0  0  0  0  0
    2.2716   13.5227   -2.3632 H   0  0  0  0  0  0  0  0  0  0  0  0
    3.1001   11.0933   -2.5877 H   0  0  0  0  0  0  0  0  0  0  0  0
    2.7059   11.8169   -0.9415 H   0  0  0  0  0  0  0  0  0  0  0  0
    1.9041    9.3402   -1.3488 H   0  0  0  0  0  0  0  0  0  0  0  0
   -1.1406   11.5881   -2.7529 H   0  0  0  0  0  0  0  0  0  0  0  0
   -1.2927   11.9201    0.3072 H   0  0  0  0  0  0  0  0  0  0  0  0
   -2.3828   12.6888   -0.9295 H   0  0  0  0  0  0  0  0  0  0  0  0
   -3.4478   10.7501    0.1801 H   0  0  0  0  0  0  0  0  0  0  0  0
   -3.2159   10.5067   -1.5957 H   0  0  0  0  0  0  0  0  0  0  0  0
   -2.6333    8.4777   -0.4561 H   0  0  0  0  0  0  0  0  0  0  0  0
   -0.6220    8.7790    1.0000 H   0  0  0  0  0  0  0  0  0  0  0  0
   -2.3285    8.1437   -2.6079 H   0  0  0  0  0  0  0  0  0  0  0  0
   -1.6044    9.6263   -3.3179 H   0  0  0  0  0  0  0  0  0  0  0  0
   -0.6795    8.0865   -3.3179 H   0  0  0  0  0  0  0  0  0  0  0  0
    0.0282    7.7893    0.1894 H   0  0  0  0  0  0  0  0  0  0  0  0
   -0.4773    6.9117   -1.2942 H   0  0  0  0  0  0  0  0  0  0  0  0
    1.0372    7.8776   -1.2942 H   0  0  0  0  0  0  0  0  0  0  0  0
    0.1660   12.8496    0.2932 H   0  0  0  0  0  0  0  0  0  0  0  0
    1.6167   13.6809   -0.3635 H   0  0  0  0  0  0  0  0  0  0  0  0
    0.0261   14.5157   -0.3635 H   0  0  0  0  0  0  0  0  0  0  0  0
   -1.6442   13.9549   -2.3977 H   0  0  0  0  0  0  0  0  0  0  0  0
   -0.1317   15.0248   -2.3521 H   0  0  0  0  0  0  0  0  0  0  0  0
   -1.0315   13.1900   -4.5912 H   0  0  0  0  0  0  0  0  0  0  0  0
   -0.9174   14.9936   -4.5878 H   0  0  0  0  0  0  0  0  0  0  0  0
    1.7170   15.2783   -3.0511 H   0  0  0  0  0  0  0  0  0  0  0  0
    2.7447   15.2696   -4.5243 H   0  0  0  0  0  0  0  0  0  0  0  0
    1.1824   16.1561   -4.5243 H   0  0  0  0  0  0  0  0  0  0  0  0
  1  2  1  0
  2  3  1  0
  3  4  1  0
  4  5  1  0
  5  6  1  0
  6  7  1  0
  7  8  1  0
  7  9  1  0
  2 10  1  0
 10 11  1  0
 11 12  1  0
 12 13  1  0
 13 14  1  1
 13 15  1  0
 15 16  1  0
 16 17  1  0
 17 18  2  0
 18 19  1  0
 19 20  1  0
 20 21  1  0
 21 22  1  0
 22 23  1  0
 22 24  1  0
 24 25  1  0
 24 26  1  0
 19 27  1  0
 27 28  1  1
 27 29  1  0
 29 30  1  0
 30 31  1  0
 31 32  1  1
  7  5  1  0
 31 10  1  0
 31 13  1  0
 27 15  1  0
 24 18  1  0
  1 33  1  0
  1 34  1  0
  1 35  1  0
  2 36  1  1
  3 37  1  0
  3 38  1  0
  4 39  1  0
  4 40  1  0
  5 41  1  6
  8 42  1  0
  8 43  1  0
  8 44  1  0
  9 45  1  0
  9 46  1  0
  9 47  1  0
 10 48  1  6
 11 49  1  0
 11 50  1  0
 12 51  1  0
 12 52  1  0
 14 53  1  0
 14 54  1  0
 14 55  1  0
 15 56  1  6
 16 57  1  0
 16 58  1  0
 17 59  1  0
 19 60  1  6
 20 61  1  0
 20 62  1  0
 21 63  1  0
 21 64  1  0
 22 65  1  1
 23 66  1  0
 25 67  1  0
 25 68  1  0
 25 69  1  0
 26 70  1  0
 26 71  1  0
 26 72  1  0
 28 73  1  0
 28 74  1  0
 28 75  1  0
 29 76  1  0
 29 77  1  0
 30 78  1  0
 30 79  1  0
 32 80  1  0
 32 81  1  0
 32 82  1  0
M  END
>  <meeko>  (13) 
{"is_sidechain": [false], "intermolecular_energy": 2.731, "internal_energy": -0.839}

$$$$
EPH_relaxed_0001_pdb2pqr_Repair_43_r2_0001_out
     RDKit          3D

 82 86  0  0  0  0  0  0  0  0999 V2000
   -3.5450    7.2960   -3.5730 C   0  0  0  0  0  0  0  0  0  0  0  0
   -3.4380    7.2990   -2.0450 C   0  0  2  0  0  0  0  0  0  0  0  0
   -4.7720    6.9270   -1.3690 C   0  0  0  0  0  0  0  0  0  0  0  0
   -5.7530    6.2060   -2.2970 C   0  0  0  0  0  0  0  0  0  0  0  0
   -6.8730    7.1040   -2.7270 C   0  0  2  0  0  0  0  0  0  0  0  0
   -6.9690    8.3330   -1.9940 O   0  0  0  0  0  0  0  0  0  0  0  0
   -8.0720    7.4230   -1.8540 C   0  0  0  0  0  0  0  0  0  0  0  0
   -8.2120    6.8450   -0.4800 C   0  0  0  0  0  0  0  0  0  0  0  0
   -9.3310    7.8950   -2.5110 C   0  0  0  0  0  0  0  0  0  0  0  0
   -2.9720    8.6670   -1.5600 C   0  0  1  0  0  0  0  0  0  0  0  0
   -3.6760    9.1080   -0.2490 C   0  0  0  0  0  0  0  0  0  0  0  0
   -2.6320    9.9070    0.5720 C   0  0  0  0  0  0  0  0  0  0  0  0
   -1.4810   10.1840   -0.4230 C   0  0  1  0  0  0  0  0  0  0  0  0
   -1.9570   11.4170   -1.2540 C   0  0  0  0  0  0  0  0  0  0  0  0
   -0.0680   10.4210    0.2030 C   0  0  2  0  0  0  0  0  0  0  0  0
    0.0420   11.6520    1.1190 C   0  0  0  0  0  0  0  0  0  0  0  0
    0.4400   12.9190    0.4390 C   0  0  0  0  0  0  0  0  0  0  0  0
    0.9740   13.0120   -0.7930 C   0  0  0  0  0  0  0  0  0  0  0  0
    1.3190   11.7520   -1.5980 C   0  0  1  0  0  0  0  0  0  0  0  0
    2.7380   11.8990   -2.2080 C   0  0  0  0  0  0  0  0  0  0  0  0
    2.8930   13.1770   -3.0280 C   0  0  0  0  0  0  0  0  0  0  0  0
    2.5980   14.4100   -2.1770 C   0  0  2  0  0  0  0  0  0  0  0  0
    3.6120   14.5300   -1.1740 O   0  0  0  0  0  0  0  0  0  0  0  0
    1.1980   14.3690   -1.5030 C   0  0  0  0  0  0  0  0  0  0  0  0
    0.0980   14.5430   -2.5790 C   0  0  0  0  0  0  0  0  0  0  0  0
    1.0850   15.6000   -0.5640 C   0  0  0  0  0  0  0  0  0  0  0  0
    1.1200   10.3690   -0.8410 C   0  0  1  0  0  0  0  0  0  0  0  0
    2.4070   10.0150   -0.0340 C   0  0  0  0  0  0  0  0  0  0  0  0
    0.9330    9.2230   -1.9040 C   0  0  0  0  0  0  0  0  0  0  0  0
   -0.5030    8.9580   -2.3950 C   0  0  0  0  0  0  0  0  0  0  0  0
   -1.4700    8.8260   -1.2140 C   0  0  2  0  0  0  0  0  0  0  0  0
   -1.0290    7.5800   -0.3720 C   0  0  0  0  0  0  0  0  0  0  0  0
   -4.6048    7.2663   -3.8663 H   0  0  0  0  0  0  0  0  0  0  0  0
   -3.0787    8.2076   -3.9750 H   0  0  0  0  0  0  0  0  0  0  0  0
   -3.0284    6.4120   -3.9750 H   0  0  0  0  0  0  0  0  0  0  0  0
   -2.7005    6.5331   -1.7631 H   0  0  0  0  0  0  0  0  0  0  0  0
   -4.5563    6.2697   -0.5137 H   0  0  0  0  0  0  0  0  0  0  0  0
   -5.2514    7.8691   -1.0645 H   0  0  0  0  0  0  0  0  0  0  0  0
   -5.2107    5.8605   -3.1895 H   0  0  0  0  0  0  0  0  0  0  0  0
   -6.1861    5.3585   -1.7455 H   0  0  0  0  0  0  0  0  0  0  0  0
   -6.7899    6.7503   -3.7653 H   0  0  0  0  0  0  0  0  0  0  0  0
   -8.0222    7.6285    0.2684 H   0  0  0  0  0  0  0  0  0  0  0  0
   -9.2312    6.4524   -0.3495 H   0  0  0  0  0  0  0  0  0  0  0  0
   -7.4854    6.0295   -0.3495 H   0  0  0  0  0  0  0  0  0  0  0  0
  -10.0658    8.1705   -1.7402 H   0  0  0  0  0  0  0  0  0  0  0  0
   -9.1110    8.7717   -3.1379 H   0  0  0  0  0  0  0  0  0  0  0  0
   -9.7416    7.0897   -3.1379 H   0  0  0  0  0  0  0  0  0  0  0  0
   -3.2201    9.2702   -2.4458 H   0  0  0  0  0  0  0  0  0  0  0  0
   -4.5433    9.7439   -0.4802 H   0  0  0  0  0  0  0  0  0  0  0  0
   -4.0403    8.2373    0.3159 H   0  0  0  0  0  0  0  0  0  0  0  0
   -3.0647   10.8500    0.9373 H   0  0  0  0  0  0  0  0  0  0  0  0
   -2.2909    9.3563    1.4610 H   0  0  0  0  0  0  0  0  0  0  0  0
   -2.2676   12.2216   -0.5712 H   0  0  0  0  0  0  0  0  0  0  0  0
   -1.1315   11.7726   -1.8882 H   0  0  0  0  0  0  0  0  0  0  0  0
   -2.8073   11.1256   -1.8882 H   0  0  0  0  0  0  0  0  0  0  0  0
    0.0475    9.5478    0.8619 H   0  0  0  0  0  0  0  0  0  0  0  0
   -0.9384   11.8131    1.5910 H   0  0  0  0  0  0  0  0  0  0  0  0
    0.8448   11.4266    1.8365 H   0  0  0  0  0  0  0  0  0  0  0  0
    0.2837   13.8571    0.9917 H   0  0  0  0  0  0  0  0  0  0  0  0
    0.5715   11.6916   -2.4028 H   0  0  0  0  0  0  0  0  0  0  0  0
    3.4736   11.9133   -1.3903 H   0  0  0  0  0  0  0  0  0  0  0  0
    2.9008   11.0467   -2.8841 H   0  0  0  0  0  0  0  0  0  0  0  0
    3.9239   13.2391   -3.4066 H   0  0  0  0  0  0  0  0  0  0  0  0
    2.1778   13.1474   -3.8633 H   0  0  0  0  0  0  0  0  0  0  0  0
    2.5969   15.2818   -2.8478 H   0  0  0  0  0  0  0  0  0  0  0  0
    4.4190   14.1140   -1.5200 H   0  0  0  0  0  0  0  0  0  0  0  0
   -0.8742   14.6968   -2.0879 H   0  0  0  0  0  0  0  0  0  0  0  0
    0.3337   15.4150   -3.2067 H   0  0  0  0  0  0  0  0  0  0  0  0
    0.0531   13.6408   -3.2067 H   0  0  0  0  0  0  0  0  0  0  0  0
    1.1157   15.2661    0.4836 H   0  0  0  0  0  0  0  0  0  0  0  0
    1.9240   16.2852   -0.7551 H   0  0  0  0  0  0  0  0  0  0  0  0
    0.1353   16.1210   -0.7551 H   0  0  0  0  0  0  0  0  0  0  0  0
    2.1922   10.0741    1.0432 H   0  0  0  0  0  0  0  0  0  0  0  0
    2.7300    8.9946   -0.2880 H   0  0  0  0  0  0  0  0  0  0  0  0
    3.2064   10.7266   -0.2880 H   0  0  0  0  0  0  0  0  0  0  0  0
    1.5426    9.4813   -2.7824 H   0  0  0  0  0  0  0  0  0  0  0  0
    1.2355    8.2999   -1.3880 H   0  0  0  0  0  0  0  0  0  0  0  0
   -0.8255    9.7943   -3.0326 H   0  0  0  0  0  0  0  0  0  0  0  0
   -0.5116    8.0159   -2.9628 H   0  0  0  0  0  0  0  0  0  0  0  0
   -1.1117    7.8138    0.6997 H   0  0  0  0  0  0  0  0  0  0  0  0
   -1.6795    6.7262   -0.6123 H   0  0  0  0  0  0  0  0  0  0  0  0
    0.0138    7.3255   -0.6123 H   0  0  0  0  0  0  0  0  0  0  0  0
  1  2  1  0
  2  3  1  0
  3  4  1  0
  4  5  1  0
  5  6  1  0
  6  7  1  0
  7  8  1  0
  7  9  1  0
  2 10  1  0
 10 11  1  0
 11 12  1  0
 12 13  1  0
 13 14  1  6
 13 15  1  0
 15 16  1  0
 16 17  1  0
 17 18  2  0
 18 19  1  0
 19 20  1  0
 20 21  1  0
 21 22  1  0
 22 23  1  0
 22 24  1  0
 24 25  1  0
 24 26  1  0
 19 27  1  0
 27 28  1  1
 27 29  1  0
 29 30  1  0
 30 31  1  0
 31 32  1  1
  7  5  1  0
 31 10  1  0
 31 13  1  0
 27 15  1  0
 24 18  1  0
  1 33  1  0
  1 34  1  0
  1 35  1  0
  2 36  1  6
  3 37  1  0
  3 38  1  0
  4 39  1  0
  4 40  1  0
  5 41  1  6
  8 42  1  0
  8 43  1  0
  8 44  1  0
  9 45  1  0
  9 46  1  0
  9 47  1  0
 10 48  1  6
 11 49  1  0
 11 50  1  0
 12 51  1  0
 12 52  1  0
 14 53  1  0
 14 54  1  0
 14 55  1  0
 15 56  1  1
 16 57  1  0
 16 58  1  0
 17 59  1  0
 19 60  1  6
 20 61  1  0
 20 62  1  0
 21 63  1  0
 21 64  1  0
 22 65  1  6
 23 66  1  0
 25 67  1  0
 25 68  1  0
 25 69  1  0
 26 70  1  0
 26 71  1  0
 26 72  1  0
 28 73  1  0
 28 74  1  0
 28 75  1  0
 29 76  1  0
 29 77  1  0
 30 78  1  0
 30 79  1  0
 32 80  1  0
 32 81  1  0
 32 82  1  0
M  END
>  <meeko>  (14) 
{"is_sidechain": [false], "intermolecular_energy": 2.731, "internal_energy": -0.839}

$$$$
EPH_relaxed_0001_pdb2pqr_Repair_43_r2_0001_out
     RDKit          3D

 82 86  0  0  0  0  0  0  0  0999 V2000
   -0.2740    9.4040   -2.3410 C   0  0  0  0  0  0  0  0  0  0  0  0
    0.9040   10.2960   -2.7410 C   0  0  2  0  0  0  0  0  0  0  0  0
    2.2420    9.5280   -2.7360 C   0  0  0  0  0  0  0  0  0  0  0  0
    3.2010    9.9560   -3.8490 C   0  0  0  0  0  0  0  0  0  0  0  0
    4.4750   10.5200   -3.2970 C   0  0  2  0  0  0  0  0  0  0  0  0
    4.8280   11.8120   -3.8070 O   0  0  0  0  0  0  0  0  0  0  0  0
    5.7250   10.7370   -4.1310 C   0  0  0  0  0  0  0  0  0  0  0  0
    5.7610   10.3920   -5.5870 C   0  0  0  0  0  0  0  0  0  0  0  0
    7.0450   10.8220   -3.4310 C   0  0  0  0  0  0  0  0  0  0  0  0
    0.9890   11.4960   -1.8060 C   0  0  1  0  0  0  0  0  0  0  0  0
    2.0920   11.3360   -0.7260 C   0  0  0  0  0  0  0  0  0  0  0  0
    2.6820   12.7480   -0.4770 C   0  0  0  0  0  0  0  0  0  0  0  0
    1.6870   13.7130   -1.1640 C   0  0  1  0  0  0  0  0  0  0  0  0
    0.5200   13.8820   -0.1410 C   0  0  0  0  0  0  0  0  0  0  0  0
    2.2640   15.0950   -1.6140 C   0  0  2  0  0  0  0  0  0  0  0  0
    2.7890   15.9850   -0.4740 C   0  0  0  0  0  0  0  0  0  0  0  0
    1.7850   16.9150    0.1220 C   0  0  0  0  0  0  0  0  0  0  0  0
    0.5970   17.2380   -0.4220 C   0  0  0  0  0  0  0  0  0  0  0  0
    0.2020   16.7220   -1.8120 C   0  0  1  0  0  0  0  0  0  0  0  0
   -0.3780   17.8900   -2.6520 C   0  0  0  0  0  0  0  0  0  0  0  0
   -1.5260   18.6050   -1.9470 C   0  0  0  0  0  0  0  0  0  0  0  0
   -1.0780   19.1540   -0.5950 C   0  0  2  0  0  0  0  0  0  0  0  0
   -0.1200   20.1940   -0.8150 O   0  0  0  0  0  0  0  0  0  0  0  0
   -0.4670   18.0690    0.3350 C   0  0  0  0  0  0  0  0  0  0  0  0
   -1.5830   17.1080    0.8160 C   0  0  0  0  0  0  0  0  0  0  0  0
    0.0720   18.7790    1.6070 C   0  0  0  0  0  0  0  0  0  0  0  0
    1.3190   15.9040   -2.5920 C   0  0  1  0  0  0  0  0  0  0  0  0
    2.2360   16.8820   -3.3880 C   0  0  0  0  0  0  0  0  0  0  0  0
    0.6270   14.9760   -3.6590 C   0  0  0  0  0  0  0  0  0  0  0  0
    0.1870   13.5780   -3.1830 C   0  0  0  0  0  0  0  0  0  0  0  0
    1.3230   12.8700   -2.4390 C   0  0  2  0  0  0  0  0  0  0  0  0
    2.5030   12.6660   -3.4500 C   0  0  0  0  0  0  0  0  0  0  0  0
   -0.3401    9.3539   -1.2441 H   0  0  0  0  0  0  0  0  0  0  0  0
   -1.2064    9.8246   -2.7457 H   0  0  0  0  0  0  0  0  0  0  0  0
   -0.1220    8.3925   -2.7457 H   0  0  0  0  0  0  0  0  0  0  0  0
    0.7240   10.6394   -3.7704 H   0  0  0  0  0  0  0  0  0  0  0  0
    2.7360    9.6972   -1.7678 H   0  0  0  0  0  0  0  0  0  0  0  0
    2.0046    8.4675   -2.9063 H   0  0  0  0  0  0  0  0  0  0  0  0
    3.4388    9.0803   -4.4708 H   0  0  0  0  0  0  0  0  0  0  0  0
    2.7084   10.7397   -4.4433 H   0  0  0  0  0  0  0  0  0  0  0  0
    4.3090   10.0148   -2.3341 H   0  0  0  0  0  0  0  0  0  0  0  0
    5.8745    9.3041   -5.7033 H   0  0  0  0  0  0  0  0  0  0  0  0
    4.8242   10.7160   -6.0639 H   0  0  0  0  0  0  0  0  0  0  0  0
    6.6108   10.9024   -6.0639 H   0  0  0  0  0  0  0  0  0  0  0  0
    6.8843   10.8117   -2.3428 H   0  0  0  0  0  0  0  0  0  0  0  0
    7.6682    9.9621   -3.7178 H   0  0  0  0  0  0  0  0  0  0  0  0
    7.5527   11.7547   -3.7178 H   0  0  0  0  0  0  0  0  0  0  0  0
   -0.0410   11.5005   -1.4198 H   0  0  0  0  0  0  0  0  0  0  0  0
    1.6578   10.9377    0.2029 H   0  0  0  0  0  0  0  0  0  0  0  0
    2.8718   10.6350   -1.0585 H   0  0  0  0  0  0  0  0  0  0  0  0
    2.7452   12.9580    0.6009 H   0  0  0  0  0  0  0  0  0  0  0  0
    3.7030   12.8495   -0.8735 H   0  0  0  0  0  0  0  0  0  0  0  0
    0.9185   13.8243    0.8827 H   0  0  0  0  0  0  0  0  0  0  0  0
    0.0383   14.8593   -0.2924 H   0  0  0  0  0  0  0  0  0  0  0  0
   -0.2191   13.0815   -0.2924 H   0  0  0  0  0  0  0  0  0  0  0  0
    3.1503   14.8030   -2.1964 H   0  0  0  0  0  0  0  0  0  0  0  0
    3.1612   15.3283    0.3261 H   0  0  0  0  0  0  0  0  0  0  0  0
    3.5678   16.6219   -0.9188 H   0  0  0  0  0  0  0  0  0  0  0  0
    2.0376   17.3757    1.0884 H   0  0  0  0  0  0  0  0  0  0  0  0
   -0.5746   15.9612   -1.6445 H   0  0  0  0  0  0  0  0  0  0  0  0
    0.4243   18.6172   -2.8456 H   0  0  0  0  0  0  0  0  0  0  0  0
   -0.7736   17.4646   -3.5861 H   0  0  0  0  0  0  0  0  0  0  0  0
   -1.8726   19.4376   -2.5768 H   0  0  0  0  0  0  0  0  0  0  0  0
   -2.3399   17.8839   -1.7811 H   0  0  0  0  0  0  0  0  0  0  0  0
   -1.9719   19.5387   -0.0823 H   0  0  0  0  0  0  0  0  0  0  0  0
   -0.2930   20.5740   -1.6930 H   0  0  0  0  0  0  0  0  0  0  0  0
   -1.6031   17.0907    1.9157 H   0  0  0  0  0  0  0  0  0  0  0  0
   -2.5552   17.4561    0.4369 H   0  0  0  0  0  0  0  0  0  0  0  0
   -1.3831   16.0949    0.4369 H   0  0  0  0  0  0  0  0  0  0  0  0
   -0.3143   18.2701    2.5025 H   0  0  0  0  0  0  0  0  0  0  0  0
    1.1714   18.7418    1.6097 H   0  0  0  0  0  0  0  0  0  0  0  0
   -0.2594   19.8279    1.6097 H   0  0  0  0  0  0  0  0  0  0  0  0
    2.8138   17.4982   -2.6834 H   0  0  0  0  0  0  0  0  0  0  0  0
    2.9258   16.3046   -4.0211 H   0  0  0  0  0  0  0  0  0  0  0  0
    1.6154   17.5332   -4.0211 H   0  0  0  0  0  0  0  0  0  0  0  0
   -0.2683   15.4999   -4.0250 H   0  0  0  0  0  0  0  0  0  0  0  0
    1.3972   14.7910   -4.4222 H   0  0  0  0  0  0  0  0  0  0  0  0
   -0.6752   13.6825   -2.5079 H   0  0  0  0  0  0  0  0  0  0  0  0
   -0.0842   12.9768   -4.0634 H   0  0  0  0  0  0  0  0  0  0  0  0
    3.4383   12.5043   -2.8941 H   0  0  0  0  0  0  0  0  0  0  0  0
    2.2965   11.7902   -4.0828 H   0  0  0  0  0  0  0  0  0  0  0  0
    2.6025   13.5603   -4.0828 H   0  0  0  0  0  0  0  0  0  0  0  0
  1  2  1  0
  2  3  1  0
  3  4  1  0
  4  5  1  0
  5  6  1  0
  6  7  1  0
  7  8  1  0
  7  9  1  0
  2 10  1  0
 10 11  1  0
 11 12  1  0
 12 13  1  0
 13 14  1  1
 13 15  1  0
 15 16  1  0
 16 17  1  0
 17 18  2  0
 18 19  1  0
 19 20  1  0
 20 21  1  0
 21 22  1  0
 22 23  1  0
 22 24  1  0
 24 25  1  0
 24 26  1  0
 19 27  1  0
 27 28  1  6
 27 29  1  0
 29 30  1  0
 30 31  1  0
 31 32  1  6
  7  5  1  0
 31 10  1  0
 31 13  1  0
 27 15  1  0
 24 18  1  0
  1 33  1  0
  1 34  1  0
  1 35  1  0
  2 36  1  6
  3 37  1  0
  3 38  1  0
  4 39  1  0
  4 40  1  0
  5 41  1  1
  8 42  1  0
  8 43  1  0
  8 44  1  0
  9 45  1  0
  9 46  1  0
  9 47  1  0
 10 48  1  1
 11 49  1  0
 11 50  1  0
 12 51  1  0
 12 52  1  0
 14 53  1  0
 14 54  1  0
 14 55  1  0
 15 56  1  6
 16 57  1  0
 16 58  1  0
 17 59  1  0
 19 60  1  1
 20 61  1  0
 20 62  1  0
 21 63  1  0
 21 64  1  0
 22 65  1  1
 23 66  1  0
 25 67  1  0
 25 68  1  0
 25 69  1  0
 26 70  1  0
 26 71  1  0
 26 72  1  0
 28 73  1  0
 28 74  1  0
 28 75  1  0
 29 76  1  0
 29 77  1  0
 30 78  1  0
 30 79  1  0
 32 80  1  0
 32 81  1  0
 32 82  1  0
M  END
>  <meeko>  (15) 
{"is_sidechain": [false], "intermolecular_energy": 2.731, "internal_energy": -0.839}

$$$$
EPH_relaxed_0001_pdb2pqr_Repair_43_r2_0001_out
     RDKit          3D

 82 86  0  0  0  0  0  0  0  0999 V2000
   -4.2660    7.2960   -3.4200 C   0  0  0  0  0  0  0  0  0  0  0  0
   -3.9910    7.2660   -1.9140 C   0  0  2  0  0  0  0  0  0  0  0  0
   -5.2590    6.9430   -1.0980 C   0  0  0  0  0  0  0  0  0  0  0  0
   -6.5120    7.6670   -1.5970 C   0  0  0  0  0  0  0  0  0  0  0  0
   -7.6870    7.4250   -0.6980 C   0  0  2  0  0  0  0  0  0  0  0  0
   -8.2620    6.1160   -0.8050 O   0  0  0  0  0  0  0  0  0  0  0  0
   -9.1000    7.2120   -1.2080 C   0  0  0  0  0  0  0  0  0  0  0  0
   -9.4140    7.2320   -2.6710 C   0  0  0  0  0  0  0  0  0  0  0  0
  -10.2430    7.4710   -0.2760 C   0  0  0  0  0  0  0  0  0  0  0  0
   -3.4090    8.6010   -1.4660 C   0  0  1  0  0  0  0  0  0  0  0  0
   -3.9980    9.0870   -0.1150 C   0  0  0  0  0  0  0  0  0  0  0  0
   -2.8550    9.8180    0.6350 C   0  0  0  0  0  0  0  0  0  0  0  0
   -1.7550   10.0200   -0.4330 C   0  0  1  0  0  0  0  0  0  0  0  0
   -2.2030   11.2800   -1.2370 C   0  0  0  0  0  0  0  0  0  0  0  0
   -0.2920   10.1660    0.1000 C   0  0  2  0  0  0  0  0  0  0  0  0
   -0.0460   11.3880    1.0030 C   0  0  0  0  0  0  0  0  0  0  0  0
    0.3880   12.6280    0.2930 C   0  0  0  0  0  0  0  0  0  0  0  0
    0.8470   12.6850   -0.9710 C   0  0  0  0  0  0  0  0  0  0  0  0
    1.0580   11.4060   -1.7910 C   0  0  1  0  0  0  0  0  0  0  0  0
    2.4420   11.4630   -2.4910 C   0  0  0  0  0  0  0  0  0  0  0  0
    2.6250   12.7270   -3.3240 C   0  0  0  0  0  0  0  0  0  0  0  0
    2.4650   13.9770   -2.4620 C   0  0  2  0  0  0  0  0  0  0  0  0
    3.5460   14.0330   -1.5270 O   0  0  0  0  0  0  0  0  0  0  0  0
    1.1110   14.0260   -1.7000 C   0  0  0  0  0  0  0  0  0  0  0  0
   -0.0430   14.2690   -2.7040 C   0  0  0  0  0  0  0  0  0  0  0  0
    1.1370   15.2620   -0.7610 C   0  0  0  0  0  0  0  0  0  0  0  0
    0.8210   10.0390   -1.0170 C   0  0  1  0  0  0  0  0  0  0  0  0
    2.1310    9.6040   -0.2930 C   0  0  0  0  0  0  0  0  0  0  0  0
    0.4940    8.9070   -2.0610 C   0  0  0  0  0  0  0  0  0  0  0  0
   -0.9850    8.7340   -2.4580 C   0  0  0  0  0  0  0  0  0  0  0  0
   -1.8810    8.6640   -1.2170 C   0  0  2  0  0  0  0  0  0  0  0  0
   -1.4670    7.3930   -0.4000 C   0  0  0  0  0  0  0  0  0  0  0  0
   -5.3459    7.4138   -3.5933 H   0  0  0  0  0  0  0  0  0  0  0  0
   -3.7274    8.1407   -3.8743 H   0  0  0  0  0  0  0  0  0  0  0  0
   -3.9223    6.3550   -3.8743 H   0  0  0  0  0  0  0  0  0  0  0  0
   -3.2645    6.4617   -1.7261 H   0  0  0  0  0  0  0  0  0  0  0  0
   -5.4396    5.8592   -1.1511 H   0  0  0  0  0  0  0  0  0  0  0  0
   -5.0763    7.2877   -0.0695 H   0  0  0  0  0  0  0  0  0  0  0  0
   -6.3084    8.7473   -1.6345 H   0  0  0  0  0  0  0  0  0  0  0  0
   -6.7583    7.2774   -2.5958 H   0  0  0  0  0  0  0  0  0  0  0  0
   -7.2723    8.0993    0.0658 H   0  0  0  0  0  0  0  0  0  0  0  0
  -10.5028    7.3013   -2.8114 H   0  0  0  0  0  0  0  0  0  0  0  0
   -8.9279    8.1010   -3.1385 H   0  0  0  0  0  0  0  0  0  0  0  0
   -9.0421    6.3083   -3.1385 H   0  0  0  0  0  0  0  0  0  0  0  0
   -9.8933    7.3918    0.7639 H   0  0  0  0  0  0  0  0  0  0  0  0
  -10.6392    8.4817   -0.4536 H   0  0  0  0  0  0  0  0  0  0  0  0
  -11.0361    6.7298   -0.4536 H   0  0  0  0  0  0  0  0  0  0  0  0
   -3.6744    9.2181   -2.3370 H   0  0  0  0  0  0  0  0  0  0  0  0
   -4.8358    9.7771   -0.2935 H   0  0  0  0  0  0  0  0  0  0  0  0
   -4.3802    8.2415    0.4758 H   0  0  0  0  0  0  0  0  0  0  0  0
   -3.2024   10.7870    1.0229 H   0  0  0  0  0  0  0  0  0  0  0  0
   -2.4939    9.2475    1.5034 H   0  0  0  0  0  0  0  0  0  0  0  0
   -2.4873   12.0796   -0.5371 H   0  0  0  0  0  0  0  0  0  0  0  0
   -1.3725   11.6252   -1.8703 H   0  0  0  0  0  0  0  0  0  0  0  0
   -3.0650   11.0235   -1.8703 H   0  0  0  0  0  0  0  0  0  0  0  0
   -0.1898    9.2864    0.7526 H   0  0  0  0  0  0  0  0  0  0  0  0
   -0.9822   11.6112    1.5356 H   0  0  0  0  0  0  0  0  0  0  0  0
    0.7846   11.1120    1.6694 H   0  0  0  0  0  0  0  0  0  0  0  0
    0.3275   13.5746    0.8500 H   0  0  0  0  0  0  0  0  0  0  0  0
    0.2579   11.3926   -2.5458 H   0  0  0  0  0  0  0  0  0  0  0  0
    3.2277   11.4310   -1.7218 H   0  0  0  0  0  0  0  0  0  0  0  0
    2.5069   10.6020   -3.1725 H   0  0  0  0  0  0  0  0  0  0  0  0
    3.6312   12.7226   -3.7684 H   0  0  0  0  0  0  0  0  0  0  0  0
    1.8567   12.7428   -4.1111 H   0  0  0  0  0  0  0  0  0  0  0  0
    2.4772   14.8466   -3.1355 H   0  0  0  0  0  0  0  0  0  0  0  0
    3.6060   13.1640   -1.0940 H   0  0  0  0  0  0  0  0  0  0  0  0
   -0.9741   14.4651   -2.1520 H   0  0  0  0  0  0  0  0  0  0  0  0
    0.1978   15.1361   -3.3365 H   0  0  0  0  0  0  0  0  0  0  0  0
   -0.1723   13.3784   -3.3365 H   0  0  0  0  0  0  0  0  0  0  0  0
    1.1299   14.9268    0.2867 H   0  0  0  0  0  0  0  0  0  0  0  0
    2.0477   15.8486   -0.9522 H   0  0  0  0  0  0  0  0  0  0  0  0
    0.2518   15.8864   -0.9522 H   0  0  0  0  0  0  0  0  0  0  0  0
    1.9820    9.6535    0.7957 H   0  0  0  0  0  0  0  0  0  0  0  0
    2.3847    8.5734   -0.5819 H   0  0  0  0  0  0  0  0  0  0  0  0
    2.9508   10.2781   -0.5819 H   0  0  0  0  0  0  0  0  0  0  0  0
    1.0612    9.1258   -2.9777 H   0  0  0  0  0  0  0  0  0  0  0  0
    0.7699    7.9665   -1.5616 H   0  0  0  0  0  0  0  0  0  0  0  0
   -1.2939    9.5891   -3.0771 H   0  0  0  0  0  0  0  0  0  0  0  0
   -1.0899    7.7942   -3.0200 H   0  0  0  0  0  0  0  0  0  0  0  0
   -1.5376    7.6098    0.6761 H   0  0  0  0  0  0  0  0  0  0  0  0
   -2.1403    6.5602   -0.6512 H   0  0  0  0  0  0  0  0  0  0  0  0
   -0.4324    7.1166   -0.6512 H   0  0  0  0  0  0  0  0  0  0  0  0
  1  2  1  0
  2  3  1  0
  3  4  1  0
  4  5  1  0
  5  6  1  0
  6  7  1  0
  7  8  1  0
  7  9  1  0
  2 10  1  0
 10 11  1  0
 11 12  1  0
 12 13  1  0
 13 14  1  6
 13 15  1  0
 15 16  1  0
 16 17  1  0
 17 18  2  0
 18 19  1  0
 19 20  1  0
 20 21  1  0
 21 22  1  0
 22 23  1  0
 22 24  1  0
 24 25  1  0
 24 26  1  0
 19 27  1  0
 27 28  1  1
 27 29  1  0
 29 30  1  0
 30 31  1  0
 31 32  1  1
  7  5  1  0
 31 10  1  0
 31 13  1  0
 27 15  1  0
 24 18  1  0
  1 33  1  0
  1 34  1  0
  1 35  1  0
  2 36  1  6
  3 37  1  0
  3 38  1  0
  4 39  1  0
  4 40  1  0
  5 41  1  1
  8 42  1  0
  8 43  1  0
  8 44  1  0
  9 45  1  0
  9 46  1  0
  9 47  1  0
 10 48  1  6
 11 49  1  0
 11 50  1  0
 12 51  1  0
 12 52  1  0
 14 53  1  0
 14 54  1  0
 14 55  1  0
 15 56  1  1
 16 57  1  0
 16 58  1  0
 17 59  1  0
 19 60  1  6
 20 61  1  0
 20 62  1  0
 21 63  1  0
 21 64  1  0
 22 65  1  6
 23 66  1  0
 25 67  1  0
 25 68  1  0
 25 69  1  0
 26 70  1  0
 26 71  1  0
 26 72  1  0
 28 73  1  0
 28 74  1  0
 28 75  1  0
 29 76  1  0
 29 77  1  0
 30 78  1  0
 30 79  1  0
 32 80  1  0
 32 81  1  0
 32 82  1  0
M  END
>  <meeko>  (16) 
{"is_sidechain": [false], "intermolecular_energy": 2.731, "internal_energy": -0.839}

$$$$
EPH_relaxed_0001_pdb2pqr_Repair_43_r2_0001_out
     RDKit          3D

 82 86  0  0  0  0  0  0  0  0999 V2000
    0.9910   14.8830   -2.6840 C   0  0  0  0  0  0  0  0  0  0  0  0
    1.2160   14.2060   -4.0380 C   0  0  2  0  0  0  0  0  0  0  0  0
    0.4830   14.9350   -5.1820 C   0  0  0  0  0  0  0  0  0  0  0  0
    1.0210   14.5940   -6.5740 C   0  0  0  0  0  0  0  0  0  0  0  0
    0.8180   15.7240   -7.5390 C   0  0  2  0  0  0  0  0  0  0  0  0
    0.3790   15.3240   -8.8440 O   0  0  0  0  0  0  0  0  0  0  0  0
    1.6770   15.9360   -8.7710 C   0  0  0  0  0  0  0  0  0  0  0  0
    2.8050   15.0120   -9.1050 C   0  0  0  0  0  0  0  0  0  0  0  0
    1.7330   17.3040   -9.3760 C   0  0  0  0  0  0  0  0  0  0  0  0
    0.7650   12.7510   -3.9740 C   0  0  1  0  0  0  0  0  0  0  0  0
    1.8960   11.7570   -4.3490 C   0  0  0  0  0  0  0  0  0  0  0  0
    1.6960   10.4990   -3.4670 C   0  0  0  0  0  0  0  0  0  0  0  0
    0.2840   10.6670   -2.8600 C   0  0  1  0  0  0  0  0  0  0  0  0
   -0.6930   10.1910   -3.9810 C   0  0  0  0  0  0  0  0  0  0  0  0
    0.0180    9.9260   -1.5090 C   0  0  2  0  0  0  0  0  0  0  0  0
    0.1220    8.3920   -1.5760 C   0  0  0  0  0  0  0  0  0  0  0  0
   -1.1510    7.6800   -1.8930 C   0  0  0  0  0  0  0  0  0  0  0  0
   -2.3830    8.2180   -1.8360 C   0  0  0  0  0  0  0  0  0  0  0  0
   -2.5950    9.6490   -1.3250 C   0  0  1  0  0  0  0  0  0  0  0  0
   -3.7740    9.6700   -0.3180 C   0  0  0  0  0  0  0  0  0  0  0  0
   -5.0490    9.0630   -0.8960 C   0  0  0  0  0  0  0  0  0  0  0  0
   -4.8130    7.6210   -1.3380 C   0  0  2  0  0  0  0  0  0  0  0  0
   -4.5550    6.8200   -0.1810 O   0  0  0  0  0  0  0  0  0  0  0  0
   -3.6410    7.4740   -2.3480 C   0  0  0  0  0  0  0  0  0  0  0  0
   -4.0480    8.0870   -3.7110 C   0  0  0  0  0  0  0  0  0  0  0  0
   -3.4180    5.9590   -2.6040 C   0  0  0  0  0  0  0  0  0  0  0  0
   -1.3020   10.3840   -0.7670 C   0  0  1  0  0  0  0  0  0  0  0  0
   -1.1050   10.0430    0.7420 C   0  0  0  0  0  0  0  0  0  0  0  0
   -1.5210   11.9420   -0.8440 C   0  0  0  0  0  0  0  0  0  0  0  0
   -1.1290   12.6340   -2.1630 C   0  0  0  0  0  0  0  0  0  0  0  0
    0.2780   12.2180   -2.6030 C   0  0  2  0  0  0  0  0  0  0  0  0
    1.2860   12.7040   -1.5050 C   0  0  0  0  0  0  0  0  0  0  0  0
    1.2265   14.1745   -1.8762 H   0  0  0  0  0  0  0  0  0  0  0  0
    1.6447   15.7638   -2.6013 H   0  0  0  0  0  0  0  0  0  0  0  0
   -0.0599   15.1973   -2.6013 H   0  0  0  0  0  0  0  0  0  0  0  0
    2.2934   14.2520   -4.2548 H   0  0  0  0  0  0  0  0  0  0  0  0
   -0.5812   14.6591   -5.1439 H   0  0  0  0  0  0  0  0  0  0  0  0
    0.6431   16.0127   -5.0308 H   0  0  0  0  0  0  0  0  0  0  0  0
    2.0971   14.3794   -6.4976 H   0  0  0  0  0  0  0  0  0  0  0  0
    0.4704   13.7190   -6.9497 H   0  0  0  0  0  0  0  0  0  0  0  0
    0.5190   16.3988   -6.7234 H   0  0  0  0  0  0  0  0  0  0  0  0
    3.2606   14.6388   -8.1760 H   0  0  0  0  0  0  0  0  0  0  0  0
    2.4228   14.1641   -9.6923 H   0  0  0  0  0  0  0  0  0  0  0  0
    3.5611   15.5537   -9.6923 H   0  0  0  0  0  0  0  0  0  0  0  0
    1.7639   18.0579   -8.5756 H   0  0  0  0  0  0  0  0  0  0  0  0
    2.6355   17.3930   -9.9985 H   0  0  0  0  0  0  0  0  0  0  0  0
    0.8408   17.4664   -9.9985 H   0  0  0  0  0  0  0  0  0  0  0  0
   -0.0742   12.7867   -4.6842 H   0  0  0  0  0  0  0  0  0  0  0  0
    1.8266   11.4883   -5.4134 H   0  0  0  0  0  0  0  0  0  0  0  0
    2.8868   12.2041   -4.1804 H   0  0  0  0  0  0  0  0  0  0  0  0
    1.7501    9.5850   -4.0766 H   0  0  0  0  0  0  0  0  0  0  0  0
    2.4731   10.4042   -2.6942 H   0  0  0  0  0  0  0  0  0  0  0  0
   -1.5918    9.7531   -3.5224 H   0  0  0  0  0  0  0  0  0  0  0  0
   -0.9811   11.0497   -4.6052 H   0  0  0  0  0  0  0  0  0  0  0  0
   -0.1944    9.4349   -4.6052 H   0  0  0  0  0  0  0  0  0  0  0  0
    0.8634   10.2566   -0.8877 H   0  0  0  0  0  0  0  0  0  0  0  0
    0.8577    8.1348   -2.3522 H   0  0  0  0  0  0  0  0  0  0  0  0
    0.4121    8.0623   -0.5675 H   0  0  0  0  0  0  0  0  0  0  0  0
   -1.0756    6.6262   -2.1992 H   0  0  0  0  0  0  0  0  0  0  0  0
   -2.8489   10.2531   -2.2085 H   0  0  0  0  0  0  0  0  0  0  0  0
   -3.4846    9.0974    0.5755 H   0  0  0  0  0  0  0  0  0  0  0  0
   -3.9859   10.7215   -0.0744 H   0  0  0  0  0  0  0  0  0  0  0  0
   -5.8365    9.0802   -0.1281 H   0  0  0  0  0  0  0  0  0  0  0  0
   -5.3543    9.6540   -1.7721 H   0  0  0  0  0  0  0  0  0  0  0  0
   -5.7206    7.2833   -1.8598 H   0  0  0  0  0  0  0  0  0  0  0  0
   -3.8830    7.2790    0.3500 H   0  0  0  0  0  0  0  0  0  0  0  0
   -4.6491    8.9924   -3.5410 H   0  0  0  0  0  0  0  0  0  0  0  0
   -3.1437    8.3488   -4.2800 H   0  0  0  0  0  0  0  0  0  0  0  0
   -4.6402    7.3552   -4.2800 H   0  0  0  0  0  0  0  0  0  0  0  0
   -3.3404    5.4320   -1.6416 H   0  0  0  0  0  0  0  0  0  0  0  0
   -4.2664    5.5550   -3.1759 H   0  0  0  0  0  0  0  0  0  0  0  0
   -2.4892    5.8166   -3.1759 H   0  0  0  0  0  0  0  0  0  0  0  0
   -1.5607   10.8317    1.3587 H   0  0  0  0  0  0  0  0  0  0  0  0
   -1.5854    9.0791    0.9658 H   0  0  0  0  0  0  0  0  0  0  0  0
   -0.0300    9.9777    0.9658 H   0  0  0  0  0  0  0  0  0  0  0  0
   -2.5897   12.1368   -0.6708 H   0  0  0  0  0  0  0  0  0  0  0  0
   -0.8464   12.3654   -0.0853 H   0  0  0  0  0  0  0  0  0  0  0  0
   -1.8489   12.3517   -2.9453 H   0  0  0  0  0  0  0  0  0  0  0  0
   -1.1397   13.7225   -2.0048 H   0  0  0  0  0  0  0  0  0  0  0  0
    0.8675   12.5022   -0.5079 H   0  0  0  0  0  0  0  0  0  0  0  0
    2.2389   12.1664   -1.6183 H   0  0  0  0  0  0  0  0  0  0  0  0
    1.4588   13.7844   -1.6183 H   0  0  0  0  0  0  0  0  0  0  0  0
  1  2  1  0
  2  3  1  0
  3  4  1  0
  4  5  1  0
  5  6  1  0
  6  7  1  0
  7  8  1  0
  7  9  1  0
  2 10  1  0
 10 11  1  0
 11 12  1  0
 12 13  1  0
 13 14  1  6
 13 15  1  0
 15 16  1  0
 16 17  1  0
 17 18  2  0
 18 19  1  0
 19 20  1  0
 20 21  1  0
 21 22  1  0
 22 23  1  0
 22 24  1  0
 24 25  1  0
 24 26  1  0
 19 27  1  0
 27 28  1  1
 27 29  1  0
 29 30  1  0
 30 31  1  0
 31 32  1  1
  7  5  1  0
 31 10  1  0
 31 13  1  0
 27 15  1  0
 24 18  1  0
  1 33  1  0
  1 34  1  0
  1 35  1  0
  2 36  1  6
  3 37  1  0
  3 38  1  0
  4 39  1  0
  4 40  1  0
  5 41  1  1
  8 42  1  0
  8 43  1  0
  8 44  1  0
  9 45  1  0
  9 46  1  0
  9 47  1  0
 10 48  1  6
 11 49  1  0
 11 50  1  0
 12 51  1  0
 12 52  1  0
 14 53  1  0
 14 54  1  0
 14 55  1  0
 15 56  1  1
 16 57  1  0
 16 58  1  0
 17 59  1  0
 19 60  1  6
 20 61  1  0
 20 62  1  0
 21 63  1  0
 21 64  1  0
 22 65  1  6
 23 66  1  0
 25 67  1  0
 25 68  1  0
 25 69  1  0
 26 70  1  0
 26 71  1  0
 26 72  1  0
 28 73  1  0
 28 74  1  0
 28 75  1  0
 29 76  1  0
 29 77  1  0
 30 78  1  0
 30 79  1  0
 32 80  1  0
 32 81  1  0
 32 82  1  0
M  END
>  <meeko>  (17) 
{"is_sidechain": [false], "intermolecular_energy": 2.731, "internal_energy": -0.839}

$$$$
EPH_relaxed_0001_pdb2pqr_Repair_43_r2_0001_out
     RDKit          3D

 82 86  0  0  0  0  0  0  0  0999 V2000
   -1.6750   14.9220    0.4210 C   0  0  0  0  0  0  0  0  0  0  0  0
   -0.3190   15.6080    0.2370 C   0  0  2  0  0  0  0  0  0  0  0  0
   -0.3380   16.6350   -0.9130 C   0  0  0  0  0  0  0  0  0  0  0  0
    0.0320   18.0550   -0.4770 C   0  0  0  0  0  0  0  0  0  0  0  0
    1.4620   18.1440   -0.0370 C   0  0  2  0  0  0  0  0  0  0  0  0
    2.1300   19.3550   -0.4150 O   0  0  0  0  0  0  0  0  0  0  0  0
    2.6350   18.1440   -1.0000 C   0  0  0  0  0  0  0  0  0  0  0  0
    2.4300   18.0510   -2.4790 C   0  0  0  0  0  0  0  0  0  0  0  0
    3.9820   17.7420   -0.4860 C   0  0  0  0  0  0  0  0  0  0  0  0
    0.7620   14.5630   -0.0160 C   0  0  1  0  0  0  0  0  0  0  0  0
    0.8880   13.5410    1.1450 C   0  0  0  0  0  0  0  0  0  0  0  0
    1.2500   12.1770    0.5020 C   0  0  0  0  0  0  0  0  0  0  0  0
    1.6440   12.5240   -0.9530 C   0  0  1  0  0  0  0  0  0  0  0  0
    3.1220   13.0150   -0.8610 C   0  0  0  0  0  0  0  0  0  0  0  0
    1.4800   11.3780   -2.0040 C   0  0  2  0  0  0  0  0  0  0  0  0
    2.3540   10.1360   -1.7580 C   0  0  0  0  0  0  0  0  0  0  0  0
    3.6970   10.1610   -2.4090 C   0  0  0  0  0  0  0  0  0  0  0  0
    4.0750   11.0030   -3.3890 C   0  0  0  0  0  0  0  0  0  0  0  0
    3.0770   11.9900   -4.0090 C   0  0  1  0  0  0  0  0  0  0  0  0
    3.1960   11.9450   -5.5550 C   0  0  0  0  0  0  0  0  0  0  0  0
    4.6240   12.1780   -6.0380 C   0  0  0  0  0  0  0  0  0  0  0  0
    5.5770   11.1420   -5.4470 C   0  0  2  0  0  0  0  0  0  0  0  0
    5.2480    9.8560   -5.9810 O   0  0  0  0  0  0  0  0  0  0  0  0
    5.5370   11.0890   -3.8940 C   0  0  0  0  0  0  0  0  0  0  0  0
    6.1770   12.3740   -3.3130 C   0  0  0  0  0  0  0  0  0  0  0  0
    6.4350    9.9100   -3.4330 C   0  0  0  0  0  0  0  0  0  0  0  0
    1.5740   11.8620   -3.5080 C   0  0  1  0  0  0  0  0  0  0  0  0
    0.8170   10.8010   -4.3650 C   0  0  0  0  0  0  0  0  0  0  0  0
    0.8350   13.2320   -3.7440 C   0  0  0  0  0  0  0  0  0  0  0  0
    0.9350   14.2770   -2.6170 C   0  0  0  0  0  0  0  0  0  0  0  0
    0.5960   13.6540   -1.2590 C   0  0  2  0  0  0  0  0  0  0  0  0
   -0.8940   13.1700   -1.3140 C   0  0  0  0  0  0  0  0  0  0  0  0
   -1.8886   14.8140    1.4946 H   0  0  0  0  0  0  0  0  0  0  0  0
   -2.4609   15.5310   -0.0497 H   0  0  0  0  0  0  0  0  0  0  0  0
   -1.6500   13.9281   -0.0497 H   0  0  0  0  0  0  0  0  0  0  0  0
   -0.0973   16.1559    1.1647 H   0  0  0  0  0  0  0  0  0  0  0  0
    0.3793   16.3096   -1.6809 H   0  0  0  0  0  0  0  0  0  0  0  0
   -1.3700   16.6740   -1.2918 H   0  0  0  0  0  0  0  0  0  0  0  0
   -0.1240   18.7400   -1.3234 H   0  0  0  0  0  0  0  0  0  0  0  0
   -0.6071   18.3300    0.3750 H   0  0  0  0  0  0  0  0  0  0  0  0
    1.2468   17.5505    0.8638 H   0  0  0  0  0  0  0  0  0  0  0  0
    1.4461   17.6046   -2.6854 H   0  0  0  0  0  0  0  0  0  0  0  0
    2.4756   19.0579   -2.9195 H   0  0  0  0  0  0  0  0  0  0  0  0
    3.2177   17.4221   -2.9195 H   0  0  0  0  0  0  0  0  0  0  0  0
    3.9707   17.7454    0.6139 H   0  0  0  0  0  0  0  0  0  0  0  0
    4.2258   16.7320   -0.8471 H   0  0  0  0  0  0  0  0  0  0  0  0
    4.7395   18.4532   -0.8471 H   0  0  0  0  0  0  0  0  0  0  0  0
    1.6306   15.2249   -0.1478 H   0  0  0  0  0  0  0  0  0  0  0  0
    1.6802   13.8540    1.8410 H   0  0  0  0  0  0  0  0  0  0  0  0
   -0.0503   13.4727    1.7150 H   0  0  0  0  0  0  0  0  0  0  0  0
    2.0932   11.7095    1.0317 H   0  0  0  0  0  0  0  0  0  0  0  0
    0.4175   11.4596    0.5490 H   0  0  0  0  0  0  0  0  0  0  0  0
    3.4113   13.1111    0.1959 H   0  0  0  0  0  0  0  0  0  0  0  0
    3.7815   12.2877   -1.3570 H   0  0  0  0  0  0  0  0  0  0  0  0
    3.2152   13.9924   -1.3570 H   0  0  0  0  0  0  0  0  0  0  0  0
    0.4433   11.0504   -1.8367 H   0  0  0  0  0  0  0  0  0  0  0  0
    2.5043   10.0359   -0.6729 H   0  0  0  0  0  0  0  0  0  0  0  0
    1.8137    9.2903   -2.2084 H   0  0  0  0  0  0  0  0  0  0  0  0
    4.4404    9.4299   -2.0585 H   0  0  0  0  0  0  0  0  0  0  0  0
    3.3661   12.9859   -3.6420 H   0  0  0  0  0  0  0  0  0  0  0  0
    2.8616   10.9576   -5.9059 H   0  0  0  0  0  0  0  0  0  0  0  0
    2.5696   12.7524   -5.9621 H   0  0  0  0  0  0  0  0  0  0  0  0
    4.6490   12.1052   -7.1353 H   0  0  0  0  0  0  0  0  0  0  0  0
    4.9461   13.1776   -5.7108 H   0  0  0  0  0  0  0  0  0  0  0  0
    6.5996   11.4375   -5.7245 H   0  0  0  0  0  0  0  0  0  0  0  0
    5.5290    9.1880   -5.3330 H   0  0  0  0  0  0  0  0  0  0  0  0
    6.1551   12.3300   -2.2141 H   0  0  0  0  0  0  0  0  0  0  0  0
    7.2192   12.4520   -3.6561 H   0  0  0  0  0  0  0  0  0  0  0  0
    5.6113   13.2528   -3.6561 H   0  0  0  0  0  0  0  0  0  0  0  0
    6.4605    9.8765   -2.3338 H   0  0  0  0  0  0  0  0  0  0  0  0
    6.0260    8.9647   -3.8192 H   0  0  0  0  0  0  0  0  0  0  0  0
    7.4550   10.0531   -3.8192 H   0  0  0  0  0  0  0  0  0  0  0  0
    0.3081   10.0878   -3.6999 H   0  0  0  0  0  0  0  0  0  0  0  0
    0.0734   11.3052   -4.9997 H   0  0  0  0  0  0  0  0  0  0  0  0
    1.5357   10.2619   -4.9997 H   0  0  0  0  0  0  0  0  0  0  0  0
    1.2542   13.6838   -4.6551 H   0  0  0  0  0  0  0  0  0  0  0  0
   -0.2331   12.9764   -3.8062 H   0  0  0  0  0  0  0  0  0  0  0  0
    1.9603   14.6742   -2.5847 H   0  0  0  0  0  0  0  0  0  0  0  0
    0.2156   15.0835   -2.8220 H   0  0  0  0  0  0  0  0  0  0  0  0
   -1.2771   13.0456   -0.2904 H   0  0  0  0  0  0  0  0  0  0  0  0
   -1.5027   13.9166   -1.8451 H   0  0  0  0  0  0  0  0  0  0  0  0
   -0.9477   12.2082   -1.8451 H   0  0  0  0  0  0  0  0  0  0  0  0
  1  2  1  0
  2  3  1  0
  3  4  1  0
  4  5  1  0
  5  6  1  0
  6  7  1  0
  7  8  1  0
  7  9  1  0
  2 10  1  0
 10 11  1  0
 11 12  1  0
 12 13  1  0
 13 14  1  1
 13 15  1  0
 15 16  1  0
 16 17  1  0
 17 18  2  0
 18 19  1  0
 19 20  1  0
 20 21  1  0
 21 22  1  0
 22 23  1  0
 22 24  1  0
 24 25  1  0
 24 26  1  0
 19 27  1  0
 27 28  1  6
 27 29  1  0
 29 30  1  0
 30 31  1  0
 31 32  1  6
  7  5  1  0
 31 10  1  0
 31 13  1  0
 27 15  1  0
 24 18  1  0
  1 33  1  0
  1 34  1  0
  1 35  1  0
  2 36  1  1
  3 37  1  0
  3 38  1  0
  4 39  1  0
  4 40  1  0
  5 41  1  1
  8 42  1  0
  8 43  1  0
  8 44  1  0
  9 45  1  0
  9 46  1  0
  9 47  1  0
 10 48  1  6
 11 49  1  0
 11 50  1  0
 12 51  1  0
 12 52  1  0
 14 53  1  0
 14 54  1  0
 14 55  1  0
 15 56  1  6
 16 57  1  0
 16 58  1  0
 17 59  1  0
 19 60  1  1
 20 61  1  0
 20 62  1  0
 21 63  1  0
 21 64  1  0
 22 65  1  1
 23 66  1  0
 25 67  1  0
 25 68  1  0
 25 69  1  0
 26 70  1  0
 26 71  1  0
 26 72  1  0
 28 73  1  0
 28 74  1  0
 28 75  1  0
 29 76  1  0
 29 77  1  0
 30 78  1  0
 30 79  1  0
 32 80  1  0
 32 81  1  0
 32 82  1  0
M  END
>  <meeko>  (18) 
{"is_sidechain": [false], "intermolecular_energy": 2.731, "internal_energy": -0.839}

$$$$
