EPH_relaxed_0001_pdb2pqr_Repair_124_r2_0001_out
     RDKit          3D

 82 86  0  0  0  0  0  0  0  0999 V2000
   -1.7250    8.5890   -1.8710 C   0  0  0  0  0  0  0  0  0  0  0  0
   -2.1050    9.1070   -0.4810 C   0  0  2  0  0  0  0  0  0  0  0  0
   -3.6000    9.4720   -0.3860 C   0  0  0  0  0  0  0  0  0  0  0  0
   -4.5190    8.2600   -0.2120 C   0  0  0  0  0  0  0  0  0  0  0  0
   -5.2190    7.9070   -1.4890 C   0  0  2  0  0  0  0  0  0  0  0  0
   -6.3530    8.7270   -1.7970 O   0  0  0  0  0  0  0  0  0  0  0  0
   -6.6250    7.3390   -1.5440 C   0  0  0  0  0  0  0  0  0  0  0  0
   -7.4150    7.0910   -0.2980 C   0  0  0  0  0  0  0  0  0  0  0  0
   -7.0410    6.5740   -2.7620 C   0  0  0  0  0  0  0  0  0  0  0  0
   -1.2500   10.3180   -0.1260 C   0  0  1  0  0  0  0  0  0  0  0  0
   -0.2290   10.0180    1.0030 C   0  0  0  0  0  0  0  0  0  0  0  0
    1.0440   10.8460    0.6880 C   0  0  0  0  0  0  0  0  0  0  0  0
    0.6000   11.8380   -0.4130 C   0  0  1  0  0  0  0  0  0  0  0  0
   -0.1140   12.9940    0.3540 C   0  0  0  0  0  0  0  0  0  0  0  0
    1.7280   12.3780   -1.3510 C   0  0  2  0  0  0  0  0  0  0  0  0
    2.8240   13.1980   -0.6480 C   0  0  0  0  0  0  0  0  0  0  0  0
    2.5720   14.6680   -0.5720 C   0  0  0  0  0  0  0  0  0  0  0  0
    1.6550   15.3420   -1.2910 C   0  0  0  0  0  0  0  0  0  0  0  0
    0.8200   14.6340   -2.3660 C   0  0  1  0  0  0  0  0  0  0  0  0
    0.8050   15.4920   -3.6580 C   0  0  0  0  0  0  0  0  0  0  0  0
    0.3370   16.9220   -3.4050 C   0  0  0  0  0  0  0  0  0  0  0  0
    1.2270   17.6120   -2.3740 C   0  0  2  0  0  0  0  0  0  0  0  0
    2.5340   17.7800   -2.9310 O   0  0  0  0  0  0  0  0  0  0  0  0
    1.3270   16.8330   -1.0320 C   0  0  0  0  0  0  0  0  0  0  0  0
   -0.0260   16.9100   -0.2830 C   0  0  0  0  0  0  0  0  0  0  0  0
    2.3630   17.5610   -0.1340 C   0  0  0  0  0  0  0  0  0  0  0  0
    1.1960   13.1150   -2.6460 C   0  0  1  0  0  0  0  0  0  0  0  0
    2.3390   13.0360   -3.7040 C   0  0  0  0  0  0  0  0  0  0  0  0
   -0.0470   12.3860   -3.2810 C   0  0  0  0  0  0  0  0  0  0  0  0
   -1.0650   11.7690   -2.3020 C   0  0  0  0  0  0  0  0  0  0  0  0
   -0.3600   10.9130   -1.2460 C   0  0  2  0  0  0  0  0  0  0  0  0
    0.3500    9.7290   -1.9860 C   0  0  0  0  0  0  0  0  0  0  0  0
   -1.0772    7.7059   -1.7687 H   0  0  0  0  0  0  0  0  0  0  0  0
   -2.6366    8.3132   -2.4214 H   0  0  0  0  0  0  0  0  0  0  0  0
   -1.1882    9.3757   -2.4214 H   0  0  0  0  0  0  0  0  0  0  0  0
   -1.9169    8.2954    0.2373 H   0  0  0  0  0  0  0  0  0  0  0  0
   -3.7402   10.1408    0.4760 H   0  0  0  0  0  0  0  0  0  0  0  0
   -3.8754    9.9506   -1.3374 H   0  0  0  0  0  0  0  0  0  0  0  0
   -3.9162    7.3994    0.1137 H   0  0  0  0  0  0  0  0  0  0  0  0
   -5.2822    8.5135    0.5385 H   0  0  0  0  0  0  0  0  0  0  0  0
   -4.2726    7.5790   -1.9437 H   0  0  0  0  0  0  0  0  0  0  0  0
   -6.7845    7.2889    0.5814 H   0  0  0  0  0  0  0  0  0  0  0  0
   -8.2897    7.7578   -0.2796 H   0  0  0  0  0  0  0  0  0  0  0  0
   -7.7517    6.0439   -0.2796 H   0  0  0  0  0  0  0  0  0  0  0  0
   -7.5459    5.6455   -2.4571 H   0  0  0  0  0  0  0  0  0  0  0  0
   -7.7304    7.1863   -3.3619 H   0  0  0  0  0  0  0  0  0  0  0  0
   -6.1523    6.3282   -3.3619 H   0  0  0  0  0  0  0  0  0  0  0  0
   -2.0431   11.0310    0.1433 H   0  0  0  0  0  0  0  0  0  0  0  0
   -0.6433   10.3164    1.9773 H   0  0  0  0  0  0  0  0  0  0  0  0
    0.0012    8.9435    1.0515 H   0  0  0  0  0  0  0  0  0  0  0  0
    1.3872   11.3864    1.5825 H   0  0  0  0  0  0  0  0  0  0  0  0
    1.8846   10.2137    0.3662 H   0  0  0  0  0  0  0  0  0  0  0  0
   -0.0139   12.8319    1.4374 H   0  0  0  0  0  0  0  0  0  0  0  0
    0.3484   13.9545    0.0827 H   0  0  0  0  0  0  0  0  0  0  0  0
   -1.1799   13.0106    0.0827 H   0  0  0  0  0  0  0  0  0  0  0  0
    2.2175   11.4526   -1.6887 H   0  0  0  0  0  0  0  0  0  0  0  0
    2.9271   12.8174    0.3789 H   0  0  0  0  0  0  0  0  0  0  0  0
    3.7322   13.0763   -1.2566 H   0  0  0  0  0  0  0  0  0  0  0  0
    3.1875   15.2489    0.1306 H   0  0  0  0  0  0  0  0  0  0  0  0
   -0.1987   14.5559   -1.9584 H   0  0  0  0  0  0  0  0  0  0  0  0
    1.8233   15.5224   -4.0730 H   0  0  0  0  0  0  0  0  0  0  0  0
    0.0959   15.0276   -4.3591 H   0  0  0  0  0  0  0  0  0  0  0  0
    0.3753   17.4858   -4.3488 H   0  0  0  0  0  0  0  0  0  0  0  0
   -0.6919   16.8917   -3.0171 H   0  0  0  0  0  0  0  0  0  0  0  0
    0.7677   18.5836   -2.1396 H   0  0  0  0  0  0  0  0  0  0  0  0
    3.1780   17.4870   -2.2650 H   0  0  0  0  0  0  0  0  0  0  0  0
    0.1545   16.8997    0.8020 H   0  0  0  0  0  0  0  0  0  0  0  0
   -0.5458   17.8392   -0.5595 H   0  0  0  0  0  0  0  0  0  0  0  0
   -0.6479   16.0458   -0.5595 H   0  0  0  0  0  0  0  0  0  0  0  0
    2.1168   17.3880    0.9241 H   0  0  0  0  0  0  0  0  0  0  0  0
    3.3695   17.1706   -0.3449 H   0  0  0  0  0  0  0  0  0  0  0  0
    2.3368   18.6403   -0.3449 H   0  0  0  0  0  0  0  0  0  0  0  0
    3.3096   12.9689   -3.1908 H   0  0  0  0  0  0  0  0  0  0  0  0
    2.1949   12.1457   -4.3337 H   0  0  0  0  0  0  0  0  0  0  0  0
    2.3187   13.9377   -4.3337 H   0  0  0  0  0  0  0  0  0  0  0  0
   -0.5833   13.1204   -3.8998 H   0  0  0  0  0  0  0  0  0  0  0  0
    0.3716   11.5337   -3.8363 H   0  0  0  0  0  0  0  0  0  0  0  0
   -1.6171   12.5773   -1.8001 H   0  0  0  0  0  0  0  0  0  0  0  0
   -1.7543   11.1275   -2.8707 H   0  0  0  0  0  0  0  0  0  0  0  0
    0.7682    9.0317   -1.2452 H   0  0  0  0  0  0  0  0  0  0  0  0
   -0.3801    9.2000   -2.6163 H   0  0  0  0  0  0  0  0  0  0  0  0
    1.1605   10.1238   -2.6163 H   0  0  0  0  0  0  0  0  0  0  0  0
  1  2  1  0
  2  3  1  0
  3  4  1  0
  4  5  1  0
  5  6  1  0
  6  7  1  0
  7  8  1  0
  7  9  1  0
  2 10  1  0
 10 11  1  0
 11 12  1  0
 12 13  1  0
 13 14  1  1
 13 15  1  0
 15 16  1  0
 16 17  1  0
 17 18  2  0
 18 19  1  0
 19 20  1  0
 20 21  1  0
 21 22  1  0
 22 23  1  0
 22 24  1  0
 24 25  1  0
 24 26  1  0
 19 27  1  0
 27 28  1  6
 27 29  1  0
 29 30  1  0
 30 31  1  0
 31 32  1  6
  7  5  1  0
 31 10  1  0
 31 13  1  0
 27 15  1  0
 24 18  1  0
  1 33  1  0
  1 34  1  0
  1 35  1  0
  2 36  1  1
  3 37  1  0
  3 38  1  0
  4 39  1  0
  4 40  1  0
  5 41  1  6
  8 42  1  0
  8 43  1  0
  8 44  1  0
  9 45  1  0
  9 46  1  0
  9 47  1  0
 10 48  1  1
 11 49  1  0
 11 50  1  0
 12 51  1  0
 12 52  1  0
 14 53  1  0
 14 54  1  0
 14 55  1  0
 15 56  1  6
 16 57  1  0
 16 58  1  0
 17 59  1  0
 19 60  1  1
 20 61  1  0
 20 62  1  0
 21 63  1  0
 21 64  1  0
 22 65  1  1
 23 66  1  0
 25 67  1  0
 25 68  1  0
 25 69  1  0
 26 70  1  0
 26 71  1  0
 26 72  1  0
 28 73  1  0
 28 74  1  0
 28 75  1  0
 29 76  1  0
 29 77  1  0
 30 78  1  0
 30 79  1  0
 32 80  1  0
 32 81  1  0
 32 82  1  0
M  END
>  <meeko>  (1) 
{"is_sidechain": [false], "intermolecular_energy": 2.731, "internal_energy": -0.839}

$$$$
EPH_relaxed_0001_pdb2pqr_Repair_124_r2_0001_out
     RDKit          3D

 82 86  0  0  0  0  0  0  0  0999 V2000
    4.2160   17.5680   -0.5790 C   0  0  0  0  0  0  0  0  0  0  0  0
    2.8550   18.1320   -0.1610 C   0  0  2  0  0  0  0  0  0  0  0  0
    2.9090   18.8150    1.2210 C   0  0  0  0  0  0  0  0  0  0  0  0
    4.2810   18.7320    1.8950 C   0  0  0  0  0  0  0  0  0  0  0  0
    4.2460   19.2760    3.2910 C   0  0  2  0  0  0  0  0  0  0  0  0
    5.3020   20.1940    3.6030 O   0  0  0  0  0  0  0  0  0  0  0  0
    5.2970   18.9600    4.3380 C   0  0  0  0  0  0  0  0  0  0  0  0
    6.4580   18.0650    4.0340 C   0  0  0  0  0  0  0  0  0  0  0  0
    4.9390   19.1210    5.7830 C   0  0  0  0  0  0  0  0  0  0  0  0
    1.8120   17.0200   -0.1520 C   0  0  1  0  0  0  0  0  0  0  0  0
    0.3830   17.5390   -0.4600 C   0  0  0  0  0  0  0  0  0  0  0  0
   -0.3340   16.4250   -1.2660 C   0  0  0  0  0  0  0  0  0  0  0  0
    0.5770   15.1840   -1.1100 C   0  0  1  0  0  0  0  0  0  0  0  0
    0.2070   14.5870    0.2840 C   0  0  0  0  0  0  0  0  0  0  0  0
    0.4800   14.1100   -2.2420 C   0  0  2  0  0  0  0  0  0  0  0  0
   -0.8970   13.4390   -2.3890 C   0  0  0  0  0  0  0  0  0  0  0  0
   -1.0920   12.1990   -1.5810 C   0  0  0  0  0  0  0  0  0  0  0  0
   -0.1140   11.4870   -0.9930 C   0  0  0  0  0  0  0  0  0  0  0  0
    1.3610   11.8590   -1.1940 C   0  0  1  0  0  0  0  0  0  0  0  0
    2.1790   10.5800   -1.5150 C   0  0  0  0  0  0  0  0  0  0  0  0
    1.9900    9.4870   -0.4680 C   0  0  0  0  0  0  0  0  0  0  0  0
    0.5180    9.1030   -0.3390 C   0  0  2  0  0  0  0  0  0  0  0  0
    0.0960    8.4790   -1.5550 O   0  0  0  0  0  0  0  0  0  0  0  0
   -0.4050   10.3130   -0.0250 C   0  0  0  0  0  0  0  0  0  0  0  0
   -0.1490   10.8020    1.4220 C   0  0  0  0  0  0  0  0  0  0  0  0
   -1.8750    9.8150   -0.0610 C   0  0  0  0  0  0  0  0  0  0  0  0
    1.6450   13.0390   -2.2200 C   0  0  1  0  0  0  0  0  0  0  0  0
    1.7530   12.4700   -3.6680 C   0  0  0  0  0  0  0  0  0  0  0  0
    3.0430   13.6820   -1.8900 C   0  0  0  0  0  0  0  0  0  0  0  0
    3.0570   14.8200   -0.8520 C   0  0  0  0  0  0  0  0  0  0  0  0
    1.9900   15.8700   -1.1750 C   0  0  2  0  0  0  0  0  0  0  0  0
    2.3480   16.5040   -2.5630 C   0  0  0  0  0  0  0  0  0  0  0  0
    4.8034   17.3246    0.3186 H   0  0  0  0  0  0  0  0  0  0  0  0
    4.0673   16.6574   -1.1779 H   0  0  0  0  0  0  0  0  0  0  0  0
    4.7550   18.3169   -1.1779 H   0  0  0  0  0  0  0  0  0  0  0  0
    2.5743   18.8991   -0.8977 H   0  0  0  0  0  0  0  0  0  0  0  0
    2.6478   19.8760    1.0945 H   0  0  0  0  0  0  0  0  0  0  0  0
    2.1988   18.2826    1.8708 H   0  0  0  0  0  0  0  0  0  0  0  0
    4.5978   17.6792    1.9304 H   0  0  0  0  0  0  0  0  0  0  0  0
    4.9885   19.3368    1.3087 H   0  0  0  0  0  0  0  0  0  0  0  0
    3.1474   19.2238    3.3088 H   0  0  0  0  0  0  0  0  0  0  0  0
    6.9091   17.7172    4.9750 H   0  0  0  0  0  0  0  0  0  0  0  0
    6.1106   17.1988    3.4518 H   0  0  0  0  0  0  0  0  0  0  0  0
    7.2073   18.6214    3.4518 H   0  0  0  0  0  0  0  0  0  0  0  0
    5.7641   18.7499    6.4087 H   0  0  0  0  0  0  0  0  0  0  0  0
    4.7633   20.1848    6.0009 H   0  0  0  0  0  0  0  0  0  0  0  0
    4.0266   18.5465    6.0009 H   0  0  0  0  0  0  0  0  0  0  0  0
    1.9565   16.6397    0.8700 H   0  0  0  0  0  0  0  0  0  0  0  0
   -0.1583   17.7366    0.4770 H   0  0  0  0  0  0  0  0  0  0  0  0
    0.4188   18.4786   -1.0309 H   0  0  0  0  0  0  0  0  0  0  0  0
   -1.3336   16.2277   -0.8515 H   0  0  0  0  0  0  0  0  0  0  0  0
   -0.4844   16.7028   -2.3197 H   0  0  0  0  0  0  0  0  0  0  0  0
    0.6080   15.2340    1.0781 H   0  0  0  0  0  0  0  0  0  0  0  0
   -0.8873   14.5263    0.3781 H   0  0  0  0  0  0  0  0  0  0  0  0
    0.6396   13.5800    0.3781 H   0  0  0  0  0  0  0  0  0  0  0  0
    0.6169   14.7130   -3.1517 H   0  0  0  0  0  0  0  0  0  0  0  0
   -1.6638   14.1667   -2.0851 H   0  0  0  0  0  0  0  0  0  0  0  0
   -0.9744   13.1311   -3.4422 H   0  0  0  0  0  0  0  0  0  0  0  0
   -2.1231   11.8368   -1.4559 H   0  0  0  0  0  0  0  0  0  0  0  0
    1.6991   12.2880   -0.2392 H   0  0  0  0  0  0  0  0  0  0  0  0
    1.8570   10.1915   -2.4924 H   0  0  0  0  0  0  0  0  0  0  0  0
    3.2436   10.8569   -1.5203 H   0  0  0  0  0  0  0  0  0  0  0  0
    2.5686    8.6000   -0.7652 H   0  0  0  0  0  0  0  0  0  0  0  0
    2.3399    9.8671    0.5031 H   0  0  0  0  0  0  0  0  0  0  0  0
    0.4306    8.4124    0.5127 H   0  0  0  0  0  0  0  0  0  0  0  0
   -0.8190    8.1770   -1.4290 H   0  0  0  0  0  0  0  0  0  0  0  0
   -0.5378   10.0593    2.1342 H   0  0  0  0  0  0  0  0  0  0  0  0
    0.9320   10.9304    1.5798 H   0  0  0  0  0  0  0  0  0  0  0  0
   -0.6594   11.7636    1.5798 H   0  0  0  0  0  0  0  0  0  0  0  0
   -2.2450    9.6897    0.9673 H   0  0  0  0  0  0  0  0  0  0  0  0
   -2.4990   10.5519   -0.5879 H   0  0  0  0  0  0  0  0  0  0  0  0
   -1.9226    8.8506   -0.5879 H   0  0  0  0  0  0  0  0  0  0  0  0
    1.9580   11.3902   -3.6233 H   0  0  0  0  0  0  0  0  0  0  0  0
    0.8062   12.6418   -4.2010 H   0  0  0  0  0  0  0  0  0  0  0  0
    2.5710   12.9767   -4.2010 H   0  0  0  0  0  0  0  0  0  0  0  0
    3.6972   12.8813   -1.5146 H   0  0  0  0  0  0  0  0  0  0  0  0
    3.3752   14.1463   -2.8303 H   0  0  0  0  0  0  0  0  0  0  0  0
    2.8583   14.4000    0.1451 H   0  0  0  0  0  0  0  0  0  0  0  0
    4.0443   15.3044   -0.8761 H   0  0  0  0  0  0  0  0  0  0  0  0
    2.8833   17.4520   -2.4059 H   0  0  0  0  0  0  0  0  0  0  0  0
    2.9880   15.8108   -3.1286 H   0  0  0  0  0  0  0  0  0  0  0  0
    1.4239   16.6941   -3.1286 H   0  0  0  0  0  0  0  0  0  0  0  0
  1  2  1  0
  2  3  1  0
  3  4  1  0
  4  5  1  0
  5  6  1  0
  6  7  1  0
  7  8  1  0
  7  9  1  0
  2 10  1  0
 10 11  1  0
 11 12  1  0
 12 13  1  0
 13 14  1  1
 13 15  1  0
 15 16  1  0
 16 17  1  0
 17 18  2  0
 18 19  1  0
 19 20  1  0
 20 21  1  0
 21 22  1  0
 22 23  1  0
 22 24  1  0
 24 25  1  0
 24 26  1  0
 19 27  1  0
 27 28  1  6
 27 29  1  0
 29 30  1  0
 30 31  1  0
 31 32  1  6
  7  5  1  0
 31 10  1  0
 31 13  1  0
 27 15  1  0
 24 18  1  0
  1 33  1  0
  1 34  1  0
  1 35  1  0
  2 36  1  6
  3 37  1  0
  3 38  1  0
  4 39  1  0
  4 40  1  0
  5 41  1  1
  8 42  1  0
  8 43  1  0
  8 44  1  0
  9 45  1  0
  9 46  1  0
  9 47  1  0
 10 48  1  1
 11 49  1  0
 11 50  1  0
 12 51  1  0
 12 52  1  0
 14 53  1  0
 14 54  1  0
 14 55  1  0
 15 56  1  6
 16 57  1  0
 16 58  1  0
 17 59  1  0
 19 60  1  1
 20 61  1  0
 20 62  1  0
 21 63  1  0
 21 64  1  0
 22 65  1  1
 23 66  1  0
 25 67  1  0
 25 68  1  0
 25 69  1  0
 26 70  1  0
 26 71  1  0
 26 72  1  0
 28 73  1  0
 28 74  1  0
 28 75  1  0
 29 76  1  0
 29 77  1  0
 30 78  1  0
 30 79  1  0
 32 80  1  0
 32 81  1  0
 32 82  1  0
M  END
>  <meeko>  (2) 
{"is_sidechain": [false], "intermolecular_energy": 2.731, "internal_energy": -0.839}

$$$$
EPH_relaxed_0001_pdb2pqr_Repair_124_r2_0001_out
     RDKit          3D

 82 86  0  0  0  0  0  0  0  0999 V2000
    0.4310   18.4140   -0.0090 C   0  0  0  0  0  0  0  0  0  0  0  0
    1.5150   17.3560   -0.2340 C   0  0  2  0  0  0  0  0  0  0  0  0
    2.7250   17.9210   -1.0040 C   0  0  0  0  0  0  0  0  0  0  0  0
    3.9590   18.1520   -0.1280 C   0  0  0  0  0  0  0  0  0  0  0  0
    3.5840   18.6140    1.2480 C   0  0  2  0  0  0  0  0  0  0  0  0
    3.8210   20.0060    1.4980 O   0  0  0  0  0  0  0  0  0  0  0  0
    4.5950   19.0800    2.2790 C   0  0  0  0  0  0  0  0  0  0  0  0
    6.0600   19.1070    1.9780 C   0  0  0  0  0  0  0  0  0  0  0  0
    4.2100   19.0440    3.7250 C   0  0  0  0  0  0  0  0  0  0  0  0
    0.9310   16.1650   -0.9830 C   0  0  1  0  0  0  0  0  0  0  0  0
    0.7920   16.4260   -2.5070 C   0  0  0  0  0  0  0  0  0  0  0  0
    1.0710   15.0780   -3.2190 C   0  0  0  0  0  0  0  0  0  0  0  0
    1.0320   14.0230   -2.0880 C   0  0  1  0  0  0  0  0  0  0  0  0
   -0.4850   13.7340   -1.8620 C   0  0  0  0  0  0  0  0  0  0  0  0
    1.8390   12.7080   -2.3410 C   0  0  2  0  0  0  0  0  0  0  0  0
    1.3570   11.8670   -3.5360 C   0  0  0  0  0  0  0  0  0  0  0  0
    0.3240   10.8380   -3.2160 C   0  0  0  0  0  0  0  0  0  0  0  0
    0.0080   10.4040   -1.9820 C   0  0  0  0  0  0  0  0  0  0  0  0
    0.7900   10.8870   -0.7530 C   0  0  1  0  0  0  0  0  0  0  0  0
    1.1470    9.6730    0.1440 C   0  0  0  0  0  0  0  0  0  0  0  0
   -0.0770    8.8430    0.5200 C   0  0  0  0  0  0  0  0  0  0  0  0
   -0.7940    8.3320   -0.7270 C   0  0  2  0  0  0  0  0  0  0  0  0
    0.0550    7.3940   -1.3950 O   0  0  0  0  0  0  0  0  0  0  0  0
   -1.1940    9.4670   -1.7110 C   0  0  0  0  0  0  0  0  0  0  0  0
   -2.3390   10.3100   -1.0960 C   0  0  0  0  0  0  0  0  0  0  0  0
   -1.7800    8.8060   -2.9880 C   0  0  0  0  0  0  0  0  0  0  0  0
    2.0450   11.8160   -1.0510 C   0  0  1  0  0  0  0  0  0  0  0  0
    3.3060   10.9380   -1.3130 C   0  0  0  0  0  0  0  0  0  0  0  0
    2.3620   12.6770    0.2280 C   0  0  0  0  0  0  0  0  0  0  0  0
    1.6220   14.0220    0.3620 C   0  0  0  0  0  0  0  0  0  0  0  0
    1.7240   14.8350   -0.9330 C   0  0  2  0  0  0  0  0  0  0  0  0
    3.2370   15.1600   -1.1750 C   0  0  0  0  0  0  0  0  0  0  0  0
    0.2805   18.5609    1.0707 H   0  0  0  0  0  0  0  0  0  0  0  0
    0.7443   19.3633   -0.4680 H   0  0  0  0  0  0  0  0  0  0  0  0
   -0.5104   18.0778   -0.4680 H   0  0  0  0  0  0  0  0  0  0  0  0
    1.8736   17.0333    0.7546 H   0  0  0  0  0  0  0  0  0  0  0  0
    2.9924   17.2106   -1.8001 H   0  0  0  0  0  0  0  0  0  0  0  0
    2.4241   18.9020   -1.4003 H   0  0  0  0  0  0  0  0  0  0  0  0
    4.5200   17.2093   -0.0469 H   0  0  0  0  0  0  0  0  0  0  0  0
    4.5710   18.9360   -0.5979 H   0  0  0  0  0  0  0  0  0  0  0  0
    2.7657   17.8805    1.2964 H   0  0  0  0  0  0  0  0  0  0  0  0
    6.6278   19.1175    2.9201 H   0  0  0  0  0  0  0  0  0  0  0  0
    6.3313   18.2137    1.3963 H   0  0  0  0  0  0  0  0  0  0  0  0
    6.2982   20.0097    1.3963 H   0  0  0  0  0  0  0  0  0  0  0  0
    5.1132   19.1285    4.3471 H   0  0  0  0  0  0  0  0  0  0  0  0
    3.5333   19.8828    3.9453 H   0  0  0  0  0  0  0  0  0  0  0  0
    3.7005   18.0943    3.9453 H   0  0  0  0  0  0  0  0  0  0  0  0
   -0.0208   16.0569   -0.4423 H   0  0  0  0  0  0  0  0  0  0  0  0
   -0.2250   16.7743   -2.7404 H   0  0  0  0  0  0  0  0  0  0  0  0
    1.4966   17.2020   -2.8406 H   0  0  0  0  0  0  0  0  0  0  0  0
    0.2966   14.8690   -3.9717 H   0  0  0  0  0  0  0  0  0  0  0  0
    2.0321   15.0802   -3.7540 H   0  0  0  0  0  0  0  0  0  0  0  0
   -0.6939   13.6942   -0.7827 H   0  0  0  0  0  0  0  0  0  0  0  0
   -1.0832   14.5343   -2.3220 H   0  0  0  0  0  0  0  0  0  0  0  0
   -0.7471   12.7698   -2.3220 H   0  0  0  0  0  0  0  0  0  0  0  0
    2.8305   13.0900   -2.6256 H   0  0  0  0  0  0  0  0  0  0  0  0
    0.9336   12.5522   -4.2851 H   0  0  0  0  0  0  0  0  0  0  0  0
    2.2377   11.3133   -3.8935 H   0  0  0  0  0  0  0  0  0  0  0  0
   -0.2256   10.3970   -4.0607 H   0  0  0  0  0  0  0  0  0  0  0  0
    0.1152   11.5656   -0.2107 H   0  0  0  0  0  0  0  0  0  0  0  0
    1.8558    9.0301   -0.3985 H   0  0  0  0  0  0  0  0  0  0  0  0
    1.5846   10.0630    1.0748 H   0  0  0  0  0  0  0  0  0  0  0  0
    0.2434    7.9843    1.1283 H   0  0  0  0  0  0  0  0  0  0  0  0
   -0.7715    9.4793    1.0882 H   0  0  0  0  0  0  0  0  0  0  0  0
   -1.7299    7.8566   -0.3983 H   0  0  0  0  0  0  0  0  0  0  0  0
    0.7580    7.1390   -0.7740 H   0  0  0  0  0  0  0  0  0  0  0  0
   -2.2785   10.2654    0.0014 H   0  0  0  0  0  0  0  0  0  0  0  0
   -2.2433   11.3548   -1.4264 H   0  0  0  0  0  0  0  0  0  0  0  0
   -3.3083    9.9083   -1.4264 H   0  0  0  0  0  0  0  0  0  0  0  0
   -2.4842    8.0117   -2.6995 H   0  0  0  0  0  0  0  0  0  0  0  0
   -2.3075    9.5648   -3.5846 H   0  0  0  0  0  0  0  0  0  0  0  0
   -0.9634    8.3732   -3.5846 H   0  0  0  0  0  0  0  0  0  0  0  0
    3.7457   10.6319   -0.3523 H   0  0  0  0  0  0  0  0  0  0  0  0
    3.0179   10.0442   -1.8858 H   0  0  0  0  0  0  0  0  0  0  0  0
    4.0443   11.5183   -1.8858 H   0  0  0  0  0  0  0  0  0  0  0  0
    2.1093   12.0691    1.1092 H   0  0  0  0  0  0  0  0  0  0  0  0
    3.4260   12.9418    0.1398 H   0  0  0  0  0  0  0  0  0  0  0  0
    0.5619   13.8291    0.5833 H   0  0  0  0  0  0  0  0  0  0  0  0
    2.0863   14.5984    1.1757 H   0  0  0  0  0  0  0  0  0  0  0  0
    3.7478   15.2697   -0.2070 H   0  0  0  0  0  0  0  0  0  0  0  0
    3.7015   14.3411   -1.7440 H   0  0  0  0  0  0  0  0  0  0  0  0
    3.3242   16.0974   -1.7440 H   0  0  0  0  0  0  0  0  0  0  0  0
  1  2  1  0
  2  3  1  0
  3  4  1  0
  4  5  1  0
  5  6  1  0
  6  7  1  0
  7  8  1  0
  7  9  1  0
  2 10  1  0
 10 11  1  0
 11 12  1  0
 12 13  1  0
 13 14  1  1
 13 15  1  0
 15 16  1  0
 16 17  1  0
 17 18  2  0
 18 19  1  0
 19 20  1  0
 20 21  1  0
 21 22  1  0
 22 23  1  0
 22 24  1  0
 24 25  1  0
 24 26  1  0
 19 27  1  0
 27 28  1  6
 27 29  1  0
 29 30  1  0
 30 31  1  0
 31 32  1  6
  7  5  1  0
 31 10  1  0
 31 13  1  0
 27 15  1  0
 24 18  1  0
  1 33  1  0
  1 34  1  0
  1 35  1  0
  2 36  1  1
  3 37  1  0
  3 38  1  0
  4 39  1  0
  4 40  1  0
  5 41  1  1
  8 42  1  0
  8 43  1  0
  8 44  1  0
  9 45  1  0
  9 46  1  0
  9 47  1  0
 10 48  1  1
 11 49  1  0
 11 50  1  0
 12 51  1  0
 12 52  1  0
 14 53  1  0
 14 54  1  0
 14 55  1  0
 15 56  1  6
 16 57  1  0
 16 58  1  0
 17 59  1  0
 19 60  1  1
 20 61  1  0
 20 62  1  0
 21 63  1  0
 21 64  1  0
 22 65  1  1
 23 66  1  0
 25 67  1  0
 25 68  1  0
 25 69  1  0
 26 70  1  0
 26 71  1  0
 26 72  1  0
 28 73  1  0
 28 74  1  0
 28 75  1  0
 29 76  1  0
 29 77  1  0
 30 78  1  0
 30 79  1  0
 32 80  1  0
 32 81  1  0
 32 82  1  0
M  END
>  <meeko>  (3) 
{"is_sidechain": [false], "intermolecular_energy": 2.731, "internal_energy": -0.839}

$$$$
EPH_relaxed_0001_pdb2pqr_Repair_124_r2_0001_out
     RDKit          3D

 82 86  0  0  0  0  0  0  0  0999 V2000
   -3.4100    9.3110    0.5240 C   0  0  0  0  0  0  0  0  0  0  0  0
   -2.5840    9.6790   -0.7120 C   0  0  2  0  0  0  0  0  0  0  0  0
   -1.9170    8.4460   -1.3530 C   0  0  0  0  0  0  0  0  0  0  0  0
   -2.8340    7.6750   -2.3050 C   0  0  0  0  0  0  0  0  0  0  0  0
   -4.2710    7.7680   -1.8880 C   0  0  2  0  0  0  0  0  0  0  0  0
   -4.8080    6.5670   -1.3200 O   0  0  0  0  0  0  0  0  0  0  0  0
   -5.3890    6.9960   -2.5620 C   0  0  0  0  0  0  0  0  0  0  0  0
   -5.1200    6.0750   -3.7100 C   0  0  0  0  0  0  0  0  0  0  0  0
   -6.7910    7.5040   -2.4280 C   0  0  0  0  0  0  0  0  0  0  0  0
   -1.5260   10.7110   -0.3400 C   0  0  1  0  0  0  0  0  0  0  0  0
   -0.4290   10.1320    0.5920 C   0  0  0  0  0  0  0  0  0  0  0  0
    0.9020   10.8250    0.2010 C   0  0  0  0  0  0  0  0  0  0  0  0
    0.4760   12.0060   -0.7020 C   0  0  1  0  0  0  0  0  0  0  0  0
    0.0360   13.1290    0.2870 C   0  0  0  0  0  0  0  0  0  0  0  0
    1.5470   12.5190   -1.7190 C   0  0  2  0  0  0  0  0  0  0  0  0
    2.8290   13.0880   -1.0850 C   0  0  0  0  0  0  0  0  0  0  0  0
    2.8030   14.5540   -0.8030 C   0  0  0  0  0  0  0  0  0  0  0  0
    1.9130   15.4310   -1.3020 C   0  0  0  0  0  0  0  0  0  0  0  0
    0.8590   14.9880   -2.3260 C   0  0  1  0  0  0  0  0  0  0  0  0
    0.8100   16.0090   -3.4930 C   0  0  0  0  0  0  0  0  0  0  0  0
    0.5900   17.4390   -3.0110 C   0  0  0  0  0  0  0  0  0  0  0  0
    1.6900   17.8630   -2.0410 C   0  0  2  0  0  0  0  0  0  0  0  0
    2.9290   17.9360   -2.7520 O   0  0  0  0  0  0  0  0  0  0  0  0
    1.8390   16.9040   -0.8270 C   0  0  0  0  0  0  0  0  0  0  0  0
    0.6140   17.0520    0.1080 C   0  0  0  0  0  0  0  0  0  0  0  0
    3.0720   17.3640   -0.0030 C   0  0  0  0  0  0  0  0  0  0  0  0
    0.9740   13.4860   -2.8320 C   0  0  1  0  0  0  0  0  0  0  0  0
    1.9550   13.4060   -4.0410 C   0  0  0  0  0  0  0  0  0  0  0  0
   -0.4310   13.0160   -3.3670 C   0  0  0  0  0  0  0  0  0  0  0  0
   -1.4000   12.4080   -2.3360 C   0  0  0  0  0  0  0  0  0  0  0  0
   -0.7020   11.3330   -1.4960 C   0  0  2  0  0  0  0  0  0  0  0  0
   -0.2680   10.1790   -2.4620 C   0  0  0  0  0  0  0  0  0  0  0  0
   -2.8432    9.5635    1.4323 H   0  0  0  0  0  0  0  0  0  0  0  0
   -4.3556    9.8730    0.5137 H   0  0  0  0  0  0  0  0  0  0  0  0
   -3.6245    8.2322    0.5137 H   0  0  0  0  0  0  0  0  0  0  0  0
   -3.2727   10.1046   -1.4567 H   0  0  0  0  0  0  0  0  0  0  0  0
   -1.0348    8.7826   -1.9173 H   0  0  0  0  0  0  0  0  0  0  0  0
   -1.6551    7.7603   -0.5337 H   0  0  0  0  0  0  0  0  0  0  0  0
   -2.7289    8.0925   -3.3173 H   0  0  0  0  0  0  0  0  0  0  0  0
   -2.5385    6.6157   -2.2826 H   0  0  0  0  0  0  0  0  0  0  0  0
   -4.1550    8.8337   -1.6413 H   0  0  0  0  0  0  0  0  0  0  0  0
   -4.8310    5.0854   -3.3263 H   0  0  0  0  0  0  0  0  0  0  0  0
   -6.0277    5.9794   -4.3239 H   0  0  0  0  0  0  0  0  0  0  0  0
   -4.3035    6.4830   -4.3239 H   0  0  0  0  0  0  0  0  0  0  0  0
   -7.0471    7.5968   -1.3623 H   0  0  0  0  0  0  0  0  0  0  0  0
   -6.8720    8.4886   -2.9116 H   0  0  0  0  0  0  0  0  0  0  0  0
   -7.4840    6.7998   -2.9116 H   0  0  0  0  0  0  0  0  0  0  0  0
   -2.1684   11.4767    0.1193 H   0  0  0  0  0  0  0  0  0  0  0  0
   -0.6731   10.3463    1.6430 H   0  0  0  0  0  0  0  0  0  0  0  0
   -0.3530    9.0402    0.4816 H   0  0  0  0  0  0  0  0  0  0  0  0
    1.4273   11.1901    1.0959 H   0  0  0  0  0  0  0  0  0  0  0  0
    1.5955   10.1395   -0.3081 H   0  0  0  0  0  0  0  0  0  0  0  0
    0.1725   12.7807    1.3214 H   0  0  0  0  0  0  0  0  0  0  0  0
    0.6489   14.0268    0.1185 H   0  0  0  0  0  0  0  0  0  0  0  0
   -1.0236   13.3715    0.1185 H   0  0  0  0  0  0  0  0  0  0  0  0
    1.8512   11.5926   -2.2281 H   0  0  0  0  0  0  0  0  0  0  0  0
    3.0009   12.5618   -0.1345 H   0  0  0  0  0  0  0  0  0  0  0  0
    3.6290   12.9338   -1.8240 H   0  0  0  0  0  0  0  0  0  0  0  0
    3.5774   14.9508   -0.1300 H   0  0  0  0  0  0  0  0  0  0  0  0
   -0.1030   14.9859   -1.7925 H   0  0  0  0  0  0  0  0  0  0  0  0
    1.7629   15.9643   -4.0407 H   0  0  0  0  0  0  0  0  0  0  0  0
   -0.0403   15.7394   -4.1366 H   0  0  0  0  0  0  0  0  0  0  0  0
    0.5941   18.1158   -3.8781 H   0  0  0  0  0  0  0  0  0  0  0  0
   -0.3769   17.4887   -2.4889 H   0  0  0  0  0  0  0  0  0  0  0  0
    1.4089   18.8448   -1.6322 H   0  0  0  0  0  0  0  0  0  0  0  0
    2.7680   17.6210   -3.6570 H   0  0  0  0  0  0  0  0  0  0  0  0
    0.9457   17.0119    1.1560 H   0  0  0  0  0  0  0  0  0  0  0  0
    0.1207   18.0163   -0.0838 H   0  0  0  0  0  0  0  0  0  0  0  0
   -0.0948   16.2330   -0.0838 H   0  0  0  0  0  0  0  0  0  0  0  0
    2.8475   17.2802    1.0706 H   0  0  0  0  0  0  0  0  0  0  0  0
    3.9349   16.7273   -0.2479 H   0  0  0  0  0  0  0  0  0  0  0  0
    3.3071   18.4103   -0.2479 H   0  0  0  0  0  0  0  0  0  0  0  0
    2.9873   13.3218   -3.6706 H   0  0  0  0  0  0  0  0  0  0  0  0
    1.7119   12.5247   -4.6527 H   0  0  0  0  0  0  0  0  0  0  0  0
    1.8579   14.3150   -4.6527 H   0  0  0  0  0  0  0  0  0  0  0  0
   -0.9264   13.8908   -3.8135 H   0  0  0  0  0  0  0  0  0  0  0  0
   -0.2119   12.2000   -4.0714 H   0  0  0  0  0  0  0  0  0  0  0  0
   -1.7641   13.2047   -1.6706 H   0  0  0  0  0  0  0  0  0  0  0  0
   -2.2391   11.9431   -2.8743 H   0  0  0  0  0  0  0  0  0  0  0  0
    0.0588    9.3102   -1.8718 H   0  0  0  0  0  0  0  0  0  0  0  0
   -1.1196    9.8920   -3.0963 H   0  0  0  0  0  0  0  0  0  0  0  0
    0.5617   10.5243   -3.0963 H   0  0  0  0  0  0  0  0  0  0  0  0
  1  2  1  0
  2  3  1  0
  3  4  1  0
  4  5  1  0
  5  6  1  0
  6  7  1  0
  7  8  1  0
  7  9  1  0
  2 10  1  0
 10 11  1  0
 11 12  1  0
 12 13  1  0
 13 14  1  1
 13 15  1  0
 15 16  1  0
 16 17  1  0
 17 18  2  0
 18 19  1  0
 19 20  1  0
 20 21  1  0
 21 22  1  0
 22 23  1  0
 22 24  1  0
 24 25  1  0
 24 26  1  0
 19 27  1  0
 27 28  1  6
 27 29  1  0
 29 30  1  0
 30 31  1  0
 31 32  1  6
  7  5  1  0
 31 10  1  0
 31 13  1  0
 27 15  1  0
 24 18  1  0
  1 33  1  0
  1 34  1  0
  1 35  1  0
  2 36  1  6
  3 37  1  0
  3 38  1  0
  4 39  1  0
  4 40  1  0
  5 41  1  1
  8 42  1  0
  8 43  1  0
  8 44  1  0
  9 45  1  0
  9 46  1  0
  9 47  1  0
 10 48  1  1
 11 49  1  0
 11 50  1  0
 12 51  1  0
 12 52  1  0
 14 53  1  0
 14 54  1  0
 14 55  1  0
 15 56  1  6
 16 57  1  0
 16 58  1  0
 17 59  1  0
 19 60  1  1
 20 61  1  0
 20 62  1  0
 21 63  1  0
 21 64  1  0
 22 65  1  1
 23 66  1  0
 25 67  1  0
 25 68  1  0
 25 69  1  0
 26 70  1  0
 26 71  1  0
 26 72  1  0
 28 73  1  0
 28 74  1  0
 28 75  1  0
 29 76  1  0
 29 77  1  0
 30 78  1  0
 30 79  1  0
 32 80  1  0
 32 81  1  0
 32 82  1  0
M  END
>  <meeko>  (4) 
{"is_sidechain": [false], "intermolecular_energy": 2.731, "internal_energy": -0.839}

$$$$
EPH_relaxed_0001_pdb2pqr_Repair_124_r2_0001_out
     RDKit          3D

 82 86  0  0  0  0  0  0  0  0999 V2000
   -5.1480    5.8150   -1.7920 C   0  0  0  0  0  0  0  0  0  0  0  0
   -5.4550    7.3150   -1.8210 C   0  0  2  0  0  0  0  0  0  0  0  0
   -5.2350    7.9790   -0.4470 C   0  0  0  0  0  0  0  0  0  0  0  0
   -4.2060    9.1130   -0.4690 C   0  0  0  0  0  0  0  0  0  0  0  0
   -2.8340    8.6100   -0.7980 C   0  0  2  0  0  0  0  0  0  0  0  0
   -1.8210    8.9690    0.1510 O   0  0  0  0  0  0  0  0  0  0  0  0
   -1.6760    9.5180   -1.1680 C   0  0  0  0  0  0  0  0  0  0  0  0
   -1.8390   11.0050   -1.2300 C   0  0  0  0  0  0  0  0  0  0  0  0
   -0.5310    8.9400   -1.9400 C   0  0  0  0  0  0  0  0  0  0  0  0
   -6.8880    7.5430   -2.2860 C   0  0  1  0  0  0  0  0  0  0  0  0
   -7.1970    6.8430   -3.6360 C   0  0  0  0  0  0  0  0  0  0  0  0
   -8.6730    6.3740   -3.5700 C   0  0  0  0  0  0  0  0  0  0  0  0
   -9.2590    7.1020   -2.3380 C   0  0  1  0  0  0  0  0  0  0  0  0
   -9.6050    8.5370   -2.8460 C   0  0  0  0  0  0  0  0  0  0  0  0
  -10.4870    6.4210   -1.6510 C   0  0  2  0  0  0  0  0  0  0  0  0
  -11.7410    6.2950   -2.5340 C   0  0  0  0  0  0  0  0  0  0  0  0
  -12.6920    7.4430   -2.4580 C   0  0  0  0  0  0  0  0  0  0  0  0
  -12.6930    8.3960   -1.5080 C   0  0  0  0  0  0  0  0  0  0  0  0
  -11.7300    8.3210   -0.3160 C   0  0  1  0  0  0  0  0  0  0  0  0
  -12.5060    8.6080    0.9960 C   0  0  0  0  0  0  0  0  0  0  0  0
  -13.2720    9.9270    0.9470 C   0  0  0  0  0  0  0  0  0  0  0  0
  -14.2610    9.9400   -0.2160 C   0  0  2  0  0  0  0  0  0  0  0  0
  -15.2810    8.9690    0.0370 O   0  0  0  0  0  0  0  0  0  0  0  0
  -13.5950    9.6530   -1.5900 C   0  0  0  0  0  0  0  0  0  0  0  0
  -12.7130   10.8570   -2.0030 C   0  0  0  0  0  0  0  0  0  0  0  0
  -14.7200    9.5540   -2.6550 C   0  0  0  0  0  0  0  0  0  0  0  0
  -10.8410    7.0070   -0.2250 C   0  0  1  0  0  0  0  0  0  0  0  0
  -11.6190    5.8900    0.5360 C   0  0  0  0  0  0  0  0  0  0  0  0
   -9.5550    7.3150    0.6310 C   0  0  0  0  0  0  0  0  0  0  0  0
   -8.3350    7.8750   -0.1240 C   0  0  0  0  0  0  0  0  0  0  0  0
   -8.0250    7.0330   -1.3660 C   0  0  2  0  0  0  0  0  0  0  0  0
   -7.6510    5.5900   -0.8840 C   0  0  0  0  0  0  0  0  0  0  0  0
   -5.0784    5.4751   -0.7482 H   0  0  0  0  0  0  0  0  0  0  0  0
   -5.9524    5.2661   -2.3035 H   0  0  0  0  0  0  0  0  0  0  0  0
   -4.1926    5.6263   -2.3035 H   0  0  0  0  0  0  0  0  0  0  0  0
   -4.7554    7.7826   -2.5295 H   0  0  0  0  0  0  0  0  0  0  0  0
   -6.1957    8.3884   -0.1014 H   0  0  0  0  0  0  0  0  0  0  0  0
   -4.8432    7.2024    0.2263 H   0  0  0  0  0  0  0  0  0  0  0  0
   -4.5060    9.8519   -1.2267 H   0  0  0  0  0  0  0  0  0  0  0  0
   -4.1739    9.5663    0.5327 H   0  0  0  0  0  0  0  0  0  0  0  0
   -3.2527    7.7143   -1.2802 H   0  0  0  0  0  0  0  0  0  0  0  0
   -1.8836   11.4119   -0.2090 H   0  0  0  0  0  0  0  0  0  0  0  0
   -0.9838   11.4457   -1.7633 H   0  0  0  0  0  0  0  0  0  0  0  0
   -2.7694   11.2500   -1.7633 H   0  0  0  0  0  0  0  0  0  0  0  0
    0.2269    8.5574   -1.2405 H   0  0  0  0  0  0  0  0  0  0  0  0
   -0.8940    8.1172   -2.5734 H   0  0  0  0  0  0  0  0  0  0  0  0
   -0.0845    9.7207   -2.5734 H   0  0  0  0  0  0  0  0  0  0  0  0
   -6.8966    8.6424   -2.3205 H   0  0  0  0  0  0  0  0  0  0  0  0
   -7.0609    7.5490   -4.4685 H   0  0  0  0  0  0  0  0  0  0  0  0
   -6.5198    5.9925   -3.8036 H   0  0  0  0  0  0  0  0  0  0  0  0
   -9.2130    6.6615   -4.4842 H   0  0  0  0  0  0  0  0  0  0  0  0
   -8.7600    5.2805   -3.4887 H   0  0  0  0  0  0  0  0  0  0  0  0
   -9.7654    9.2021   -1.9847 H   0  0  0  0  0  0  0  0  0  0  0  0
   -8.7736    8.9205   -3.4556 H   0  0  0  0  0  0  0  0  0  0  0  0
  -10.5198    8.4995   -3.4556 H   0  0  0  0  0  0  0  0  0  0  0  0
  -10.1278    5.3935   -1.4924 H   0  0  0  0  0  0  0  0  0  0  0  0
  -11.4123    6.1945   -3.5789 H   0  0  0  0  0  0  0  0  0  0  0  0
  -12.2906    5.4191   -2.1590 H   0  0  0  0  0  0  0  0  0  0  0  0
  -13.4568    7.5161   -3.2453 H   0  0  0  0  0  0  0  0  0  0  0  0
  -10.9775    9.1058   -0.4830 H   0  0  0  0  0  0  0  0  0  0  0  0
  -13.2219    7.7908    1.1680 H   0  0  0  0  0  0  0  0  0  0  0  0
  -11.7698    8.6798    1.8101 H   0  0  0  0  0  0  0  0  0  0  0  0
  -13.8231   10.0586    1.8898 H   0  0  0  0  0  0  0  0  0  0  0  0
  -12.5520   10.7464    0.8051 H   0  0  0  0  0  0  0  0  0  0  0  0
  -14.6837   10.9536   -0.2790 H   0  0  0  0  0  0  0  0  0  0  0  0
  -15.4170    8.9270    0.9980 H   0  0  0  0  0  0  0  0  0  0  0  0
  -12.3407   11.3652   -1.1013 H   0  0  0  0  0  0  0  0  0  0  0  0
  -11.8614   10.4998   -2.6006 H   0  0  0  0  0  0  0  0  0  0  0  0
  -13.3104   11.5613   -2.6006 H   0  0  0  0  0  0  0  0  0  0  0  0
  -15.6945    9.4682   -2.1520 H   0  0  0  0  0  0  0  0  0  0  0  0
  -14.7101   10.4565   -3.2838 H   0  0  0  0  0  0  0  0  0  0  0  0
  -14.5526    8.6671   -3.2838 H   0  0  0  0  0  0  0  0  0  0  0  0
  -11.5127    6.0426    1.6202 H   0  0  0  0  0  0  0  0  0  0  0  0
  -12.6835    5.9331    0.2623 H   0  0  0  0  0  0  0  0  0  0  0  0
  -11.2095    4.9064    0.2623 H   0  0  0  0  0  0  0  0  0  0  0  0
   -9.8356    8.0492    1.4006 H   0  0  0  0  0  0  0  0  0  0  0  0
   -9.2288    6.3395    1.0210 H   0  0  0  0  0  0  0  0  0  0  0  0
   -8.5471    8.9089   -0.4339 H   0  0  0  0  0  0  0  0  0  0  0  0
   -7.4635    7.8452    0.5465 H   0  0  0  0  0  0  0  0  0  0  0  0
   -7.6435    5.5611    0.2156 H   0  0  0  0  0  0  0  0  0  0  0  0
   -8.3929    4.8725   -1.2646 H   0  0  0  0  0  0  0  0  0  0  0  0
   -6.6540    5.3232   -1.2646 H   0  0  0  0  0  0  0  0  0  0  0  0
  1  2  1  0
  2  3  1  0
  3  4  1  0
  4  5  1  0
  5  6  1  0
  6  7  1  0
  7  8  1  0
  7  9  1  0
  2 10  1  0
 10 11  1  0
 11 12  1  0
 12 13  1  0
 13 14  1  6
 13 15  1  0
 15 16  1  0
 16 17  1  0
 17 18  2  0
 18 19  1  0
 19 20  1  0
 20 21  1  0
 21 22  1  0
 22 23  1  0
 22 24  1  0
 24 25  1  0
 24 26  1  0
 19 27  1  0
 27 28  1  1
 27 29  1  0
 29 30  1  0
 30 31  1  0
 31 32  1  1
  7  5  1  0
 31 10  1  0
 31 13  1  0
 27 15  1  0
 24 18  1  0
  1 33  1  0
  1 34  1  0
  1 35  1  0
  2 36  1  6
  3 37  1  0
  3 38  1  0
  4 39  1  0
  4 40  1  0
  5 41  1  6
  8 42  1  0
  8 43  1  0
  8 44  1  0
  9 45  1  0
  9 46  1  0
  9 47  1  0
 10 48  1  6
 11 49  1  0
 11 50  1  0
 12 51  1  0
 12 52  1  0
 14 53  1  0
 14 54  1  0
 14 55  1  0
 15 56  1  1
 16 57  1  0
 16 58  1  0
 17 59  1  0
 19 60  1  6
 20 61  1  0
 20 62  1  0
 21 63  1  0
 21 64  1  0
 22 65  1  6
 23 66  1  0
 25 67  1  0
 25 68  1  0
 25 69  1  0
 26 70  1  0
 26 71  1  0
 26 72  1  0
 28 73  1  0
 28 74  1  0
 28 75  1  0
 29 76  1  0
 29 77  1  0
 30 78  1  0
 30 79  1  0
 32 80  1  0
 32 81  1  0
 32 82  1  0
M  END
>  <meeko>  (5) 
{"is_sidechain": [false], "intermolecular_energy": 2.731, "internal_energy": -0.839}

$$$$
EPH_relaxed_0001_pdb2pqr_Repair_124_r2_0001_out
     RDKit          3D

 82 86  0  0  0  0  0  0  0  0999 V2000
    0.0420   14.0750   -8.5070 C   0  0  0  0  0  0  0  0  0  0  0  0
    1.0990   14.4500   -7.4660 C   0  0  2  0  0  0  0  0  0  0  0  0
    2.4560   14.7940   -8.1140 C   0  0  0  0  0  0  0  0  0  0  0  0
    2.6840   14.1090   -9.4640 C   0  0  0  0  0  0  0  0  0  0  0  0
    2.9790   15.1020  -10.5470 C   0  0  2  0  0  0  0  0  0  0  0  0
    1.9930   16.1320  -10.6980 O   0  0  0  0  0  0  0  0  0  0  0  0
    2.1480   15.2340  -11.8090 C   0  0  0  0  0  0  0  0  0  0  0  0
    0.9580   14.3600  -12.0550 C   0  0  0  0  0  0  0  0  0  0  0  0
    2.7710   15.8670  -13.0140 C   0  0  0  0  0  0  0  0  0  0  0  0
    1.2730   13.3120   -6.4670 C   0  0  1  0  0  0  0  0  0  0  0  0
    2.7160   12.7420   -6.4550 C   0  0  0  0  0  0  0  0  0  0  0  0
    3.0250   12.3360   -4.9910 C   0  0  0  0  0  0  0  0  0  0  0  0
    1.6520   12.3720   -4.2790 C   0  0  1  0  0  0  0  0  0  0  0  0
    0.9740   11.0150   -4.6460 C   0  0  0  0  0  0  0  0  0  0  0  0
    1.6810   12.6030   -2.7330 C   0  0  2  0  0  0  0  0  0  0  0  0
    2.3970   11.5080   -1.9230 C   0  0  0  0  0  0  0  0  0  0  0  0
    1.5270   10.3890   -1.4560 C   0  0  0  0  0  0  0  0  0  0  0  0
    0.1810   10.4030   -1.4300 C   0  0  0  0  0  0  0  0  0  0  0  0
   -0.6010   11.6670   -1.8080 C   0  0  1  0  0  0  0  0  0  0  0  0
   -1.7080   11.9260   -0.7530 C   0  0  0  0  0  0  0  0  0  0  0  0
   -2.6160   10.7170   -0.5500 C   0  0  0  0  0  0  0  0  0  0  0  0
   -1.8100    9.4950   -0.1180 C   0  0  2  0  0  0  0  0  0  0  0  0
   -1.2730    9.7340    1.1870 O   0  0  0  0  0  0  0  0  0  0  0  0
   -0.6580    9.1430   -1.1000 C   0  0  0  0  0  0  0  0  0  0  0  0
   -1.2500    8.5940   -2.4220 C   0  0  0  0  0  0  0  0  0  0  0  0
    0.1630    7.9820   -0.4770 C   0  0  0  0  0  0  0  0  0  0  0  0
    0.2740   12.9610   -2.1040 C   0  0  1  0  0  0  0  0  0  0  0  0
    0.5610   13.7250   -0.7760 C   0  0  0  0  0  0  0  0  0  0  0  0
   -0.5550   13.9440   -3.0120 C   0  0  0  0  0  0  0  0  0  0  0  0
   -0.4480   13.7400   -4.5360 C   0  0  0  0  0  0  0  0  0  0  0  0
    1.0160   13.6310   -4.9730 C   0  0  2  0  0  0  0  0  0  0  0  0
    1.7180   14.9900   -4.6370 C   0  0  0  0  0  0  0  0  0  0  0  0
   -0.8762   13.7492   -7.9963 H   0  0  0  0  0  0  0  0  0  0  0  0
   -0.1791   14.9495   -9.1365 H   0  0  0  0  0  0  0  0  0  0  0  0
    0.4215   13.2566   -9.1365 H   0  0  0  0  0  0  0  0  0  0  0  0
    0.7438   15.3510   -6.9444 H   0  0  0  0  0  0  0  0  0  0  0  0
    2.5030   15.8826   -8.2645 H   0  0  0  0  0  0  0  0  0  0  0  0
    3.2393   14.4306   -7.4325 H   0  0  0  0  0  0  0  0  0  0  0  0
    3.5344   13.4172   -9.3735 H   0  0  0  0  0  0  0  0  0  0  0  0
    1.7641   13.5700   -9.7345 H   0  0  0  0  0  0  0  0  0  0  0  0
    4.0616   14.9941  -10.3847 H   0  0  0  0  0  0  0  0  0  0  0  0
    0.5291   14.0450  -11.0923 H   0  0  0  0  0  0  0  0  0  0  0  0
    0.2035   14.9202  -12.6268 H   0  0  0  0  0  0  0  0  0  0  0  0
    1.2668   13.4725  -12.6268 H   0  0  0  0  0  0  0  0  0  0  0  0
    3.5092   16.6170  -12.6938 H   0  0  0  0  0  0  0  0  0  0  0  0
    3.2709   15.0945  -13.6168 H   0  0  0  0  0  0  0  0  0  0  0  0
    1.9907   16.3546  -13.6168 H   0  0  0  0  0  0  0  0  0  0  0  0
    0.5043   12.6200   -6.8416 H   0  0  0  0  0  0  0  0  0  0  0  0
    2.7816   11.8634   -7.1135 H   0  0  0  0  0  0  0  0  0  0  0  0
    3.4381   13.4879   -6.8186 H   0  0  0  0  0  0  0  0  0  0  0  0
    3.4569   11.3251   -4.9511 H   0  0  0  0  0  0  0  0  0  0  0  0
    3.7583   13.0056   -4.5179 H   0  0  0  0  0  0  0  0  0  0  0  0
    0.7057   10.4780   -3.7242 H   0  0  0  0  0  0  0  0  0  0  0  0
    0.0658   11.2067   -5.2362 H   0  0  0  0  0  0  0  0  0  0  0  0
    1.6727   10.4038   -5.2362 H   0  0  0  0  0  0  0  0  0  0  0  0
    2.3089   13.5014   -2.6409 H   0  0  0  0  0  0  0  0  0  0  0  0
    3.1898   11.0812   -2.5550 H   0  0  0  0  0  0  0  0  0  0  0  0
    2.7748   11.9995   -1.0143 H   0  0  0  0  0  0  0  0  0  0  0  0
    2.0279    9.4754   -1.1032 H   0  0  0  0  0  0  0  0  0  0  0  0
   -1.0589   11.4599   -2.7865 H   0  0  0  0  0  0  0  0  0  0  0  0
   -1.2301   12.1732    0.2064 H   0  0  0  0  0  0  0  0  0  0  0  0
   -2.3317   12.7546   -1.1196 H   0  0  0  0  0  0  0  0  0  0  0  0
   -3.3588   10.9512    0.2268 H   0  0  0  0  0  0  0  0  0  0  0  0
   -3.1149   10.4890   -1.5035 H   0  0  0  0  0  0  0  0  0  0  0  0
   -2.4939    8.6335   -0.1144 H   0  0  0  0  0  0  0  0  0  0  0  0
   -0.9850    8.8790    1.5480 H   0  0  0  0  0  0  0  0  0  0  0  0
   -2.0391    7.8622   -2.1944 H   0  0  0  0  0  0  0  0  0  0  0  0
   -1.6764    9.4235   -3.0052 H   0  0  0  0  0  0  0  0  0  0  0  0
   -0.4549    8.1064   -3.0052 H   0  0  0  0  0  0  0  0  0  0  0  0
    0.1166    8.0476    0.6201 H   0  0  0  0  0  0  0  0  0  0  0  0
   -0.2563    7.0193   -0.8048 H   0  0  0  0  0  0  0  0  0  0  0  0
    1.2104    8.0564   -0.8048 H   0  0  0  0  0  0  0  0  0  0  0  0
    0.3178   13.0776    0.0794 H   0  0  0  0  0  0  0  0  0  0  0  0
    1.6246   14.0024   -0.7351 H   0  0  0  0  0  0  0  0  0  0  0  0
   -0.0569   14.6341   -0.7351 H   0  0  0  0  0  0  0  0  0  0  0  0
   -1.6145   13.8384   -2.7358 H   0  0  0  0  0  0  0  0  0  0  0  0
   -0.1264   14.9395   -2.8242 H   0  0  0  0  0  0  0  0  0  0  0  0
   -0.9761   12.8158   -4.8133 H   0  0  0  0  0  0  0  0  0  0  0  0
   -0.9005   14.6075   -5.0387 H   0  0  0  0  0  0  0  0  0  0  0  0
    1.7802   15.1105   -3.5454 H   0  0  0  0  0  0  0  0  0  0  0  0
    2.7314   14.9948   -5.0648 H   0  0  0  0  0  0  0  0  0  0  0  0
    1.1354   15.8192   -5.0648 H   0  0  0  0  0  0  0  0  0  0  0  0
  1  2  1  0
  2  3  1  0
  3  4  1  0
  4  5  1  0
  5  6  1  0
  6  7  1  0
  7  8  1  0
  7  9  1  0
  2 10  1  0
 10 11  1  0
 11 12  1  0
 12 13  1  0
 13 14  1  1
 13 15  1  0
 15 16  1  0
 16 17  1  0
 17 18  2  0
 18 19  1  0
 19 20  1  0
 20 21  1  0
 21 22  1  0
 22 23  1  0
 22 24  1  0
 24 25  1  0
 24 26  1  0
 19 27  1  0
 27 28  1  1
 27 29  1  0
 29 30  1  0
 30 31  1  0
 31 32  1  1
  7  5  1  0
 31 10  1  0
 31 13  1  0
 27 15  1  0
 24 18  1  0
  1 33  1  0
  1 34  1  0
  1 35  1  0
  2 36  1  1
  3 37  1  0
  3 38  1  0
  4 39  1  0
  4 40  1  0
  5 41  1  6
  8 42  1  0
  8 43  1  0
  8 44  1  0
  9 45  1  0
  9 46  1  0
  9 47  1  0
 10 48  1  6
 11 49  1  0
 11 50  1  0
 12 51  1  0
 12 52  1  0
 14 53  1  0
 14 54  1  0
 14 55  1  0
 15 56  1  6
 16 57  1  0
 16 58  1  0
 17 59  1  0
 19 60  1  6
 20 61  1  0
 20 62  1  0
 21 63  1  0
 21 64  1  0
 22 65  1  1
 23 66  1  0
 25 67  1  0
 25 68  1  0
 25 69  1  0
 26 70  1  0
 26 71  1  0
 26 72  1  0
 28 73  1  0
 28 74  1  0
 28 75  1  0
 29 76  1  0
 29 77  1  0
 30 78  1  0
 30 79  1  0
 32 80  1  0
 32 81  1  0
 32 82  1  0
M  END
>  <meeko>  (6) 
{"is_sidechain": [false], "intermolecular_energy": 2.731, "internal_energy": -0.839}

$$$$
EPH_relaxed_0001_pdb2pqr_Repair_124_r2_0001_out
     RDKit          3D

 82 86  0  0  0  0  0  0  0  0999 V2000
    0.4450    8.8100   -2.3580 C   0  0  0  0  0  0  0  0  0  0  0  0
    1.1850    9.9540   -3.0570 C   0  0  2  0  0  0  0  0  0  0  0  0
    2.6860    9.9760   -2.7030 C   0  0  0  0  0  0  0  0  0  0  0  0
    3.5650   10.6020   -3.7890 C   0  0  0  0  0  0  0  0  0  0  0  0
    4.9660   10.8270   -3.3070 C   0  0  2  0  0  0  0  0  0  0  0  0
    5.5730   12.0390   -3.7730 O   0  0  0  0  0  0  0  0  0  0  0  0
    6.1780   10.8160   -4.2210 C   0  0  0  0  0  0  0  0  0  0  0  0
    6.0430   10.5730   -5.6910 C   0  0  0  0  0  0  0  0  0  0  0  0
    7.5240   10.5540   -3.6210 C   0  0  0  0  0  0  0  0  0  0  0  0
    0.5450   11.2880   -2.6920 C   0  0  1  0  0  0  0  0  0  0  0  0
   -0.8280   11.1190   -1.9890 C   0  0  0  0  0  0  0  0  0  0  0  0
   -0.9420   12.2620   -0.9480 C   0  0  0  0  0  0  0  0  0  0  0  0
    0.2030   13.2350   -1.3110 C   0  0  1  0  0  0  0  0  0  0  0  0
   -0.3540   14.0870   -2.4940 C   0  0  0  0  0  0  0  0  0  0  0  0
    0.7370   14.1380   -0.1510 C   0  0  2  0  0  0  0  0  0  0  0  0
   -0.2930   15.1140    0.4430 C   0  0  0  0  0  0  0  0  0  0  0  0
   -0.3430   16.4590   -0.2030 C   0  0  0  0  0  0  0  0  0  0  0  0
    0.5930   16.9670   -1.0250 C   0  0  0  0  0  0  0  0  0  0  0  0
    1.8950   16.2050   -1.3030 C   0  0  1  0  0  0  0  0  0  0  0  0
    3.0990   17.1750   -1.1820 C   0  0  0  0  0  0  0  0  0  0  0  0
    2.9470   18.4100   -2.0650 C   0  0  0  0  0  0  0  0  0  0  0  0
    1.6710   19.1730   -1.7200 C   0  0  2  0  0  0  0  0  0  0  0  0
    1.8010   19.7170   -0.4030 O   0  0  0  0  0  0  0  0  0  0  0  0
    0.3910   18.2940   -1.7980 C   0  0  0  0  0  0  0  0  0  0  0  0
    0.0830   17.9530   -3.2770 C   0  0  0  0  0  0  0  0  0  0  0  0
   -0.8040   19.1450   -1.2900 C   0  0  0  0  0  0  0  0  0  0  0  0
    2.1050   14.8660   -0.4730 C   0  0  1  0  0  0  0  0  0  0  0  0
    2.7710   15.1890    0.9000 C   0  0  0  0  0  0  0  0  0  0  0  0
    3.1110   13.9340   -1.2460 C   0  0  0  0  0  0  0  0  0  0  0  0
    2.5090   12.9800   -2.2950 C   0  0  0  0  0  0  0  0  0  0  0  0
    1.3210   12.2060   -1.7140 C   0  0  2  0  0  0  0  0  0  0  0  0
    1.8550   11.3220   -0.5360 C   0  0  0  0  0  0  0  0  0  0  0  0
    0.5249    8.9336   -1.2679 H   0  0  0  0  0  0  0  0  0  0  0  0
   -0.6149    8.8251   -2.6520 H   0  0  0  0  0  0  0  0  0  0  0  0
    0.8934    7.8495   -2.6520 H   0  0  0  0  0  0  0  0  0  0  0  0
    1.1030    9.7870   -4.1412 H   0  0  0  0  0  0  0  0  0  0  0  0
    2.8157   10.5532   -1.7756 H   0  0  0  0  0  0  0  0  0  0  0  0
    3.0061    8.9293   -2.5939 H   0  0  0  0  0  0  0  0  0  0  0  0
    3.5910    9.9288   -4.6585 H   0  0  0  0  0  0  0  0  0  0  0  0
    3.1343   11.5777   -4.0585 H   0  0  0  0  0  0  0  0  0  0  0  0
    4.7490   10.3065   -2.3625 H   0  0  0  0  0  0  0  0  0  0  0  0
    5.5150    9.6227   -5.8586 H   0  0  0  0  0  0  0  0  0  0  0  0
    5.4722   11.3950   -6.1476 H   0  0  0  0  0  0  0  0  0  0  0  0
    7.0425   10.5227   -6.1476 H   0  0  0  0  0  0  0  0  0  0  0  0
    7.4457   10.5692   -2.5239 H   0  0  0  0  0  0  0  0  0  0  0  0
    7.8862    9.5685   -3.9491 H   0  0  0  0  0  0  0  0  0  0  0  0
    8.2294   11.3317   -3.9491 H   0  0  0  0  0  0  0  0  0  0  0  0
    0.5026   11.7506   -3.6891 H   0  0  0  0  0  0  0  0  0  0  0  0
   -1.6421   11.1945   -2.7249 H   0  0  0  0  0  0  0  0  0  0  0  0
   -0.9046   10.1346   -1.5042 H   0  0  0  0  0  0  0  0  0  0  0  0
   -1.9178   12.7636   -1.0272 H   0  0  0  0  0  0  0  0  0  0  0  0
   -0.8651   11.8941    0.0858 H   0  0  0  0  0  0  0  0  0  0  0  0
   -0.9150   14.9452   -2.0955 H   0  0  0  0  0  0  0  0  0  0  0  0
    0.4820   14.4496   -3.1102 H   0  0  0  0  0  0  0  0  0  0  0  0
   -1.0215   13.4667   -3.1102 H   0  0  0  0  0  0  0  0  0  0  0  0
    0.9451   13.4045    0.6419 H   0  0  0  0  0  0  0  0  0  0  0  0
   -1.2885   14.6553    0.3507 H   0  0  0  0  0  0  0  0  0  0  0  0
    0.0171   15.2876    1.4840 H   0  0  0  0  0  0  0  0  0  0  0  0
   -1.2196   17.0880    0.0113 H   0  0  0  0  0  0  0  0  0  0  0  0
    1.8161   15.8353   -2.3360 H   0  0  0  0  0  0  0  0  0  0  0  0
    3.1866   17.4992   -0.1345 H   0  0  0  0  0  0  0  0  0  0  0  0
    3.9974   16.6349   -1.5154 H   0  0  0  0  0  0  0  0  0  0  0  0
    3.8136   19.0702   -1.9129 H   0  0  0  0  0  0  0  0  0  0  0  0
    2.8898   18.0864   -3.1148 H   0  0  0  0  0  0  0  0  0  0  0  0
    1.5505   19.9695   -2.4690 H   0  0  0  0  0  0  0  0  0  0  0  0
    1.0930   20.3730   -0.2840 H   0  0  0  0  0  0  0  0  0  0  0  0
   -0.6538   17.1373   -3.3195 H   0  0  0  0  0  0  0  0  0  0  0  0
   -0.3245   18.8418   -3.7810 H   0  0  0  0  0  0  0  0  0  0  0  0
    1.0085   17.6377   -3.7810 H   0  0  0  0  0  0  0  0  0  0  0  0
   -0.8098   19.1491   -0.1900 H   0  0  0  0  0  0  0  0  0  0  0  0
   -0.7034   20.1760   -1.6600 H   0  0  0  0  0  0  0  0  0  0  0  0
   -1.7454   18.7128   -1.6600 H   0  0  0  0  0  0  0  0  0  0  0  0
    2.1062   14.8666    1.7149 H   0  0  0  0  0  0  0  0  0  0  0  0
    3.7302   14.6560    0.9767 H   0  0  0  0  0  0  0  0  0  0  0  0
    2.9463   16.2722    0.9767 H   0  0  0  0  0  0  0  0  0  0  0  0
    3.8350   14.5817   -1.7620 H   0  0  0  0  0  0  0  0  0  0  0  0
    3.5449   13.2785   -0.4766 H   0  0  0  0  0  0  0  0  0  0  0  0
    2.1678   13.5663   -3.1609 H   0  0  0  0  0  0  0  0  0  0  0  0
    3.2825   12.2594   -2.5989 H   0  0  0  0  0  0  0  0  0  0  0  0
    1.5768   11.7826    0.4234 H   0  0  0  0  0  0  0  0  0  0  0  0
    1.4128   10.3170   -0.6021 H   0  0  0  0  0  0  0  0  0  0  0  0
    2.9504   11.2457   -0.6021 H   0  0  0  0  0  0  0  0  0  0  0  0
  1  2  1  0
  2  3  1  0
  3  4  1  0
  4  5  1  0
  5  6  1  0
  6  7  1  0
  7  8  1  0
  7  9  1  0
  2 10  1  0
 10 11  1  0
 11 12  1  0
 12 13  1  0
 13 14  1  6
 13 15  1  0
 15 16  1  0
 16 17  1  0
 17 18  2  0
 18 19  1  0
 19 20  1  0
 20 21  1  0
 21 22  1  0
 22 23  1  0
 22 24  1  0
 24 25  1  0
 24 26  1  0
 19 27  1  0
 27 28  1  1
 27 29  1  0
 29 30  1  0
 30 31  1  0
 31 32  1  1
  7  5  1  0
 31 10  1  0
 31 13  1  0
 27 15  1  0
 24 18  1  0
  1 33  1  0
  1 34  1  0
  1 35  1  0
  2 36  1  6
  3 37  1  0
  3 38  1  0
  4 39  1  0
  4 40  1  0
  5 41  1  1
  8 42  1  0
  8 43  1  0
  8 44  1  0
  9 45  1  0
  9 46  1  0
  9 47  1  0
 10 48  1  6
 11 49  1  0
 11 50  1  0
 12 51  1  0
 12 52  1  0
 14 53  1  0
 14 54  1  0
 14 55  1  0
 15 56  1  1
 16 57  1  0
 16 58  1  0
 17 59  1  0
 19 60  1  6
 20 61  1  0
 20 62  1  0
 21 63  1  0
 21 64  1  0
 22 65  1  6
 23 66  1  0
 25 67  1  0
 25 68  1  0
 25 69  1  0
 26 70  1  0
 26 71  1  0
 26 72  1  0
 28 73  1  0
 28 74  1  0
 28 75  1  0
 29 76  1  0
 29 77  1  0
 30 78  1  0
 30 79  1  0
 32 80  1  0
 32 81  1  0
 32 82  1  0
M  END
>  <meeko>  (7) 
{"is_sidechain": [false], "intermolecular_energy": 2.731, "internal_energy": -0.839}

$$$$
EPH_relaxed_0001_pdb2pqr_Repair_124_r2_0001_out
     RDKit          3D

 82 86  0  0  0  0  0  0  0  0999 V2000
   -4.9770    8.7400   -0.1540 C   0  0  0  0  0  0  0  0  0  0  0  0
   -5.2450    7.6170   -1.1590 C   0  0  2  0  0  0  0  0  0  0  0  0
   -4.1870    7.5750   -2.2800 C   0  0  0  0  0  0  0  0  0  0  0  0
   -2.7460    7.6770   -1.7700 C   0  0  0  0  0  0  0  0  0  0  0  0
   -2.0870    8.9450   -2.2210 C   0  0  2  0  0  0  0  0  0  0  0  0
   -0.6880    9.0320   -1.9220 O   0  0  0  0  0  0  0  0  0  0  0  0
   -1.5370    9.9880   -1.2660 C   0  0  0  0  0  0  0  0  0  0  0  0
   -1.6220    9.8090    0.2180 C   0  0  0  0  0  0  0  0  0  0  0  0
   -1.3610   11.3900   -1.7600 C   0  0  0  0  0  0  0  0  0  0  0  0
   -6.6350    7.7800   -1.7620 C   0  0  1  0  0  0  0  0  0  0  0  0
   -6.7660    7.1050   -3.1530 C   0  0  0  0  0  0  0  0  0  0  0  0
   -8.2120    6.5530   -3.2490 C   0  0  0  0  0  0  0  0  0  0  0  0
   -8.9590    7.2100   -2.0640 C   0  0  1  0  0  0  0  0  0  0  0  0
   -9.3360    8.6380   -2.5700 C   0  0  0  0  0  0  0  0  0  0  0  0
  -10.2080    6.4420   -1.5230 C   0  0  2  0  0  0  0  0  0  0  0  0
  -11.3590    6.2740   -2.5320 C   0  0  0  0  0  0  0  0  0  0  0  0
  -12.3770    7.3650   -2.5240 C   0  0  0  0  0  0  0  0  0  0  0  0
  -12.5290    8.2870   -1.5560 C   0  0  0  0  0  0  0  0  0  0  0  0
  -11.6860    8.2300   -0.2750 C   0  0  1  0  0  0  0  0  0  0  0  0
  -12.6050    8.4330    0.9590 C   0  0  0  0  0  0  0  0  0  0  0  0
  -13.4370    9.7090    0.8640 C   0  0  0  0  0  0  0  0  0  0  0  0
  -14.3040    9.7020   -0.3920 C   0  0  2  0  0  0  0  0  0  0  0  0
  -15.2870    8.6690   -0.2690 O   0  0  0  0  0  0  0  0  0  0  0  0
  -13.4890    9.4940   -1.6990 C   0  0  0  0  0  0  0  0  0  0  0  0
  -12.6410   10.7570   -1.9900 C   0  0  0  0  0  0  0  0  0  0  0  0
  -14.4940    9.3660   -2.8740 C   0  0  0  0  0  0  0  0  0  0  0  0
  -10.7360    6.9640   -0.1260 C   0  0  1  0  0  0  0  0  0  0  0  0
  -11.5210    5.7840    0.5240 C   0  0  0  0  0  0  0  0  0  0  0  0
   -9.5630    7.3160    0.8630 C   0  0  0  0  0  0  0  0  0  0  0  0
   -8.3080    7.9650    0.2500 C   0  0  0  0  0  0  0  0  0  0  0  0
   -7.8270    7.1790   -0.9740 C   0  0  2  0  0  0  0  0  0  0  0  0
   -7.4200    5.7450   -0.4920 C   0  0  0  0  0  0  0  0  0  0  0  0
   -5.0709    8.3467    0.8690 H   0  0  0  0  0  0  0  0  0  0  0  0
   -3.9602    9.1317   -0.3044 H   0  0  0  0  0  0  0  0  0  0  0  0
   -5.7074    9.5487   -0.3044 H   0  0  0  0  0  0  0  0  0  0  0  0
   -5.1853    6.6640   -0.6129 H   0  0  0  0  0  0  0  0  0  0  0  0
   -4.2962    6.6260   -2.8253 H   0  0  0  0  0  0  0  0  0  0  0  0
   -4.3637    8.4504   -2.9222 H   0  0  0  0  0  0  0  0  0  0  0  0
   -2.7544    7.6512   -0.6703 H   0  0  0  0  0  0  0  0  0  0  0  0
   -2.1764    6.8299   -2.1798 H   0  0  0  0  0  0  0  0  0  0  0  0
   -2.7669    9.0192   -3.0825 H   0  0  0  0  0  0  0  0  0  0  0  0
   -1.2019   10.6938    0.7187 H   0  0  0  0  0  0  0  0  0  0  0  0
   -2.6746    9.6861    0.5128 H   0  0  0  0  0  0  0  0  0  0  0  0
   -1.0520    8.9156    0.5128 H   0  0  0  0  0  0  0  0  0  0  0  0
   -1.2753   12.0730   -0.9020 H   0  0  0  0  0  0  0  0  0  0  0  0
   -0.4481   11.4518   -2.3705 H   0  0  0  0  0  0  0  0  0  0  0  0
   -2.2304   11.6755   -2.3705 H   0  0  0  0  0  0  0  0  0  0  0  0
   -6.7044    8.8778   -1.7709 H   0  0  0  0  0  0  0  0  0  0  0  0
   -6.5885    7.8422   -3.9499 H   0  0  0  0  0  0  0  0  0  0  0  0
   -6.0272    6.2987   -3.2715 H   0  0  0  0  0  0  0  0  0  0  0  0
   -8.6740    6.8383   -4.2056 H   0  0  0  0  0  0  0  0  0  0  0  0
   -8.2433    5.4543   -3.2048 H   0  0  0  0  0  0  0  0  0  0  0  0
   -9.5103    9.2984   -1.7077 H   0  0  0  0  0  0  0  0  0  0  0  0
   -8.5133    9.0401   -3.1794 H   0  0  0  0  0  0  0  0  0  0  0  0
  -10.2500    8.5816   -3.1794 H   0  0  0  0  0  0  0  0  0  0  0  0
   -9.8078    5.4313   -1.3550 H   0  0  0  0  0  0  0  0  0  0  0  0
  -10.9225    6.2236   -3.5404 H   0  0  0  0  0  0  0  0  0  0  0  0
  -11.8918    5.3581   -2.2367 H   0  0  0  0  0  0  0  0  0  0  0  0
  -13.0618    7.4202   -3.3831 H   0  0  0  0  0  0  0  0  0  0  0  0
  -10.9676    9.0599   -0.3464 H   0  0  0  0  0  0  0  0  0  0  0  0
  -13.2860    7.5727    1.0371 H   0  0  0  0  0  0  0  0  0  0  0  0
  -11.9599    8.5197    1.8458 H   0  0  0  0  0  0  0  0  0  0  0  0
  -14.0860    9.7824    1.7491 H   0  0  0  0  0  0  0  0  0  0  0  0
  -12.7547   10.5704    0.8151 H   0  0  0  0  0  0  0  0  0  0  0  0
  -14.7761   10.6924   -0.4711 H   0  0  0  0  0  0  0  0  0  0  0  0
  -14.8650    7.9140    0.1750 H   0  0  0  0  0  0  0  0  0  0  0  0
  -12.3316   11.2178   -1.0403 H   0  0  0  0  0  0  0  0  0  0  0  0
  -11.7489   10.4745   -2.5682 H   0  0  0  0  0  0  0  0  0  0  0  0
  -13.2402   11.4758   -2.5682 H   0  0  0  0  0  0  0  0  0  0  0  0
  -15.5107    9.2365   -2.4745 H   0  0  0  0  0  0  0  0  0  0  0  0
  -14.4554   10.2763   -3.4903 H   0  0  0  0  0  0  0  0  0  0  0  0
  -14.2285    8.4944   -3.4903 H   0  0  0  0  0  0  0  0  0  0  0  0
  -11.4661    5.8665    1.6195 H   0  0  0  0  0  0  0  0  0  0  0  0
  -12.5731    5.8240    0.2055 H   0  0  0  0  0  0  0  0  0  0  0  0
  -11.0775    4.8291    0.2055 H   0  0  0  0  0  0  0  0  0  0  0  0
   -9.9613    8.0099    1.6179 H   0  0  0  0  0  0  0  0  0  0  0  0
   -9.2216    6.3486    1.2600 H   0  0  0  0  0  0  0  0  0  0  0  0
   -8.5475    8.9945   -0.0547 H   0  0  0  0  0  0  0  0  0  0  0  0
   -7.5078    7.9634    1.0048 H   0  0  0  0  0  0  0  0  0  0  0  0
   -7.4119    5.7163    0.6076 H   0  0  0  0  0  0  0  0  0  0  0  0
   -8.1452    5.0107   -0.8726 H   0  0  0  0  0  0  0  0  0  0  0  0
   -6.4172    5.5011   -0.8726 H   0  0  0  0  0  0  0  0  0  0  0  0
  1  2  1  0
  2  3  1  0
  3  4  1  0
  4  5  1  0
  5  6  1  0
  6  7  1  0
  7  8  1  0
  7  9  1  0
  2 10  1  0
 10 11  1  0
 11 12  1  0
 12 13  1  0
 13 14  1  6
 13 15  1  0
 15 16  1  0
 16 17  1  0
 17 18  2  0
 18 19  1  0
 19 20  1  0
 20 21  1  0
 21 22  1  0
 22 23  1  0
 22 24  1  0
 24 25  1  0
 24 26  1  0
 19 27  1  0
 27 28  1  1
 27 29  1  0
 29 30  1  0
 30 31  1  0
 31 32  1  1
  7  5  1  0
 31 10  1  0
 31 13  1  0
 27 15  1  0
 24 18  1  0
  1 33  1  0
  1 34  1  0
  1 35  1  0
  2 36  1  1
  3 37  1  0
  3 38  1  0
  4 39  1  0
  4 40  1  0
  5 41  1  6
  8 42  1  0
  8 43  1  0
  8 44  1  0
  9 45  1  0
  9 46  1  0
  9 47  1  0
 10 48  1  6
 11 49  1  0
 11 50  1  0
 12 51  1  0
 12 52  1  0
 14 53  1  0
 14 54  1  0
 14 55  1  0
 15 56  1  1
 16 57  1  0
 16 58  1  0
 17 59  1  0
 19 60  1  6
 20 61  1  0
 20 62  1  0
 21 63  1  0
 21 64  1  0
 22 65  1  6
 23 66  1  0
 25 67  1  0
 25 68  1  0
 25 69  1  0
 26 70  1  0
 26 71  1  0
 26 72  1  0
 28 73  1  0
 28 74  1  0
 28 75  1  0
 29 76  1  0
 29 77  1  0
 30 78  1  0
 30 79  1  0
 32 80  1  0
 32 81  1  0
 32 82  1  0
M  END
>  <meeko>  (8) 
{"is_sidechain": [false], "intermolecular_energy": 2.731, "internal_energy": -0.839}

$$$$
EPH_relaxed_0001_pdb2pqr_Repair_124_r2_0001_out
     RDKit          3D

 82 86  0  0  0  0  0  0  0  0999 V2000
    3.7060   10.8580   -3.8730 C   0  0  0  0  0  0  0  0  0  0  0  0
    2.4740   11.1380   -4.7380 C   0  0  2  0  0  0  0  0  0  0  0  0
    2.8530   11.5970   -6.1600 C   0  0  0  0  0  0  0  0  0  0  0  0
    1.7400   12.3670   -6.8760 C   0  0  0  0  0  0  0  0  0  0  0  0
    2.1320   13.7880   -7.1430 C   0  0  2  0  0  0  0  0  0  0  0  0
    1.1200   14.7560   -6.8360 O   0  0  0  0  0  0  0  0  0  0  0  0
    1.4920   14.6450   -8.2190 C   0  0  0  0  0  0  0  0  0  0  0  0
    0.4070   14.1090   -9.1000 C   0  0  0  0  0  0  0  0  0  0  0  0
    2.2490   15.8280   -8.7370 C   0  0  0  0  0  0  0  0  0  0  0  0
    1.5970   12.1900   -4.0670 C   0  0  1  0  0  0  0  0  0  0  0  0
    0.1520   11.6870   -3.8080 C   0  0  0  0  0  0  0  0  0  0  0  0
   -0.3140   12.3310   -2.4780 C   0  0  0  0  0  0  0  0  0  0  0  0
    0.7340   13.4310   -2.1880 C   0  0  1  0  0  0  0  0  0  0  0  0
    0.3000   14.6410   -3.0730 C   0  0  0  0  0  0  0  0  0  0  0  0
    0.9080   13.8430   -0.6900 C   0  0  2  0  0  0  0  0  0  0  0  0
   -0.3410   14.4560   -0.0330 C   0  0  0  0  0  0  0  0  0  0  0  0
   -0.4530   15.9410   -0.1370 C   0  0  0  0  0  0  0  0  0  0  0  0
    0.5440   16.7780   -0.4800 C   0  0  0  0  0  0  0  0  0  0  0  0
    1.9670   16.2550   -0.7110 C   0  0  1  0  0  0  0  0  0  0  0  0
    2.9810   17.1680    0.0270 C   0  0  0  0  0  0  0  0  0  0  0  0
    2.8300   18.6380   -0.3550 C   0  0  0  0  0  0  0  0  0  0  0  0
    1.4190   19.1370   -0.0560 C   0  0  2  0  0  0  0  0  0  0  0  0
    1.2200   19.1370    1.3610 O   0  0  0  0  0  0  0  0  0  0  0  0
    0.3110   18.2870   -0.7390 C   0  0  0  0  0  0  0  0  0  0  0  0
    0.3390   18.5280   -2.2690 C   0  0  0  0  0  0  0  0  0  0  0  0
   -1.0650   18.8090   -0.2440 C   0  0  0  0  0  0  0  0  0  0  0  0
    2.1980   14.7130   -0.4030 C   0  0  1  0  0  0  0  0  0  0  0  0
    2.5390   14.5180    1.1060 C   0  0  0  0  0  0  0  0  0  0  0  0
    3.4520   14.2090   -1.2110 C   0  0  0  0  0  0  0  0  0  0  0  0
    3.1970   13.7030   -2.6430 C   0  0  0  0  0  0  0  0  0  0  0  0
    2.0390   12.7010   -2.6730 C   0  0  2  0  0  0  0  0  0  0  0  0
    2.4570   11.4610   -1.8100 C   0  0  0  0  0  0  0  0  0  0  0  0
    3.4297   10.9208   -2.8101 H   0  0  0  0  0  0  0  0  0  0  0  0
    4.0876    9.8502   -4.0937 H   0  0  0  0  0  0  0  0  0  0  0  0
    4.4857   11.6018   -4.0937 H   0  0  0  0  0  0  0  0  0  0  0  0
    1.9166   10.1946   -4.8347 H   0  0  0  0  0  0  0  0  0  0  0  0
    3.7366   12.2485   -6.0906 H   0  0  0  0  0  0  0  0  0  0  0  0
    3.0460   10.6888   -6.7499 H   0  0  0  0  0  0  0  0  0  0  0  0
    1.5228   11.8713   -7.8336 H   0  0  0  0  0  0  0  0  0  0  0  0
    0.8535   12.3726   -6.2248 H   0  0  0  0  0  0  0  0  0  0  0  0
    3.1827   13.5676   -6.9034 H   0  0  0  0  0  0  0  0  0  0  0  0
   -0.4060   13.7074   -8.4774 H   0  0  0  0  0  0  0  0  0  0  0  0
    0.0171   14.9181   -9.7350 H   0  0  0  0  0  0  0  0  0  0  0  0
    0.8126   13.3076   -9.7350 H   0  0  0  0  0  0  0  0  0  0  0  0
    2.6278   16.4200   -7.8909 H   0  0  0  0  0  0  0  0  0  0  0  0
    3.0942   15.4825   -9.3504 H   0  0  0  0  0  0  0  0  0  0  0  0
    1.5812   16.4507   -9.3504 H   0  0  0  0  0  0  0  0  0  0  0  0
    1.6807   12.9986   -4.8080 H   0  0  0  0  0  0  0  0  0  0  0  0
   -0.5097   11.9958   -4.6307 H   0  0  0  0  0  0  0  0  0  0  0  0
    0.1210   10.5891   -3.7473 H   0  0  0  0  0  0  0  0  0  0  0  0
   -1.3166   12.7697   -2.5894 H   0  0  0  0  0  0  0  0  0  0  0  0
   -0.3847   11.5970   -1.6617 H   0  0  0  0  0  0  0  0  0  0  0  0
   -0.0005   15.4788   -2.4267 H   0  0  0  0  0  0  0  0  0  0  0  0
    1.1427   14.9517   -3.7080 H   0  0  0  0  0  0  0  0  0  0  0  0
   -0.5481   14.3453   -3.7080 H   0  0  0  0  0  0  0  0  0  0  0  0
    1.0606   12.8729   -0.1944 H   0  0  0  0  0  0  0  0  0  0  0  0
   -1.2278   14.0141   -0.5108 H   0  0  0  0  0  0  0  0  0  0  0  0
   -0.2609   14.2316    1.0409 H   0  0  0  0  0  0  0  0  0  0  0  0
   -1.4327   16.3890    0.0854 H   0  0  0  0  0  0  0  0  0  0  0  0
    2.1376   16.3088   -1.7964 H   0  0  0  0  0  0  0  0  0  0  0  0
    2.8226   17.0672    1.1108 H   0  0  0  0  0  0  0  0  0  0  0  0
    3.9923   16.8490   -0.2655 H   0  0  0  0  0  0  0  0  0  0  0  0
    3.5526   19.2355    0.2202 H   0  0  0  0  0  0  0  0  0  0  0  0
    3.0178   18.7415   -1.4339 H   0  0  0  0  0  0  0  0  0  0  0  0
    1.3345   20.1531   -0.4689 H   0  0  0  0  0  0  0  0  0  0  0  0
    1.6520   18.3420    1.7190 H   0  0  0  0  0  0  0  0  0  0  0  0
    0.4638   19.6025   -2.4687 H   0  0  0  0  0  0  0  0  0  0  0  0
    1.1787   17.9727   -2.7124 H   0  0  0  0  0  0  0  0  0  0  0  0
   -0.6056   18.1800   -2.7124 H   0  0  0  0  0  0  0  0  0  0  0  0
   -1.0808   18.8150    0.8559 H   0  0  0  0  0  0  0  0  0  0  0  0
   -1.2259   19.8307   -0.6186 H   0  0  0  0  0  0  0  0  0  0  0  0
   -1.8631   18.1512   -0.6186 H   0  0  0  0  0  0  0  0  0  0  0  0
    1.7479   14.9704    1.7221 H   0  0  0  0  0  0  0  0  0  0  0  0
    2.6090   13.4434    1.3302 H   0  0  0  0  0  0  0  0  0  0  0  0
    3.5007   15.0027    1.3302 H   0  0  0  0  0  0  0  0  0  0  0  0
    4.1645   15.0446   -1.2751 H   0  0  0  0  0  0  0  0  0  0  0  0
    3.8187   13.3325   -0.6567 H   0  0  0  0  0  0  0  0  0  0  0  0
    2.9490   14.5588   -3.2881 H   0  0  0  0  0  0  0  0  0  0  0  0
    4.1059   13.1991   -3.0037 H   0  0  0  0  0  0  0  0  0  0  0  0
    2.3724   11.7120   -0.7424 H   0  0  0  0  0  0  0  0  0  0  0  0
    1.7949   10.6135   -2.0410 H   0  0  0  0  0  0  0  0  0  0  0  0
    3.4971   11.1873   -2.0410 H   0  0  0  0  0  0  0  0  0  0  0  0
  1  2  1  0
  2  3  1  0
  3  4  1  0
  4  5  1  0
  5  6  1  0
  6  7  1  0
  7  8  1  0
  7  9  1  0
  2 10  1  0
 10 11  1  0
 11 12  1  0
 12 13  1  0
 13 14  1  6
 13 15  1  0
 15 16  1  0
 16 17  1  0
 17 18  2  0
 18 19  1  0
 19 20  1  0
 20 21  1  0
 21 22  1  0
 22 23  1  0
 22 24  1  0
 24 25  1  0
 24 26  1  0
 19 27  1  0
 27 28  1  1
 27 29  1  0
 29 30  1  0
 30 31  1  0
 31 32  1  1
  7  5  1  0
 31 10  1  0
 31 13  1  0
 27 15  1  0
 24 18  1  0
  1 33  1  0
  1 34  1  0
  1 35  1  0
  2 36  1  6
  3 37  1  0
  3 38  1  0
  4 39  1  0
  4 40  1  0
  5 41  1  1
  8 42  1  0
  8 43  1  0
  8 44  1  0
  9 45  1  0
  9 46  1  0
  9 47  1  0
 10 48  1  6
 11 49  1  0
 11 50  1  0
 12 51  1  0
 12 52  1  0
 14 53  1  0
 14 54  1  0
 14 55  1  0
 15 56  1  1
 16 57  1  0
 16 58  1  0
 17 59  1  0
 19 60  1  6
 20 61  1  0
 20 62  1  0
 21 63  1  0
 21 64  1  0
 22 65  1  6
 23 66  1  0
 25 67  1  0
 25 68  1  0
 25 69  1  0
 26 70  1  0
 26 71  1  0
 26 72  1  0
 28 73  1  0
 28 74  1  0
 28 75  1  0
 29 76  1  0
 29 77  1  0
 30 78  1  0
 30 79  1  0
 32 80  1  0
 32 81  1  0
 32 82  1  0
M  END
>  <meeko>  (9) 
{"is_sidechain": [false], "intermolecular_energy": 2.731, "internal_energy": -0.839}

$$$$
EPH_relaxed_0001_pdb2pqr_Repair_124_r2_0001_out
     RDKit          3D

 82 86  0  0  0  0  0  0  0  0999 V2000
    2.3330   16.3430   -8.0180 C   0  0  0  0  0  0  0  0  0  0  0  0
    2.1110   14.8920   -7.5810 C   0  0  2  0  0  0  0  0  0  0  0  0
    1.1220   14.1530   -8.5050 C   0  0  0  0  0  0  0  0  0  0  0  0
    0.2890   15.0860   -9.3880 C   0  0  0  0  0  0  0  0  0  0  0  0
    0.2770   14.6330  -10.8170 C   0  0  2  0  0  0  0  0  0  0  0  0
    1.0970   13.4890  -11.0890 O   0  0  0  0  0  0  0  0  0  0  0  0
    1.4860   14.7140  -11.7300 C   0  0  0  0  0  0  0  0  0  0  0  0
    2.7920   15.2640  -11.2490 C   0  0  0  0  0  0  0  0  0  0  0  0
    1.2650   14.7160  -13.2110 C   0  0  0  0  0  0  0  0  0  0  0  0
    1.6090   14.8530   -6.1430 C   0  0  1  0  0  0  0  0  0  0  0  0
    0.3080   15.6760   -5.9420 C   0  0  0  0  0  0  0  0  0  0  0  0
   -0.5380   14.9230   -4.8830 C   0  0  0  0  0  0  0  0  0  0  0  0
    0.4350   13.8880   -4.2710 C   0  0  1  0  0  0  0  0  0  0  0  0
    1.2660   14.6900   -3.2210 C   0  0  0  0  0  0  0  0  0  0  0  0
   -0.2180   12.6160   -3.6390 C   0  0  2  0  0  0  0  0  0  0  0  0
   -1.1450   12.8840   -2.4410 C   0  0  0  0  0  0  0  0  0  0  0  0
   -0.4810   12.8630   -1.1040 C   0  0  0  0  0  0  0  0  0  0  0  0
    0.7410   12.3600   -0.8460 C   0  0  0  0  0  0  0  0  0  0  0  0
    1.5480   11.6500   -1.9400 C   0  0  1  0  0  0  0  0  0  0  0  0
    2.1310   10.3270   -1.3780 C   0  0  0  0  0  0  0  0  0  0  0  0
    2.9390   10.5390   -0.1020 C   0  0  0  0  0  0  0  0  0  0  0  0
    2.0860   11.1940    0.9820 C   0  0  2  0  0  0  0  0  0  0  0  0
    1.0640   10.2750    1.3810 O   0  0  0  0  0  0  0  0  0  0  0  0
    1.4380   12.5310    0.5270 C   0  0  0  0  0  0  0  0  0  0  0  0
    2.5320   13.6180    0.3840 C   0  0  0  0  0  0  0  0  0  0  0  0
    0.4930   13.0130    1.6600 C   0  0  0  0  0  0  0  0  0  0  0  0
    0.8040   11.4480   -3.3300 C   0  0  1  0  0  0  0  0  0  0  0  0
   -0.0240   10.1270   -3.3020 C   0  0  0  0  0  0  0  0  0  0  0  0
    1.8780   11.2760   -4.4680 C   0  0  0  0  0  0  0  0  0  0  0  0
    2.3960   12.5640   -5.1350 C   0  0  0  0  0  0  0  0  0  0  0  0
    1.2350   13.4690   -5.5570 C   0  0  2  0  0  0  0  0  0  0  0  0
    0.3930   12.6970   -6.6300 C   0  0  0  0  0  0  0  0  0  0  0  0
    2.4309   16.9829   -7.1286 H   0  0  0  0  0  0  0  0  0  0  0  0
    3.2516   16.4083   -8.6196 H   0  0  0  0  0  0  0  0  0  0  0  0
    1.4760   16.6800   -8.6196 H   0  0  0  0  0  0  0  0  0  0  0  0
    3.0786   14.3735   -7.6505 H   0  0  0  0  0  0  0  0  0  0  0  0
    1.6949   13.4775   -9.1573 H   0  0  0  0  0  0  0  0  0  0  0  0
    0.4180   13.6125   -7.8552 H   0  0  0  0  0  0  0  0  0  0  0  0
   -0.7443   15.1048   -9.0113 H   0  0  0  0  0  0  0  0  0  0  0  0
    0.7409   16.0882   -9.3498 H   0  0  0  0  0  0  0  0  0  0  0  0
   -0.7638   14.9674  -10.9392 H   0  0  0  0  0  0  0  0  0  0  0  0
    2.8048   15.2694  -10.1491 H   0  0  0  0  0  0  0  0  0  0  0  0
    3.6142   14.6357  -11.6222 H   0  0  0  0  0  0  0  0  0  0  0  0
    2.9170   16.2912  -11.6222 H   0  0  0  0  0  0  0  0  0  0  0  0
    0.1852   14.7258  -13.4206 H   0  0  0  0  0  0  0  0  0  0  0  0
    1.7319   15.6100  -13.6502 H   0  0  0  0  0  0  0  0  0  0  0  0
    1.7156   13.8137  -13.6502 H   0  0  0  0  0  0  0  0  0  0  0  0
    2.4951   15.2522   -5.6279 H   0  0  0  0  0  0  0  0  0  0  0  0
    0.5509   16.6872   -5.5836 H   0  0  0  0  0  0  0  0  0  0  0  0
   -0.2440   15.7797   -6.8878 H   0  0  0  0  0  0  0  0  0  0  0  0
   -0.9021   15.6174   -4.1115 H   0  0  0  0  0  0  0  0  0  0  0  0
   -1.4295   14.4499   -5.3205 H   0  0  0  0  0  0  0  0  0  0  0  0
    0.9592   14.3939   -2.2070 H   0  0  0  0  0  0  0  0  0  0  0  0
    2.3359   14.4744   -3.3580 H   0  0  0  0  0  0  0  0  0  0  0  0
    1.0885   15.7669   -3.3580 H   0  0  0  0  0  0  0  0  0  0  0  0
   -0.8728   12.2611   -4.4485 H   0  0  0  0  0  0  0  0  0  0  0  0
   -1.6005   13.8757   -2.5788 H   0  0  0  0  0  0  0  0  0  0  0  0
   -1.8753   12.0615   -2.4312 H   0  0  0  0  0  0  0  0  0  0  0  0
   -1.0368   13.2948   -0.2586 H   0  0  0  0  0  0  0  0  0  0  0  0
    2.3668   12.3346   -2.2063 H   0  0  0  0  0  0  0  0  0  0  0  0
    1.2999    9.6404   -1.1590 H   0  0  0  0  0  0  0  0  0  0  0  0
    2.8097    9.9121   -2.1377 H   0  0  0  0  0  0  0  0  0  0  0  0
    3.2986    9.5653    0.2623 H   0  0  0  0  0  0  0  0  0  0  0  0
    3.7869   11.2017   -0.3296 H   0  0  0  0  0  0  0  0  0  0  0  0
    2.7512   11.4388    1.8232 H   0  0  0  0  0  0  0  0  0  0  0  0
    0.5700   10.6840    2.1120 H   0  0  0  0  0  0  0  0  0  0  0  0
    2.8589   13.9428    1.3828 H   0  0  0  0  0  0  0  0  0  0  0  0
    3.3901   13.2045   -0.1662 H   0  0  0  0  0  0  0  0  0  0  0  0
    2.1240   14.4787   -0.1662 H   0  0  0  0  0  0  0  0  0  0  0  0
    0.9442   12.7829    2.6365 H   0  0  0  0  0  0  0  0  0  0  0  0
    0.3406   14.0989    1.5732 H   0  0  0  0  0  0  0  0  0  0  0  0
   -0.4755   12.4988    1.5732 H   0  0  0  0  0  0  0  0  0  0  0  0
   -0.2088    9.8322   -2.2585 H   0  0  0  0  0  0  0  0  0  0  0  0
   -0.9847   10.2855   -3.8139 H   0  0  0  0  0  0  0  0  0  0  0  0
    0.5374    9.3315   -3.8139 H   0  0  0  0  0  0  0  0  0  0  0  0
    2.7437   10.7555   -4.0325 H   0  0  0  0  0  0  0  0  0  0  0  0
    1.3631   10.7246   -5.2685 H   0  0  0  0  0  0  0  0  0  0  0  0
    3.0342   13.1066   -4.4221 H   0  0  0  0  0  0  0  0  0  0  0  0
    2.9689   12.2877   -6.0325 H   0  0  0  0  0  0  0  0  0  0  0  0
   -0.3273   12.0365   -6.1251 H   0  0  0  0  0  0  0  0  0  0  0  0
   -0.1493   13.4183   -7.2590 H   0  0  0  0  0  0  0  0  0  0  0  0
    1.0647   12.0943   -7.2590 H   0  0  0  0  0  0  0  0  0  0  0  0
  1  2  1  0
  2  3  1  0
  3  4  1  0
  4  5  1  0
  5  6  1  0
  6  7  1  0
  7  8  1  0
  7  9  1  0
  2 10  1  0
 10 11  1  0
 11 12  1  0
 12 13  1  0
 13 14  1  1
 13 15  1  0
 15 16  1  0
 16 17  1  0
 17 18  2  0
 18 19  1  0
 19 20  1  0
 20 21  1  0
 21 22  1  0
 22 23  1  0
 22 24  1  0
 24 25  1  0
 24 26  1  0
 19 27  1  0
 27 28  1  1
 27 29  1  0
 29 30  1  0
 30 31  1  0
 31 32  1  6
  7  5  1  0
 31 10  1  0
 31 13  1  0
 27 15  1  0
 24 18  1  0
  1 33  1  0
  1 34  1  0
  1 35  1  0
  2 36  1  1
  3 37  1  0
  3 38  1  0
  4 39  1  0
  4 40  1  0
  5 41  1  6
  8 42  1  0
  8 43  1  0
  8 44  1  0
  9 45  1  0
  9 46  1  0
  9 47  1  0
 10 48  1  1
 11 49  1  0
 11 50  1  0
 12 51  1  0
 12 52  1  0
 14 53  1  0
 14 54  1  0
 14 55  1  0
 15 56  1  6
 16 57  1  0
 16 58  1  0
 17 59  1  0
 19 60  1  6
 20 61  1  0
 20 62  1  0
 21 63  1  0
 21 64  1  0
 22 65  1  1
 23 66  1  0
 25 67  1  0
 25 68  1  0
 25 69  1  0
 26 70  1  0
 26 71  1  0
 26 72  1  0
 28 73  1  0
 28 74  1  0
 28 75  1  0
 29 76  1  0
 29 77  1  0
 30 78  1  0
 30 79  1  0
 32 80  1  0
 32 81  1  0
 32 82  1  0
M  END
>  <meeko>  (10) 
{"is_sidechain": [false], "intermolecular_energy": 2.731, "internal_energy": -0.839}

$$$$
EPH_relaxed_0001_pdb2pqr_Repair_124_r2_0001_out
     RDKit          3D

 82 86  0  0  0  0  0  0  0  0999 V2000
   -2.2280    7.8670   -2.0350 C   0  0  0  0  0  0  0  0  0  0  0  0
   -2.1640    8.5820   -0.6820 C   0  0  2  0  0  0  0  0  0  0  0  0
   -3.5330    8.6050    0.0270 C   0  0  0  0  0  0  0  0  0  0  0  0
   -4.7220    8.6970   -0.9340 C   0  0  0  0  0  0  0  0  0  0  0  0
   -5.4060    7.3730   -1.0980 C   0  0  2  0  0  0  0  0  0  0  0  0
   -5.5500    6.9380   -2.4560 O   0  0  0  0  0  0  0  0  0  0  0  0
   -6.7690    7.2100   -1.7450 C   0  0  0  0  0  0  0  0  0  0  0  0
   -7.5300    8.3870   -2.2690 C   0  0  0  0  0  0  0  0  0  0  0  0
   -7.5680    5.9850   -1.4290 C   0  0  0  0  0  0  0  0  0  0  0  0
   -1.6510   10.0040   -0.8700 C   0  0  1  0  0  0  0  0  0  0  0  0
   -1.2200   10.6660    0.4670 C   0  0  0  0  0  0  0  0  0  0  0  0
   -0.0070   11.5750    0.1460 C   0  0  0  0  0  0  0  0  0  0  0  0
    0.0140   11.6680   -1.3980 C   0  0  1  0  0  0  0  0  0  0  0  0
   -1.0530   12.7530   -1.7490 C   0  0  0  0  0  0  0  0  0  0  0  0
    1.3970   11.9850   -2.0530 C   0  0  2  0  0  0  0  0  0  0  0  0
    2.0010   13.3490   -1.6750 C   0  0  0  0  0  0  0  0  0  0  0  0
    1.6310   14.4820   -2.5750 C   0  0  0  0  0  0  0  0  0  0  0  0
    1.0830   14.3620   -3.7980 C   0  0  0  0  0  0  0  0  0  0  0  0
    0.8700   12.9820   -4.4340 C   0  0  1  0  0  0  0  0  0  0  0  0
    1.3670   13.0070   -5.9040 C   0  0  0  0  0  0  0  0  0  0  0  0
    0.7300   14.1290   -6.7180 C   0  0  0  0  0  0  0  0  0  0  0  0
    1.0130   15.4900   -6.0850 C   0  0  2  0  0  0  0  0  0  0  0  0
    2.4150   15.7600   -6.1810 O   0  0  0  0  0  0  0  0  0  0  0  0
    0.5630   15.5800   -4.6000 C   0  0  0  0  0  0  0  0  0  0  0  0
   -0.9840   15.5890   -4.5240 C   0  0  0  0  0  0  0  0  0  0  0  0
    1.0320   16.9510   -4.0420 C   0  0  0  0  0  0  0  0  0  0  0  0
    1.4440   11.7460   -3.6170 C   0  0  1  0  0  0  0  0  0  0  0  0
    2.9410   11.5120   -3.9860 C   0  0  0  0  0  0  0  0  0  0  0  0
    0.6730   10.4420   -4.0460 C   0  0  0  0  0  0  0  0  0  0  0  0
   -0.6250   10.1190   -3.2810 C   0  0  0  0  0  0  0  0  0  0  0  0
   -0.4020   10.1970   -1.7670 C   0  0  2  0  0  0  0  0  0  0  0  0
    0.6490    9.1020   -1.3810 C   0  0  0  0  0  0  0  0  0  0  0  0
   -2.3250    6.7834   -1.8728 H   0  0  0  0  0  0  0  0  0  0  0  0
   -3.0971    8.2321   -2.6019 H   0  0  0  0  0  0  0  0  0  0  0  0
   -1.3079    8.0720   -2.6019 H   0  0  0  0  0  0  0  0  0  0  0  0
   -1.4698    8.0181   -0.0416 H   0  0  0  0  0  0  0  0  0  0  0  0
   -3.6340    7.6823    0.6173 H   0  0  0  0  0  0  0  0  0  0  0  0
   -3.5554    9.5086    0.6539 H   0  0  0  0  0  0  0  0  0  0  0  0
   -5.4451    9.4252   -0.5378 H   0  0  0  0  0  0  0  0  0  0  0  0
   -4.3442    9.0120   -1.9179 H   0  0  0  0  0  0  0  0  0  0  0  0
   -4.9958    7.0159   -0.1418 H   0  0  0  0  0  0  0  0  0  0  0  0
   -7.9137    8.9804   -1.4260 H   0  0  0  0  0  0  0  0  0  0  0  0
   -6.8637    9.0106   -2.8831 H   0  0  0  0  0  0  0  0  0  0  0  0
   -8.3721    8.0353   -2.8831 H   0  0  0  0  0  0  0  0  0  0  0  0
   -7.6441    5.8683   -0.3379 H   0  0  0  0  0  0  0  0  0  0  0  0
   -8.5759    6.0838   -1.8584 H   0  0  0  0  0  0  0  0  0  0  0  0
   -7.0714    5.1024   -1.8584 H   0  0  0  0  0  0  0  0  0  0  0  0
   -2.5324   10.4557   -1.3487 H   0  0  0  0  0  0  0  0  0  0  0  0
   -2.0459   11.2669    0.8755 H   0  0  0  0  0  0  0  0  0  0  0  0
   -0.9559    9.9056    1.2167 H   0  0  0  0  0  0  0  0  0  0  0  0
   -0.1394   12.5713    0.5932 H   0  0  0  0  0  0  0  0  0  0  0  0
    0.9334   11.1742    0.5523 H   0  0  0  0  0  0  0  0  0  0  0  0
   -1.4670   13.1739   -0.8209 H   0  0  0  0  0  0  0  0  0  0  0  0
   -0.5814   13.5544   -2.3367 H   0  0  0  0  0  0  0  0  0  0  0  0
   -1.8622   12.2949   -2.3367 H   0  0  0  0  0  0  0  0  0  0  0  0
    2.0530   11.2302   -1.5947 H   0  0  0  0  0  0  0  0  0  0  0  0
    1.6652   13.5993   -0.6578 H   0  0  0  0  0  0  0  0  0  0  0  0
    3.0914   13.2339   -1.7632 H   0  0  0  0  0  0  0  0  0  0  0  0
    1.8227   15.5007   -2.2069 H   0  0  0  0  0  0  0  0  0  0  0  0
   -0.2146   12.8001   -4.4095 H   0  0  0  0  0  0  0  0  0  0  0  0
    2.4581   13.1464   -5.9050 H   0  0  0  0  0  0  0  0  0  0  0  0
    1.0803   12.0525   -6.3696 H   0  0  0  0  0  0  0  0  0  0  0  0
    1.1426   14.1132   -7.7376 H   0  0  0  0  0  0  0  0  0  0  0  0
   -0.3585   13.9718   -6.7415 H   0  0  0  0  0  0  0  0  0  0  0  0
    0.4258   16.2394   -6.6361 H   0  0  0  0  0  0  0  0  0  0  0  0
    2.7720   15.7840   -5.2770 H   0  0  0  0  0  0  0  0  0  0  0  0
   -1.2993   15.5908   -3.4702 H   0  0  0  0  0  0  0  0  0  0  0  0
   -1.3704   16.4894   -5.0239 H   0  0  0  0  0  0  0  0  0  0  0  0
   -1.3809   14.6931   -5.0239 H   0  0  0  0  0  0  0  0  0  0  0  0
    1.0221   16.9221   -2.9424 H   0  0  0  0  0  0  0  0  0  0  0  0
    2.0529   17.1604   -4.3941 H   0  0  0  0  0  0  0  0  0  0  0  0
    0.3533   17.7418   -4.3941 H   0  0  0  0  0  0  0  0  0  0  0  0
    3.5354   11.4191   -3.0651 H   0  0  0  0  0  0  0  0  0  0  0  0
    3.0330   10.5886   -4.5766 H   0  0  0  0  0  0  0  0  0  0  0  0
    3.3105   12.3633   -4.5766 H   0  0  0  0  0  0  0  0  0  0  0  0
    0.4155   10.5427   -5.1107 H   0  0  0  0  0  0  0  0  0  0  0  0
    1.3579    9.6131   -3.8138 H   0  0  0  0  0  0  0  0  0  0  0  0
   -1.4018   10.8429   -3.5683 H   0  0  0  0  0  0  0  0  0  0  0  0
   -0.9386    9.0963   -3.5375 H   0  0  0  0  0  0  0  0  0  0  0  0
    0.7181    9.0300   -0.2855 H   0  0  0  0  0  0  0  0  0  0  0  0
    0.3356    8.1315   -1.7932 H   0  0  0  0  0  0  0  0  0  0  0  0
    1.6315    9.3754   -1.7932 H   0  0  0  0  0  0  0  0  0  0  0  0
  1  2  1  0
  2  3  1  0
  3  4  1  0
  4  5  1  0
  5  6  1  0
  6  7  1  0
  7  8  1  0
  7  9  1  0
  2 10  1  0
 10 11  1  0
 11 12  1  0
 12 13  1  0
 13 14  1  1
 13 15  1  0
 15 16  1  0
 16 17  1  0
 17 18  2  0
 18 19  1  0
 19 20  1  0
 20 21  1  0
 21 22  1  0
 22 23  1  0
 22 24  1  0
 24 25  1  0
 24 26  1  0
 19 27  1  0
 27 28  1  6
 27 29  1  0
 29 30  1  0
 30 31  1  0
 31 32  1  1
  7  5  1  0
 31 10  1  0
 31 13  1  0
 27 15  1  0
 24 18  1  0
  1 33  1  0
  1 34  1  0
  1 35  1  0
  2 36  1  1
  3 37  1  0
  3 38  1  0
  4 39  1  0
  4 40  1  0
  5 41  1  1
  8 42  1  0
  8 43  1  0
  8 44  1  0
  9 45  1  0
  9 46  1  0
  9 47  1  0
 10 48  1  6
 11 49  1  0
 11 50  1  0
 12 51  1  0
 12 52  1  0
 14 53  1  0
 14 54  1  0
 14 55  1  0
 15 56  1  1
 16 57  1  0
 16 58  1  0
 17 59  1  0
 19 60  1  6
 20 61  1  0
 20 62  1  0
 21 63  1  0
 21 64  1  0
 22 65  1  6
 23 66  1  0
 25 67  1  0
 25 68  1  0
 25 69  1  0
 26 70  1  0
 26 71  1  0
 26 72  1  0
 28 73  1  0
 28 74  1  0
 28 75  1  0
 29 76  1  0
 29 77  1  0
 30 78  1  0
 30 79  1  0
 32 80  1  0
 32 81  1  0
 32 82  1  0
M  END
>  <meeko>  (11) 
{"is_sidechain": [false], "intermolecular_energy": 2.731, "internal_energy": -0.839}

$$$$
EPH_relaxed_0001_pdb2pqr_Repair_124_r2_0001_out
     RDKit          3D

 82 86  0  0  0  0  0  0  0  0999 V2000
   -3.7560    7.1510   -3.3490 C   0  0  0  0  0  0  0  0  0  0  0  0
   -3.8130    7.2670   -1.8230 C   0  0  2  0  0  0  0  0  0  0  0  0
   -5.2440    7.0830   -1.2790 C   0  0  0  0  0  0  0  0  0  0  0  0
   -6.3370    7.4500   -2.2870 C   0  0  0  0  0  0  0  0  0  0  0  0
   -7.6780    7.5760   -1.6290 C   0  0  2  0  0  0  0  0  0  0  0  0
   -8.2040    6.3510   -1.1030 O   0  0  0  0  0  0  0  0  0  0  0  0
   -8.9430    6.9460   -2.1810 C   0  0  0  0  0  0  0  0  0  0  0  0
   -8.9280    6.1450   -3.4450 C   0  0  0  0  0  0  0  0  0  0  0  0
  -10.2640    7.5130   -1.7650 C   0  0  0  0  0  0  0  0  0  0  0  0
   -3.2570    8.6160   -1.3830 C   0  0  1  0  0  0  0  0  0  0  0  0
   -3.8600    9.1000   -0.0370 C   0  0  0  0  0  0  0  0  0  0  0  0
   -2.7330    9.8580    0.7110 C   0  0  0  0  0  0  0  0  0  0  0  0
   -1.6340   10.0730   -0.3550 C   0  0  1  0  0  0  0  0  0  0  0  0
   -2.1030   11.3190   -1.1700 C   0  0  0  0  0  0  0  0  0  0  0  0
   -0.1760   10.2510    0.1820 C   0  0  2  0  0  0  0  0  0  0  0  0
    0.0440   11.4840    1.0760 C   0  0  0  0  0  0  0  0  0  0  0  0
    0.4570   12.7260    0.3580 C   0  0  0  0  0  0  0  0  0  0  0  0
    0.9190   12.7830   -0.9050 C   0  0  0  0  0  0  0  0  0  0  0  0
    1.1570   11.5020   -1.7150 C   0  0  1  0  0  0  0  0  0  0  0  0
    2.5420   11.5790   -2.4110 C   0  0  0  0  0  0  0  0  0  0  0  0
    2.7040   12.8410   -3.2530 C   0  0  0  0  0  0  0  0  0  0  0  0
    2.5170   14.0930   -2.4000 C   0  0  2  0  0  0  0  0  0  0  0  0
    3.5940   14.1760   -1.4620 O   0  0  0  0  0  0  0  0  0  0  0  0
    1.1600   14.1230   -1.6430 C   0  0  0  0  0  0  0  0  0  0  0  0
    0.0050   14.3370   -2.6520 C   0  0  0  0  0  0  0  0  0  0  0  0
    1.1600   15.3660   -0.7130 C   0  0  0  0  0  0  0  0  0  0  0  0
    0.9430   10.1360   -0.9310 C   0  0  1  0  0  0  0  0  0  0  0  0
    2.2590    9.7310   -0.1990 C   0  0  0  0  0  0  0  0  0  0  0  0
    0.6410    8.9900   -1.9680 C   0  0  0  0  0  0  0  0  0  0  0  0
   -0.8330    8.7860   -2.3680 C   0  0  0  0  0  0  0  0  0  0  0  0
   -1.7320    8.7090   -1.1300 C   0  0  2  0  0  0  0  0  0  0  0  0
   -1.2970    7.4520   -0.3020 C   0  0  0  0  0  0  0  0  0  0  0  0
   -3.2866    6.1958   -3.6268 H   0  0  0  0  0  0  0  0  0  0  0  0
   -4.7763    7.1909   -3.7581 H   0  0  0  0  0  0  0  0  0  0  0  0
   -3.1641    7.9831   -3.7581 H   0  0  0  0  0  0  0  0  0  0  0  0
   -3.1958    6.4573   -1.4066 H   0  0  0  0  0  0  0  0  0  0  0  0
   -5.3743    6.0287   -0.9937 H   0  0  0  0  0  0  0  0  0  0  0  0
   -5.3532    7.7655   -0.4233 H   0  0  0  0  0  0  0  0  0  0  0  0
   -6.0795    8.4100   -2.7584 H   0  0  0  0  0  0  0  0  0  0  0  0
   -6.3966    6.6466   -3.0360 H   0  0  0  0  0  0  0  0  0  0  0  0
   -7.4465    8.5997   -1.2996 H   0  0  0  0  0  0  0  0  0  0  0  0
   -8.9079    5.0729   -3.1995 H   0  0  0  0  0  0  0  0  0  0  0  0
   -9.8305    6.3698   -4.0323 H   0  0  0  0  0  0  0  0  0  0  0  0
   -8.0345    6.4035   -4.0323 H   0  0  0  0  0  0  0  0  0  0  0  0
  -10.3227    7.5382   -0.6669 H   0  0  0  0  0  0  0  0  0  0  0  0
  -10.3659    8.5341   -2.1612 H   0  0  0  0  0  0  0  0  0  0  0  0
  -11.0744    6.8834   -2.1612 H   0  0  0  0  0  0  0  0  0  0  0  0
   -3.5304    9.2223   -2.2591 H   0  0  0  0  0  0  0  0  0  0  0  0
   -4.7102    9.7727   -0.2229 H   0  0  0  0  0  0  0  0  0  0  0  0
   -4.2283    8.2517    0.5586 H   0  0  0  0  0  0  0  0  0  0  0  0
   -3.0998   10.8230    1.0908 H   0  0  0  0  0  0  0  0  0  0  0  0
   -2.3637    9.3006    1.5845 H   0  0  0  0  0  0  0  0  0  0  0  0
   -2.4039   12.1184   -0.4769 H   0  0  0  0  0  0  0  0  0  0  0  0
   -1.2772   11.6747   -1.8037 H   0  0  0  0  0  0  0  0  0  0  0  0
   -2.9584   11.0419   -1.8037 H   0  0  0  0  0  0  0  0  0  0  0  0
   -0.0595    9.3791    0.8425 H   0  0  0  0  0  0  0  0  0  0  0  0
   -0.8980   11.6937    1.6038 H   0  0  0  0  0  0  0  0  0  0  0  0
    0.8773   11.2288    1.7472 H   0  0  0  0  0  0  0  0  0  0  0  0
    0.3770   13.6753    0.9079 H   0  0  0  0  0  0  0  0  0  0  0  0
    0.3600   11.4687   -2.4724 H   0  0  0  0  0  0  0  0  0  0  0  0
    3.3257   11.5670   -1.6392 H   0  0  0  0  0  0  0  0  0  0  0  0
    2.6252   10.7143   -3.0858 H   0  0  0  0  0  0  0  0  0  0  0  0
    3.7117   12.8528   -3.6939 H   0  0  0  0  0  0  0  0  0  0  0  0
    1.9388   12.8367   -4.0432 H   0  0  0  0  0  0  0  0  0  0  0  0
    2.5145   14.9578   -3.0798 H   0  0  0  0  0  0  0  0  0  0  0  0
    4.3620   14.5500   -1.9270 H   0  0  0  0  0  0  0  0  0  0  0  0
   -0.9329   14.5108   -2.1042 H   0  0  0  0  0  0  0  0  0  0  0  0
    0.2274   15.2092   -3.2843 H   0  0  0  0  0  0  0  0  0  0  0  0
   -0.0999   13.4430   -3.2843 H   0  0  0  0  0  0  0  0  0  0  0  0
    2.1971   15.6596   -0.4933 H   0  0  0  0  0  0  0  0  0  0  0  0
    0.6415   16.1976   -1.2125 H   0  0  0  0  0  0  0  0  0  0  0  0
    0.6415   15.1215    0.2258 H   0  0  0  0  0  0  0  0  0  0  0  0
    2.1031    9.7790    0.8888 H   0  0  0  0  0  0  0  0  0  0  0  0
    2.5369    8.7058   -0.4847 H   0  0  0  0  0  0  0  0  0  0  0  0
    3.0653   10.4226   -0.4847 H   0  0  0  0  0  0  0  0  0  0  0  0
    1.2068    9.2130   -2.8846 H   0  0  0  0  0  0  0  0  0  0  0  0
    0.9333    8.0586   -1.4610 H   0  0  0  0  0  0  0  0  0  0  0  0
   -1.1558    9.6302   -2.9950 H   0  0  0  0  0  0  0  0  0  0  0  0
   -0.9180    7.8397   -2.9224 H   0  0  0  0  0  0  0  0  0  0  0  0
   -1.3744    7.6758    0.7722 H   0  0  0  0  0  0  0  0  0  0  0  0
   -1.9543    6.6051   -0.5484 H   0  0  0  0  0  0  0  0  0  0  0  0
   -0.2568    7.1926   -0.5484 H   0  0  0  0  0  0  0  0  0  0  0  0
  1  2  1  0
  2  3  1  0
  3  4  1  0
  4  5  1  0
  5  6  1  0
  6  7  1  0
  7  8  1  0
  7  9  1  0
  2 10  1  0
 10 11  1  0
 11 12  1  0
 12 13  1  0
 13 14  1  6
 13 15  1  0
 15 16  1  0
 16 17  1  0
 17 18  2  0
 18 19  1  0
 19 20  1  0
 20 21  1  0
 21 22  1  0
 22 23  1  0
 22 24  1  0
 24 25  1  0
 24 26  1  0
 19 27  1  0
 27 28  1  1
 27 29  1  0
 29 30  1  0
 30 31  1  0
 31 32  1  1
  7  5  1  0
 31 10  1  0
 31 13  1  0
 27 15  1  0
 24 18  1  0
  1 33  1  0
  1 34  1  0
  1 35  1  0
  2 36  1  1
  3 37  1  0
  3 38  1  0
  4 39  1  0
  4 40  1  0
  5 41  1  1
  8 42  1  0
  8 43  1  0
  8 44  1  0
  9 45  1  0
  9 46  1  0
  9 47  1  0
 10 48  1  6
 11 49  1  0
 11 50  1  0
 12 51  1  0
 12 52  1  0
 14 53  1  0
 14 54  1  0
 14 55  1  0
 15 56  1  1
 16 57  1  0
 16 58  1  0
 17 59  1  0
 19 60  1  6
 20 61  1  0
 20 62  1  0
 21 63  1  0
 21 64  1  0
 22 65  1  6
 23 66  1  0
 25 67  1  0
 25 68  1  0
 25 69  1  0
 26 70  1  0
 26 71  1  0
 26 72  1  0
 28 73  1  0
 28 74  1  0
 28 75  1  0
 29 76  1  0
 29 77  1  0
 30 78  1  0
 30 79  1  0
 32 80  1  0
 32 81  1  0
 32 82  1  0
M  END
>  <meeko>  (12) 
{"is_sidechain": [false], "intermolecular_energy": 2.731, "internal_energy": -0.839}

$$$$
EPH_relaxed_0001_pdb2pqr_Repair_124_r2_0001_out
     RDKit          3D

 82 86  0  0  0  0  0  0  0  0999 V2000
    2.8200   18.8000   -1.4180 C   0  0  0  0  0  0  0  0  0  0  0  0
    2.3780   17.7230   -2.4120 C   0  0  2  0  0  0  0  0  0  0  0  0
    0.9100   17.9030   -2.8480 C   0  0  0  0  0  0  0  0  0  0  0  0
    0.2840   19.2170   -2.3740 C   0  0  0  0  0  0  0  0  0  0  0  0
   -1.0170   18.9880   -1.6650 C   0  0  2  0  0  0  0  0  0  0  0  0
   -1.7490   20.1810   -1.3580 O   0  0  0  0  0  0  0  0  0  0  0  0
   -1.2770   19.4200   -0.2340 C   0  0  0  0  0  0  0  0  0  0  0  0
   -0.2270   20.1160    0.5740 C   0  0  0  0  0  0  0  0  0  0  0  0
   -2.3670   18.7370    0.5320 C   0  0  0  0  0  0  0  0  0  0  0  0
    2.5740   16.3400   -1.8010 C   0  0  1  0  0  0  0  0  0  0  0  0
    3.3240   16.3880   -0.4430 C   0  0  0  0  0  0  0  0  0  0  0  0
    2.7250   15.2620    0.4390 C   0  0  0  0  0  0  0  0  0  0  0  0
    1.8950   14.3990   -0.5410 C   0  0  1  0  0  0  0  0  0  0  0  0
    2.9380   13.4710   -1.2390 C   0  0  0  0  0  0  0  0  0  0  0  0
    0.7200   13.5790    0.0850 C   0  0  2  0  0  0  0  0  0  0  0  0
    1.1420   12.5190    1.1180 C   0  0  0  0  0  0  0  0  0  0  0  0
    1.4200   11.1620    0.5610 C   0  0  0  0  0  0  0  0  0  0  0  0
    1.0640   10.7310   -0.6640 C   0  0  0  0  0  0  0  0  0  0  0  0
    0.2210   11.6130   -1.5950 C   0  0  1  0  0  0  0  0  0  0  0  0
   -0.9280   10.7690   -2.2070 C   0  0  0  0  0  0  0  0  0  0  0  0
   -0.4220    9.5070   -2.8980 C   0  0  0  0  0  0  0  0  0  0  0  0
    0.3610    8.6280   -1.9260 C   0  0  2  0  0  0  0  0  0  0  0  0
   -0.5370    8.1290   -0.9300 O   0  0  0  0  0  0  0  0  0  0  0  0
    1.5390    9.3740   -1.2390 C   0  0  0  0  0  0  0  0  0  0  0  0
    2.6550    9.6510   -2.2770 C   0  0  0  0  0  0  0  0  0  0  0  0
    2.1560    8.4200   -0.1810 C   0  0  0  0  0  0  0  0  0  0  0  0
   -0.2920   12.9840   -0.9750 C   0  0  1  0  0  0  0  0  0  0  0  0
   -1.6400   12.7570   -0.2260 C   0  0  0  0  0  0  0  0  0  0  0  0
   -0.5970   13.9940   -2.1440 C   0  0  0  0  0  0  0  0  0  0  0  0
    0.5770   14.8600   -2.6380 C   0  0  0  0  0  0  0  0  0  0  0  0
    1.3000   15.5250   -1.4620 C   0  0  2  0  0  0  0  0  0  0  0  0
    0.2820   16.4820   -0.7540 C   0  0  0  0  0  0  0  0  0  0  0  0
    2.6702   18.4350   -0.3912 H   0  0  0  0  0  0  0  0  0  0  0  0
    3.8846   19.0285   -1.5743 H   0  0  0  0  0  0  0  0  0  0  0  0
    2.2228   19.7105   -1.5743 H   0  0  0  0  0  0  0  0  0  0  0  0
    3.0042   17.8247   -3.3106 H   0  0  0  0  0  0  0  0  0  0  0  0
    0.8682   17.8749   -3.9468 H   0  0  0  0  0  0  0  0  0  0  0  0
    0.3349   17.0876   -2.3851 H   0  0  0  0  0  0  0  0  0  0  0  0
    0.9818   19.7164   -1.6858 H   0  0  0  0  0  0  0  0  0  0  0  0
    0.0872   19.8414   -3.2580 H   0  0  0  0  0  0  0  0  0  0  0  0
   -1.1573   18.0276   -2.1826 H   0  0  0  0  0  0  0  0  0  0  0  0
   -0.4365   19.9772    1.6449 H   0  0  0  0  0  0  0  0  0  0  0  0
    0.7598   19.6926    0.3355 H   0  0  0  0  0  0  0  0  0  0  0  0
   -0.2326   21.1898    0.3355 H   0  0  0  0  0  0  0  0  0  0  0  0
   -2.1843   18.8515    1.6107 H   0  0  0  0  0  0  0  0  0  0  0  0
   -3.3357   19.1899    0.2741 H   0  0  0  0  0  0  0  0  0  0  0  0
   -2.3819   17.6678    0.2741 H   0  0  0  0  0  0  0  0  0  0  0  0
    3.1256   15.8534   -2.6189 H   0  0  0  0  0  0  0  0  0  0  0  0
    4.3994   16.2162   -0.5979 H   0  0  0  0  0  0  0  0  0  0  0  0
    3.2077   17.3705    0.0379 H   0  0  0  0  0  0  0  0  0  0  0  0
    3.5242   14.6643    0.9016 H   0  0  0  0  0  0  0  0  0  0  0  0
    2.1159   15.6582    1.2649 H   0  0  0  0  0  0  0  0  0  0  0  0
    3.5295   12.9447   -0.4754 H   0  0  0  0  0  0  0  0  0  0  0  0
    2.4128   12.7361   -1.8668 H   0  0  0  0  0  0  0  0  0  0  0  0
    3.6068   14.0781   -1.8668 H   0  0  0  0  0  0  0  0  0  0  0  0
    0.1723   14.3462    0.6519 H   0  0  0  0  0  0  0  0  0  0  0  0
    2.0552   12.8753    1.6172 H   0  0  0  0  0  0  0  0  0  0  0  0
    0.2863   12.3994    1.7988 H   0  0  0  0  0  0  0  0  0  0  0  0
    1.9615   10.4543    1.2060 H   0  0  0  0  0  0  0  0  0  0  0  0
    0.9004   11.9518   -2.3910 H   0  0  0  0  0  0  0  0  0  0  0  0
   -1.6189   10.4776   -1.4022 H   0  0  0  0  0  0  0  0  0  0  0  0
   -1.4291   11.3875   -2.9662 H   0  0  0  0  0  0  0  0  0  0  0  0
   -1.2813    8.9392   -3.2843 H   0  0  0  0  0  0  0  0  0  0  0  0
    0.2463    9.8016   -3.7206 H   0  0  0  0  0  0  0  0  0  0  0  0
    0.8053    7.8071   -2.5081 H   0  0  0  0  0  0  0  0  0  0  0  0
   -0.8800    7.2750   -1.2450 H   0  0  0  0  0  0  0  0  0  0  0  0
    3.5936    9.8840   -1.7529 H   0  0  0  0  0  0  0  0  0  0  0  0
    2.7983    8.7612   -2.9076 H   0  0  0  0  0  0  0  0  0  0  0  0
    2.3656   10.5046   -2.9076 H   0  0  0  0  0  0  0  0  0  0  0  0
    1.9179    8.7882    0.8278 H   0  0  0  0  0  0  0  0  0  0  0  0
    1.7395    7.4102   -0.3106 H   0  0  0  0  0  0  0  0  0  0  0  0
    3.2478    8.3857   -0.3106 H   0  0  0  0  0  0  0  0  0  0  0  0
   -1.4657   12.7864    0.8597 H   0  0  0  0  0  0  0  0  0  0  0  0
   -2.3520   13.5479   -0.5046 H   0  0  0  0  0  0  0  0  0  0  0  0
   -2.0537   11.7765   -0.5046 H   0  0  0  0  0  0  0  0  0  0  0  0
   -0.9634   13.4100   -3.0012 H   0  0  0  0  0  0  0  0  0  0  0  0
   -1.3241   14.7061   -1.7266 H   0  0  0  0  0  0  0  0  0  0  0  0
    1.2886   14.2237   -3.1847 H   0  0  0  0  0  0  0  0  0  0  0  0
    0.1801   15.6468   -3.2963 H   0  0  0  0  0  0  0  0  0  0  0  0
    0.3852   16.3849    0.3368 H   0  0  0  0  0  0  0  0  0  0  0  0
    0.4881   17.5210   -1.0508 H   0  0  0  0  0  0  0  0  0  0  0  0
   -0.7423   16.2122   -1.0508 H   0  0  0  0  0  0  0  0  0  0  0  0
  1  2  1  0
  2  3  1  0
  3  4  1  0
  4  5  1  0
  5  6  1  0
  6  7  1  0
  7  8  1  0
  7  9  1  0
  2 10  1  0
 10 11  1  0
 11 12  1  0
 12 13  1  0
 13 14  1  6
 13 15  1  0
 15 16  1  0
 16 17  1  0
 17 18  2  0
 18 19  1  0
 19 20  1  0
 20 21  1  0
 21 22  1  0
 22 23  1  0
 22 24  1  0
 24 25  1  0
 24 26  1  0
 19 27  1  0
 27 28  1  1
 27 29  1  0
 29 30  1  0
 30 31  1  0
 31 32  1  1
  7  5  1  0
 31 10  1  0
 31 13  1  0
 27 15  1  0
 24 18  1  0
  1 33  1  0
  1 34  1  0
  1 35  1  0
  2 36  1  6
  3 37  1  0
  3 38  1  0
  4 39  1  0
  4 40  1  0
  5 41  1  1
  8 42  1  0
  8 43  1  0
  8 44  1  0
  9 45  1  0
  9 46  1  0
  9 47  1  0
 10 48  1  6
 11 49  1  0
 11 50  1  0
 12 51  1  0
 12 52  1  0
 14 53  1  0
 14 54  1  0
 14 55  1  0
 15 56  1  1
 16 57  1  0
 16 58  1  0
 17 59  1  0
 19 60  1  6
 20 61  1  0
 20 62  1  0
 21 63  1  0
 21 64  1  0
 22 65  1  6
 23 66  1  0
 25 67  1  0
 25 68  1  0
 25 69  1  0
 26 70  1  0
 26 71  1  0
 26 72  1  0
 28 73  1  0
 28 74  1  0
 28 75  1  0
 29 76  1  0
 29 77  1  0
 30 78  1  0
 30 79  1  0
 32 80  1  0
 32 81  1  0
 32 82  1  0
M  END
>  <meeko>  (13) 
{"is_sidechain": [false], "intermolecular_energy": 2.731, "internal_energy": -0.839}

$$$$
EPH_relaxed_0001_pdb2pqr_Repair_124_r2_0001_out
     RDKit          3D

 82 86  0  0  0  0  0  0  0  0999 V2000
   -0.3350   18.7150   -2.2410 C   0  0  0  0  0  0  0  0  0  0  0  0
    0.7010   18.1860   -1.2450 C   0  0  2  0  0  0  0  0  0  0  0  0
    1.9510   19.0870   -1.1740 C   0  0  0  0  0  0  0  0  0  0  0  0
    2.2210   19.6540    0.2220 C   0  0  0  0  0  0  0  0  0  0  0  0
    3.6200   19.3640    0.6770 C   0  0  2  0  0  0  0  0  0  0  0  0
    3.7290   18.3090    1.6410 O   0  0  0  0  0  0  0  0  0  0  0  0
    4.1100   19.6200    2.0900 C   0  0  0  0  0  0  0  0  0  0  0  0
    3.2070   20.1910    3.1380 C   0  0  0  0  0  0  0  0  0  0  0  0
    5.5810   19.7740    2.3190 C   0  0  0  0  0  0  0  0  0  0  0  0
    1.1040   16.7650   -1.6200 C   0  0  1  0  0  0  0  0  0  0  0  0
    2.5950   16.6570   -2.0370 C   0  0  0  0  0  0  0  0  0  0  0  0
    3.1000   15.2780   -1.5410 C   0  0  0  0  0  0  0  0  0  0  0  0
    1.8150   14.5080   -1.1560 C   0  0  1  0  0  0  0  0  0  0  0  0
    1.2570   13.9590   -2.5060 C   0  0  0  0  0  0  0  0  0  0  0  0
    1.9830   13.3710   -0.0960 C   0  0  2  0  0  0  0  0  0  0  0  0
    2.8970   12.2100   -0.5230 C   0  0  0  0  0  0  0  0  0  0  0  0
    2.2110   11.0790   -1.2150 C   0  0  0  0  0  0  0  0  0  0  0  0
    0.8820   10.8630   -1.2320 C   0  0  0  0  0  0  0  0  0  0  0  0
   -0.0710   11.7530   -0.4240 C   0  0  1  0  0  0  0  0  0  0  0  0
   -1.0820   10.8640    0.3470 C   0  0  0  0  0  0  0  0  0  0  0  0
   -1.8240    9.8950   -0.5680 C   0  0  0  0  0  0  0  0  0  0  0  0
   -0.8450    8.9880   -1.3100 C   0  0  2  0  0  0  0  0  0  0  0  0
   -0.2040    8.1290   -0.3620 O   0  0  0  0  0  0  0  0  0  0  0  0
    0.2280    9.7730   -2.1150 C   0  0  0  0  0  0  0  0  0  0  0  0
   -0.4370   10.4650   -3.3300 C   0  0  0  0  0  0  0  0  0  0  0  0
    1.2340    8.7440   -2.6990 C   0  0  0  0  0  0  0  0  0  0  0  0
    0.6190   12.8410    0.5070 C   0  0  1  0  0  0  0  0  0  0  0  0
    0.9590   12.2150    1.8950 C   0  0  0  0  0  0  0  0  0  0  0  0
   -0.4050   14.0050    0.7840 C   0  0  0  0  0  0  0  0  0  0  0  0
   -0.4390   15.1580   -0.2370 C   0  0  0  0  0  0  0  0  0  0  0  0
    0.9730   15.6760   -0.5250 C   0  0  2  0  0  0  0  0  0  0  0  0
    1.5530   16.2550    0.8100 C   0  0  0  0  0  0  0  0  0  0  0  0
   -1.1838   19.1484   -1.6917 H   0  0  0  0  0  0  0  0  0  0  0  0
    0.1258   19.4882   -2.8734 H   0  0  0  0  0  0  0  0  0  0  0  0
   -0.6911   17.8884   -2.8734 H   0  0  0  0  0  0  0  0  0  0  0  0
    0.2344   18.1894   -0.2488 H   0  0  0  0  0  0  0  0  0  0  0  0
    2.8246   18.4943   -1.4833 H   0  0  0  0  0  0  0  0  0  0  0  0
    1.7687   19.9435   -1.8397 H   0  0  0  0  0  0  0  0  0  0  0  0
    2.0722   20.7436    0.1992 H   0  0  0  0  0  0  0  0  0  0  0  0
    1.5250   19.1759    0.9269 H   0  0  0  0  0  0  0  0  0  0  0  0
    4.0238   19.6468   -0.3063 H   0  0  0  0  0  0  0  0  0  0  0  0
    3.5996   19.9428    4.1351 H   0  0  0  0  0  0  0  0  0  0  0  0
    3.1589   21.2841    3.0246 H   0  0  0  0  0  0  0  0  0  0  0  0
    2.1988   19.7659    3.0246 H   0  0  0  0  0  0  0  0  0  0  0  0
    5.7836   19.7952    3.4000 H   0  0  0  0  0  0  0  0  0  0  0  0
    6.1138   18.9267    1.8627 H   0  0  0  0  0  0  0  0  0  0  0  0
    5.9268   20.7133    1.8627 H   0  0  0  0  0  0  0  0  0  0  0  0
    0.3816   16.5758   -2.4276 H   0  0  0  0  0  0  0  0  0  0  0  0
    2.6880   16.7232   -3.1311 H   0  0  0  0  0  0  0  0  0  0  0  0
    3.1872   17.4746   -1.6002 H   0  0  0  0  0  0  0  0  0  0  0  0
    3.6428   14.7526   -2.3406 H   0  0  0  0  0  0  0  0  0  0  0  0
    3.8007   15.3687   -0.6979 H   0  0  0  0  0  0  0  0  0  0  0  0
    0.4864   13.2008   -2.3030 H   0  0  0  0  0  0  0  0  0  0  0  0
    0.8158   14.7848   -3.0833 H   0  0  0  0  0  0  0  0  0  0  0  0
    2.0756   13.5044   -3.0833 H   0  0  0  0  0  0  0  0  0  0  0  0
    2.5146   13.8849    0.7185 H   0  0  0  0  0  0  0  0  0  0  0  0
    3.6611   12.6121   -1.2046 H   0  0  0  0  0  0  0  0  0  0  0  0
    3.3113   11.7916    0.4061 H   0  0  0  0  0  0  0  0  0  0  0  0
    2.8447   10.3615   -1.7568 H   0  0  0  0  0  0  0  0  0  0  0  0
   -0.6049   12.3729   -1.1593 H   0  0  0  0  0  0  0  0  0  0  0  0
   -0.5353   10.2845    1.1055 H   0  0  0  0  0  0  0  0  0  0  0  0
   -1.8288   11.5283    0.8063 H   0  0  0  0  0  0  0  0  0  0  0  0
   -2.5012    9.2748    0.0376 H   0  0  0  0  0  0  0  0  0  0  0  0
   -2.3938   10.4766   -1.3076 H   0  0  0  0  0  0  0  0  0  0  0  0
   -1.4236    8.4076   -2.0437 H   0  0  0  0  0  0  0  0  0  0  0  0
    0.6930    7.9470   -0.6900 H   0  0  0  0  0  0  0  0  0  0  0  0
   -1.1584   11.2157   -2.9749 H   0  0  0  0  0  0  0  0  0  0  0  0
    0.3351   10.9578   -3.9392 H   0  0  0  0  0  0  0  0  0  0  0  0
   -0.9601    9.7132   -3.9392 H   0  0  0  0  0  0  0  0  0  0  0  0
    1.7441    8.2222   -1.8759 H   0  0  0  0  0  0  0  0  0  0  0  0
    0.6930    8.0126   -3.3174 H   0  0  0  0  0  0  0  0  0  0  0  0
    1.9774    9.2684   -3.3174 H   0  0  0  0  0  0  0  0  0  0  0  0
    0.5985   12.8787    2.6948 H   0  0  0  0  0  0  0  0  0  0  0  0
    0.4698   11.2338    1.9844 H   0  0  0  0  0  0  0  0  0  0  0  0
    2.0483   12.0911    1.9844 H   0  0  0  0  0  0  0  0  0  0  0  0
   -1.4111   13.5617    0.8190 H   0  0  0  0  0  0  0  0  0  0  0  0
   -0.0705   14.4644    1.7258 H   0  0  0  0  0  0  0  0  0  0  0  0
   -0.8877   14.7961   -1.1739 H   0  0  0  0  0  0  0  0  0  0  0  0
   -1.0360   15.9810    0.1827 H   0  0  0  0  0  0  0  0  0  0  0  0
    1.0633   15.7661    1.6651 H   0  0  0  0  0  0  0  0  0  0  0  0
    2.6361   16.0671    0.8512 H   0  0  0  0  0  0  0  0  0  0  0  0
    1.3670   17.3384    0.8512 H   0  0  0  0  0  0  0  0  0  0  0  0
  1  2  1  0
  2  3  1  0
  3  4  1  0
  4  5  1  0
  5  6  1  0
  6  7  1  0
  7  8  1  0
  7  9  1  0
  2 10  1  0
 10 11  1  0
 11 12  1  0
 12 13  1  0
 13 14  1  6
 13 15  1  0
 15 16  1  0
 16 17  1  0
 17 18  2  0
 18 19  1  0
 19 20  1  0
 20 21  1  0
 21 22  1  0
 22 23  1  0
 22 24  1  0
 24 25  1  0
 24 26  1  0
 19 27  1  0
 27 28  1  1
 27 29  1  0
 29 30  1  0
 30 31  1  0
 31 32  1  1
  7  5  1  0
 31 10  1  0
 31 13  1  0
 27 15  1  0
 24 18  1  0
  1 33  1  0
  1 34  1  0
  1 35  1  0
  2 36  1  1
  3 37  1  0
  3 38  1  0
  4 39  1  0
  4 40  1  0
  5 41  1  6
  8 42  1  0
  8 43  1  0
  8 44  1  0
  9 45  1  0
  9 46  1  0
  9 47  1  0
 10 48  1  6
 11 49  1  0
 11 50  1  0
 12 51  1  0
 12 52  1  0
 14 53  1  0
 14 54  1  0
 14 55  1  0
 15 56  1  1
 16 57  1  0
 16 58  1  0
 17 59  1  0
 19 60  1  6
 20 61  1  0
 20 62  1  0
 21 63  1  0
 21 64  1  0
 22 65  1  6
 23 66  1  0
 25 67  1  0
 25 68  1  0
 25 69  1  0
 26 70  1  0
 26 71  1  0
 26 72  1  0
 28 73  1  0
 28 74  1  0
 28 75  1  0
 29 76  1  0
 29 77  1  0
 30 78  1  0
 30 79  1  0
 32 80  1  0
 32 81  1  0
 32 82  1  0
M  END
>  <meeko>  (14) 
{"is_sidechain": [false], "intermolecular_energy": 2.731, "internal_energy": -0.839}

$$$$
EPH_relaxed_0001_pdb2pqr_Repair_124_r2_0001_out
     RDKit          3D

 82 86  0  0  0  0  0  0  0  0999 V2000
   -0.0840    9.3330   -2.2840 C   0  0  0  0  0  0  0  0  0  0  0  0
    1.0130   10.3020   -2.7340 C   0  0  2  0  0  0  0  0  0  0  0  0
    2.3970    9.6250   -2.7910 C   0  0  0  0  0  0  0  0  0  0  0  0
    3.3440   10.2470   -3.8210 C   0  0  0  0  0  0  0  0  0  0  0  0
    4.7240   10.4300   -3.2660 C   0  0  2  0  0  0  0  0  0  0  0  0
    5.2590   11.7520   -3.4130 O   0  0  0  0  0  0  0  0  0  0  0  0
    5.9420   10.7080   -4.1270 C   0  0  0  0  0  0  0  0  0  0  0  0
    5.8370   10.8190   -5.6150 C   0  0  0  0  0  0  0  0  0  0  0  0
    7.2970   10.3880   -3.5750 C   0  0  0  0  0  0  0  0  0  0  0  0
    1.0600   11.5050   -1.7990 C   0  0  1  0  0  0  0  0  0  0  0  0
    2.1330   11.3570   -0.6880 C   0  0  0  0  0  0  0  0  0  0  0  0
    2.7030   12.7740   -0.4250 C   0  0  0  0  0  0  0  0  0  0  0  0
    1.7200   13.7290   -1.1420 C   0  0  1  0  0  0  0  0  0  0  0  0
    0.5230   13.8890   -0.1530 C   0  0  0  0  0  0  0  0  0  0  0  0
    2.2980   15.1150   -1.5790 C   0  0  2  0  0  0  0  0  0  0  0  0
    2.7820   16.0120   -0.4270 C   0  0  0  0  0  0  0  0  0  0  0  0
    1.7530   16.9350    0.1390 C   0  0  0  0  0  0  0  0  0  0  0  0
    0.5780   17.2450   -0.4400 C   0  0  0  0  0  0  0  0  0  0  0  0
    0.2270   16.7230   -1.8400 C   0  0  1  0  0  0  0  0  0  0  0  0
   -0.3380   17.8840   -2.6990 C   0  0  0  0  0  0  0  0  0  0  0  0
   -1.5120   18.5910   -2.0290 C   0  0  0  0  0  0  0  0  0  0  0  0
   -1.1080   19.1460   -0.6660 C   0  0  2  0  0  0  0  0  0  0  0  0
   -0.1530   20.1940   -0.8600 O   0  0  0  0  0  0  0  0  0  0  0  0
   -0.5150   18.0690    0.2840 C   0  0  0  0  0  0  0  0  0  0  0  0
   -1.6350   17.0990    0.7350 C   0  0  0  0  0  0  0  0  0  0  0  0
   -0.0180   18.7860    1.5690 C   0  0  0  0  0  0  0  0  0  0  0  0
    1.3740   15.9140   -2.5850 C   0  0  1  0  0  0  0  0  0  0  0  0
    2.3040   16.8990   -3.3570 C   0  0  0  0  0  0  0  0  0  0  0  0
    0.7210   14.9780   -3.6700 C   0  0  0  0  0  0  0  0  0  0  0  0
    0.2800   13.5770   -3.2040 C   0  0  0  0  0  0  0  0  0  0  0  0
    1.4000   12.8800   -2.4260 C   0  0  2  0  0  0  0  0  0  0  0  0
    2.6100   12.6850   -3.4020 C   0  0  0  0  0  0  0  0  0  0  0  0
   -0.1183    9.3027   -1.1849 H   0  0  0  0  0  0  0  0  0  0  0  0
   -1.0555    9.6732   -2.6719 H   0  0  0  0  0  0  0  0  0  0  0  0
    0.1337    8.3269   -2.6719 H   0  0  0  0  0  0  0  0  0  0  0  0
    0.7646   10.6331   -3.7532 H   0  0  0  0  0  0  0  0  0  0  0  0
    2.8635    9.7040   -1.7980 H   0  0  0  0  0  0  0  0  0  0  0  0
    2.2320    8.5808   -3.0950 H   0  0  0  0  0  0  0  0  0  0  0  0
    3.3978    9.5875   -4.6997 H   0  0  0  0  0  0  0  0  0  0  0  0
    2.9504   11.2371   -4.0946 H   0  0  0  0  0  0  0  0  0  0  0  0
    4.5310    9.6862   -2.4789 H   0  0  0  0  0  0  0  0  0  0  0  0
    5.1023   11.5957   -5.8738 H   0  0  0  0  0  0  0  0  0  0  0  0
    6.8182   11.0887   -6.0327 H   0  0  0  0  0  0  0  0  0  0  0  0
    5.5133    9.8543   -6.0327 H   0  0  0  0  0  0  0  0  0  0  0  0
    7.2567   10.3975   -2.4758 H   0  0  0  0  0  0  0  0  0  0  0  0
    7.6083    9.3916   -3.9219 H   0  0  0  0  0  0  0  0  0  0  0  0
    8.0212   11.1398   -3.9219 H   0  0  0  0  0  0  0  0  0  0  0  0
    0.0196   11.5013   -1.4419 H   0  0  0  0  0  0  0  0  0  0  0  0
    1.6761   10.9564    0.2289 H   0  0  0  0  0  0  0  0  0  0  0  0
    2.9282   10.6626   -0.9970 H   0  0  0  0  0  0  0  0  0  0  0  0
    2.7334   12.9863    0.6539 H   0  0  0  0  0  0  0  0  0  0  0  0
    3.7340   12.8838   -0.7923 H   0  0  0  0  0  0  0  0  0  0  0  0
    0.8931   13.8395    0.8817 H   0  0  0  0  0  0  0  0  0  0  0  0
    0.0352   14.8603   -0.3219 H   0  0  0  0  0  0  0  0  0  0  0  0
   -0.2028   13.0799   -0.3219 H   0  0  0  0  0  0  0  0  0  0  0  0
    3.2029   14.8290   -2.1352 H   0  0  0  0  0  0  0  0  0  0  0  0
    3.1373   15.3604    0.3849 H   0  0  0  0  0  0  0  0  0  0  0  0
    3.5669   16.6552   -0.8515 H   0  0  0  0  0  0  0  0  0  0  0  0
    1.9740   17.4006    1.1108 H   0  0  0  0  0  0  0  0  0  0  0  0
   -0.5482   15.9564   -1.6938 H   0  0  0  0  0  0  0  0  0  0  0  0
    0.4635   18.6175   -2.8711 H   0  0  0  0  0  0  0  0  0  0  0  0
   -0.7029   17.4533   -3.6431 H   0  0  0  0  0  0  0  0  0  0  0  0
   -1.8469   19.4196   -2.6703 H   0  0  0  0  0  0  0  0  0  0  0  0
   -2.3245   17.8636   -1.8853 H   0  0  0  0  0  0  0  0  0  0  0  0
   -2.0202   19.5234   -0.1807 H   0  0  0  0  0  0  0  0  0  0  0  0
   -0.6460   21.0060   -1.0700 H   0  0  0  0  0  0  0  0  0  0  0  0
   -1.6719   17.0671    1.8339 H   0  0  0  0  0  0  0  0  0  0  0  0
   -2.6023   17.4494    0.3457 H   0  0  0  0  0  0  0  0  0  0  0  0
   -1.4263   16.0916    0.3457 H   0  0  0  0  0  0  0  0  0  0  0  0
   -0.3895   18.2501    2.4549 H   0  0  0  0  0  0  0  0  0  0  0  0
    1.0819   18.7962    1.5811 H   0  0  0  0  0  0  0  0  0  0  0  0
   -0.3944   19.8195    1.5811 H   0  0  0  0  0  0  0  0  0  0  0  0
    2.8752   17.5040   -2.6375 H   0  0  0  0  0  0  0  0  0  0  0  0
    2.9995   16.3274   -3.9891 H   0  0  0  0  0  0  0  0  0  0  0  0
    1.6934   17.5605   -3.9891 H   0  0  0  0  0  0  0  0  0  0  0  0
   -0.1680   15.4933   -4.0626 H   0  0  0  0  0  0  0  0  0  0  0  0
    1.5143   14.7986   -4.4106 H   0  0  0  0  0  0  0  0  0  0  0  0
   -0.6022   13.6751   -2.5543 H   0  0  0  0  0  0  0  0  0  0  0  0
    0.0400   12.9720   -4.0908 H   0  0  0  0  0  0  0  0  0  0  0  0
    3.5310   12.5366   -2.8191 H   0  0  0  0  0  0  0  0  0  0  0  0
    2.4314   11.8041   -4.0361 H   0  0  0  0  0  0  0  0  0  0  0  0
    2.7172   13.5775   -4.0361 H   0  0  0  0  0  0  0  0  0  0  0  0
  1  2  1  0
  2  3  1  0
  3  4  1  0
  4  5  1  0
  5  6  1  0
  6  7  1  0
  7  8  1  0
  7  9  1  0
  2 10  1  0
 10 11  1  0
 11 12  1  0
 12 13  1  0
 13 14  1  1
 13 15  1  0
 15 16  1  0
 16 17  1  0
 17 18  2  0
 18 19  1  0
 19 20  1  0
 20 21  1  0
 21 22  1  0
 22 23  1  0
 22 24  1  0
 24 25  1  0
 24 26  1  0
 19 27  1  0
 27 28  1  6
 27 29  1  0
 29 30  1  0
 30 31  1  0
 31 32  1  6
  7  5  1  0
 31 10  1  0
 31 13  1  0
 27 15  1  0
 24 18  1  0
  1 33  1  0
  1 34  1  0
  1 35  1  0
  2 36  1  6
  3 37  1  0
  3 38  1  0
  4 39  1  0
  4 40  1  0
  5 41  1  1
  8 42  1  0
  8 43  1  0
  8 44  1  0
  9 45  1  0
  9 46  1  0
  9 47  1  0
 10 48  1  1
 11 49  1  0
 11 50  1  0
 12 51  1  0
 12 52  1  0
 14 53  1  0
 14 54  1  0
 14 55  1  0
 15 56  1  6
 16 57  1  0
 16 58  1  0
 17 59  1  0
 19 60  1  1
 20 61  1  0
 20 62  1  0
 21 63  1  0
 21 64  1  0
 22 65  1  1
 23 66  1  0
 25 67  1  0
 25 68  1  0
 25 69  1  0
 26 70  1  0
 26 71  1  0
 26 72  1  0
 28 73  1  0
 28 74  1  0
 28 75  1  0
 29 76  1  0
 29 77  1  0
 30 78  1  0
 30 79  1  0
 32 80  1  0
 32 81  1  0
 32 82  1  0
M  END
>  <meeko>  (15) 
{"is_sidechain": [false], "intermolecular_energy": 2.731, "internal_energy": -0.839}

$$$$
EPH_relaxed_0001_pdb2pqr_Repair_124_r2_0001_out
     RDKit          3D

 82 86  0  0  0  0  0  0  0  0999 V2000
    2.2340   11.3300   -5.7370 C   0  0  0  0  0  0  0  0  0  0  0  0
    1.6970   11.1500   -4.3140 C   0  0  2  0  0  0  0  0  0  0  0  0
    0.6000   10.0690   -4.2390 C   0  0  0  0  0  0  0  0  0  0  0  0
    0.5090    9.3790   -2.8760 C   0  0  0  0  0  0  0  0  0  0  0  0
   -0.9120    9.2430   -2.4170 C   0  0  2  0  0  0  0  0  0  0  0  0
   -1.4640   10.4250   -1.8210 O   0  0  0  0  0  0  0  0  0  0  0  0
   -1.3270    9.2840   -0.9580 C   0  0  0  0  0  0  0  0  0  0  0  0
   -0.3210    9.4640    0.1350 C   0  0  0  0  0  0  0  0  0  0  0  0
   -2.6330    8.6630   -0.5680 C   0  0  0  0  0  0  0  0  0  0  0  0
    1.1580   12.4770   -3.7900 C   0  0  1  0  0  0  0  0  0  0  0  0
   -0.3880   12.4810   -3.6530 C   0  0  0  0  0  0  0  0  0  0  0  0
   -0.7240   13.3460   -2.4110 C   0  0  0  0  0  0  0  0  0  0  0  0
    0.5980   14.0750   -2.0740 C   0  0  1  0  0  0  0  0  0  0  0  0
    0.6500   15.2850   -3.0590 C   0  0  0  0  0  0  0  0  0  0  0  0
    0.7760   14.5310   -0.5900 C   0  0  2  0  0  0  0  0  0  0  0  0
   -0.2550   15.5600   -0.0940 C   0  0  0  0  0  0  0  0  0  0  0  0
    0.1290   16.9900   -0.2850 C   0  0  0  0  0  0  0  0  0  0  0  0
    1.3670   17.4370   -0.5680 C   0  0  0  0  0  0  0  0  0  0  0  0
    2.5580   16.4720   -0.6270 C   0  0  1  0  0  0  0  0  0  0  0  0
    3.7510   17.0720    0.1620 C   0  0  0  0  0  0  0  0  0  0  0  0
    4.1150   18.4780   -0.3080 C   0  0  0  0  0  0  0  0  0  0  0  0
    2.9220   19.4210   -0.1790 C   0  0  2  0  0  0  0  0  0  0  0  0
    2.6220   19.5990    1.2090 O   0  0  0  0  0  0  0  0  0  0  0  0
    1.6560   18.9150   -0.9260 C   0  0  0  0  0  0  0  0  0  0  0  0
    1.8820   19.0090   -2.4560 C   0  0  0  0  0  0  0  0  0  0  0  0
    0.4890   19.8850   -0.6000 C   0  0  0  0  0  0  0  0  0  0  0  0
    2.2510   14.9670   -0.2180 C   0  0  1  0  0  0  0  0  0  0  0  0
    2.3910   14.7960    1.3260 C   0  0  0  0  0  0  0  0  0  0  0  0
    3.3340   14.0270   -0.8680 C   0  0  0  0  0  0  0  0  0  0  0  0
    3.0440   13.5130   -2.2910 C   0  0  0  0  0  0  0  0  0  0  0  0
    1.6300   12.9320   -2.3870 C   0  0  2  0  0  0  0  0  0  0  0  0
    1.5540   11.6980   -1.4230 C   0  0  0  0  0  0  0  0  0  0  0  0
    3.2762   11.6793   -5.6942 H   0  0  0  0  0  0  0  0  0  0  0  0
    2.1912   10.3684   -6.2694 H   0  0  0  0  0  0  0  0  0  0  0  0
    1.6203   12.0716   -6.2694 H   0  0  0  0  0  0  0  0  0  0  0  0
    2.5343   10.8141   -3.6846 H   0  0  0  0  0  0  0  0  0  0  0  0
   -0.3694   10.5423   -4.4541 H   0  0  0  0  0  0  0  0  0  0  0  0
    0.8610    9.2942   -4.9749 H   0  0  0  0  0  0  0  0  0  0  0  0
    0.9561    8.3769   -2.9532 H   0  0  0  0  0  0  0  0  0  0  0  0
    1.0487    9.9961   -2.1426 H   0  0  0  0  0  0  0  0  0  0  0  0
   -1.1307    8.5311   -3.2265 H   0  0  0  0  0  0  0  0  0  0  0  0
   -0.8202    9.3747    1.1111 H   0  0  0  0  0  0  0  0  0  0  0  0
    0.4565    8.6907    0.0487 H   0  0  0  0  0  0  0  0  0  0  0  0
    0.1402   10.4589    0.0487 H   0  0  0  0  0  0  0  0  0  0  0  0
   -2.7088    8.6269    0.5288 H   0  0  0  0  0  0  0  0  0  0  0  0
   -3.4603    9.2641   -0.9732 H   0  0  0  0  0  0  0  0  0  0  0  0
   -2.6890    7.6419   -0.9732 H   0  0  0  0  0  0  0  0  0  0  0  0
    1.5573   13.1549   -4.5588 H   0  0  0  0  0  0  0  0  0  0  0  0
   -0.8470   12.9159   -4.5531 H   0  0  0  0  0  0  0  0  0  0  0  0
   -0.7774   11.4585   -3.5396 H   0  0  0  0  0  0  0  0  0  0  0  0
   -1.5180   14.0703   -2.6455 H   0  0  0  0  0  0  0  0  0  0  0  0
   -1.0934   12.7417   -1.5694 H   0  0  0  0  0  0  0  0  0  0  0  0
    0.6903   16.2230   -2.4858 H   0  0  0  0  0  0  0  0  0  0  0  0
    1.5455   15.2038   -3.6926 H   0  0  0  0  0  0  0  0  0  0  0  0
   -0.2492   15.2809   -3.6926 H   0  0  0  0  0  0  0  0  0  0  0  0
    0.5658   13.6056   -0.0337 H   0  0  0  0  0  0  0  0  0  0  0  0
   -1.1967   15.3857   -0.6351 H   0  0  0  0  0  0  0  0  0  0  0  0
   -0.3370   15.4093    0.9925 H   0  0  0  0  0  0  0  0  0  0  0  0
   -0.6673   17.7424   -0.1861 H   0  0  0  0  0  0  0  0  0  0  0  0
    2.8230   16.3807   -1.6907 H   0  0  0  0  0  0  0  0  0  0  0  0
    3.4831   17.1148    1.2280 H   0  0  0  0  0  0  0  0  0  0  0  0
    4.6243   16.4256   -0.0100 H   0  0  0  0  0  0  0  0  0  0  0  0
    4.9439   18.8597    0.3061 H   0  0  0  0  0  0  0  0  0  0  0  0
    4.4117   18.4292   -1.3661 H   0  0  0  0  0  0  0  0  0  0  0  0
    3.2040   20.3742   -0.6501 H   0  0  0  0  0  0  0  0  0  0  0  0
    3.2410   19.0470    1.7160 H   0  0  0  0  0  0  0  0  0  0  0  0
    2.8810   19.4245   -2.6542 H   0  0  0  0  0  0  0  0  0  0  0  0
    1.8076   18.0053   -2.9000 H   0  0  0  0  0  0  0  0  0  0  0  0
    1.1178   19.6639   -2.9000 H   0  0  0  0  0  0  0  0  0  0  0  0
    0.3808   19.9749    0.4910 H   0  0  0  0  0  0  0  0  0  0  0  0
    0.7037   20.8745   -1.0300 H   0  0  0  0  0  0  0  0  0  0  0  0
   -0.4446   19.4931   -1.0300 H   0  0  0  0  0  0  0  0  0  0  0  0
    1.7736   15.5502    1.8359 H   0  0  0  0  0  0  0  0  0  0  0  0
    2.0541   13.7897    1.6155 H   0  0  0  0  0  0  0  0  0  0  0  0
    3.4440   14.9276    1.6155 H   0  0  0  0  0  0  0  0  0  0  0  0
    4.2814   14.5850   -0.9024 H   0  0  0  0  0  0  0  0  0  0  0  0
    3.3513   13.1275   -0.2351 H   0  0  0  0  0  0  0  0  0  0  0  0
    3.1390   14.3475   -3.0013 H   0  0  0  0  0  0  0  0  0  0  0  0
    3.7663   12.7188   -2.5308 H   0  0  0  0  0  0  0  0  0  0  0  0
    1.5754   12.0459   -0.3797 H   0  0  0  0  0  0  0  0  0  0  0  0
    0.6202   11.1464   -1.6065 H   0  0  0  0  0  0  0  0  0  0  0  0
    2.4131   11.0359   -1.6065 H   0  0  0  0  0  0  0  0  0  0  0  0
  1  2  1  0
  2  3  1  0
  3  4  1  0
  4  5  1  0
  5  6  1  0
  6  7  1  0
  7  8  1  0
  7  9  1  0
  2 10  1  0
 10 11  1  0
 11 12  1  0
 12 13  1  0
 13 14  1  6
 13 15  1  0
 15 16  1  0
 16 17  1  0
 17 18  2  0
 18 19  1  0
 19 20  1  0
 20 21  1  0
 21 22  1  0
 22 23  1  0
 22 24  1  0
 24 25  1  0
 24 26  1  0
 19 27  1  0
 27 28  1  1
 27 29  1  0
 29 30  1  0
 30 31  1  0
 31 32  1  1
  7  5  1  0
 31 10  1  0
 31 13  1  0
 27 15  1  0
 24 18  1  0
  1 33  1  0
  1 34  1  0
  1 35  1  0
  2 36  1  1
  3 37  1  0
  3 38  1  0
  4 39  1  0
  4 40  1  0
  5 41  1  6
  8 42  1  0
  8 43  1  0
  8 44  1  0
  9 45  1  0
  9 46  1  0
  9 47  1  0
 10 48  1  6
 11 49  1  0
 11 50  1  0
 12 51  1  0
 12 52  1  0
 14 53  1  0
 14 54  1  0
 14 55  1  0
 15 56  1  1
 16 57  1  0
 16 58  1  0
 17 59  1  0
 19 60  1  6
 20 61  1  0
 20 62  1  0
 21 63  1  0
 21 64  1  0
 22 65  1  6
 23 66  1  0
 25 67  1  0
 25 68  1  0
 25 69  1  0
 26 70  1  0
 26 71  1  0
 26 72  1  0
 28 73  1  0
 28 74  1  0
 28 75  1  0
 29 76  1  0
 29 77  1  0
 30 78  1  0
 30 79  1  0
 32 80  1  0
 32 81  1  0
 32 82  1  0
M  END
>  <meeko>  (16) 
{"is_sidechain": [false], "intermolecular_energy": 2.731, "internal_energy": -0.839}

$$$$
EPH_relaxed_0001_pdb2pqr_Repair_124_r2_0001_out
     RDKit          3D

 82 86  0  0  0  0  0  0  0  0999 V2000
    0.7680   14.9170   -2.7920 C   0  0  0  0  0  0  0  0  0  0  0  0
    1.1800   14.1710   -4.0640 C   0  0  2  0  0  0  0  0  0  0  0  0
    0.6100   14.8320   -5.3350 C   0  0  0  0  0  0  0  0  0  0  0  0
    1.1420   14.2250   -6.6360 C   0  0  0  0  0  0  0  0  0  0  0  0
    1.1070   15.2120   -7.7630 C   0  0  2  0  0  0  0  0  0  0  0  0
    0.0730   14.9800   -8.7300 O   0  0  0  0  0  0  0  0  0  0  0  0
    1.4240   14.8490   -9.2020 C   0  0  0  0  0  0  0  0  0  0  0  0
    1.8000   13.4540   -9.5910 C   0  0  0  0  0  0  0  0  0  0  0  0
    1.8430   15.9400  -10.1390 C   0  0  0  0  0  0  0  0  0  0  0  0
    0.7270   12.7180   -3.9850 C   0  0  1  0  0  0  0  0  0  0  0  0
    1.8580   11.7190   -4.3460 C   0  0  0  0  0  0  0  0  0  0  0  0
    1.6550   10.4700   -3.4500 C   0  0  0  0  0  0  0  0  0  0  0  0
    0.2400   10.6470   -2.8500 C   0  0  1  0  0  0  0  0  0  0  0  0
   -0.7340   10.1590   -3.9680 C   0  0  0  0  0  0  0  0  0  0  0  0
   -0.0300    9.9210   -1.4920 C   0  0  2  0  0  0  0  0  0  0  0  0
    0.0720    8.3860   -1.5410 C   0  0  0  0  0  0  0  0  0  0  0  0
   -1.2010    7.6720   -1.8540 C   0  0  0  0  0  0  0  0  0  0  0  0
   -2.4320    8.2120   -1.8070 C   0  0  0  0  0  0  0  0  0  0  0  0
   -2.6440    9.6490   -1.3120 C   0  0  1  0  0  0  0  0  0  0  0  0
   -3.8260    9.6820   -0.3080 C   0  0  0  0  0  0  0  0  0  0  0  0
   -5.1000    9.0700   -0.8830 C   0  0  0  0  0  0  0  0  0  0  0  0
   -4.8640    7.6230   -1.3100 C   0  0  2  0  0  0  0  0  0  0  0  0
   -4.6100    6.8340   -0.1430 O   0  0  0  0  0  0  0  0  0  0  0  0
   -3.6890    7.4630   -2.3150 C   0  0  0  0  0  0  0  0  0  0  0  0
   -4.0920    8.0630   -3.6850 C   0  0  0  0  0  0  0  0  0  0  0  0
   -3.4680    5.9450   -2.5530 C   0  0  0  0  0  0  0  0  0  0  0  0
   -1.3510   10.3890   -0.7580 C   0  0  1  0  0  0  0  0  0  0  0  0
   -1.1600   10.0630    0.7550 C   0  0  0  0  0  0  0  0  0  0  0  0
   -1.5690   11.9450   -0.8530 C   0  0  0  0  0  0  0  0  0  0  0  0
   -1.1720   12.6230   -2.1780 C   0  0  0  0  0  0  0  0  0  0  0  0
    0.2360   12.2000   -2.6090 C   0  0  2  0  0  0  0  0  0  0  0  0
    1.2410   12.6970   -1.5140 C   0  0  0  0  0  0  0  0  0  0  0  0
    1.0859   14.3414   -1.9101 H   0  0  0  0  0  0  0  0  0  0  0  0
    1.2473   15.9070   -2.7760 H   0  0  0  0  0  0  0  0  0  0  0  0
   -0.3251   15.0386   -2.7760 H   0  0  0  0  0  0  0  0  0  0  0  0
    2.2770   14.2149   -4.1323 H   0  0  0  0  0  0  0  0  0  0  0  0
   -0.4844   14.7221   -5.3226 H   0  0  0  0  0  0  0  0  0  0  0  0
    0.9263   15.8854   -5.3189 H   0  0  0  0  0  0  0  0  0  0  0  0
    2.1811   13.8999   -6.4790 H   0  0  0  0  0  0  0  0  0  0  0  0
    0.4992   13.3740   -6.9054 H   0  0  0  0  0  0  0  0  0  0  0  0
    1.4762   16.0128   -7.1054 H   0  0  0  0  0  0  0  0  0  0  0  0
    1.9623   12.8518   -8.6849 H   0  0  0  0  0  0  0  0  0  0  0  0
    0.9899   13.0086  -10.1870 H   0  0  0  0  0  0  0  0  0  0  0  0
    2.7243   13.4760  -10.1870 H   0  0  0  0  0  0  0  0  0  0  0  0
    2.1781   16.8127   -9.5592 H   0  0  0  0  0  0  0  0  0  0  0  0
    2.6677   15.5823  -10.7729 H   0  0  0  0  0  0  0  0  0  0  0  0
    0.9908   16.2263  -10.7729 H   0  0  0  0  0  0  0  0  0  0  0  0
   -0.1107   12.7471   -4.6973 H   0  0  0  0  0  0  0  0  0  0  0  0
    1.7910   11.4385   -5.4075 H   0  0  0  0  0  0  0  0  0  0  0  0
    2.8487   12.1673   -4.1798 H   0  0  0  0  0  0  0  0  0  0  0  0
    1.7106    9.5490   -4.0490 H   0  0  0  0  0  0  0  0  0  0  0  0
    2.4296   10.3826   -2.6739 H   0  0  0  0  0  0  0  0  0  0  0  0
   -1.6269    9.7117   -3.5068 H   0  0  0  0  0  0  0  0  0  0  0  0
   -1.0331   11.0137   -4.5925 H   0  0  0  0  0  0  0  0  0  0  0  0
   -0.2284    9.4077   -4.5925 H   0  0  0  0  0  0  0  0  0  0  0  0
    0.8150   10.2571   -0.8731 H   0  0  0  0  0  0  0  0  0  0  0  0
    0.8099    8.1188   -2.3118 H   0  0  0  0  0  0  0  0  0  0  0  0
    0.3583    8.0676   -0.5278 H   0  0  0  0  0  0  0  0  0  0  0  0
   -1.1260    6.6147   -2.1480 H   0  0  0  0  0  0  0  0  0  0  0  0
   -2.8949   10.2438   -2.2027 H   0  0  0  0  0  0  0  0  0  0  0  0
   -3.5396    9.1187    0.5924 H   0  0  0  0  0  0  0  0  0  0  0  0
   -4.0375   10.7363   -0.0761 H   0  0  0  0  0  0  0  0  0  0  0  0
   -5.8893    9.0955   -0.1173 H   0  0  0  0  0  0  0  0  0  0  0  0
   -5.4026    9.6523   -1.7658 H   0  0  0  0  0  0  0  0  0  0  0  0
   -5.7702    7.2815   -1.8317 H   0  0  0  0  0  0  0  0  0  0  0  0
   -4.4210    5.9270   -0.4370 H   0  0  0  0  0  0  0  0  0  0  0  0
   -4.6988    8.9665   -3.5254 H   0  0  0  0  0  0  0  0  0  0  0  0
   -3.1861    8.3251   -4.2513 H   0  0  0  0  0  0  0  0  0  0  0  0
   -4.6773    7.3235   -4.2513 H   0  0  0  0  0  0  0  0  0  0  0  0
   -3.3929    5.4291   -1.5844 H   0  0  0  0  0  0  0  0  0  0  0  0
   -4.3160    5.5357   -3.1216 H   0  0  0  0  0  0  0  0  0  0  0  0
   -2.5385    5.7945   -3.1216 H   0  0  0  0  0  0  0  0  0  0  0  0
   -1.6237   10.8545    1.3620 H   0  0  0  0  0  0  0  0  0  0  0  0
   -1.6357    9.0982    0.9851 H   0  0  0  0  0  0  0  0  0  0  0  0
   -0.0858   10.0063    0.9851 H   0  0  0  0  0  0  0  0  0  0  0  0
   -2.6383   12.1419   -0.6859 H   0  0  0  0  0  0  0  0  0  0  0  0
   -0.8967   12.3762   -0.0966 H   0  0  0  0  0  0  0  0  0  0  0  0
   -1.8899   12.3338   -2.9596 H   0  0  0  0  0  0  0  0  0  0  0  0
   -1.1817   13.7131   -2.0313 H   0  0  0  0  0  0  0  0  0  0  0  0
    0.8266   12.4921   -0.5159 H   0  0  0  0  0  0  0  0  0  0  0  0
    2.1990   12.1688   -1.6288 H   0  0  0  0  0  0  0  0  0  0  0  0
    1.4028   13.7790   -1.6288 H   0  0  0  0  0  0  0  0  0  0  0  0
  1  2  1  0
  2  3  1  0
  3  4  1  0
  4  5  1  0
  5  6  1  0
  6  7  1  0
  7  8  1  0
  7  9  1  0
  2 10  1  0
 10 11  1  0
 11 12  1  0
 12 13  1  0
 13 14  1  6
 13 15  1  0
 15 16  1  0
 16 17  1  0
 17 18  2  0
 18 19  1  0
 19 20  1  0
 20 21  1  0
 21 22  1  0
 22 23  1  0
 22 24  1  0
 24 25  1  0
 24 26  1  0
 19 27  1  0
 27 28  1  1
 27 29  1  0
 29 30  1  0
 30 31  1  0
 31 32  1  1
  7  5  1  0
 31 10  1  0
 31 13  1  0
 27 15  1  0
 24 18  1  0
  1 33  1  0
  1 34  1  0
  1 35  1  0
  2 36  1  6
  3 37  1  0
  3 38  1  0
  4 39  1  0
  4 40  1  0
  5 41  1  1
  8 42  1  0
  8 43  1  0
  8 44  1  0
  9 45  1  0
  9 46  1  0
  9 47  1  0
 10 48  1  6
 11 49  1  0
 11 50  1  0
 12 51  1  0
 12 52  1  0
 14 53  1  0
 14 54  1  0
 14 55  1  0
 15 56  1  1
 16 57  1  0
 16 58  1  0
 17 59  1  0
 19 60  1  6
 20 61  1  0
 20 62  1  0
 21 63  1  0
 21 64  1  0
 22 65  1  6
 23 66  1  0
 25 67  1  0
 25 68  1  0
 25 69  1  0
 26 70  1  0
 26 71  1  0
 26 72  1  0
 28 73  1  0
 28 74  1  0
 28 75  1  0
 29 76  1  0
 29 77  1  0
 30 78  1  0
 30 79  1  0
 32 80  1  0
 32 81  1  0
 32 82  1  0
M  END
>  <meeko>  (17) 
{"is_sidechain": [false], "intermolecular_energy": 2.731, "internal_energy": -0.839}

$$$$
EPH_relaxed_0001_pdb2pqr_Repair_124_r2_0001_out
     RDKit          3D

 82 86  0  0  0  0  0  0  0  0999 V2000
   -2.2370    9.7230   -0.2700 C   0  0  0  0  0  0  0  0  0  0  0  0
   -1.6120   10.5750   -1.3780 C   0  0  2  0  0  0  0  0  0  0  0  0
   -0.6390    9.7630   -2.2560 C   0  0  0  0  0  0  0  0  0  0  0  0
    0.7490    9.5850   -1.6340 C   0  0  0  0  0  0  0  0  0  0  0  0
    1.8330   10.0620   -2.5520 C   0  0  2  0  0  0  0  0  0  0  0  0
    2.9620    9.1840   -2.6510 O   0  0  0  0  0  0  0  0  0  0  0  0
    3.2120   10.4760   -2.0740 C   0  0  0  0  0  0  0  0  0  0  0  0
    3.5810   10.4340   -0.6240 C   0  0  0  0  0  0  0  0  0  0  0  0
    4.0310   11.3770   -2.9450 C   0  0  0  0  0  0  0  0  0  0  0  0
   -0.8900   11.7710   -0.7690 C   0  0  1  0  0  0  0  0  0  0  0  0
    0.2700   11.3530    0.1730 C   0  0  0  0  0  0  0  0  0  0  0  0
    1.3850   12.4170    0.0080 C   0  0  0  0  0  0  0  0  0  0  0  0
    0.7080   13.5770   -0.7580 C   0  0  1  0  0  0  0  0  0  0  0  0
   -0.0700   14.3780    0.3330 C   0  0  0  0  0  0  0  0  0  0  0  0
    1.6550   14.5030   -1.5890 C   0  0  2  0  0  0  0  0  0  0  0  0
    2.7000   15.2750   -0.7650 C   0  0  0  0  0  0  0  0  0  0  0  0
    2.2680   16.6200   -0.2840 C   0  0  0  0  0  0  0  0  0  0  0  0
    1.2030   17.3070   -0.7380 C   0  0  0  0  0  0  0  0  0  0  0  0
    0.3630   16.7770   -1.9070 C   0  0  1  0  0  0  0  0  0  0  0  0
    0.1050   17.9230   -2.9200 C   0  0  0  0  0  0  0  0  0  0  0  0
   -0.5170   19.1530   -2.2670 C   0  0  0  0  0  0  0  0  0  0  0  0
    0.3750   19.6860   -1.1480 C   0  0  2  0  0  0  0  0  0  0  0  0
    1.5860   20.1870   -1.7230 O   0  0  0  0  0  0  0  0  0  0  0  0
    0.7120   18.6160   -0.0710 C   0  0  0  0  0  0  0  0  0  0  0  0
   -0.5570   18.2940    0.7560 C   0  0  0  0  0  0  0  0  0  0  0  0
    1.7300   19.2410    0.9200 C   0  0  0  0  0  0  0  0  0  0  0  0
    0.9030   15.4550   -2.6050 C   0  0  1  0  0  0  0  0  0  0  0  0
    1.9330   15.8230   -3.7160 C   0  0  0  0  0  0  0  0  0  0  0  0
   -0.2930   14.7310   -3.3290 C   0  0  0  0  0  0  0  0  0  0  0  0
   -1.1170   13.7390   -2.4880 C   0  0  0  0  0  0  0  0  0  0  0  0
   -0.2040   12.7600   -1.7440 C   0  0  2  0  0  0  0  0  0  0  0  0
    0.5750   11.9240   -2.8170 C   0  0  0  0  0  0  0  0  0  0  0  0
   -1.9428   10.1241    0.7111 H   0  0  0  0  0  0  0  0  0  0  0  0
   -3.3328    9.7476   -0.3625 H   0  0  0  0  0  0  0  0  0  0  0  0
   -1.8845    8.6851   -0.3625 H   0  0  0  0  0  0  0  0  0  0  0  0
   -2.4284   10.9247   -2.0270 H   0  0  0  0  0  0  0  0  0  0  0  0
   -1.0736    8.7669   -2.4263 H   0  0  0  0  0  0  0  0  0  0  0  0
   -0.5026   10.3267   -3.1907 H   0  0  0  0  0  0  0  0  0  0  0  0
    0.7963   10.1600   -0.6974 H   0  0  0  0  0  0  0  0  0  0  0  0
    0.9057    8.5125   -1.4465 H   0  0  0  0  0  0  0  0  0  0  0  0
    1.0973   10.5594   -3.2012 H   0  0  0  0  0  0  0  0  0  0  0  0
    2.6732   10.5373   -0.0115 H   0  0  0  0  0  0  0  0  0  0  0  0
    4.0689    9.4745   -0.3975 H   0  0  0  0  0  0  0  0  0  0  0  0
    4.2721   11.2593   -0.3975 H   0  0  0  0  0  0  0  0  0  0  0  0
    4.6374   12.0442   -2.3148 H   0  0  0  0  0  0  0  0  0  0  0  0
    4.6933   10.7703   -3.5801 H   0  0  0  0  0  0  0  0  0  0  0  0
    3.3641   11.9786   -3.5801 H   0  0  0  0  0  0  0  0  0  0  0  0
   -1.7379   12.2628   -0.2698 H   0  0  0  0  0  0  0  0  0  0  0  0
   -0.0789   11.3285    1.2159 H   0  0  0  0  0  0  0  0  0  0  0  0
    0.6416   10.3489   -0.0793 H   0  0  0  0  0  0  0  0  0  0  0  0
    1.7446   12.7579    0.9901 H   0  0  0  0  0  0  0  0  0  0  0  0
    2.2627   12.0219   -0.5246 H   0  0  0  0  0  0  0  0  0  0  0  0
    0.2522   14.0462    1.3310 H   0  0  0  0  0  0  0  0  0  0  0  0
    0.1391   15.4518    0.2183 H   0  0  0  0  0  0  0  0  0  0  0  0
   -1.1495   14.2003    0.2183 H   0  0  0  0  0  0  0  0  0  0  0  0
    2.2238   13.7790   -2.1909 H   0  0  0  0  0  0  0  0  0  0  0  0
    2.9563   14.6660    0.1145 H   0  0  0  0  0  0  0  0  0  0  0  0
    3.5490   15.4528   -1.4415 H   0  0  0  0  0  0  0  0  0  0  0  0
    2.8702   17.0894    0.5078 H   0  0  0  0  0  0  0  0  0  0  0  0
   -0.5900   16.4431   -1.4707 H   0  0  0  0  0  0  0  0  0  0  0  0
    1.0632   18.2126   -3.3761 H   0  0  0  0  0  0  0  0  0  0  0  0
   -0.6054   17.5495   -3.6722 H   0  0  0  0  0  0  0  0  0  0  0  0
   -0.6480   19.9370   -3.0274 H   0  0  0  0  0  0  0  0  0  0  0  0
   -1.4886   18.8688   -1.8366 H   0  0  0  0  0  0  0  0  0  0  0  0
   -0.1812   20.4841   -0.6345 H   0  0  0  0  0  0  0  0  0  0  0  0
    1.8970   19.5320   -2.3700 H   0  0  0  0  0  0  0  0  0  0  0  0
   -0.3206   18.3540    1.8286 H   0  0  0  0  0  0  0  0  0  0  0  0
   -1.3468   19.0202    0.5134 H   0  0  0  0  0  0  0  0  0  0  0  0
   -0.9050   17.2791    0.5134 H   0  0  0  0  0  0  0  0  0  0  0  0
    1.4062   19.0422    1.9523 H   0  0  0  0  0  0  0  0  0  0  0  0
    2.7226   18.7965    0.7550 H   0  0  0  0  0  0  0  0  0  0  0  0
    1.7827   20.3273    0.7550 H   0  0  0  0  0  0  0  0  0  0  0  0
    2.8712   16.1582   -3.2497 H   0  0  0  0  0  0  0  0  0  0  0  0
    2.1294   14.9394   -4.3411 H   0  0  0  0  0  0  0  0  0  0  0  0
    1.5251   16.6310   -4.3411 H   0  0  0  0  0  0  0  0  0  0  0  0
   -0.9803   15.5084   -3.6942 H   0  0  0  0  0  0  0  0  0  0  0  0
    0.1745   14.1212   -4.1162 H   0  0  0  0  0  0  0  0  0  0  0  0
   -1.7164   14.2995   -1.7555 H   0  0  0  0  0  0  0  0  0  0  0  0
   -1.7702   13.1658   -3.1624 H   0  0  0  0  0  0  0  0  0  0  0  0
    1.2412   11.2091   -2.3120 H   0  0  0  0  0  0  0  0  0  0  0  0
   -0.1419   11.3758   -3.4460 H   0  0  0  0  0  0  0  0  0  0  0  0
    1.1723   12.6004   -3.4460 H   0  0  0  0  0  0  0  0  0  0  0  0
  1  2  1  0
  2  3  1  0
  3  4  1  0
  4  5  1  0
  5  6  1  0
  6  7  1  0
  7  8  1  0
  7  9  1  0
  2 10  1  0
 10 11  1  0
 11 12  1  0
 12 13  1  0
 13 14  1  1
 13 15  1  0
 15 16  1  0
 16 17  1  0
 17 18  2  0
 18 19  1  0
 19 20  1  0
 20 21  1  0
 21 22  1  0
 22 23  1  0
 22 24  1  0
 24 25  1  0
 24 26  1  0
 19 27  1  0
 27 28  1  6
 27 29  1  0
 29 30  1  0
 30 31  1  0
 31 32  1  6
  7  5  1  0
 31 10  1  0
 31 13  1  0
 27 15  1  0
 24 18  1  0
  1 33  1  0
  1 34  1  0
  1 35  1  0
  2 36  1  6
  3 37  1  0
  3 38  1  0
  4 39  1  0
  4 40  1  0
  5 41  1  6
  8 42  1  0
  8 43  1  0
  8 44  1  0
  9 45  1  0
  9 46  1  0
  9 47  1  0
 10 48  1  1
 11 49  1  0
 11 50  1  0
 12 51  1  0
 12 52  1  0
 14 53  1  0
 14 54  1  0
 14 55  1  0
 15 56  1  6
 16 57  1  0
 16 58  1  0
 17 59  1  0
 19 60  1  1
 20 61  1  0
 20 62  1  0
 21 63  1  0
 21 64  1  0
 22 65  1  1
 23 66  1  0
 25 67  1  0
 25 68  1  0
 25 69  1  0
 26 70  1  0
 26 71  1  0
 26 72  1  0
 28 73  1  0
 28 74  1  0
 28 75  1  0
 29 76  1  0
 29 77  1  0
 30 78  1  0
 30 79  1  0
 32 80  1  0
 32 81  1  0
 32 82  1  0
M  END
>  <meeko>  (18) 
{"is_sidechain": [false], "intermolecular_energy": 2.731, "internal_energy": -0.839}

$$$$
EPH_relaxed_0001_pdb2pqr_Repair_124_r2_0001_out
     RDKit          3D

 82 86  0  0  0  0  0  0  0  0999 V2000
   -2.0930    7.7640    0.0640 C   0  0  0  0  0  0  0  0  0  0  0  0
   -2.7820    9.1310    0.0490 C   0  0  2  0  0  0  0  0  0  0  0  0
   -4.2870    9.0200   -0.2660 C   0  0  0  0  0  0  0  0  0  0  0  0
   -4.6280    7.9040   -1.2570 C   0  0  0  0  0  0  0  0  0  0  0  0
   -6.1020    7.6380   -1.3070 C   0  0  2  0  0  0  0  0  0  0  0  0
   -6.4700    6.2660   -1.1170 O   0  0  0  0  0  0  0  0  0  0  0  0
   -6.7700    6.8300   -2.4040 C   0  0  0  0  0  0  0  0  0  0  0  0
   -5.9790    6.2370   -3.5270 C   0  0  0  0  0  0  0  0  0  0  0  0
   -8.2330    7.0280   -2.6490 C   0  0  0  0  0  0  0  0  0  0  0  0
   -2.1030   10.0440   -0.9660 C   0  0  1  0  0  0  0  0  0  0  0  0
   -2.8190   11.4130   -1.1110 C   0  0  0  0  0  0  0  0  0  0  0  0
   -1.7150   12.4700   -1.3710 C   0  0  0  0  0  0  0  0  0  0  0  0
   -0.4510   11.6410   -1.6970 C   0  0  1  0  0  0  0  0  0  0  0  0
   -0.6050   11.2480   -3.1990 C   0  0  0  0  0  0  0  0  0  0  0  0
    0.9220   12.3370   -1.4200 C   0  0  2  0  0  0  0  0  0  0  0  0
    1.1890   13.6060   -2.2480 C   0  0  0  0  0  0  0  0  0  0  0  0
    1.8830   13.3830   -3.5510 C   0  0  0  0  0  0  0  0  0  0  0  0
    2.5290   12.2590   -3.9110 C   0  0  0  0  0  0  0  0  0  0  0  0
    2.6910   11.0940   -2.9250 C   0  0  1  0  0  0  0  0  0  0  0  0
    4.1590   10.5930   -2.9530 C   0  0  0  0  0  0  0  0  0  0  0  0
    4.6290   10.2370   -4.3600 C   0  0  0  0  0  0  0  0  0  0  0  0
    4.5070   11.4360   -5.2960 C   0  0  2  0  0  0  0  0  0  0  0  0
    5.4340   12.4430   -4.8780 O   0  0  0  0  0  0  0  0  0  0  0  0
    3.0720   12.0340   -5.3430 C   0  0  0  0  0  0  0  0  0  0  0  0
    2.1240   11.0520   -6.0750 C   0  0  0  0  0  0  0  0  0  0  0  0
    3.1190   13.3200   -6.2110 C   0  0  0  0  0  0  0  0  0  0  0  0
    2.1630   11.3560   -1.4490 C   0  0  1  0  0  0  0  0  0  0  0  0
    3.2820   12.0280   -0.5960 C   0  0  0  0  0  0  0  0  0  0  0  0
    1.8500    9.9740   -0.7630 C   0  0  0  0  0  0  0  0  0  0  0  0
    0.4380    9.3960   -0.9750 C   0  0  0  0  0  0  0  0  0  0  0  0
   -0.6350   10.4510   -0.6860 C   0  0  2  0  0  0  0  0  0  0  0  0
   -0.5190   10.8500    0.8250 C   0  0  0  0  0  0  0  0  0  0  0  0
   -1.9326    7.4457    1.1046 H   0  0  0  0  0  0  0  0  0  0  0  0
   -2.7277    7.0278   -0.4509 H   0  0  0  0  0  0  0  0  0  0  0  0
   -1.1237    7.8363   -0.4509 H   0  0  0  0  0  0  0  0  0  0  0  0
   -2.6872    9.5602    1.0574 H   0  0  0  0  0  0  0  0  0  0  0  0
   -4.8250    8.8263    0.6737 H   0  0  0  0  0  0  0  0  0  0  0  0
   -4.5881    9.9687   -0.7344 H   0  0  0  0  0  0  0  0  0  0  0  0
   -4.2851    8.2003   -2.2593 H   0  0  0  0  0  0  0  0  0  0  0  0
   -4.1248    6.9843   -0.9240 H   0  0  0  0  0  0  0  0  0  0  0  0
   -6.3188    8.6307   -0.8857 H   0  0  0  0  0  0  0  0  0  0  0  0
   -5.1623    5.6247   -3.1169 H   0  0  0  0  0  0  0  0  0  0  0  0
   -6.6353    5.6065   -4.1449 H   0  0  0  0  0  0  0  0  0  0  0  0
   -5.5578    7.0438   -4.1449 H   0  0  0  0  0  0  0  0  0  0  0  0
   -8.7597    7.0993   -1.6859 H   0  0  0  0  0  0  0  0  0  0  0  0
   -8.3869    7.9552   -3.2206 H   0  0  0  0  0  0  0  0  0  0  0  0
   -8.6278    6.1751   -3.2206 H   0  0  0  0  0  0  0  0  0  0  0  0
   -2.1515    9.3987   -1.8555 H   0  0  0  0  0  0  0  0  0  0  0  0
   -3.5228   11.3847   -1.9559 H   0  0  0  0  0  0  0  0  0  0  0  0
   -3.3931   11.6563   -0.2048 H   0  0  0  0  0  0  0  0  0  0  0  0
   -1.9865   13.1144   -2.2201 H   0  0  0  0  0  0  0  0  0  0  0  0
   -1.5655   13.1378   -0.5098 H   0  0  0  0  0  0  0  0  0  0  0  0
   -1.0055   10.2260   -3.2714 H   0  0  0  0  0  0  0  0  0  0  0  0
   -1.2953   11.9481   -3.6923 H   0  0  0  0  0  0  0  0  0  0  0  0
    0.3772   11.2928   -3.6923 H   0  0  0  0  0  0  0  0  0  0  0  0
    0.8085   12.6775   -0.3802 H   0  0  0  0  0  0  0  0  0  0  0  0
    0.2213   14.0859   -2.4561 H   0  0  0  0  0  0  0  0  0  0  0  0
    1.8676   14.2263   -1.6440 H   0  0  0  0  0  0  0  0  0  0  0  0
    1.8646   14.2078   -4.2786 H   0  0  0  0  0  0  0  0  0  0  0  0
    2.0184   10.2991   -3.2798 H   0  0  0  0  0  0  0  0  0  0  0  0
    4.8096   11.3851   -2.5538 H   0  0  0  0  0  0  0  0  0  0  0  0
    4.2117    9.6796   -2.3423 H   0  0  0  0  0  0  0  0  0  0  0  0
    5.6811    9.9186   -4.3182 H   0  0  0  0  0  0  0  0  0  0  0  0
    3.9961    9.4245   -4.7463 H   0  0  0  0  0  0  0  0  0  0  0  0
    4.7336   11.0845   -6.3134 H   0  0  0  0  0  0  0  0  0  0  0  0
    5.2750   12.6150   -3.9340 H   0  0  0  0  0  0  0  0  0  0  0  0
    1.5591   10.4669   -5.3343 H   0  0  0  0  0  0  0  0  0  0  0  0
    1.4236   11.6196   -6.7053 H   0  0  0  0  0  0  0  0  0  0  0  0
    2.7160   10.3720   -6.7053 H   0  0  0  0  0  0  0  0  0  0  0  0
    3.1513   14.2033   -5.5562 H   0  0  0  0  0  0  0  0  0  0  0  0
    4.0171   13.3012   -6.8459 H   0  0  0  0  0  0  0  0  0  0  0  0
    2.2220   13.3668   -6.8459 H   0  0  0  0  0  0  0  0  0  0  0  0
    3.0588   11.8939    0.4727 H   0  0  0  0  0  0  0  0  0  0  0  0
    4.2507   11.5621   -0.8295 H   0  0  0  0  0  0  0  0  0  0  0  0
    3.3259   13.1020   -0.8295 H   0  0  0  0  0  0  0  0  0  0  0  0
    2.5716    9.2396   -1.1502 H   0  0  0  0  0  0  0  0  0  0  0  0
    1.9223   10.1668    0.3176 H   0  0  0  0  0  0  0  0  0  0  0  0
    0.3398    9.0590   -2.0175 H   0  0  0  0  0  0  0  0  0  0  0  0
    0.2964    8.5527   -0.2830 H   0  0  0  0  0  0  0  0  0  0  0  0
   -0.7710    9.9831    1.4535 H   0  0  0  0  0  0  0  0  0  0  0  0
    0.5102   11.1727    1.0410 H   0  0  0  0  0  0  0  0  0  0  0  0
   -1.2147   11.6742    1.0410 H   0  0  0  0  0  0  0  0  0  0  0  0
  1  2  1  0
  2  3  1  0
  3  4  1  0
  4  5  1  0
  5  6  1  0
  6  7  1  0
  7  8  1  0
  7  9  1  0
  2 10  1  0
 10 11  1  0
 11 12  1  0
 12 13  1  0
 13 14  1  6
 13 15  1  0
 15 16  1  0
 16 17  1  0
 17 18  2  0
 18 19  1  0
 19 20  1  0
 20 21  1  0
 21 22  1  0
 22 23  1  0
 22 24  1  0
 24 25  1  0
 24 26  1  0
 19 27  1  0
 27 28  1  1
 27 29  1  0
 29 30  1  0
 30 31  1  0
 31 32  1  1
  7  5  1  0
 31 10  1  0
 31 13  1  0
 27 15  1  0
 24 18  1  0
  1 33  1  0
  1 34  1  0
  1 35  1  0
  2 36  1  1
  3 37  1  0
  3 38  1  0
  4 39  1  0
  4 40  1  0
  5 41  1  1
  8 42  1  0
  8 43  1  0
  8 44  1  0
  9 45  1  0
  9 46  1  0
  9 47  1  0
 10 48  1  6
 11 49  1  0
 11 50  1  0
 12 51  1  0
 12 52  1  0
 14 53  1  0
 14 54  1  0
 14 55  1  0
 15 56  1  1
 16 57  1  0
 16 58  1  0
 17 59  1  0
 19 60  1  6
 20 61  1  0
 20 62  1  0
 21 63  1  0
 21 64  1  0
 22 65  1  6
 23 66  1  0
 25 67  1  0
 25 68  1  0
 25 69  1  0
 26 70  1  0
 26 71  1  0
 26 72  1  0
 28 73  1  0
 28 74  1  0
 28 75  1  0
 29 76  1  0
 29 77  1  0
 30 78  1  0
 30 79  1  0
 32 80  1  0
 32 81  1  0
 32 82  1  0
M  END
>  <meeko>  (19) 
{"is_sidechain": [false], "intermolecular_energy": 2.731, "internal_energy": -0.839}

$$$$
