EPH_relaxed_0001_pdb2pqr_Repair_236_r2_0001_out
     RDKit          3D

 82 86  0  0  0  0  0  0  0  0999 V2000
   -1.6910    8.5860   -1.8900 C   0  0  0  0  0  0  0  0  0  0  0  0
   -2.0680    9.1070   -0.5000 C   0  0  2  0  0  0  0  0  0  0  0  0
   -3.5620    9.4750   -0.4020 C   0  0  0  0  0  0  0  0  0  0  0  0
   -4.4880    8.2620   -0.2760 C   0  0  0  0  0  0  0  0  0  0  0  0
   -5.1790    7.9550   -1.5700 C   0  0  2  0  0  0  0  0  0  0  0  0
   -6.3580    8.7330   -1.8180 O   0  0  0  0  0  0  0  0  0  0  0  0
   -6.5540    7.3200   -1.6530 C   0  0  0  0  0  0  0  0  0  0  0  0
   -7.3200    6.9510   -0.4210 C   0  0  0  0  0  0  0  0  0  0  0  0
   -6.9410    6.6140   -2.9150 C   0  0  0  0  0  0  0  0  0  0  0  0
   -1.2090   10.3160   -0.1480 C   0  0  1  0  0  0  0  0  0  0  0  0
   -0.1710   10.0080    0.9640 C   0  0  0  0  0  0  0  0  0  0  0  0
    1.0950   10.8410    0.6360 C   0  0  0  0  0  0  0  0  0  0  0  0
    0.6340   11.8410   -0.4490 C   0  0  1  0  0  0  0  0  0  0  0  0
   -0.0710   12.9900    0.3380 C   0  0  0  0  0  0  0  0  0  0  0  0
    1.7470   12.3910   -1.4000 C   0  0  2  0  0  0  0  0  0  0  0  0
    2.8520   13.2070   -0.7070 C   0  0  0  0  0  0  0  0  0  0  0  0
    2.5980   14.6750   -0.6150 C   0  0  0  0  0  0  0  0  0  0  0  0
    1.6700   15.3540   -1.3150 C   0  0  0  0  0  0  0  0  0  0  0  0
    0.8210   14.6530   -2.3830 C   0  0  1  0  0  0  0  0  0  0  0  0
    0.7840   15.5220   -3.6670 C   0  0  0  0  0  0  0  0  0  0  0  0
    0.3190   16.9490   -3.3960 C   0  0  0  0  0  0  0  0  0  0  0  0
    1.2220   17.6320   -2.3720 C   0  0  2  0  0  0  0  0  0  0  0  0
    2.5210   17.8070   -2.9480 O   0  0  0  0  0  0  0  0  0  0  0  0
    1.3440   16.8420   -1.0390 C   0  0  0  0  0  0  0  0  0  0  0  0
    0.0020   16.9120   -0.2690 C   0  0  0  0  0  0  0  0  0  0  0  0
    2.3920   17.5650   -0.1500 C   0  0  0  0  0  0  0  0  0  0  0  0
    1.1950   13.1370   -2.6810 C   0  0  1  0  0  0  0  0  0  0  0  0
    2.3220   13.0690   -3.7570 C   0  0  0  0  0  0  0  0  0  0  0  0
   -0.0570   12.4120   -3.3030 C   0  0  0  0  0  0  0  0  0  0  0  0
   -1.0590   11.7850   -2.3150 C   0  0  0  0  0  0  0  0  0  0  0  0
   -0.3370   10.9220   -1.2760 C   0  0  2  0  0  0  0  0  0  0  0  0
    0.3630    9.7440   -2.0360 C   0  0  0  0  0  0  0  0  0  0  0  0
   -1.0490    7.6987   -1.7873 H   0  0  0  0  0  0  0  0  0  0  0  0
   -2.6043    8.3160   -2.4405 H   0  0  0  0  0  0  0  0  0  0  0  0
   -1.1490    9.3691   -2.4405 H   0  0  0  0  0  0  0  0  0  0  0  0
   -1.8811    8.2958    0.2190 H   0  0  0  0  0  0  0  0  0  0  0  0
   -3.7049   10.1142    0.4817 H   0  0  0  0  0  0  0  0  0  0  0  0
   -3.8289    9.9872   -1.3382 H   0  0  0  0  0  0  0  0  0  0  0  0
   -3.8918    7.3882    0.0257 H   0  0  0  0  0  0  0  0  0  0  0  0
   -5.2563    8.4939    0.4763 H   0  0  0  0  0  0  0  0  0  0  0  0
   -4.2211    7.7066   -2.0504 H   0  0  0  0  0  0  0  0  0  0  0  0
   -6.7386    7.2311    0.4698 H   0  0  0  0  0  0  0  0  0  0  0  0
   -8.2819    7.4845   -0.4138 H   0  0  0  0  0  0  0  0  0  0  0  0
   -7.5023    5.8662   -0.4138 H   0  0  0  0  0  0  0  0  0  0  0  0
   -7.4561    5.6744   -2.6663 H   0  0  0  0  0  0  0  0  0  0  0  0
   -7.6132    7.2561   -3.5030 H   0  0  0  0  0  0  0  0  0  0  0  0
   -6.0381    6.3927   -3.5030 H   0  0  0  0  0  0  0  0  0  0  0  0
   -1.9989   11.0258    0.1388 H   0  0  0  0  0  0  0  0  0  0  0  0
   -0.5712   10.2978    1.9468 H   0  0  0  0  0  0  0  0  0  0  0  0
    0.0614    8.9335    1.0012 H   0  0  0  0  0  0  0  0  0  0  0  0
    1.4510   11.3745    1.5296 H   0  0  0  0  0  0  0  0  0  0  0  0
    1.9311   10.2125    0.2956 H   0  0  0  0  0  0  0  0  0  0  0  0
    0.0369   12.8142    1.4185 H   0  0  0  0  0  0  0  0  0  0  0  0
    0.3922   13.9524    0.0750 H   0  0  0  0  0  0  0  0  0  0  0  0
   -1.1389   13.0130    0.0750 H   0  0  0  0  0  0  0  0  0  0  0  0
    2.2325   11.4691   -1.7526 H   0  0  0  0  0  0  0  0  0  0  0  0
    2.9715   12.8180    0.3150 H   0  0  0  0  0  0  0  0  0  0  0  0
    3.7512   13.0922   -1.3301 H   0  0  0  0  0  0  0  0  0  0  0  0
    3.2221   15.2509    0.0842 H   0  0  0  0  0  0  0  0  0  0  0  0
   -0.1912   14.5688   -1.9607 H   0  0  0  0  0  0  0  0  0  0  0  0
    1.7954   15.5569   -4.0981 H   0  0  0  0  0  0  0  0  0  0  0  0
    0.0635   15.0626   -4.3597 H   0  0  0  0  0  0  0  0  0  0  0  0
    0.3439   17.5203   -4.3357 H   0  0  0  0  0  0  0  0  0  0  0  0
   -0.7043   16.9144   -2.9939 H   0  0  0  0  0  0  0  0  0  0  0  0
    0.7639   18.6003   -2.1217 H   0  0  0  0  0  0  0  0  0  0  0  0
    3.1130   18.1270   -2.2470 H   0  0  0  0  0  0  0  0  0  0  0  0
    0.1992   16.9017    0.8131 H   0  0  0  0  0  0  0  0  0  0  0  0
   -0.5264   17.8389   -0.5366 H   0  0  0  0  0  0  0  0  0  0  0  0
   -0.6199   16.0451   -0.5366 H   0  0  0  0  0  0  0  0  0  0  0  0
    2.1507   17.3986    0.9102 H   0  0  0  0  0  0  0  0  0  0  0  0
    3.3938   17.1650   -0.3652 H   0  0  0  0  0  0  0  0  0  0  0  0
    2.3738   18.6436   -0.3652 H   0  0  0  0  0  0  0  0  0  0  0  0
    3.3011   13.0099   -3.2592 H   0  0  0  0  0  0  0  0  0  0  0  0
    2.1758   12.1780   -4.3853 H   0  0  0  0  0  0  0  0  0  0  0  0
    2.2840   13.9711   -4.3853 H   0  0  0  0  0  0  0  0  0  0  0  0
   -0.6036   13.1513   -3.9069 H   0  0  0  0  0  0  0  0  0  0  0  0
    0.3542   11.5651   -3.8719 H   0  0  0  0  0  0  0  0  0  0  0  0
   -1.6056   12.5879   -1.7987 H   0  0  0  0  0  0  0  0  0  0  0  0
   -1.7549   11.1465   -2.8789 H   0  0  0  0  0  0  0  0  0  0  0  0
    0.7838    9.0359   -1.3069 H   0  0  0  0  0  0  0  0  0  0  0  0
   -0.3738    9.2257   -2.6673 H   0  0  0  0  0  0  0  0  0  0  0  0
    1.1704   10.1434   -2.6673 H   0  0  0  0  0  0  0  0  0  0  0  0
  1  2  1  0
  2  3  1  0
  3  4  1  0
  4  5  1  0
  5  6  1  0
  6  7  1  0
  7  8  1  0
  7  9  1  0
  2 10  1  0
 10 11  1  0
 11 12  1  0
 12 13  1  0
 13 14  1  1
 13 15  1  0
 15 16  1  0
 16 17  1  0
 17 18  2  0
 18 19  1  0
 19 20  1  0
 20 21  1  0
 21 22  1  0
 22 23  1  0
 22 24  1  0
 24 25  1  0
 24 26  1  0
 19 27  1  0
 27 28  1  6
 27 29  1  0
 29 30  1  0
 30 31  1  0
 31 32  1  6
  7  5  1  0
 31 10  1  0
 31 13  1  0
 27 15  1  0
 24 18  1  0
  1 33  1  0
  1 34  1  0
  1 35  1  0
  2 36  1  1
  3 37  1  0
  3 38  1  0
  4 39  1  0
  4 40  1  0
  5 41  1  6
  8 42  1  0
  8 43  1  0
  8 44  1  0
  9 45  1  0
  9 46  1  0
  9 47  1  0
 10 48  1  1
 11 49  1  0
 11 50  1  0
 12 51  1  0
 12 52  1  0
 14 53  1  0
 14 54  1  0
 14 55  1  0
 15 56  1  6
 16 57  1  0
 16 58  1  0
 17 59  1  0
 19 60  1  1
 20 61  1  0
 20 62  1  0
 21 63  1  0
 21 64  1  0
 22 65  1  1
 23 66  1  0
 25 67  1  0
 25 68  1  0
 25 69  1  0
 26 70  1  0
 26 71  1  0
 26 72  1  0
 28 73  1  0
 28 74  1  0
 28 75  1  0
 29 76  1  0
 29 77  1  0
 30 78  1  0
 30 79  1  0
 32 80  1  0
 32 81  1  0
 32 82  1  0
M  END
>  <meeko>  (1) 
{"is_sidechain": [false], "intermolecular_energy": 2.731, "internal_energy": -0.839}

$$$$
EPH_relaxed_0001_pdb2pqr_Repair_236_r2_0001_out
     RDKit          3D

 82 86  0  0  0  0  0  0  0  0999 V2000
    4.2020   17.4950   -0.6810 C   0  0  0  0  0  0  0  0  0  0  0  0
    2.8440   18.0780   -0.2790 C   0  0  2  0  0  0  0  0  0  0  0  0
    2.8990   18.7890    1.0880 C   0  0  0  0  0  0  0  0  0  0  0  0
    4.2500   18.6580    1.7960 C   0  0  0  0  0  0  0  0  0  0  0  0
    4.1970   19.1950    3.1950 C   0  0  2  0  0  0  0  0  0  0  0  0
    5.1810   20.1940    3.4900 O   0  0  0  0  0  0  0  0  0  0  0  0
    5.2890   18.9630    4.2220 C   0  0  0  0  0  0  0  0  0  0  0  0
    6.5120   18.1650    3.8940 C   0  0  0  0  0  0  0  0  0  0  0  0
    4.9460   19.0930    5.6730 C   0  0  0  0  0  0  0  0  0  0  0  0
    1.7940   16.9740   -0.2500 C   0  0  1  0  0  0  0  0  0  0  0  0
    0.3680   17.4980   -0.5680 C   0  0  0  0  0  0  0  0  0  0  0  0
   -0.3560   16.3740   -1.3540 C   0  0  0  0  0  0  0  0  0  0  0  0
    0.5450   15.1300   -1.1750 C   0  0  1  0  0  0  0  0  0  0  0  0
    0.1700   14.5620    0.2300 C   0  0  0  0  0  0  0  0  0  0  0  0
    0.4400   14.0350   -2.2860 C   0  0  2  0  0  0  0  0  0  0  0  0
   -0.9420   13.3730   -2.4220 C   0  0  0  0  0  0  0  0  0  0  0  0
   -1.1470   12.1500   -1.5910 C   0  0  0  0  0  0  0  0  0  0  0  0
   -0.1740   11.4410   -0.9890 C   0  0  0  0  0  0  0  0  0  0  0  0
    1.3040   11.7980   -1.1960 C   0  0  1  0  0  0  0  0  0  0  0  0
    2.1110   10.5070   -1.4930 C   0  0  0  0  0  0  0  0  0  0  0  0
    1.9140    9.4350   -0.4260 C   0  0  0  0  0  0  0  0  0  0  0  0
    0.4390    9.0650   -0.2900 C   0  0  2  0  0  0  0  0  0  0  0  0
    0.0130    8.4210   -1.4950 O   0  0  0  0  0  0  0  0  0  0  0  0
   -0.4750   10.2880    0.0010 C   0  0  0  0  0  0  0  0  0  0  0  0
   -0.2160   10.8020    1.4380 C   0  0  0  0  0  0  0  0  0  0  0  0
   -1.9480    9.8000   -0.0270 C   0  0  0  0  0  0  0  0  0  0  0  0
    1.5970   12.9560   -2.2440 C   0  0  1  0  0  0  0  0  0  0  0  0
    1.7010   12.3600   -3.6810 C   0  0  0  0  0  0  0  0  0  0  0  0
    3.0000   13.5950   -1.9250 C   0  0  0  0  0  0  0  0  0  0  0  0
    3.0210   14.7520   -0.9080 C   0  0  0  0  0  0  0  0  0  0  0  0
    1.9630   15.8040   -1.2520 C   0  0  2  0  0  0  0  0  0  0  0  0
    2.3260   16.4090   -2.6510 C   0  0  0  0  0  0  0  0  0  0  0  0
    4.7773   17.2480    0.2235 H   0  0  0  0  0  0  0  0  0  0  0  0
    4.0477   16.5838   -1.2776 H   0  0  0  0  0  0  0  0  0  0  0  0
    4.7564   18.2344   -1.2776 H   0  0  0  0  0  0  0  0  0  0  0  0
    2.5709   18.8319   -1.0320 H   0  0  0  0  0  0  0  0  0  0  0  0
    2.6908   19.8578    0.9321 H   0  0  0  0  0  0  0  0  0  0  0  0
    2.1502   18.3051    1.7323 H   0  0  0  0  0  0  0  0  0  0  0  0
    4.5319   17.5954    1.8324 H   0  0  0  0  0  0  0  0  0  0  0  0
    4.9911   19.2432    1.2318 H   0  0  0  0  0  0  0  0  0  0  0  0
    3.1067   19.0543    3.2329 H   0  0  0  0  0  0  0  0  0  0  0  0
    7.0020   17.8453    4.8255 H   0  0  0  0  0  0  0  0  0  0  0  0
    6.2256   17.2794    3.3077 H   0  0  0  0  0  0  0  0  0  0  0  0
    7.2072   18.7838    3.3077 H   0  0  0  0  0  0  0  0  0  0  0  0
    5.8022   18.7685    6.2827 H   0  0  0  0  0  0  0  0  0  0  0  0
    4.7102   20.1429    5.9014 H   0  0  0  0  0  0  0  0  0  0  0  0
    4.0736   18.4632    5.9014 H   0  0  0  0  0  0  0  0  0  0  0  0
    1.9365   16.6112    0.7786 H   0  0  0  0  0  0  0  0  0  0  0  0
   -0.1722   17.7164    0.3650 H   0  0  0  0  0  0  0  0  0  0  0  0
    0.4102   18.4270   -1.1555 H   0  0  0  0  0  0  0  0  0  0  0  0
   -1.3573   16.1915   -0.9368 H   0  0  0  0  0  0  0  0  0  0  0  0
   -0.5031   16.6336   -2.4128 H   0  0  0  0  0  0  0  0  0  0  0  0
    0.5962   15.2075    1.0121 H   0  0  0  0  0  0  0  0  0  0  0  0
   -0.9247   14.5340    0.3339 H   0  0  0  0  0  0  0  0  0  0  0  0
    0.5743   13.5443    0.3339 H   0  0  0  0  0  0  0  0  0  0  0  0
    0.5821   14.6195   -3.2070 H   0  0  0  0  0  0  0  0  0  0  0  0
   -1.7032   14.1124   -2.1324 H   0  0  0  0  0  0  0  0  0  0  0  0
   -1.0216   13.0465   -3.4694 H   0  0  0  0  0  0  0  0  0  0  0  0
   -2.1809   11.7983   -1.4594 H   0  0  0  0  0  0  0  0  0  0  0  0
    1.6457   12.2423   -0.2495 H   0  0  0  0  0  0  0  0  0  0  0  0
    1.7854   10.1030   -2.4629 H   0  0  0  0  0  0  0  0  0  0  0  0
    3.1777   10.7753   -1.5035 H   0  0  0  0  0  0  0  0  0  0  0  0
    2.4857    8.5382   -0.7069 H   0  0  0  0  0  0  0  0  0  0  0  0
    2.2672    9.8300    0.5380 H   0  0  0  0  0  0  0  0  0  0  0  0
    0.3455    8.3916    0.5748 H   0  0  0  0  0  0  0  0  0  0  0  0
    0.0600    7.4610   -1.3480 H   0  0  0  0  0  0  0  0  0  0  0  0
   -0.5879   10.0640    2.1640 H   0  0  0  0  0  0  0  0  0  0  0  0
    0.8640   10.9495    1.5856 H   0  0  0  0  0  0  0  0  0  0  0  0
   -0.7401   11.7578    1.5856 H   0  0  0  0  0  0  0  0  0  0  0  0
   -2.3138    9.6788    1.0033 H   0  0  0  0  0  0  0  0  0  0  0  0
   -2.5696   10.5402   -0.5521 H   0  0  0  0  0  0  0  0  0  0  0  0
   -2.0047    8.8351   -0.5521 H   0  0  0  0  0  0  0  0  0  0  0  0
    1.8898   11.2782   -3.6165 H   0  0  0  0  0  0  0  0  0  0  0  0
    0.7585   12.5362   -4.2202 H   0  0  0  0  0  0  0  0  0  0  0  0
    2.5281   12.8450   -4.2202 H   0  0  0  0  0  0  0  0  0  0  0  0
    3.6482   12.7967   -1.5344 H   0  0  0  0  0  0  0  0  0  0  0  0
    3.3364   14.0392   -2.8734 H   0  0  0  0  0  0  0  0  0  0  0  0
    2.8174   14.3520    0.0962 H   0  0  0  0  0  0  0  0  0  0  0  0
    4.0120   15.2283   -0.9393 H   0  0  0  0  0  0  0  0  0  0  0  0
    2.8874   17.3446   -2.5114 H   0  0  0  0  0  0  0  0  0  0  0  0
    2.9429   15.6915   -3.2119 H   0  0  0  0  0  0  0  0  0  0  0  0
    1.4026   16.6157   -3.2119 H   0  0  0  0  0  0  0  0  0  0  0  0
  1  2  1  0
  2  3  1  0
  3  4  1  0
  4  5  1  0
  5  6  1  0
  6  7  1  0
  7  8  1  0
  7  9  1  0
  2 10  1  0
 10 11  1  0
 11 12  1  0
 12 13  1  0
 13 14  1  1
 13 15  1  0
 15 16  1  0
 16 17  1  0
 17 18  2  0
 18 19  1  0
 19 20  1  0
 20 21  1  0
 21 22  1  0
 22 23  1  0
 22 24  1  0
 24 25  1  0
 24 26  1  0
 19 27  1  0
 27 28  1  6
 27 29  1  0
 29 30  1  0
 30 31  1  0
 31 32  1  6
  7  5  1  0
 31 10  1  0
 31 13  1  0
 27 15  1  0
 24 18  1  0
  1 33  1  0
  1 34  1  0
  1 35  1  0
  2 36  1  6
  3 37  1  0
  3 38  1  0
  4 39  1  0
  4 40  1  0
  5 41  1  1
  8 42  1  0
  8 43  1  0
  8 44  1  0
  9 45  1  0
  9 46  1  0
  9 47  1  0
 10 48  1  1
 11 49  1  0
 11 50  1  0
 12 51  1  0
 12 52  1  0
 14 53  1  0
 14 54  1  0
 14 55  1  0
 15 56  1  6
 16 57  1  0
 16 58  1  0
 17 59  1  0
 19 60  1  1
 20 61  1  0
 20 62  1  0
 21 63  1  0
 21 64  1  0
 22 65  1  1
 23 66  1  0
 25 67  1  0
 25 68  1  0
 25 69  1  0
 26 70  1  0
 26 71  1  0
 26 72  1  0
 28 73  1  0
 28 74  1  0
 28 75  1  0
 29 76  1  0
 29 77  1  0
 30 78  1  0
 30 79  1  0
 32 80  1  0
 32 81  1  0
 32 82  1  0
M  END
>  <meeko>  (2) 
{"is_sidechain": [false], "intermolecular_energy": 2.731, "internal_energy": -0.839}

$$$$
EPH_relaxed_0001_pdb2pqr_Repair_236_r2_0001_out
     RDKit          3D

 82 86  0  0  0  0  0  0  0  0999 V2000
    2.3590   17.9770   -2.7670 C   0  0  0  0  0  0  0  0  0  0  0  0
    1.0370   17.6290   -2.0750 C   0  0  2  0  0  0  0  0  0  0  0  0
    1.1420   17.7250   -0.5400 C   0  0  0  0  0  0  0  0  0  0  0  0
    0.8200   19.1160    0.0120 C   0  0  0  0  0  0  0  0  0  0  0  0
   -0.6100   19.2220    0.4490 C   0  0  2  0  0  0  0  0  0  0  0  0
   -1.4930   18.2680   -0.1570 O   0  0  0  0  0  0  0  0  0  0  0  0
   -1.7370   19.6490   -0.4730 C   0  0  0  0  0  0  0  0  0  0  0  0
   -1.4830   19.9990   -1.9060 C   0  0  0  0  0  0  0  0  0  0  0  0
   -2.9920   20.1930    0.1350 C   0  0  0  0  0  0  0  0  0  0  0  0
    0.5920   16.2280   -2.4800 C   0  0  1  0  0  0  0  0  0  0  0  0
    0.6690   15.9960   -4.0130 C   0  0  0  0  0  0  0  0  0  0  0  0
    1.0750   14.5150   -4.2210 C   0  0  0  0  0  0  0  0  0  0  0  0
    0.8960   13.8620   -2.8310 C   0  0  1  0  0  0  0  0  0  0  0  0
   -0.6320   13.5590   -2.7240 C   0  0  0  0  0  0  0  0  0  0  0  0
    1.7580   12.5880   -2.5490 C   0  0  2  0  0  0  0  0  0  0  0  0
    1.4710   11.3890   -3.4690 C   0  0  0  0  0  0  0  0  0  0  0  0
    0.4240   10.4450   -2.9790 C   0  0  0  0  0  0  0  0  0  0  0  0
   -0.0570   10.3940   -1.7230 C   0  0  0  0  0  0  0  0  0  0  0  0
    0.5290   11.2830   -0.6180 C   0  0  1  0  0  0  0  0  0  0  0  0
    0.7790   10.4310    0.6540 C   0  0  0  0  0  0  0  0  0  0  0  0
   -0.4690    9.6810    1.1100 C   0  0  0  0  0  0  0  0  0  0  0  0
   -0.9880    8.7640    0.0050 C   0  0  2  0  0  0  0  0  0  0  0  0
   -0.0330    7.7220   -0.2160 O   0  0  0  0  0  0  0  0  0  0  0  0
   -1.2660    9.5100   -1.3300 C   0  0  0  0  0  0  0  0  0  0  0  0
   -2.5050   10.4260   -1.1660 C   0  0  0  0  0  0  0  0  0  0  0  0
   -1.6480    8.4510   -2.3980 C   0  0  0  0  0  0  0  0  0  0  0  0
    1.7940   12.1540   -1.0280 C   0  0  1  0  0  0  0  0  0  0  0  0
    3.0990   11.3210   -0.8330 C   0  0  0  0  0  0  0  0  0  0  0  0
    1.9060   13.3870   -0.0550 C   0  0  0  0  0  0  0  0  0  0  0  0
    1.1260   14.6560   -0.4500 C   0  0  0  0  0  0  0  0  0  0  0  0
    1.3970   15.0340   -1.9100 C   0  0  2  0  0  0  0  0  0  0  0  0
    2.9220   15.3650   -2.0430 C   0  0  0  0  0  0  0  0  0  0  0  0
    3.1283   18.1795   -2.0073 H   0  0  0  0  0  0  0  0  0  0  0  0
    2.6775   17.1321   -3.3952 H   0  0  0  0  0  0  0  0  0  0  0  0
    2.2202   18.8692   -3.3952 H   0  0  0  0  0  0  0  0  0  0  0  0
    0.2885   18.3662   -2.4011 H   0  0  0  0  0  0  0  0  0  0  0  0
    0.4384   17.0043   -0.0978 H   0  0  0  0  0  0  0  0  0  0  0  0
    2.1871   17.5073   -0.2746 H   0  0  0  0  0  0  0  0  0  0  0  0
    1.4722   19.3168    0.8747 H   0  0  0  0  0  0  0  0  0  0  0  0
    0.9889   19.8503   -0.7894 H   0  0  0  0  0  0  0  0  0  0  0  0
   -0.3042   19.5656    1.4482 H   0  0  0  0  0  0  0  0  0  0  0  0
   -0.8376   20.8883   -1.9574 H   0  0  0  0  0  0  0  0  0  0  0  0
   -0.9855   19.1554   -2.4068 H   0  0  0  0  0  0  0  0  0  0  0  0
   -2.4393   20.2105   -2.4068 H   0  0  0  0  0  0  0  0  0  0  0  0
   -2.9129   20.1587    1.2316 H   0  0  0  0  0  0  0  0  0  0  0  0
   -3.1355   21.2341   -0.1899 H   0  0  0  0  0  0  0  0  0  0  0  0
   -3.8499   19.5860   -0.1899 H   0  0  0  0  0  0  0  0  0  0  0  0
   -0.4255   16.2298   -2.0619 H   0  0  0  0  0  0  0  0  0  0  0  0
   -0.3105   16.1888   -4.4750 H   0  0  0  0  0  0  0  0  0  0  0  0
    1.3984   16.6748   -4.4791 H   0  0  0  0  0  0  0  0  0  0  0  0
    0.4211   14.0337   -4.9631 H   0  0  0  0  0  0  0  0  0  0  0  0
    2.1027   14.4137   -4.6000 H   0  0  0  0  0  0  0  0  0  0  0  0
   -0.9211   13.5017   -1.6642 H   0  0  0  0  0  0  0  0  0  0  0  0
   -1.2004   14.3619   -3.2162 H   0  0  0  0  0  0  0  0  0  0  0  0
   -0.8510   12.5999   -3.2162 H   0  0  0  0  0  0  0  0  0  0  0  0
    2.7718   12.9270   -2.8084 H   0  0  0  0  0  0  0  0  0  0  0  0
    1.1466   11.7795   -4.4448 H   0  0  0  0  0  0  0  0  0  0  0  0
    2.4052   10.8100   -3.5143 H   0  0  0  0  0  0  0  0  0  0  0  0
    0.0104    9.7304   -3.7059 H   0  0  0  0  0  0  0  0  0  0  0  0
   -0.2310   12.0504   -0.4092 H   0  0  0  0  0  0  0  0  0  0  0  0
    1.5712    9.6990    0.4381 H   0  0  0  0  0  0  0  0  0  0  0  0
    1.0711   11.1165    1.4632 H   0  0  0  0  0  0  0  0  0  0  0  0
   -0.2221    9.0752    1.9943 H   0  0  0  0  0  0  0  0  0  0  0  0
   -1.2510   10.4154    1.3534 H   0  0  0  0  0  0  0  0  0  0  0  0
   -1.9517    8.3544    0.3419 H   0  0  0  0  0  0  0  0  0  0  0  0
   -0.4430    7.0670   -0.8050 H   0  0  0  0  0  0  0  0  0  0  0  0
   -2.7099   10.5775   -0.0959 H   0  0  0  0  0  0  0  0  0  0  0  0
   -2.3084   11.3976   -1.6428 H   0  0  0  0  0  0  0  0  0  0  0  0
   -3.3762    9.9532   -1.6428 H   0  0  0  0  0  0  0  0  0  0  0  0
   -1.9805    7.5294   -1.8980 H   0  0  0  0  0  0  0  0  0  0  0  0
   -2.4620    8.8412   -3.0266 H   0  0  0  0  0  0  0  0  0  0  0  0
   -0.7723    8.2317   -3.0266 H   0  0  0  0  0  0  0  0  0  0  0  0
    3.2964   11.1950    0.2418 H   0  0  0  0  0  0  0  0  0  0  0  0
    2.9770   10.3333   -1.3017 H   0  0  0  0  0  0  0  0  0  0  0  0
    3.9435   11.8475   -1.3017 H   0  0  0  0  0  0  0  0  0  0  0  0
    1.5419   13.0662    0.9322 H   0  0  0  0  0  0  0  0  0  0  0  0
    2.9659   13.6801   -0.0821 H   0  0  0  0  0  0  0  0  0  0  0  0
    0.0494   14.4718   -0.3199 H   0  0  0  0  0  0  0  0  0  0  0  0
    1.4553   15.4848    0.1939 H   0  0  0  0  0  0  0  0  0  0  0  0
    3.3651   15.4612   -1.0408 H   0  0  0  0  0  0  0  0  0  0  0  0
    3.4265   14.5554   -2.5908 H   0  0  0  0  0  0  0  0  0  0  0  0
    3.0455   16.3109   -2.5908 H   0  0  0  0  0  0  0  0  0  0  0  0
  1  2  1  0
  2  3  1  0
  3  4  1  0
  4  5  1  0
  5  6  1  0
  6  7  1  0
  7  8  1  0
  7  9  1  0
  2 10  1  0
 10 11  1  0
 11 12  1  0
 12 13  1  0
 13 14  1  1
 13 15  1  0
 15 16  1  0
 16 17  1  0
 17 18  2  0
 18 19  1  0
 19 20  1  0
 20 21  1  0
 21 22  1  0
 22 23  1  0
 22 24  1  0
 24 25  1  0
 24 26  1  0
 19 27  1  0
 27 28  1  6
 27 29  1  0
 29 30  1  0
 30 31  1  0
 31 32  1  1
  7  5  1  0
 31 10  1  0
 31 13  1  0
 27 15  1  0
 24 18  1  0
  1 33  1  0
  1 34  1  0
  1 35  1  0
  2 36  1  6
  3 37  1  0
  3 38  1  0
  4 39  1  0
  4 40  1  0
  5 41  1  1
  8 42  1  0
  8 43  1  0
  8 44  1  0
  9 45  1  0
  9 46  1  0
  9 47  1  0
 10 48  1  1
 11 49  1  0
 11 50  1  0
 12 51  1  0
 12 52  1  0
 14 53  1  0
 14 54  1  0
 14 55  1  0
 15 56  1  6
 16 57  1  0
 16 58  1  0
 17 59  1  0
 19 60  1  1
 20 61  1  0
 20 62  1  0
 21 63  1  0
 21 64  1  0
 22 65  1  1
 23 66  1  0
 25 67  1  0
 25 68  1  0
 25 69  1  0
 26 70  1  0
 26 71  1  0
 26 72  1  0
 28 73  1  0
 28 74  1  0
 28 75  1  0
 29 76  1  0
 29 77  1  0
 30 78  1  0
 30 79  1  0
 32 80  1  0
 32 81  1  0
 32 82  1  0
M  END
>  <meeko>  (3) 
{"is_sidechain": [false], "intermolecular_energy": 2.731, "internal_energy": -0.839}

$$$$
EPH_relaxed_0001_pdb2pqr_Repair_236_r2_0001_out
     RDKit          3D

 82 86  0  0  0  0  0  0  0  0999 V2000
    0.4090   18.4030   -0.0240 C   0  0  0  0  0  0  0  0  0  0  0  0
    1.4970   17.3500   -0.2480 C   0  0  2  0  0  0  0  0  0  0  0  0
    2.7050   17.9180   -1.0200 C   0  0  0  0  0  0  0  0  0  0  0  0
    3.9310   18.1750   -0.1410 C   0  0  0  0  0  0  0  0  0  0  0  0
    3.5430   18.6380    1.2300 C   0  0  2  0  0  0  0  0  0  0  0  0
    3.7890   20.0270    1.4850 O   0  0  0  0  0  0  0  0  0  0  0  0
    4.5450   19.0950    2.2740 C   0  0  0  0  0  0  0  0  0  0  0  0
    6.0150   19.1090    1.9910 C   0  0  0  0  0  0  0  0  0  0  0  0
    4.1430   19.0590    3.7160 C   0  0  0  0  0  0  0  0  0  0  0  0
    0.9170   16.1540   -0.9950 C   0  0  1  0  0  0  0  0  0  0  0  0
    0.7780   16.4120   -2.5190 C   0  0  0  0  0  0  0  0  0  0  0  0
    1.0610   15.0630   -3.2290 C   0  0  0  0  0  0  0  0  0  0  0  0
    1.0250   14.0110   -2.0950 C   0  0  1  0  0  0  0  0  0  0  0  0
   -0.4920   13.7180   -1.8690 C   0  0  0  0  0  0  0  0  0  0  0  0
    1.8360   12.6980   -2.3450 C   0  0  2  0  0  0  0  0  0  0  0  0
    1.3570   11.8530   -3.5380 C   0  0  0  0  0  0  0  0  0  0  0  0
    0.3260   10.8220   -3.2160 C   0  0  0  0  0  0  0  0  0  0  0  0
    0.0120   10.3890   -1.9810 C   0  0  0  0  0  0  0  0  0  0  0  0
    0.7910   10.8770   -0.7530 C   0  0  1  0  0  0  0  0  0  0  0  0
    1.1520    9.6660    0.1460 C   0  0  0  0  0  0  0  0  0  0  0  0
   -0.0700    8.8330    0.5240 C   0  0  0  0  0  0  0  0  0  0  0  0
   -0.7850    8.3180   -0.7230 C   0  0  2  0  0  0  0  0  0  0  0  0
    0.0670    7.3800   -1.3880 O   0  0  0  0  0  0  0  0  0  0  0  0
   -1.1890    9.4490   -1.7090 C   0  0  0  0  0  0  0  0  0  0  0  0
   -2.3360   10.2900   -1.0960 C   0  0  0  0  0  0  0  0  0  0  0  0
   -1.7720    8.7840   -2.9850 C   0  0  0  0  0  0  0  0  0  0  0  0
    2.0430   11.8090   -1.0530 C   0  0  1  0  0  0  0  0  0  0  0  0
    3.3080   10.9340   -1.3130 C   0  0  0  0  0  0  0  0  0  0  0  0
    2.3570   12.6740    0.2250 C   0  0  0  0  0  0  0  0  0  0  0  0
    1.6130   14.0170    0.3550 C   0  0  0  0  0  0  0  0  0  0  0  0
    1.7140   14.8270   -0.9410 C   0  0  2  0  0  0  0  0  0  0  0  0
    3.2260   15.1560   -1.1840 C   0  0  0  0  0  0  0  0  0  0  0  0
    0.2574   18.5497    1.0556 H   0  0  0  0  0  0  0  0  0  0  0  0
    0.7184   19.3534   -0.4833 H   0  0  0  0  0  0  0  0  0  0  0  0
   -0.5308   18.0627   -0.4833 H   0  0  0  0  0  0  0  0  0  0  0  0
    1.8577   17.0314    0.7411 H   0  0  0  0  0  0  0  0  0  0  0  0
    2.9847   17.1996   -1.8047 H   0  0  0  0  0  0  0  0  0  0  0  0
    2.3953   18.8898   -1.4319 H   0  0  0  0  0  0  0  0  0  0  0  0
    4.5078   17.2426   -0.0524 H   0  0  0  0  0  0  0  0  0  0  0  0
    4.5313   18.9667   -0.6130 H   0  0  0  0  0  0  0  0  0  0  0  0
    2.7181   17.9113    1.2672 H   0  0  0  0  0  0  0  0  0  0  0  0
    6.5711   19.1143    2.9401 H   0  0  0  0  0  0  0  0  0  0  0  0
    6.2856   18.2134    1.4125 H   0  0  0  0  0  0  0  0  0  0  0  0
    6.2685   20.0096    1.4125 H   0  0  0  0  0  0  0  0  0  0  0  0
    5.0393   19.1393    4.3486 H   0  0  0  0  0  0  0  0  0  0  0  0
    3.4671   19.9002    3.9293 H   0  0  0  0  0  0  0  0  0  0  0  0
    3.6273   18.1111    3.9293 H   0  0  0  0  0  0  0  0  0  0  0  0
   -0.0347   16.0430   -0.4547 H   0  0  0  0  0  0  0  0  0  0  0  0
   -0.2398   16.7572   -2.7534 H   0  0  0  0  0  0  0  0  0  0  0  0
    1.4807   17.1893   -2.8536 H   0  0  0  0  0  0  0  0  0  0  0  0
    0.2871   14.8500   -3.9812 H   0  0  0  0  0  0  0  0  0  0  0  0
    2.0217   15.0667   -3.7647 H   0  0  0  0  0  0  0  0  0  0  0  0
   -0.7008   13.6777   -0.7898 H   0  0  0  0  0  0  0  0  0  0  0  0
   -1.0922   14.5168   -2.3290 H   0  0  0  0  0  0  0  0  0  0  0  0
   -0.7516   12.7531   -2.3290 H   0  0  0  0  0  0  0  0  0  0  0  0
    2.8265   13.0824   -2.6299 H   0  0  0  0  0  0  0  0  0  0  0  0
    0.9324   12.5353   -4.2892 H   0  0  0  0  0  0  0  0  0  0  0  0
    2.2393   11.3005   -3.8935 H   0  0  0  0  0  0  0  0  0  0  0  0
   -0.2234   10.3788   -4.0597 H   0  0  0  0  0  0  0  0  0  0  0  0
    0.1138   11.5542   -0.2119 H   0  0  0  0  0  0  0  0  0  0  0  0
    1.8625    9.0242   -0.3955 H   0  0  0  0  0  0  0  0  0  0  0  0
    1.5890   10.0589    1.0759 H   0  0  0  0  0  0  0  0  0  0  0  0
    0.2527    7.9763    1.1338 H   0  0  0  0  0  0  0  0  0  0  0  0
   -0.7663    9.4678    1.0915 H   0  0  0  0  0  0  0  0  0  0  0  0
   -1.7202    7.8412   -0.3942 H   0  0  0  0  0  0  0  0  0  0  0  0
   -0.3680    6.5110   -1.3520 H   0  0  0  0  0  0  0  0  0  0  0  0
   -2.2765   10.2464    0.0015 H   0  0  0  0  0  0  0  0  0  0  0  0
   -2.2420   11.3348   -1.4271 H   0  0  0  0  0  0  0  0  0  0  0  0
   -3.3041    9.8862   -1.4271 H   0  0  0  0  0  0  0  0  0  0  0  0
   -2.4716    7.9860   -2.6956 H   0  0  0  0  0  0  0  0  0  0  0  0
   -2.3041    9.5395   -3.5817 H   0  0  0  0  0  0  0  0  0  0  0  0
   -0.9534    8.3553   -3.5817 H   0  0  0  0  0  0  0  0  0  0  0  0
    3.7475   10.6300   -0.3515 H   0  0  0  0  0  0  0  0  0  0  0  0
    3.0233   10.0388   -1.8854 H   0  0  0  0  0  0  0  0  0  0  0  0
    4.0452   11.5162   -1.8854 H   0  0  0  0  0  0  0  0  0  0  0  0
    2.1053   12.0674    1.1074 H   0  0  0  0  0  0  0  0  0  0  0  0
    3.4204   12.9414    0.1374 H   0  0  0  0  0  0  0  0  0  0  0  0
    0.5532   13.8215    0.5755 H   0  0  0  0  0  0  0  0  0  0  0  0
    2.0747   14.5966    1.1679 H   0  0  0  0  0  0  0  0  0  0  0  0
    3.7372   15.2672   -0.2163 H   0  0  0  0  0  0  0  0  0  0  0  0
    3.6923   14.3383   -1.7532 H   0  0  0  0  0  0  0  0  0  0  0  0
    3.3104   16.0935   -1.7532 H   0  0  0  0  0  0  0  0  0  0  0  0
  1  2  1  0
  2  3  1  0
  3  4  1  0
  4  5  1  0
  5  6  1  0
  6  7  1  0
  7  8  1  0
  7  9  1  0
  2 10  1  0
 10 11  1  0
 11 12  1  0
 12 13  1  0
 13 14  1  1
 13 15  1  0
 15 16  1  0
 16 17  1  0
 17 18  2  0
 18 19  1  0
 19 20  1  0
 20 21  1  0
 21 22  1  0
 22 23  1  0
 22 24  1  0
 24 25  1  0
 24 26  1  0
 19 27  1  0
 27 28  1  6
 27 29  1  0
 29 30  1  0
 30 31  1  0
 31 32  1  6
  7  5  1  0
 31 10  1  0
 31 13  1  0
 27 15  1  0
 24 18  1  0
  1 33  1  0
  1 34  1  0
  1 35  1  0
  2 36  1  1
  3 37  1  0
  3 38  1  0
  4 39  1  0
  4 40  1  0
  5 41  1  1
  8 42  1  0
  8 43  1  0
  8 44  1  0
  9 45  1  0
  9 46  1  0
  9 47  1  0
 10 48  1  1
 11 49  1  0
 11 50  1  0
 12 51  1  0
 12 52  1  0
 14 53  1  0
 14 54  1  0
 14 55  1  0
 15 56  1  6
 16 57  1  0
 16 58  1  0
 17 59  1  0
 19 60  1  1
 20 61  1  0
 20 62  1  0
 21 63  1  0
 21 64  1  0
 22 65  1  1
 23 66  1  0
 25 67  1  0
 25 68  1  0
 25 69  1  0
 26 70  1  0
 26 71  1  0
 26 72  1  0
 28 73  1  0
 28 74  1  0
 28 75  1  0
 29 76  1  0
 29 77  1  0
 30 78  1  0
 30 79  1  0
 32 80  1  0
 32 81  1  0
 32 82  1  0
M  END
>  <meeko>  (4) 
{"is_sidechain": [false], "intermolecular_energy": 2.731, "internal_energy": -0.839}

$$$$
EPH_relaxed_0001_pdb2pqr_Repair_236_r2_0001_out
     RDKit          3D

 82 86  0  0  0  0  0  0  0  0999 V2000
    3.6340   17.6560    0.5800 C   0  0  0  0  0  0  0  0  0  0  0  0
    2.6810   17.9280   -0.5870 C   0  0  2  0  0  0  0  0  0  0  0  0
    2.0000   19.3060   -0.4720 C   0  0  0  0  0  0  0  0  0  0  0  0
    1.0720   19.4350    0.7390 C   0  0  0  0  0  0  0  0  0  0  0  0
   -0.2280   20.0850    0.3750 C   0  0  2  0  0  0  0  0  0  0  0  0
   -1.1660   20.1940    1.4540 O   0  0  0  0  0  0  0  0  0  0  0  0
   -1.5550   19.3500    0.3580 C   0  0  0  0  0  0  0  0  0  0  0  0
   -1.6480   17.8990    0.7120 C   0  0  0  0  0  0  0  0  0  0  0  0
   -2.6730   19.9090   -0.4660 C   0  0  0  0  0  0  0  0  0  0  0  0
    1.6260   16.8300   -0.6640 C   0  0  1  0  0  0  0  0  0  0  0  0
    0.3140   17.3090   -1.3390 C   0  0  0  0  0  0  0  0  0  0  0  0
   -0.2480   16.1010   -2.1330 C   0  0  0  0  0  0  0  0  0  0  0  0
    0.5680   14.8890   -1.6270 C   0  0  1  0  0  0  0  0  0  0  0  0
   -0.1120   14.4820   -0.2820 C   0  0  0  0  0  0  0  0  0  0  0  0
    0.6830   13.6760   -2.6060 C   0  0  2  0  0  0  0  0  0  0  0  0
   -0.6510   12.9970   -2.9630 C   0  0  0  0  0  0  0  0  0  0  0  0
   -1.0550   11.8740   -2.0660 C   0  0  0  0  0  0  0  0  0  0  0  0
   -0.2490   11.2410   -1.1930 C   0  0  0  0  0  0  0  0  0  0  0  0
    1.2450   11.5790   -1.1140 C   0  0  1  0  0  0  0  0  0  0  0  0
    2.0720   10.2660   -1.0840 C   0  0  0  0  0  0  0  0  0  0  0  0
    1.6270    9.3200    0.0270 C   0  0  0  0  0  0  0  0  0  0  0  0
    0.1510    8.9620   -0.1190 C   0  0  2  0  0  0  0  0  0  0  0  0
   -0.0190    8.1850   -1.3080 O   0  0  0  0  0  0  0  0  0  0  0  0
   -0.7790   10.2060   -0.1700 C   0  0  0  0  0  0  0  0  0  0  0  0
   -0.8250   10.8790    1.2240 C   0  0  0  0  0  0  0  0  0  0  0  0
   -2.2220    9.7120   -0.4610 C   0  0  0  0  0  0  0  0  0  0  0  0
    1.7810   12.6130   -2.1950 C   0  0  1  0  0  0  0  0  0  0  0  0
    2.1800   11.8580   -3.5000 C   0  0  0  0  0  0  0  0  0  0  0  0
    3.0950   13.2890   -1.6540 C   0  0  0  0  0  0  0  0  0  0  0  0
    2.9210   14.5530   -0.7900 C   0  0  0  0  0  0  0  0  0  0  0  0
    1.9830   15.5560   -1.4700 C   0  0  2  0  0  0  0  0  0  0  0  0
    2.6510   16.0000   -2.8150 C   0  0  0  0  0  0  0  0  0  0  0  0
    3.1021   17.8078    1.5308 H   0  0  0  0  0  0  0  0  0  0  0  0
    3.9958   16.6187    0.5238 H   0  0  0  0  0  0  0  0  0  0  0  0
    4.4888   18.3460    0.5238 H   0  0  0  0  0  0  0  0  0  0  0  0
    3.2806   17.9325   -1.5092 H   0  0  0  0  0  0  0  0  0  0  0  0
    2.7829   20.0747   -0.3930 H   0  0  0  0  0  0  0  0  0  0  0  0
    1.3766   19.4323   -1.3695 H   0  0  0  0  0  0  0  0  0  0  0  0
    0.8685   18.4313    1.1405 H   0  0  0  0  0  0  0  0  0  0  0  0
    1.5724   20.0657    1.4885 H   0  0  0  0  0  0  0  0  0  0  0  0
    0.2721   20.7220   -0.3694 H   0  0  0  0  0  0  0  0  0  0  0  0
   -1.6551   17.7883    1.8064 H   0  0  0  0  0  0  0  0  0  0  0  0
   -2.5749   17.4785    0.2949 H   0  0  0  0  0  0  0  0  0  0  0  0
   -0.7823   17.3636    0.2949 H   0  0  0  0  0  0  0  0  0  0  0  0
   -3.4574   20.3012    0.1981 H   0  0  0  0  0  0  0  0  0  0  0  0
   -2.2899   20.7216   -1.1007 H   0  0  0  0  0  0  0  0  0  0  0  0
   -3.0932   19.1149   -1.1007 H   0  0  0  0  0  0  0  0  0  0  0  0
    1.5355   16.5860    0.4048 H   0  0  0  0  0  0  0  0  0  0  0  0
   -0.4096   17.6299   -0.5752 H   0  0  0  0  0  0  0  0  0  0  0  0
    0.5017   18.1653   -2.0034 H   0  0  0  0  0  0  0  0  0  0  0  0
   -1.3190   15.9629   -1.9236 H   0  0  0  0  0  0  0  0  0  0  0  0
   -0.1597   16.2389   -3.2207 H   0  0  0  0  0  0  0  0  0  0  0  0
    0.4950   14.8453    0.5604 H   0  0  0  0  0  0  0  0  0  0  0  0
   -1.1163   14.9276   -0.2293 H   0  0  0  0  0  0  0  0  0  0  0  0
   -0.1938   13.3863   -0.2293 H   0  0  0  0  0  0  0  0  0  0  0  0
    1.0326   14.1536   -3.5332 H   0  0  0  0  0  0  0  0  0  0  0  0
   -1.4414   13.7612   -2.9280 H   0  0  0  0  0  0  0  0  0  0  0  0
   -0.5100   12.5544   -3.9601 H   0  0  0  0  0  0  0  0  0  0  0  0
   -2.0999   11.5350   -2.1233 H   0  0  0  0  0  0  0  0  0  0  0  0
    1.3825   12.1290   -0.1713 H   0  0  0  0  0  0  0  0  0  0  0  0
    1.9561    9.7540   -2.0507 H   0  0  0  0  0  0  0  0  0  0  0  0
    3.1209   10.5362   -0.8924 H   0  0  0  0  0  0  0  0  0  0  0  0
    2.2271    8.3994   -0.0224 H   0  0  0  0  0  0  0  0  0  0  0  0
    1.7719    9.8227    0.9946 H   0  0  0  0  0  0  0  0  0  0  0  0
   -0.1398    8.3899    0.7744 H   0  0  0  0  0  0  0  0  0  0  0  0
   -0.8890    8.4070   -1.6830 H   0  0  0  0  0  0  0  0  0  0  0  0
   -0.7722   10.1070    2.0058 H   0  0  0  0  0  0  0  0  0  0  0  0
    0.0283   11.5653    1.3282 H   0  0  0  0  0  0  0  0  0  0  0  0
   -1.7638   11.4428    1.3282 H   0  0  0  0  0  0  0  0  0  0  0  0
   -2.7466    9.5324    0.4890 H   0  0  0  0  0  0  0  0  0  0  0  0
   -2.7617   10.4766   -1.0391 H   0  0  0  0  0  0  0  0  0  0  0  0
   -2.1799    8.7771   -1.0391 H   0  0  0  0  0  0  0  0  0  0  0  0
    2.6793   10.9132   -3.2389 H   0  0  0  0  0  0  0  0  0  0  0  0
    1.2770   11.6445   -4.0907 H   0  0  0  0  0  0  0  0  0  0  0  0
    2.8651   12.4838   -4.0907 H   0  0  0  0  0  0  0  0  0  0  0  0
    3.6281   12.5421   -1.0474 H   0  0  0  0  0  0  0  0  0  0  0  0
    3.6358   13.6255   -2.5508 H   0  0  0  0  0  0  0  0  0  0  0  0
    2.4977   14.2676    0.1844 H   0  0  0  0  0  0  0  0  0  0  0  0
    3.9051   15.0263   -0.6579 H   0  0  0  0  0  0  0  0  0  0  0  0
    3.5492   16.5970   -2.5987 H   0  0  0  0  0  0  0  0  0  0  0  0
    2.9337   15.1094   -3.3955 H   0  0  0  0  0  0  0  0  0  0  0  0
    1.9393   16.6054   -3.3955 H   0  0  0  0  0  0  0  0  0  0  0  0
  1  2  1  0
  2  3  1  0
  3  4  1  0
  4  5  1  0
  5  6  1  0
  6  7  1  0
  7  8  1  0
  7  9  1  0
  2 10  1  0
 10 11  1  0
 11 12  1  0
 12 13  1  0
 13 14  1  1
 13 15  1  0
 15 16  1  0
 16 17  1  0
 17 18  2  0
 18 19  1  0
 19 20  1  0
 20 21  1  0
 21 22  1  0
 22 23  1  0
 22 24  1  0
 24 25  1  0
 24 26  1  0
 19 27  1  0
 27 28  1  6
 27 29  1  0
 29 30  1  0
 30 31  1  0
 31 32  1  6
  7  5  1  0
 31 10  1  0
 31 13  1  0
 27 15  1  0
 24 18  1  0
  1 33  1  0
  1 34  1  0
  1 35  1  0
  2 36  1  6
  3 37  1  0
  3 38  1  0
  4 39  1  0
  4 40  1  0
  5 41  1  6
  8 42  1  0
  8 43  1  0
  8 44  1  0
  9 45  1  0
  9 46  1  0
  9 47  1  0
 10 48  1  1
 11 49  1  0
 11 50  1  0
 12 51  1  0
 12 52  1  0
 14 53  1  0
 14 54  1  0
 14 55  1  0
 15 56  1  6
 16 57  1  0
 16 58  1  0
 17 59  1  0
 19 60  1  1
 20 61  1  0
 20 62  1  0
 21 63  1  0
 21 64  1  0
 22 65  1  1
 23 66  1  0
 25 67  1  0
 25 68  1  0
 25 69  1  0
 26 70  1  0
 26 71  1  0
 26 72  1  0
 28 73  1  0
 28 74  1  0
 28 75  1  0
 29 76  1  0
 29 77  1  0
 30 78  1  0
 30 79  1  0
 32 80  1  0
 32 81  1  0
 32 82  1  0
M  END
>  <meeko>  (5) 
{"is_sidechain": [false], "intermolecular_energy": 2.731, "internal_energy": -0.839}

$$$$
EPH_relaxed_0001_pdb2pqr_Repair_236_r2_0001_out
     RDKit          3D

 82 86  0  0  0  0  0  0  0  0999 V2000
   -0.2510   10.3770   -3.6210 C   0  0  0  0  0  0  0  0  0  0  0  0
    0.9120   10.2180   -2.6380 C   0  0  2  0  0  0  0  0  0  0  0  0
    0.7780    8.9430   -1.7820 C   0  0  0  0  0  0  0  0  0  0  0  0
    0.1160    9.1810   -0.4220 C   0  0  0  0  0  0  0  0  0  0  0  0
   -1.2950    8.6780   -0.3970 C   0  0  2  0  0  0  0  0  0  0  0  0
   -1.9830    8.7610   -1.6520 O   0  0  0  0  0  0  0  0  0  0  0  0
   -2.5060    9.5720   -0.5880 C   0  0  0  0  0  0  0  0  0  0  0  0
   -2.3600   11.0440   -0.8170 C   0  0  0  0  0  0  0  0  0  0  0  0
   -3.8300    9.1050   -0.0680 C   0  0  0  0  0  0  0  0  0  0  0  0
    1.0020   11.4440   -1.7370 C   0  0  1  0  0  0  0  0  0  0  0  0
    2.0690   11.2880   -0.6200 C   0  0  0  0  0  0  0  0  0  0  0  0
    2.6890   12.6910   -0.3950 C   0  0  0  0  0  0  0  0  0  0  0  0
    1.7420   13.6600   -1.1400 C   0  0  1  0  0  0  0  0  0  0  0  0
    0.5510   13.8900   -0.1580 C   0  0  0  0  0  0  0  0  0  0  0  0
    2.3690   15.0110   -1.6140 C   0  0  2  0  0  0  0  0  0  0  0  0
    2.8840   15.9220   -0.4860 C   0  0  0  0  0  0  0  0  0  0  0  0
    1.8890   16.8960    0.0520 C   0  0  0  0  0  0  0  0  0  0  0  0
    0.7270   17.2330   -0.5370 C   0  0  0  0  0  0  0  0  0  0  0  0
    0.3580   16.6850   -1.9220 C   0  0  1  0  0  0  0  0  0  0  0  0
   -0.1640   17.8420   -2.8140 C   0  0  0  0  0  0  0  0  0  0  0  0
   -1.3130   18.6090   -2.1640 C   0  0  0  0  0  0  0  0  0  0  0  0
   -0.8900   19.1870   -0.8170 C   0  0  2  0  0  0  0  0  0  0  0  0
    0.1020   20.1940   -1.0380 O   0  0  0  0  0  0  0  0  0  0  0  0
   -0.3360   18.1150    0.1630 C   0  0  0  0  0  0  0  0  0  0  0  0
   -1.4910   17.1990    0.6390 C   0  0  0  0  0  0  0  0  0  0  0  0
    0.1850   18.8490    1.4290 C   0  0  0  0  0  0  0  0  0  0  0  0
    1.4750   15.8150   -2.6430 C   0  0  1  0  0  0  0  0  0  0  0  0
    2.4410   16.7440   -3.4410 C   0  0  0  0  0  0  0  0  0  0  0  0
    0.7890   14.8740   -3.7020 C   0  0  0  0  0  0  0  0  0  0  0  0
    0.2980   13.5030   -3.1990 C   0  0  0  0  0  0  0  0  0  0  0  0
    1.3920   12.7880   -2.4010 C   0  0  2  0  0  0  0  0  0  0  0  0
    2.5950   12.5230   -3.3690 C   0  0  0  0  0  0  0  0  0  0  0  0
   -1.1892   10.5053   -3.0613 H   0  0  0  0  0  0  0  0  0  0  0  0
   -0.0780   11.2598   -4.2540 H   0  0  0  0  0  0  0  0  0  0  0  0
   -0.3213    9.4801   -4.2540 H   0  0  0  0  0  0  0  0  0  0  0  0
    1.8348   10.1229   -3.2291 H   0  0  0  0  0  0  0  0  0  0  0  0
    0.1733    8.2125   -2.3394 H   0  0  0  0  0  0  0  0  0  0  0  0
    1.7974    8.5803   -1.5840 H   0  0  0  0  0  0  0  0  0  0  0  0
    0.6950    8.6572    0.3529 H   0  0  0  0  0  0  0  0  0  0  0  0
    0.0971   10.2648   -0.2348 H   0  0  0  0  0  0  0  0  0  0  0  0
   -1.0407    7.9347    0.3729 H   0  0  0  0  0  0  0  0  0  0  0  0
   -2.3086   11.5625    0.1518 H   0  0  0  0  0  0  0  0  0  0  0  0
   -1.4383   11.2370   -1.3855 H   0  0  0  0  0  0  0  0  0  0  0  0
   -3.2258   11.4143   -1.3855 H   0  0  0  0  0  0  0  0  0  0  0  0
   -3.8146    9.1104    1.0319 H   0  0  0  0  0  0  0  0  0  0  0  0
   -4.6229    9.7777   -0.4269 H   0  0  0  0  0  0  0  0  0  0  0  0
   -4.0254    8.0837   -0.4269 H   0  0  0  0  0  0  0  0  0  0  0  0
   -0.0382   11.4880   -1.3819 H   0  0  0  0  0  0  0  0  0  0  0  0
    1.5976   10.9291    0.3068 H   0  0  0  0  0  0  0  0  0  0  0  0
    2.8391   10.5574   -0.9085 H   0  0  0  0  0  0  0  0  0  0  0  0
    2.7256   12.9319    0.6777 H   0  0  0  0  0  0  0  0  0  0  0  0
    3.7237   12.7537   -0.7630 H   0  0  0  0  0  0  0  0  0  0  0  0
    0.9119   13.8203    0.8788 H   0  0  0  0  0  0  0  0  0  0  0  0
    0.1211   14.8878   -0.3303 H   0  0  0  0  0  0  0  0  0  0  0  0
   -0.2195   13.1241   -0.3303 H   0  0  0  0  0  0  0  0  0  0  0  0
    3.2631   14.6771   -2.1609 H   0  0  0  0  0  0  0  0  0  0  0  0
    3.2150   15.2808    0.3442 H   0  0  0  0  0  0  0  0  0  0  0  0
    3.6918   16.5246   -0.9267 H   0  0  0  0  0  0  0  0  0  0  0  0
    2.1257   17.3793    1.0114 H   0  0  0  0  0  0  0  0  0  0  0  0
   -0.4442   15.9511   -1.7552 H   0  0  0  0  0  0  0  0  0  0  0  0
    0.6635   18.5412   -3.0048 H   0  0  0  0  0  0  0  0  0  0  0  0
   -0.5431   17.3996   -3.7470 H   0  0  0  0  0  0  0  0  0  0  0  0
   -1.6185   19.4308   -2.8283 H   0  0  0  0  0  0  0  0  0  0  0  0
   -2.1504   17.9147   -2.0006 H   0  0  0  0  0  0  0  0  0  0  0  0
   -1.7880   19.6109   -0.3439 H   0  0  0  0  0  0  0  0  0  0  0  0
    0.4560   20.4550   -0.1710 H   0  0  0  0  0  0  0  0  0  0  0  0
   -1.5147   17.1802    1.7386 H   0  0  0  0  0  0  0  0  0  0  0  0
   -2.4473   17.5869    0.2582 H   0  0  0  0  0  0  0  0  0  0  0  0
   -1.3311   16.1795    0.2582 H   0  0  0  0  0  0  0  0  0  0  0  0
   -0.1813   18.3330    2.3288 H   0  0  0  0  0  0  0  0  0  0  0  0
    1.2850   18.8470    1.4274 H   0  0  0  0  0  0  0  0  0  0  0  0
   -0.1798   19.8867    1.4274 H   0  0  0  0  0  0  0  0  0  0  0  0
    3.0505   17.3302   -2.7375 H   0  0  0  0  0  0  0  0  0  0  0  0
    3.0994   16.1311   -4.0741 H   0  0  0  0  0  0  0  0  0  0  0  0
    1.8543   17.4259   -4.0741 H   0  0  0  0  0  0  0  0  0  0  0  0
   -0.0810   15.4100   -4.1092 H   0  0  0  0  0  0  0  0  0  0  0  0
    1.5756   14.6460   -4.4364 H   0  0  0  0  0  0  0  0  0  0  0  0
   -0.5804   13.6501   -2.5535 H   0  0  0  0  0  0  0  0  0  0  0  0
    0.0368   12.8831   -4.0693 H   0  0  0  0  0  0  0  0  0  0  0  0
    3.5023   12.3231   -2.7801 H   0  0  0  0  0  0  0  0  0  0  0  0
    2.3704   11.6528   -4.0033 H   0  0  0  0  0  0  0  0  0  0  0  0
    2.7569   13.4070   -4.0033 H   0  0  0  0  0  0  0  0  0  0  0  0
  1  2  1  0
  2  3  1  0
  3  4  1  0
  4  5  1  0
  5  6  1  0
  6  7  1  0
  7  8  1  0
  7  9  1  0
  2 10  1  0
 10 11  1  0
 11 12  1  0
 12 13  1  0
 13 14  1  1
 13 15  1  0
 15 16  1  0
 16 17  1  0
 17 18  2  0
 18 19  1  0
 19 20  1  0
 20 21  1  0
 21 22  1  0
 22 23  1  0
 22 24  1  0
 24 25  1  0
 24 26  1  0
 19 27  1  0
 27 28  1  6
 27 29  1  0
 29 30  1  0
 30 31  1  0
 31 32  1  6
  7  5  1  0
 31 10  1  0
 31 13  1  0
 27 15  1  0
 24 18  1  0
  1 33  1  0
  1 34  1  0
  1 35  1  0
  2 36  1  6
  3 37  1  0
  3 38  1  0
  4 39  1  0
  4 40  1  0
  5 41  1  1
  8 42  1  0
  8 43  1  0
  8 44  1  0
  9 45  1  0
  9 46  1  0
  9 47  1  0
 10 48  1  1
 11 49  1  0
 11 50  1  0
 12 51  1  0
 12 52  1  0
 14 53  1  0
 14 54  1  0
 14 55  1  0
 15 56  1  6
 16 57  1  0
 16 58  1  0
 17 59  1  0
 19 60  1  1
 20 61  1  0
 20 62  1  0
 21 63  1  0
 21 64  1  0
 22 65  1  1
 23 66  1  0
 25 67  1  0
 25 68  1  0
 25 69  1  0
 26 70  1  0
 26 71  1  0
 26 72  1  0
 28 73  1  0
 28 74  1  0
 28 75  1  0
 29 76  1  0
 29 77  1  0
 30 78  1  0
 30 79  1  0
 32 80  1  0
 32 81  1  0
 32 82  1  0
M  END
>  <meeko>  (6) 
{"is_sidechain": [false], "intermolecular_energy": 2.731, "internal_energy": -0.839}

$$$$
EPH_relaxed_0001_pdb2pqr_Repair_236_r2_0001_out
     RDKit          3D

 82 86  0  0  0  0  0  0  0  0999 V2000
   -5.2780    5.7490   -1.5720 C   0  0  0  0  0  0  0  0  0  0  0  0
   -5.4960    7.2490   -1.7940 C   0  0  2  0  0  0  0  0  0  0  0  0
   -5.1980    8.0740   -0.5260 C   0  0  0  0  0  0  0  0  0  0  0  0
   -4.2110    9.2210   -0.7570 C   0  0  0  0  0  0  0  0  0  0  0  0
   -2.8230    8.8530   -0.3280 C   0  0  2  0  0  0  0  0  0  0  0  0
   -2.2970    9.6470    0.7450 O   0  0  0  0  0  0  0  0  0  0  0  0
   -1.6200    9.7590   -0.5170 C   0  0  0  0  0  0  0  0  0  0  0  0
   -1.7510   11.1050   -1.1600 C   0  0  0  0  0  0  0  0  0  0  0  0
   -0.2560    9.1450   -0.5260 C   0  0  0  0  0  0  0  0  0  0  0  0
   -6.9250    7.5030   -2.2570 C   0  0  1  0  0  0  0  0  0  0  0  0
   -7.2490    6.8090   -3.6070 C   0  0  0  0  0  0  0  0  0  0  0  0
   -8.7330    6.3670   -3.5390 C   0  0  0  0  0  0  0  0  0  0  0  0
   -9.3030    7.1060   -2.3050 C   0  0  1  0  0  0  0  0  0  0  0  0
   -9.6250    8.5460   -2.8130 C   0  0  0  0  0  0  0  0  0  0  0  0
  -10.5430    6.4460   -1.6170 C   0  0  2  0  0  0  0  0  0  0  0  0
  -11.8000    6.3440   -2.4980 C   0  0  0  0  0  0  0  0  0  0  0  0
  -12.7300    7.5090   -2.4200 C   0  0  0  0  0  0  0  0  0  0  0  0
  -12.7130    8.4620   -1.4690 C   0  0  0  0  0  0  0  0  0  0  0  0
  -11.7480    8.3690   -0.2790 C   0  0  1  0  0  0  0  0  0  0  0  0
  -12.5170    8.6690    1.0340 C   0  0  0  0  0  0  0  0  0  0  0  0
  -13.2590   10.0020    0.9870 C   0  0  0  0  0  0  0  0  0  0  0  0
  -14.2490   10.0330   -0.1740 C   0  0  2  0  0  0  0  0  0  0  0  0
  -15.2870    9.0810    0.0790 O   0  0  0  0  0  0  0  0  0  0  0  0
  -13.5910    9.7350   -1.5500 C   0  0  0  0  0  0  0  0  0  0  0  0
  -12.6880   10.9230   -1.9640 C   0  0  0  0  0  0  0  0  0  0  0  0
  -14.7200    9.6570   -2.6130 C   0  0  0  0  0  0  0  0  0  0  0  0
  -10.8830    7.0390   -0.1900 C   0  0  1  0  0  0  0  0  0  0  0  0
  -11.6810    5.9360    0.5720 C   0  0  0  0  0  0  0  0  0  0  0  0
   -9.5910    7.3220    0.6640 C   0  0  0  0  0  0  0  0  0  0  0  0
   -8.3620    7.8600   -0.0930 C   0  0  0  0  0  0  0  0  0  0  0  0
   -8.0700    7.0130   -1.3350 C   0  0  2  0  0  0  0  0  0  0  0  0
   -7.7210    5.5630   -0.8540 C   0  0  0  0  0  0  0  0  0  0  0  0
   -5.2474    5.5387   -0.4927 H   0  0  0  0  0  0  0  0  0  0  0  0
   -6.1038    5.1864   -2.0319 H   0  0  0  0  0  0  0  0  0  0  0  0
   -4.3262    5.4448   -2.0319 H   0  0  0  0  0  0  0  0  0  0  0  0
   -4.7896    7.5742   -2.5719 H   0  0  0  0  0  0  0  0  0  0  0  0
   -6.1436    8.4983   -0.1573 H   0  0  0  0  0  0  0  0  0  0  0  0
   -4.7334    7.3911    0.2005 H   0  0  0  0  0  0  0  0  0  0  0  0
   -4.1987    9.4703   -1.8283 H   0  0  0  0  0  0  0  0  0  0  0  0
   -4.5388   10.0817   -0.1556 H   0  0  0  0  0  0  0  0  0  0  0  0
   -2.9992    7.7975   -0.5829 H   0  0  0  0  0  0  0  0  0  0  0  0
   -1.8262   11.8778   -0.3808 H   0  0  0  0  0  0  0  0  0  0  0  0
   -0.8676   11.3000   -1.7858 H   0  0  0  0  0  0  0  0  0  0  0  0
   -2.6554   11.1260   -1.7858 H   0  0  0  0  0  0  0  0  0  0  0  0
    0.0840    8.9919    0.5089 H   0  0  0  0  0  0  0  0  0  0  0  0
   -0.2932    8.1768   -1.0467 H   0  0  0  0  0  0  0  0  0  0  0  0
    0.4442    9.8148   -1.0467 H   0  0  0  0  0  0  0  0  0  0  0  0
   -6.9136    8.6024   -2.2914 H   0  0  0  0  0  0  0  0  0  0  0  0
   -7.1013    7.5127   -4.4395 H   0  0  0  0  0  0  0  0  0  0  0  0
   -6.5877    5.9463   -3.7758 H   0  0  0  0  0  0  0  0  0  0  0  0
   -9.2693    6.6647   -4.4521 H   0  0  0  0  0  0  0  0  0  0  0  0
   -8.8403    5.2752   -3.4583 H   0  0  0  0  0  0  0  0  0  0  0  0
   -9.7743    9.2138   -1.9518 H   0  0  0  0  0  0  0  0  0  0  0  0
   -8.7873    8.9156   -3.4227 H   0  0  0  0  0  0  0  0  0  0  0  0
  -10.5403    8.5236   -3.4227 H   0  0  0  0  0  0  0  0  0  0  0  0
  -10.2041    5.4113   -1.4602 H   0  0  0  0  0  0  0  0  0  0  0  0
  -11.4746    6.2384   -3.5434 H   0  0  0  0  0  0  0  0  0  0  0  0
  -12.3651    5.4781   -2.1226 H   0  0  0  0  0  0  0  0  0  0  0  0
  -13.4942    7.5964   -3.2063 H   0  0  0  0  0  0  0  0  0  0  0  0
  -10.9812    9.1395   -0.4473 H   0  0  0  0  0  0  0  0  0  0  0  0
  -13.2475    7.8648    1.2062 H   0  0  0  0  0  0  0  0  0  0  0  0
  -11.7786    8.7267    1.8473 H   0  0  0  0  0  0  0  0  0  0  0  0
  -13.8061   10.1432    1.9308 H   0  0  0  0  0  0  0  0  0  0  0  0
  -12.5246   10.8084    0.8445 H   0  0  0  0  0  0  0  0  0  0  0  0
  -14.6527   11.0544   -0.2347 H   0  0  0  0  0  0  0  0  0  0  0  0
  -15.0980    8.2900   -0.4540 H   0  0  0  0  0  0  0  0  0  0  0  0
  -12.3064   11.4250   -1.0627 H   0  0  0  0  0  0  0  0  0  0  0  0
  -11.8430   10.5504   -2.5617 H   0  0  0  0  0  0  0  0  0  0  0  0
  -13.2731   11.6374   -2.5617 H   0  0  0  0  0  0  0  0  0  0  0  0
  -15.6950    9.5896   -2.1081 H   0  0  0  0  0  0  0  0  0  0  0  0
  -14.6944   10.5591   -3.2420 H   0  0  0  0  0  0  0  0  0  0  0  0
  -14.5705    8.7670   -3.2420 H   0  0  0  0  0  0  0  0  0  0  0  0
  -11.5716    6.0872    1.6561 H   0  0  0  0  0  0  0  0  0  0  0  0
  -12.7447    5.9980    0.2986 H   0  0  0  0  0  0  0  0  0  0  0  0
  -11.2893    4.9451    0.2986 H   0  0  0  0  0  0  0  0  0  0  0  0
   -9.8567    8.0606    1.4347 H   0  0  0  0  0  0  0  0  0  0  0  0
   -9.2824    6.3404    1.0530 H   0  0  0  0  0  0  0  0  0  0  0  0
   -8.5556    8.8977   -0.4024 H   0  0  0  0  0  0  0  0  0  0  0  0
   -7.4900    7.8143    0.5760 H   0  0  0  0  0  0  0  0  0  0  0  0
   -7.7138    5.5332    0.2456 H   0  0  0  0  0  0  0  0  0  0  0  0
   -8.4753    4.8588   -1.2350 H   0  0  0  0  0  0  0  0  0  0  0  0
   -6.7289    5.2791   -1.2350 H   0  0  0  0  0  0  0  0  0  0  0  0
  1  2  1  0
  2  3  1  0
  3  4  1  0
  4  5  1  0
  5  6  1  0
  6  7  1  0
  7  8  1  0
  7  9  1  0
  2 10  1  0
 10 11  1  0
 11 12  1  0
 12 13  1  0
 13 14  1  6
 13 15  1  0
 15 16  1  0
 16 17  1  0
 17 18  2  0
 18 19  1  0
 19 20  1  0
 20 21  1  0
 21 22  1  0
 22 23  1  0
 22 24  1  0
 24 25  1  0
 24 26  1  0
 19 27  1  0
 27 28  1  1
 27 29  1  0
 29 30  1  0
 30 31  1  0
 31 32  1  1
  7  5  1  0
 31 10  1  0
 31 13  1  0
 27 15  1  0
 24 18  1  0
  1 33  1  0
  1 34  1  0
  1 35  1  0
  2 36  1  6
  3 37  1  0
  3 38  1  0
  4 39  1  0
  4 40  1  0
  5 41  1  1
  8 42  1  0
  8 43  1  0
  8 44  1  0
  9 45  1  0
  9 46  1  0
  9 47  1  0
 10 48  1  6
 11 49  1  0
 11 50  1  0
 12 51  1  0
 12 52  1  0
 14 53  1  0
 14 54  1  0
 14 55  1  0
 15 56  1  1
 16 57  1  0
 16 58  1  0
 17 59  1  0
 19 60  1  6
 20 61  1  0
 20 62  1  0
 21 63  1  0
 21 64  1  0
 22 65  1  6
 23 66  1  0
 25 67  1  0
 25 68  1  0
 25 69  1  0
 26 70  1  0
 26 71  1  0
 26 72  1  0
 28 73  1  0
 28 74  1  0
 28 75  1  0
 29 76  1  0
 29 77  1  0
 30 78  1  0
 30 79  1  0
 32 80  1  0
 32 81  1  0
 32 82  1  0
M  END
>  <meeko>  (7) 
{"is_sidechain": [false], "intermolecular_energy": 2.731, "internal_energy": -0.839}

$$$$
EPH_relaxed_0001_pdb2pqr_Repair_236_r2_0001_out
     RDKit          3D

 82 86  0  0  0  0  0  0  0  0999 V2000
    0.4050    8.8020   -2.3500 C   0  0  0  0  0  0  0  0  0  0  0  0
    1.1490    9.9420   -3.0520 C   0  0  2  0  0  0  0  0  0  0  0  0
    2.6500    9.9580   -2.7020 C   0  0  0  0  0  0  0  0  0  0  0  0
    3.5310   10.5610   -3.7990 C   0  0  0  0  0  0  0  0  0  0  0  0
    4.9280   10.8090   -3.3150 C   0  0  2  0  0  0  0  0  0  0  0  0
    5.5170   12.0280   -3.7870 O   0  0  0  0  0  0  0  0  0  0  0  0
    6.1420   10.8100   -4.2250 C   0  0  0  0  0  0  0  0  0  0  0  0
    6.0150   10.5550   -5.6940 C   0  0  0  0  0  0  0  0  0  0  0  0
    7.4900   10.5730   -3.6200 C   0  0  0  0  0  0  0  0  0  0  0  0
    0.5140   11.2790   -2.6860 C   0  0  1  0  0  0  0  0  0  0  0  0
   -0.8560   11.1160   -1.9760 C   0  0  0  0  0  0  0  0  0  0  0  0
   -0.9610   12.2610   -0.9360 C   0  0  0  0  0  0  0  0  0  0  0  0
    0.1860   13.2300   -1.3060 C   0  0  1  0  0  0  0  0  0  0  0  0
   -0.3730   14.0820   -2.4880 C   0  0  0  0  0  0  0  0  0  0  0  0
    0.7290   14.1320   -0.1500 C   0  0  2  0  0  0  0  0  0  0  0  0
   -0.2950   15.1130    0.4470 C   0  0  0  0  0  0  0  0  0  0  0  0
   -0.3440   16.4570   -0.2010 C   0  0  0  0  0  0  0  0  0  0  0  0
    0.5910   16.9610   -1.0290 C   0  0  0  0  0  0  0  0  0  0  0  0
    1.8890   16.1930   -1.3110 C   0  0  1  0  0  0  0  0  0  0  0  0
    3.0970   17.1590   -1.1970 C   0  0  0  0  0  0  0  0  0  0  0  0
    2.9450   18.3930   -2.0820 C   0  0  0  0  0  0  0  0  0  0  0  0
    1.6730   19.1610   -1.7320 C   0  0  2  0  0  0  0  0  0  0  0  0
    1.8120   19.7070   -0.4160 O   0  0  0  0  0  0  0  0  0  0  0  0
    0.3900   18.2870   -1.8020 C   0  0  0  0  0  0  0  0  0  0  0  0
    0.0740   17.9450   -3.2790 C   0  0  0  0  0  0  0  0  0  0  0  0
   -0.8000   19.1430   -1.2910 C   0  0  0  0  0  0  0  0  0  0  0  0
    2.0970   14.8540   -0.4790 C   0  0  1  0  0  0  0  0  0  0  0  0
    2.7710   15.1780    0.8890 C   0  0  0  0  0  0  0  0  0  0  0  0
    3.0970   13.9180   -1.2560 C   0  0  0  0  0  0  0  0  0  0  0  0
    2.4860   12.9640   -2.3000 C   0  0  0  0  0  0  0  0  0  0  0  0
    1.2990   12.1960   -1.7130 C   0  0  2  0  0  0  0  0  0  0  0  0
    1.8350   11.3120   -0.5360 C   0  0  0  0  0  0  0  0  0  0  0  0
    0.4867    8.9272   -1.2602 H   0  0  0  0  0  0  0  0  0  0  0  0
   -0.6551    8.8209   -2.6428 H   0  0  0  0  0  0  0  0  0  0  0  0
    0.8491    7.8392   -2.6428 H   0  0  0  0  0  0  0  0  0  0  0  0
    1.0651    9.7745   -4.1359 H   0  0  0  0  0  0  0  0  0  0  0  0
    2.7862   10.5480   -1.7836 H   0  0  0  0  0  0  0  0  0  0  0  0
    2.9625    8.9106   -2.5781 H   0  0  0  0  0  0  0  0  0  0  0  0
    3.5669    9.8650   -4.6500 H   0  0  0  0  0  0  0  0  0  0  0  0
    3.0951   11.5260   -4.0969 H   0  0  0  0  0  0  0  0  0  0  0  0
    4.7169   10.2905   -2.3681 H   0  0  0  0  0  0  0  0  0  0  0  0
    5.5300    9.5812   -5.8565 H   0  0  0  0  0  0  0  0  0  0  0  0
    5.4069   11.3486   -6.1527 H   0  0  0  0  0  0  0  0  0  0  0  0
    7.0148   10.5478   -6.1527 H   0  0  0  0  0  0  0  0  0  0  0  0
    7.4073   10.5875   -2.5232 H   0  0  0  0  0  0  0  0  0  0  0  0
    7.8713    9.5940   -3.9460 H   0  0  0  0  0  0  0  0  0  0  0  0
    8.1823   11.3632   -3.9460 H   0  0  0  0  0  0  0  0  0  0  0  0
    0.4670   11.7400   -3.6836 H   0  0  0  0  0  0  0  0  0  0  0  0
   -1.6734   11.1933   -2.7080 H   0  0  0  0  0  0  0  0  0  0  0  0
   -0.9336   10.1326   -1.4893 H   0  0  0  0  0  0  0  0  0  0  0  0
   -1.9354   12.7659   -1.0112 H   0  0  0  0  0  0  0  0  0  0  0  0
   -0.8803   11.8943    0.0979 H   0  0  0  0  0  0  0  0  0  0  0  0
   -0.9352   14.9389   -2.0885 H   0  0  0  0  0  0  0  0  0  0  0  0
    0.4621   14.4465   -3.1043 H   0  0  0  0  0  0  0  0  0  0  0  0
   -1.0398   13.4611   -3.1043 H   0  0  0  0  0  0  0  0  0  0  0  0
    0.9385   13.3988    0.6428 H   0  0  0  0  0  0  0  0  0  0  0  0
   -1.2925   14.6574    0.3604 H   0  0  0  0  0  0  0  0  0  0  0  0
    0.0212   15.2877    1.4860 H   0  0  0  0  0  0  0  0  0  0  0  0
   -1.2177   17.0891    0.0162 H   0  0  0  0  0  0  0  0  0  0  0  0
    1.8048   15.8211   -2.3428 H   0  0  0  0  0  0  0  0  0  0  0  0
    3.1904   17.4849   -0.1505 H   0  0  0  0  0  0  0  0  0  0  0  0
    3.9922   16.6153   -1.5331 H   0  0  0  0  0  0  0  0  0  0  0  0
    3.8146   19.0506   -1.9355 H   0  0  0  0  0  0  0  0  0  0  0  0
    2.8817   18.0676   -3.1309 H   0  0  0  0  0  0  0  0  0  0  0  0
    1.5512   19.9565   -2.4819 H   0  0  0  0  0  0  0  0  0  0  0  0
    2.5930   20.2850   -0.4190 H   0  0  0  0  0  0  0  0  0  0  0  0
   -0.6721   17.1376   -3.3169 H   0  0  0  0  0  0  0  0  0  0  0  0
   -0.3249   18.8368   -3.7846 H   0  0  0  0  0  0  0  0  0  0  0  0
    0.9945   17.6177   -3.7846 H   0  0  0  0  0  0  0  0  0  0  0  0
   -0.8039   19.1458   -0.1910 H   0  0  0  0  0  0  0  0  0  0  0  0
   -0.6952   20.1740   -1.6600 H   0  0  0  0  0  0  0  0  0  0  0  0
   -1.7441   18.7157   -1.6600 H   0  0  0  0  0  0  0  0  0  0  0  0
    2.1094   14.8599    1.7082 H   0  0  0  0  0  0  0  0  0  0  0  0
    3.7287   14.6419    0.9620 H   0  0  0  0  0  0  0  0  0  0  0  0
    2.9505   16.2608    0.9620 H   0  0  0  0  0  0  0  0  0  0  0  0
    3.8199   14.5629   -1.7772 H   0  0  0  0  0  0  0  0  0  0  0  0
    3.5340   13.2628   -0.4880 H   0  0  0  0  0  0  0  0  0  0  0  0
    2.1428   13.5499   -3.1654 H   0  0  0  0  0  0  0  0  0  0  0  0
    3.2554   12.2397   -2.6056 H   0  0  0  0  0  0  0  0  0  0  0  0
    1.5565   11.7714    0.4239 H   0  0  0  0  0  0  0  0  0  0  0  0
    1.3945   10.3063   -0.6027 H   0  0  0  0  0  0  0  0  0  0  0  0
    2.9305   11.2376   -0.6027 H   0  0  0  0  0  0  0  0  0  0  0  0
  1  2  1  0
  2  3  1  0
  3  4  1  0
  4  5  1  0
  5  6  1  0
  6  7  1  0
  7  8  1  0
  7  9  1  0
  2 10  1  0
 10 11  1  0
 11 12  1  0
 12 13  1  0
 13 14  1  6
 13 15  1  0
 15 16  1  0
 16 17  1  0
 17 18  2  0
 18 19  1  0
 19 20  1  0
 20 21  1  0
 21 22  1  0
 22 23  1  0
 22 24  1  0
 24 25  1  0
 24 26  1  0
 19 27  1  0
 27 28  1  1
 27 29  1  0
 29 30  1  0
 30 31  1  0
 31 32  1  1
  7  5  1  0
 31 10  1  0
 31 13  1  0
 27 15  1  0
 24 18  1  0
  1 33  1  0
  1 34  1  0
  1 35  1  0
  2 36  1  6
  3 37  1  0
  3 38  1  0
  4 39  1  0
  4 40  1  0
  5 41  1  1
  8 42  1  0
  8 43  1  0
  8 44  1  0
  9 45  1  0
  9 46  1  0
  9 47  1  0
 10 48  1  6
 11 49  1  0
 11 50  1  0
 12 51  1  0
 12 52  1  0
 14 53  1  0
 14 54  1  0
 14 55  1  0
 15 56  1  1
 16 57  1  0
 16 58  1  0
 17 59  1  0
 19 60  1  6
 20 61  1  0
 20 62  1  0
 21 63  1  0
 21 64  1  0
 22 65  1  6
 23 66  1  0
 25 67  1  0
 25 68  1  0
 25 69  1  0
 26 70  1  0
 26 71  1  0
 26 72  1  0
 28 73  1  0
 28 74  1  0
 28 75  1  0
 29 76  1  0
 29 77  1  0
 30 78  1  0
 30 79  1  0
 32 80  1  0
 32 81  1  0
 32 82  1  0
M  END
>  <meeko>  (8) 
{"is_sidechain": [false], "intermolecular_energy": 2.731, "internal_energy": -0.839}

$$$$
EPH_relaxed_0001_pdb2pqr_Repair_236_r2_0001_out
     RDKit          3D

 82 86  0  0  0  0  0  0  0  0999 V2000
    0.1390   17.7760   -2.5400 C   0  0  0  0  0  0  0  0  0  0  0  0
   -0.1240   16.8650   -1.3370 C   0  0  2  0  0  0  0  0  0  0  0  0
   -0.1920   17.6550   -0.0140 C   0  0  0  0  0  0  0  0  0  0  0  0
    0.4070   19.0610   -0.1060 C   0  0  0  0  0  0  0  0  0  0  0  0
    1.5700   19.2290    0.8260 C   0  0  2  0  0  0  0  0  0  0  0  0
    2.5470   20.1860    0.3960 O   0  0  0  0  0  0  0  0  0  0  0  0
    2.9880   18.8210    0.4750 C   0  0  0  0  0  0  0  0  0  0  0  0
    3.3200   18.2100   -0.8500 C   0  0  0  0  0  0  0  0  0  0  0  0
    3.9540   18.5630    1.5890 C   0  0  0  0  0  0  0  0  0  0  0  0
    0.9580   15.7950   -1.2490 C   0  0  1  0  0  0  0  0  0  0  0  0
    1.1530   15.2600    0.1950 C   0  0  0  0  0  0  0  0  0  0  0  0
    1.5030   13.7550    0.0710 C   0  0  0  0  0  0  0  0  0  0  0  0
    1.8210   13.5510   -1.4290 C   0  0  1  0  0  0  0  0  0  0  0  0
    3.2960   14.0350   -1.5950 C   0  0  0  0  0  0  0  0  0  0  0  0
    1.6230   12.1030   -1.9870 C   0  0  2  0  0  0  0  0  0  0  0  0
    2.5250   11.0300   -1.3520 C   0  0  0  0  0  0  0  0  0  0  0  0
    3.8340   10.8120   -2.0350 C   0  0  0  0  0  0  0  0  0  0  0  0
    4.1530   11.2410   -3.2700 C   0  0  0  0  0  0  0  0  0  0  0  0
    3.1130   11.9420   -4.1540 C   0  0  1  0  0  0  0  0  0  0  0  0
    3.1580   11.3410   -5.5830 C   0  0  0  0  0  0  0  0  0  0  0  0
    4.5580   11.3770   -6.1890 C   0  0  0  0  0  0  0  0  0  0  0  0
    5.5520   10.6210   -5.3120 C   0  0  2  0  0  0  0  0  0  0  0  0
    5.2160    9.2300   -5.3280 O   0  0  0  0  0  0  0  0  0  0  0  0
    5.5870   11.1330   -3.8440 C   0  0  0  0  0  0  0  0  0  0  0  0
    6.2370   12.5380   -3.7990 C   0  0  0  0  0  0  0  0  0  0  0  0
    6.5230   10.1950   -3.0340 C   0  0  0  0  0  0  0  0  0  0  0  0
    1.6380   12.0100   -3.5660 C   0  0  1  0  0  0  0  0  0  0  0  0
    0.8550   10.7150   -3.9430 C   0  0  0  0  0  0  0  0  0  0  0  0
    0.8690   13.2060   -4.2440 C   0  0  0  0  0  0  0  0  0  0  0  0
    1.0090   14.5880   -3.5770 C   0  0  0  0  0  0  0  0  0  0  0  0
    0.7440   14.4990   -2.0710 C   0  0  2  0  0  0  0  0  0  0  0  0
   -0.7390   14.0350   -1.8720 C   0  0  0  0  0  0  0  0  0  0  0  0
    0.4279   18.7766   -2.1860 H   0  0  0  0  0  0  0  0  0  0  0  0
    0.9519   17.3537   -3.1490 H   0  0  0  0  0  0  0  0  0  0  0  0
   -0.7739   17.8519   -3.1490 H   0  0  0  0  0  0  0  0  0  0  0  0
   -1.1048   16.3908   -1.4894 H   0  0  0  0  0  0  0  0  0  0  0  0
   -1.2474   17.7457    0.2826 H   0  0  0  0  0  0  0  0  0  0  0  0
    0.4047   17.0987    0.7239 H   0  0  0  0  0  0  0  0  0  0  0  0
    0.7478   19.2368   -1.1370 H   0  0  0  0  0  0  0  0  0  0  0  0
   -0.3701   19.7849    0.1804 H   0  0  0  0  0  0  0  0  0  0  0  0
    0.9344   19.0124    1.6973 H   0  0  0  0  0  0  0  0  0  0  0  0
    3.8398   17.2534   -0.6927 H   0  0  0  0  0  0  0  0  0  0  0  0
    2.3930   18.0349   -1.4156 H   0  0  0  0  0  0  0  0  0  0  0  0
    3.9713   18.8925   -1.4156 H   0  0  0  0  0  0  0  0  0  0  0  0
    3.4449   18.6990    2.5546 H   0  0  0  0  0  0  0  0  0  0  0  0
    4.3317   17.5325    1.5155 H   0  0  0  0  0  0  0  0  0  0  0  0
    4.7952   19.2680    1.5155 H   0  0  0  0  0  0  0  0  0  0  0  0
    1.8107   16.3605   -1.6528 H   0  0  0  0  0  0  0  0  0  0  0  0
    1.9728   15.7999    0.6915 H   0  0  0  0  0  0  0  0  0  0  0  0
    0.2435   15.4057    0.7963 H   0  0  0  0  0  0  0  0  0  0  0  0
    2.3775   13.5073    0.6906 H   0  0  0  0  0  0  0  0  0  0  0  0
    0.6843   13.1064    0.4160 H   0  0  0  0  0  0  0  0  0  0  0  0
    3.7472   14.1830   -0.6028 H   0  0  0  0  0  0  0  0  0  0  0  0
    3.8701   13.2781   -2.1496 H   0  0  0  0  0  0  0  0  0  0  0  0
    3.3100   14.9849   -2.1496 H   0  0  0  0  0  0  0  0  0  0  0  0
    0.5997   11.8628   -1.6627 H   0  0  0  0  0  0  0  0  0  0  0  0
    2.7292   11.3289   -0.3133 H   0  0  0  0  0  0  0  0  0  0  0  0
    1.9754   10.0810   -1.4374 H   0  0  0  0  0  0  0  0  0  0  0  0
    4.6034   10.2532   -1.4820 H   0  0  0  0  0  0  0  0  0  0  0  0
    3.4056   13.0019   -4.1866 H   0  0  0  0  0  0  0  0  0  0  0  0
    2.8207   10.2950   -5.5364 H   0  0  0  0  0  0  0  0  0  0  0  0
    2.5017   11.9499   -6.2222 H   0  0  0  0  0  0  0  0  0  0  0  0
    4.5309   10.9119   -7.1855 H   0  0  0  0  0  0  0  0  0  0  0  0
    4.8817   12.4257   -6.2624 H   0  0  0  0  0  0  0  0  0  0  0  0
    6.5557   10.7922   -5.7282 H   0  0  0  0  0  0  0  0  0  0  0  0
    5.9280    8.7500   -4.8720 H   0  0  0  0  0  0  0  0  0  0  0  0
    6.3782   12.8433   -2.7517 H   0  0  0  0  0  0  0  0  0  0  0  0
    7.2124   12.5072   -4.3067 H   0  0  0  0  0  0  0  0  0  0  0  0
    5.5821   13.2614   -4.3067 H   0  0  0  0  0  0  0  0  0  0  0  0
    6.3619   10.3564   -1.9579 H   0  0  0  0  0  0  0  0  0  0  0  0
    6.2992    9.1477   -3.2852 H   0  0  0  0  0  0  0  0  0  0  0  0
    7.5708   10.4165   -3.2852 H   0  0  0  0  0  0  0  0  0  0  0  0
    0.5412   10.1960   -3.0253 H   0  0  0  0  0  0  0  0  0  0  0  0
   -0.0328   10.9825   -4.5348 H   0  0  0  0  0  0  0  0  0  0  0  0
    1.5043   10.0531   -4.5348 H   0  0  0  0  0  0  0  0  0  0  0  0
    1.2372   13.2959   -5.2767 H   0  0  0  0  0  0  0  0  0  0  0  0
   -0.1972   12.9501   -4.1559 H   0  0  0  0  0  0  0  0  0  0  0  0
    2.0292   14.9652   -3.7412 H   0  0  0  0  0  0  0  0  0  0  0  0
    0.2701   15.2696   -4.0236 H   0  0  0  0  0  0  0  0  0  0  0  0
   -0.9604   13.9657   -0.7967 H   0  0  0  0  0  0  0  0  0  0  0  0
   -1.4172   14.7639   -2.3398 H   0  0  0  0  0  0  0  0  0  0  0  0
   -0.8808   13.0496   -2.3398 H   0  0  0  0  0  0  0  0  0  0  0  0
  1  2  1  0
  2  3  1  0
  3  4  1  0
  4  5  1  0
  5  6  1  0
  6  7  1  0
  7  8  1  0
  7  9  1  0
  2 10  1  0
 10 11  1  0
 11 12  1  0
 12 13  1  0
 13 14  1  1
 13 15  1  0
 15 16  1  0
 16 17  1  0
 17 18  2  0
 18 19  1  0
 19 20  1  0
 20 21  1  0
 21 22  1  0
 22 23  1  0
 22 24  1  0
 24 25  1  0
 24 26  1  0
 19 27  1  0
 27 28  1  1
 27 29  1  0
 29 30  1  0
 30 31  1  0
 31 32  1  6
  7  5  1  0
 31 10  1  0
 31 13  1  0
 27 15  1  0
 24 18  1  0
  1 33  1  0
  1 34  1  0
  1 35  1  0
  2 36  1  6
  3 37  1  0
  3 38  1  0
  4 39  1  0
  4 40  1  0
  5 41  1  1
  8 42  1  0
  8 43  1  0
  8 44  1  0
  9 45  1  0
  9 46  1  0
  9 47  1  0
 10 48  1  6
 11 49  1  0
 11 50  1  0
 12 51  1  0
 12 52  1  0
 14 53  1  0
 14 54  1  0
 14 55  1  0
 15 56  1  1
 16 57  1  0
 16 58  1  0
 17 59  1  0
 19 60  1  6
 20 61  1  0
 20 62  1  0
 21 63  1  0
 21 64  1  0
 22 65  1  6
 23 66  1  0
 25 67  1  0
 25 68  1  0
 25 69  1  0
 26 70  1  0
 26 71  1  0
 26 72  1  0
 28 73  1  0
 28 74  1  0
 28 75  1  0
 29 76  1  0
 29 77  1  0
 30 78  1  0
 30 79  1  0
 32 80  1  0
 32 81  1  0
 32 82  1  0
M  END
>  <meeko>  (9) 
{"is_sidechain": [false], "intermolecular_energy": 2.731, "internal_energy": -0.839}

$$$$
EPH_relaxed_0001_pdb2pqr_Repair_236_r2_0001_out
     RDKit          3D

 82 86  0  0  0  0  0  0  0  0999 V2000
    2.7360   19.0860   -1.1180 C   0  0  0  0  0  0  0  0  0  0  0  0
    2.4780   18.0620   -2.2270 C   0  0  2  0  0  0  0  0  0  0  0  0
    1.0510   18.1740   -2.8000 C   0  0  0  0  0  0  0  0  0  0  0  0
    0.2970   19.4230   -2.3350 C   0  0  0  0  0  0  0  0  0  0  0  0
   -0.9920   19.0720   -1.6570 C   0  0  2  0  0  0  0  0  0  0  0  0
   -1.8230   20.1940   -1.3310 O   0  0  0  0  0  0  0  0  0  0  0  0
   -1.3100   19.4410   -0.2200 C   0  0  0  0  0  0  0  0  0  0  0  0
   -0.3320   20.1940    0.6260 C   0  0  0  0  0  0  0  0  0  0  0  0
   -2.3540   18.6530    0.5070 C   0  0  0  0  0  0  0  0  0  0  0  0
    2.7180   16.6530   -1.6990 C   0  0  1  0  0  0  0  0  0  0  0  0
    3.5560   16.6380   -0.3930 C   0  0  0  0  0  0  0  0  0  0  0  0
    3.0200   15.4670    0.4690 C   0  0  0  0  0  0  0  0  0  0  0  0
    2.1300   14.6480   -0.4950 C   0  0  1  0  0  0  0  0  0  0  0  0
    3.1270   13.7610   -1.3050 C   0  0  0  0  0  0  0  0  0  0  0  0
    1.0010   13.7910    0.1660 C   0  0  2  0  0  0  0  0  0  0  0  0
    1.4930   12.6840    1.1140 C   0  0  0  0  0  0  0  0  0  0  0  0
    1.7370   11.3570    0.4740 C   0  0  0  0  0  0  0  0  0  0  0  0
    1.3020   10.9850   -0.7450 C   0  0  0  0  0  0  0  0  0  0  0  0
    0.3970   11.9060   -1.5730 C   0  0  1  0  0  0  0  0  0  0  0  0
   -0.7870   11.0870   -2.1490 C   0  0  0  0  0  0  0  0  0  0  0  0
   -0.3250    9.8630   -2.9340 C   0  0  0  0  0  0  0  0  0  0  0  0
    0.5240    8.9430   -2.0600 C   0  0  2  0  0  0  0  0  0  0  0  0
   -0.3050    8.3890   -1.0340 O   0  0  0  0  0  0  0  0  0  0  0  0
    1.7420    9.6610   -1.4170 C   0  0  0  0  0  0  0  0  0  0  0  0
    2.7870    9.9950   -2.5100 C   0  0  0  0  0  0  0  0  0  0  0  0
    2.4310    8.6600   -0.4500 C   0  0  0  0  0  0  0  0  0  0  0  0
   -0.0770   13.2420   -0.8540 C   0  0  1  0  0  0  0  0  0  0  0  0
   -1.3720   12.9710   -0.0300 C   0  0  0  0  0  0  0  0  0  0  0  0
   -0.4620   14.3060   -1.9490 C   0  0  0  0  0  0  0  0  0  0  0  0
    0.6750   15.2030   -2.4750 C   0  0  0  0  0  0  0  0  0  0  0  0
    1.4720   15.8140   -1.3190 C   0  0  2  0  0  0  0  0  0  0  0  0
    0.5000   16.7290   -0.4980 C   0  0  0  0  0  0  0  0  0  0  0  0
    2.6143   18.6029   -0.1373 H   0  0  0  0  0  0  0  0  0  0  0  0
    3.7605   19.4759   -1.2100 H   0  0  0  0  0  0  0  0  0  0  0  0
    2.0186   19.9148   -1.2100 H   0  0  0  0  0  0  0  0  0  0  0  0
    3.1803   18.2768   -3.0459 H   0  0  0  0  0  0  0  0  0  0  0  0
    1.1184   18.1977   -3.8977 H   0  0  0  0  0  0  0  0  0  0  0  0
    0.4879   17.3033   -2.4327 H   0  0  0  0  0  0  0  0  0  0  0  0
    0.9309   19.9799   -1.6292 H   0  0  0  0  0  0  0  0  0  0  0  0
    0.0637   20.0322   -3.2207 H   0  0  0  0  0  0  0  0  0  0  0  0
   -1.0459   18.1187   -2.2032 H   0  0  0  0  0  0  0  0  0  0  0  0
   -0.5569   20.0208    1.6887 H   0  0  0  0  0  0  0  0  0  0  0  0
    0.6879   19.8457    0.4056 H   0  0  0  0  0  0  0  0  0  0  0  0
   -0.4080   21.2690    0.4056 H   0  0  0  0  0  0  0  0  0  0  0  0
   -2.2077   18.7635    1.5916 H   0  0  0  0  0  0  0  0  0  0  0  0
   -3.3520   19.0250    0.2319 H   0  0  0  0  0  0  0  0  0  0  0  0
   -2.2698   17.5913    0.2319 H   0  0  0  0  0  0  0  0  0  0  0  0
    3.2166   16.2113   -2.5744 H   0  0  0  0  0  0  0  0  0  0  0  0
    4.6192   16.4804   -0.6270 H   0  0  0  0  0  0  0  0  0  0  0  0
    3.4692   17.5947    0.1428 H   0  0  0  0  0  0  0  0  0  0  0  0
    3.8498   14.8524    0.8480 H   0  0  0  0  0  0  0  0  0  0  0  0
    2.4653   15.8186    1.3515 H   0  0  0  0  0  0  0  0  0  0  0  0
    3.7632   13.1950   -0.6087 H   0  0  0  0  0  0  0  0  0  0  0  0
    2.5632   13.0605   -1.9385 H   0  0  0  0  0  0  0  0  0  0  0  0
    3.7571   14.4025   -1.9385 H   0  0  0  0  0  0  0  0  0  0  0  0
    0.4901   14.5261    0.8052 H   0  0  0  0  0  0  0  0  0  0  0  0
    2.4364   13.0205    1.5686 H   0  0  0  0  0  0  0  0  0  0  0  0
    0.6841   12.5260    1.8425 H   0  0  0  0  0  0  0  0  0  0  0  0
    2.3212   10.6215    1.0465 H   0  0  0  0  0  0  0  0  0  0  0  0
    1.0214   12.2873   -2.3944 H   0  0  0  0  0  0  0  0  0  0  0  0
   -1.4225   10.7523   -1.3159 H   0  0  0  0  0  0  0  0  0  0  0  0
   -1.3383   11.7395   -2.8421 H   0  0  0  0  0  0  0  0  0  0  0  0
   -1.2066    9.3094   -3.2893 H   0  0  0  0  0  0  0  0  0  0  0  0
    0.2853   10.2010   -3.7845 H   0  0  0  0  0  0  0  0  0  0  0  0
    0.9326    8.1550   -2.7097 H   0  0  0  0  0  0  0  0  0  0  0  0
   -0.0640    8.8200   -0.1960 H   0  0  0  0  0  0  0  0  0  0  0  0
    3.7316   10.2969   -2.0341 H   0  0  0  0  0  0  0  0  0  0  0  0
    2.9593    9.1071   -3.1361 H   0  0  0  0  0  0  0  0  0  0  0  0
    2.4124   10.8182   -3.1361 H   0  0  0  0  0  0  0  0  0  0  0  0
    2.2275    8.9556    0.5898 H   0  0  0  0  0  0  0  0  0  0  0  0
    2.0369    7.6485   -0.6274 H   0  0  0  0  0  0  0  0  0  0  0  0
    3.5166    8.6669   -0.6274 H   0  0  0  0  0  0  0  0  0  0  0  0
   -1.1400   13.0196    1.0442 H   0  0  0  0  0  0  0  0  0  0  0  0
   -2.1289   13.7302   -0.2763 H   0  0  0  0  0  0  0  0  0  0  0  0
   -1.7610   11.9720   -0.2763 H   0  0  0  0  0  0  0  0  0  0  0  0
   -0.8819   13.7625   -2.8082 H   0  0  0  0  0  0  0  0  0  0  0  0
   -1.1630   14.9917   -1.4506 H   0  0  0  0  0  0  0  0  0  0  0  0
    1.3509   14.5988   -3.0980 H   0  0  0  0  0  0  0  0  0  0  0  0
    0.2328   16.0190   -3.0654 H   0  0  0  0  0  0  0  0  0  0  0  0
    0.6682   16.5707    0.5775 H   0  0  0  0  0  0  0  0  0  0  0  0
    0.6904   17.7832   -0.7476 H   0  0  0  0  0  0  0  0  0  0  0  0
   -0.5408   16.4753   -0.7476 H   0  0  0  0  0  0  0  0  0  0  0  0
  1  2  1  0
  2  3  1  0
  3  4  1  0
  4  5  1  0
  5  6  1  0
  6  7  1  0
  7  8  1  0
  7  9  1  0
  2 10  1  0
 10 11  1  0
 11 12  1  0
 12 13  1  0
 13 14  1  6
 13 15  1  0
 15 16  1  0
 16 17  1  0
 17 18  2  0
 18 19  1  0
 19 20  1  0
 20 21  1  0
 21 22  1  0
 22 23  1  0
 22 24  1  0
 24 25  1  0
 24 26  1  0
 19 27  1  0
 27 28  1  1
 27 29  1  0
 29 30  1  0
 30 31  1  0
 31 32  1  1
  7  5  1  0
 31 10  1  0
 31 13  1  0
 27 15  1  0
 24 18  1  0
  1 33  1  0
  1 34  1  0
  1 35  1  0
  2 36  1  6
  3 37  1  0
  3 38  1  0
  4 39  1  0
  4 40  1  0
  5 41  1  6
  8 42  1  0
  8 43  1  0
  8 44  1  0
  9 45  1  0
  9 46  1  0
  9 47  1  0
 10 48  1  6
 11 49  1  0
 11 50  1  0
 12 51  1  0
 12 52  1  0
 14 53  1  0
 14 54  1  0
 14 55  1  0
 15 56  1  1
 16 57  1  0
 16 58  1  0
 17 59  1  0
 19 60  1  6
 20 61  1  0
 20 62  1  0
 21 63  1  0
 21 64  1  0
 22 65  1  6
 23 66  1  0
 25 67  1  0
 25 68  1  0
 25 69  1  0
 26 70  1  0
 26 71  1  0
 26 72  1  0
 28 73  1  0
 28 74  1  0
 28 75  1  0
 29 76  1  0
 29 77  1  0
 30 78  1  0
 30 79  1  0
 32 80  1  0
 32 81  1  0
 32 82  1  0
M  END
>  <meeko>  (10) 
{"is_sidechain": [false], "intermolecular_energy": 2.731, "internal_energy": -0.839}

$$$$
EPH_relaxed_0001_pdb2pqr_Repair_236_r2_0001_out
     RDKit          3D

 82 86  0  0  0  0  0  0  0  0999 V2000
   -3.7270    7.2210   -3.4330 C   0  0  0  0  0  0  0  0  0  0  0  0
   -3.7440    7.2870   -1.9040 C   0  0  2  0  0  0  0  0  0  0  0  0
   -5.1550    7.0570   -1.3280 C   0  0  0  0  0  0  0  0  0  0  0  0
   -6.2770    7.2480   -2.3520 C   0  0  0  0  0  0  0  0  0  0  0  0
   -7.6010    7.4740   -1.6890 C   0  0  2  0  0  0  0  0  0  0  0  0
   -8.1940    6.3000   -1.1190 O   0  0  0  0  0  0  0  0  0  0  0  0
   -8.9070    6.9040   -2.2100 C   0  0  0  0  0  0  0  0  0  0  0  0
   -8.9520    6.0630   -3.4470 C   0  0  0  0  0  0  0  0  0  0  0  0
  -10.1890    7.5610   -1.8030 C   0  0  0  0  0  0  0  0  0  0  0  0
   -3.2030    8.6330   -1.4360 C   0  0  1  0  0  0  0  0  0  0  0  0
   -3.8250    9.0920   -0.0900 C   0  0  0  0  0  0  0  0  0  0  0  0
   -2.7130    9.8460    0.6830 C   0  0  0  0  0  0  0  0  0  0  0  0
   -1.6030   10.0860   -0.3670 C   0  0  1  0  0  0  0  0  0  0  0  0
   -2.0720   11.3410   -1.1680 C   0  0  0  0  0  0  0  0  0  0  0  0
   -0.1530   10.2660    0.1890 C   0  0  2  0  0  0  0  0  0  0  0  0
    0.0480   11.4860    1.1050 C   0  0  0  0  0  0  0  0  0  0  0  0
    0.4600   12.7420    0.4120 C   0  0  0  0  0  0  0  0  0  0  0  0
    0.9360   12.8220   -0.8450 C   0  0  0  0  0  0  0  0  0  0  0  0
    1.1930   11.5560   -1.6720 C   0  0  1  0  0  0  0  0  0  0  0  0
    2.5850   11.6540   -2.3500 C   0  0  0  0  0  0  0  0  0  0  0  0
    2.7470   12.9300   -3.1710 C   0  0  0  0  0  0  0  0  0  0  0  0
    2.5420   14.1680   -2.3010 C   0  0  2  0  0  0  0  0  0  0  0  0
    3.6070   14.2440   -1.3490 O   0  0  0  0  0  0  0  0  0  0  0  0
    1.1760   14.1750   -1.5590 C   0  0  0  0  0  0  0  0  0  0  0  0
    0.0310   14.3970   -2.5780 C   0  0  0  0  0  0  0  0  0  0  0  0
    1.1550   15.4040   -0.6100 C   0  0  0  0  0  0  0  0  0  0  0  0
    0.9800   10.1770   -0.9120 C   0  0  1  0  0  0  0  0  0  0  0  0
    2.2900    9.7690   -0.1710 C   0  0  0  0  0  0  0  0  0  0  0  0
    0.6980    9.0450   -1.9700 C   0  0  0  0  0  0  0  0  0  0  0  0
   -0.7690    8.8370   -2.3900 C   0  0  0  0  0  0  0  0  0  0  0  0
   -1.6810    8.7330   -1.1640 C   0  0  2  0  0  0  0  0  0  0  0  0
   -1.2470    7.4670   -0.3510 C   0  0  0  0  0  0  0  0  0  0  0  0
   -3.4645    6.2019   -3.7531 H   0  0  0  0  0  0  0  0  0  0  0  0
   -4.7219    7.4828   -3.8224 H   0  0  0  0  0  0  0  0  0  0  0  0
   -2.9824    7.9309   -3.8224 H   0  0  0  0  0  0  0  0  0  0  0  0
   -3.0998    6.4772   -1.5308 H   0  0  0  0  0  0  0  0  0  0  0  0
   -5.2089    6.0285   -0.9417 H   0  0  0  0  0  0  0  0  0  0  0  0
   -5.3072    7.8099   -0.5406 H   0  0  0  0  0  0  0  0  0  0  0  0
   -6.0405    8.1186   -2.9814 H   0  0  0  0  0  0  0  0  0  0  0  0
   -6.3486    6.3317   -2.9564 H   0  0  0  0  0  0  0  0  0  0  0  0
   -7.3055    8.4920   -1.3952 H   0  0  0  0  0  0  0  0  0  0  0  0
   -9.0088    5.0009   -3.1664 H   0  0  0  0  0  0  0  0  0  0  0  0
   -9.8370    6.3329   -4.0419 H   0  0  0  0  0  0  0  0  0  0  0  0
   -8.0433    6.2370   -4.0419 H   0  0  0  0  0  0  0  0  0  0  0  0
  -10.2521    7.5933   -0.7053 H   0  0  0  0  0  0  0  0  0  0  0  0
  -10.2189    8.5855   -2.2023 H   0  0  0  0  0  0  0  0  0  0  0  0
  -11.0381    6.9869   -2.2023 H   0  0  0  0  0  0  0  0  0  0  0  0
   -3.4710    9.2510   -2.3056 H   0  0  0  0  0  0  0  0  0  0  0  0
   -4.6778    9.7615   -0.2757 H   0  0  0  0  0  0  0  0  0  0  0  0
   -4.1939    8.2319    0.4881 H   0  0  0  0  0  0  0  0  0  0  0  0
   -3.0914   10.8021    1.0737 H   0  0  0  0  0  0  0  0  0  0  0  0
   -2.3498    9.2776    1.5519 H   0  0  0  0  0  0  0  0  0  0  0  0
   -2.3685   12.1343   -0.4660 H   0  0  0  0  0  0  0  0  0  0  0  0
   -1.2477   11.7009   -1.8012 H   0  0  0  0  0  0  0  0  0  0  0  0
   -2.9303   11.0721   -1.8012 H   0  0  0  0  0  0  0  0  0  0  0  0
   -0.0383    9.3841    0.8364 H   0  0  0  0  0  0  0  0  0  0  0  0
   -0.9014   11.6805    1.6253 H   0  0  0  0  0  0  0  0  0  0  0  0
    0.8756   11.2259    1.7814 H   0  0  0  0  0  0  0  0  0  0  0  0
    0.3669   13.6819    0.9759 H   0  0  0  0  0  0  0  0  0  0  0  0
    0.4055   11.5287   -2.4395 H   0  0  0  0  0  0  0  0  0  0  0  0
    3.3596   11.6363   -1.5692 H   0  0  0  0  0  0  0  0  0  0  0  0
    2.6830   10.8003   -3.0367 H   0  0  0  0  0  0  0  0  0  0  0  0
    3.7592   12.9555   -3.6008 H   0  0  0  0  0  0  0  0  0  0  0  0
    1.9902   12.9325   -3.9693 H   0  0  0  0  0  0  0  0  0  0  0  0
    2.5420   15.0434   -2.9671 H   0  0  0  0  0  0  0  0  0  0  0  0
    3.6500   15.1610   -1.0280 H   0  0  0  0  0  0  0  0  0  0  0  0
   -0.9099   14.5794   -2.0382 H   0  0  0  0  0  0  0  0  0  0  0  0
    0.2658   15.2663   -3.2097 H   0  0  0  0  0  0  0  0  0  0  0  0
   -0.0761   13.5029   -3.2097 H   0  0  0  0  0  0  0  0  0  0  0  0
    1.1609   15.0605    0.4350 H   0  0  0  0  0  0  0  0  0  0  0  0
    2.0426   16.0264   -0.7964 H   0  0  0  0  0  0  0  0  0  0  0  0
    0.2466   15.9957   -0.7964 H   0  0  0  0  0  0  0  0  0  0  0  0
    2.1275    9.8196    0.9158 H   0  0  0  0  0  0  0  0  0  0  0  0
    2.5662    8.7423   -0.4530 H   0  0  0  0  0  0  0  0  0  0  0  0
    3.1004   10.4573   -0.4530 H   0  0  0  0  0  0  0  0  0  0  0  0
    1.2727    9.2860   -2.8764 H   0  0  0  0  0  0  0  0  0  0  0  0
    0.9910    8.1079   -1.4740 H   0  0  0  0  0  0  0  0  0  0  0  0
   -1.0910    9.6891   -3.0067 H   0  0  0  0  0  0  0  0  0  0  0  0
   -0.8407    7.8995   -2.9609 H   0  0  0  0  0  0  0  0  0  0  0  0
   -1.3200    7.6799    0.7257 H   0  0  0  0  0  0  0  0  0  0  0  0
   -1.9077    6.6246   -0.6038 H   0  0  0  0  0  0  0  0  0  0  0  0
   -0.2085    7.2071   -0.6038 H   0  0  0  0  0  0  0  0  0  0  0  0
  1  2  1  0
  2  3  1  0
  3  4  1  0
  4  5  1  0
  5  6  1  0
  6  7  1  0
  7  8  1  0
  7  9  1  0
  2 10  1  0
 10 11  1  0
 11 12  1  0
 12 13  1  0
 13 14  1  6
 13 15  1  0
 15 16  1  0
 16 17  1  0
 17 18  2  0
 18 19  1  0
 19 20  1  0
 20 21  1  0
 21 22  1  0
 22 23  1  0
 22 24  1  0
 24 25  1  0
 24 26  1  0
 19 27  1  0
 27 28  1  1
 27 29  1  0
 29 30  1  0
 30 31  1  0
 31 32  1  1
  7  5  1  0
 31 10  1  0
 31 13  1  0
 27 15  1  0
 24 18  1  0
  1 33  1  0
  1 34  1  0
  1 35  1  0
  2 36  1  1
  3 37  1  0
  3 38  1  0
  4 39  1  0
  4 40  1  0
  5 41  1  1
  8 42  1  0
  8 43  1  0
  8 44  1  0
  9 45  1  0
  9 46  1  0
  9 47  1  0
 10 48  1  6
 11 49  1  0
 11 50  1  0
 12 51  1  0
 12 52  1  0
 14 53  1  0
 14 54  1  0
 14 55  1  0
 15 56  1  1
 16 57  1  0
 16 58  1  0
 17 59  1  0
 19 60  1  6
 20 61  1  0
 20 62  1  0
 21 63  1  0
 21 64  1  0
 22 65  1  6
 23 66  1  0
 25 67  1  0
 25 68  1  0
 25 69  1  0
 26 70  1  0
 26 71  1  0
 26 72  1  0
 28 73  1  0
 28 74  1  0
 28 75  1  0
 29 76  1  0
 29 77  1  0
 30 78  1  0
 30 79  1  0
 32 80  1  0
 32 81  1  0
 32 82  1  0
M  END
>  <meeko>  (11) 
{"is_sidechain": [false], "intermolecular_energy": 2.731, "internal_energy": -0.839}

$$$$
EPH_relaxed_0001_pdb2pqr_Repair_236_r2_0001_out
     RDKit          3D

 82 86  0  0  0  0  0  0  0  0999 V2000
   -0.8740   16.3570   -5.8460 C   0  0  0  0  0  0  0  0  0  0  0  0
    0.2190   15.6600   -6.6610 C   0  0  2  0  0  0  0  0  0  0  0  0
   -0.1820   15.4860   -8.1400 C   0  0  0  0  0  0  0  0  0  0  0  0
    0.4660   16.5080   -9.0780 C   0  0  0  0  0  0  0  0  0  0  0  0
    1.8670   16.1180   -9.4400 C   0  0  2  0  0  0  0  0  0  0  0  0
    2.3440   16.6750  -10.6720 O   0  0  0  0  0  0  0  0  0  0  0  0
    2.2110   15.2450  -10.6320 C   0  0  0  0  0  0  0  0  0  0  0  0
    1.1480   14.7070  -11.5380 C   0  0  0  0  0  0  0  0  0  0  0  0
    3.5200   14.5170  -10.6330 C   0  0  0  0  0  0  0  0  0  0  0  0
    0.5430   14.3040   -6.0460 C   0  0  1  0  0  0  0  0  0  0  0  0
    1.8080   13.6530   -6.6660 C   0  0  0  0  0  0  0  0  0  0  0  0
    2.5200   12.8820   -5.5250 C   0  0  0  0  0  0  0  0  0  0  0  0
    1.4820   12.8370   -4.3790 C   0  0  1  0  0  0  0  0  0  0  0  0
    0.5280   11.6580   -4.7490 C   0  0  0  0  0  0  0  0  0  0  0  0
    2.0560   12.6820   -2.9330 C   0  0  2  0  0  0  0  0  0  0  0  0
    2.8290   11.3770   -2.6740 C   0  0  0  0  0  0  0  0  0  0  0  0
    2.0070   10.2390   -2.1670 C   0  0  0  0  0  0  0  0  0  0  0  0
    0.7640   10.3370   -1.6590 C   0  0  0  0  0  0  0  0  0  0  0  0
    0.0980   11.7050   -1.4660 C   0  0  1  0  0  0  0  0  0  0  0  0
   -0.5460   11.7730   -0.0570 C   0  0  0  0  0  0  0  0  0  0  0  0
   -1.5040   10.6150    0.2060 C   0  0  0  0  0  0  0  0  0  0  0  0
   -0.7900    9.2730    0.0610 C   0  0  2  0  0  0  0  0  0  0  0  0
    0.1770    9.1510    1.1080 O   0  0  0  0  0  0  0  0  0  0  0  0
   -0.0950    9.0950   -1.3170 C   0  0  0  0  0  0  0  0  0  0  0  0
   -1.1660    8.9250   -2.4230 C   0  0  0  0  0  0  0  0  0  0  0  0
    0.7040    7.7640   -1.2790 C   0  0  0  0  0  0  0  0  0  0  0  0
    1.0060   12.9700   -1.7840 C   0  0  1  0  0  0  0  0  0  0  0  0
    1.8280   13.3660   -0.5190 C   0  0  0  0  0  0  0  0  0  0  0  0
    0.0790   14.1980   -2.1150 C   0  0  0  0  0  0  0  0  0  0  0  0
   -0.3570   14.3640   -3.5830 C   0  0  0  0  0  0  0  0  0  0  0  0
    0.8460   14.2670   -4.5270 C   0  0  2  0  0  0  0  0  0  0  0  0
    1.8130   15.4530   -4.1930 C   0  0  0  0  0  0  0  0  0  0  0  0
   -0.6703   16.2271   -4.7729 H   0  0  0  0  0  0  0  0  0  0  0  0
   -0.8855   17.4296   -6.0898 H   0  0  0  0  0  0  0  0  0  0  0  0
   -1.8513   15.9150   -6.0898 H   0  0  0  0  0  0  0  0  0  0  0  0
    1.1117   16.3021   -6.6339 H   0  0  0  0  0  0  0  0  0  0  0  0
    0.1169   14.4784   -8.4646 H   0  0  0  0  0  0  0  0  0  0  0  0
   -1.2695   15.6405   -8.1984 H   0  0  0  0  0  0  0  0  0  0  0  0
   -0.1334   16.5780   -9.9977 H   0  0  0  0  0  0  0  0  0  0  0  0
    0.5033   17.4761   -8.5571 H   0  0  0  0  0  0  0  0  0  0  0  0
    2.1509   16.0626   -8.3787 H   0  0  0  0  0  0  0  0  0  0  0  0
    0.3275   14.2917  -10.9344 H   0  0  0  0  0  0  0  0  0  0  0  0
    0.7621   15.5183  -12.1727 H   0  0  0  0  0  0  0  0  0  0  0  0
    1.5732   13.9156  -12.1727 H   0  0  0  0  0  0  0  0  0  0  0  0
    3.8410   14.3385   -9.5962 H   0  0  0  0  0  0  0  0  0  0  0  0
    3.4036   13.5540  -11.1518 H   0  0  0  0  0  0  0  0  0  0  0  0
    4.2767   15.1239  -11.1518 H   0  0  0  0  0  0  0  0  0  0  0  0
   -0.3994   13.7767   -6.2554 H   0  0  0  0  0  0  0  0  0  0  0  0
    1.5215   12.9595   -7.4703 H   0  0  0  0  0  0  0  0  0  0  0  0
    2.4712   14.4152   -7.1011 H   0  0  0  0  0  0  0  0  0  0  0  0
    2.7847   11.8649   -5.8496 H   0  0  0  0  0  0  0  0  0  0  0  0
    3.4599   13.3642   -5.2184 H   0  0  0  0  0  0  0  0  0  0  0  0
    0.1493   11.1900   -3.8284 H   0  0  0  0  0  0  0  0  0  0  0  0
   -0.3170   12.0416   -5.3397 H   0  0  0  0  0  0  0  0  0  0  0  0
    1.0794   10.9117   -5.3397 H   0  0  0  0  0  0  0  0  0  0  0  0
    2.8051   13.4863   -2.8895 H   0  0  0  0  0  0  0  0  0  0  0  0
    3.2951   11.0646   -3.6201 H   0  0  0  0  0  0  0  0  0  0  0  0
    3.5548   11.6057   -1.8797 H   0  0  0  0  0  0  0  0  0  0  0  0
    2.4547    9.2352   -2.2122 H   0  0  0  0  0  0  0  0  0  0  0  0
   -0.6833   11.7740   -2.2373 H   0  0  0  0  0  0  0  0  0  0  0  0
    0.2538   11.7471    0.6977 H   0  0  0  0  0  0  0  0  0  0  0  0
   -1.1266   12.7056   -0.0004 H   0  0  0  0  0  0  0  0  0  0  0  0
   -1.9026   10.7023    1.2275 H   0  0  0  0  0  0  0  0  0  0  0  0
   -2.3201   10.6601   -0.5302 H   0  0  0  0  0  0  0  0  0  0  0  0
   -1.5526    8.4834    0.1309 H   0  0  0  0  0  0  0  0  0  0  0  0
   -0.2880    8.8430    1.9040 H   0  0  0  0  0  0  0  0  0  0  0  0
   -2.1509    8.7687   -1.9587 H   0  0  0  0  0  0  0  0  0  0  0  0
   -1.1946    9.8298   -3.0479 H   0  0  0  0  0  0  0  0  0  0  0  0
   -0.9130    8.0558   -3.0479 H   0  0  0  0  0  0  0  0  0  0  0  0
    0.8796    7.4715   -0.2332 H   0  0  0  0  0  0  0  0  0  0  0  0
    0.1291    6.9766   -1.7884 H   0  0  0  0  0  0  0  0  0  0  0  0
    1.6692    7.9011   -1.7884 H   0  0  0  0  0  0  0  0  0  0  0  0
    1.2635   13.0940    0.3851 H   0  0  0  0  0  0  0  0  0  0  0  0
    2.7899   12.8325   -0.5250 H   0  0  0  0  0  0  0  0  0  0  0  0
    2.0103   14.4508   -0.5250 H   0  0  0  0  0  0  0  0  0  0  0  0
   -0.8321   14.1006   -1.5064 H   0  0  0  0  0  0  0  0  0  0  0  0
    0.6887   15.0864   -1.8939 H   0  0  0  0  0  0  0  0  0  0  0  0
   -1.0776   13.5724   -3.8360 H   0  0  0  0  0  0  0  0  0  0  0  0
   -0.8170   15.3561   -3.7021 H   0  0  0  0  0  0  0  0  0  0  0  0
    1.8996   15.5592   -3.1016 H   0  0  0  0  0  0  0  0  0  0  0  0
    2.8053   15.2488   -4.6214 H   0  0  0  0  0  0  0  0  0  0  0  0
    1.4132   16.3839   -4.6214 H   0  0  0  0  0  0  0  0  0  0  0  0
  1  2  1  0
  2  3  1  0
  3  4  1  0
  4  5  1  0
  5  6  1  0
  6  7  1  0
  7  8  1  0
  7  9  1  0
  2 10  1  0
 10 11  1  0
 11 12  1  0
 12 13  1  0
 13 14  1  6
 13 15  1  0
 15 16  1  0
 16 17  1  0
 17 18  2  0
 18 19  1  0
 19 20  1  0
 20 21  1  0
 21 22  1  0
 22 23  1  0
 22 24  1  0
 24 25  1  0
 24 26  1  0
 19 27  1  0
 27 28  1  1
 27 29  1  0
 29 30  1  0
 30 31  1  0
 31 32  1  1
  7  5  1  0
 31 10  1  0
 31 13  1  0
 27 15  1  0
 24 18  1  0
  1 33  1  0
  1 34  1  0
  1 35  1  0
  2 36  1  6
  3 37  1  0
  3 38  1  0
  4 39  1  0
  4 40  1  0
  5 41  1  1
  8 42  1  0
  8 43  1  0
  8 44  1  0
  9 45  1  0
  9 46  1  0
  9 47  1  0
 10 48  1  1
 11 49  1  0
 11 50  1  0
 12 51  1  0
 12 52  1  0
 14 53  1  0
 14 54  1  0
 14 55  1  0
 15 56  1  6
 16 57  1  0
 16 58  1  0
 17 59  1  0
 19 60  1  6
 20 61  1  0
 20 62  1  0
 21 63  1  0
 21 64  1  0
 22 65  1  1
 23 66  1  0
 25 67  1  0
 25 68  1  0
 25 69  1  0
 26 70  1  0
 26 71  1  0
 26 72  1  0
 28 73  1  0
 28 74  1  0
 28 75  1  0
 29 76  1  0
 29 77  1  0
 30 78  1  0
 30 79  1  0
 32 80  1  0
 32 81  1  0
 32 82  1  0
M  END
>  <meeko>  (12) 
{"is_sidechain": [false], "intermolecular_energy": 2.731, "internal_energy": -0.839}

$$$$
EPH_relaxed_0001_pdb2pqr_Repair_236_r2_0001_out
     RDKit          3D

 82 86  0  0  0  0  0  0  0  0999 V2000
   -2.0300    7.7370   -2.2420 C   0  0  0  0  0  0  0  0  0  0  0  0
   -2.1930    8.3930   -0.8670 C   0  0  2  0  0  0  0  0  0  0  0  0
   -3.6590    8.3860   -0.3910 C   0  0  0  0  0  0  0  0  0  0  0  0
   -4.6410    7.8300   -1.4260 C   0  0  0  0  0  0  0  0  0  0  0  0
   -5.7940    7.1270   -0.7760 C   0  0  2  0  0  0  0  0  0  0  0  0
   -6.3540    6.0570   -1.5480 O   0  0  0  0  0  0  0  0  0  0  0  0
   -7.2140    7.1820   -1.3070 C   0  0  0  0  0  0  0  0  0  0  0  0
   -7.5570    7.9600   -2.5390 C   0  0  0  0  0  0  0  0  0  0  0  0
   -8.3410    6.8900   -0.3670 C   0  0  0  0  0  0  0  0  0  0  0  0
   -1.6660    9.8220   -0.9080 C   0  0  1  0  0  0  0  0  0  0  0  0
   -1.2190   10.3340    0.4880 C   0  0  0  0  0  0  0  0  0  0  0  0
    0.0020   11.2610    0.2550 C   0  0  0  0  0  0  0  0  0  0  0  0
    0.0120   11.5160   -1.2700 C   0  0  1  0  0  0  0  0  0  0  0  0
   -1.0450   12.6420   -1.4960 C   0  0  0  0  0  0  0  0  0  0  0  0
    1.3950   11.8880   -1.8990 C   0  0  2  0  0  0  0  0  0  0  0  0
    2.0150   13.1980   -1.3840 C   0  0  0  0  0  0  0  0  0  0  0  0
    1.6510   14.4230   -2.1560 C   0  0  0  0  0  0  0  0  0  0  0  0
    1.0930   14.4380   -3.3810 C   0  0  0  0  0  0  0  0  0  0  0  0
    0.8620   13.1360   -4.1570 C   0  0  1  0  0  0  0  0  0  0  0  0
    1.3490   13.3110   -5.6190 C   0  0  0  0  0  0  0  0  0  0  0  0
    0.7190   14.5190   -6.3050 C   0  0  0  0  0  0  0  0  0  0  0  0
    1.0200   15.8020   -5.5350 C   0  0  2  0  0  0  0  0  0  0  0  0
    2.4230   16.0680   -5.6130 O   0  0  0  0  0  0  0  0  0  0  0  0
    0.5810   15.7400   -4.0450 C   0  0  0  0  0  0  0  0  0  0  0  0
   -0.9650   15.7550   -3.9570 C   0  0  0  0  0  0  0  0  0  0  0  0
    1.0690   17.0390   -3.3490 C   0  0  0  0  0  0  0  0  0  0  0  0
    1.4290   11.8140   -3.4790 C   0  0  1  0  0  0  0  0  0  0  0  0
    2.9200   11.6070   -3.8840 C   0  0  0  0  0  0  0  0  0  0  0  0
    0.6400   10.5710   -4.0380 C   0  0  0  0  0  0  0  0  0  0  0  0
   -0.6550   10.1820   -3.3010 C   0  0  0  0  0  0  0  0  0  0  0  0
   -0.4220   10.0970   -1.7890 C   0  0  2  0  0  0  0  0  0  0  0  0
    0.6210    8.9570   -1.5300 C   0  0  0  0  0  0  0  0  0  0  0  0
   -1.7666    6.6768   -2.1135 H   0  0  0  0  0  0  0  0  0  0  0  0
   -2.9748    7.8151   -2.7998 H   0  0  0  0  0  0  0  0  0  0  0  0
   -1.2316    8.2482   -2.7998 H   0  0  0  0  0  0  0  0  0  0  0  0
   -1.6090    7.8016   -0.1464 H   0  0  0  0  0  0  0  0  0  0  0  0
   -3.7260    7.7692    0.5173 H   0  0  0  0  0  0  0  0  0  0  0  0
   -3.9425    9.4333   -0.2099 H   0  0  0  0  0  0  0  0  0  0  0  0
   -5.0274    8.6618   -2.0333 H   0  0  0  0  0  0  0  0  0  0  0  0
   -4.1038    7.1013   -2.0508 H   0  0  0  0  0  0  0  0  0  0  0  0
   -5.3726    7.3093    0.2236 H   0  0  0  0  0  0  0  0  0  0  0  0
   -7.9853    8.9316   -2.2517 H   0  0  0  0  0  0  0  0  0  0  0  0
   -6.6470    8.1224   -3.1353 H   0  0  0  0  0  0  0  0  0  0  0  0
   -8.2907    7.3977   -3.1353 H   0  0  0  0  0  0  0  0  0  0  0  0
   -7.9865    6.9819    0.6702 H   0  0  0  0  0  0  0  0  0  0  0  0
   -9.1578    7.6062   -0.5401 H   0  0  0  0  0  0  0  0  0  0  0  0
   -8.7072    5.8673   -0.5401 H   0  0  0  0  0  0  0  0  0  0  0  0
   -2.5456   10.3303   -1.3297 H   0  0  0  0  0  0  0  0  0  0  0  0
   -2.0357   10.8960    0.9646 H   0  0  0  0  0  0  0  0  0  0  0  0
   -0.9576    9.4959    1.1508 H   0  0  0  0  0  0  0  0  0  0  0  0
   -0.1167   12.2056    0.8060 H   0  0  0  0  0  0  0  0  0  0  0  0
    0.9412   10.8110    0.6091 H   0  0  0  0  0  0  0  0  0  0  0  0
   -1.3961   13.0160   -0.5229 H   0  0  0  0  0  0  0  0  0  0  0  0
   -0.5871   13.4665   -2.0622 H   0  0  0  0  0  0  0  0  0  0  0  0
   -1.8968   12.2371   -2.0622 H   0  0  0  0  0  0  0  0  0  0  0  0
    2.0469   11.0835   -1.5277 H   0  0  0  0  0  0  0  0  0  0  0  0
    1.6885   13.3425   -0.3436 H   0  0  0  0  0  0  0  0  0  0  0  0
    3.1035   13.0825   -1.4924 H   0  0  0  0  0  0  0  0  0  0  0  0
    1.8561   15.3952   -1.6840 H   0  0  0  0  0  0  0  0  0  0  0  0
   -0.2242   12.9631   -4.1435 H   0  0  0  0  0  0  0  0  0  0  0  0
    2.4416   13.4386   -5.6138 H   0  0  0  0  0  0  0  0  0  0  0  0
    1.0487   12.4140   -6.1805 H   0  0  0  0  0  0  0  0  0  0  0  0
    1.1249   14.6068   -7.3236 H   0  0  0  0  0  0  0  0  0  0  0  0
   -0.3712   14.3759   -6.3364 H   0  0  0  0  0  0  0  0  0  0  0  0
    0.4364   16.6103   -5.9999 H   0  0  0  0  0  0  0  0  0  0  0  0
    2.6640   16.6080   -4.8410 H   0  0  0  0  0  0  0  0  0  0  0  0
   -1.2721   15.7580   -2.9007 H   0  0  0  0  0  0  0  0  0  0  0  0
   -1.3518   16.6569   -4.4539 H   0  0  0  0  0  0  0  0  0  0  0  0
   -1.3692   14.8607   -4.4539 H   0  0  0  0  0  0  0  0  0  0  0  0
    1.0207   16.9105   -2.2576 H   0  0  0  0  0  0  0  0  0  0  0  0
    2.1068   17.2476   -3.6481 H   0  0  0  0  0  0  0  0  0  0  0  0
    0.4252   17.8793   -3.6481 H   0  0  0  0  0  0  0  0  0  0  0  0
    3.5376   11.5213   -2.9778 H   0  0  0  0  0  0  0  0  0  0  0  0
    3.0138   10.6872   -4.4800 H   0  0  0  0  0  0  0  0  0  0  0  0
    3.2608   12.4664   -4.4800 H   0  0  0  0  0  0  0  0  0  0  0  0
    0.3757   10.7874   -5.0836 H   0  0  0  0  0  0  0  0  0  0  0  0
    1.3172    9.7150   -3.9014 H   0  0  0  0  0  0  0  0  0  0  0  0
   -1.4260   10.9398   -3.5041 H   0  0  0  0  0  0  0  0  0  0  0  0
   -0.9804    9.1950   -3.6615 H   0  0  0  0  0  0  0  0  0  0  0  0
    0.7494    8.8167   -0.4466 H   0  0  0  0  0  0  0  0  0  0  0  0
    0.2603    8.0207   -1.9808 H   0  0  0  0  0  0  0  0  0  0  0  0
    1.5856    9.2332   -1.9808 H   0  0  0  0  0  0  0  0  0  0  0  0
  1  2  1  0
  2  3  1  0
  3  4  1  0
  4  5  1  0
  5  6  1  0
  6  7  1  0
  7  8  1  0
  7  9  1  0
  2 10  1  0
 10 11  1  0
 11 12  1  0
 12 13  1  0
 13 14  1  1
 13 15  1  0
 15 16  1  0
 16 17  1  0
 17 18  2  0
 18 19  1  0
 19 20  1  0
 20 21  1  0
 21 22  1  0
 22 23  1  0
 22 24  1  0
 24 25  1  0
 24 26  1  0
 19 27  1  0
 27 28  1  1
 27 29  1  0
 29 30  1  0
 30 31  1  0
 31 32  1  6
  7  5  1  0
 31 10  1  0
 31 13  1  0
 27 15  1  0
 24 18  1  0
  1 33  1  0
  1 34  1  0
  1 35  1  0
  2 36  1  1
  3 37  1  0
  3 38  1  0
  4 39  1  0
  4 40  1  0
  5 41  1  1
  8 42  1  0
  8 43  1  0
  8 44  1  0
  9 45  1  0
  9 46  1  0
  9 47  1  0
 10 48  1  6
 11 49  1  0
 11 50  1  0
 12 51  1  0
 12 52  1  0
 14 53  1  0
 14 54  1  0
 14 55  1  0
 15 56  1  1
 16 57  1  0
 16 58  1  0
 17 59  1  0
 19 60  1  6
 20 61  1  0
 20 62  1  0
 21 63  1  0
 21 64  1  0
 22 65  1  6
 23 66  1  0
 25 67  1  0
 25 68  1  0
 25 69  1  0
 26 70  1  0
 26 71  1  0
 26 72  1  0
 28 73  1  0
 28 74  1  0
 28 75  1  0
 29 76  1  0
 29 77  1  0
 30 78  1  0
 30 79  1  0
 32 80  1  0
 32 81  1  0
 32 82  1  0
M  END
>  <meeko>  (13) 
{"is_sidechain": [false], "intermolecular_energy": 2.731, "internal_energy": -0.839}

$$$$
EPH_relaxed_0001_pdb2pqr_Repair_236_r2_0001_out
     RDKit          3D

 82 86  0  0  0  0  0  0  0  0999 V2000
    0.2640   19.2760   -2.3370 C   0  0  0  0  0  0  0  0  0  0  0  0
    0.0120   18.2650   -1.2140 C   0  0  2  0  0  0  0  0  0  0  0  0
    0.7010   18.6770    0.1030 C   0  0  0  0  0  0  0  0  0  0  0  0
    1.9520   19.5360   -0.0990 C   0  0  0  0  0  0  0  0  0  0  0  0
    2.7280   19.6930    1.1730 C   0  0  2  0  0  0  0  0  0  0  0  0
    4.0620   20.1910    1.0040 O   0  0  0  0  0  0  0  0  0  0  0  0
    3.9450   18.8560    1.5210 C   0  0  0  0  0  0  0  0  0  0  0  0
    4.4540   17.7980    0.5930 C   0  0  0  0  0  0  0  0  0  0  0  0
    4.3390   18.7300    2.9590 C   0  0  0  0  0  0  0  0  0  0  0  0
    0.4910   16.8830   -1.6420 C   0  0  1  0  0  0  0  0  0  0  0  0
    1.9170   16.9070   -2.2540 C   0  0  0  0  0  0  0  0  0  0  0  0
    2.6070   15.5840   -1.8330 C   0  0  0  0  0  0  0  0  0  0  0  0
    1.4610   14.7050   -1.2820 C   0  0  1  0  0  0  0  0  0  0  0  0
    0.7800   14.0930   -2.5470 C   0  0  0  0  0  0  0  0  0  0  0  0
    1.8710   13.5990   -0.2560 C   0  0  2  0  0  0  0  0  0  0  0  0
    2.8230   12.5210   -0.8030 C   0  0  0  0  0  0  0  0  0  0  0  0
    2.1570   11.3250   -1.4000 C   0  0  0  0  0  0  0  0  0  0  0  0
    0.8630   10.9900   -1.2400 C   0  0  0  0  0  0  0  0  0  0  0  0
   -0.0520   11.7980   -0.3110 C   0  0  1  0  0  0  0  0  0  0  0  0
   -0.8660   10.8280    0.5850 C   0  0  0  0  0  0  0  0  0  0  0  0
   -1.6310    9.7860   -0.2250 C   0  0  0  0  0  0  0  0  0  0  0  0
   -0.6810    8.9640   -1.0920 C   0  0  2  0  0  0  0  0  0  0  0  0
    0.1570    8.1770   -0.2400 O   0  0  0  0  0  0  0  0  0  0  0  0
    0.2000    9.8350   -2.0310 C   0  0  0  0  0  0  0  0  0  0  0  0
   -0.6810   10.4520   -3.1460 C   0  0  0  0  0  0  0  0  0  0  0  0
    1.2090    8.8960   -2.7460 C   0  0  0  0  0  0  0  0  0  0  0  0
    0.6530   12.9530    0.5220 C   0  0  1  0  0  0  0  0  0  0  0  0
    1.2300   12.3750    1.8510 C   0  0  0  0  0  0  0  0  0  0  0  0
   -0.4270   14.0210    0.9350 C   0  0  0  0  0  0  0  0  0  0  0  0
   -0.7020   15.1560   -0.0700 C   0  0  0  0  0  0  0  0  0  0  0  0
    0.6060   15.7980   -0.5420 C   0  0  2  0  0  0  0  0  0  0  0  0
    1.3020   16.4410    0.7050 C   0  0  0  0  0  0  0  0  0  0  0  0
    0.5082   20.2557   -1.9004 H   0  0  0  0  0  0  0  0  0  0  0  0
    1.1039   18.9319   -2.9585 H   0  0  0  0  0  0  0  0  0  0  0  0
   -0.6391   19.3664   -2.9585 H   0  0  0  0  0  0  0  0  0  0  0  0
   -1.0717   18.2413   -1.0266 H   0  0  0  0  0  0  0  0  0  0  0  0
   -0.0188   19.2486    0.7074 H   0  0  0  0  0  0  0  0  0  0  0  0
    1.0243   17.7505    0.6000 H   0  0  0  0  0  0  0  0  0  0  0  0
    2.5952   19.0574   -0.8522 H   0  0  0  0  0  0  0  0  0  0  0  0
    1.6321   20.5348   -0.4309 H   0  0  0  0  0  0  0  0  0  0  0  0
    1.8093   19.9268    1.7309 H   0  0  0  0  0  0  0  0  0  0  0  0
    4.8575   16.9593    1.1793 H   0  0  0  0  0  0  0  0  0  0  0  0
    3.6300   17.4392   -0.0412 H   0  0  0  0  0  0  0  0  0  0  0  0
    5.2487   18.2179   -0.0412 H   0  0  0  0  0  0  0  0  0  0  0  0
    3.4862   19.0027    3.5981 H   0  0  0  0  0  0  0  0  0  0  0  0
    4.6366   17.6919    3.1680 H   0  0  0  0  0  0  0  0  0  0  0  0
    5.1838   19.4028    3.1680 H   0  0  0  0  0  0  0  0  0  0  0  0
   -0.3114   16.6206   -2.3472 H   0  0  0  0  0  0  0  0  0  0  0  0
    1.8575   16.9709   -3.3505 H   0  0  0  0  0  0  0  0  0  0  0  0
    2.4849   17.7792   -1.8979 H   0  0  0  0  0  0  0  0  0  0  0  0
    3.0841   15.1021   -2.6991 H   0  0  0  0  0  0  0  0  0  0  0  0
    3.4024   15.7461   -1.0907 H   0  0  0  0  0  0  0  0  0  0  0  0
   -0.0048   13.3877   -2.2360 H   0  0  0  0  0  0  0  0  0  0  0  0
    0.3322   14.8981   -3.1481 H   0  0  0  0  0  0  0  0  0  0  0  0
    1.5329   13.5621   -3.1481 H   0  0  0  0  0  0  0  0  0  0  0  0
    2.4563   14.1677    0.4816 H   0  0  0  0  0  0  0  0  0  0  0  0
    3.4501   12.9837   -1.5793 H   0  0  0  0  0  0  0  0  0  0  0  0
    3.3933   12.1515    0.0620 H   0  0  0  0  0  0  0  0  0  0  0  0
    2.7757   10.6622   -2.0227 H   0  0  0  0  0  0  0  0  0  0  0  0
   -0.7332   12.3600   -0.9669 H   0  0  0  0  0  0  0  0  0  0  0  0
   -0.1727   10.3084    1.2627 H   0  0  0  0  0  0  0  0  0  0  0  0
   -1.6033   11.4261    1.1406 H   0  0  0  0  0  0  0  0  0  0  0  0
   -2.1624    9.1133    0.4643 H   0  0  0  0  0  0  0  0  0  0  0  0
   -2.3443   10.3059   -0.8814 H   0  0  0  0  0  0  0  0  0  0  0  0
   -1.2972    8.3259   -1.7424 H   0  0  0  0  0  0  0  0  0  0  0  0
   -0.2460    7.2960   -0.1640 H   0  0  0  0  0  0  0  0  0  0  0  0
   -1.5009   11.0262   -2.6899 H   0  0  0  0  0  0  0  0  0  0  0  0
   -0.0686   11.1196   -3.7699 H   0  0  0  0  0  0  0  0  0  0  0  0
   -1.0990    9.6483   -3.7699 H   0  0  0  0  0  0  0  0  0  0  0  0
    1.7969    8.3489   -1.9942 H   0  0  0  0  0  0  0  0  0  0  0  0
    0.6606    8.1794   -3.3751 H   0  0  0  0  0  0  0  0  0  0  0  0
    1.8843    9.4944   -3.3751 H   0  0  0  0  0  0  0  0  0  0  0  0
    0.7414   12.8645    2.7064 H   0  0  0  0  0  0  0  0  0  0  0  0
    1.0421   11.2919    1.8919 H   0  0  0  0  0  0  0  0  0  0  0  0
    2.3134   12.5610    1.8919 H   0  0  0  0  0  0  0  0  0  0  0  0
   -1.3746   13.4882    1.1026 H   0  0  0  0  0  0  0  0  0  0  0  0
   -0.0139   14.5185    1.8248 H   0  0  0  0  0  0  0  0  0  0  0  0
   -1.2358   14.7453   -0.9397 H   0  0  0  0  0  0  0  0  0  0  0  0
   -1.3113   15.9252    0.4271 H   0  0  0  0  0  0  0  0  0  0  0  0
    0.8584   16.0312    1.6244 H   0  0  0  0  0  0  0  0  0  0  0  0
    2.3777   16.2120    0.6832 H   0  0  0  0  0  0  0  0  0  0  0  0
    1.1587   17.5314    0.6832 H   0  0  0  0  0  0  0  0  0  0  0  0
  1  2  1  0
  2  3  1  0
  3  4  1  0
  4  5  1  0
  5  6  1  0
  6  7  1  0
  7  8  1  0
  7  9  1  0
  2 10  1  0
 10 11  1  0
 11 12  1  0
 12 13  1  0
 13 14  1  6
 13 15  1  0
 15 16  1  0
 16 17  1  0
 17 18  2  0
 18 19  1  0
 19 20  1  0
 20 21  1  0
 21 22  1  0
 22 23  1  0
 22 24  1  0
 24 25  1  0
 24 26  1  0
 19 27  1  0
 27 28  1  1
 27 29  1  0
 29 30  1  0
 30 31  1  0
 31 32  1  1
  7  5  1  0
 31 10  1  0
 31 13  1  0
 27 15  1  0
 24 18  1  0
  1 33  1  0
  1 34  1  0
  1 35  1  0
  2 36  1  1
  3 37  1  0
  3 38  1  0
  4 39  1  0
  4 40  1  0
  5 41  1  1
  8 42  1  0
  8 43  1  0
  8 44  1  0
  9 45  1  0
  9 46  1  0
  9 47  1  0
 10 48  1  6
 11 49  1  0
 11 50  1  0
 12 51  1  0
 12 52  1  0
 14 53  1  0
 14 54  1  0
 14 55  1  0
 15 56  1  1
 16 57  1  0
 16 58  1  0
 17 59  1  0
 19 60  1  6
 20 61  1  0
 20 62  1  0
 21 63  1  0
 21 64  1  0
 22 65  1  6
 23 66  1  0
 25 67  1  0
 25 68  1  0
 25 69  1  0
 26 70  1  0
 26 71  1  0
 26 72  1  0
 28 73  1  0
 28 74  1  0
 28 75  1  0
 29 76  1  0
 29 77  1  0
 30 78  1  0
 30 79  1  0
 32 80  1  0
 32 81  1  0
 32 82  1  0
M  END
>  <meeko>  (14) 
{"is_sidechain": [false], "intermolecular_energy": 2.731, "internal_energy": -0.839}

$$$$
EPH_relaxed_0001_pdb2pqr_Repair_236_r2_0001_out
     RDKit          3D

 82 86  0  0  0  0  0  0  0  0999 V2000
    2.8410   11.3270   -5.2550 C   0  0  0  0  0  0  0  0  0  0  0  0
    1.7960   11.0340   -4.1760 C   0  0  2  0  0  0  0  0  0  0  0  0
    0.6780   10.1030   -4.6880 C   0  0  0  0  0  0  0  0  0  0  0  0
   -0.3910    9.7890   -3.6380 C   0  0  0  0  0  0  0  0  0  0  0  0
    0.1740    9.0130   -2.4870 C   0  0  2  0  0  0  0  0  0  0  0  0
   -0.6430    7.9230   -2.0400 O   0  0  0  0  0  0  0  0  0  0  0  0
   -0.4500    8.9960   -1.1040 C   0  0  0  0  0  0  0  0  0  0  0  0
   -1.6940    9.7690   -0.7990 C   0  0  0  0  0  0  0  0  0  0  0  0
    0.4100    8.6270    0.0650 C   0  0  0  0  0  0  0  0  0  0  0  0
    1.1940   12.3380   -3.6660 C   0  0  1  0  0  0  0  0  0  0  0  0
   -0.3410   12.2480   -3.4610 C   0  0  0  0  0  0  0  0  0  0  0  0
   -0.6810   13.1270   -2.2300 C   0  0  0  0  0  0  0  0  0  0  0  0
    0.6040   13.9490   -1.9720 C   0  0  1  0  0  0  0  0  0  0  0  0
    0.5360   15.1290   -2.9910 C   0  0  0  0  0  0  0  0  0  0  0  0
    0.8150   14.4600   -0.5090 C   0  0  2  0  0  0  0  0  0  0  0  0
   -0.2600   15.4360    0.0020 C   0  0  0  0  0  0  0  0  0  0  0  0
    0.0220   16.8810   -0.2450 C   0  0  0  0  0  0  0  0  0  0  0  0
    1.2150   17.3970   -0.5940 C   0  0  0  0  0  0  0  0  0  0  0  0
    2.4630   16.5080   -0.6790 C   0  0  1  0  0  0  0  0  0  0  0  0
    3.6470   17.2080    0.0400 C   0  0  0  0  0  0  0  0  0  0  0  0
    3.8980   18.6180   -0.4840 C   0  0  0  0  0  0  0  0  0  0  0  0
    2.6530   19.4880   -0.3290 C   0  0  2  0  0  0  0  0  0  0  0  0
    2.4010   19.6880    1.0650 O   0  0  0  0  0  0  0  0  0  0  0  0
    1.3920   18.8790   -1.0050 C   0  0  0  0  0  0  0  0  0  0  0  0
    1.5470   18.9410   -2.5450 C   0  0  0  0  0  0  0  0  0  0  0  0
    0.1790   19.7820   -0.6540 C   0  0  0  0  0  0  0  0  0  0  0  0
    2.2730   15.0000   -0.2150 C   0  0  1  0  0  0  0  0  0  0  0  0
    2.4880   14.8850    1.3250 C   0  0  0  0  0  0  0  0  0  0  0  0
    3.3860   14.1120   -0.8870 C   0  0  0  0  0  0  0  0  0  0  0  0
    3.0700   13.5380   -2.2810 C   0  0  0  0  0  0  0  0  0  0  0  0
    1.6940   12.8650   -2.2970 C   0  0  2  0  0  0  0  0  0  0  0  0
    1.7390   11.6590   -1.2980 C   0  0  0  0  0  0  0  0  0  0  0  0
    3.7954   11.5946   -4.7780 H   0  0  0  0  0  0  0  0  0  0  0  0
    2.9818   10.4337   -5.8813 H   0  0  0  0  0  0  0  0  0  0  0  0
    2.4969   12.1633   -5.8813 H   0  0  0  0  0  0  0  0  0  0  0  0
    2.3082   10.5143   -3.3528 H   0  0  0  0  0  0  0  0  0  0  0  0
    0.1896   10.5866   -5.5468 H   0  0  0  0  0  0  0  0  0  0  0  0
    1.1533    9.1484   -4.9580 H   0  0  0  0  0  0  0  0  0  0  0  0
   -0.8082   10.7341   -3.2603 H   0  0  0  0  0  0  0  0  0  0  0  0
   -1.1707    9.1767   -4.1147 H   0  0  0  0  0  0  0  0  0  0  0  0
    1.2010    9.2049   -2.8313 H   0  0  0  0  0  0  0  0  0  0  0  0
   -1.8193    9.8469    0.2911 H   0  0  0  0  0  0  0  0  0  0  0  0
   -1.6147   10.7771   -1.2319 H   0  0  0  0  0  0  0  0  0  0  0  0
   -2.5627    9.2514   -1.2319 H   0  0  0  0  0  0  0  0  0  0  0  0
   -0.1234    8.8559    0.9994 H   0  0  0  0  0  0  0  0  0  0  0  0
    0.6385    7.5516    0.0272 H   0  0  0  0  0  0  0  0  0  0  0  0
    1.3467    9.2024    0.0272 H   0  0  0  0  0  0  0  0  0  0  0  0
    1.5153   13.0158   -4.4706 H   0  0  0  0  0  0  0  0  0  0  0  0
   -0.8647   12.6251   -4.3518 H   0  0  0  0  0  0  0  0  0  0  0  0
   -0.6575   11.2066   -3.3018 H   0  0  0  0  0  0  0  0  0  0  0  0
   -1.5297   13.7914   -2.4495 H   0  0  0  0  0  0  0  0  0  0  0  0
   -0.9750   12.5265   -1.3565 H   0  0  0  0  0  0  0  0  0  0  0  0
    0.4811   16.0823   -2.4449 H   0  0  0  0  0  0  0  0  0  0  0  0
    1.4362   15.1199   -3.6232 H   0  0  0  0  0  0  0  0  0  0  0  0
   -0.3572   15.0165   -3.6232 H   0  0  0  0  0  0  0  0  0  0  0  0
    0.6902   13.5411    0.0827 H   0  0  0  0  0  0  0  0  0  0  0  0
   -1.2097   15.1855   -0.4933 H   0  0  0  0  0  0  0  0  0  0  0  0
   -0.2876   15.3136    1.0948 H   0  0  0  0  0  0  0  0  0  0  0  0
   -0.8166   17.5838   -0.1322 H   0  0  0  0  0  0  0  0  0  0  0  0
    2.6876   16.4004   -1.7504 H   0  0  0  0  0  0  0  0  0  0  0  0
    3.4219   17.2662    1.1152 H   0  0  0  0  0  0  0  0  0  0  0  0
    4.5527   16.6141   -0.1524 H   0  0  0  0  0  0  0  0  0  0  0  0
    4.7258   19.0702    0.0819 H   0  0  0  0  0  0  0  0  0  0  0  0
    4.1514   18.5552   -1.5526 H   0  0  0  0  0  0  0  0  0  0  0  0
    2.8524   20.4426   -0.8380 H   0  0  0  0  0  0  0  0  0  0  0  0
    1.8600   18.9430    1.3770 H   0  0  0  0  0  0  0  0  0  0  0  0
    2.5410   19.3386   -2.7978 H   0  0  0  0  0  0  0  0  0  0  0  0
    1.4386   17.9303   -2.9654 H   0  0  0  0  0  0  0  0  0  0  0  0
    0.7715   19.5981   -2.9654 H   0  0  0  0  0  0  0  0  0  0  0  0
    0.0806   19.8553    0.4391 H   0  0  0  0  0  0  0  0  0  0  0  0
    0.3348   20.7857   -1.0762 H   0  0  0  0  0  0  0  0  0  0  0  0
   -0.7379   19.3449   -1.0762 H   0  0  0  0  0  0  0  0  0  0  0  0
    1.6353   15.3411    1.8493 H   0  0  0  0  0  0  0  0  0  0  0  0
    2.5666   13.8244    1.6061 H   0  0  0  0  0  0  0  0  0  0  0  0
    3.4138   15.4084    1.6061 H   0  0  0  0  0  0  0  0  0  0  0  0
    4.2927   14.7281   -0.9787 H   0  0  0  0  0  0  0  0  0  0  0  0
    3.4885   13.2347   -0.2314 H   0  0  0  0  0  0  0  0  0  0  0  0
    3.0797   14.3551   -3.0174 H   0  0  0  0  0  0  0  0  0  0  0  0
    3.8319   12.7852   -2.5316 H   0  0  0  0  0  0  0  0  0  0  0  0
    1.7249   12.0376   -0.2653 H   0  0  0  0  0  0  0  0  0  0  0  0
    0.8643   11.0128   -1.4636 H   0  0  0  0  0  0  0  0  0  0  0  0
    2.6594   11.0798   -1.4636 H   0  0  0  0  0  0  0  0  0  0  0  0
  1  2  1  0
  2  3  1  0
  3  4  1  0
  4  5  1  0
  5  6  1  0
  6  7  1  0
  7  8  1  0
  7  9  1  0
  2 10  1  0
 10 11  1  0
 11 12  1  0
 12 13  1  0
 13 14  1  6
 13 15  1  0
 15 16  1  0
 16 17  1  0
 17 18  2  0
 18 19  1  0
 19 20  1  0
 20 21  1  0
 21 22  1  0
 22 23  1  0
 22 24  1  0
 24 25  1  0
 24 26  1  0
 19 27  1  0
 27 28  1  1
 27 29  1  0
 29 30  1  0
 30 31  1  0
 31 32  1  1
  7  5  1  0
 31 10  1  0
 31 13  1  0
 27 15  1  0
 24 18  1  0
  1 33  1  0
  1 34  1  0
  1 35  1  0
  2 36  1  1
  3 37  1  0
  3 38  1  0
  4 39  1  0
  4 40  1  0
  5 41  1  1
  8 42  1  0
  8 43  1  0
  8 44  1  0
  9 45  1  0
  9 46  1  0
  9 47  1  0
 10 48  1  6
 11 49  1  0
 11 50  1  0
 12 51  1  0
 12 52  1  0
 14 53  1  0
 14 54  1  0
 14 55  1  0
 15 56  1  1
 16 57  1  0
 16 58  1  0
 17 59  1  0
 19 60  1  6
 20 61  1  0
 20 62  1  0
 21 63  1  0
 21 64  1  0
 22 65  1  6
 23 66  1  0
 25 67  1  0
 25 68  1  0
 25 69  1  0
 26 70  1  0
 26 71  1  0
 26 72  1  0
 28 73  1  0
 28 74  1  0
 28 75  1  0
 29 76  1  0
 29 77  1  0
 30 78  1  0
 30 79  1  0
 32 80  1  0
 32 81  1  0
 32 82  1  0
M  END
>  <meeko>  (15) 
{"is_sidechain": [false], "intermolecular_energy": 2.731, "internal_energy": -0.839}

$$$$
EPH_relaxed_0001_pdb2pqr_Repair_236_r2_0001_out
     RDKit          3D

 82 86  0  0  0  0  0  0  0  0999 V2000
    3.8600   20.1780    0.3650 C   0  0  0  0  0  0  0  0  0  0  0  0
    2.6340   19.8970    1.2380 C   0  0  2  0  0  0  0  0  0  0  0  0
    3.0250   19.4010    2.6450 C   0  0  0  0  0  0  0  0  0  0  0  0
    4.5330   19.2260    2.8390 C   0  0  0  0  0  0  0  0  0  0  0  0
    4.8890   19.0460    4.2840 C   0  0  2  0  0  0  0  0  0  0  0  0
    5.4930   20.1920    4.8990 O   0  0  0  0  0  0  0  0  0  0  0  0
    6.3170   19.0200    4.7960 C   0  0  0  0  0  0  0  0  0  0  0  0
    7.4820   19.1750    3.8690 C   0  0  0  0  0  0  0  0  0  0  0  0
    6.5930   18.3600    6.1110 C   0  0  0  0  0  0  0  0  0  0  0  0
    1.7340   18.8720    0.5570 C   0  0  1  0  0  0  0  0  0  0  0  0
    0.9140   19.4810   -0.6110 C   0  0  0  0  0  0  0  0  0  0  0  0
    0.7910   18.3780   -1.6940 C   0  0  0  0  0  0  0  0  0  0  0  0
    1.2480   17.0830   -0.9850 C   0  0  1  0  0  0  0  0  0  0  0  0
    0.0010   16.6050   -0.1770 C   0  0  0  0  0  0  0  0  0  0  0  0
    1.8070   15.9500   -1.9070 C   0  0  2  0  0  0  0  0  0  0  0  0
    0.8020   15.3820   -2.9240 C   0  0  0  0  0  0  0  0  0  0  0  0
    0.0040   14.2140   -2.4480 C   0  0  0  0  0  0  0  0  0  0  0  0
    0.2830   13.4650   -1.3650 C   0  0  0  0  0  0  0  0  0  0  0  0
    1.5590   13.7070   -0.5480 C   0  0  1  0  0  0  0  0  0  0  0  0
    2.2540   12.3510   -0.2590 C   0  0  0  0  0  0  0  0  0  0  0  0
    1.3200   11.3430    0.4030 C   0  0  0  0  0  0  0  0  0  0  0  0
    0.0920   11.0850   -0.4660 C   0  0  2  0  0  0  0  0  0  0  0  0
    0.5060   10.4210   -1.6640 O   0  0  0  0  0  0  0  0  0  0  0  0
   -0.6850   12.3810   -0.8300 C   0  0  0  0  0  0  0  0  0  0  0  0
   -1.3890   12.9380    0.4320 C   0  0  0  0  0  0  0  0  0  0  0  0
   -1.8150   11.9980   -1.8230 C   0  0  0  0  0  0  0  0  0  0  0  0
    2.5600   14.7950   -1.1310 C   0  0  1  0  0  0  0  0  0  0  0  0
    3.5300   14.1300   -2.1550 C   0  0  0  0  0  0  0  0  0  0  0  0
    3.4590   15.3460    0.0380 C   0  0  0  0  0  0  0  0  0  0  0  0
    2.9050   16.5420    0.8350 C   0  0  0  0  0  0  0  0  0  0  0  0
    2.4200   17.6510   -0.1040 C   0  0  2  0  0  0  0  0  0  0  0  0
    3.6580   18.1660   -0.9140 C   0  0  0  0  0  0  0  0  0  0  0  0
    4.7300   20.3774    1.0079 H   0  0  0  0  0  0  0  0  0  0  0  0
    4.0661   19.3038   -0.2701 H   0  0  0  0  0  0  0  0  0  0  0  0
    3.6648   21.0547   -0.2701 H   0  0  0  0  0  0  0  0  0  0  0  0
    2.0909   20.8457    1.3604 H   0  0  0  0  0  0  0  0  0  0  0  0
    2.6623   20.1309    3.3837 H   0  0  0  0  0  0  0  0  0  0  0  0
    2.5671   18.4093    2.7748 H   0  0  0  0  0  0  0  0  0  0  0  0
    4.8642   18.3402    2.2772 H   0  0  0  0  0  0  0  0  0  0  0  0
    5.0335   20.1347    2.4732 H   0  0  0  0  0  0  0  0  0  0  0  0
    4.0388   18.3642    4.4334 H   0  0  0  0  0  0  0  0  0  0  0  0
    8.4040   19.2977    4.4562 H   0  0  0  0  0  0  0  0  0  0  0  0
    7.5675   18.2803    3.2348 H   0  0  0  0  0  0  0  0  0  0  0  0
    7.3306   20.0609    3.2348 H   0  0  0  0  0  0  0  0  0  0  0  0
    6.3091   19.0388    6.9287 H   0  0  0  0  0  0  0  0  0  0  0  0
    6.0077   17.4316    6.1853 H   0  0  0  0  0  0  0  0  0  0  0  0
    7.6649   18.1246    6.1853 H   0  0  0  0  0  0  0  0  0  0  0  0
    1.1381   18.5457    1.4221 H   0  0  0  0  0  0  0  0  0  0  0  0
   -0.0845   19.7784   -0.2581 H   0  0  0  0  0  0  0  0  0  0  0  0
    1.4073   20.3775   -1.0146 H   0  0  0  0  0  0  0  0  0  0  0  0
   -0.2498   18.2859   -2.0380 H   0  0  0  0  0  0  0  0  0  0  0  0
    1.3945   18.6003   -2.5864 H   0  0  0  0  0  0  0  0  0  0  0  0
    0.2094   16.6849    0.9001 H   0  0  0  0  0  0  0  0  0  0  0  0
   -0.8640   17.2353   -0.4309 H   0  0  0  0  0  0  0  0  0  0  0  0
   -0.2211   15.5580   -0.4309 H   0  0  0  0  0  0  0  0  0  0  0  0
    2.5651   16.4814   -2.5010 H   0  0  0  0  0  0  0  0  0  0  0  0
    0.1007   16.1854   -3.1938 H   0  0  0  0  0  0  0  0  0  0  0  0
    1.4005   15.0164   -3.7714 H   0  0  0  0  0  0  0  0  0  0  0  0
   -0.8878   13.9422   -3.0318 H   0  0  0  0  0  0  0  0  0  0  0  0
    1.2327   14.1672    0.3963 H   0  0  0  0  0  0  0  0  0  0  0  0
    2.6115   11.9286   -1.2097 H   0  0  0  0  0  0  0  0  0  0  0  0
    3.0839   12.5434    0.4368 H   0  0  0  0  0  0  0  0  0  0  0  0
    1.8600   10.3965    0.5533 H   0  0  0  0  0  0  0  0  0  0  0  0
    0.9875   11.7534    1.3679 H   0  0  0  0  0  0  0  0  0  0  0  0
   -0.5985   10.4586    0.1177 H   0  0  0  0  0  0  0  0  0  0  0  0
   -0.1320    9.7100   -1.8420 H   0  0  0  0  0  0  0  0  0  0  0  0
   -0.8929   12.5455    1.3319 H   0  0  0  0  0  0  0  0  0  0  0  0
   -1.3298   14.0364    0.4302 H   0  0  0  0  0  0  0  0  0  0  0  0
   -2.4443   12.6277    0.4302 H   0  0  0  0  0  0  0  0  0  0  0  0
   -2.7102   11.6946   -1.2604 H   0  0  0  0  0  0  0  0  0  0  0  0
   -2.0561   12.8646   -2.4561 H   0  0  0  0  0  0  0  0  0  0  0  0
   -1.4795   11.1634   -2.4561 H   0  0  0  0  0  0  0  0  0  0  0  0
    4.3198   13.5886   -1.6136 H   0  0  0  0  0  0  0  0  0  0  0  0
    2.9694   13.4254   -2.7869 H   0  0  0  0  0  0  0  0  0  0  0  0
    3.9851   14.9070   -2.7869 H   0  0  0  0  0  0  0  0  0  0  0  0
    3.6250   14.5216    0.7471 H   0  0  0  0  0  0  0  0  0  0  0  0
    4.3691   15.7229   -0.4516 H   0  0  0  0  0  0  0  0  0  0  0  0
    2.0625   16.2017    1.4549 H   0  0  0  0  0  0  0  0  0  0  0  0
    3.7104   16.9452    1.4665 H   0  0  0  0  0  0  0  0  0  0  0  0
    4.4429   18.4925   -0.2159 H   0  0  0  0  0  0  0  0  0  0  0  0
    4.0452   17.3543   -1.5474 H   0  0  0  0  0  0  0  0  0  0  0  0
    3.3552   19.0128   -1.5474 H   0  0  0  0  0  0  0  0  0  0  0  0
  1  2  1  0
  2  3  1  0
  3  4  1  0
  4  5  1  0
  5  6  1  0
  6  7  1  0
  7  8  1  0
  7  9  1  0
  2 10  1  0
 10 11  1  0
 11 12  1  0
 12 13  1  0
 13 14  1  1
 13 15  1  0
 15 16  1  0
 16 17  1  0
 17 18  2  0
 18 19  1  0
 19 20  1  0
 20 21  1  0
 21 22  1  0
 22 23  1  0
 22 24  1  0
 24 25  1  0
 24 26  1  0
 19 27  1  0
 27 28  1  6
 27 29  1  0
 29 30  1  0
 30 31  1  0
 31 32  1  6
  7  5  1  0
 31 10  1  0
 31 13  1  0
 27 15  1  0
 24 18  1  0
  1 33  1  0
  1 34  1  0
  1 35  1  0
  2 36  1  1
  3 37  1  0
  3 38  1  0
  4 39  1  0
  4 40  1  0
  5 41  1  1
  8 42  1  0
  8 43  1  0
  8 44  1  0
  9 45  1  0
  9 46  1  0
  9 47  1  0
 10 48  1  1
 11 49  1  0
 11 50  1  0
 12 51  1  0
 12 52  1  0
 14 53  1  0
 14 54  1  0
 14 55  1  0
 15 56  1  6
 16 57  1  0
 16 58  1  0
 17 59  1  0
 19 60  1  1
 20 61  1  0
 20 62  1  0
 21 63  1  0
 21 64  1  0
 22 65  1  1
 23 66  1  0
 25 67  1  0
 25 68  1  0
 25 69  1  0
 26 70  1  0
 26 71  1  0
 26 72  1  0
 28 73  1  0
 28 74  1  0
 28 75  1  0
 29 76  1  0
 29 77  1  0
 30 78  1  0
 30 79  1  0
 32 80  1  0
 32 81  1  0
 32 82  1  0
M  END
>  <meeko>  (16) 
{"is_sidechain": [false], "intermolecular_energy": 2.731, "internal_energy": -0.839}

$$$$
EPH_relaxed_0001_pdb2pqr_Repair_236_r2_0001_out
     RDKit          3D

 82 86  0  0  0  0  0  0  0  0999 V2000
    0.9140   14.8720   -2.6020 C   0  0  0  0  0  0  0  0  0  0  0  0
    1.1920   14.1980   -3.9490 C   0  0  2  0  0  0  0  0  0  0  0  0
    0.5040   14.9310   -5.1180 C   0  0  0  0  0  0  0  0  0  0  0  0
    1.1100   14.6110   -6.4870 C   0  0  0  0  0  0  0  0  0  0  0  0
    0.8500   15.7050   -7.4770 C   0  0  2  0  0  0  0  0  0  0  0  0
    0.3630   15.2580   -8.7490 O   0  0  0  0  0  0  0  0  0  0  0  0
    1.6540   15.8890   -8.7510 C   0  0  0  0  0  0  0  0  0  0  0  0
    2.7810   14.9680   -9.1020 C   0  0  0  0  0  0  0  0  0  0  0  0
    1.6650   17.2370   -9.4020 C   0  0  0  0  0  0  0  0  0  0  0  0
    0.7380   12.7440   -3.9050 C   0  0  1  0  0  0  0  0  0  0  0  0
    1.8690   11.7530   -4.2880 C   0  0  0  0  0  0  0  0  0  0  0  0
    1.6630   10.4830   -3.4230 C   0  0  0  0  0  0  0  0  0  0  0  0
    0.2470   10.6460   -2.8220 C   0  0  1  0  0  0  0  0  0  0  0  0
   -0.7250   10.1860   -3.9540 C   0  0  0  0  0  0  0  0  0  0  0  0
   -0.0260    9.8870   -1.4830 C   0  0  2  0  0  0  0  0  0  0  0  0
    0.0750    8.3540   -1.5690 C   0  0  0  0  0  0  0  0  0  0  0  0
   -1.1980    7.6490   -1.9020 C   0  0  0  0  0  0  0  0  0  0  0  0
   -2.4300    8.1880   -1.8440 C   0  0  0  0  0  0  0  0  0  0  0  0
   -2.6410    9.6130   -1.3150 C   0  0  1  0  0  0  0  0  0  0  0  0
   -3.8260    9.6230   -0.3130 C   0  0  0  0  0  0  0  0  0  0  0  0
   -5.0980    9.0250   -0.9060 C   0  0  0  0  0  0  0  0  0  0  0  0
   -4.8630    7.5890   -1.3660 C   0  0  2  0  0  0  0  0  0  0  0  0
   -4.6120    6.7720   -0.2190 O   0  0  0  0  0  0  0  0  0  0  0  0
   -3.6860    7.4530   -2.3720 C   0  0  0  0  0  0  0  0  0  0  0  0
   -4.0850    8.0860   -3.7290 C   0  0  0  0  0  0  0  0  0  0  0  0
   -3.4650    5.9410   -2.6470 C   0  0  0  0  0  0  0  0  0  0  0  0
   -1.3490   10.3380   -0.7410 C   0  0  1  0  0  0  0  0  0  0  0  0
   -1.1610    9.9760    0.7640 C   0  0  0  0  0  0  0  0  0  0  0  0
   -1.5660   11.8970   -0.7980 C   0  0  0  0  0  0  0  0  0  0  0  0
   -1.1650   12.6060   -2.1060 C   0  0  0  0  0  0  0  0  0  0  0  0
    0.2430   12.1930   -2.5440 C   0  0  2  0  0  0  0  0  0  0  0  0
    1.2460   12.6630   -1.4350 C   0  0  0  0  0  0  0  0  0  0  0  0
    1.1952   14.1902   -1.7859 H   0  0  0  0  0  0  0  0  0  0  0  0
    1.5039   15.7974   -2.5264 H   0  0  0  0  0  0  0  0  0  0  0  0
   -0.1567   15.1125   -2.5264 H   0  0  0  0  0  0  0  0  0  0  0  0
    2.2769   14.2433   -4.1249 H   0  0  0  0  0  0  0  0  0  0  0  0
   -0.5574   14.6427   -5.1321 H   0  0  0  0  0  0  0  0  0  0  0  0
    0.6439   16.0088   -4.9485 H   0  0  0  0  0  0  0  0  0  0  0  0
    2.1967   14.4826   -6.3747 H   0  0  0  0  0  0  0  0  0  0  0  0
    0.6412   13.6896   -6.8628 H   0  0  0  0  0  0  0  0  0  0  0  0
    0.5751   16.4013   -6.6710 H   0  0  0  0  0  0  0  0  0  0  0  0
    3.2453   14.5886   -8.1798 H   0  0  0  0  0  0  0  0  0  0  0  0
    2.3945   14.1239   -9.6921 H   0  0  0  0  0  0  0  0  0  0  0  0
    3.5312   15.5148   -9.6921 H   0  0  0  0  0  0  0  0  0  0  0  0
    1.6714   18.0181   -8.6276 H   0  0  0  0  0  0  0  0  0  0  0  0
    2.5640   17.3344  -10.0284 H   0  0  0  0  0  0  0  0  0  0  0  0
    0.7677   17.3490  -10.0284 H   0  0  0  0  0  0  0  0  0  0  0  0
   -0.0985   12.7914   -4.6177 H   0  0  0  0  0  0  0  0  0  0  0  0
    1.8039   11.4984   -5.3562 H   0  0  0  0  0  0  0  0  0  0  0  0
    2.8597   12.1962   -4.1091 H   0  0  0  0  0  0  0  0  0  0  0  0
    1.7194    9.5768   -4.0440 H   0  0  0  0  0  0  0  0  0  0  0  0
    2.4357   10.3766   -2.6474 H   0  0  0  0  0  0  0  0  0  0  0  0
   -1.6329    9.7563   -3.5056 H   0  0  0  0  0  0  0  0  0  0  0  0
   -0.9976   11.0506   -4.5770 H   0  0  0  0  0  0  0  0  0  0  0  0
   -0.2292    9.4270   -4.5770 H   0  0  0  0  0  0  0  0  0  0  0  0
    0.8181   10.2069   -0.8544 H   0  0  0  0  0  0  0  0  0  0  0  0
    0.8144    8.1050   -2.3445 H   0  0  0  0  0  0  0  0  0  0  0  0
    0.3590    8.0107   -0.5632 H   0  0  0  0  0  0  0  0  0  0  0  0
   -1.1228    6.5993   -2.2221 H   0  0  0  0  0  0  0  0  0  0  0  0
   -2.8886   10.2296   -2.1916 H   0  0  0  0  0  0  0  0  0  0  0  0
   -3.5422    9.0387    0.5747 H   0  0  0  0  0  0  0  0  0  0  0  0
   -4.0378   10.6715   -0.0566 H   0  0  0  0  0  0  0  0  0  0  0  0
   -5.8896    9.0333   -0.1423 H   0  0  0  0  0  0  0  0  0  0  0  0
   -5.3966    9.6279   -1.7763 H   0  0  0  0  0  0  0  0  0  0  0  0
   -5.7689    7.2606   -1.8965 H   0  0  0  0  0  0  0  0  0  0  0  0
   -4.5950    5.8460   -0.5150 H   0  0  0  0  0  0  0  0  0  0  0  0
   -4.6637    9.0041   -3.5493 H   0  0  0  0  0  0  0  0  0  0  0  0
   -3.1775    8.3306   -4.3005 H   0  0  0  0  0  0  0  0  0  0  0  0
   -4.6971    7.3727   -4.3005 H   0  0  0  0  0  0  0  0  0  0  0  0
   -3.3862    5.4022   -1.6912 H   0  0  0  0  0  0  0  0  0  0  0  0
   -4.3148    5.5449   -3.2223 H   0  0  0  0  0  0  0  0  0  0  0  0
   -2.5374    5.8047   -3.2223 H   0  0  0  0  0  0  0  0  0  0  0  0
   -1.5781   10.7792    1.3892 H   0  0  0  0  0  0  0  0  0  0  0  0
   -1.6832    9.0328    0.9823 H   0  0  0  0  0  0  0  0  0  0  0  0
   -0.0891    9.8607    0.9823 H   0  0  0  0  0  0  0  0  0  0  0  0
   -2.6355   12.0907   -0.6286 H   0  0  0  0  0  0  0  0  0  0  0  0
   -0.8959   12.3096   -0.0294 H   0  0  0  0  0  0  0  0  0  0  0  0
   -1.8813   12.3359   -2.8959 H   0  0  0  0  0  0  0  0  0  0  0  0
   -1.1740   13.6923   -1.9331 H   0  0  0  0  0  0  0  0  0  0  0  0
    0.8162   12.4616   -0.4427 H   0  0  0  0  0  0  0  0  0  0  0  0
    2.1940   12.1153   -1.5420 H   0  0  0  0  0  0  0  0  0  0  0  0
    1.4318   13.7419   -1.5420 H   0  0  0  0  0  0  0  0  0  0  0  0
  1  2  1  0
  2  3  1  0
  3  4  1  0
  4  5  1  0
  5  6  1  0
  6  7  1  0
  7  8  1  0
  7  9  1  0
  2 10  1  0
 10 11  1  0
 11 12  1  0
 12 13  1  0
 13 14  1  6
 13 15  1  0
 15 16  1  0
 16 17  1  0
 17 18  2  0
 18 19  1  0
 19 20  1  0
 20 21  1  0
 21 22  1  0
 22 23  1  0
 22 24  1  0
 24 25  1  0
 24 26  1  0
 19 27  1  0
 27 28  1  1
 27 29  1  0
 29 30  1  0
 30 31  1  0
 31 32  1  1
  7  5  1  0
 31 10  1  0
 31 13  1  0
 27 15  1  0
 24 18  1  0
  1 33  1  0
  1 34  1  0
  1 35  1  0
  2 36  1  6
  3 37  1  0
  3 38  1  0
  4 39  1  0
  4 40  1  0
  5 41  1  1
  8 42  1  0
  8 43  1  0
  8 44  1  0
  9 45  1  0
  9 46  1  0
  9 47  1  0
 10 48  1  6
 11 49  1  0
 11 50  1  0
 12 51  1  0
 12 52  1  0
 14 53  1  0
 14 54  1  0
 14 55  1  0
 15 56  1  1
 16 57  1  0
 16 58  1  0
 17 59  1  0
 19 60  1  6
 20 61  1  0
 20 62  1  0
 21 63  1  0
 21 64  1  0
 22 65  1  6
 23 66  1  0
 25 67  1  0
 25 68  1  0
 25 69  1  0
 26 70  1  0
 26 71  1  0
 26 72  1  0
 28 73  1  0
 28 74  1  0
 28 75  1  0
 29 76  1  0
 29 77  1  0
 30 78  1  0
 30 79  1  0
 32 80  1  0
 32 81  1  0
 32 82  1  0
M  END
>  <meeko>  (17) 
{"is_sidechain": [false], "intermolecular_energy": 2.731, "internal_energy": -0.839}

$$$$
EPH_relaxed_0001_pdb2pqr_Repair_236_r2_0001_out
     RDKit          3D

 82 86  0  0  0  0  0  0  0  0999 V2000
    1.5840   17.7420   -3.1280 C   0  0  0  0  0  0  0  0  0  0  0  0
    1.6420   17.0130   -1.7820 C   0  0  2  0  0  0  0  0  0  0  0  0
    2.8270   17.4850   -0.9170 C   0  0  0  0  0  0  0  0  0  0  0  0
    2.4220   18.4240    0.2230 C   0  0  0  0  0  0  0  0  0  0  0  0
    1.4510   19.4680   -0.2390 C   0  0  2  0  0  0  0  0  0  0  0  0
    0.8060   20.1940    0.8160 O   0  0  0  0  0  0  0  0  0  0  0  0
   -0.0460   19.3800   -0.0070 C   0  0  0  0  0  0  0  0  0  0  0  0
   -0.6570   18.2190    0.7120 C   0  0  0  0  0  0  0  0  0  0  0  0
   -0.9550   20.1680   -0.8970 C   0  0  0  0  0  0  0  0  0  0  0  0
    1.7300   15.5080   -2.0100 C   0  0  1  0  0  0  0  0  0  0  0  0
    3.1640   15.0420   -2.3760 C   0  0  0  0  0  0  0  0  0  0  0  0
    3.3550   13.6420   -1.7380 C   0  0  0  0  0  0  0  0  0  0  0  0
    1.9320   13.2080   -1.3150 C   0  0  1  0  0  0  0  0  0  0  0  0
    1.2750   12.6620   -2.6210 C   0  0  0  0  0  0  0  0  0  0  0  0
    1.8440   12.1720   -0.1480 C   0  0  2  0  0  0  0  0  0  0  0  0
    2.4870   10.8050   -0.4390 C   0  0  0  0  0  0  0  0  0  0  0  0
    1.5760    9.7850   -1.0380 C   0  0  0  0  0  0  0  0  0  0  0  0
    0.2320    9.8600   -1.0690 C   0  0  0  0  0  0  0  0  0  0  0  0
   -0.5090   11.0100   -0.3750 C   0  0  1  0  0  0  0  0  0  0  0  0
   -1.6930   10.4390    0.4500 C   0  0  0  0  0  0  0  0  0  0  0  0
   -2.6230    9.5670   -0.3880 C   0  0  0  0  0  0  0  0  0  0  0  0
   -1.8600    8.4020   -1.0140 C   0  0  2  0  0  0  0  0  0  0  0  0
   -1.4250    7.5230    0.0270 O   0  0  0  0  0  0  0  0  0  0  0  0
   -0.6390    8.8540   -1.8620 C   0  0  0  0  0  0  0  0  0  0  0  0
   -1.1310    9.5510   -3.1540 C   0  0  0  0  0  0  0  0  0  0  0  0
    0.1230    7.5810   -2.3180 C   0  0  0  0  0  0  0  0  0  0  0  0
    0.3950   12.0100    0.4670 C   0  0  1  0  0  0  0  0  0  0  0  0
    0.5840   11.4650    1.9160 C   0  0  0  0  0  0  0  0  0  0  0  0
   -0.3540   13.3880    0.6050 C   0  0  0  0  0  0  0  0  0  0  0  0
   -0.1320   14.4150   -0.5220 C   0  0  0  0  0  0  0  0  0  0  0  0
    1.3600   14.5860   -0.8210 C   0  0  2  0  0  0  0  0  0  0  0  0
    2.0440   15.1560    0.4680 C   0  0  0  0  0  0  0  0  0  0  0  0
    1.4978   18.8249   -2.9551 H   0  0  0  0  0  0  0  0  0  0  0  0
    2.5016   17.5335   -3.6977 H   0  0  0  0  0  0  0  0  0  0  0  0
    0.7109   17.3911   -3.6977 H   0  0  0  0  0  0  0  0  0  0  0  0
    0.7182   17.2530   -1.2351 H   0  0  0  0  0  0  0  0  0  0  0  0
    3.3133   16.5997   -0.4814 H   0  0  0  0  0  0  0  0  0  0  0  0
    3.5004   18.0521   -1.5765 H   0  0  0  0  0  0  0  0  0  0  0  0
    1.9550   17.8320    1.0239 H   0  0  0  0  0  0  0  0  0  0  0  0
    3.3268   18.9332    0.5864 H   0  0  0  0  0  0  0  0  0  0  0  0
    2.0473   19.6557   -1.1441 H   0  0  0  0  0  0  0  0  0  0  0  0
   -0.5746   18.3755    1.7977 H   0  0  0  0  0  0  0  0  0  0  0  0
   -1.7176   18.1322    0.4335 H   0  0  0  0  0  0  0  0  0  0  0  0
   -0.1280   17.2956    0.4335 H   0  0  0  0  0  0  0  0  0  0  0  0
   -1.6438   20.7651   -0.2813 H   0  0  0  0  0  0  0  0  0  0  0  0
   -0.3564   20.8377   -1.5319 H   0  0  0  0  0  0  0  0  0  0  0  0
   -1.5330   19.4804   -1.5319 H   0  0  0  0  0  0  0  0  0  0  0  0
    0.9881   15.3997   -2.8149 H   0  0  0  0  0  0  0  0  0  0  0  0
    3.2746   14.9788   -3.4686 H   0  0  0  0  0  0  0  0  0  0  0  0
    3.9173   15.7520   -2.0040 H   0  0  0  0  0  0  0  0  0  0  0  0
    3.7748   12.9360   -2.4696 H   0  0  0  0  0  0  0  0  0  0  0  0
    4.0543   13.6625   -0.8891 H   0  0  0  0  0  0  0  0  0  0  0  0
    0.4531   11.9790   -2.3601 H   0  0  0  0  0  0  0  0  0  0  0  0
    0.8803   13.5018   -3.2117 H   0  0  0  0  0  0  0  0  0  0  0  0
    2.0284   12.1203   -3.2117 H   0  0  0  0  0  0  0  0  0  0  0  0
    2.4699   12.6372    0.6278 H   0  0  0  0  0  0  0  0  0  0  0  0
    3.3233   10.9644   -1.1356 H   0  0  0  0  0  0  0  0  0  0  0  0
    2.7961   10.4009    0.5363 H   0  0  0  0  0  0  0  0  0  0  0  0
    2.0418    8.8979   -1.4920 H   0  0  0  0  0  0  0  0  0  0  0  0
   -0.8908   11.6555   -1.1797 H   0  0  0  0  0  0  0  0  0  0  0  0
   -1.2887    9.8328    1.2741 H   0  0  0  0  0  0  0  0  0  0  0  0
   -2.2806   11.2903    0.8242 H   0  0  0  0  0  0  0  0  0  0  0  0
   -3.4217    9.1700    0.2558 H   0  0  0  0  0  0  0  0  0  0  0  0
   -3.0495   10.1817   -1.1944 H   0  0  0  0  0  0  0  0  0  0  0  0
   -2.5475    7.8903   -1.7036 H   0  0  0  0  0  0  0  0  0  0  0  0
   -2.0470    7.6130    0.7680 H   0  0  0  0  0  0  0  0  0  0  0  0
   -1.7466   10.4231   -2.8885 H   0  0  0  0  0  0  0  0  0  0  0  0
   -0.2642    9.8805   -3.7457 H   0  0  0  0  0  0  0  0  0  0  0  0
   -1.7317    8.8446   -3.7457 H   0  0  0  0  0  0  0  0  0  0  0  0
    0.4595    7.0188   -1.4344 H   0  0  0  0  0  0  0  0  0  0  0  0
   -0.5459    6.9497   -2.9214 H   0  0  0  0  0  0  0  0  0  0  0  0
    0.9954    7.8723   -2.9214 H   0  0  0  0  0  0  0  0  0  0  0  0
    0.3127   12.2472    2.6402 H   0  0  0  0  0  0  0  0  0  0  0  0
   -0.0623   10.5874    2.0649 H   0  0  0  0  0  0  0  0  0  0  0  0
    1.6349   11.1760    2.0649 H   0  0  0  0  0  0  0  0  0  0  0  0
   -1.4324   13.1771    0.6554 H   0  0  0  0  0  0  0  0  0  0  0  0
    0.0668   13.8554    1.5075 H   0  0  0  0  0  0  0  0  0  0  0  0
   -0.6438   14.0675   -1.4315 H   0  0  0  0  0  0  0  0  0  0  0  0
   -0.5384   15.3846   -0.1983 H   0  0  0  0  0  0  0  0  0  0  0  0
    1.5486   14.7431    1.3591 H   0  0  0  0  0  0  0  0  0  0  0  0
    3.1068   14.8726    0.4750 H   0  0  0  0  0  0  0  0  0  0  0  0
    1.9569   16.2525    0.4750 H   0  0  0  0  0  0  0  0  0  0  0  0
  1  2  1  0
  2  3  1  0
  3  4  1  0
  4  5  1  0
  5  6  1  0
  6  7  1  0
  7  8  1  0
  7  9  1  0
  2 10  1  0
 10 11  1  0
 11 12  1  0
 12 13  1  0
 13 14  1  6
 13 15  1  0
 15 16  1  0
 16 17  1  0
 17 18  2  0
 18 19  1  0
 19 20  1  0
 20 21  1  0
 21 22  1  0
 22 23  1  0
 22 24  1  0
 24 25  1  0
 24 26  1  0
 19 27  1  0
 27 28  1  1
 27 29  1  0
 29 30  1  0
 30 31  1  0
 31 32  1  1
  7  5  1  0
 31 10  1  0
 31 13  1  0
 27 15  1  0
 24 18  1  0
  1 33  1  0
  1 34  1  0
  1 35  1  0
  2 36  1  1
  3 37  1  0
  3 38  1  0
  4 39  1  0
  4 40  1  0
  5 41  1  6
  8 42  1  0
  8 43  1  0
  8 44  1  0
  9 45  1  0
  9 46  1  0
  9 47  1  0
 10 48  1  6
 11 49  1  0
 11 50  1  0
 12 51  1  0
 12 52  1  0
 14 53  1  0
 14 54  1  0
 14 55  1  0
 15 56  1  1
 16 57  1  0
 16 58  1  0
 17 59  1  0
 19 60  1  6
 20 61  1  0
 20 62  1  0
 21 63  1  0
 21 64  1  0
 22 65  1  6
 23 66  1  0
 25 67  1  0
 25 68  1  0
 25 69  1  0
 26 70  1  0
 26 71  1  0
 26 72  1  0
 28 73  1  0
 28 74  1  0
 28 75  1  0
 29 76  1  0
 29 77  1  0
 30 78  1  0
 30 79  1  0
 32 80  1  0
 32 81  1  0
 32 82  1  0
M  END
>  <meeko>  (18) 
{"is_sidechain": [false], "intermolecular_energy": 2.731, "internal_energy": -0.839}

$$$$
EPH_relaxed_0001_pdb2pqr_Repair_236_r2_0001_out
     RDKit          3D

 82 86  0  0  0  0  0  0  0  0999 V2000
    3.3080   18.3340   -3.0280 C   0  0  0  0  0  0  0  0  0  0  0  0
    2.1380   17.9870   -2.1040 C   0  0  2  0  0  0  0  0  0  0  0  0
    1.9760   19.0100   -0.9620 C   0  0  0  0  0  0  0  0  0  0  0  0
    3.2850   19.3380   -0.2390 C   0  0  0  0  0  0  0  0  0  0  0  0
    3.1990   19.0400    1.2270 C   0  0  2  0  0  0  0  0  0  0  0  0
    3.0510   20.1950    2.0650 O   0  0  0  0  0  0  0  0  0  0  0  0
    4.2660   19.4450    2.2270 C   0  0  0  0  0  0  0  0  0  0  0  0
    5.4970   20.1810    1.8000 C   0  0  0  0  0  0  0  0  0  0  0  0
    4.3470   18.7040    3.5250 C   0  0  0  0  0  0  0  0  0  0  0  0
    2.3280   16.5890   -1.5280 C   0  0  1  0  0  0  0  0  0  0  0  0
    2.8520   16.6100   -0.0670 C   0  0  0  0  0  0  0  0  0  0  0  0
    2.1990   15.4070    0.6600 C   0  0  0  0  0  0  0  0  0  0  0  0
    1.5920   14.5480   -0.4740 C   0  0  1  0  0  0  0  0  0  0  0  0
    2.7900   13.7200   -1.0360 C   0  0  0  0  0  0  0  0  0  0  0  0
    0.3910   13.6290   -0.0780 C   0  0  2  0  0  0  0  0  0  0  0  0
    0.7160   12.5430    0.9630 C   0  0  0  0  0  0  0  0  0  0  0  0
    1.1670   11.2360    0.4010 C   0  0  0  0  0  0  0  0  0  0  0  0
    1.0360   10.8490   -0.8820 C   0  0  0  0  0  0  0  0  0  0  0  0
    0.2920   11.7260   -1.8970 C   0  0  1  0  0  0  0  0  0  0  0  0
   -0.6880   10.8490   -2.7190 C   0  0  0  0  0  0  0  0  0  0  0  0
    0.0020    9.6560   -3.3730 C   0  0  0  0  0  0  0  0  0  0  0  0
    0.6800    8.7760   -2.3260 C   0  0  2  0  0  0  0  0  0  0  0  0
   -0.3270    8.1730   -1.5080 O   0  0  0  0  0  0  0  0  0  0  0  0
    1.6850    9.5540   -1.4310 C   0  0  0  0  0  0  0  0  0  0  0  0
    2.9280    9.9490   -2.2650 C   0  0  0  0  0  0  0  0  0  0  0  0
    2.1920    8.5850   -0.3290 C   0  0  0  0  0  0  0  0  0  0  0  0
   -0.4010   13.0300   -1.3100 C   0  0  1  0  0  0  0  0  0  0  0  0
   -1.8320   12.6860   -0.7940 C   0  0  0  0  0  0  0  0  0  0  0  0
   -0.5870   14.0790   -2.4690 C   0  0  0  0  0  0  0  0  0  0  0  0
    0.5890   15.0390   -2.7330 C   0  0  0  0  0  0  0  0  0  0  0  0
    1.0740   15.6830   -1.4310 C   0  0  2  0  0  0  0  0  0  0  0  0
   -0.1030   16.5400   -0.8540 C   0  0  0  0  0  0  0  0  0  0  0  0
    4.1884   18.5951   -2.4225 H   0  0  0  0  0  0  0  0  0  0  0  0
    3.5435   17.4670   -3.6628 H   0  0  0  0  0  0  0  0  0  0  0  0
    3.0328   19.1892   -3.6628 H   0  0  0  0  0  0  0  0  0  0  0  0
    1.2191   18.0188   -2.7078 H   0  0  0  0  0  0  0  0  0  0  0  0
    1.5701   19.9409   -1.3847 H   0  0  0  0  0  0  0  0  0  0  0  0
    1.3029   18.5579   -0.2187 H   0  0  0  0  0  0  0  0  0  0  0  0
    4.0949   18.7368   -0.6779 H   0  0  0  0  0  0  0  0  0  0  0  0
    3.4824   20.4135   -0.3590 H   0  0  0  0  0  0  0  0  0  0  0  0
    2.7020   18.0793    1.0268 H   0  0  0  0  0  0  0  0  0  0  0  0
    6.0526   20.5132    2.6894 H   0  0  0  0  0  0  0  0  0  0  0  0
    6.1325   19.5145    1.1984 H   0  0  0  0  0  0  0  0  0  0  0  0
    5.2107   21.0563    1.1984 H   0  0  0  0  0  0  0  0  0  0  0  0
    4.2691   19.4165    4.3594 H   0  0  0  0  0  0  0  0  0  0  0  0
    3.5229   17.9779    3.5847 H   0  0  0  0  0  0  0  0  0  0  0  0
    5.3085   18.1731    3.5847 H   0  0  0  0  0  0  0  0  0  0  0  0
    3.0322   16.1797   -2.2673 H   0  0  0  0  0  0  0  0  0  0  0  0
    3.9474   16.5100   -0.0560 H   0  0  0  0  0  0  0  0  0  0  0  0
    2.5971   17.5575    0.4303 H   0  0  0  0  0  0  0  0  0  0  0  0
    2.9540   14.8347    1.2189 H   0  0  0  0  0  0  0  0  0  0  0  0
    1.4430   15.7235    1.3937 H   0  0  0  0  0  0  0  0  0  0  0  0
    3.3786   13.3132   -0.2005 H   0  0  0  0  0  0  0  0  0  0  0  0
    2.4072   12.8928   -1.6518 H   0  0  0  0  0  0  0  0  0  0  0  0
    3.4285   14.3705   -1.6518 H   0  0  0  0  0  0  0  0  0  0  0  0
   -0.2879   14.3326    0.4260 H   0  0  0  0  0  0  0  0  0  0  0  0
    1.5143   12.9259    1.6158 H   0  0  0  0  0  0  0  0  0  0  0  0
   -0.2258   12.3377    1.4929 H   0  0  0  0  0  0  0  0  0  0  0  0
    1.6471   10.5290    1.0936 H   0  0  0  0  0  0  0  0  0  0  0  0
    1.0633   12.1449   -2.5600 H   0  0  0  0  0  0  0  0  0  0  0  0
   -1.4755   10.4762   -2.0476 H   0  0  0  0  0  0  0  0  0  0  0  0
   -1.1035   11.4756   -3.5219 H   0  0  0  0  0  0  0  0  0  0  0  0
   -0.7470    9.0593   -3.9143 H   0  0  0  0  0  0  0  0  0  0  0  0
    0.7693   10.0311   -4.0662 H   0  0  0  0  0  0  0  0  0  0  0  0
    1.2633    8.0135   -2.8630 H   0  0  0  0  0  0  0  0  0  0  0  0
   -0.4630    7.2660   -1.8300 H   0  0  0  0  0  0  0  0  0  0  0  0
    3.7549   10.2118   -1.5888 H   0  0  0  0  0  0  0  0  0  0  0  0
    3.2282    9.1020   -2.8994 H   0  0  0  0  0  0  0  0  0  0  0  0
    2.6842   10.8139   -2.8994 H   0  0  0  0  0  0  0  0  0  0  0  0
    1.9705    9.0084    0.6618 H   0  0  0  0  0  0  0  0  0  0  0  0
    1.6866    7.6137   -0.4340 H   0  0  0  0  0  0  0  0  0  0  0  0
    3.2782    8.4464   -0.4340 H   0  0  0  0  0  0  0  0  0  0  0  0
   -1.8348   12.6853    0.3060 H   0  0  0  0  0  0  0  0  0  0  0  0
   -2.5452   13.4383   -1.1620 H   0  0  0  0  0  0  0  0  0  0  0  0
   -2.1253   11.6918   -1.1620 H   0  0  0  0  0  0  0  0  0  0  0  0
   -0.7745   13.5194   -3.3973 H   0  0  0  0  0  0  0  0  0  0  0  0
   -1.4169   14.7234   -2.1433 H   0  0  0  0  0  0  0  0  0  0  0  0
    1.4181   14.4761   -3.1866 H   0  0  0  0  0  0  0  0  0  0  0  0
    0.2468   15.8344   -3.4114 H   0  0  0  0  0  0  0  0  0  0  0  0
   -0.0697   16.5157    0.2452 H   0  0  0  0  0  0  0  0  0  0  0  0
   -0.0043   17.5792   -1.2010 H   0  0  0  0  0  0  0  0  0  0  0  0
   -1.0617   16.1270   -1.2010 H   0  0  0  0  0  0  0  0  0  0  0  0
  1  2  1  0
  2  3  1  0
  3  4  1  0
  4  5  1  0
  5  6  1  0
  6  7  1  0
  7  8  1  0
  7  9  1  0
  2 10  1  0
 10 11  1  0
 11 12  1  0
 12 13  1  0
 13 14  1  6
 13 15  1  0
 15 16  1  0
 16 17  1  0
 17 18  2  0
 18 19  1  0
 19 20  1  0
 20 21  1  0
 21 22  1  0
 22 23  1  0
 22 24  1  0
 24 25  1  0
 24 26  1  0
 19 27  1  0
 27 28  1  1
 27 29  1  0
 29 30  1  0
 30 31  1  0
 31 32  1  1
  7  5  1  0
 31 10  1  0
 31 13  1  0
 27 15  1  0
 24 18  1  0
  1 33  1  0
  1 34  1  0
  1 35  1  0
  2 36  1  6
  3 37  1  0
  3 38  1  0
  4 39  1  0
  4 40  1  0
  5 41  1  6
  8 42  1  0
  8 43  1  0
  8 44  1  0
  9 45  1  0
  9 46  1  0
  9 47  1  0
 10 48  1  6
 11 49  1  0
 11 50  1  0
 12 51  1  0
 12 52  1  0
 14 53  1  0
 14 54  1  0
 14 55  1  0
 15 56  1  1
 16 57  1  0
 16 58  1  0
 17 59  1  0
 19 60  1  6
 20 61  1  0
 20 62  1  0
 21 63  1  0
 21 64  1  0
 22 65  1  6
 23 66  1  0
 25 67  1  0
 25 68  1  0
 25 69  1  0
 26 70  1  0
 26 71  1  0
 26 72  1  0
 28 73  1  0
 28 74  1  0
 28 75  1  0
 29 76  1  0
 29 77  1  0
 30 78  1  0
 30 79  1  0
 32 80  1  0
 32 81  1  0
 32 82  1  0
M  END
>  <meeko>  (19) 
{"is_sidechain": [false], "intermolecular_energy": 2.731, "internal_energy": -0.839}

$$$$
EPH_relaxed_0001_pdb2pqr_Repair_236_r2_0001_out
     RDKit          3D

 82 86  0  0  0  0  0  0  0  0999 V2000
   -0.5620    9.1290   -1.8610 C   0  0  0  0  0  0  0  0  0  0  0  0
    0.2410   10.1920   -2.6140 C   0  0  2  0  0  0  0  0  0  0  0  0
    1.5930    9.6490   -3.1200 C   0  0  0  0  0  0  0  0  0  0  0  0
    2.8000   10.4580   -2.6390 C   0  0  0  0  0  0  0  0  0  0  0  0
    4.0680   10.0090   -3.3010 C   0  0  2  0  0  0  0  0  0  0  0  0
    5.1820   10.8940   -3.1240 O   0  0  0  0  0  0  0  0  0  0  0  0
    4.7050   10.7380   -4.4700 C   0  0  0  0  0  0  0  0  0  0  0  0
    4.0910   11.9760   -5.0450 C   0  0  0  0  0  0  0  0  0  0  0  0
    5.6430    9.9820   -5.3580 C   0  0  0  0  0  0  0  0  0  0  0  0
    0.4700   11.4040   -1.7180 C   0  0  1  0  0  0  0  0  0  0  0  0
    1.5750   11.1610   -0.6560 C   0  0  0  0  0  0  0  0  0  0  0  0
    2.3120   12.5110   -0.4610 C   0  0  0  0  0  0  0  0  0  0  0  0
    1.4070   13.5540   -1.1580 C   0  0  1  0  0  0  0  0  0  0  0  0
    0.2870   13.8720   -0.1190 C   0  0  0  0  0  0  0  0  0  0  0  0
    2.1130   14.8550   -1.6620 C   0  0  2  0  0  0  0  0  0  0  0  0
    2.7520   15.7190   -0.5600 C   0  0  0  0  0  0  0  0  0  0  0  0
    1.8620   16.7640    0.0260 C   0  0  0  0  0  0  0  0  0  0  0  0
    0.7020   17.1920   -0.5050 C   0  0  0  0  0  0  0  0  0  0  0  0
    0.2250   16.6800   -1.8700 C   0  0  1  0  0  0  0  0  0  0  0  0
   -0.2500   17.8770   -2.7350 C   0  0  0  0  0  0  0  0  0  0  0  0
   -1.3020   18.7280   -2.0310 C   0  0  0  0  0  0  0  0  0  0  0  0
   -0.7700   19.2660   -0.7050 C   0  0  2  0  0  0  0  0  0  0  0  0
    0.2850   20.1950   -0.9750 O   0  0  0  0  0  0  0  0  0  0  0  0
   -0.2540   18.1510    0.2460 C   0  0  0  0  0  0  0  0  0  0  0  0
   -1.4520   17.3250    0.7780 C   0  0  0  0  0  0  0  0  0  0  0  0
    0.3840   18.8370    1.4850 C   0  0  0  0  0  0  0  0  0  0  0  0
    1.2350   15.7290   -2.6460 C   0  0  1  0  0  0  0  0  0  0  0  0
    2.2290   16.5840   -3.4900 C   0  0  0  0  0  0  0  0  0  0  0  0
    0.4270   14.8480   -3.6710 C   0  0  0  0  0  0  0  0  0  0  0  0
   -0.1440   13.5170   -3.1440 C   0  0  0  0  0  0  0  0  0  0  0  0
    0.9290   12.7160   -2.4000 C   0  0  2  0  0  0  0  0  0  0  0  0
    2.0590   12.3630   -3.4260 C   0  0  0  0  0  0  0  0  0  0  0  0
   -0.4468    9.2815   -0.7777 H   0  0  0  0  0  0  0  0  0  0  0  0
   -1.6249    9.2121   -2.1320 H   0  0  0  0  0  0  0  0  0  0  0  0
   -0.1916    8.1293   -2.1320 H   0  0  0  0  0  0  0  0  0  0  0  0
   -0.3476   10.4871   -3.4952 H   0  0  0  0  0  0  0  0  0  0  0  0
    1.7057    8.6136   -2.7662 H   0  0  0  0  0  0  0  0  0  0  0  0
    1.5766    9.7181   -4.2177 H   0  0  0  0  0  0  0  0  0  0  0  0
    2.6330   11.5200   -2.8719 H   0  0  0  0  0  0  0  0  0  0  0  0
    2.9060   10.3040   -1.5550 H   0  0  0  0  0  0  0  0  0  0  0  0
    3.8027    8.9528   -3.1459 H   0  0  0  0  0  0  0  0  0  0  0  0
    3.7636   12.6362   -4.2283 H   0  0  0  0  0  0  0  0  0  0  0  0
    4.8337   12.4999   -5.6646 H   0  0  0  0  0  0  0  0  0  0  0  0
    3.2245   11.7018   -5.6646 H   0  0  0  0  0  0  0  0  0  0  0  0
    6.3519    9.4106   -4.7407 H   0  0  0  0  0  0  0  0  0  0  0  0
    5.0696    9.2906   -5.9930 H   0  0  0  0  0  0  0  0  0  0  0  0
    6.1969   10.6891   -5.9930 H   0  0  0  0  0  0  0  0  0  0  0  0
   -0.5447   11.5272   -1.3115 H   0  0  0  0  0  0  0  0  0  0  0  0
    1.1236   10.8353    0.2928 H   0  0  0  0  0  0  0  0  0  0  0  0
    2.2711   10.3744   -0.9829 H   0  0  0  0  0  0  0  0  0  0  0  0
    2.4198   12.7436    0.6087 H   0  0  0  0  0  0  0  0  0  0  0  0
    3.3291   12.4952   -0.8796 H   0  0  0  0  0  0  0  0  0  0  0  0
    0.6881   13.7581    0.8989 H   0  0  0  0  0  0  0  0  0  0  0  0
   -0.0630   14.9050   -0.2618 H   0  0  0  0  0  0  0  0  0  0  0  0
   -0.5536   13.1770   -0.2618 H   0  0  0  0  0  0  0  0  0  0  0  0
    2.9511   14.4557   -2.2520 H   0  0  0  0  0  0  0  0  0  0  0  0
    3.0729   15.0508    0.2528 H   0  0  0  0  0  0  0  0  0  0  0  0
    3.5818   16.2592   -1.0391 H   0  0  0  0  0  0  0  0  0  0  0  0
    2.1816   17.2236    0.9729 H   0  0  0  0  0  0  0  0  0  0  0  0
   -0.6220   16.0091   -1.6638 H   0  0  0  0  0  0  0  0  0  0  0  0
    0.6186   18.5109   -2.9667 H   0  0  0  0  0  0  0  0  0  0  0  0
   -0.7083   17.4678   -3.6474 H   0  0  0  0  0  0  0  0  0  0  0  0
   -1.5739   19.5738   -2.6796 H   0  0  0  0  0  0  0  0  0  0  0  0
   -2.1825   18.1008   -1.8277 H   0  0  0  0  0  0  0  0  0  0  0  0
   -1.6081   19.7556   -0.1874 H   0  0  0  0  0  0  0  0  0  0  0  0
   -0.0380   20.8190   -1.6460 H   0  0  0  0  0  0  0  0  0  0  0  0
   -1.4423   17.3317    1.8779 H   0  0  0  0  0  0  0  0  0  0  0  0
   -2.3919   17.7679    0.4169 H   0  0  0  0  0  0  0  0  0  0  0  0
   -1.3723   16.2890    0.4169 H   0  0  0  0  0  0  0  0  0  0  0  0
   -0.0288   18.3932    2.4030 H   0  0  0  0  0  0  0  0  0  0  0  0
    1.4740   18.6902    1.4647 H   0  0  0  0  0  0  0  0  0  0  0  0
    0.1586   19.9135    1.4647 H   0  0  0  0  0  0  0  0  0  0  0  0
    2.8883   17.1511   -2.8164 H   0  0  0  0  0  0  0  0  0  0  0  0
    2.8356   15.9211   -4.1245 H   0  0  0  0  0  0  0  0  0  0  0  0
    1.6643   17.2829   -4.1245 H   0  0  0  0  0  0  0  0  0  0  0  0
   -0.4175   15.4514   -4.0353 H   0  0  0  0  0  0  0  0  0  0  0  0
    1.1565   14.5627   -4.4433 H   0  0  0  0  0  0  0  0  0  0  0  0
   -0.9758   13.7295   -2.4563 H   0  0  0  0  0  0  0  0  0  0  0  0
   -0.4946   12.9223   -4.0004 H   0  0  0  0  0  0  0  0  0  0  0  0
    2.9718   12.0779   -2.8824 H   0  0  0  0  0  0  0  0  0  0  0  0
    1.7315   11.5244   -4.0580 H   0  0  0  0  0  0  0  0  0  0  0  0
    2.2671   13.2389   -4.0580 H   0  0  0  0  0  0  0  0  0  0  0  0
  1  2  1  0
  2  3  1  0
  3  4  1  0
  4  5  1  0
  5  6  1  0
  6  7  1  0
  7  8  1  0
  7  9  1  0
  2 10  1  0
 10 11  1  0
 11 12  1  0
 12 13  1  0
 13 14  1  1
 13 15  1  0
 15 16  1  0
 16 17  1  0
 17 18  2  0
 18 19  1  0
 19 20  1  0
 20 21  1  0
 21 22  1  0
 22 23  1  0
 22 24  1  0
 24 25  1  0
 24 26  1  0
 19 27  1  0
 27 28  1  6
 27 29  1  0
 29 30  1  0
 30 31  1  0
 31 32  1  6
  7  5  1  0
 31 10  1  0
 31 13  1  0
 27 15  1  0
 24 18  1  0
  1 33  1  0
  1 34  1  0
  1 35  1  0
  2 36  1  6
  3 37  1  0
  3 38  1  0
  4 39  1  0
  4 40  1  0
  5 41  1  6
  8 42  1  0
  8 43  1  0
  8 44  1  0
  9 45  1  0
  9 46  1  0
  9 47  1  0
 10 48  1  1
 11 49  1  0
 11 50  1  0
 12 51  1  0
 12 52  1  0
 14 53  1  0
 14 54  1  0
 14 55  1  0
 15 56  1  6
 16 57  1  0
 16 58  1  0
 17 59  1  0
 19 60  1  1
 20 61  1  0
 20 62  1  0
 21 63  1  0
 21 64  1  0
 22 65  1  1
 23 66  1  0
 25 67  1  0
 25 68  1  0
 25 69  1  0
 26 70  1  0
 26 71  1  0
 26 72  1  0
 28 73  1  0
 28 74  1  0
 28 75  1  0
 29 76  1  0
 29 77  1  0
 30 78  1  0
 30 79  1  0
 32 80  1  0
 32 81  1  0
 32 82  1  0
M  END
>  <meeko>  (20) 
{"is_sidechain": [false], "intermolecular_energy": 2.731, "internal_energy": -0.839}

$$$$
