EPH_relaxed_0001_pdb2pqr_Repair_19_r2_0001_out
     RDKit          3D

 82 86  0  0  0  0  0  0  0  0999 V2000
   -1.4580    8.5780   -1.9350 C   0  0  0  0  0  0  0  0  0  0  0  0
   -1.8170    9.1470   -0.5590 C   0  0  2  0  0  0  0  0  0  0  0  0
   -3.2970    9.5670   -0.4720 C   0  0  0  0  0  0  0  0  0  0  0  0
   -4.2660    8.3880   -0.3470 C   0  0  0  0  0  0  0  0  0  0  0  0
   -4.9500    8.0920   -1.6470 C   0  0  2  0  0  0  0  0  0  0  0  0
   -6.3150    8.5230   -1.7170 O   0  0  0  0  0  0  0  0  0  0  0  0
   -6.0940    7.1050   -1.7850 C   0  0  0  0  0  0  0  0  0  0  0  0
   -6.6190    6.3490   -0.6050 C   0  0  0  0  0  0  0  0  0  0  0  0
   -6.3710    6.5150   -3.1330 C   0  0  0  0  0  0  0  0  0  0  0  0
   -0.9180   10.3350   -0.2380 C   0  0  1  0  0  0  0  0  0  0  0  0
    0.2460    9.9630    0.7190 C   0  0  0  0  0  0  0  0  0  0  0  0
    1.4660   10.8190    0.2940 C   0  0  0  0  0  0  0  0  0  0  0  0
    0.8810   11.8840   -0.6630 C   0  0  1  0  0  0  0  0  0  0  0  0
    0.2800   12.9790    0.2730 C   0  0  0  0  0  0  0  0  0  0  0  0
    1.8730   12.4970   -1.7040 C   0  0  2  0  0  0  0  0  0  0  0  0
    3.0570   13.2720   -1.1000 C   0  0  0  0  0  0  0  0  0  0  0  0
    2.8210   14.7310   -0.8860 C   0  0  0  0  0  0  0  0  0  0  0  0
    1.8170   15.4480   -1.4250 C   0  0  0  0  0  0  0  0  0  0  0  0
    0.8430   14.8120   -2.4250 C   0  0  1  0  0  0  0  0  0  0  0  0
    0.6550   15.7590   -3.6390 C   0  0  0  0  0  0  0  0  0  0  0  0
    0.2310   17.1640   -3.2250 C   0  0  0  0  0  0  0  0  0  0  0  0
    1.2530   17.7860   -2.2770 C   0  0  2  0  0  0  0  0  0  0  0  0
    2.4730   18.0020   -2.9930 O   0  0  0  0  0  0  0  0  0  0  0  0
    1.5320   16.9150   -1.0200 C   0  0  0  0  0  0  0  0  0  0  0  0
    0.2920   16.9300   -0.0910 C   0  0  0  0  0  0  0  0  0  0  0  0
    2.6820   17.5850   -0.2200 C   0  0  0  0  0  0  0  0  0  0  0  0
    1.1730   13.3190   -2.8610 C   0  0  1  0  0  0  0  0  0  0  0  0
    2.1620   13.3230   -4.0660 C   0  0  0  0  0  0  0  0  0  0  0  0
   -0.1470   12.6290   -3.3720 C   0  0  0  0  0  0  0  0  0  0  0  0
   -1.0240   11.9380   -2.3110 C   0  0  0  0  0  0  0  0  0  0  0  0
   -0.1860   11.0140   -1.4230 C   0  0  2  0  0  0  0  0  0  0  0  0
    0.4140    9.8890   -2.3340 C   0  0  0  0  0  0  0  0  0  0  0  0
   -0.8749    7.6538   -1.8089 H   0  0  0  0  0  0  0  0  0  0  0  0
   -2.3802    8.3565   -2.4922 H   0  0  0  0  0  0  0  0  0  0  0  0
   -0.8610    9.3150   -2.4922 H   0  0  0  0  0  0  0  0  0  0  0  0
   -1.6573    8.3490    0.1811 H   0  0  0  0  0  0  0  0  0  0  0  0
   -3.4229   10.2146    0.4082 H   0  0  0  0  0  0  0  0  0  0  0  0
   -3.5399   10.0839   -1.4121 H   0  0  0  0  0  0  0  0  0  0  0  0
   -3.7044    7.4973   -0.0289 H   0  0  0  0  0  0  0  0  0  0  0  0
   -5.0357    8.6539    0.3925 H   0  0  0  0  0  0  0  0  0  0  0  0
   -4.0046    8.2072   -2.1974 H   0  0  0  0  0  0  0  0  0  0  0  0
   -6.2812    6.8354    0.3220 H   0  0  0  0  0  0  0  0  0  0  0  0
   -7.7186    6.3402   -0.6348 H   0  0  0  0  0  0  0  0  0  0  0  0
   -6.2431    5.3156   -0.6348 H   0  0  0  0  0  0  0  0  0  0  0  0
   -6.8356    5.5254   -3.0116 H   0  0  0  0  0  0  0  0  0  0  0  0
   -7.0534    7.1748   -3.6888 H   0  0  0  0  0  0  0  0  0  0  0  0
   -5.4274    6.4114   -3.6888 H   0  0  0  0  0  0  0  0  0  0  0  0
   -1.6654   11.0217    0.1861 H   0  0  0  0  0  0  0  0  0  0  0  0
   -0.0317   10.1895    1.7590 H   0  0  0  0  0  0  0  0  0  0  0  0
    0.4775    8.8892    0.6602 H   0  0  0  0  0  0  0  0  0  0  0  0
    1.9293   11.2966    1.1699 H   0  0  0  0  0  0  0  0  0  0  0  0
    2.2525   10.2162   -0.1835 H   0  0  0  0  0  0  0  0  0  0  0  0
    0.4381   12.6910    1.3228 H   0  0  0  0  0  0  0  0  0  0  0  0
    0.7766   13.9410    0.0779 H   0  0  0  0  0  0  0  0  0  0  0  0
   -0.7981   13.0767    0.0779 H   0  0  0  0  0  0  0  0  0  0  0  0
    2.3096   11.6008   -2.1690 H   0  0  0  0  0  0  0  0  0  0  0  0
    3.2980   12.8202   -0.1265 H   0  0  0  0  0  0  0  0  0  0  0  0
    3.8739   13.1999   -1.8331 H   0  0  0  0  0  0  0  0  0  0  0  0
    3.5270   15.2649   -0.2329 H   0  0  0  0  0  0  0  0  0  0  0  0
   -0.1110   14.6981   -1.8893 H   0  0  0  0  0  0  0  0  0  0  0  0
    1.6073   15.8248   -4.1855 H   0  0  0  0  0  0  0  0  0  0  0  0
   -0.1448   15.3407   -4.2678 H   0  0  0  0  0  0  0  0  0  0  0  0
    0.1439   17.7930   -4.1232 H   0  0  0  0  0  0  0  0  0  0  0  0
   -0.7361   17.0996   -2.7049 H   0  0  0  0  0  0  0  0  0  0  0  0
    0.8318   18.7350   -1.9136 H   0  0  0  0  0  0  0  0  0  0  0  0
    3.0390   18.5710   -2.4440 H   0  0  0  0  0  0  0  0  0  0  0  0
    0.6203   16.9260    0.9589 H   0  0  0  0  0  0  0  0  0  0  0  0
   -0.3014   17.8354   -0.2862 H   0  0  0  0  0  0  0  0  0  0  0  0
   -0.3232   16.0392   -0.2862 H   0  0  0  0  0  0  0  0  0  0  0  0
    2.4919   17.4742    0.8578 H   0  0  0  0  0  0  0  0  0  0  0  0
    3.6365   17.1016   -0.4755 H   0  0  0  0  0  0  0  0  0  0  0  0
    2.7322   18.6537   -0.4755 H   0  0  0  0  0  0  0  0  0  0  0  0
    3.1963   13.3272   -3.6915 H   0  0  0  0  0  0  0  0  0  0  0  0
    1.9974   12.4242   -4.6784 H   0  0  0  0  0  0  0  0  0  0  0  0
    1.9902   14.2205   -4.6784 H   0  0  0  0  0  0  0  0  0  0  0  0
   -0.7599   13.4021   -3.8585 H   0  0  0  0  0  0  0  0  0  0  0  0
    0.1895   11.8211   -4.0384 H   0  0  0  0  0  0  0  0  0  0  0  0
   -1.5005   12.7052   -1.6831 H   0  0  0  0  0  0  0  0  0  0  0  0
   -1.7854   11.3334   -2.8256 H   0  0  0  0  0  0  0  0  0  0  0  0
    0.8381    9.0938   -1.7033 H   0  0  0  0  0  0  0  0  0  0  0  0
   -0.3800    9.4691   -2.9691 H   0  0  0  0  0  0  0  0  0  0  0  0
    1.2050   10.3144   -2.9691 H   0  0  0  0  0  0  0  0  0  0  0  0
  1  2  1  0
  2  3  1  0
  3  4  1  0
  4  5  1  0
  5  6  1  0
  6  7  1  0
  7  8  1  0
  7  9  1  0
  2 10  1  0
 10 11  1  0
 11 12  1  0
 12 13  1  0
 13 14  1  1
 13 15  1  0
 15 16  1  0
 16 17  1  0
 17 18  2  0
 18 19  1  0
 19 20  1  0
 20 21  1  0
 21 22  1  0
 22 23  1  0
 22 24  1  0
 24 25  1  0
 24 26  1  0
 19 27  1  0
 27 28  1  6
 27 29  1  0
 29 30  1  0
 30 31  1  0
 31 32  1  6
  7  5  1  0
 31 10  1  0
 31 13  1  0
 27 15  1  0
 24 18  1  0
  1 33  1  0
  1 34  1  0
  1 35  1  0
  2 36  1  1
  3 37  1  0
  3 38  1  0
  4 39  1  0
  4 40  1  0
  5 41  1  6
  8 42  1  0
  8 43  1  0
  8 44  1  0
  9 45  1  0
  9 46  1  0
  9 47  1  0
 10 48  1  1
 11 49  1  0
 11 50  1  0
 12 51  1  0
 12 52  1  0
 14 53  1  0
 14 54  1  0
 14 55  1  0
 15 56  1  6
 16 57  1  0
 16 58  1  0
 17 59  1  0
 19 60  1  1
 20 61  1  0
 20 62  1  0
 21 63  1  0
 21 64  1  0
 22 65  1  1
 23 66  1  0
 25 67  1  0
 25 68  1  0
 25 69  1  0
 26 70  1  0
 26 71  1  0
 26 72  1  0
 28 73  1  0
 28 74  1  0
 28 75  1  0
 29 76  1  0
 29 77  1  0
 30 78  1  0
 30 79  1  0
 32 80  1  0
 32 81  1  0
 32 82  1  0
M  END
>  <meeko>  (1) 
{"is_sidechain": [false], "intermolecular_energy": 2.731, "internal_energy": -0.839}

$$$$
EPH_relaxed_0001_pdb2pqr_Repair_19_r2_0001_out
     RDKit          3D

 82 86  0  0  0  0  0  0  0  0999 V2000
    2.3790   19.8250   -0.8500 C   0  0  0  0  0  0  0  0  0  0  0  0
    2.2260   18.8580    0.3280 C   0  0  2  0  0  0  0  0  0  0  0  0
    3.5870   18.3510    0.8440 C   0  0  0  0  0  0  0  0  0  0  0  0
    3.8780   18.7370    2.2960 C   0  0  0  0  0  0  0  0  0  0  0  0
    5.3320   19.0290    2.5120 C   0  0  2  0  0  0  0  0  0  0  0  0
    6.0140   18.0880    3.3520 O   0  0  0  0  0  0  0  0  0  0  0  0
    5.9150   19.4310    3.8540 C   0  0  0  0  0  0  0  0  0  0  0  0
    5.0540   19.5640    5.0700 C   0  0  0  0  0  0  0  0  0  0  0  0
    7.2200   20.1640    3.8760 C   0  0  0  0  0  0  0  0  0  0  0  0
    1.3500   17.6790   -0.0780 C   0  0  1  0  0  0  0  0  0  0  0  0
    0.1980   18.0910   -1.0330 C   0  0  0  0  0  0  0  0  0  0  0  0
   -0.0140   16.9090   -2.0140 C   0  0  0  0  0  0  0  0  0  0  0  0
    0.7820   15.7380   -1.3920 C   0  0  1  0  0  0  0  0  0  0  0  0
   -0.1580   15.1560   -0.2890 C   0  0  0  0  0  0  0  0  0  0  0  0
    1.2660   14.6290   -2.3810 C   0  0  2  0  0  0  0  0  0  0  0  0
    0.1440   13.8630   -3.1040 C   0  0  0  0  0  0  0  0  0  0  0  0
   -0.3410   12.6350   -2.4070 C   0  0  0  0  0  0  0  0  0  0  0  0
    0.2920   12.0070   -1.3980 C   0  0  0  0  0  0  0  0  0  0  0  0
    1.6740   12.4720   -0.9240 C   0  0  1  0  0  0  0  0  0  0  0  0
    2.6080   11.2440   -0.7660 C   0  0  0  0  0  0  0  0  0  0  0  0
    2.0130   10.1690    0.1390 C   0  0  0  0  0  0  0  0  0  0  0  0
    0.6660    9.6900   -0.3970 C   0  0  2  0  0  0  0  0  0  0  0  0
    0.8800    9.0060   -1.6350 O   0  0  0  0  0  0  0  0  0  0  0  0
   -0.3550   10.8430   -0.6070 C   0  0  0  0  0  0  0  0  0  0  0  0
   -0.8150   11.3880    0.7680 C   0  0  0  0  0  0  0  0  0  0  0  0
   -1.6190   10.2450   -1.2820 C   0  0  0  0  0  0  0  0  0  0  0  0
    2.3410   13.6400   -1.7710 C   0  0  1  0  0  0  0  0  0  0  0  0
    3.1290   13.0410   -2.9760 C   0  0  0  0  0  0  0  0  0  0  0  0
    3.3990   14.3860   -0.8750 C   0  0  0  0  0  0  0  0  0  0  0  0
    2.8800   15.5500   -0.0100 C   0  0  0  0  0  0  0  0  0  0  0  0
    2.0320   16.5160   -0.8430 C   0  0  2  0  0  0  0  0  0  0  0  0
    2.9560   17.1350   -1.9460 C   0  0  0  0  0  0  0  0  0  0  0  0
    2.5403   20.8443   -0.4691 H   0  0  0  0  0  0  0  0  0  0  0  0
    3.2404   19.5222   -1.4634 H   0  0  0  0  0  0  0  0  0  0  0  0
    1.4662   19.8029   -1.4634 H   0  0  0  0  0  0  0  0  0  0  0  0
    1.7474   19.4108    1.1498 H   0  0  0  0  0  0  0  0  0  0  0  0
    3.6005   17.2538    0.7672 H   0  0  0  0  0  0  0  0  0  0  0  0
    4.3622   18.8252    0.2242 H   0  0  0  0  0  0  0  0  0  0  0  0
    3.2929   19.6330    2.5506 H   0  0  0  0  0  0  0  0  0  0  0  0
    3.5999   17.8885    2.9384 H   0  0  0  0  0  0  0  0  0  0  0  0
    5.4155   19.4724    1.5088 H   0  0  0  0  0  0  0  0  0  0  0  0
    5.6761   19.4679    5.9721 H   0  0  0  0  0  0  0  0  0  0  0  0
    4.5635   20.5486    5.0661 H   0  0  0  0  0  0  0  0  0  0  0  0
    4.2893   18.7733    5.0661 H   0  0  0  0  0  0  0  0  0  0  0  0
    7.5264   20.3361    4.9184 H   0  0  0  0  0  0  0  0  0  0  0  0
    7.9861   19.5642    3.3629 H   0  0  0  0  0  0  0  0  0  0  0  0
    7.1065   21.1304    3.3629 H   0  0  0  0  0  0  0  0  0  0  0  0
    1.0281   17.3378    0.9170 H   0  0  0  0  0  0  0  0  0  0  0  0
   -0.7218   18.2766   -0.4590 H   0  0  0  0  0  0  0  0  0  0  0  0
    0.4462   19.0151   -1.5757 H   0  0  0  0  0  0  0  0  0  0  0  0
   -1.0815   16.6552   -2.0912 H   0  0  0  0  0  0  0  0  0  0  0  0
    0.3232   17.1475   -3.0335 H   0  0  0  0  0  0  0  0  0  0  0  0
    0.2441   15.4049    0.7042 H   0  0  0  0  0  0  0  0  0  0  0  0
   -1.1629   15.5902   -0.3971 H   0  0  0  0  0  0  0  0  0  0  0  0
   -0.2173   14.0629   -0.3971 H   0  0  0  0  0  0  0  0  0  0  0  0
    1.7765   15.2150   -3.1594 H   0  0  0  0  0  0  0  0  0  0  0  0
   -0.7104   14.5453   -3.2246 H   0  0  0  0  0  0  0  0  0  0  0  0
    0.5735   13.5223   -4.0576 H   0  0  0  0  0  0  0  0  0  0  0  0
   -1.2959   12.2072   -2.7463 H   0  0  0  0  0  0  0  0  0  0  0  0
    1.5147   12.9483    0.0546 H   0  0  0  0  0  0  0  0  0  0  0  0
    2.7885   10.8081   -1.7597 H   0  0  0  0  0  0  0  0  0  0  0  0
    3.5420   11.5925   -0.3011 H   0  0  0  0  0  0  0  0  0  0  0  0
    2.7053    9.3156    0.1877 H   0  0  0  0  0  0  0  0  0  0  0  0
    1.8605   10.5976    1.1405 H   0  0  0  0  0  0  0  0  0  0  0  0
    0.2302    9.0190    0.3579 H   0  0  0  0  0  0  0  0  0  0  0  0
    0.9660    9.6780   -2.3320 H   0  0  0  0  0  0  0  0  0  0  0  0
   -0.3301   10.8135    1.5710 H   0  0  0  0  0  0  0  0  0  0  0  0
   -0.5344   12.4481    0.8547 H   0  0  0  0  0  0  0  0  0  0  0  0
   -1.9071   11.2895    0.8547 H   0  0  0  0  0  0  0  0  0  0  0  0
   -2.3250    9.9110   -0.5074 H   0  0  0  0  0  0  0  0  0  0  0  0
   -2.0978   11.0121   -1.9084 H   0  0  0  0  0  0  0  0  0  0  0  0
   -1.3296    9.3883   -1.9084 H   0  0  0  0  0  0  0  0  0  0  0  0
    3.9523   12.4152   -2.6010 H   0  0  0  0  0  0  0  0  0  0  0  0
    2.4518   12.4276   -3.5885 H   0  0  0  0  0  0  0  0  0  0  0  0
    3.5388   13.8577   -3.5885 H   0  0  0  0  0  0  0  0  0  0  0  0
    3.8456   13.6423   -0.1986 H   0  0  0  0  0  0  0  0  0  0  0  0
    4.1029   14.8462   -1.5840 H   0  0  0  0  0  0  0  0  0  0  0  0
    2.2655   15.1448    0.8074 H   0  0  0  0  0  0  0  0  0  0  0  0
    3.7433   16.0994    0.3934 H   0  0  0  0  0  0  0  0  0  0  0  0
    3.7790   17.6864   -1.4678 H   0  0  0  0  0  0  0  0  0  0  0  0
    3.3688   16.3305   -2.5724 H   0  0  0  0  0  0  0  0  0  0  0  0
    2.3691   17.8229   -2.5724 H   0  0  0  0  0  0  0  0  0  0  0  0
  1  2  1  0
  2  3  1  0
  3  4  1  0
  4  5  1  0
  5  6  1  0
  6  7  1  0
  7  8  1  0
  7  9  1  0
  2 10  1  0
 10 11  1  0
 11 12  1  0
 12 13  1  0
 13 14  1  1
 13 15  1  0
 15 16  1  0
 16 17  1  0
 17 18  2  0
 18 19  1  0
 19 20  1  0
 20 21  1  0
 21 22  1  0
 22 23  1  0
 22 24  1  0
 24 25  1  0
 24 26  1  0
 19 27  1  0
 27 28  1  6
 27 29  1  0
 29 30  1  0
 30 31  1  0
 31 32  1  6
  7  5  1  0
 31 10  1  0
 31 13  1  0
 27 15  1  0
 24 18  1  0
  1 33  1  0
  1 34  1  0
  1 35  1  0
  2 36  1  1
  3 37  1  0
  3 38  1  0
  4 39  1  0
  4 40  1  0
  5 41  1  6
  8 42  1  0
  8 43  1  0
  8 44  1  0
  9 45  1  0
  9 46  1  0
  9 47  1  0
 10 48  1  1
 11 49  1  0
 11 50  1  0
 12 51  1  0
 12 52  1  0
 14 53  1  0
 14 54  1  0
 14 55  1  0
 15 56  1  6
 16 57  1  0
 16 58  1  0
 17 59  1  0
 19 60  1  1
 20 61  1  0
 20 62  1  0
 21 63  1  0
 21 64  1  0
 22 65  1  1
 23 66  1  0
 25 67  1  0
 25 68  1  0
 25 69  1  0
 26 70  1  0
 26 71  1  0
 26 72  1  0
 28 73  1  0
 28 74  1  0
 28 75  1  0
 29 76  1  0
 29 77  1  0
 30 78  1  0
 30 79  1  0
 32 80  1  0
 32 81  1  0
 32 82  1  0
M  END
>  <meeko>  (2) 
{"is_sidechain": [false], "intermolecular_energy": 2.731, "internal_energy": -0.839}

$$$$
EPH_relaxed_0001_pdb2pqr_Repair_19_r2_0001_out
     RDKit          3D

 82 86  0  0  0  0  0  0  0  0999 V2000
    0.5960   18.4000    0.1170 C   0  0  0  0  0  0  0  0  0  0  0  0
    1.6450   17.3150   -0.1450 C   0  0  2  0  0  0  0  0  0  0  0  0
    2.8590   17.8580   -0.9250 C   0  0  0  0  0  0  0  0  0  0  0  0
    4.0800   18.1410   -0.0460 C   0  0  0  0  0  0  0  0  0  0  0  0
    3.6820   18.5650    1.3350 C   0  0  2  0  0  0  0  0  0  0  0  0
    3.8400   19.9650    1.6000 O   0  0  0  0  0  0  0  0  0  0  0  0
    4.6670   19.0770    2.3700 C   0  0  0  0  0  0  0  0  0  0  0  0
    6.1280   19.1900    2.0670 C   0  0  0  0  0  0  0  0  0  0  0  0
    4.2880   19.0030    3.8160 C   0  0  0  0  0  0  0  0  0  0  0  0
    1.0140   16.1540   -0.9040 C   0  0  1  0  0  0  0  0  0  0  0  0
    0.7560   16.4870   -2.3980 C   0  0  0  0  0  0  0  0  0  0  0  0
    0.9890   15.1780   -3.1950 C   0  0  0  0  0  0  0  0  0  0  0  0
    1.0470   14.0700   -2.1170 C   0  0  1  0  0  0  0  0  0  0  0  0
   -0.4460   13.7520   -1.7890 C   0  0  0  0  0  0  0  0  0  0  0  0
    1.8420   12.7780   -2.4950 C   0  0  2  0  0  0  0  0  0  0  0  0
    1.2760   11.9900   -3.6890 C   0  0  0  0  0  0  0  0  0  0  0  0
    0.2780   10.9350   -3.3410 C   0  0  0  0  0  0  0  0  0  0  0  0
    0.0630   10.4380   -2.1090 C   0  0  0  0  0  0  0  0  0  0  0  0
    0.9340   10.8700   -0.9220 C   0  0  1  0  0  0  0  0  0  0  0  0
    1.3690    9.6180   -0.1160 C   0  0  0  0  0  0  0  0  0  0  0  0
    0.1850    8.7570    0.3120 C   0  0  0  0  0  0  0  0  0  0  0  0
   -0.6230    8.2990   -0.9000 C   0  0  2  0  0  0  0  0  0  0  0  0
    0.1790    7.4030   -1.6760 O   0  0  0  0  0  0  0  0  0  0  0  0
   -1.1080    9.4750   -1.7930 C   0  0  0  0  0  0  0  0  0  0  0  0
   -2.2080   10.2730   -1.0510 C   0  0  0  0  0  0  0  0  0  0  0  0
   -1.7860    8.8690   -3.0520 C   0  0  0  0  0  0  0  0  0  0  0  0
    2.1540   11.8270   -1.2700 C   0  0  1  0  0  0  0  0  0  0  0  0
    3.3990   10.9780   -1.6720 C   0  0  0  0  0  0  0  0  0  0  0  0
    2.5620   12.6300    0.0220 C   0  0  0  0  0  0  0  0  0  0  0  0
    1.8240   13.9570    0.2770 C   0  0  0  0  0  0  0  0  0  0  0  0
    1.8190   14.8330   -0.9800 C   0  0  2  0  0  0  0  0  0  0  0  0
    3.3070   15.1870   -1.3220 C   0  0  0  0  0  0  0  0  0  0  0  0
    0.4682   18.5322    1.2015 H   0  0  0  0  0  0  0  0  0  0  0  0
    0.9289   19.3478   -0.3312 H   0  0  0  0  0  0  0  0  0  0  0  0
   -0.3625   18.0992   -0.3312 H   0  0  0  0  0  0  0  0  0  0  0  0
    2.0103   16.9648    0.8317 H   0  0  0  0  0  0  0  0  0  0  0  0
    3.1433   17.1157   -1.6854 H   0  0  0  0  0  0  0  0  0  0  0  0
    2.5530   18.8173   -1.3679 H   0  0  0  0  0  0  0  0  0  0  0  0
    4.6890   17.2276    0.0231 H   0  0  0  0  0  0  0  0  0  0  0  0
    4.6508   18.9613   -0.5056 H   0  0  0  0  0  0  0  0  0  0  0  0
    2.9071   17.7854    1.3765 H   0  0  0  0  0  0  0  0  0  0  0  0
    6.6954   19.2339    3.0084 H   0  0  0  0  0  0  0  0  0  0  0  0
    6.4506   18.3141    1.4849 H   0  0  0  0  0  0  0  0  0  0  0  0
    6.3121   20.1051    1.4849 H   0  0  0  0  0  0  0  0  0  0  0  0
    5.1786   19.1769    4.4378 H   0  0  0  0  0  0  0  0  0  0  0  0
    3.5313   19.7704    4.0365 H   0  0  0  0  0  0  0  0  0  0  0  0
    3.8756   18.0074    4.0365 H   0  0  0  0  0  0  0  0  0  0  0  0
    0.1078   16.0082   -0.2978 H   0  0  0  0  0  0  0  0  0  0  0  0
   -0.2784   16.8350   -2.5353 H   0  0  0  0  0  0  0  0  0  0  0  0
    1.4272   17.2860   -2.7461 H   0  0  0  0  0  0  0  0  0  0  0  0
    0.1596   14.9963   -3.8944 H   0  0  0  0  0  0  0  0  0  0  0  0
    1.9050   15.2171   -3.8028 H   0  0  0  0  0  0  0  0  0  0  0  0
   -0.5835   13.7227   -0.6980 H   0  0  0  0  0  0  0  0  0  0  0  0
   -1.0903   14.5331   -2.2189 H   0  0  0  0  0  0  0  0  0  0  0  0
   -0.7161   12.7762   -2.2189 H   0  0  0  0  0  0  0  0  0  0  0  0
    2.8055   13.1851   -2.8356 H   0  0  0  0  0  0  0  0  0  0  0  0
    0.7911   12.7055   -4.3694 H   0  0  0  0  0  0  0  0  0  0  0  0
    2.1307   11.4640   -4.1394 H   0  0  0  0  0  0  0  0  0  0  0  0
   -0.3331   10.5299   -4.1610 H   0  0  0  0  0  0  0  0  0  0  0  0
    0.2983   11.5136   -0.2962 H   0  0  0  0  0  0  0  0  0  0  0  0
    2.0385    9.0104   -0.7426 H   0  0  0  0  0  0  0  0  0  0  0  0
    1.8745    9.9675    0.7963 H   0  0  0  0  0  0  0  0  0  0  0  0
    0.5584    7.8735    0.8505 H   0  0  0  0  0  0  0  0  0  0  0  0
   -0.4680    9.3567    0.9631 H   0  0  0  0  0  0  0  0  0  0  0  0
   -1.5274    7.7982   -0.5242 H   0  0  0  0  0  0  0  0  0  0  0  0
   -0.3450    7.1340   -2.4490 H   0  0  0  0  0  0  0  0  0  0  0  0
   -2.0662   10.1701    0.0350 H   0  0  0  0  0  0  0  0  0  0  0  0
   -2.1422   11.3349   -1.3304 H   0  0  0  0  0  0  0  0  0  0  0  0
   -3.1970    9.8809   -1.3304 H   0  0  0  0  0  0  0  0  0  0  0  0
   -2.5729    8.1657   -2.7420 H   0  0  0  0  0  0  0  0  0  0  0  0
   -2.2312    9.6757   -3.6529 H   0  0  0  0  0  0  0  0  0  0  0  0
   -1.0341    8.3364   -3.6529 H   0  0  0  0  0  0  0  0  0  0  0  0
    3.9125   10.6278   -0.7645 H   0  0  0  0  0  0  0  0  0  0  0  0
    3.0753   10.1117   -2.2675 H   0  0  0  0  0  0  0  0  0  0  0  0
    4.0873   11.5957   -2.2675 H   0  0  0  0  0  0  0  0  0  0  0  0
    2.3830   11.9777    0.8895 H   0  0  0  0  0  0  0  0  0  0  0  0
    3.6139   12.9113   -0.1343 H   0  0  0  0  0  0  0  0  0  0  0  0
    0.7857   13.7408    0.5689 H   0  0  0  0  0  0  0  0  0  0  0  0
    2.3452   14.4991    1.0798 H   0  0  0  0  0  0  0  0  0  0  0  0
    3.8753   15.3222   -0.3899 H   0  0  0  0  0  0  0  0  0  0  0  0
    3.7529   14.3699   -1.9081 H   0  0  0  0  0  0  0  0  0  0  0  0
    3.3372   16.1174   -1.9081 H   0  0  0  0  0  0  0  0  0  0  0  0
  1  2  1  0
  2  3  1  0
  3  4  1  0
  4  5  1  0
  5  6  1  0
  6  7  1  0
  7  8  1  0
  7  9  1  0
  2 10  1  0
 10 11  1  0
 11 12  1  0
 12 13  1  0
 13 14  1  1
 13 15  1  0
 15 16  1  0
 16 17  1  0
 17 18  2  0
 18 19  1  0
 19 20  1  0
 20 21  1  0
 21 22  1  0
 22 23  1  0
 22 24  1  0
 24 25  1  0
 24 26  1  0
 19 27  1  0
 27 28  1  6
 27 29  1  0
 29 30  1  0
 30 31  1  0
 31 32  1  6
  7  5  1  0
 31 10  1  0
 31 13  1  0
 27 15  1  0
 24 18  1  0
  1 33  1  0
  1 34  1  0
  1 35  1  0
  2 36  1  1
  3 37  1  0
  3 38  1  0
  4 39  1  0
  4 40  1  0
  5 41  1  1
  8 42  1  0
  8 43  1  0
  8 44  1  0
  9 45  1  0
  9 46  1  0
  9 47  1  0
 10 48  1  1
 11 49  1  0
 11 50  1  0
 12 51  1  0
 12 52  1  0
 14 53  1  0
 14 54  1  0
 14 55  1  0
 15 56  1  6
 16 57  1  0
 16 58  1  0
 17 59  1  0
 19 60  1  1
 20 61  1  0
 20 62  1  0
 21 63  1  0
 21 64  1  0
 22 65  1  1
 23 66  1  0
 25 67  1  0
 25 68  1  0
 25 69  1  0
 26 70  1  0
 26 71  1  0
 26 72  1  0
 28 73  1  0
 28 74  1  0
 28 75  1  0
 29 76  1  0
 29 77  1  0
 30 78  1  0
 30 79  1  0
 32 80  1  0
 32 81  1  0
 32 82  1  0
M  END
>  <meeko>  (3) 
{"is_sidechain": [false], "intermolecular_energy": 2.731, "internal_energy": -0.839}

$$$$
EPH_relaxed_0001_pdb2pqr_Repair_19_r2_0001_out
     RDKit          3D

 82 86  0  0  0  0  0  0  0  0999 V2000
    3.6930   17.9260    0.9020 C   0  0  0  0  0  0  0  0  0  0  0  0
    2.7050   18.3770   -0.1780 C   0  0  2  0  0  0  0  0  0  0  0  0
    1.9660   19.6710    0.2160 C   0  0  0  0  0  0  0  0  0  0  0  0
    0.7270   19.4330    1.0840 C   0  0  0  0  0  0  0  0  0  0  0  0
   -0.4950   20.0680    0.4930 C   0  0  2  0  0  0  0  0  0  0  0  0
   -1.6010   20.1940    1.3960 O   0  0  0  0  0  0  0  0  0  0  0  0
   -1.7990   19.3250    0.2690 C   0  0  0  0  0  0  0  0  0  0  0  0
   -1.9460   17.8810    0.6330 C   0  0  0  0  0  0  0  0  0  0  0  0
   -2.7630   19.8610   -0.7430 C   0  0  0  0  0  0  0  0  0  0  0  0
    1.6990   17.2670   -0.4580 C   0  0  1  0  0  0  0  0  0  0  0  0
    0.5060   17.7470   -1.3260 C   0  0  0  0  0  0  0  0  0  0  0  0
    0.1060   16.5560   -2.2350 C   0  0  0  0  0  0  0  0  0  0  0  0
    0.8510   15.3410   -1.6350 C   0  0  1  0  0  0  0  0  0  0  0  0
   -0.0320   14.8820   -0.4330 C   0  0  0  0  0  0  0  0  0  0  0  0
    1.1490   14.1600   -2.6160 C   0  0  2  0  0  0  0  0  0  0  0  0
   -0.0950   13.4730   -3.2070 C   0  0  0  0  0  0  0  0  0  0  0  0
   -0.6190   12.3170   -2.4200 C   0  0  0  0  0  0  0  0  0  0  0  0
    0.0450   11.6700   -1.4450 C   0  0  0  0  0  0  0  0  0  0  0  0
    1.5000   12.0270   -1.1110 C   0  0  1  0  0  0  0  0  0  0  0  0
    2.3350   10.7260   -0.9830 C   0  0  0  0  0  0  0  0  0  0  0  0
    1.7330    9.7400    0.0130 C   0  0  0  0  0  0  0  0  0  0  0  0
    0.3080    9.3650   -0.3840 C   0  0  2  0  0  0  0  0  0  0  0  0
    0.3510    8.6220   -1.6070 O   0  0  0  0  0  0  0  0  0  0  0  0
   -0.6250   10.5960   -0.5530 C   0  0  0  0  0  0  0  0  0  0  0  0
   -0.9130   11.2250    0.8330 C   0  0  0  0  0  0  0  0  0  0  0  0
   -1.9910   10.0900   -1.0910 C   0  0  0  0  0  0  0  0  0  0  0  0
    2.1850   13.1010   -2.0610 C   0  0  1  0  0  0  0  0  0  0  0  0
    2.8080   12.3940   -3.3030 C   0  0  0  0  0  0  0  0  0  0  0  0
    3.3790   13.7800   -1.2910 C   0  0  0  0  0  0  0  0  0  0  0  0
    3.0410   15.0140   -0.4330 C   0  0  0  0  0  0  0  0  0  0  0  0
    2.2080   16.0230   -1.2290 C   0  0  2  0  0  0  0  0  0  0  0  0
    3.0790   16.5190   -2.4330 C   0  0  0  0  0  0  0  0  0  0  0  0
    3.2643   18.1217    1.8959 H   0  0  0  0  0  0  0  0  0  0  0  0
    3.8892   16.8492    0.7929 H   0  0  0  0  0  0  0  0  0  0  0  0
    4.6351   18.4832    0.7929 H   0  0  0  0  0  0  0  0  0  0  0  0
    3.2842   18.5917   -1.0882 H   0  0  0  0  0  0  0  0  0  0  0  0
    2.6633   20.3126    0.7747 H   0  0  0  0  0  0  0  0  0  0  0  0
    1.6195   20.1398   -0.7168 H   0  0  0  0  0  0  0  0  0  0  0  0
    0.5576   18.3498    1.1740 H   0  0  0  0  0  0  0  0  0  0  0  0
    0.9067   19.8875    2.0695 H   0  0  0  0  0  0  0  0  0  0  0  0
    0.1218   20.6923   -0.1701 H   0  0  0  0  0  0  0  0  0  0  0  0
   -1.9565   17.7782    1.7281 H   0  0  0  0  0  0  0  0  0  0  0  0
   -2.8883   17.4926    0.2192 H   0  0  0  0  0  0  0  0  0  0  0  0
   -1.1013   17.3107    0.2192 H   0  0  0  0  0  0  0  0  0  0  0  0
   -3.6119   20.3330   -0.2267 H   0  0  0  0  0  0  0  0  0  0  0  0
   -2.2563   20.6069   -1.3730 H   0  0  0  0  0  0  0  0  0  0  0  0
   -3.1292   19.0370   -1.3730 H   0  0  0  0  0  0  0  0  0  0  0  0
    1.4394   16.9893    0.5742 H   0  0  0  0  0  0  0  0  0  0  0  0
   -0.3393   18.0332   -0.6829 H   0  0  0  0  0  0  0  0  0  0  0  0
    0.7830   18.6262   -1.9262 H   0  0  0  0  0  0  0  0  0  0  0  0
   -0.9820   16.3960   -2.2093 H   0  0  0  0  0  0  0  0  0  0  0  0
    0.3695   16.7284   -3.2890 H   0  0  0  0  0  0  0  0  0  0  0  0
    0.4693   15.1426    0.5108 H   0  0  0  0  0  0  0  0  0  0  0  0
   -1.0081   15.3868   -0.4813 H   0  0  0  0  0  0  0  0  0  0  0  0
   -0.1796   13.7930   -0.4813 H   0  0  0  0  0  0  0  0  0  0  0  0
    1.6369   14.6716   -3.4587 H   0  0  0  0  0  0  0  0  0  0  0  0
   -0.8951   14.2242   -3.2815 H   0  0  0  0  0  0  0  0  0  0  0  0
    0.2163   13.0634   -4.1793 H   0  0  0  0  0  0  0  0  0  0  0  0
   -1.6336   11.9647   -2.6576 H   0  0  0  0  0  0  0  0  0  0  0  0
    1.4717   12.5491   -0.1432 H   0  0  0  0  0  0  0  0  0  0  0  0
    2.3879   10.2425   -1.9696 H   0  0  0  0  0  0  0  0  0  0  0  0
    3.3333   11.0049   -0.6147 H   0  0  0  0  0  0  0  0  0  0  0  0
    2.3511    8.8304    0.0374 H   0  0  0  0  0  0  0  0  0  0  0  0
    1.7076   10.2146    1.0050 H   0  0  0  0  0  0  0  0  0  0  0  0
   -0.1144    8.7617    0.4331 H   0  0  0  0  0  0  0  0  0  0  0  0
   -0.4410    8.0590   -1.6370 H   0  0  0  0  0  0  0  0  0  0  0  0
   -0.5949   10.5302    1.6242 H   0  0  0  0  0  0  0  0  0  0  0  0
   -0.3577   12.1696    0.9295 H   0  0  0  0  0  0  0  0  0  0  0  0
   -1.9909   11.4218    0.9295 H   0  0  0  0  0  0  0  0  0  0  0  0
   -2.6505    9.8457   -0.2452 H   0  0  0  0  0  0  0  0  0  0  0  0
   -2.4571   10.8751   -1.7045 H   0  0  0  0  0  0  0  0  0  0  0  0
   -1.8331    9.1907   -1.7045 H   0  0  0  0  0  0  0  0  0  0  0  0
    3.5008   11.6078   -2.9682 H   0  0  0  0  0  0  0  0  0  0  0  0
    2.0076   11.9439   -3.9085 H   0  0  0  0  0  0  0  0  0  0  0  0
    3.3553   13.1314   -3.9085 H   0  0  0  0  0  0  0  0  0  0  0  0
    3.8192   13.0227   -0.6256 H   0  0  0  0  0  0  0  0  0  0  0  0
    4.0532   14.1520   -2.0766 H   0  0  0  0  0  0  0  0  0  0  0  0
    2.4695   14.6927    0.4503 H   0  0  0  0  0  0  0  0  0  0  0  0
    3.9808   15.4976   -0.1282 H   0  0  0  0  0  0  0  0  0  0  0  0
    3.9755   17.0295   -2.0513 H   0  0  0  0  0  0  0  0  0  0  0  0
    3.3810   15.6574   -3.0466 H   0  0  0  0  0  0  0  0  0  0  0  0
    2.4921   17.2184   -3.0466 H   0  0  0  0  0  0  0  0  0  0  0  0
  1  2  1  0
  2  3  1  0
  3  4  1  0
  4  5  1  0
  5  6  1  0
  6  7  1  0
  7  8  1  0
  7  9  1  0
  2 10  1  0
 10 11  1  0
 11 12  1  0
 12 13  1  0
 13 14  1  1
 13 15  1  0
 15 16  1  0
 16 17  1  0
 17 18  2  0
 18 19  1  0
 19 20  1  0
 20 21  1  0
 21 22  1  0
 22 23  1  0
 22 24  1  0
 24 25  1  0
 24 26  1  0
 19 27  1  0
 27 28  1  6
 27 29  1  0
 29 30  1  0
 30 31  1  0
 31 32  1  6
  7  5  1  0
 31 10  1  0
 31 13  1  0
 27 15  1  0
 24 18  1  0
  1 33  1  0
  1 34  1  0
  1 35  1  0
  2 36  1  6
  3 37  1  0
  3 38  1  0
  4 39  1  0
  4 40  1  0
  5 41  1  6
  8 42  1  0
  8 43  1  0
  8 44  1  0
  9 45  1  0
  9 46  1  0
  9 47  1  0
 10 48  1  1
 11 49  1  0
 11 50  1  0
 12 51  1  0
 12 52  1  0
 14 53  1  0
 14 54  1  0
 14 55  1  0
 15 56  1  6
 16 57  1  0
 16 58  1  0
 17 59  1  0
 19 60  1  1
 20 61  1  0
 20 62  1  0
 21 63  1  0
 21 64  1  0
 22 65  1  1
 23 66  1  0
 25 67  1  0
 25 68  1  0
 25 69  1  0
 26 70  1  0
 26 71  1  0
 26 72  1  0
 28 73  1  0
 28 74  1  0
 28 75  1  0
 29 76  1  0
 29 77  1  0
 30 78  1  0
 30 79  1  0
 32 80  1  0
 32 81  1  0
 32 82  1  0
M  END
>  <meeko>  (4) 
{"is_sidechain": [false], "intermolecular_energy": 2.731, "internal_energy": -0.839}

$$$$
EPH_relaxed_0001_pdb2pqr_Repair_19_r2_0001_out
     RDKit          3D

 82 86  0  0  0  0  0  0  0  0999 V2000
    1.9810   16.9700   -0.4400 C   0  0  0  0  0  0  0  0  0  0  0  0
    1.5320   17.0650   -1.9010 C   0  0  2  0  0  0  0  0  0  0  0  0
    0.6160   18.2800   -2.1490 C   0  0  0  0  0  0  0  0  0  0  0  0
    0.8460   19.4340   -1.1700 C   0  0  0  0  0  0  0  0  0  0  0  0
   -0.4450   20.0690   -0.7480 C   0  0  2  0  0  0  0  0  0  0  0  0
   -0.6150   20.1940    0.6700 O   0  0  0  0  0  0  0  0  0  0  0  0
   -1.5390   19.3260   -0.0060 C   0  0  0  0  0  0  0  0  0  0  0  0
   -1.3940   17.8820    0.3570 C   0  0  0  0  0  0  0  0  0  0  0  0
   -2.9360   19.8620   -0.0660 C   0  0  0  0  0  0  0  0  0  0  0  0
    0.8180   15.7820   -2.3090 C   0  0  1  0  0  0  0  0  0  0  0  0
    0.3430   15.8060   -3.7860 C   0  0  0  0  0  0  0  0  0  0  0  0
    0.4810   14.3590   -4.3250 C   0  0  0  0  0  0  0  0  0  0  0  0
    0.7100   13.4940   -3.0640 C   0  0  1  0  0  0  0  0  0  0  0  0
   -0.7150   13.2700   -2.4670 C   0  0  0  0  0  0  0  0  0  0  0  0
    1.4640   12.1410   -3.2810 C   0  0  2  0  0  0  0  0  0  0  0  0
    0.7460   11.1330   -4.1950 C   0  0  0  0  0  0  0  0  0  0  0  0
   -0.1750   10.1850   -3.5000 C   0  0  0  0  0  0  0  0  0  0  0  0
   -0.2030    9.9530   -2.1750 C   0  0  0  0  0  0  0  0  0  0  0  0
    0.8210   10.6070   -1.2380 C   0  0  1  0  0  0  0  0  0  0  0  0
    1.3880    9.5400   -0.2650 C   0  0  0  0  0  0  0  0  0  0  0  0
    0.2910    8.8000    0.4950 C   0  0  0  0  0  0  0  0  0  0  0  0
   -0.6740    8.1150   -0.4690 C   0  0  2  0  0  0  0  0  0  0  0  0
    0.0230    7.0690   -1.1530 O   0  0  0  0  0  0  0  0  0  0  0  0
   -1.3010    9.0900   -1.5040 C   0  0  0  0  0  0  0  0  0  0  0  0
   -2.2960   10.0380   -0.7910 C   0  0  0  0  0  0  0  0  0  0  0  0
   -2.1420    8.2500   -2.5030 C   0  0  0  0  0  0  0  0  0  0  0  0
    1.9640   11.4560   -1.9450 C   0  0  1  0  0  0  0  0  0  0  0  0
    3.1510   10.5260   -2.3390 C   0  0  0  0  0  0  0  0  0  0  0  0
    2.5400   12.4990   -0.9160 C   0  0  0  0  0  0  0  0  0  0  0  0
    1.8240   13.8610   -0.8340 C   0  0  0  0  0  0  0  0  0  0  0  0
    1.6250   14.4620   -2.2290 C   0  0  2  0  0  0  0  0  0  0  0  0
    3.0420   14.7190   -2.8450 C   0  0  0  0  0  0  0  0  0  0  0  0
    1.1205   17.1521    0.2206 H   0  0  0  0  0  0  0  0  0  0  0  0
    2.3866   15.9662   -0.2456 H   0  0  0  0  0  0  0  0  0  0  0  0
    2.7584   17.7235   -0.2456 H   0  0  0  0  0  0  0  0  0  0  0  0
    2.4335   17.2007   -2.5166 H   0  0  0  0  0  0  0  0  0  0  0  0
    0.7971   18.6489   -3.1694 H   0  0  0  0  0  0  0  0  0  0  0  0
   -0.4191   17.9371   -2.0042 H   0  0  0  0  0  0  0  0  0  0  0  0
    1.3614   19.0476   -0.2783 H   0  0  0  0  0  0  0  0  0  0  0  0
    1.4541   20.1977   -1.6770 H   0  0  0  0  0  0  0  0  0  0  0  0
   -0.4609   20.6939   -1.6532 H   0  0  0  0  0  0  0  0  0  0  0  0
   -1.3836   17.7785    1.4521 H   0  0  0  0  0  0  0  0  0  0  0  0
   -2.2395   17.3131   -0.0571 H   0  0  0  0  0  0  0  0  0  0  0  0
   -0.4522   17.4926   -0.0571 H   0  0  0  0  0  0  0  0  0  0  0  0
   -3.3169   20.0081    0.9556 H   0  0  0  0  0  0  0  0  0  0  0  0
   -2.9369   20.8243   -0.5988 H   0  0  0  0  0  0  0  0  0  0  0  0
   -3.5804   19.1473   -0.5988 H   0  0  0  0  0  0  0  0  0  0  0  0
    0.0108   15.7757   -1.5618 H   0  0  0  0  0  0  0  0  0  0  0  0
   -0.7061   16.1321   -3.8410 H   0  0  0  0  0  0  0  0  0  0  0  0
    0.9442   16.5081   -4.3824 H   0  0  0  0  0  0  0  0  0  0  0  0
   -0.4366   14.0497   -4.8468 H   0  0  0  0  0  0  0  0  0  0  0  0
    1.3000   14.2610   -5.0528 H   0  0  0  0  0  0  0  0  0  0  0  0
   -0.6579   13.2790   -1.3685 H   0  0  0  0  0  0  0  0  0  0  0  0
   -1.3851   14.0738   -2.8059 H   0  0  0  0  0  0  0  0  0  0  0  0
   -1.1061   12.2993   -2.8059 H   0  0  0  0  0  0  0  0  0  0  0  0
    2.3616   12.4573   -3.8327 H   0  0  0  0  0  0  0  0  0  0  0  0
    0.1575   11.7007   -4.9308 H   0  0  0  0  0  0  0  0  0  0  0  0
    1.5361   10.5143   -4.6455 H   0  0  0  0  0  0  0  0  0  0  0  0
   -0.8908    9.6296   -4.1238 H   0  0  0  0  0  0  0  0  0  0  0  0
    0.2701   11.3729   -0.6724 H   0  0  0  0  0  0  0  0  0  0  0  0
    1.9707    8.8086   -0.8443 H   0  0  0  0  0  0  0  0  0  0  0  0
    2.0136   10.0611    0.4746 H   0  0  0  0  0  0  0  0  0  0  0  0
    0.7520    8.0403    1.1433 H   0  0  0  0  0  0  0  0  0  0  0  0
   -0.2721    9.5288    1.0965 H   0  0  0  0  0  0  0  0  0  0  0  0
   -1.5067    7.7134    0.1271 H   0  0  0  0  0  0  0  0  0  0  0  0
   -0.6250    6.3770   -1.3700 H   0  0  0  0  0  0  0  0  0  0  0  0
   -2.1859    9.9331    0.2984 H   0  0  0  0  0  0  0  0  0  0  0  0
   -2.0850   11.0775   -1.0824 H   0  0  0  0  0  0  0  0  0  0  0  0
   -3.3241    9.7770   -1.0824 H   0  0  0  0  0  0  0  0  0  0  0  0
   -2.8127    7.5801   -1.9450 H   0  0  0  0  0  0  0  0  0  0  0  0
   -2.7393    8.9229   -3.1359 H   0  0  0  0  0  0  0  0  0  0  0  0
   -1.4698    7.6519   -3.1359 H   0  0  0  0  0  0  0  0  0  0  0  0
    3.6366   10.1455   -1.4283 H   0  0  0  0  0  0  0  0  0  0  0  0
    2.7731    9.6811   -2.9334 H   0  0  0  0  0  0  0  0  0  0  0  0
    3.8810   11.0950   -2.9334 H   0  0  0  0  0  0  0  0  0  0  0  0
    2.4974   12.0398    0.0827 H   0  0  0  0  0  0  0  0  0  0  0  0
    3.5544   12.7278   -1.2748 H   0  0  0  0  0  0  0  0  0  0  0  0
    0.8418   13.7229   -0.3584 H   0  0  0  0  0  0  0  0  0  0  0  0
    2.4458   14.5485   -0.2419 H   0  0  0  0  0  0  0  0  0  0  0  0
    3.7750   14.8519   -2.0357 H   0  0  0  0  0  0  0  0  0  0  0  0
    3.3333   13.8590   -3.4660 H   0  0  0  0  0  0  0  0  0  0  0  0
    3.0128   15.6265   -3.4660 H   0  0  0  0  0  0  0  0  0  0  0  0
  1  2  1  0
  2  3  1  0
  3  4  1  0
  4  5  1  0
  5  6  1  0
  6  7  1  0
  7  8  1  0
  7  9  1  0
  2 10  1  0
 10 11  1  0
 11 12  1  0
 12 13  1  0
 13 14  1  1
 13 15  1  0
 15 16  1  0
 16 17  1  0
 17 18  2  0
 18 19  1  0
 19 20  1  0
 20 21  1  0
 21 22  1  0
 22 23  1  0
 22 24  1  0
 24 25  1  0
 24 26  1  0
 19 27  1  0
 27 28  1  6
 27 29  1  0
 29 30  1  0
 30 31  1  0
 31 32  1  6
  7  5  1  0
 31 10  1  0
 31 13  1  0
 27 15  1  0
 24 18  1  0
  1 33  1  0
  1 34  1  0
  1 35  1  0
  2 36  1  6
  3 37  1  0
  3 38  1  0
  4 39  1  0
  4 40  1  0
  5 41  1  6
  8 42  1  0
  8 43  1  0
  8 44  1  0
  9 45  1  0
  9 46  1  0
  9 47  1  0
 10 48  1  1
 11 49  1  0
 11 50  1  0
 12 51  1  0
 12 52  1  0
 14 53  1  0
 14 54  1  0
 14 55  1  0
 15 56  1  6
 16 57  1  0
 16 58  1  0
 17 59  1  0
 19 60  1  1
 20 61  1  0
 20 62  1  0
 21 63  1  0
 21 64  1  0
 22 65  1  1
 23 66  1  0
 25 67  1  0
 25 68  1  0
 25 69  1  0
 26 70  1  0
 26 71  1  0
 26 72  1  0
 28 73  1  0
 28 74  1  0
 28 75  1  0
 29 76  1  0
 29 77  1  0
 30 78  1  0
 30 79  1  0
 32 80  1  0
 32 81  1  0
 32 82  1  0
M  END
>  <meeko>  (5) 
{"is_sidechain": [false], "intermolecular_energy": 2.731, "internal_energy": -0.839}

$$$$
EPH_relaxed_0001_pdb2pqr_Repair_19_r2_0001_out
     RDKit          3D

 82 86  0  0  0  0  0  0  0  0999 V2000
    4.2510   17.3760    0.4520 C   0  0  0  0  0  0  0  0  0  0  0  0
    3.0520   17.8560   -0.3700 C   0  0  2  0  0  0  0  0  0  0  0  0
    2.4900   19.1950    0.1500 C   0  0  0  0  0  0  0  0  0  0  0  0
    2.6790   19.3980    1.6560 C   0  0  0  0  0  0  0  0  0  0  0  0
    4.1260   19.3560    2.0440 C   0  0  2  0  0  0  0  0  0  0  0  0
    4.4540   18.3670    3.0280 O   0  0  0  0  0  0  0  0  0  0  0  0
    4.6350   19.7380    3.4210 C   0  0  0  0  0  0  0  0  0  0  0  0
    3.7010   20.1890    4.5000 C   0  0  0  0  0  0  0  0  0  0  0  0
    6.0690   20.1390    3.5690 C   0  0  0  0  0  0  0  0  0  0  0  0
    1.9580   16.7950   -0.3640 C   0  0  1  0  0  0  0  0  0  0  0  0
    0.5400   17.3970   -0.5520 C   0  0  0  0  0  0  0  0  0  0  0  0
   -0.2760   16.3690   -1.3770 C   0  0  0  0  0  0  0  0  0  0  0  0
    0.5800   15.0810   -1.3530 C   0  0  1  0  0  0  0  0  0  0  0  0
    0.2630   14.4160    0.0230 C   0  0  0  0  0  0  0  0  0  0  0  0
    0.3640   14.0850   -2.5390 C   0  0  2  0  0  0  0  0  0  0  0  0
   -1.0510   13.4890   -2.6410 C   0  0  0  0  0  0  0  0  0  0  0  0
   -1.2600   12.2110   -1.8980 C   0  0  0  0  0  0  0  0  0  0  0  0
   -0.2850   11.4190   -1.4150 C   0  0  0  0  0  0  0  0  0  0  0  0
    1.1920   11.7350   -1.6840 C   0  0  1  0  0  0  0  0  0  0  0  0
    1.9260   10.4430   -2.1310 C   0  0  0  0  0  0  0  0  0  0  0  0
    1.7450    9.2960   -1.1410 C   0  0  0  0  0  0  0  0  0  0  0  0
    0.2660    8.9730   -0.9450 C   0  0  2  0  0  0  0  0  0  0  0  0
   -0.2570    8.4460   -2.1680 O   0  0  0  0  0  0  0  0  0  0  0  0
   -0.5760   10.2020   -0.5030 C   0  0  0  0  0  0  0  0  0  0  0  0
   -0.2120   10.5870    0.9520 C   0  0  0  0  0  0  0  0  0  0  0  0
   -2.0690    9.7740   -0.4780 C   0  0  0  0  0  0  0  0  0  0  0  0
    1.4730   12.9630   -2.6530 C   0  0  1  0  0  0  0  0  0  0  0  0
    1.4690   12.4820   -4.1360 C   0  0  0  0  0  0  0  0  0  0  0  0
    2.9190   13.5200   -2.3710 C   0  0  0  0  0  0  0  0  0  0  0  0
    3.0490   14.5890   -1.2690 C   0  0  0  0  0  0  0  0  0  0  0  0
    2.0190   15.7050   -1.4630 C   0  0  2  0  0  0  0  0  0  0  0  0
    2.3250   16.4070   -2.8300 C   0  0  0  0  0  0  0  0  0  0  0  0
    4.0212   17.4680    1.5238 H   0  0  0  0  0  0  0  0  0  0  0  0
    4.4629   16.3237    0.2114 H   0  0  0  0  0  0  0  0  0  0  0  0
    5.1305   17.9914    0.2114 H   0  0  0  0  0  0  0  0  0  0  0  0
    3.4025   18.0221   -1.3993 H   0  0  0  0  0  0  0  0  0  0  0  0
    3.0003   20.0142   -0.3777 H   0  0  0  0  0  0  0  0  0  0  0  0
    1.4065   19.1845   -0.0397 H   0  0  0  0  0  0  0  0  0  0  0  0
    2.2624   20.3760    1.9389 H   0  0  0  0  0  0  0  0  0  0  0  0
    2.1599   18.5818    2.1797 H   0  0  0  0  0  0  0  0  0  0  0  0
    4.4296   19.6665    1.0333 H   0  0  0  0  0  0  0  0  0  0  0  0
    4.1455   19.9744    5.4830 H   0  0  0  0  0  0  0  0  0  0  0  0
    3.5261   21.2708    4.4050 H   0  0  0  0  0  0  0  0  0  0  0  0
    2.7450   19.6533    4.4050 H   0  0  0  0  0  0  0  0  0  0  0  0
    6.3216   20.2096    4.6373 H   0  0  0  0  0  0  0  0  0  0  0  0
    6.7117   19.3861    3.0893 H   0  0  0  0  0  0  0  0  0  0  0  0
    6.2279   21.1160    3.0893 H   0  0  0  0  0  0  0  0  0  0  0  0
    2.1430   16.3452    0.6226 H   0  0  0  0  0  0  0  0  0  0  0  0
    0.0649   17.5602    0.4266 H   0  0  0  0  0  0  0  0  0  0  0  0
    0.5880   18.3679   -1.0668 H   0  0  0  0  0  0  0  0  0  0  0  0
   -1.2578   16.1913   -0.9140 H   0  0  0  0  0  0  0  0  0  0  0  0
   -0.4739   16.7191   -2.4009 H   0  0  0  0  0  0  0  0  0  0  0  0
    0.5820   15.0851    0.8358 H   0  0  0  0  0  0  0  0  0  0  0  0
   -0.8189   14.2336    0.1015 H   0  0  0  0  0  0  0  0  0  0  0  0
    0.8026   13.4606    0.1015 H   0  0  0  0  0  0  0  0  0  0  0  0
    0.4778   14.7366   -3.4179 H   0  0  0  0  0  0  0  0  0  0  0  0
   -1.7614   14.2309   -2.2476 H   0  0  0  0  0  0  0  0  0  0  0  0
   -1.2052   13.2516   -3.7040 H   0  0  0  0  0  0  0  0  0  0  0  0
   -2.2987   11.8896   -1.7313 H   0  0  0  0  0  0  0  0  0  0  0  0
    1.6062   12.0870   -0.7277 H   0  0  0  0  0  0  0  0  0  0  0  0
    1.5285   10.1316   -3.1082 H   0  0  0  0  0  0  0  0  0  0  0  0
    3.0007   10.6710   -2.1856 H   0  0  0  0  0  0  0  0  0  0  0  0
    2.2605    8.4037   -1.5257 H   0  0  0  0  0  0  0  0  0  0  0  0
    2.1699    9.5979   -0.1723 H   0  0  0  0  0  0  0  0  0  0  0  0
    0.1945    8.2353   -0.1321 H   0  0  0  0  0  0  0  0  0  0  0  0
    0.0200    7.5160   -2.2300 H   0  0  0  0  0  0  0  0  0  0  0  0
   -0.7953    9.9701    1.6514 H   0  0  0  0  0  0  0  0  0  0  0  0
    0.8616   10.4152    1.1191 H   0  0  0  0  0  0  0  0  0  0  0  0
   -0.4437   11.6493    1.1191 H   0  0  0  0  0  0  0  0  0  0  0  0
   -2.4054    9.6776    0.5649 H   0  0  0  0  0  0  0  0  0  0  0  0
   -2.6770   10.5340   -0.9906 H   0  0  0  0  0  0  0  0  0  0  0  0
   -2.1819    8.8073   -0.9906 H   0  0  0  0  0  0  0  0  0  0  0  0
    1.4599   11.3824   -4.1648 H   0  0  0  0  0  0  0  0  0  0  0  0
    0.5740   12.8696   -4.6448 H   0  0  0  0  0  0  0  0  0  0  0  0
    2.3703   12.8546   -4.6448 H   0  0  0  0  0  0  0  0  0  0  0  0
    3.5538   12.6684   -2.0850 H   0  0  0  0  0  0  0  0  0  0  0  0
    3.2186   14.0267   -3.3003 H   0  0  0  0  0  0  0  0  0  0  0  0
    2.8873   14.1167   -0.2888 H   0  0  0  0  0  0  0  0  0  0  0  0
    4.0561   15.0281   -1.3238 H   0  0  0  0  0  0  0  0  0  0  0  0
    2.7581   17.4007   -2.6430 H   0  0  0  0  0  0  0  0  0  0  0  0
    3.0392   15.7977   -3.4033 H   0  0  0  0  0  0  0  0  0  0  0  0
    1.3925   16.5155   -3.4033 H   0  0  0  0  0  0  0  0  0  0  0  0
  1  2  1  0
  2  3  1  0
  3  4  1  0
  4  5  1  0
  5  6  1  0
  6  7  1  0
  7  8  1  0
  7  9  1  0
  2 10  1  0
 10 11  1  0
 11 12  1  0
 12 13  1  0
 13 14  1  1
 13 15  1  0
 15 16  1  0
 16 17  1  0
 17 18  2  0
 18 19  1  0
 19 20  1  0
 20 21  1  0
 21 22  1  0
 22 23  1  0
 22 24  1  0
 24 25  1  0
 24 26  1  0
 19 27  1  0
 27 28  1  6
 27 29  1  0
 29 30  1  0
 30 31  1  0
 31 32  1  6
  7  5  1  0
 31 10  1  0
 31 13  1  0
 27 15  1  0
 24 18  1  0
  1 33  1  0
  1 34  1  0
  1 35  1  0
  2 36  1  6
  3 37  1  0
  3 38  1  0
  4 39  1  0
  4 40  1  0
  5 41  1  6
  8 42  1  0
  8 43  1  0
  8 44  1  0
  9 45  1  0
  9 46  1  0
  9 47  1  0
 10 48  1  1
 11 49  1  0
 11 50  1  0
 12 51  1  0
 12 52  1  0
 14 53  1  0
 14 54  1  0
 14 55  1  0
 15 56  1  6
 16 57  1  0
 16 58  1  0
 17 59  1  0
 19 60  1  1
 20 61  1  0
 20 62  1  0
 21 63  1  0
 21 64  1  0
 22 65  1  1
 23 66  1  0
 25 67  1  0
 25 68  1  0
 25 69  1  0
 26 70  1  0
 26 71  1  0
 26 72  1  0
 28 73  1  0
 28 74  1  0
 28 75  1  0
 29 76  1  0
 29 77  1  0
 30 78  1  0
 30 79  1  0
 32 80  1  0
 32 81  1  0
 32 82  1  0
M  END
>  <meeko>  (6) 
{"is_sidechain": [false], "intermolecular_energy": 2.731, "internal_energy": -0.839}

$$$$
EPH_relaxed_0001_pdb2pqr_Repair_19_r2_0001_out
     RDKit          3D

 82 86  0  0  0  0  0  0  0  0999 V2000
   -5.1650    5.7930   -1.7830 C   0  0  0  0  0  0  0  0  0  0  0  0
   -5.4630    7.2940   -1.8190 C   0  0  2  0  0  0  0  0  0  0  0  0
   -5.2370    7.9640   -0.4480 C   0  0  0  0  0  0  0  0  0  0  0  0
   -4.1860    9.0770   -0.4730 C   0  0  0  0  0  0  0  0  0  0  0  0
   -2.8700    8.5840   -0.9940 C   0  0  2  0  0  0  0  0  0  0  0  0
   -1.7660    8.7630   -0.0970 O   0  0  0  0  0  0  0  0  0  0  0  0
   -1.7070    9.5000   -1.3300 C   0  0  0  0  0  0  0  0  0  0  0  0
   -1.8070   10.9830   -1.1570 C   0  0  0  0  0  0  0  0  0  0  0  0
   -0.6580    9.0070   -2.2770 C   0  0  0  0  0  0  0  0  0  0  0  0
   -6.8950    7.5290   -2.2840 C   0  0  1  0  0  0  0  0  0  0  0  0
   -7.2060    6.8350   -3.6370 C   0  0  0  0  0  0  0  0  0  0  0  0
   -8.6830    6.3700   -3.5730 C   0  0  0  0  0  0  0  0  0  0  0  0
   -9.2670    7.0950   -2.3370 C   0  0  1  0  0  0  0  0  0  0  0  0
   -9.6090    8.5320   -2.8400 C   0  0  0  0  0  0  0  0  0  0  0  0
  -10.4970    6.4140   -1.6540 C   0  0  2  0  0  0  0  0  0  0  0  0
  -11.7520    6.2960   -2.5380 C   0  0  0  0  0  0  0  0  0  0  0  0
  -12.6990    7.4460   -2.4580 C   0  0  0  0  0  0  0  0  0  0  0  0
  -12.6980    8.3950   -1.5030 C   0  0  0  0  0  0  0  0  0  0  0  0
  -11.7350    8.3130   -0.3120 C   0  0  1  0  0  0  0  0  0  0  0  0
  -12.5110    8.5960    1.0020 C   0  0  0  0  0  0  0  0  0  0  0  0
  -13.2730    9.9170    0.9580 C   0  0  0  0  0  0  0  0  0  0  0  0
  -14.2610    9.9380   -0.2050 C   0  0  2  0  0  0  0  0  0  0  0  0
  -15.2850    8.9690    0.0430 O   0  0  0  0  0  0  0  0  0  0  0  0
  -13.5960    9.6550   -1.5810 C   0  0  0  0  0  0  0  0  0  0  0  0
  -12.7100   10.8580   -1.9880 C   0  0  0  0  0  0  0  0  0  0  0  0
  -14.7210    9.5640   -2.6460 C   0  0  0  0  0  0  0  0  0  0  0  0
  -10.8500    6.9960   -0.2260 C   0  0  1  0  0  0  0  0  0  0  0  0
  -11.6310    5.8780    0.5300 C   0  0  0  0  0  0  0  0  0  0  0  0
   -9.5640    7.2960    0.6320 C   0  0  0  0  0  0  0  0  0  0  0  0
   -8.3420    7.8550   -0.1210 C   0  0  0  0  0  0  0  0  0  0  0  0
   -8.0340    7.0170   -1.3650 C   0  0  2  0  0  0  0  0  0  0  0  0
   -7.6640    5.5710   -0.8890 C   0  0  0  0  0  0  0  0  0  0  0  0
   -5.0984    5.4574   -0.7376 H   0  0  0  0  0  0  0  0  0  0  0  0
   -5.9722    5.2466   -2.2928 H   0  0  0  0  0  0  0  0  0  0  0  0
   -4.2103    5.5964   -2.2928 H   0  0  0  0  0  0  0  0  0  0  0  0
   -4.7614    7.7536   -2.5307 H   0  0  0  0  0  0  0  0  0  0  0  0
   -6.1912    8.3948   -0.1105 H   0  0  0  0  0  0  0  0  0  0  0  0
   -4.8642    7.1849    0.2331 H   0  0  0  0  0  0  0  0  0  0  0  0
   -4.5438    9.8909   -1.1208 H   0  0  0  0  0  0  0  0  0  0  0  0
   -4.0363    9.4310    0.5577 H   0  0  0  0  0  0  0  0  0  0  0  0
   -3.3676    7.7846   -1.5626 H   0  0  0  0  0  0  0  0  0  0  0  0
   -1.8234   11.2268   -0.0845 H   0  0  0  0  0  0  0  0  0  0  0  0
   -0.9394   11.4666   -1.6297 H   0  0  0  0  0  0  0  0  0  0  0  0
   -2.7316   11.3458   -1.6297 H   0  0  0  0  0  0  0  0  0  0  0  0
    0.1928    8.6071   -1.7059 H   0  0  0  0  0  0  0  0  0  0  0  0
   -1.0800    8.2129   -2.9106 H   0  0  0  0  0  0  0  0  0  0  0  0
   -0.3159    9.8386   -2.9106 H   0  0  0  0  0  0  0  0  0  0  0  0
   -6.9006    8.6286   -2.3148 H   0  0  0  0  0  0  0  0  0  0  0  0
   -7.0678    7.5439   -4.4667 H   0  0  0  0  0  0  0  0  0  0  0  0
   -6.5312    5.9832   -3.8078 H   0  0  0  0  0  0  0  0  0  0  0  0
   -9.2223    6.6630   -4.4859 H   0  0  0  0  0  0  0  0  0  0  0  0
   -8.7732    5.2764   -3.4965 H   0  0  0  0  0  0  0  0  0  0  0  0
   -9.7668    9.1949   -1.9765 H   0  0  0  0  0  0  0  0  0  0  0  0
   -8.7769    8.9150   -3.4491 H   0  0  0  0  0  0  0  0  0  0  0  0
  -10.5244    8.4991   -3.4491 H   0  0  0  0  0  0  0  0  0  0  0  0
  -10.1410    5.3846   -1.5004 H   0  0  0  0  0  0  0  0  0  0  0  0
  -11.4234    6.1985   -3.5832 H   0  0  0  0  0  0  0  0  0  0  0  0
  -12.3046    5.4206   -2.1661 H   0  0  0  0  0  0  0  0  0  0  0  0
  -13.4626    7.5253   -3.2458 H   0  0  0  0  0  0  0  0  0  0  0  0
  -10.9806    9.0966   -0.4762 H   0  0  0  0  0  0  0  0  0  0  0  0
  -13.2292    7.7800    1.1702 H   0  0  0  0  0  0  0  0  0  0  0  0
  -11.7752    8.6618    1.8170 H   0  0  0  0  0  0  0  0  0  0  0  0
  -13.8242   10.0462    1.9011 H   0  0  0  0  0  0  0  0  0  0  0  0
  -12.5504   10.7348    0.8198 H   0  0  0  0  0  0  0  0  0  0  0  0
  -14.6797   10.9535   -0.2632 H   0  0  0  0  0  0  0  0  0  0  0  0
  -15.5160    8.5610   -0.8090 H   0  0  0  0  0  0  0  0  0  0  0  0
  -12.3386   11.3623   -1.0837 H   0  0  0  0  0  0  0  0  0  0  0  0
  -11.8579   10.5005   -2.5847 H   0  0  0  0  0  0  0  0  0  0  0  0
  -13.3042   11.5657   -2.5847 H   0  0  0  0  0  0  0  0  0  0  0  0
  -15.6962    9.4851   -2.1433 H   0  0  0  0  0  0  0  0  0  0  0  0
  -14.7045   10.4664   -3.2748 H   0  0  0  0  0  0  0  0  0  0  0  0
  -14.5597    8.6760   -3.2748 H   0  0  0  0  0  0  0  0  0  0  0  0
  -11.5267    6.0273    1.6148 H   0  0  0  0  0  0  0  0  0  0  0  0
  -12.6949    5.9233    0.2542 H   0  0  0  0  0  0  0  0  0  0  0  0
  -11.2223    4.8947    0.2542 H   0  0  0  0  0  0  0  0  0  0  0  0
   -9.8425    8.0280    1.4044 H   0  0  0  0  0  0  0  0  0  0  0  0
   -9.2413    6.3181    1.0189 H   0  0  0  0  0  0  0  0  0  0  0  0
   -8.5510    8.8906   -0.4275 H   0  0  0  0  0  0  0  0  0  0  0  0
   -7.4708    7.8202    0.5497 H   0  0  0  0  0  0  0  0  0  0  0  0
   -7.6555    5.5378    0.2105 H   0  0  0  0  0  0  0  0  0  0  0  0
   -8.4085    4.8573   -1.2716 H   0  0  0  0  0  0  0  0  0  0  0  0
   -6.6682    5.3026   -1.2716 H   0  0  0  0  0  0  0  0  0  0  0  0
  1  2  1  0
  2  3  1  0
  3  4  1  0
  4  5  1  0
  5  6  1  0
  6  7  1  0
  7  8  1  0
  7  9  1  0
  2 10  1  0
 10 11  1  0
 11 12  1  0
 12 13  1  0
 13 14  1  6
 13 15  1  0
 15 16  1  0
 16 17  1  0
 17 18  2  0
 18 19  1  0
 19 20  1  0
 20 21  1  0
 21 22  1  0
 22 23  1  0
 22 24  1  0
 24 25  1  0
 24 26  1  0
 19 27  1  0
 27 28  1  1
 27 29  1  0
 29 30  1  0
 30 31  1  0
 31 32  1  1
  7  5  1  0
 31 10  1  0
 31 13  1  0
 27 15  1  0
 24 18  1  0
  1 33  1  0
  1 34  1  0
  1 35  1  0
  2 36  1  6
  3 37  1  0
  3 38  1  0
  4 39  1  0
  4 40  1  0
  5 41  1  6
  8 42  1  0
  8 43  1  0
  8 44  1  0
  9 45  1  0
  9 46  1  0
  9 47  1  0
 10 48  1  6
 11 49  1  0
 11 50  1  0
 12 51  1  0
 12 52  1  0
 14 53  1  0
 14 54  1  0
 14 55  1  0
 15 56  1  1
 16 57  1  0
 16 58  1  0
 17 59  1  0
 19 60  1  6
 20 61  1  0
 20 62  1  0
 21 63  1  0
 21 64  1  0
 22 65  1  6
 23 66  1  0
 25 67  1  0
 25 68  1  0
 25 69  1  0
 26 70  1  0
 26 71  1  0
 26 72  1  0
 28 73  1  0
 28 74  1  0
 28 75  1  0
 29 76  1  0
 29 77  1  0
 30 78  1  0
 30 79  1  0
 32 80  1  0
 32 81  1  0
 32 82  1  0
M  END
>  <meeko>  (7) 
{"is_sidechain": [false], "intermolecular_energy": 2.731, "internal_energy": -0.839}

$$$$
EPH_relaxed_0001_pdb2pqr_Repair_19_r2_0001_out
     RDKit          3D

 82 86  0  0  0  0  0  0  0  0999 V2000
    0.3820    8.8080   -2.3620 C   0  0  0  0  0  0  0  0  0  0  0  0
    1.1280    9.9460   -3.0630 C   0  0  2  0  0  0  0  0  0  0  0  0
    2.6300    9.9570   -2.7160 C   0  0  0  0  0  0  0  0  0  0  0  0
    3.5120   10.5500   -3.8180 C   0  0  0  0  0  0  0  0  0  0  0  0
    4.9060   10.8120   -3.3320 C   0  0  2  0  0  0  0  0  0  0  0  0
    5.4920   12.0250   -3.8220 O   0  0  0  0  0  0  0  0  0  0  0  0
    6.1230   10.8030   -4.2380 C   0  0  0  0  0  0  0  0  0  0  0  0
    6.0030   10.5240   -5.7030 C   0  0  0  0  0  0  0  0  0  0  0  0
    7.4700   10.5800   -3.6230 C   0  0  0  0  0  0  0  0  0  0  0  0
    0.4980   11.2840   -2.6940 C   0  0  1  0  0  0  0  0  0  0  0  0
   -0.8770   11.1250   -1.9930 C   0  0  0  0  0  0  0  0  0  0  0  0
   -0.9810   12.2660   -0.9490 C   0  0  0  0  0  0  0  0  0  0  0  0
    0.1730   13.2310   -1.3080 C   0  0  1  0  0  0  0  0  0  0  0  0
   -0.3760   14.0910   -2.4900 C   0  0  0  0  0  0  0  0  0  0  0  0
    0.7140   14.1250   -0.1460 C   0  0  2  0  0  0  0  0  0  0  0  0
   -0.3090   15.1090    0.4500 C   0  0  0  0  0  0  0  0  0  0  0  0
   -0.3470   16.4560   -0.1920 C   0  0  0  0  0  0  0  0  0  0  0  0
    0.5950   16.9580   -1.0120 C   0  0  0  0  0  0  0  0  0  0  0  0
    1.8900   16.1850   -1.2910 C   0  0  1  0  0  0  0  0  0  0  0  0
    3.1030   17.1450   -1.1670 C   0  0  0  0  0  0  0  0  0  0  0  0
    2.9610   18.3830   -2.0470 C   0  0  0  0  0  0  0  0  0  0  0  0
    1.6910   19.1570   -1.7000 C   0  0  2  0  0  0  0  0  0  0  0  0
    1.8260   19.6960   -0.3820 O   0  0  0  0  0  0  0  0  0  0  0  0
    0.4040   18.2890   -1.7810 C   0  0  0  0  0  0  0  0  0  0  0  0
    0.0940   17.9550   -3.2610 C   0  0  0  0  0  0  0  0  0  0  0  0
   -0.7840   19.1490   -1.2720 C   0  0  0  0  0  0  0  0  0  0  0  0
    2.0880   14.8420   -0.4650 C   0  0  1  0  0  0  0  0  0  0  0  0
    2.7550   15.1570    0.9090 C   0  0  0  0  0  0  0  0  0  0  0  0
    3.0870   13.9040   -1.2400 C   0  0  0  0  0  0  0  0  0  0  0  0
    2.4770   12.9580   -2.2920 C   0  0  0  0  0  0  0  0  0  0  0  0
    1.2820   12.1930   -1.7140 C   0  0  2  0  0  0  0  0  0  0  0  0
    1.8080   11.3020   -0.5380 C   0  0  0  0  0  0  0  0  0  0  0  0
    0.4637    8.9326   -1.2721 H   0  0  0  0  0  0  0  0  0  0  0  0
   -0.6780    8.8292   -2.6550 H   0  0  0  0  0  0  0  0  0  0  0  0
    0.8242    7.8444   -2.6550 H   0  0  0  0  0  0  0  0  0  0  0  0
    1.0417    9.7802   -4.1470 H   0  0  0  0  0  0  0  0  0  0  0  0
    2.7707   10.5513   -1.8011 H   0  0  0  0  0  0  0  0  0  0  0  0
    2.9378    8.9088   -2.5871 H   0  0  0  0  0  0  0  0  0  0  0  0
    3.5549    9.8428   -4.6594 H   0  0  0  0  0  0  0  0  0  0  0  0
    3.0721   11.5085   -4.1306 H   0  0  0  0  0  0  0  0  0  0  0  0
    4.6934   10.3089   -2.3772 H   0  0  0  0  0  0  0  0  0  0  0  0
    5.5724    9.5228   -5.8515 H   0  0  0  0  0  0  0  0  0  0  0  0
    5.3491   11.2769   -6.1673 H   0  0  0  0  0  0  0  0  0  0  0  0
    6.9993   10.5672   -6.1673 H   0  0  0  0  0  0  0  0  0  0  0  0
    7.3796   10.5950   -2.5268 H   0  0  0  0  0  0  0  0  0  0  0  0
    7.8632    9.6045   -3.9452 H   0  0  0  0  0  0  0  0  0  0  0  0
    8.1566   11.3767   -3.9452 H   0  0  0  0  0  0  0  0  0  0  0  0
    0.4589   11.7496   -3.6899 H   0  0  0  0  0  0  0  0  0  0  0  0
   -1.6897   11.2100   -2.7294 H   0  0  0  0  0  0  0  0  0  0  0  0
   -0.9633   10.1398   -1.5114 H   0  0  0  0  0  0  0  0  0  0  0  0
   -1.9523   12.7764   -1.0272 H   0  0  0  0  0  0  0  0  0  0  0  0
   -0.9073   11.8941    0.0836 H   0  0  0  0  0  0  0  0  0  0  0  0
   -0.9273   14.9547   -2.0899 H   0  0  0  0  0  0  0  0  0  0  0  0
    0.4633   14.4454   -3.1064 H   0  0  0  0  0  0  0  0  0  0  0  0
   -1.0507   13.4788   -3.1064 H   0  0  0  0  0  0  0  0  0  0  0  0
    0.9158   13.3876    0.6449 H   0  0  0  0  0  0  0  0  0  0  0  0
   -1.3083   14.6591    0.3554 H   0  0  0  0  0  0  0  0  0  0  0  0
    0.0017   15.2771    1.4917 H   0  0  0  0  0  0  0  0  0  0  0  0
   -1.2183   17.0920    0.0231 H   0  0  0  0  0  0  0  0  0  0  0  0
    1.8081   15.8181   -2.3248 H   0  0  0  0  0  0  0  0  0  0  0  0
    3.1931   17.4659   -0.1187 H   0  0  0  0  0  0  0  0  0  0  0  0
    3.9972   16.5984   -1.5011 H   0  0  0  0  0  0  0  0  0  0  0  0
    3.8333   19.0354   -1.8939 H   0  0  0  0  0  0  0  0  0  0  0  0
    2.9003   18.0619   -3.0973 H   0  0  0  0  0  0  0  0  0  0  0  0
    1.5771   19.9570   -2.4463 H   0  0  0  0  0  0  0  0  0  0  0  0
    2.7720   19.6950   -0.1590 H   0  0  0  0  0  0  0  0  0  0  0  0
   -0.6537   17.1494   -3.3062 H   0  0  0  0  0  0  0  0  0  0  0  0
   -0.3006   18.8501   -3.7640 H   0  0  0  0  0  0  0  0  0  0  0  0
    1.0160   17.6282   -3.7640 H   0  0  0  0  0  0  0  0  0  0  0  0
   -0.7892   19.1527   -0.1720 H   0  0  0  0  0  0  0  0  0  0  0  0
   -0.6757   20.1793   -1.6417 H   0  0  0  0  0  0  0  0  0  0  0  0
   -1.7290   18.7243   -1.6417 H   0  0  0  0  0  0  0  0  0  0  0  0
    2.0856   14.8409    1.7226 H   0  0  0  0  0  0  0  0  0  0  0  0
    3.7085   14.6140    0.9868 H   0  0  0  0  0  0  0  0  0  0  0  0
    2.9414   16.2383    0.9868 H   0  0  0  0  0  0  0  0  0  0  0  0
    3.8166   14.5471   -1.7539 H   0  0  0  0  0  0  0  0  0  0  0  0
    3.5156   13.2429   -0.4723 H   0  0  0  0  0  0  0  0  0  0  0  0
    2.1415   13.5496   -3.1565 H   0  0  0  0  0  0  0  0  0  0  0  0
    3.2443   12.2313   -2.5973 H   0  0  0  0  0  0  0  0  0  0  0  0
    1.5353   11.7639    0.4223 H   0  0  0  0  0  0  0  0  0  0  0  0
    1.3556   10.3016   -0.6052 H   0  0  0  0  0  0  0  0  0  0  0  0
    2.9025   11.2148   -0.6052 H   0  0  0  0  0  0  0  0  0  0  0  0
  1  2  1  0
  2  3  1  0
  3  4  1  0
  4  5  1  0
  5  6  1  0
  6  7  1  0
  7  8  1  0
  7  9  1  0
  2 10  1  0
 10 11  1  0
 11 12  1  0
 12 13  1  0
 13 14  1  6
 13 15  1  0
 15 16  1  0
 16 17  1  0
 17 18  2  0
 18 19  1  0
 19 20  1  0
 20 21  1  0
 21 22  1  0
 22 23  1  0
 22 24  1  0
 24 25  1  0
 24 26  1  0
 19 27  1  0
 27 28  1  1
 27 29  1  0
 29 30  1  0
 30 31  1  0
 31 32  1  1
  7  5  1  0
 31 10  1  0
 31 13  1  0
 27 15  1  0
 24 18  1  0
  1 33  1  0
  1 34  1  0
  1 35  1  0
  2 36  1  6
  3 37  1  0
  3 38  1  0
  4 39  1  0
  4 40  1  0
  5 41  1  1
  8 42  1  0
  8 43  1  0
  8 44  1  0
  9 45  1  0
  9 46  1  0
  9 47  1  0
 10 48  1  6
 11 49  1  0
 11 50  1  0
 12 51  1  0
 12 52  1  0
 14 53  1  0
 14 54  1  0
 14 55  1  0
 15 56  1  1
 16 57  1  0
 16 58  1  0
 17 59  1  0
 19 60  1  6
 20 61  1  0
 20 62  1  0
 21 63  1  0
 21 64  1  0
 22 65  1  6
 23 66  1  0
 25 67  1  0
 25 68  1  0
 25 69  1  0
 26 70  1  0
 26 71  1  0
 26 72  1  0
 28 73  1  0
 28 74  1  0
 28 75  1  0
 29 76  1  0
 29 77  1  0
 30 78  1  0
 30 79  1  0
 32 80  1  0
 32 81  1  0
 32 82  1  0
M  END
>  <meeko>  (8) 
{"is_sidechain": [false], "intermolecular_energy": 2.731, "internal_energy": -0.839}

$$$$
EPH_relaxed_0001_pdb2pqr_Repair_19_r2_0001_out
     RDKit          3D

 82 86  0  0  0  0  0  0  0  0999 V2000
    2.1500   19.0030   -2.3200 C   0  0  0  0  0  0  0  0  0  0  0  0
    1.5940   18.9610   -0.8940 C   0  0  2  0  0  0  0  0  0  0  0  0
    2.5950   19.5200    0.1370 C   0  0  0  0  0  0  0  0  0  0  0  0
    3.0900   18.4760    1.1410 C   0  0  0  0  0  0  0  0  0  0  0  0
    4.4920   18.7610    1.5910 C   0  0  2  0  0  0  0  0  0  0  0  0
    4.8760   18.1020    2.8050 O   0  0  0  0  0  0  0  0  0  0  0  0
    4.8240   19.5370    2.8510 C   0  0  0  0  0  0  0  0  0  0  0  0
    3.7490   20.0780    3.7410 C   0  0  0  0  0  0  0  0  0  0  0  0
    6.1690   20.1870    2.9580 C   0  0  0  0  0  0  0  0  0  0  0  0
    1.2110   17.5320   -0.5280 C   0  0  1  0  0  0  0  0  0  0  0  0
   -0.1140   17.4560    0.2770 C   0  0  0  0  0  0  0  0  0  0  0  0
   -0.8280   16.1510   -0.1600 C   0  0  0  0  0  0  0  0  0  0  0  0
    0.2480   15.3600   -0.9410 C   0  0  1  0  0  0  0  0  0  0  0  0
    1.1140   14.6680    0.1570 C   0  0  0  0  0  0  0  0  0  0  0  0
   -0.2800   14.3320   -1.9940 C   0  0  2  0  0  0  0  0  0  0  0  0
   -1.1210   13.1800   -1.4170 C   0  0  0  0  0  0  0  0  0  0  0  0
   -0.3510   11.9610   -1.0270 C   0  0  0  0  0  0  0  0  0  0  0  0
    0.9140   11.6840   -1.3940 C   0  0  0  0  0  0  0  0  0  0  0  0
    1.6700   12.5990   -2.3670 C   0  0  1  0  0  0  0  0  0  0  0  0
    2.3690   11.7370   -3.4500 C   0  0  0  0  0  0  0  0  0  0  0  0
    3.2640   10.6570   -2.8510 C   0  0  0  0  0  0  0  0  0  0  0  0
    2.4650    9.7330   -1.9360 C   0  0  2  0  0  0  0  0  0  0  0  0
    1.5320    8.9930   -2.7290 O   0  0  0  0  0  0  0  0  0  0  0  0
    1.7080   10.4900   -0.8090 C   0  0  0  0  0  0  0  0  0  0  0  0
    2.7240   11.0410    0.2220 C   0  0  0  0  0  0  0  0  0  0  0  0
    0.8300    9.4610   -0.0470 C   0  0  0  0  0  0  0  0  0  0  0  0
    0.8290   13.7960   -2.9880 C   0  0  1  0  0  0  0  0  0  0  0  0
    0.0820   13.3130   -4.2690 C   0  0  0  0  0  0  0  0  0  0  0  0
    1.8160   14.9320   -3.4520 C   0  0  0  0  0  0  0  0  0  0  0  0
    2.2060   15.9860   -2.3980 C   0  0  0  0  0  0  0  0  0  0  0  0
    0.9640   16.5410   -1.6930 C   0  0  2  0  0  0  0  0  0  0  0  0
    0.0840   17.2630   -2.7690 C   0  0  0  0  0  0  0  0  0  0  0  0
    3.2463   19.0858   -2.2838 H   0  0  0  0  0  0  0  0  0  0  0  0
    1.8692   18.0811   -2.8503 H   0  0  0  0  0  0  0  0  0  0  0  0
    1.7339   19.8723   -2.8503 H   0  0  0  0  0  0  0  0  0  0  0  0
    0.7014   19.6033   -0.8676 H   0  0  0  0  0  0  0  0  0  0  0  0
    3.4644   19.9207   -0.4047 H   0  0  0  0  0  0  0  0  0  0  0  0
    2.0662   20.2944    0.7121 H   0  0  0  0  0  0  0  0  0  0  0  0
    2.4259   18.4817    2.0179 H   0  0  0  0  0  0  0  0  0  0  0  0
    3.0813   17.4934    0.6466 H   0  0  0  0  0  0  0  0  0  0  0  0
    4.8307   18.8653    0.5497 H   0  0  0  0  0  0  0  0  0  0  0  0
    4.0365   19.9333    4.7929 H   0  0  0  0  0  0  0  0  0  0  0  0
    3.6140   21.1514    3.5421 H   0  0  0  0  0  0  0  0  0  0  0  0
    2.8065   19.5469    3.5421 H   0  0  0  0  0  0  0  0  0  0  0  0
    6.4316   20.3139    4.0186 H   0  0  0  0  0  0  0  0  0  0  0  0
    6.9225   19.5536    2.4670 H   0  0  0  0  0  0  0  0  0  0  0  0
    6.1408   21.1709    2.4670 H   0  0  0  0  0  0  0  0  0  0  0  0
    2.1112   17.2377    0.0316 H   0  0  0  0  0  0  0  0  0  0  0  0
    0.0991   17.4283    1.3558 H   0  0  0  0  0  0  0  0  0  0  0  0
   -0.7452   18.3358    0.0831 H   0  0  0  0  0  0  0  0  0  0  0  0
   -1.1678   15.5816    0.7177 H   0  0  0  0  0  0  0  0  0  0  0  0
   -1.7233   16.3488   -0.7677 H   0  0  0  0  0  0  0  0  0  0  0  0
    0.7474   14.9610    1.1519 H   0  0  0  0  0  0  0  0  0  0  0  0
    1.0419   13.5759    0.0466 H   0  0  0  0  0  0  0  0  0  0  0  0
    2.1633   14.9792    0.0466 H   0  0  0  0  0  0  0  0  0  0  0  0
   -0.9764   14.9407   -2.5895 H   0  0  0  0  0  0  0  0  0  0  0  0
   -1.6414   13.5538   -0.5229 H   0  0  0  0  0  0  0  0  0  0  0  0
   -1.8003   12.8658   -2.2231 H   0  0  0  0  0  0  0  0  0  0  0  0
   -0.8610   11.2274   -0.3854 H   0  0  0  0  0  0  0  0  0  0  0  0
    2.4248   13.1263   -1.7652 H   0  0  0  0  0  0  0  0  0  0  0  0
    1.5978   11.2533   -4.0674 H   0  0  0  0  0  0  0  0  0  0  0  0
    3.0066   12.4049   -4.0478 H   0  0  0  0  0  0  0  0  0  0  0  0
    3.7062   10.0636   -3.6648 H   0  0  0  0  0  0  0  0  0  0  0  0
    4.0524   11.1432   -2.2577 H   0  0  0  0  0  0  0  0  0  0  0  0
    3.1813    9.0637   -1.4371 H   0  0  0  0  0  0  0  0  0  0  0  0
    1.5910    9.3260   -3.6400 H   0  0  0  0  0  0  0  0  0  0  0  0
    2.3577   10.8423    1.2400 H   0  0  0  0  0  0  0  0  0  0  0  0
    3.6961   10.5465    0.0791 H   0  0  0  0  0  0  0  0  0  0  0  0
    2.8398   12.1255    0.0791 H   0  0  0  0  0  0  0  0  0  0  0  0
    0.9530    9.6052    1.0365 H   0  0  0  0  0  0  0  0  0  0  0  0
   -0.2258    9.6073   -0.3188 H   0  0  0  0  0  0  0  0  0  0  0  0
    1.1407    8.4414   -0.3188 H   0  0  0  0  0  0  0  0  0  0  0  0
   -0.8090   12.7369   -3.9786 H   0  0  0  0  0  0  0  0  0  0  0  0
   -0.2236   14.1849   -4.8659 H   0  0  0  0  0  0  0  0  0  0  0  0
    0.7517   12.6765   -4.8659 H   0  0  0  0  0  0  0  0  0  0  0  0
    2.7416   14.4482   -3.7973 H   0  0  0  0  0  0  0  0  0  0  0  0
    1.2700   15.4888   -4.2278 H   0  0  0  0  0  0  0  0  0  0  0  0
    2.8663   15.5210   -1.6511 H   0  0  0  0  0  0  0  0  0  0  0  0
    2.7220   16.8149   -2.9046 H   0  0  0  0  0  0  0  0  0  0  0  0
   -0.6728   17.8839   -2.2672 H   0  0  0  0  0  0  0  0  0  0  0  0
    0.7231   17.9004   -3.3977 H   0  0  0  0  0  0  0  0  0  0  0  0
   -0.4163   16.5117   -3.3977 H   0  0  0  0  0  0  0  0  0  0  0  0
  1  2  1  0
  2  3  1  0
  3  4  1  0
  4  5  1  0
  5  6  1  0
  6  7  1  0
  7  8  1  0
  7  9  1  0
  2 10  1  0
 10 11  1  0
 11 12  1  0
 12 13  1  0
 13 14  1  1
 13 15  1  0
 15 16  1  0
 16 17  1  0
 17 18  2  0
 18 19  1  0
 19 20  1  0
 20 21  1  0
 21 22  1  0
 22 23  1  0
 22 24  1  0
 24 25  1  0
 24 26  1  0
 19 27  1  0
 27 28  1  6
 27 29  1  0
 29 30  1  0
 30 31  1  0
 31 32  1  6
  7  5  1  0
 31 10  1  0
 31 13  1  0
 27 15  1  0
 24 18  1  0
  1 33  1  0
  1 34  1  0
  1 35  1  0
  2 36  1  6
  3 37  1  0
  3 38  1  0
  4 39  1  0
  4 40  1  0
  5 41  1  6
  8 42  1  0
  8 43  1  0
  8 44  1  0
  9 45  1  0
  9 46  1  0
  9 47  1  0
 10 48  1  1
 11 49  1  0
 11 50  1  0
 12 51  1  0
 12 52  1  0
 14 53  1  0
 14 54  1  0
 14 55  1  0
 15 56  1  6
 16 57  1  0
 16 58  1  0
 17 59  1  0
 19 60  1  1
 20 61  1  0
 20 62  1  0
 21 63  1  0
 21 64  1  0
 22 65  1  1
 23 66  1  0
 25 67  1  0
 25 68  1  0
 25 69  1  0
 26 70  1  0
 26 71  1  0
 26 72  1  0
 28 73  1  0
 28 74  1  0
 28 75  1  0
 29 76  1  0
 29 77  1  0
 30 78  1  0
 30 79  1  0
 32 80  1  0
 32 81  1  0
 32 82  1  0
M  END
>  <meeko>  (9) 
{"is_sidechain": [false], "intermolecular_energy": 2.731, "internal_energy": -0.839}

$$$$
EPH_relaxed_0001_pdb2pqr_Repair_19_r2_0001_out
     RDKit          3D

 82 86  0  0  0  0  0  0  0  0999 V2000
    3.4550   18.5170   -2.5530 C   0  0  0  0  0  0  0  0  0  0  0  0
    2.1800   17.6960   -2.7600 C   0  0  2  0  0  0  0  0  0  0  0  0
    0.9160   18.4650   -2.3240 C   0  0  0  0  0  0  0  0  0  0  0  0
    1.0690   19.1890   -0.9830 C   0  0  0  0  0  0  0  0  0  0  0  0
   -0.1650   19.9600   -0.6260 C   0  0  2  0  0  0  0  0  0  0  0  0
   -0.3400   20.1940    0.7780 O   0  0  0  0  0  0  0  0  0  0  0  0
   -1.3290   19.3660    0.1450 C   0  0  0  0  0  0  0  0  0  0  0  0
   -1.3150   17.9420    0.6050 C   0  0  0  0  0  0  0  0  0  0  0  0
   -2.6720   20.0160    0.0270 C   0  0  0  0  0  0  0  0  0  0  0  0
    2.2790   16.3800   -1.9970 C   0  0  1  0  0  0  0  0  0  0  0  0
    2.6540   16.5820   -0.5050 C   0  0  0  0  0  0  0  0  0  0  0  0
    1.9040   15.4880    0.2970 C   0  0  0  0  0  0  0  0  0  0  0  0
    1.3940   14.4980   -0.7760 C   0  0  1  0  0  0  0  0  0  0  0  0
    2.6240   13.5940   -1.1050 C   0  0  0  0  0  0  0  0  0  0  0  0
    0.1390   13.6490   -0.3930 C   0  0  2  0  0  0  0  0  0  0  0  0
    0.3330   12.7010    0.8030 C   0  0  0  0  0  0  0  0  0  0  0  0
    0.8080   11.3280    0.4590 C   0  0  0  0  0  0  0  0  0  0  0  0
    0.7970   10.7830   -0.7720 C   0  0  0  0  0  0  0  0  0  0  0  0
    0.1790   11.5310   -1.9600 C   0  0  1  0  0  0  0  0  0  0  0  0
   -0.7340   10.5670   -2.7610 C   0  0  0  0  0  0  0  0  0  0  0  0
   -0.0100    9.2930   -3.1870 C   0  0  0  0  0  0  0  0  0  0  0  0
    0.5400    8.5470   -1.9740 C   0  0  2  0  0  0  0  0  0  0  0  0
   -0.5570    8.0630   -1.1940 O   0  0  0  0  0  0  0  0  0  0  0  0
    1.4680    9.4220   -1.0850 C   0  0  0  0  0  0  0  0  0  0  0  0
    2.7970    9.6960   -1.8310 C   0  0  0  0  0  0  0  0  0  0  0  0
    1.8390    8.5960    0.1760 C   0  0  0  0  0  0  0  0  0  0  0  0
   -0.5390   12.9060   -1.6150 C   0  0  1  0  0  0  0  0  0  0  0  0
   -2.0220   12.6450   -1.2090 C   0  0  0  0  0  0  0  0  0  0  0  0
   -0.5840   13.8020   -2.9090 C   0  0  0  0  0  0  0  0  0  0  0  0
    0.6340   14.7070   -3.1700 C   0  0  0  0  0  0  0  0  0  0  0  0
    1.0010   15.5070   -1.9160 C   0  0  2  0  0  0  0  0  0  0  0  0
   -0.2080   16.4430   -1.5740 C   0  0  0  0  0  0  0  0  0  0  0  0
    3.6425   18.6377   -1.4758 H   0  0  0  0  0  0  0  0  0  0  0  0
    4.3057   17.9965   -3.0172 H   0  0  0  0  0  0  0  0  0  0  0  0
    3.3332   19.5068   -3.0172 H   0  0  0  0  0  0  0  0  0  0  0  0
    2.0879   17.4946   -3.8375 H   0  0  0  0  0  0  0  0  0  0  0  0
    0.6794   19.2112   -3.0968 H   0  0  0  0  0  0  0  0  0  0  0  0
    0.1143   17.7222   -2.1992 H   0  0  0  0  0  0  0  0  0  0  0  0
    1.2647   18.4452   -0.1965 H   0  0  0  0  0  0  0  0  0  0  0  0
    1.9042   19.8995   -1.0700 H   0  0  0  0  0  0  0  0  0  0  0  0
   -0.1154   20.5218   -1.5704 H   0  0  0  0  0  0  0  0  0  0  0  0
   -1.3147   17.9119    1.7046 H   0  0  0  0  0  0  0  0  0  0  0  0
   -2.2081   17.4249    0.2243 H   0  0  0  0  0  0  0  0  0  0  0  0
   -0.4119   17.4425    0.2243 H   0  0  0  0  0  0  0  0  0  0  0  0
   -3.0746   20.2109    1.0320 H   0  0  0  0  0  0  0  0  0  0  0  0
   -2.5729   20.9659   -0.5188 H   0  0  0  0  0  0  0  0  0  0  0  0
   -3.3555   19.3490   -0.5188 H   0  0  0  0  0  0  0  0  0  0  0  0
    3.0438   15.8722   -2.6030 H   0  0  0  0  0  0  0  0  0  0  0  0
    3.7402   16.4734   -0.3694 H   0  0  0  0  0  0  0  0  0  0  0  0
    2.3722   17.5877   -0.1597 H   0  0  0  0  0  0  0  0  0  0  0  0
    2.5860   14.9839    0.9976 H   0  0  0  0  0  0  0  0  0  0  0  0
    1.0859   15.9030    0.9041 H   0  0  0  0  0  0  0  0  0  0  0  0
    3.0889   13.2523   -0.1684 H   0  0  0  0  0  0  0  0  0  0  0  0
    2.2929   12.7227   -1.6892 H   0  0  0  0  0  0  0  0  0  0  0  0
    3.3567   14.1701   -1.6892 H   0  0  0  0  0  0  0  0  0  0  0  0
   -0.5707   14.4177   -0.0532 H   0  0  0  0  0  0  0  0  0  0  0  0
    1.0704   13.1557    1.4808 H   0  0  0  0  0  0  0  0  0  0  0  0
   -0.6619   12.5741    1.2548 H   0  0  0  0  0  0  0  0  0  0  0  0
    1.1998   10.7099    1.2802 H   0  0  0  0  0  0  0  0  0  0  0  0
    1.0223   11.8537   -2.5882 H   0  0  0  0  0  0  0  0  0  0  0  0
   -1.5929   10.2907   -2.1318 H   0  0  0  0  0  0  0  0  0  0  0  0
   -1.0526   11.0909   -3.6742 H   0  0  0  0  0  0  0  0  0  0  0  0
   -0.7151    8.6399   -3.7221 H   0  0  0  0  0  0  0  0  0  0  0  0
    0.8306    9.5686   -3.8408 H   0  0  0  0  0  0  0  0  0  0  0  0
    1.1570    7.7173   -2.3493 H   0  0  0  0  0  0  0  0  0  0  0  0
   -0.4550    7.1000   -1.1080 H   0  0  0  0  0  0  0  0  0  0  0  0
    3.6010    9.8618   -1.0988 H   0  0  0  0  0  0  0  0  0  0  0  0
    3.0484    8.8308   -2.4620 H   0  0  0  0  0  0  0  0  0  0  0  0
    2.6857   10.5901   -2.4620 H   0  0  0  0  0  0  0  0  0  0  0  0
    1.5815    9.1694    1.0787 H   0  0  0  0  0  0  0  0  0  0  0  0
    1.2799    7.6487    0.1714 H   0  0  0  0  0  0  0  0  0  0  0  0
    2.9185    8.3847    0.1714 H   0  0  0  0  0  0  0  0  0  0  0  0
   -2.1048   12.6304   -0.1122 H   0  0  0  0  0  0  0  0  0  0  0  0
   -2.6593   13.4448   -1.6142 H   0  0  0  0  0  0  0  0  0  0  0  0
   -2.3479   11.6757   -1.6142 H   0  0  0  0  0  0  0  0  0  0  0  0
   -0.6918   13.1315   -3.7743 H   0  0  0  0  0  0  0  0  0  0  0  0
   -1.4264   14.4917   -2.7521 H   0  0  0  0  0  0  0  0  0  0  0  0
    1.4909   14.0820   -3.4617 H   0  0  0  0  0  0  0  0  0  0  0  0
    0.3807   15.4128   -3.9748 H   0  0  0  0  0  0  0  0  0  0  0  0
   -0.3119   16.5235   -0.4819 H   0  0  0  0  0  0  0  0  0  0  0  0
   -0.0306   17.4415   -2.0000 H   0  0  0  0  0  0  0  0  0  0  0  0
   -1.1303   16.0212   -2.0000 H   0  0  0  0  0  0  0  0  0  0  0  0
  1  2  1  0
  2  3  1  0
  3  4  1  0
  4  5  1  0
  5  6  1  0
  6  7  1  0
  7  8  1  0
  7  9  1  0
  2 10  1  0
 10 11  1  0
 11 12  1  0
 12 13  1  0
 13 14  1  6
 13 15  1  0
 15 16  1  0
 16 17  1  0
 17 18  2  0
 18 19  1  0
 19 20  1  0
 20 21  1  0
 21 22  1  0
 22 23  1  0
 22 24  1  0
 24 25  1  0
 24 26  1  0
 19 27  1  0
 27 28  1  1
 27 29  1  0
 29 30  1  0
 30 31  1  0
 31 32  1  1
  7  5  1  0
 31 10  1  0
 31 13  1  0
 27 15  1  0
 24 18  1  0
  1 33  1  0
  1 34  1  0
  1 35  1  0
  2 36  1  6
  3 37  1  0
  3 38  1  0
  4 39  1  0
  4 40  1  0
  5 41  1  6
  8 42  1  0
  8 43  1  0
  8 44  1  0
  9 45  1  0
  9 46  1  0
  9 47  1  0
 10 48  1  6
 11 49  1  0
 11 50  1  0
 12 51  1  0
 12 52  1  0
 14 53  1  0
 14 54  1  0
 14 55  1  0
 15 56  1  1
 16 57  1  0
 16 58  1  0
 17 59  1  0
 19 60  1  6
 20 61  1  0
 20 62  1  0
 21 63  1  0
 21 64  1  0
 22 65  1  6
 23 66  1  0
 25 67  1  0
 25 68  1  0
 25 69  1  0
 26 70  1  0
 26 71  1  0
 26 72  1  0
 28 73  1  0
 28 74  1  0
 28 75  1  0
 29 76  1  0
 29 77  1  0
 30 78  1  0
 30 79  1  0
 32 80  1  0
 32 81  1  0
 32 82  1  0
M  END
>  <meeko>  (10) 
{"is_sidechain": [false], "intermolecular_energy": 2.731, "internal_energy": -0.839}

$$$$
EPH_relaxed_0001_pdb2pqr_Repair_19_r2_0001_out
     RDKit          3D

 82 86  0  0  0  0  0  0  0  0999 V2000
   -0.1100    9.4070   -2.6510 C   0  0  0  0  0  0  0  0  0  0  0  0
    0.9920   10.3950   -3.0450 C   0  0  2  0  0  0  0  0  0  0  0  0
    2.3760    9.7210   -3.1210 C   0  0  0  0  0  0  0  0  0  0  0  0
    3.3590   10.4380   -4.0510 C   0  0  0  0  0  0  0  0  0  0  0  0
    4.7070   10.5980   -3.4150 C   0  0  2  0  0  0  0  0  0  0  0  0
    5.3140   11.8810   -3.6140 O   0  0  0  0  0  0  0  0  0  0  0  0
    5.9910   10.7610   -4.2070 C   0  0  0  0  0  0  0  0  0  0  0  0
    5.9900   10.7710   -5.7030 C   0  0  0  0  0  0  0  0  0  0  0  0
    7.2890   10.4210   -3.5430 C   0  0  0  0  0  0  0  0  0  0  0  0
    1.0300   11.5530   -2.0550 C   0  0  1  0  0  0  0  0  0  0  0  0
    2.0890   11.3500   -0.9380 C   0  0  0  0  0  0  0  0  0  0  0  0
    2.6590   12.7520   -0.6020 C   0  0  0  0  0  0  0  0  0  0  0  0
    1.6880   13.7420   -1.2860 C   0  0  1  0  0  0  0  0  0  0  0  0
    0.4790   13.8600   -0.3060 C   0  0  0  0  0  0  0  0  0  0  0  0
    2.2740   15.1450   -1.6510 C   0  0  2  0  0  0  0  0  0  0  0  0
    2.7460   15.9860   -0.4520 C   0  0  0  0  0  0  0  0  0  0  0  0
    1.7130   16.8840    0.1430 C   0  0  0  0  0  0  0  0  0  0  0  0
    0.5460   17.2250   -0.4360 C   0  0  0  0  0  0  0  0  0  0  0  0
    0.2120   16.7700   -1.8620 C   0  0  1  0  0  0  0  0  0  0  0  0
   -0.3390   17.9720   -2.6730 C   0  0  0  0  0  0  0  0  0  0  0  0
   -1.5200   18.6500   -1.9850 C   0  0  0  0  0  0  0  0  0  0  0  0
   -1.1320   19.1410   -0.5930 C   0  0  2  0  0  0  0  0  0  0  0  0
   -0.1720   20.1930   -0.7260 O   0  0  0  0  0  0  0  0  0  0  0  0
   -0.5540   18.0180    0.3130 C   0  0  0  0  0  0  0  0  0  0  0  0
   -1.6820   17.0320    0.7040 C   0  0  0  0  0  0  0  0  0  0  0  0
   -0.0710   18.6720    1.6360 C   0  0  0  0  0  0  0  0  0  0  0  0
    1.3660   15.9930   -2.6300 C   0  0  1  0  0  0  0  0  0  0  0  0
    2.3080   17.0090   -3.3440 C   0  0  0  0  0  0  0  0  0  0  0  0
    0.7240   15.1100   -3.7650 C   0  0  0  0  0  0  0  0  0  0  0  0
    0.2730   13.6910   -3.3710 C   0  0  0  0  0  0  0  0  0  0  0  0
    1.3820   12.9550   -2.6120 C   0  0  2  0  0  0  0  0  0  0  0  0
    2.6030   12.8020   -3.5810 C   0  0  0  0  0  0  0  0  0  0  0  0
   -0.1752    9.3486   -1.5545 H   0  0  0  0  0  0  0  0  0  0  0  0
   -1.0727    9.7502   -3.0578 H   0  0  0  0  0  0  0  0  0  0  0  0
    0.1264    8.4127   -3.0578 H   0  0  0  0  0  0  0  0  0  0  0  0
    0.7536   10.7730   -4.0501 H   0  0  0  0  0  0  0  0  0  0  0  0
    2.8077    9.6991   -2.1095 H   0  0  0  0  0  0  0  0  0  0  0  0
    2.2207    8.7128   -3.5326 H   0  0  0  0  0  0  0  0  0  0  0  0
    3.4681    9.8514   -4.9751 H   0  0  0  0  0  0  0  0  0  0  0  0
    2.9596   11.4403   -4.2654 H   0  0  0  0  0  0  0  0  0  0  0  0
    4.4269    9.9207   -2.5947 H   0  0  0  0  0  0  0  0  0  0  0  0
    5.8865   11.8054   -6.0627 H   0  0  0  0  0  0  0  0  0  0  0  0
    6.9351   10.3469   -6.0731 H   0  0  0  0  0  0  0  0  0  0  0  0
    5.1477   10.1681   -6.0731 H   0  0  0  0  0  0  0  0  0  0  0  0
    7.1619   10.4543   -2.4509 H   0  0  0  0  0  0  0  0  0  0  0  0
    7.6018    9.4106   -3.8451 H   0  0  0  0  0  0  0  0  0  0  0  0
    8.0570   11.1483   -3.8451 H   0  0  0  0  0  0  0  0  0  0  0  0
   -0.0152   11.5360   -1.7126 H   0  0  0  0  0  0  0  0  0  0  0  0
    1.6195   10.9084   -0.0466 H   0  0  0  0  0  0  0  0  0  0  0  0
    2.8864   10.6684   -1.2689 H   0  0  0  0  0  0  0  0  0  0  0  0
    2.6760   12.9138    0.4859 H   0  0  0  0  0  0  0  0  0  0  0  0
    3.6949   12.8757   -0.9506 H   0  0  0  0  0  0  0  0  0  0  0  0
    0.8431   13.8245    0.7314 H   0  0  0  0  0  0  0  0  0  0  0  0
   -0.0418   14.8132   -0.4794 H   0  0  0  0  0  0  0  0  0  0  0  0
   -0.2163   13.0255   -0.4794 H   0  0  0  0  0  0  0  0  0  0  0  0
    3.1845   14.8821   -2.2094 H   0  0  0  0  0  0  0  0  0  0  0  0
    3.0894   15.2961    0.3329 H   0  0  0  0  0  0  0  0  0  0  0  0
    3.5380   16.6458   -0.8361 H   0  0  0  0  0  0  0  0  0  0  0  0
    1.9226   17.3026    1.1384 H   0  0  0  0  0  0  0  0  0  0  0  0
   -0.5666   15.9995   -1.7611 H   0  0  0  0  0  0  0  0  0  0  0  0
    0.4664   18.7104   -2.8001 H   0  0  0  0  0  0  0  0  0  0  0  0
   -0.6924   17.5876   -3.6411 H   0  0  0  0  0  0  0  0  0  0  0  0
   -1.8458   19.5079   -2.5915 H   0  0  0  0  0  0  0  0  0  0  0  0
   -2.3351   17.9182   -1.8846 H   0  0  0  0  0  0  0  0  0  0  0  0
   -2.0488   19.4998   -0.1023 H   0  0  0  0  0  0  0  0  0  0  0  0
    0.7070   19.7830   -0.7990 H   0  0  0  0  0  0  0  0  0  0  0  0
   -1.7519   16.9709    1.8001 H   0  0  0  0  0  0  0  0  0  0  0  0
   -2.6388   17.3885    0.2949 H   0  0  0  0  0  0  0  0  0  0  0  0
   -1.4566   16.0361    0.2949 H   0  0  0  0  0  0  0  0  0  0  0  0
   -0.4819   18.1157    2.4914 H   0  0  0  0  0  0  0  0  0  0  0  0
    1.0280   18.6482    1.6769 H   0  0  0  0  0  0  0  0  0  0  0  0
   -0.4170   19.7154    1.6769 H   0  0  0  0  0  0  0  0  0  0  0  0
    2.8526   17.5964   -2.5901 H   0  0  0  0  0  0  0  0  0  0  0  0
    3.0267   16.4632   -3.9729 H   0  0  0  0  0  0  0  0  0  0  0  0
    1.7095   17.6845   -3.9729 H   0  0  0  0  0  0  0  0  0  0  0  0
   -0.1584   15.6461   -4.1444 H   0  0  0  0  0  0  0  0  0  0  0  0
    1.5266   14.9620   -4.5025 H   0  0  0  0  0  0  0  0  0  0  0  0
   -0.6172   13.7615   -2.7287 H   0  0  0  0  0  0  0  0  0  0  0  0
    0.0422   13.1287   -4.2878 H   0  0  0  0  0  0  0  0  0  0  0  0
    3.5255   12.6864   -2.9930 H   0  0  0  0  0  0  0  0  0  0  0  0
    2.4589   11.9149   -4.2152 H   0  0  0  0  0  0  0  0  0  0  0  0
    2.6822   13.6972   -4.2152 H   0  0  0  0  0  0  0  0  0  0  0  0
  1  2  1  0
  2  3  1  0
  3  4  1  0
  4  5  1  0
  5  6  1  0
  6  7  1  0
  7  8  1  0
  7  9  1  0
  2 10  1  0
 10 11  1  0
 11 12  1  0
 12 13  1  0
 13 14  1  1
 13 15  1  0
 15 16  1  0
 16 17  1  0
 17 18  2  0
 18 19  1  0
 19 20  1  0
 20 21  1  0
 21 22  1  0
 22 23  1  0
 22 24  1  0
 24 25  1  0
 24 26  1  0
 19 27  1  0
 27 28  1  6
 27 29  1  0
 29 30  1  0
 30 31  1  0
 31 32  1  6
  7  5  1  0
 31 10  1  0
 31 13  1  0
 27 15  1  0
 24 18  1  0
  1 33  1  0
  1 34  1  0
  1 35  1  0
  2 36  1  6
  3 37  1  0
  3 38  1  0
  4 39  1  0
  4 40  1  0
  5 41  1  1
  8 42  1  0
  8 43  1  0
  8 44  1  0
  9 45  1  0
  9 46  1  0
  9 47  1  0
 10 48  1  1
 11 49  1  0
 11 50  1  0
 12 51  1  0
 12 52  1  0
 14 53  1  0
 14 54  1  0
 14 55  1  0
 15 56  1  6
 16 57  1  0
 16 58  1  0
 17 59  1  0
 19 60  1  1
 20 61  1  0
 20 62  1  0
 21 63  1  0
 21 64  1  0
 22 65  1  1
 23 66  1  0
 25 67  1  0
 25 68  1  0
 25 69  1  0
 26 70  1  0
 26 71  1  0
 26 72  1  0
 28 73  1  0
 28 74  1  0
 28 75  1  0
 29 76  1  0
 29 77  1  0
 30 78  1  0
 30 79  1  0
 32 80  1  0
 32 81  1  0
 32 82  1  0
M  END
>  <meeko>  (11) 
{"is_sidechain": [false], "intermolecular_energy": 2.731, "internal_energy": -0.839}

$$$$
EPH_relaxed_0001_pdb2pqr_Repair_19_r2_0001_out
     RDKit          3D

 82 86  0  0  0  0  0  0  0  0999 V2000
   -0.6050   18.9590   -2.6540 C   0  0  0  0  0  0  0  0  0  0  0  0
    0.0930   18.3770   -1.4210 C   0  0  2  0  0  0  0  0  0  0  0  0
    1.1760   19.3250   -0.8670 C   0  0  0  0  0  0  0  0  0  0  0  0
    1.1210   19.4990    0.6540 C   0  0  0  0  0  0  0  0  0  0  0  0
    2.3510   20.1750    1.1790 C   0  0  2  0  0  0  0  0  0  0  0  0
    3.4620   20.1860    0.2720 O   0  0  0  0  0  0  0  0  0  0  0  0
    3.6430   19.4410    1.4880 C   0  0  0  0  0  0  0  0  0  0  0  0
    3.7690   17.9640    1.2830 C   0  0  0  0  0  0  0  0  0  0  0  0
    4.6120   20.0690    2.4410 C   0  0  0  0  0  0  0  0  0  0  0  0
    0.7100   17.0260   -1.7630 C   0  0  1  0  0  0  0  0  0  0  0  0
    2.2440   17.1070   -1.9810 C   0  0  0  0  0  0  0  0  0  0  0  0
    2.8420   15.7800   -1.4450 C   0  0  0  0  0  0  0  0  0  0  0  0
    1.6200   14.8540   -1.2460 C   0  0  1  0  0  0  0  0  0  0  0  0
    1.3110   14.2870   -2.6670 C   0  0  0  0  0  0  0  0  0  0  0  0
    1.7840   13.7110   -0.1910 C   0  0  2  0  0  0  0  0  0  0  0  0
    2.8790   12.6790   -0.5130 C   0  0  0  0  0  0  0  0  0  0  0  0
    2.4290   11.4980   -1.3080 C   0  0  0  0  0  0  0  0  0  0  0  0
    1.1490   11.1290   -1.5040 C   0  0  0  0  0  0  0  0  0  0  0  0
   -0.0000   11.8760   -0.8150 C   0  0  1  0  0  0  0  0  0  0  0  0
   -0.9890   10.8500   -0.2000 C   0  0  0  0  0  0  0  0  0  0  0  0
   -1.4840    9.8310   -1.2210 C   0  0  0  0  0  0  0  0  0  0  0  0
   -0.3160    9.0680   -1.8410 C   0  0  2  0  0  0  0  0  0  0  0  0
    0.2960    8.2610   -0.8310 O   0  0  0  0  0  0  0  0  0  0  0  0
    0.7500    9.9980   -2.4840 C   0  0  0  0  0  0  0  0  0  0  0  0
    0.1700   10.6470   -3.7650 C   0  0  0  0  0  0  0  0  0  0  0  0
    1.9390    9.1130   -2.9460 C   0  0  0  0  0  0  0  0  0  0  0  0
    0.4270   13.0060    0.2170 C   0  0  1  0  0  0  0  0  0  0  0  0
    0.6570   12.3800    1.6260 C   0  0  0  0  0  0  0  0  0  0  0  0
   -0.7560   14.0330    0.3750 C   0  0  0  0  0  0  0  0  0  0  0  0
   -0.7960   15.2060   -0.6230 C   0  0  0  0  0  0  0  0  0  0  0  0
    0.5690   15.8950   -0.7130 C   0  0  2  0  0  0  0  0  0  0  0  0
    0.8970   16.4950    0.6960 C   0  0  0  0  0  0  0  0  0  0  0  0
   -1.4133   19.6329   -2.3338 H   0  0  0  0  0  0  0  0  0  0  0  0
    0.1237   19.5208   -3.2568 H   0  0  0  0  0  0  0  0  0  0  0  0
   -1.0267   18.1412   -3.2568 H   0  0  0  0  0  0  0  0  0  0  0  0
   -0.6686   18.2505   -0.6374 H   0  0  0  0  0  0  0  0  0  0  0  0
    2.1628   18.9195   -1.1349 H   0  0  0  0  0  0  0  0  0  0  0  0
    0.9950   20.3150   -1.3111 H   0  0  0  0  0  0  0  0  0  0  0  0
    0.2419   20.1080    0.9116 H   0  0  0  0  0  0  0  0  0  0  0  0
    1.0565   18.5007    1.1114 H   0  0  0  0  0  0  0  0  0  0  0  0
    1.7420   20.8763    1.7684 H   0  0  0  0  0  0  0  0  0  0  0  0
    3.8119   17.4606    2.2601 H   0  0  0  0  0  0  0  0  0  0  0  0
    2.8989   17.5965    0.7191 H   0  0  0  0  0  0  0  0  0  0  0  0
    4.6887   17.7492    0.7191 H   0  0  0  0  0  0  0  0  0  0  0  0
    4.2953   19.8638    3.4743 H   0  0  0  0  0  0  0  0  0  0  0  0
    5.6148   19.6486    2.2745 H   0  0  0  0  0  0  0  0  0  0  0  0
    4.6378   21.1560    2.2745 H   0  0  0  0  0  0  0  0  0  0  0  0
    0.1275   16.7792   -2.6629 H   0  0  0  0  0  0  0  0  0  0  0  0
    2.4692   17.2189   -3.0519 H   0  0  0  0  0  0  0  0  0  0  0  0
    2.6725   17.9739   -1.4568 H   0  0  0  0  0  0  0  0  0  0  0  0
    3.5425   15.3472   -2.1743 H   0  0  0  0  0  0  0  0  0  0  0  0
    3.4117   15.9246   -0.5152 H   0  0  0  0  0  0  0  0  0  0  0  0
    0.7866   13.3247   -2.5718 H   0  0  0  0  0  0  0  0  0  0  0  0
    0.6757   14.9981   -3.2153 H   0  0  0  0  0  0  0  0  0  0  0  0
    2.2530   14.1385   -3.2153 H   0  0  0  0  0  0  0  0  0  0  0  0
    2.1390   14.2568    0.6956 H   0  0  0  0  0  0  0  0  0  0  0  0
    3.6705   13.1895   -1.0812 H   0  0  0  0  0  0  0  0  0  0  0  0
    3.2175   12.2825    0.4556 H   0  0  0  0  0  0  0  0  0  0  0  0
    3.2090   10.8770   -1.7728 H   0  0  0  0  0  0  0  0  0  0  0  0
   -0.5034   12.4537   -1.6041 H   0  0  0  0  0  0  0  0  0  0  0  0
   -0.4800   10.3142    0.6148 H   0  0  0  0  0  0  0  0  0  0  0  0
   -1.8636   11.4074    0.1666 H   0  0  0  0  0  0  0  0  0  0  0  0
   -2.1553    9.1173   -0.7209 H   0  0  0  0  0  0  0  0  0  0  0  0
   -2.0177   10.3659   -2.0204 H   0  0  0  0  0  0  0  0  0  0  0  0
   -0.7216    8.4469   -2.6532 H   0  0  0  0  0  0  0  0  0  0  0  0
    0.9160    7.6560   -1.2730 H   0  0  0  0  0  0  0  0  0  0  0  0
   -0.5389   11.4403   -3.4854 H   0  0  0  0  0  0  0  0  0  0  0  0
    0.9882   11.0793   -4.3597 H   0  0  0  0  0  0  0  0  0  0  0  0
   -0.3512    9.8824   -4.3597 H   0  0  0  0  0  0  0  0  0  0  0  0
    2.4674    8.7197   -2.0650 H   0  0  0  0  0  0  0  0  0  0  0  0
    1.5598    8.2756   -3.5502 H   0  0  0  0  0  0  0  0  0  0  0  0
    2.6323    9.7166   -3.5502 H   0  0  0  0  0  0  0  0  0  0  0  0
    0.3878   13.1126    2.4011 H   0  0  0  0  0  0  0  0  0  0  0  0
    0.0297   11.4831    1.7356 H   0  0  0  0  0  0  0  0  0  0  0  0
    1.7158   12.1026    1.7356 H   0  0  0  0  0  0  0  0  0  0  0  0
   -1.6978   13.4744    0.2698 H   0  0  0  0  0  0  0  0  0  0  0  0
   -0.6033   14.4984    1.3599 H   0  0  0  0  0  0  0  0  0  0  0  0
   -1.0726   14.8239   -1.6167 H   0  0  0  0  0  0  0  0  0  0  0  0
   -1.5372   15.9396   -0.2730 H   0  0  0  0  0  0  0  0  0  0  0  0
    0.5262   15.8168    1.4787 H   0  0  0  0  0  0  0  0  0  0  0  0
    1.9856   16.6140    0.7995 H   0  0  0  0  0  0  0  0  0  0  0  0
    0.4095   17.4756    0.7995 H   0  0  0  0  0  0  0  0  0  0  0  0
  1  2  1  0
  2  3  1  0
  3  4  1  0
  4  5  1  0
  5  6  1  0
  6  7  1  0
  7  8  1  0
  7  9  1  0
  2 10  1  0
 10 11  1  0
 11 12  1  0
 12 13  1  0
 13 14  1  6
 13 15  1  0
 15 16  1  0
 16 17  1  0
 17 18  2  0
 18 19  1  0
 19 20  1  0
 20 21  1  0
 21 22  1  0
 22 23  1  0
 22 24  1  0
 24 25  1  0
 24 26  1  0
 19 27  1  0
 27 28  1  1
 27 29  1  0
 29 30  1  0
 30 31  1  0
 31 32  1  1
  7  5  1  0
 31 10  1  0
 31 13  1  0
 27 15  1  0
 24 18  1  0
  1 33  1  0
  1 34  1  0
  1 35  1  0
  2 36  1  1
  3 37  1  0
  3 38  1  0
  4 39  1  0
  4 40  1  0
  5 41  1  1
  8 42  1  0
  8 43  1  0
  8 44  1  0
  9 45  1  0
  9 46  1  0
  9 47  1  0
 10 48  1  6
 11 49  1  0
 11 50  1  0
 12 51  1  0
 12 52  1  0
 14 53  1  0
 14 54  1  0
 14 55  1  0
 15 56  1  1
 16 57  1  0
 16 58  1  0
 17 59  1  0
 19 60  1  6
 20 61  1  0
 20 62  1  0
 21 63  1  0
 21 64  1  0
 22 65  1  6
 23 66  1  0
 25 67  1  0
 25 68  1  0
 25 69  1  0
 26 70  1  0
 26 71  1  0
 26 72  1  0
 28 73  1  0
 28 74  1  0
 28 75  1  0
 29 76  1  0
 29 77  1  0
 30 78  1  0
 30 79  1  0
 32 80  1  0
 32 81  1  0
 32 82  1  0
M  END
>  <meeko>  (12) 
{"is_sidechain": [false], "intermolecular_energy": 2.731, "internal_energy": -0.839}

$$$$
EPH_relaxed_0001_pdb2pqr_Repair_19_r2_0001_out
     RDKit          3D

 82 86  0  0  0  0  0  0  0  0999 V2000
   -3.7830    7.1440   -3.4760 C   0  0  0  0  0  0  0  0  0  0  0  0
   -3.8070    7.2600   -1.9500 C   0  0  2  0  0  0  0  0  0  0  0  0
   -5.2210    7.0480   -1.3730 C   0  0  0  0  0  0  0  0  0  0  0  0
   -6.3420    7.3010   -2.3840 C   0  0  0  0  0  0  0  0  0  0  0  0
   -7.6640    7.5060   -1.7070 C   0  0  2  0  0  0  0  0  0  0  0  0
   -8.2320    6.3220   -1.1330 O   0  0  0  0  0  0  0  0  0  0  0  0
   -8.9650    6.9160   -2.2170 C   0  0  0  0  0  0  0  0  0  0  0  0
   -9.0090    6.0770   -3.4550 C   0  0  0  0  0  0  0  0  0  0  0  0
  -10.2530    7.5530   -1.7960 C   0  0  0  0  0  0  0  0  0  0  0  0
   -3.2690    8.6210   -1.5230 C   0  0  1  0  0  0  0  0  0  0  0  0
   -3.8990    9.1240   -0.1970 C   0  0  0  0  0  0  0  0  0  0  0  0
   -2.7920    9.9040    0.5570 C   0  0  0  0  0  0  0  0  0  0  0  0
   -1.6750   10.1090   -0.4930 C   0  0  1  0  0  0  0  0  0  0  0  0
   -2.1390   11.3360   -1.3380 C   0  0  0  0  0  0  0  0  0  0  0  0
   -0.2280   10.3070    0.0660 C   0  0  2  0  0  0  0  0  0  0  0  0
   -0.0330   11.5560    0.9420 C   0  0  0  0  0  0  0  0  0  0  0  0
    0.3830   12.7890    0.2110 C   0  0  0  0  0  0  0  0  0  0  0  0
    0.8670   12.8280   -1.0450 C   0  0  0  0  0  0  0  0  0  0  0  0
    1.1290   11.5350   -1.8280 C   0  0  1  0  0  0  0  0  0  0  0  0
    2.5250   11.6110   -2.5000 C   0  0  0  0  0  0  0  0  0  0  0  0
    2.6930   12.8590   -3.3620 C   0  0  0  0  0  0  0  0  0  0  0  0
    2.4820   14.1250   -2.5350 C   0  0  2  0  0  0  0  0  0  0  0  0
    3.5410   14.2320   -1.5790 O   0  0  0  0  0  0  0  0  0  0  0  0
    1.1110   14.1570   -1.8020 C   0  0  0  0  0  0  0  0  0  0  0  0
   -0.0270   14.3440   -2.8350 C   0  0  0  0  0  0  0  0  0  0  0  0
    1.0850   15.4160   -0.8940 C   0  0  0  0  0  0  0  0  0  0  0  0
    0.9110   10.1810   -1.0240 C   0  0  1  0  0  0  0  0  0  0  0  0
    2.2170    9.7990   -0.2630 C   0  0  0  0  0  0  0  0  0  0  0  0
    0.6360    9.0160   -2.0460 C   0  0  0  0  0  0  0  0  0  0  0  0
   -0.8290    8.7930   -2.4690 C   0  0  0  0  0  0  0  0  0  0  0  0
   -1.7490    8.7300   -1.2450 C   0  0  2  0  0  0  0  0  0  0  0  0
   -1.3200    7.4910   -0.3880 C   0  0  0  0  0  0  0  0  0  0  0  0
   -3.5678    6.1037   -3.7613 H   0  0  0  0  0  0  0  0  0  0  0  0
   -4.7615    7.4405   -3.8817 H   0  0  0  0  0  0  0  0  0  0  0  0
   -3.0025    7.8044   -3.8817 H   0  0  0  0  0  0  0  0  0  0  0  0
   -3.1638    6.4632   -1.5482 H   0  0  0  0  0  0  0  0  0  0  0  0
   -5.2998    6.0093   -1.0197 H   0  0  0  0  0  0  0  0  0  0  0  0
   -5.3497    7.7784   -0.5606 H   0  0  0  0  0  0  0  0  0  0  0  0
   -6.0980    8.1999   -2.9691 H   0  0  0  0  0  0  0  0  0  0  0  0
   -6.4232    6.4173   -3.0340 H   0  0  0  0  0  0  0  0  0  0  0  0
   -7.3825    8.5282   -1.4142 H   0  0  0  0  0  0  0  0  0  0  0  0
   -9.0647    5.0144   -3.1760 H   0  0  0  0  0  0  0  0  0  0  0  0
   -9.8942    6.3469   -4.0496 H   0  0  0  0  0  0  0  0  0  0  0  0
   -8.1004    6.2528   -4.0496 H   0  0  0  0  0  0  0  0  0  0  0  0
  -10.3070    7.5797   -0.6977 H   0  0  0  0  0  0  0  0  0  0  0  0
  -10.3009    8.5787   -2.1905 H   0  0  0  0  0  0  0  0  0  0  0  0
  -11.0973    6.9686   -2.1905 H   0  0  0  0  0  0  0  0  0  0  0  0
   -3.5319    9.2100   -2.4141 H   0  0  0  0  0  0  0  0  0  0  0  0
   -4.7510    9.7864   -0.4099 H   0  0  0  0  0  0  0  0  0  0  0  0
   -4.2709    8.2834    0.4072 H   0  0  0  0  0  0  0  0  0  0  0  0
   -3.1731   10.8726    0.9127 H   0  0  0  0  0  0  0  0  0  0  0  0
   -2.4343    9.3652    1.4468 H   0  0  0  0  0  0  0  0  0  0  0  0
   -2.4467   12.1496   -0.6647 H   0  0  0  0  0  0  0  0  0  0  0  0
   -1.3086   11.6794   -1.9725 H   0  0  0  0  0  0  0  0  0  0  0  0
   -2.9888   11.0440   -1.9725 H   0  0  0  0  0  0  0  0  0  0  0  0
   -0.1168    9.4472    0.7431 H   0  0  0  0  0  0  0  0  0  0  0  0
   -0.9857   11.7671    1.4498 H   0  0  0  0  0  0  0  0  0  0  0  0
    0.7906   11.3185    1.6314 H   0  0  0  0  0  0  0  0  0  0  0  0
    0.2860   13.7468    0.7432 H   0  0  0  0  0  0  0  0  0  0  0  0
    0.3461   11.4820   -2.5988 H   0  0  0  0  0  0  0  0  0  0  0  0
    3.2946   11.6192   -1.7141 H   0  0  0  0  0  0  0  0  0  0  0  0
    2.6268   10.7351   -3.1576 H   0  0  0  0  0  0  0  0  0  0  0  0
    3.7083   12.8704   -3.7852 H   0  0  0  0  0  0  0  0  0  0  0  0
    1.9420   12.8349   -4.1654 H   0  0  0  0  0  0  0  0  0  0  0  0
    2.4858   14.9777   -3.2299 H   0  0  0  0  0  0  0  0  0  0  0  0
    3.1930   13.9410   -0.7190 H   0  0  0  0  0  0  0  0  0  0  0  0
   -0.9793   14.5005   -2.3071 H   0  0  0  0  0  0  0  0  0  0  0  0
    0.1905   15.2184   -3.4659 H   0  0  0  0  0  0  0  0  0  0  0  0
   -0.1007   13.4459   -3.4659 H   0  0  0  0  0  0  0  0  0  0  0  0
    1.0914   15.1069    0.1617 H   0  0  0  0  0  0  0  0  0  0  0  0
    1.9706   16.0351   -1.1002 H   0  0  0  0  0  0  0  0  0  0  0  0
    0.1746   15.9980   -1.1002 H   0  0  0  0  0  0  0  0  0  0  0  0
    2.0383    9.8513    0.8211 H   0  0  0  0  0  0  0  0  0  0  0  0
    2.5149    8.7761   -0.5366 H   0  0  0  0  0  0  0  0  0  0  0  0
    3.0192   10.5001   -0.5366 H   0  0  0  0  0  0  0  0  0  0  0  0
    1.2164    9.2280   -2.9561 H   0  0  0  0  0  0  0  0  0  0  0  0
    0.9259    8.0958   -1.5177 H   0  0  0  0  0  0  0  0  0  0  0  0
   -1.1472    9.6236   -3.1162 H   0  0  0  0  0  0  0  0  0  0  0  0
   -0.8969    7.8370   -3.0088 H   0  0  0  0  0  0  0  0  0  0  0  0
   -1.4052    7.7372    0.6807 H   0  0  0  0  0  0  0  0  0  0  0  0
   -1.9755    6.6390   -0.6214 H   0  0  0  0  0  0  0  0  0  0  0  0
   -0.2780    7.2267   -0.6214 H   0  0  0  0  0  0  0  0  0  0  0  0
  1  2  1  0
  2  3  1  0
  3  4  1  0
  4  5  1  0
  5  6  1  0
  6  7  1  0
  7  8  1  0
  7  9  1  0
  2 10  1  0
 10 11  1  0
 11 12  1  0
 12 13  1  0
 13 14  1  6
 13 15  1  0
 15 16  1  0
 16 17  1  0
 17 18  2  0
 18 19  1  0
 19 20  1  0
 20 21  1  0
 21 22  1  0
 22 23  1  0
 22 24  1  0
 24 25  1  0
 24 26  1  0
 19 27  1  0
 27 28  1  1
 27 29  1  0
 29 30  1  0
 30 31  1  0
 31 32  1  1
  7  5  1  0
 31 10  1  0
 31 13  1  0
 27 15  1  0
 24 18  1  0
  1 33  1  0
  1 34  1  0
  1 35  1  0
  2 36  1  1
  3 37  1  0
  3 38  1  0
  4 39  1  0
  4 40  1  0
  5 41  1  1
  8 42  1  0
  8 43  1  0
  8 44  1  0
  9 45  1  0
  9 46  1  0
  9 47  1  0
 10 48  1  6
 11 49  1  0
 11 50  1  0
 12 51  1  0
 12 52  1  0
 14 53  1  0
 14 54  1  0
 14 55  1  0
 15 56  1  1
 16 57  1  0
 16 58  1  0
 17 59  1  0
 19 60  1  6
 20 61  1  0
 20 62  1  0
 21 63  1  0
 21 64  1  0
 22 65  1  6
 23 66  1  0
 25 67  1  0
 25 68  1  0
 25 69  1  0
 26 70  1  0
 26 71  1  0
 26 72  1  0
 28 73  1  0
 28 74  1  0
 28 75  1  0
 29 76  1  0
 29 77  1  0
 30 78  1  0
 30 79  1  0
 32 80  1  0
 32 81  1  0
 32 82  1  0
M  END
>  <meeko>  (13) 
{"is_sidechain": [false], "intermolecular_energy": 2.731, "internal_energy": -0.839}

$$$$
EPH_relaxed_0001_pdb2pqr_Repair_19_r2_0001_out
     RDKit          3D

 82 86  0  0  0  0  0  0  0  0999 V2000
   -2.3380    7.8750   -2.2970 C   0  0  0  0  0  0  0  0  0  0  0  0
   -2.2750    8.4910   -0.8960 C   0  0  2  0  0  0  0  0  0  0  0  0
   -3.6420    8.4530   -0.1830 C   0  0  0  0  0  0  0  0  0  0  0  0
   -4.8360    8.4990   -1.1390 C   0  0  0  0  0  0  0  0  0  0  0  0
   -5.6510    7.2430   -1.0690 C   0  0  2  0  0  0  0  0  0  0  0  0
   -5.7740    6.5380   -2.3110 O   0  0  0  0  0  0  0  0  0  0  0  0
   -6.9890    7.0740   -1.7640 C   0  0  0  0  0  0  0  0  0  0  0  0
   -7.5900    8.1760   -2.5780 C   0  0  0  0  0  0  0  0  0  0  0  0
   -7.9330    6.0290   -1.2550 C   0  0  0  0  0  0  0  0  0  0  0  0
   -1.7720    9.9270   -0.9820 C   0  0  1  0  0  0  0  0  0  0  0  0
   -1.4040   10.5150    0.4060 C   0  0  0  0  0  0  0  0  0  0  0  0
   -0.1900   11.4540    0.1860 C   0  0  0  0  0  0  0  0  0  0  0  0
   -0.1090   11.6350   -1.3480 C   0  0  1  0  0  0  0  0  0  0  0  0
   -1.1740   12.7270   -1.6790 C   0  0  0  0  0  0  0  0  0  0  0  0
    1.2950   12.0040   -1.9270 C   0  0  2  0  0  0  0  0  0  0  0  0
    1.8660   13.3500   -1.4480 C   0  0  0  0  0  0  0  0  0  0  0  0
    1.5180   14.5280   -2.2970 C   0  0  0  0  0  0  0  0  0  0  0  0
    1.0210   14.4720   -3.5460 C   0  0  0  0  0  0  0  0  0  0  0  0
    0.8520   13.1290   -4.2670 C   0  0  1  0  0  0  0  0  0  0  0  0
    1.4070   13.2430   -5.7110 C   0  0  0  0  0  0  0  0  0  0  0  0
    0.7890   14.4030   -6.4860 C   0  0  0  0  0  0  0  0  0  0  0  0
    1.0280   15.7280   -5.7670 C   0  0  2  0  0  0  0  0  0  0  0  0
    2.4290   16.0180   -5.7900 O   0  0  0  0  0  0  0  0  0  0  0  0
    0.5190   15.7290   -4.2980 C   0  0  0  0  0  0  0  0  0  0  0  0
   -1.0300   15.7170   -4.2850 C   0  0  0  0  0  0  0  0  0  0  0  0
    0.9480   17.0700   -3.6450 C   0  0  0  0  0  0  0  0  0  0  0  0
    1.4080   11.8540   -3.4980 C   0  0  1  0  0  0  0  0  0  0  0  0
    2.9210   11.6570   -3.8200 C   0  0  0  0  0  0  0  0  0  0  0  0
    0.6700   10.5690   -4.0310 C   0  0  0  0  0  0  0  0  0  0  0  0
   -0.6520   10.1900   -3.3390 C   0  0  0  0  0  0  0  0  0  0  0  0
   -0.4920   10.1840   -1.8160 C   0  0  2  0  0  0  0  0  0  0  0  0
    0.5580    9.0790   -1.4500 C   0  0  0  0  0  0  0  0  0  0  0  0
   -2.4496    6.7839   -2.2131 H   0  0  0  0  0  0  0  0  0  0  0  0
   -3.1983    8.2907   -2.8420 H   0  0  0  0  0  0  0  0  0  0  0  0
   -1.4113    8.1080   -2.8420 H   0  0  0  0  0  0  0  0  0  0  0  0
   -1.5750    7.8871   -0.2999 H   0  0  0  0  0  0  0  0  0  0  0  0
   -3.7022    7.5242    0.4033 H   0  0  0  0  0  0  0  0  0  0  0  0
   -3.7006    9.3522    0.4479 H   0  0  0  0  0  0  0  0  0  0  0  0
   -5.4745    9.3537   -0.8710 H   0  0  0  0  0  0  0  0  0  0  0  0
   -4.4506    8.6010   -2.1642 H   0  0  0  0  0  0  0  0  0  0  0  0
   -5.3303    7.0655   -0.0319 H   0  0  0  0  0  0  0  0  0  0  0  0
   -8.0075    8.9415   -1.9074 H   0  0  0  0  0  0  0  0  0  0  0  0
   -6.8137    8.6284   -3.2126 H   0  0  0  0  0  0  0  0  0  0  0  0
   -8.3907    7.7684   -3.2126 H   0  0  0  0  0  0  0  0  0  0  0  0
   -7.9278    6.0347   -0.1550 H   0  0  0  0  0  0  0  0  0  0  0  0
   -8.9488    6.2444   -1.6180 H   0  0  0  0  0  0  0  0  0  0  0  0
   -7.6158    5.0403   -1.6180 H   0  0  0  0  0  0  0  0  0  0  0  0
   -2.6388   10.3968   -1.4697 H   0  0  0  0  0  0  0  0  0  0  0  0
   -2.2531   11.0828    0.8141 H   0  0  0  0  0  0  0  0  0  0  0  0
   -1.1608    9.7159    1.1217 H   0  0  0  0  0  0  0  0  0  0  0  0
   -0.3526   12.4217    0.6831 H   0  0  0  0  0  0  0  0  0  0  0  0
    0.7385   11.0406    0.6067 H   0  0  0  0  0  0  0  0  0  0  0  0
   -1.5777   13.1410   -0.7433 H   0  0  0  0  0  0  0  0  0  0  0  0
   -0.7044   13.5319   -2.2635 H   0  0  0  0  0  0  0  0  0  0  0  0
   -1.9904   12.2777   -2.2635 H   0  0  0  0  0  0  0  0  0  0  0  0
    1.9420   11.2318   -1.4853 H   0  0  0  0  0  0  0  0  0  0  0  0
    1.4864   13.5385   -0.4329 H   0  0  0  0  0  0  0  0  0  0  0  0
    2.9605   13.2515   -1.4975 H   0  0  0  0  0  0  0  0  0  0  0  0
    1.6819   15.5261   -1.8647 H   0  0  0  0  0  0  0  0  0  0  0  0
   -0.2302   12.9345   -4.2975 H   0  0  0  0  0  0  0  0  0  0  0  0
    2.4954   13.3936   -5.6595 H   0  0  0  0  0  0  0  0  0  0  0  0
    1.1513   12.3137   -6.2411 H   0  0  0  0  0  0  0  0  0  0  0  0
    1.2428   14.4496   -7.4870 H   0  0  0  0  0  0  0  0  0  0  0  0
   -0.2955   14.2358   -6.5628 H   0  0  0  0  0  0  0  0  0  0  0  0
    0.4528   16.5003   -6.2988 H   0  0  0  0  0  0  0  0  0  0  0  0
    2.6430   16.3670   -6.6720 H   0  0  0  0  0  0  0  0  0  0  0  0
   -1.3879   15.7142   -3.2449 H   0  0  0  0  0  0  0  0  0  0  0  0
   -1.4080   16.6122   -4.8005 H   0  0  0  0  0  0  0  0  0  0  0  0
   -1.3940   14.8160   -4.8005 H   0  0  0  0  0  0  0  0  0  0  0  0
    0.9164   16.9712   -2.5499 H   0  0  0  0  0  0  0  0  0  0  0  0
    1.9713   17.3210   -3.9611 H   0  0  0  0  0  0  0  0  0  0  0  0
    0.2604   17.8683   -3.9611 H   0  0  0  0  0  0  0  0  0  0  0  0
    3.4891   11.5830   -2.8810 H   0  0  0  0  0  0  0  0  0  0  0  0
    3.0546   10.7339   -4.4031 H   0  0  0  0  0  0  0  0  0  0  0  0
    3.2865   12.5151   -4.4031 H   0  0  0  0  0  0  0  0  0  0  0  0
    0.4535   10.7281   -5.0977 H   0  0  0  0  0  0  0  0  0  0  0  0
    1.3551    9.7350   -3.8188 H   0  0  0  0  0  0  0  0  0  0  0  0
   -1.4258   10.9209   -3.6166 H   0  0  0  0  0  0  0  0  0  0  0  0
   -0.9413    9.1800   -3.6650 H   0  0  0  0  0  0  0  0  0  0  0  0
    0.6368    8.9961   -0.3560 H   0  0  0  0  0  0  0  0  0  0  0  0
    0.2359    8.1141   -1.8686 H   0  0  0  0  0  0  0  0  0  0  0  0
    1.5381    9.3515   -1.8686 H   0  0  0  0  0  0  0  0  0  0  0  0
  1  2  1  0
  2  3  1  0
  3  4  1  0
  4  5  1  0
  5  6  1  0
  6  7  1  0
  7  8  1  0
  7  9  1  0
  2 10  1  0
 10 11  1  0
 11 12  1  0
 12 13  1  0
 13 14  1  6
 13 15  1  0
 15 16  1  0
 16 17  1  0
 17 18  2  0
 18 19  1  0
 19 20  1  0
 20 21  1  0
 21 22  1  0
 22 23  1  0
 22 24  1  0
 24 25  1  0
 24 26  1  0
 19 27  1  0
 27 28  1  1
 27 29  1  0
 29 30  1  0
 30 31  1  0
 31 32  1  6
  7  5  1  0
 31 10  1  0
 31 13  1  0
 27 15  1  0
 24 18  1  0
  1 33  1  0
  1 34  1  0
  1 35  1  0
  2 36  1  1
  3 37  1  0
  3 38  1  0
  4 39  1  0
  4 40  1  0
  5 41  1  1
  8 42  1  0
  8 43  1  0
  8 44  1  0
  9 45  1  0
  9 46  1  0
  9 47  1  0
 10 48  1  6
 11 49  1  0
 11 50  1  0
 12 51  1  0
 12 52  1  0
 14 53  1  0
 14 54  1  0
 14 55  1  0
 15 56  1  1
 16 57  1  0
 16 58  1  0
 17 59  1  0
 19 60  1  6
 20 61  1  0
 20 62  1  0
 21 63  1  0
 21 64  1  0
 22 65  1  6
 23 66  1  0
 25 67  1  0
 25 68  1  0
 25 69  1  0
 26 70  1  0
 26 71  1  0
 26 72  1  0
 28 73  1  0
 28 74  1  0
 28 75  1  0
 29 76  1  0
 29 77  1  0
 30 78  1  0
 30 79  1  0
 32 80  1  0
 32 81  1  0
 32 82  1  0
M  END
>  <meeko>  (14) 
{"is_sidechain": [false], "intermolecular_energy": 2.731, "internal_energy": -0.839}

$$$$
EPH_relaxed_0001_pdb2pqr_Repair_19_r2_0001_out
     RDKit          3D

 82 86  0  0  0  0  0  0  0  0999 V2000
    2.9260   11.4450   -5.4060 C   0  0  0  0  0  0  0  0  0  0  0  0
    1.9160   11.1290   -4.2990 C   0  0  2  0  0  0  0  0  0  0  0  0
    0.8030   10.1790   -4.7820 C   0  0  0  0  0  0  0  0  0  0  0  0
   -0.2720    9.9030   -3.7270 C   0  0  0  0  0  0  0  0  0  0  0  0
    0.2540    9.0540   -2.6090 C   0  0  2  0  0  0  0  0  0  0  0  0
   -0.6290    8.0080   -2.1840 O   0  0  0  0  0  0  0  0  0  0  0  0
   -0.3510    9.0340   -1.2180 C   0  0  0  0  0  0  0  0  0  0  0  0
   -1.5350    9.8810   -0.8700 C   0  0  0  0  0  0  0  0  0  0  0  0
    0.4980    8.5720   -0.0750 C   0  0  0  0  0  0  0  0  0  0  0  0
    1.3050   12.4210   -3.7690 C   0  0  1  0  0  0  0  0  0  0  0  0
   -0.2380   12.3360   -3.6220 C   0  0  0  0  0  0  0  0  0  0  0  0
   -0.6160   13.1770   -2.3760 C   0  0  0  0  0  0  0  0  0  0  0  0
    0.6630   13.9820   -2.0470 C   0  0  1  0  0  0  0  0  0  0  0  0
    0.6390   15.1940   -3.0290 C   0  0  0  0  0  0  0  0  0  0  0  0
    0.8250   14.4450   -0.5620 C   0  0  2  0  0  0  0  0  0  0  0  0
   -0.2620   15.4110   -0.0580 C   0  0  0  0  0  0  0  0  0  0  0  0
    0.0370   16.8620   -0.2490 C   0  0  0  0  0  0  0  0  0  0  0  0
    1.2450   17.3800   -0.5380 C   0  0  0  0  0  0  0  0  0  0  0  0
    2.4900   16.4860   -0.6070 C   0  0  1  0  0  0  0  0  0  0  0  0
    3.6510   17.1540    0.1750 C   0  0  0  0  0  0  0  0  0  0  0  0
    3.9290   18.5790   -0.2940 C   0  0  0  0  0  0  0  0  0  0  0  0
    2.6840   19.4510   -0.1560 C   0  0  2  0  0  0  0  0  0  0  0  0
    2.3840   19.6090    1.2340 O   0  0  0  0  0  0  0  0  0  0  0  0
    1.4460   18.8730   -0.8960 C   0  0  0  0  0  0  0  0  0  0  0  0
    1.6560   18.9830   -2.4260 C   0  0  0  0  0  0  0  0  0  0  0  0
    0.2260   19.7730   -0.5590 C   0  0  0  0  0  0  0  0  0  0  0  0
    2.2740   14.9650   -0.1990 C   0  0  1  0  0  0  0  0  0  0  0  0
    2.4340   14.8000    1.3430 C   0  0  0  0  0  0  0  0  0  0  0  0
    3.4060   14.0910   -0.8580 C   0  0  0  0  0  0  0  0  0  0  0  0
    3.1370   13.5630   -2.2810 C   0  0  0  0  0  0  0  0  0  0  0  0
    1.7580   12.9010   -2.3680 C   0  0  2  0  0  0  0  0  0  0  0  0
    1.7600   11.6640   -1.4060 C   0  0  0  0  0  0  0  0  0  0  0  0
    3.8833   11.7445   -4.9544 H   0  0  0  0  0  0  0  0  0  0  0  0
    3.0783   10.5516   -6.0294 H   0  0  0  0  0  0  0  0  0  0  0  0
    2.5419   12.2659   -6.0294 H   0  0  0  0  0  0  0  0  0  0  0  0
    2.4595   10.6162   -3.4918 H   0  0  0  0  0  0  0  0  0  0  0  0
    0.3191   10.6296   -5.6611 H   0  0  0  0  0  0  0  0  0  0  0  0
    1.2809    9.2156   -5.0134 H   0  0  0  0  0  0  0  0  0  0  0  0
   -0.6203   10.8611   -3.3137 H   0  0  0  0  0  0  0  0  0  0  0  0
   -1.0968    9.3598   -4.2115 H   0  0  0  0  0  0  0  0  0  0  0  0
    1.2870    9.1876   -2.9627 H   0  0  0  0  0  0  0  0  0  0  0  0
   -1.6289    9.9482    0.2239 H   0  0  0  0  0  0  0  0  0  0  0  0
   -1.4005   10.8891   -1.2891 H   0  0  0  0  0  0  0  0  0  0  0  0
   -2.4457    9.4282   -1.2891 H   0  0  0  0  0  0  0  0  0  0  0  0
    0.0104    8.8373    0.8746 H   0  0  0  0  0  0  0  0  0  0  0  0
    0.6245    7.4807   -0.1299 H   0  0  0  0  0  0  0  0  0  0  0  0
    1.4831    9.0585   -0.1299 H   0  0  0  0  0  0  0  0  0  0  0  0
    1.6604   13.1213   -4.5393 H   0  0  0  0  0  0  0  0  0  0  0  0
   -0.7269   12.7458   -4.5181 H   0  0  0  0  0  0  0  0  0  0  0  0
   -0.5668   11.2925   -3.5085 H   0  0  0  0  0  0  0  0  0  0  0  0
   -1.4531   13.8535   -2.6033 H   0  0  0  0  0  0  0  0  0  0  0  0
   -0.9434   12.5506   -1.5331 H   0  0  0  0  0  0  0  0  0  0  0  0
    0.6204   16.1315   -2.4539 H   0  0  0  0  0  0  0  0  0  0  0  0
    1.5378   15.1703   -3.6627 H   0  0  0  0  0  0  0  0  0  0  0  0
   -0.2581   15.1347   -3.6627 H   0  0  0  0  0  0  0  0  0  0  0  0
    0.6743   13.5084   -0.0052 H   0  0  0  0  0  0  0  0  0  0  0  0
   -1.1950   15.1826   -0.5940 H   0  0  0  0  0  0  0  0  0  0  0  0
   -0.3291   15.2541    1.0287 H   0  0  0  0  0  0  0  0  0  0  0  0
   -0.8011   17.5667   -0.1446 H   0  0  0  0  0  0  0  0  0  0  0  0
    2.7529   16.4113   -1.6725 H   0  0  0  0  0  0  0  0  0  0  0  0
    3.3882   17.1792    1.2429 H   0  0  0  0  0  0  0  0  0  0  0  0
    4.5594   16.5603   -0.0046 H   0  0  0  0  0  0  0  0  0  0  0  0
    4.7380   19.0074    0.3159 H   0  0  0  0  0  0  0  0  0  0  0  0
    4.2212   18.5492   -1.3541 H   0  0  0  0  0  0  0  0  0  0  0  0
    2.9059   20.4200   -0.6270 H   0  0  0  0  0  0  0  0  0  0  0  0
    1.5200   19.1950    1.3980 H   0  0  0  0  0  0  0  0  0  0  0  0
    2.6136   19.4846   -2.6295 H   0  0  0  0  0  0  0  0  0  0  0  0
    1.6686   17.9757   -2.8677 H   0  0  0  0  0  0  0  0  0  0  0  0
    0.8351   19.5669   -2.8677 H   0  0  0  0  0  0  0  0  0  0  0  0
    0.1191   19.8519    0.5329 H   0  0  0  0  0  0  0  0  0  0  0  0
    0.3806   20.7750   -0.9856 H   0  0  0  0  0  0  0  0  0  0  0  0
   -0.6858   19.3295   -0.9856 H   0  0  0  0  0  0  0  0  0  0  0  0
    1.7576   15.4976    1.8585 H   0  0  0  0  0  0  0  0  0  0  0  0
    2.1839   13.7678    1.6292 H   0  0  0  0  0  0  0  0  0  0  0  0
    3.4734   15.0182    1.6292 H   0  0  0  0  0  0  0  0  0  0  0  0
    4.3188   14.7035   -0.8974 H   0  0  0  0  0  0  0  0  0  0  0  0
    3.4802   13.1930   -0.2271 H   0  0  0  0  0  0  0  0  0  0  0  0
    3.1786   14.4027   -2.9904 H   0  0  0  0  0  0  0  0  0  0  0  0
    3.9027   12.8128   -2.5276 H   0  0  0  0  0  0  0  0  0  0  0  0
    1.7594   12.0112   -0.3622 H   0  0  0  0  0  0  0  0  0  0  0  0
    0.8628   11.0548   -1.5902 H   0  0  0  0  0  0  0  0  0  0  0  0
    2.6591   11.0577   -1.5902 H   0  0  0  0  0  0  0  0  0  0  0  0
  1  2  1  0
  2  3  1  0
  3  4  1  0
  4  5  1  0
  5  6  1  0
  6  7  1  0
  7  8  1  0
  7  9  1  0
  2 10  1  0
 10 11  1  0
 11 12  1  0
 12 13  1  0
 13 14  1  6
 13 15  1  0
 15 16  1  0
 16 17  1  0
 17 18  2  0
 18 19  1  0
 19 20  1  0
 20 21  1  0
 21 22  1  0
 22 23  1  0
 22 24  1  0
 24 25  1  0
 24 26  1  0
 19 27  1  0
 27 28  1  1
 27 29  1  0
 29 30  1  0
 30 31  1  0
 31 32  1  1
  7  5  1  0
 31 10  1  0
 31 13  1  0
 27 15  1  0
 24 18  1  0
  1 33  1  0
  1 34  1  0
  1 35  1  0
  2 36  1  1
  3 37  1  0
  3 38  1  0
  4 39  1  0
  4 40  1  0
  5 41  1  1
  8 42  1  0
  8 43  1  0
  8 44  1  0
  9 45  1  0
  9 46  1  0
  9 47  1  0
 10 48  1  6
 11 49  1  0
 11 50  1  0
 12 51  1  0
 12 52  1  0
 14 53  1  0
 14 54  1  0
 14 55  1  0
 15 56  1  1
 16 57  1  0
 16 58  1  0
 17 59  1  0
 19 60  1  6
 20 61  1  0
 20 62  1  0
 21 63  1  0
 21 64  1  0
 22 65  1  6
 23 66  1  0
 25 67  1  0
 25 68  1  0
 25 69  1  0
 26 70  1  0
 26 71  1  0
 26 72  1  0
 28 73  1  0
 28 74  1  0
 28 75  1  0
 29 76  1  0
 29 77  1  0
 30 78  1  0
 30 79  1  0
 32 80  1  0
 32 81  1  0
 32 82  1  0
M  END
>  <meeko>  (15) 
{"is_sidechain": [false], "intermolecular_energy": 2.731, "internal_energy": -0.839}

$$$$
EPH_relaxed_0001_pdb2pqr_Repair_19_r2_0001_out
     RDKit          3D

 82 86  0  0  0  0  0  0  0  0999 V2000
   -1.3100   16.5570   -6.1160 C   0  0  0  0  0  0  0  0  0  0  0  0
   -0.0640   15.9090   -6.7270 C   0  0  2  0  0  0  0  0  0  0  0  0
   -0.2650   15.5520   -8.2130 C   0  0  0  0  0  0  0  0  0  0  0  0
    0.3950   16.5400   -9.1780 C   0  0  0  0  0  0  0  0  0  0  0  0
    1.8150   16.1630   -9.4720 C   0  0  2  0  0  0  0  0  0  0  0  0
    2.3350   16.6960  -10.6970 O   0  0  0  0  0  0  0  0  0  0  0  0
    2.2210   15.2650  -10.6260 C   0  0  0  0  0  0  0  0  0  0  0  0
    1.2050   14.6880  -11.5610 C   0  0  0  0  0  0  0  0  0  0  0  0
    3.5390   14.5590  -10.5530 C   0  0  0  0  0  0  0  0  0  0  0  0
    0.3130   14.6610   -5.9370 C   0  0  1  0  0  0  0  0  0  0  0  0
    1.3880   13.8020   -6.6550 C   0  0  0  0  0  0  0  0  0  0  0  0
    2.2830   13.1890   -5.5480 C   0  0  0  0  0  0  0  0  0  0  0  0
    1.5050   13.4380   -4.2350 C   0  0  1  0  0  0  0  0  0  0  0  0
    0.4380   12.3000   -4.1780 C   0  0  0  0  0  0  0  0  0  0  0  0
    2.3590   13.4940   -2.9260 C   0  0  2  0  0  0  0  0  0  0  0  0
    3.1040   12.1940   -2.5770 C   0  0  0  0  0  0  0  0  0  0  0  0
    2.3500   11.2400   -1.7100 C   0  0  0  0  0  0  0  0  0  0  0  0
    1.2460   11.5340   -0.9990 C   0  0  0  0  0  0  0  0  0  0  0  0
    0.7020   12.9680   -0.9460 C   0  0  1  0  0  0  0  0  0  0  0  0
    0.3690   13.3420    0.5220 C   0  0  0  0  0  0  0  0  0  0  0  0
   -0.5700   12.3370    1.1830 C   0  0  0  0  0  0  0  0  0  0  0  0
    0.0320   10.9340    1.1630 C   0  0  2  0  0  0  0  0  0  0  0  0
    1.1880   10.9160    2.0050 O   0  0  0  0  0  0  0  0  0  0  0  0
    0.4160   10.4530   -0.2640 C   0  0  0  0  0  0  0  0  0  0  0  0
   -0.8680   10.1830   -1.0860 C   0  0  0  0  0  0  0  0  0  0  0  0
    1.1400    9.0860   -0.1280 C   0  0  0  0  0  0  0  0  0  0  0  0
    1.5850   14.0720   -1.6720 C   0  0  1  0  0  0  0  0  0  0  0  0
    2.6700   14.6140   -0.6910 C   0  0  0  0  0  0  0  0  0  0  0  0
    0.6710   15.2980   -2.0460 C   0  0  0  0  0  0  0  0  0  0  0  0
   -0.0520   15.2370   -3.4050 C   0  0  0  0  0  0  0  0  0  0  0  0
    0.9230   14.8690   -4.5280 C   0  0  2  0  0  0  0  0  0  0  0  0
    1.9950   16.0060   -4.6230 C   0  0  0  0  0  0  0  0  0  0  0  0
   -1.2412   16.5212   -5.0187 H   0  0  0  0  0  0  0  0  0  0  0  0
   -1.3774   17.6044   -6.4452 H   0  0  0  0  0  0  0  0  0  0  0  0
   -2.2062   16.0108   -6.4452 H   0  0  0  0  0  0  0  0  0  0  0  0
    0.7525   16.6441   -6.6721 H   0  0  0  0  0  0  0  0  0  0  0  0
    0.1625   14.5543   -8.3913 H   0  0  0  0  0  0  0  0  0  0  0  0
   -1.3470   15.5861   -8.4083 H   0  0  0  0  0  0  0  0  0  0  0  0
   -0.1730   16.5517  -10.1199 H   0  0  0  0  0  0  0  0  0  0  0  0
    0.3948   17.5332   -8.7051 H   0  0  0  0  0  0  0  0  0  0  0  0
    2.0551   16.1390   -8.3988 H   0  0  0  0  0  0  0  0  0  0  0  0
    0.3926   14.2266  -10.9804 H   0  0  0  0  0  0  0  0  0  0  0  0
    0.7943   15.4876  -12.1950 H   0  0  0  0  0  0  0  0  0  0  0  0
    1.6813   13.9256  -12.1950 H   0  0  0  0  0  0  0  0  0  0  0  0
    3.8172   14.4100   -9.4993 H   0  0  0  0  0  0  0  0  0  0  0  0
    3.4600   13.5824  -11.0530 H   0  0  0  0  0  0  0  0  0  0  0  0
    4.3082   15.1658  -11.0530 H   0  0  0  0  0  0  0  0  0  0  0  0
   -0.6772   14.1895   -5.8527 H   0  0  0  0  0  0  0  0  0  0  0  0
    0.9069   13.0033   -7.2387 H   0  0  0  0  0  0  0  0  0  0  0  0
    1.9824   14.4131   -7.3502 H   0  0  0  0  0  0  0  0  0  0  0  0
    2.4257   12.1114   -5.7164 H   0  0  0  0  0  0  0  0  0  0  0  0
    3.2878   13.6362   -5.5287 H   0  0  0  0  0  0  0  0  0  0  0  0
    0.2133   12.0603   -3.1282 H   0  0  0  0  0  0  0  0  0  0  0  0
   -0.4808   12.6332   -4.6828 H   0  0  0  0  0  0  0  0  0  0  0  0
    0.8296   11.4046   -4.6828 H   0  0  0  0  0  0  0  0  0  0  0  0
    3.1396   14.2248   -3.1840 H   0  0  0  0  0  0  0  0  0  0  0  0
    3.3475   11.6787   -3.5178 H   0  0  0  0  0  0  0  0  0  0  0  0
    3.9894   12.4964   -1.9986 H   0  0  0  0  0  0  0  0  0  0  0  0
    2.7293   10.2094   -1.6473 H   0  0  0  0  0  0  0  0  0  0  0  0
   -0.2184   12.9662   -1.5483 H   0  0  0  0  0  0  0  0  0  0  0  0
    1.3058   13.3806    1.0973 H   0  0  0  0  0  0  0  0  0  0  0  0
   -0.1397   14.3173    0.5111 H   0  0  0  0  0  0  0  0  0  0  0  0
   -0.7444   12.6392    2.2262 H   0  0  0  0  0  0  0  0  0  0  0  0
   -1.5173   12.3209    0.6241 H   0  0  0  0  0  0  0  0  0  0  0  0
   -0.7374   10.2394    1.5313 H   0  0  0  0  0  0  0  0  0  0  0  0
    1.7300   11.6910    1.7780 H   0  0  0  0  0  0  0  0  0  0  0  0
   -1.7109   10.0058   -0.4018 H   0  0  0  0  0  0  0  0  0  0  0  0
   -1.0875   11.0546   -1.7201 H   0  0  0  0  0  0  0  0  0  0  0  0
   -0.7178    9.2968   -1.7201 H   0  0  0  0  0  0  0  0  0  0  0  0
    1.2684    8.8435    0.9372 H   0  0  0  0  0  0  0  0  0  0  0  0
    0.5385    8.3027   -0.6124 H   0  0  0  0  0  0  0  0  0  0  0  0
    2.1259    9.1434   -0.6124 H   0  0  0  0  0  0  0  0  0  0  0  0
    2.3416   14.4499    0.3459 H   0  0  0  0  0  0  0  0  0  0  0  0
    3.6181   14.0837   -0.8636 H   0  0  0  0  0  0  0  0  0  0  0  0
    2.8154   15.6906   -0.8636 H   0  0  0  0  0  0  0  0  0  0  0  0
   -0.0973   15.3909   -1.2643 H   0  0  0  0  0  0  0  0  0  0  0  0
    1.3565   16.1548   -2.1231 H   0  0  0  0  0  0  0  0  0  0  0  0
   -0.8473   14.4787   -3.3559 H   0  0  0  0  0  0  0  0  0  0  0  0
   -0.4781   16.2279   -3.6207 H   0  0  0  0  0  0  0  0  0  0  0  0
    2.2892   16.3181   -3.6101 H   0  0  0  0  0  0  0  0  0  0  0  0
    2.8780   15.6333   -5.1628 H   0  0  0  0  0  0  0  0  0  0  0  0
    1.5710   16.8655   -5.1628 H   0  0  0  0  0  0  0  0  0  0  0  0
  1  2  1  0
  2  3  1  0
  3  4  1  0
  4  5  1  0
  5  6  1  0
  6  7  1  0
  7  8  1  0
  7  9  1  0
  2 10  1  0
 10 11  1  0
 11 12  1  0
 12 13  1  0
 13 14  1  1
 13 15  1  0
 15 16  1  0
 16 17  1  0
 17 18  2  0
 18 19  1  0
 19 20  1  0
 20 21  1  0
 21 22  1  0
 22 23  1  0
 22 24  1  0
 24 25  1  0
 24 26  1  0
 19 27  1  0
 27 28  1  1
 27 29  1  0
 29 30  1  0
 30 31  1  0
 31 32  1  6
  7  5  1  0
 31 10  1  0
 31 13  1  0
 27 15  1  0
 24 18  1  0
  1 33  1  0
  1 34  1  0
  1 35  1  0
  2 36  1  6
  3 37  1  0
  3 38  1  0
  4 39  1  0
  4 40  1  0
  5 41  1  1
  8 42  1  0
  8 43  1  0
  8 44  1  0
  9 45  1  0
  9 46  1  0
  9 47  1  0
 10 48  1  1
 11 49  1  0
 11 50  1  0
 12 51  1  0
 12 52  1  0
 14 53  1  0
 14 54  1  0
 14 55  1  0
 15 56  1  6
 16 57  1  0
 16 58  1  0
 17 59  1  0
 19 60  1  6
 20 61  1  0
 20 62  1  0
 21 63  1  0
 21 64  1  0
 22 65  1  1
 23 66  1  0
 25 67  1  0
 25 68  1  0
 25 69  1  0
 26 70  1  0
 26 71  1  0
 26 72  1  0
 28 73  1  0
 28 74  1  0
 28 75  1  0
 29 76  1  0
 29 77  1  0
 30 78  1  0
 30 79  1  0
 32 80  1  0
 32 81  1  0
 32 82  1  0
M  END
>  <meeko>  (16) 
{"is_sidechain": [false], "intermolecular_energy": 2.731, "internal_energy": -0.839}

$$$$
EPH_relaxed_0001_pdb2pqr_Repair_19_r2_0001_out
     RDKit          3D

 82 86  0  0  0  0  0  0  0  0999 V2000
   -1.7200   14.8220    0.5630 C   0  0  0  0  0  0  0  0  0  0  0  0
   -0.3870   15.5240    0.2910 C   0  0  2  0  0  0  0  0  0  0  0  0
   -0.4800   16.5070   -0.8930 C   0  0  0  0  0  0  0  0  0  0  0  0
   -0.0630   17.9370   -0.5400 C   0  0  0  0  0  0  0  0  0  0  0  0
    1.3600   18.0010   -0.0750 C   0  0  2  0  0  0  0  0  0  0  0  0
    2.0340   19.2310   -0.3730 O   0  0  0  0  0  0  0  0  0  0  0  0
    2.5480   18.0540   -1.0180 C   0  0  0  0  0  0  0  0  0  0  0  0
    2.3650   18.0450   -2.5030 C   0  0  0  0  0  0  0  0  0  0  0  0
    3.8870   17.6230   -0.5070 C   0  0  0  0  0  0  0  0  0  0  0  0
    0.7010   14.4900    0.0260 C   0  0  1  0  0  0  0  0  0  0  0  0
    0.8280   13.4500    1.1710 C   0  0  0  0  0  0  0  0  0  0  0  0
    1.2000   12.0990    0.5090 C   0  0  0  0  0  0  0  0  0  0  0  0
    1.5990   12.4710   -0.9390 C   0  0  1  0  0  0  0  0  0  0  0  0
    3.0740   12.9700   -0.8330 C   0  0  0  0  0  0  0  0  0  0  0  0
    1.4460   11.3420   -2.0090 C   0  0  2  0  0  0  0  0  0  0  0  0
    2.3260   10.1010   -1.7790 C   0  0  0  0  0  0  0  0  0  0  0  0
    3.6720   10.1440   -2.4240 C   0  0  0  0  0  0  0  0  0  0  0  0
    4.0490   11.0040   -3.3890 C   0  0  0  0  0  0  0  0  0  0  0  0
    3.0480   11.9940   -3.9970 C   0  0  1  0  0  0  0  0  0  0  0  0
    3.1740   11.9740   -5.5430 C   0  0  0  0  0  0  0  0  0  0  0  0
    4.6020   12.2240   -6.0170 C   0  0  0  0  0  0  0  0  0  0  0  0
    5.5580   11.1840   -5.4380 C   0  0  2  0  0  0  0  0  0  0  0  0
    5.2400    9.9050   -5.9930 O   0  0  0  0  0  0  0  0  0  0  0  0
    5.5120   11.1060   -3.8860 C   0  0  0  0  0  0  0  0  0  0  0  0
    6.1420   12.3850   -3.2820 C   0  0  0  0  0  0  0  0  0  0  0  0
    6.4160    9.9250   -3.4400 C   0  0  0  0  0  0  0  0  0  0  0  0
    1.5430   11.8490   -3.5050 C   0  0  1  0  0  0  0  0  0  0  0  0
    0.7960   10.7980   -4.3810 C   0  0  0  0  0  0  0  0  0  0  0  0
    0.7970   13.2190   -3.7220 C   0  0  0  0  0  0  0  0  0  0  0  0
    0.8860   14.2470   -2.5780 C   0  0  0  0  0  0  0  0  0  0  0  0
    0.5450   13.6000   -1.2320 C   0  0  2  0  0  0  0  0  0  0  0  0
   -0.9410   13.1090   -1.3010 C   0  0  0  0  0  0  0  0  0  0  0  0
   -1.8762   14.7397    1.6487 H   0  0  0  0  0  0  0  0  0  0  0  0
   -2.5393   15.4056    0.1179 H   0  0  0  0  0  0  0  0  0  0  0  0
   -1.7023   13.8163    0.1179 H   0  0  0  0  0  0  0  0  0  0  0  0
   -0.1324   16.1094    1.1868 H   0  0  0  0  0  0  0  0  0  0  0  0
    0.1747   16.1432   -1.6986 H   0  0  0  0  0  0  0  0  0  0  0  0
   -1.5367   16.5459   -1.1962 H   0  0  0  0  0  0  0  0  0  0  0  0
   -0.1755   18.5714   -1.4316 H   0  0  0  0  0  0  0  0  0  0  0  0
   -0.7073   18.2896    0.2789 H   0  0  0  0  0  0  0  0  0  0  0  0
    1.1306   17.3577    0.7873 H   0  0  0  0  0  0  0  0  0  0  0  0
    1.2921   17.9922   -2.7399 H   0  0  0  0  0  0  0  0  0  0  0  0
    2.7901   18.9651   -2.9304 H   0  0  0  0  0  0  0  0  0  0  0  0
    2.8783   17.1710   -2.9304 H   0  0  0  0  0  0  0  0  0  0  0  0
    3.8780   17.6259    0.5930 H   0  0  0  0  0  0  0  0  0  0  0  0
    4.1084   16.6082   -0.8692 H   0  0  0  0  0  0  0  0  0  0  0  0
    4.6588   18.3181   -0.8692 H   0  0  0  0  0  0  0  0  0  0  0  0
    1.5664   15.1588   -0.0914 H   0  0  0  0  0  0  0  0  0  0  0  0
    1.6156   13.7563    1.8752 H   0  0  0  0  0  0  0  0  0  0  0  0
   -0.1125   13.3674    1.7355 H   0  0  0  0  0  0  0  0  0  0  0  0
    2.0432   11.6278    1.0353 H   0  0  0  0  0  0  0  0  0  0  0  0
    0.3712   11.3765    0.5409 H   0  0  0  0  0  0  0  0  0  0  0  0
    3.3538   13.0647    0.2266 H   0  0  0  0  0  0  0  0  0  0  0  0
    3.7417   12.2477   -1.3254 H   0  0  0  0  0  0  0  0  0  0  0  0
    3.1661   13.9493   -1.3254 H   0  0  0  0  0  0  0  0  0  0  0  0
    0.4100   11.0074   -1.8514 H   0  0  0  0  0  0  0  0  0  0  0  0
    2.4723    9.9845   -0.6950 H   0  0  0  0  0  0  0  0  0  0  0  0
    1.7924    9.2595   -2.2451 H   0  0  0  0  0  0  0  0  0  0  0  0
    4.4182    9.4117   -2.0821 H   0  0  0  0  0  0  0  0  0  0  0  0
    3.3292   12.9855   -3.6125 H   0  0  0  0  0  0  0  0  0  0  0  0
    2.8477   10.9899   -5.9106 H   0  0  0  0  0  0  0  0  0  0  0  0
    2.5441   12.7838   -5.9397 H   0  0  0  0  0  0  0  0  0  0  0  0
    4.6318   12.1687   -7.1152 H   0  0  0  0  0  0  0  0  0  0  0  0
    4.9169   13.2205   -5.6738 H   0  0  0  0  0  0  0  0  0  0  0  0
    6.5797   11.4904   -5.7067 H   0  0  0  0  0  0  0  0  0  0  0  0
    4.3090    9.7170   -5.7850 H   0  0  0  0  0  0  0  0  0  0  0  0
    6.1124   12.3250   -2.1840 H   0  0  0  0  0  0  0  0  0  0  0  0
    7.1863   12.4725   -3.6164 H   0  0  0  0  0  0  0  0  0  0  0  0
    5.5749   13.2662   -3.6164 H   0  0  0  0  0  0  0  0  0  0  0  0
    6.4484    9.8827   -2.3413 H   0  0  0  0  0  0  0  0  0  0  0  0
    6.0068    8.9819   -3.8314 H   0  0  0  0  0  0  0  0  0  0  0  0
    7.4332   10.0737   -3.8314 H   0  0  0  0  0  0  0  0  0  0  0  0
    0.2827   10.0758   -3.7292 H   0  0  0  0  0  0  0  0  0  0  0  0
    0.0570   11.3086   -5.0160 H   0  0  0  0  0  0  0  0  0  0  0  0
    1.5212   10.2680   -5.0160 H   0  0  0  0  0  0  0  0  0  0  0  0
    1.2174   13.6876   -4.6240 H   0  0  0  0  0  0  0  0  0  0  0  0
   -0.2693   12.9582   -3.7924 H   0  0  0  0  0  0  0  0  0  0  0  0
    1.9087   14.6498   -2.5349 H   0  0  0  0  0  0  0  0  0  0  0  0
    0.1629   15.0526   -2.7732 H   0  0  0  0  0  0  0  0  0  0  0  0
   -1.3322   12.9797   -0.2811 H   0  0  0  0  0  0  0  0  0  0  0  0
   -1.5489   13.8540   -1.8352 H   0  0  0  0  0  0  0  0  0  0  0  0
   -0.9854   12.1484   -1.8352 H   0  0  0  0  0  0  0  0  0  0  0  0
  1  2  1  0
  2  3  1  0
  3  4  1  0
  4  5  1  0
  5  6  1  0
  6  7  1  0
  7  8  1  0
  7  9  1  0
  2 10  1  0
 10 11  1  0
 11 12  1  0
 12 13  1  0
 13 14  1  1
 13 15  1  0
 15 16  1  0
 16 17  1  0
 17 18  2  0
 18 19  1  0
 19 20  1  0
 20 21  1  0
 21 22  1  0
 22 23  1  0
 22 24  1  0
 24 25  1  0
 24 26  1  0
 19 27  1  0
 27 28  1  6
 27 29  1  0
 29 30  1  0
 30 31  1  0
 31 32  1  6
  7  5  1  0
 31 10  1  0
 31 13  1  0
 27 15  1  0
 24 18  1  0
  1 33  1  0
  1 34  1  0
  1 35  1  0
  2 36  1  1
  3 37  1  0
  3 38  1  0
  4 39  1  0
  4 40  1  0
  5 41  1  1
  8 42  1  0
  8 43  1  0
  8 44  1  0
  9 45  1  0
  9 46  1  0
  9 47  1  0
 10 48  1  6
 11 49  1  0
 11 50  1  0
 12 51  1  0
 12 52  1  0
 14 53  1  0
 14 54  1  0
 14 55  1  0
 15 56  1  6
 16 57  1  0
 16 58  1  0
 17 59  1  0
 19 60  1  1
 20 61  1  0
 20 62  1  0
 21 63  1  0
 21 64  1  0
 22 65  1  1
 23 66  1  0
 25 67  1  0
 25 68  1  0
 25 69  1  0
 26 70  1  0
 26 71  1  0
 26 72  1  0
 28 73  1  0
 28 74  1  0
 28 75  1  0
 29 76  1  0
 29 77  1  0
 30 78  1  0
 30 79  1  0
 32 80  1  0
 32 81  1  0
 32 82  1  0
M  END
>  <meeko>  (17) 
{"is_sidechain": [false], "intermolecular_energy": 2.731, "internal_energy": -0.839}

$$$$
