EPH_relaxed_0001_pdb2pqr_Repair_117_r2_0001_out
     RDKit          3D

 82 86  0  0  0  0  0  0  0  0999 V2000
   -1.2940    8.4420   -1.4450 C   0  0  0  0  0  0  0  0  0  0  0  0
   -1.9470    9.2830   -0.3450 C   0  0  2  0  0  0  0  0  0  0  0  0
   -3.3660    9.7450   -0.7330 C   0  0  0  0  0  0  0  0  0  0  0  0
   -4.4450    8.6850   -0.4940 C   0  0  0  0  0  0  0  0  0  0  0  0
   -4.9110    8.0700   -1.7780 C   0  0  2  0  0  0  0  0  0  0  0  0
   -5.9560    8.7920   -2.4440 O   0  0  0  0  0  0  0  0  0  0  0  0
   -6.2960    7.4790   -1.9690 C   0  0  0  0  0  0  0  0  0  0  0  0
   -7.3010    7.4740   -0.8600 C   0  0  0  0  0  0  0  0  0  0  0  0
   -6.5020    6.4770   -3.0620 C   0  0  0  0  0  0  0  0  0  0  0  0
   -1.0740   10.4920   -0.0280 C   0  0  1  0  0  0  0  0  0  0  0  0
    0.0180   10.1800    1.0300 C   0  0  0  0  0  0  0  0  0  0  0  0
    1.2650   11.0170    0.6450 C   0  0  0  0  0  0  0  0  0  0  0  0
    0.7500   12.0230   -0.4100 C   0  0  1  0  0  0  0  0  0  0  0  0
    0.0820   13.1660    0.4170 C   0  0  0  0  0  0  0  0  0  0  0  0
    1.8140   12.5800   -1.4110 C   0  0  2  0  0  0  0  0  0  0  0  0
    2.9510   13.3940   -0.7680 C   0  0  0  0  0  0  0  0  0  0  0  0
    2.6990   14.8610   -0.6550 C   0  0  0  0  0  0  0  0  0  0  0  0
    1.7370   15.5420   -1.3040 C   0  0  0  0  0  0  0  0  0  0  0  0
    0.8370   14.8460   -2.3340 C   0  0  1  0  0  0  0  0  0  0  0  0
    0.7370   15.7220   -3.6100 C   0  0  0  0  0  0  0  0  0  0  0  0
    0.2830   17.1470   -3.3070 C   0  0  0  0  0  0  0  0  0  0  0  0
    1.2340   17.8250   -2.3250 C   0  0  2  0  0  0  0  0  0  0  0  0
    2.5020   18.0060   -2.9630 O   0  0  0  0  0  0  0  0  0  0  0  0
    1.4220   17.0280   -1.0040 C   0  0  0  0  0  0  0  0  0  0  0  0
    0.1190   17.0910   -0.1690 C   0  0  0  0  0  0  0  0  0  0  0  0
    2.5110   17.7480   -0.1640 C   0  0  0  0  0  0  0  0  0  0  0  0
    1.1980   13.3330   -2.6590 C   0  0  1  0  0  0  0  0  0  0  0  0
    2.2720   13.2730   -3.7890 C   0  0  0  0  0  0  0  0  0  0  0  0
   -0.0810   12.6090   -3.2230 C   0  0  0  0  0  0  0  0  0  0  0  0
   -1.0320   11.9740   -2.1910 C   0  0  0  0  0  0  0  0  0  0  0  0
   -0.2590   11.1060   -1.1940 C   0  0  2  0  0  0  0  0  0  0  0  0
    0.4050    9.9340   -1.9940 C   0  0  0  0  0  0  0  0  0  0  0  0
   -0.6806    7.6520   -0.9872 H   0  0  0  0  0  0  0  0  0  0  0  0
   -2.0755    7.9840   -2.0691 H   0  0  0  0  0  0  0  0  0  0  0  0
   -0.6567    9.0857   -2.0691 H   0  0  0  0  0  0  0  0  0  0  0  0
   -2.0394    8.6468    0.5476 H   0  0  0  0  0  0  0  0  0  0  0  0
   -3.6162   10.6356   -0.1379 H   0  0  0  0  0  0  0  0  0  0  0  0
   -3.3526    9.9524   -1.8132 H   0  0  0  0  0  0  0  0  0  0  0  0
   -4.0322    7.8950    0.1505 H   0  0  0  0  0  0  0  0  0  0  0  0
   -5.3063    9.1740   -0.0154 H   0  0  0  0  0  0  0  0  0  0  0  0
   -3.9051    7.6732   -1.9799 H   0  0  0  0  0  0  0  0  0  0  0  0
   -6.7787    7.4766    0.1081 H   0  0  0  0  0  0  0  0  0  0  0  0
   -7.9359    8.3690   -0.9365 H   0  0  0  0  0  0  0  0  0  0  0  0
   -7.9270    6.5727   -0.9365 H   0  0  0  0  0  0  0  0  0  0  0  0
   -6.7049    5.4899   -2.6210 H   0  0  0  0  0  0  0  0  0  0  0  0
   -7.3560    6.7833   -3.6840 H   0  0  0  0  0  0  0  0  0  0  0  0
   -5.5965    6.4216   -3.6840 H   0  0  0  0  0  0  0  0  0  0  0  0
   -1.8502   11.1983    0.3015 H   0  0  0  0  0  0  0  0  0  0  0  0
   -0.3339   10.4637    2.0328 H   0  0  0  0  0  0  0  0  0  0  0  0
    0.2537    9.1057    1.0497 H   0  0  0  0  0  0  0  0  0  0  0  0
    1.6639   11.5457    1.5233 H   0  0  0  0  0  0  0  0  0  0  0  0
    2.0840   10.3918    0.2598 H   0  0  0  0  0  0  0  0  0  0  0  0
    0.2023   12.9601    1.4908 H   0  0  0  0  0  0  0  0  0  0  0  0
    0.5619   14.1249    0.1715 H   0  0  0  0  0  0  0  0  0  0  0  0
   -0.9890   13.2185    0.1715 H   0  0  0  0  0  0  0  0  0  0  0  0
    2.2831   11.6612   -1.7927 H   0  0  0  0  0  0  0  0  0  0  0  0
    3.1213   12.9993    0.2445 H   0  0  0  0  0  0  0  0  0  0  0  0
    3.8189   13.2845   -1.4349 H   0  0  0  0  0  0  0  0  0  0  0  0
    3.3557   15.4341    0.0160 H   0  0  0  0  0  0  0  0  0  0  0  0
   -0.1533   14.7585   -1.8633 H   0  0  0  0  0  0  0  0  0  0  0  0
    1.7264   15.7614   -4.0891 H   0  0  0  0  0  0  0  0  0  0  0  0
   -0.0147   15.2653   -4.2706 H   0  0  0  0  0  0  0  0  0  0  0  0
    0.2603   17.7243   -4.2430 H   0  0  0  0  0  0  0  0  0  0  0  0
   -0.7191   17.1077   -2.8550 H   0  0  0  0  0  0  0  0  0  0  0  0
    0.7876   18.7910   -2.0465 H   0  0  0  0  0  0  0  0  0  0  0  0
    3.0920   18.4450   -2.3260 H   0  0  0  0  0  0  0  0  0  0  0  0
    0.3690   17.0789    0.9021 H   0  0  0  0  0  0  0  0  0  0  0  0
   -0.4253   18.0165   -0.4081 H   0  0  0  0  0  0  0  0  0  0  0  0
   -0.5121   16.2223   -0.4081 H   0  0  0  0  0  0  0  0  0  0  0  0
    2.3001   17.6086    0.9066 H   0  0  0  0  0  0  0  0  0  0  0  0
    3.4976   17.3236   -0.4017 H   0  0  0  0  0  0  0  0  0  0  0  0
    2.5069   18.8220   -0.4017 H   0  0  0  0  0  0  0  0  0  0  0  0
    3.2744   13.2170   -3.3395 H   0  0  0  0  0  0  0  0  0  0  0  0
    2.0993   12.3831   -4.4121 H   0  0  0  0  0  0  0  0  0  0  0  0
    2.1995   14.1766   -4.4121 H   0  0  0  0  0  0  0  0  0  0  0  0
   -0.6580   13.3505   -3.7950 H   0  0  0  0  0  0  0  0  0  0  0  0
    0.3036   11.7664   -3.8163 H   0  0  0  0  0  0  0  0  0  0  0  0
   -1.5539   12.7727   -1.6436 H   0  0  0  0  0  0  0  0  0  0  0  0
   -1.7534   11.3375   -2.7243 H   0  0  0  0  0  0  0  0  0  0  0  0
    0.8214    9.1989   -1.2895 H   0  0  0  0  0  0  0  0  0  0  0  0
   -0.3516    9.4474   -2.6271 H   0  0  0  0  0  0  0  0  0  0  0  0
    1.2113   10.3328   -2.6271 H   0  0  0  0  0  0  0  0  0  0  0  0
  1  2  1  0
  2  3  1  0
  3  4  1  0
  4  5  1  0
  5  6  1  0
  6  7  1  0
  7  8  1  0
  7  9  1  0
  2 10  1  0
 10 11  1  0
 11 12  1  0
 12 13  1  0
 13 14  1  1
 13 15  1  0
 15 16  1  0
 16 17  1  0
 17 18  2  0
 18 19  1  0
 19 20  1  0
 20 21  1  0
 21 22  1  0
 22 23  1  0
 22 24  1  0
 24 25  1  0
 24 26  1  0
 19 27  1  0
 27 28  1  6
 27 29  1  0
 29 30  1  0
 30 31  1  0
 31 32  1  6
  7  5  1  0
 31 10  1  0
 31 13  1  0
 27 15  1  0
 24 18  1  0
  1 33  1  0
  1 34  1  0
  1 35  1  0
  2 36  1  1
  3 37  1  0
  3 38  1  0
  4 39  1  0
  4 40  1  0
  5 41  1  6
  8 42  1  0
  8 43  1  0
  8 44  1  0
  9 45  1  0
  9 46  1  0
  9 47  1  0
 10 48  1  1
 11 49  1  0
 11 50  1  0
 12 51  1  0
 12 52  1  0
 14 53  1  0
 14 54  1  0
 14 55  1  0
 15 56  1  6
 16 57  1  0
 16 58  1  0
 17 59  1  0
 19 60  1  1
 20 61  1  0
 20 62  1  0
 21 63  1  0
 21 64  1  0
 22 65  1  1
 23 66  1  0
 25 67  1  0
 25 68  1  0
 25 69  1  0
 26 70  1  0
 26 71  1  0
 26 72  1  0
 28 73  1  0
 28 74  1  0
 28 75  1  0
 29 76  1  0
 29 77  1  0
 30 78  1  0
 30 79  1  0
 32 80  1  0
 32 81  1  0
 32 82  1  0
M  END
>  <meeko>  (1) 
{"is_sidechain": [false], "intermolecular_energy": 2.731, "internal_energy": -0.839}

$$$$
EPH_relaxed_0001_pdb2pqr_Repair_117_r2_0001_out
     RDKit          3D

 82 86  0  0  0  0  0  0  0  0999 V2000
    2.1340   19.5550   -0.7410 C   0  0  0  0  0  0  0  0  0  0  0  0
    2.3560   18.4140    0.2550 C   0  0  2  0  0  0  0  0  0  0  0  0
    3.8120   17.9080    0.2440 C   0  0  0  0  0  0  0  0  0  0  0  0
    4.7410   18.6850    1.1820 C   0  0  0  0  0  0  0  0  0  0  0  0
    4.1450   18.8410    2.5480 C   0  0  2  0  0  0  0  0  0  0  0  0
    3.8690   20.1940    2.9310 O   0  0  0  0  0  0  0  0  0  0  0  0
    4.8670   19.5080    3.7040 C   0  0  0  0  0  0  0  0  0  0  0  0
    6.2480   20.0630    3.5460 C   0  0  0  0  0  0  0  0  0  0  0  0
    4.4320   19.1870    5.1000 C   0  0  0  0  0  0  0  0  0  0  0  0
    1.4030   17.2640   -0.0510 C   0  0  1  0  0  0  0  0  0  0  0  0
    0.1520   17.7210   -0.8470 C   0  0  0  0  0  0  0  0  0  0  0  0
   -0.2160   16.5610   -1.8070 C   0  0  0  0  0  0  0  0  0  0  0  0
    0.6190   15.3600   -1.3050 C   0  0  1  0  0  0  0  0  0  0  0  0
   -0.1890   14.7850   -0.1000 C   0  0  0  0  0  0  0  0  0  0  0  0
    0.9430   14.2540   -2.3620 C   0  0  2  0  0  0  0  0  0  0  0  0
   -0.2820   13.5290   -2.9450 C   0  0  0  0  0  0  0  0  0  0  0  0
   -0.7090   12.3030   -2.2070 C   0  0  0  0  0  0  0  0  0  0  0  0
    0.0280   11.6430   -1.2950 C   0  0  0  0  0  0  0  0  0  0  0  0
    1.4720   12.0650   -0.9940 C   0  0  1  0  0  0  0  0  0  0  0  0
    2.3840   10.8100   -0.9700 C   0  0  0  0  0  0  0  0  0  0  0  0
    1.8770    9.7370   -0.0110 C   0  0  0  0  0  0  0  0  0  0  0  0
    0.4610    9.3020   -0.3770 C   0  0  2  0  0  0  0  0  0  0  0  0
    0.4970    8.6320   -1.6410 O   0  0  0  0  0  0  0  0  0  0  0  0
   -0.5460   10.4850   -0.4420 C   0  0  0  0  0  0  0  0  0  0  0  0
   -0.8130   11.0190    0.9870 C   0  0  0  0  0  0  0  0  0  0  0  0
   -1.9010    9.9310   -0.9590 C   0  0  0  0  0  0  0  0  0  0  0  0
    2.0580   13.2280   -1.9050 C   0  0  1  0  0  0  0  0  0  0  0  0
    2.6710   12.6270   -3.2070 C   0  0  0  0  0  0  0  0  0  0  0  0
    3.2420   13.9320   -1.1410 C   0  0  0  0  0  0  0  0  0  0  0  0
    2.8690   15.0950   -0.2030 C   0  0  0  0  0  0  0  0  0  0  0  0
    1.9500   16.0960   -0.9090 C   0  0  2  0  0  0  0  0  0  0  0  0
    2.7440   16.7070   -2.1140 C   0  0  0  0  0  0  0  0  0  0  0  0
    1.9519   20.4907   -0.1920 H   0  0  0  0  0  0  0  0  0  0  0  0
    3.0269   19.6687   -1.3733 H   0  0  0  0  0  0  0  0  0  0  0  0
    1.2636   19.3256   -1.3733 H   0  0  0  0  0  0  0  0  0  0  0  0
    2.1516   18.8091    1.2610 H   0  0  0  0  0  0  0  0  0  0  0  0
    3.8147   16.8513    0.5495 H   0  0  0  0  0  0  0  0  0  0  0  0
    4.1942   18.0505   -0.7776 H   0  0  0  0  0  0  0  0  0  0  0  0
    5.6944   18.1432    1.2688 H   0  0  0  0  0  0  0  0  0  0  0  0
    4.8950   19.6884    0.7584 H   0  0  0  0  0  0  0  0  0  0  0  0
    3.6299   17.8731    2.4591 H   0  0  0  0  0  0  0  0  0  0  0  0
    6.6879   20.2398    4.5386 H   0  0  0  0  0  0  0  0  0  0  0  0
    6.8704   19.3452    2.9916 H   0  0  0  0  0  0  0  0  0  0  0  0
    6.2006   21.0119    2.9916 H   0  0  0  0  0  0  0  0  0  0  0  0
    5.1036   19.6826    5.8164 H   0  0  0  0  0  0  0  0  0  0  0  0
    3.4031   19.5439    5.2547 H   0  0  0  0  0  0  0  0  0  0  0  0
    4.4697   18.0986    5.2547 H   0  0  0  0  0  0  0  0  0  0  0  0
    1.1998   16.9156    0.9724 H   0  0  0  0  0  0  0  0  0  0  0  0
   -0.6822   17.9221   -0.1588 H   0  0  0  0  0  0  0  0  0  0  0  0
    0.3559   18.6463   -1.4058 H   0  0  0  0  0  0  0  0  0  0  0  0
   -1.2915   16.3368   -1.7510 H   0  0  0  0  0  0  0  0  0  0  0  0
   -0.0043   16.8062   -2.8582 H   0  0  0  0  0  0  0  0  0  0  0  0
    0.2736   15.1142    0.8421 H   0  0  0  0  0  0  0  0  0  0  0  0
   -1.2258   15.1495   -0.1464 H   0  0  0  0  0  0  0  0  0  0  0  0
   -0.1843   13.6860   -0.1464 H   0  0  0  0  0  0  0  0  0  0  0  0
    1.3668   14.8384   -3.1920 H   0  0  0  0  0  0  0  0  0  0  0  0
   -1.1254   14.2351   -2.9476 H   0  0  0  0  0  0  0  0  0  0  0  0
    0.0136   13.1919   -3.9495 H   0  0  0  0  0  0  0  0  0  0  0  0
   -1.7108   11.9059   -2.4276 H   0  0  0  0  0  0  0  0  0  0  0  0
    1.4518   12.5304    0.0025 H   0  0  0  0  0  0  0  0  0  0  0  0
    2.4263   10.3854   -1.9838 H   0  0  0  0  0  0  0  0  0  0  0  0
    3.3784   11.1263   -0.6219 H   0  0  0  0  0  0  0  0  0  0  0  0
    2.5455    8.8649   -0.0609 H   0  0  0  0  0  0  0  0  0  0  0  0
    1.8636   10.1543    1.0067 H   0  0  0  0  0  0  0  0  0  0  0  0
    0.1061    8.6309    0.4190 H   0  0  0  0  0  0  0  0  0  0  0  0
    0.3380    7.6870   -1.4770 H   0  0  0  0  0  0  0  0  0  0  0  0
   -0.4483   10.2895    1.7251 H   0  0  0  0  0  0  0  0  0  0  0  0
   -0.2869   11.9750    1.1254 H   0  0  0  0  0  0  0  0  0  0  0  0
   -1.8935   11.1717    1.1254 H   0  0  0  0  0  0  0  0  0  0  0  0
   -2.5407    9.6695   -0.1032 H   0  0  0  0  0  0  0  0  0  0  0  0
   -2.4011   10.6969   -1.5701 H   0  0  0  0  0  0  0  0  0  0  0  0
   -1.7213    9.0342   -1.5701 H   0  0  0  0  0  0  0  0  0  0  0  0
    3.4334   11.8795   -2.9422 H   0  0  0  0  0  0  0  0  0  0  0  0
    1.8772   12.1474   -3.7986 H   0  0  0  0  0  0  0  0  0  0  0  0
    3.1348   13.4301   -3.7986 H   0  0  0  0  0  0  0  0  0  0  0  0
    3.7497   13.1663   -0.5361 H   0  0  0  0  0  0  0  0  0  0  0  0
    3.8634   14.3847   -1.9277 H   0  0  0  0  0  0  0  0  0  0  0  0
    2.3517   14.6929    0.6805 H   0  0  0  0  0  0  0  0  0  0  0  0
    3.7915   15.6153    0.0943 H   0  0  0  0  0  0  0  0  0  0  0  0
    3.5618   17.3363   -1.7329 H   0  0  0  0  0  0  0  0  0  0  0  0
    3.1615   15.8950   -2.7275 H   0  0  0  0  0  0  0  0  0  0  0  0
    2.0660   17.3186   -2.7275 H   0  0  0  0  0  0  0  0  0  0  0  0
  1  2  1  0
  2  3  1  0
  3  4  1  0
  4  5  1  0
  5  6  1  0
  6  7  1  0
  7  8  1  0
  7  9  1  0
  2 10  1  0
 10 11  1  0
 11 12  1  0
 12 13  1  0
 13 14  1  1
 13 15  1  0
 15 16  1  0
 16 17  1  0
 17 18  2  0
 18 19  1  0
 19 20  1  0
 20 21  1  0
 21 22  1  0
 22 23  1  0
 22 24  1  0
 24 25  1  0
 24 26  1  0
 19 27  1  0
 27 28  1  6
 27 29  1  0
 29 30  1  0
 30 31  1  0
 31 32  1  6
  7  5  1  0
 31 10  1  0
 31 13  1  0
 27 15  1  0
 24 18  1  0
  1 33  1  0
  1 34  1  0
  1 35  1  0
  2 36  1  1
  3 37  1  0
  3 38  1  0
  4 39  1  0
  4 40  1  0
  5 41  1  1
  8 42  1  0
  8 43  1  0
  8 44  1  0
  9 45  1  0
  9 46  1  0
  9 47  1  0
 10 48  1  1
 11 49  1  0
 11 50  1  0
 12 51  1  0
 12 52  1  0
 14 53  1  0
 14 54  1  0
 14 55  1  0
 15 56  1  6
 16 57  1  0
 16 58  1  0
 17 59  1  0
 19 60  1  1
 20 61  1  0
 20 62  1  0
 21 63  1  0
 21 64  1  0
 22 65  1  1
 23 66  1  0
 25 67  1  0
 25 68  1  0
 25 69  1  0
 26 70  1  0
 26 71  1  0
 26 72  1  0
 28 73  1  0
 28 74  1  0
 28 75  1  0
 29 76  1  0
 29 77  1  0
 30 78  1  0
 30 79  1  0
 32 80  1  0
 32 81  1  0
 32 82  1  0
M  END
>  <meeko>  (2) 
{"is_sidechain": [false], "intermolecular_energy": 2.731, "internal_energy": -0.839}

$$$$
EPH_relaxed_0001_pdb2pqr_Repair_117_r2_0001_out
     RDKit          3D

 82 86  0  0  0  0  0  0  0  0999 V2000
    1.9680   18.2130   -2.6380 C   0  0  0  0  0  0  0  0  0  0  0  0
    0.4560   17.9700   -2.6770 C   0  0  2  0  0  0  0  0  0  0  0  0
   -0.2380   18.4170   -1.3750 C   0  0  0  0  0  0  0  0  0  0  0  0
    0.5020   17.9880   -0.1050 C   0  0  0  0  0  0  0  0  0  0  0  0
    1.0940   19.1620    0.6140 C   0  0  2  0  0  0  0  0  0  0  0  0
    1.9900   19.9570   -0.1740 O   0  0  0  0  0  0  0  0  0  0  0  0
    2.5690   19.2780    0.9530 C   0  0  0  0  0  0  0  0  0  0  0  0
    3.5420   18.2030    0.5810 C   0  0  0  0  0  0  0  0  0  0  0  0
    2.9780   20.1940    2.0630 C   0  0  0  0  0  0  0  0  0  0  0  0
    0.1740   16.4950   -2.9380 C   0  0  1  0  0  0  0  0  0  0  0  0
    0.2530   16.1280   -4.4440 C   0  0  0  0  0  0  0  0  0  0  0  0
    0.8290   14.6910   -4.5250 C   0  0  0  0  0  0  0  0  0  0  0  0
    0.7520   14.1570   -3.0750 C   0  0  1  0  0  0  0  0  0  0  0  0
   -0.7270   13.6890   -2.8990 C   0  0  0  0  0  0  0  0  0  0  0  0
    1.7630   13.0260   -2.7010 C   0  0  2  0  0  0  0  0  0  0  0  0
    1.6060   11.7190   -3.4980 C   0  0  0  0  0  0  0  0  0  0  0  0
    0.6860   10.7100   -2.8930 C   0  0  0  0  0  0  0  0  0  0  0  0
    0.2360   10.7240   -1.6250 C   0  0  0  0  0  0  0  0  0  0  0  0
    0.7310   11.7760   -0.6240 C   0  0  1  0  0  0  0  0  0  0  0  0
    1.1010   11.0850    0.7140 C   0  0  0  0  0  0  0  0  0  0  0  0
   -0.0420   10.2410    1.2720 C   0  0  0  0  0  0  0  0  0  0  0  0
   -0.4660    9.1680    0.2720 C   0  0  2  0  0  0  0  0  0  0  0  0
    0.6020    8.2290    0.1220 O   0  0  0  0  0  0  0  0  0  0  0  0
   -0.8530    9.7460   -1.1180 C   0  0  0  0  0  0  0  0  0  0  0  0
   -2.1890   10.5220   -1.0060 C   0  0  0  0  0  0  0  0  0  0  0  0
   -1.1240    8.5520   -2.0730 C   0  0  0  0  0  0  0  0  0  0  0  0
    1.8760   12.7450   -1.1470 C   0  0  1  0  0  0  0  0  0  0  0  0
    3.2730   12.0940   -0.9130 C   0  0  0  0  0  0  0  0  0  0  0  0
    1.8560   14.0710   -0.2970 C   0  0  0  0  0  0  0  0  0  0  0  0
    0.9250   15.1960   -0.7870 C   0  0  0  0  0  0  0  0  0  0  0  0
    1.1250   15.4620   -2.2820 C   0  0  2  0  0  0  0  0  0  0  0  0
    2.5980   15.9550   -2.4870 C   0  0  0  0  0  0  0  0  0  0  0  0
    2.3038   18.2670   -1.5919 H   0  0  0  0  0  0  0  0  0  0  0  0
    2.4855   17.3865   -3.1470 H   0  0  0  0  0  0  0  0  0  0  0  0
    2.2004   19.1600   -3.1470 H   0  0  0  0  0  0  0  0  0  0  0  0
    0.0438   18.5782   -3.4957 H   0  0  0  0  0  0  0  0  0  0  0  0
   -0.3120   19.5145   -1.3799 H   0  0  0  0  0  0  0  0  0  0  0  0
   -1.2242   17.9302   -1.3526 H   0  0  0  0  0  0  0  0  0  0  0  0
   -0.2060   17.4791    0.5656 H   0  0  0  0  0  0  0  0  0  0  0  0
    1.3218   17.3149   -0.3962 H   0  0  0  0  0  0  0  0  0  0  0  0
    0.1855   19.2773    1.2234 H   0  0  0  0  0  0  0  0  0  0  0  0
    3.9533   17.7486    1.4944 H   0  0  0  0  0  0  0  0  0  0  0  0
    3.0280   17.4325   -0.0124 H   0  0  0  0  0  0  0  0  0  0  0  0
    4.3598   18.6379   -0.0124 H   0  0  0  0  0  0  0  0  0  0  0  0
    2.7645   19.7159    3.0304 H   0  0  0  0  0  0  0  0  0  0  0  0
    4.0552   20.4036    1.9873 H   0  0  0  0  0  0  0  0  0  0  0  0
    2.4150   21.1360    1.9873 H   0  0  0  0  0  0  0  0  0  0  0  0
   -0.8295   16.4186   -2.4941 H   0  0  0  0  0  0  0  0  0  0  0  0
   -0.7499   16.1600   -4.8947 H   0  0  0  0  0  0  0  0  0  0  0  0
    0.8890   16.8396   -4.9909 H   0  0  0  0  0  0  0  0  0  0  0  0
    0.2247   14.0680   -5.2008 H   0  0  0  0  0  0  0  0  0  0  0  0
    1.8549   14.6747   -4.9215 H   0  0  0  0  0  0  0  0  0  0  0  0
   -0.9629   13.6144   -1.8272 H   0  0  0  0  0  0  0  0  0  0  0  0
   -1.4010   14.4177   -3.3729 H   0  0  0  0  0  0  0  0  0  0  0  0
   -0.8591   12.7052   -3.3729 H   0  0  0  0  0  0  0  0  0  0  0  0
    2.7243   13.4557   -3.0191 H   0  0  0  0  0  0  0  0  0  0  0  0
    1.2217   11.9739   -4.4967 H   0  0  0  0  0  0  0  0  0  0  0  0
    2.6016   11.2515   -3.5154 H   0  0  0  0  0  0  0  0  0  0  0  0
    0.3478    9.8859   -3.5384 H   0  0  0  0  0  0  0  0  0  0  0  0
   -0.1114   12.4657   -0.4668 H   0  0  0  0  0  0  0  0  0  0  0  0
    1.9710   10.4333    0.5456 H   0  0  0  0  0  0  0  0  0  0  0  0
    1.3226   11.8742    1.4475 H   0  0  0  0  0  0  0  0  0  0  0  0
    0.2894    9.7558    2.2019 H   0  0  0  0  0  0  0  0  0  0  0  0
   -0.9018   10.8989    1.4670 H   0  0  0  0  0  0  0  0  0  0  0  0
   -1.3679    8.6819    0.6723 H   0  0  0  0  0  0  0  0  0  0  0  0
    1.2800    8.6410   -0.4400 H   0  0  0  0  0  0  0  0  0  0  0  0
   -2.4404   10.6680    0.0549 H   0  0  0  0  0  0  0  0  0  0  0  0
   -2.0866   11.5012   -1.4967 H   0  0  0  0  0  0  0  0  0  0  0  0
   -2.9888    9.9479   -1.4967 H   0  0  0  0  0  0  0  0  0  0  0  0
   -1.3292    7.6480   -1.4808 H   0  0  0  0  0  0  0  0  0  0  0  0
   -1.9933    8.7799   -2.7074 H   0  0  0  0  0  0  0  0  0  0  0  0
   -0.2415    8.3823   -2.7074 H   0  0  0  0  0  0  0  0  0  0  0  0
    3.4605   12.0066    0.1674 H   0  0  0  0  0  0  0  0  0  0  0  0
    3.2928   11.0939   -1.3706 H   0  0  0  0  0  0  0  0  0  0  0  0
    4.0515   12.7221   -1.3706 H   0  0  0  0  0  0  0  0  0  0  0  0
    1.5485   13.8063    0.7254 H   0  0  0  0  0  0  0  0  0  0  0  0
    2.8729   14.4820   -0.3807 H   0  0  0  0  0  0  0  0  0  0  0  0
   -0.1198   14.9005   -0.6108 H   0  0  0  0  0  0  0  0  0  0  0  0
    1.1643   16.1153   -0.2324 H   0  0  0  0  0  0  0  0  0  0  0  0
    3.0714   16.1134   -1.5068 H   0  0  0  0  0  0  0  0  0  0  0  0
    3.1634   15.1971   -3.0491 H   0  0  0  0  0  0  0  0  0  0  0  0
    2.5933   16.9005   -3.0491 H   0  0  0  0  0  0  0  0  0  0  0  0
  1  2  1  0
  2  3  1  0
  3  4  1  0
  4  5  1  0
  5  6  1  0
  6  7  1  0
  7  8  1  0
  7  9  1  0
  2 10  1  0
 10 11  1  0
 11 12  1  0
 12 13  1  0
 13 14  1  1
 13 15  1  0
 15 16  1  0
 16 17  1  0
 17 18  2  0
 18 19  1  0
 19 20  1  0
 20 21  1  0
 21 22  1  0
 22 23  1  0
 22 24  1  0
 24 25  1  0
 24 26  1  0
 19 27  1  0
 27 28  1  6
 27 29  1  0
 29 30  1  0
 30 31  1  0
 31 32  1  1
  7  5  1  0
 31 10  1  0
 31 13  1  0
 27 15  1  0
 24 18  1  0
  1 33  1  0
  1 34  1  0
  1 35  1  0
  2 36  1  6
  3 37  1  0
  3 38  1  0
  4 39  1  0
  4 40  1  0
  5 41  1  1
  8 42  1  0
  8 43  1  0
  8 44  1  0
  9 45  1  0
  9 46  1  0
  9 47  1  0
 10 48  1  1
 11 49  1  0
 11 50  1  0
 12 51  1  0
 12 52  1  0
 14 53  1  0
 14 54  1  0
 14 55  1  0
 15 56  1  6
 16 57  1  0
 16 58  1  0
 17 59  1  0
 19 60  1  1
 20 61  1  0
 20 62  1  0
 21 63  1  0
 21 64  1  0
 22 65  1  1
 23 66  1  0
 25 67  1  0
 25 68  1  0
 25 69  1  0
 26 70  1  0
 26 71  1  0
 26 72  1  0
 28 73  1  0
 28 74  1  0
 28 75  1  0
 29 76  1  0
 29 77  1  0
 30 78  1  0
 30 79  1  0
 32 80  1  0
 32 81  1  0
 32 82  1  0
M  END
>  <meeko>  (3) 
{"is_sidechain": [false], "intermolecular_energy": 2.731, "internal_energy": -0.839}

$$$$
EPH_relaxed_0001_pdb2pqr_Repair_117_r2_0001_out
     RDKit          3D

 82 86  0  0  0  0  0  0  0  0999 V2000
    2.0540   18.2250   -2.8950 C   0  0  0  0  0  0  0  0  0  0  0  0
    0.7980   17.7670   -2.1500 C   0  0  2  0  0  0  0  0  0  0  0  0
    0.9560   17.8810   -0.6200 C   0  0  0  0  0  0  0  0  0  0  0  0
    1.0520   19.3240   -0.1170 C   0  0  0  0  0  0  0  0  0  0  0  0
   -0.2800   20.0110   -0.1470 C   0  0  2  0  0  0  0  0  0  0  0  0
   -0.8890   20.1930    1.1380 O   0  0  0  0  0  0  0  0  0  0  0  0
   -1.5830   19.3270    0.2240 C   0  0  0  0  0  0  0  0  0  0  0  0
   -1.6170   17.8940    0.6520 C   0  0  0  0  0  0  0  0  0  0  0  0
   -2.8650   19.9010   -0.2930 C   0  0  0  0  0  0  0  0  0  0  0  0
    0.4600   16.3310   -2.5330 C   0  0  1  0  0  0  0  0  0  0  0  0
    0.6090   16.0680   -4.0550 C   0  0  0  0  0  0  0  0  0  0  0  0
    1.1200   14.6120   -4.2100 C   0  0  0  0  0  0  0  0  0  0  0  0
    0.9310   13.9820   -2.8100 C   0  0  1  0  0  0  0  0  0  0  0  0
   -0.5760   13.5810   -2.7500 C   0  0  0  0  0  0  0  0  0  0  0  0
    1.8640   12.7760   -2.4640 C   0  0  2  0  0  0  0  0  0  0  0  0
    1.6900   11.5390   -3.3620 C   0  0  0  0  0  0  0  0  0  0  0  0
    0.6890   10.5390   -2.8850 C   0  0  0  0  0  0  0  0  0  0  0  0
    0.1670   10.4860   -1.6460 C   0  0  0  0  0  0  0  0  0  0  0  0
    0.6520   11.4380   -0.5450 C   0  0  1  0  0  0  0  0  0  0  0  0
    0.9090   10.6360    0.7580 C   0  0  0  0  0  0  0  0  0  0  0  0
   -0.3030    9.8160    1.1880 C   0  0  0  0  0  0  0  0  0  0  0  0
   -0.7200    8.8400    0.0900 C   0  0  2  0  0  0  0  0  0  0  0  0
    0.3090    7.8590   -0.0690 O   0  0  0  0  0  0  0  0  0  0  0  0
   -0.9960    9.5340   -1.2730 C   0  0  0  0  0  0  0  0  0  0  0  0
   -2.2970   10.3690   -1.1780 C   0  0  0  0  0  0  0  0  0  0  0  0
   -1.2680    8.4260   -2.3260 C   0  0  0  0  0  0  0  0  0  0  0  0
    1.8710   12.3810   -0.9320 C   0  0  1  0  0  0  0  0  0  0  0  0
    3.2190   11.6420   -0.6690 C   0  0  0  0  0  0  0  0  0  0  0  0
    1.8660   13.6420    0.0110 C   0  0  0  0  0  0  0  0  0  0  0  0
    1.0200   14.8470   -0.4450 C   0  0  0  0  0  0  0  0  0  0  0  0
    1.3200   15.2060   -1.9030 C   0  0  2  0  0  0  0  0  0  0  0  0
    2.8240   15.6350   -1.9900 C   0  0  0  0  0  0  0  0  0  0  0  0
    2.8292   18.5077   -2.1676 H   0  0  0  0  0  0  0  0  0  0  0  0
    2.4255   17.4045   -3.5264 H   0  0  0  0  0  0  0  0  0  0  0  0
    1.8101   19.0920   -3.5264 H   0  0  0  0  0  0  0  0  0  0  0  0
   -0.0243   18.4342   -2.4477 H   0  0  0  0  0  0  0  0  0  0  0  0
    0.0859   17.4047   -0.1446 H   0  0  0  0  0  0  0  0  0  0  0  0
    1.9019   17.3852   -0.3567 H   0  0  0  0  0  0  0  0  0  0  0  0
    1.4263   19.3169    0.9173 H   0  0  0  0  0  0  0  0  0  0  0  0
    1.7365   19.8736   -0.7799 H   0  0  0  0  0  0  0  0  0  0  0  0
    0.0186   20.6025   -1.0250 H   0  0  0  0  0  0  0  0  0  0  0  0
   -1.6183   17.8394    1.7506 H   0  0  0  0  0  0  0  0  0  0  0  0
   -2.5267   17.4157    0.2600 H   0  0  0  0  0  0  0  0  0  0  0  0
   -0.7310   17.3731    0.2600 H   0  0  0  0  0  0  0  0  0  0  0  0
   -3.5060   20.1880    0.5536 H   0  0  0  0  0  0  0  0  0  0  0  0
   -2.6486   20.7882   -0.9063 H   0  0  0  0  0  0  0  0  0  0  0  0
   -3.3826   19.1487   -0.9063 H   0  0  0  0  0  0  0  0  0  0  0  0
   -0.5703   16.2757   -2.1516 H   0  0  0  0  0  0  0  0  0  0  0  0
   -0.3633   16.1835   -4.5563 H   0  0  0  0  0  0  0  0  0  0  0  0
    1.3088   16.7828   -4.5125 H   0  0  0  0  0  0  0  0  0  0  0  0
    0.5281   14.0706   -4.9627 H   0  0  0  0  0  0  0  0  0  0  0  0
    2.1657   14.5704   -4.5489 H   0  0  0  0  0  0  0  0  0  0  0  0
   -0.8915   13.4970   -1.6996 H   0  0  0  0  0  0  0  0  0  0  0  0
   -1.1803   14.3496   -3.2541 H   0  0  0  0  0  0  0  0  0  0  0  0
   -0.7184   12.6137   -3.2541 H   0  0  0  0  0  0  0  0  0  0  0  0
    2.8624   13.1757   -2.6952 H   0  0  0  0  0  0  0  0  0  0  0  0
    1.3772   11.8840   -4.3586 H   0  0  0  0  0  0  0  0  0  0  0  0
    2.6610   11.0222   -3.3588 H   0  0  0  0  0  0  0  0  0  0  0  0
    0.3498    9.7819   -3.6073 H   0  0  0  0  0  0  0  0  0  0  0  0
   -0.1641   12.1579   -0.3844 H   0  0  0  0  0  0  0  0  0  0  0  0
    1.7554    9.9535    0.5910 H   0  0  0  0  0  0  0  0  0  0  0  0
    1.1243   11.3591    1.5585 H   0  0  0  0  0  0  0  0  0  0  0  0
   -0.0502    9.2493    2.0962 H   0  0  0  0  0  0  0  0  0  0  0  0
   -1.1398   10.5028    1.3832 H   0  0  0  0  0  0  0  0  0  0  0  0
   -1.6667    8.3753    0.4027 H   0  0  0  0  0  0  0  0  0  0  0  0
    0.9670    8.2200   -0.6880 H   0  0  0  0  0  0  0  0  0  0  0  0
   -2.5515   10.5323   -0.1204 H   0  0  0  0  0  0  0  0  0  0  0  0
   -2.1466   11.3397   -1.6731 H   0  0  0  0  0  0  0  0  0  0  0  0
   -3.1169    9.8280   -1.6731 H   0  0  0  0  0  0  0  0  0  0  0  0
   -1.4999    7.4812   -1.8126 H   0  0  0  0  0  0  0  0  0  0  0  0
   -2.1206    8.7200   -2.9557 H   0  0  0  0  0  0  0  0  0  0  0  0
   -0.3761    8.2918   -2.9557 H   0  0  0  0  0  0  0  0  0  0  0  0
    3.3826   11.5523    0.4151 H   0  0  0  0  0  0  0  0  0  0  0  0
    3.1808   10.6387   -1.1183 H   0  0  0  0  0  0  0  0  0  0  0  0
    4.0444   12.2138   -1.1183 H   0  0  0  0  0  0  0  0  0  0  0  0
    1.4872   13.3219    0.9929 H   0  0  0  0  0  0  0  0  0  0  0  0
    2.9048   14.0039    0.0135 H   0  0  0  0  0  0  0  0  0  0  0  0
   -0.0464   14.5953   -0.3484 H   0  0  0  0  0  0  0  0  0  0  0  0
    1.2702   15.7112    0.1879 H   0  0  0  0  0  0  0  0  0  0  0  0
    3.2314   15.7512   -0.9749 H   0  0  0  0  0  0  0  0  0  0  0  0
    3.3947   14.8638   -2.5281 H   0  0  0  0  0  0  0  0  0  0  0  0
    2.9020   16.5912   -2.5281 H   0  0  0  0  0  0  0  0  0  0  0  0
  1  2  1  0
  2  3  1  0
  3  4  1  0
  4  5  1  0
  5  6  1  0
  6  7  1  0
  7  8  1  0
  7  9  1  0
  2 10  1  0
 10 11  1  0
 11 12  1  0
 12 13  1  0
 13 14  1  1
 13 15  1  0
 15 16  1  0
 16 17  1  0
 17 18  2  0
 18 19  1  0
 19 20  1  0
 20 21  1  0
 21 22  1  0
 22 23  1  0
 22 24  1  0
 24 25  1  0
 24 26  1  0
 19 27  1  0
 27 28  1  6
 27 29  1  0
 29 30  1  0
 30 31  1  0
 31 32  1  1
  7  5  1  0
 31 10  1  0
 31 13  1  0
 27 15  1  0
 24 18  1  0
  1 33  1  0
  1 34  1  0
  1 35  1  0
  2 36  1  6
  3 37  1  0
  3 38  1  0
  4 39  1  0
  4 40  1  0
  5 41  1  6
  8 42  1  0
  8 43  1  0
  8 44  1  0
  9 45  1  0
  9 46  1  0
  9 47  1  0
 10 48  1  1
 11 49  1  0
 11 50  1  0
 12 51  1  0
 12 52  1  0
 14 53  1  0
 14 54  1  0
 14 55  1  0
 15 56  1  6
 16 57  1  0
 16 58  1  0
 17 59  1  0
 19 60  1  1
 20 61  1  0
 20 62  1  0
 21 63  1  0
 21 64  1  0
 22 65  1  1
 23 66  1  0
 25 67  1  0
 25 68  1  0
 25 69  1  0
 26 70  1  0
 26 71  1  0
 26 72  1  0
 28 73  1  0
 28 74  1  0
 28 75  1  0
 29 76  1  0
 29 77  1  0
 30 78  1  0
 30 79  1  0
 32 80  1  0
 32 81  1  0
 32 82  1  0
M  END
>  <meeko>  (4) 
{"is_sidechain": [false], "intermolecular_energy": 2.731, "internal_energy": -0.839}

$$$$
EPH_relaxed_0001_pdb2pqr_Repair_117_r2_0001_out
     RDKit          3D

 82 86  0  0  0  0  0  0  0  0999 V2000
    3.7930   17.8790    0.7310 C   0  0  0  0  0  0  0  0  0  0  0  0
    2.7650   18.3160   -0.3160 C   0  0  2  0  0  0  0  0  0  0  0  0
    2.0500   19.6230    0.0810 C   0  0  0  0  0  0  0  0  0  0  0  0
    0.8390   19.4090    0.9930 C   0  0  0  0  0  0  0  0  0  0  0  0
   -0.3970   20.0430    0.4300 C   0  0  2  0  0  0  0  0  0  0  0  0
   -1.4720   20.1930    1.3670 O   0  0  0  0  0  0  0  0  0  0  0  0
   -1.7130   19.3060    0.2620 C   0  0  0  0  0  0  0  0  0  0  0  0
   -1.8580   17.8700    0.6560 C   0  0  0  0  0  0  0  0  0  0  0  0
   -2.7050   19.8310   -0.7280 C   0  0  0  0  0  0  0  0  0  0  0  0
    1.7410   17.2080   -0.5330 C   0  0  1  0  0  0  0  0  0  0  0  0
    0.5220   17.6760   -1.3710 C   0  0  0  0  0  0  0  0  0  0  0  0
    0.0820   16.4670   -2.2360 C   0  0  0  0  0  0  0  0  0  0  0  0
    0.8380   15.2600   -1.6320 C   0  0  1  0  0  0  0  0  0  0  0  0
   -0.0060   14.8390   -0.3890 C   0  0  0  0  0  0  0  0  0  0  0  0
    1.0920   14.0530   -2.5930 C   0  0  2  0  0  0  0  0  0  0  0  0
   -0.1770   13.3630   -3.1230 C   0  0  0  0  0  0  0  0  0  0  0  0
   -0.6810   12.2310   -2.2900 C   0  0  0  0  0  0  0  0  0  0  0  0
    0.0110   11.6020   -1.3220 C   0  0  0  0  0  0  0  0  0  0  0  0
    1.4790   11.9550   -1.0480 C   0  0  1  0  0  0  0  0  0  0  0  0
    2.3090   10.6510   -0.9160 C   0  0  0  0  0  0  0  0  0  0  0  0
    1.7340    9.6940    0.1250 C   0  0  0  0  0  0  0  0  0  0  0  0
    0.2930    9.3220   -0.2140 C   0  0  2  0  0  0  0  0  0  0  0  0
    0.2870    8.5490   -1.4180 O   0  0  0  0  0  0  0  0  0  0  0  0
   -0.6360   10.5570   -0.3810 C   0  0  0  0  0  0  0  0  0  0  0  0
   -0.8700   11.2220    0.9980 C   0  0  0  0  0  0  0  0  0  0  0  0
   -2.0230   10.0490   -0.8590 C   0  0  0  0  0  0  0  0  0  0  0  0
    2.1390   13.0000   -2.0470 C   0  0  1  0  0  0  0  0  0  0  0  0
    2.7130   12.2560   -3.2920 C   0  0  0  0  0  0  0  0  0  0  0  0
    3.3650   13.6870   -1.3360 C   0  0  0  0  0  0  0  0  0  0  0  0
    3.0660   14.9450   -0.4990 C   0  0  0  0  0  0  0  0  0  0  0  0
    2.2130   15.9410   -1.2900 C   0  0  2  0  0  0  0  0  0  0  0  0
    3.0460   16.4000   -2.5360 C   0  0  0  0  0  0  0  0  0  0  0  0
    3.3865   18.0518    1.7384 H   0  0  0  0  0  0  0  0  0  0  0  0
    4.0142   16.8090    0.6034 H   0  0  0  0  0  0  0  0  0  0  0  0
    4.7169   18.4622    0.6034 H   0  0  0  0  0  0  0  0  0  0  0  0
    3.3089   18.5089   -1.2524 H   0  0  0  0  0  0  0  0  0  0  0  0
    2.7705   20.2675    0.6059 H   0  0  0  0  0  0  0  0  0  0  0  0
    1.6768   20.0802   -0.8473 H   0  0  0  0  0  0  0  0  0  0  0  0
    0.6653   18.3289    1.1075 H   0  0  0  0  0  0  0  0  0  0  0  0
    1.0536   19.8785    1.9643 H   0  0  0  0  0  0  0  0  0  0  0  0
    0.2019   20.6508   -0.2642 H   0  0  0  0  0  0  0  0  0  0  0  0
   -1.8661   17.7898    1.7530 H   0  0  0  0  0  0  0  0  0  0  0  0
   -2.8009   17.4724    0.2523 H   0  0  0  0  0  0  0  0  0  0  0  0
   -1.0137   17.2920    0.2523 H   0  0  0  0  0  0  0  0  0  0  0  0
   -3.5544   20.2805   -0.1928 H   0  0  0  0  0  0  0  0  0  0  0  0
   -2.2247   20.5930   -1.3594 H   0  0  0  0  0  0  0  0  0  0  0  0
   -3.0650   19.0053   -1.3594 H   0  0  0  0  0  0  0  0  0  0  0  0
    1.5156   16.9588    0.5144 H   0  0  0  0  0  0  0  0  0  0  0  0
   -0.2984   17.9846   -0.7063 H   0  0  0  0  0  0  0  0  0  0  0  0
    0.7845   18.5379   -2.0020 H   0  0  0  0  0  0  0  0  0  0  0  0
   -1.0057   16.3170   -2.1692 H   0  0  0  0  0  0  0  0  0  0  0  0
    0.3105   16.6115   -3.3022 H   0  0  0  0  0  0  0  0  0  0  0  0
    0.5350   15.1088    0.5300 H   0  0  0  0  0  0  0  0  0  0  0  0
   -0.9749   15.3594   -0.4103 H   0  0  0  0  0  0  0  0  0  0  0  0
   -0.1731   13.7520   -0.4103 H   0  0  0  0  0  0  0  0  0  0  0  0
    1.5536   14.5382   -3.4656 H   0  0  0  0  0  0  0  0  0  0  0  0
   -0.9735   14.1189   -3.1874 H   0  0  0  0  0  0  0  0  0  0  0  0
    0.0961   12.9279   -4.0957 H   0  0  0  0  0  0  0  0  0  0  0  0
   -1.7057   11.8811   -2.4841 H   0  0  0  0  0  0  0  0  0  0  0  0
    1.4874   12.5012   -0.0932 H   0  0  0  0  0  0  0  0  0  0  0  0
    2.3248   10.1428   -1.8915 H   0  0  0  0  0  0  0  0  0  0  0  0
    3.3212   10.9312   -0.5890 H   0  0  0  0  0  0  0  0  0  0  0  0
    2.3454    8.7799    0.1505 H   0  0  0  0  0  0  0  0  0  0  0  0
    1.7469   10.1924    1.1055 H   0  0  0  0  0  0  0  0  0  0  0  0
   -0.1053    8.7425    0.6319 H   0  0  0  0  0  0  0  0  0  0  0  0
   -0.5390    8.7470   -1.8910 H   0  0  0  0  0  0  0  0  0  0  0  0
   -0.6189   10.5084    1.7965 H   0  0  0  0  0  0  0  0  0  0  0  0
   -0.2314   12.1131    1.0884 H   0  0  0  0  0  0  0  0  0  0  0  0
   -1.9259   11.5169    1.0884 H   0  0  0  0  0  0  0  0  0  0  0  0
   -2.6504    9.8192    0.0148 H   0  0  0  0  0  0  0  0  0  0  0  0
   -2.5095   10.8273   -1.4652 H   0  0  0  0  0  0  0  0  0  0  0  0
   -1.8918    9.1406   -1.4652 H   0  0  0  0  0  0  0  0  0  0  0  0
    3.3536   11.4257   -2.9599 H   0  0  0  0  0  0  0  0  0  0  0  0
    1.8840   11.8602   -3.8971 H   0  0  0  0  0  0  0  0  0  0  0  0
    3.3062   12.9574   -3.8971 H   0  0  0  0  0  0  0  0  0  0  0  0
    3.8217   12.9428   -0.6670 H   0  0  0  0  0  0  0  0  0  0  0  0
    4.0154   14.0324   -2.1531 H   0  0  0  0  0  0  0  0  0  0  0  0
    2.5236   14.6506    0.4116 H   0  0  0  0  0  0  0  0  0  0  0  0
    4.0196   15.4285   -0.2404 H   0  0  0  0  0  0  0  0  0  0  0  0
    3.9629   16.9052   -2.1982 H   0  0  0  0  0  0  0  0  0  0  0  0
    3.3133   15.5218   -3.1421 H   0  0  0  0  0  0  0  0  0  0  0  0
    2.4464   17.0951   -3.1421 H   0  0  0  0  0  0  0  0  0  0  0  0
  1  2  1  0
  2  3  1  0
  3  4  1  0
  4  5  1  0
  5  6  1  0
  6  7  1  0
  7  8  1  0
  7  9  1  0
  2 10  1  0
 10 11  1  0
 11 12  1  0
 12 13  1  0
 13 14  1  1
 13 15  1  0
 15 16  1  0
 16 17  1  0
 17 18  2  0
 18 19  1  0
 19 20  1  0
 20 21  1  0
 21 22  1  0
 22 23  1  0
 22 24  1  0
 24 25  1  0
 24 26  1  0
 19 27  1  0
 27 28  1  6
 27 29  1  0
 29 30  1  0
 30 31  1  0
 31 32  1  6
  7  5  1  0
 31 10  1  0
 31 13  1  0
 27 15  1  0
 24 18  1  0
  1 33  1  0
  1 34  1  0
  1 35  1  0
  2 36  1  6
  3 37  1  0
  3 38  1  0
  4 39  1  0
  4 40  1  0
  5 41  1  6
  8 42  1  0
  8 43  1  0
  8 44  1  0
  9 45  1  0
  9 46  1  0
  9 47  1  0
 10 48  1  1
 11 49  1  0
 11 50  1  0
 12 51  1  0
 12 52  1  0
 14 53  1  0
 14 54  1  0
 14 55  1  0
 15 56  1  6
 16 57  1  0
 16 58  1  0
 17 59  1  0
 19 60  1  1
 20 61  1  0
 20 62  1  0
 21 63  1  0
 21 64  1  0
 22 65  1  1
 23 66  1  0
 25 67  1  0
 25 68  1  0
 25 69  1  0
 26 70  1  0
 26 71  1  0
 26 72  1  0
 28 73  1  0
 28 74  1  0
 28 75  1  0
 29 76  1  0
 29 77  1  0
 30 78  1  0
 30 79  1  0
 32 80  1  0
 32 81  1  0
 32 82  1  0
M  END
>  <meeko>  (5) 
{"is_sidechain": [false], "intermolecular_energy": 2.731, "internal_energy": -0.839}

$$$$
EPH_relaxed_0001_pdb2pqr_Repair_117_r2_0001_out
     RDKit          3D

 82 86  0  0  0  0  0  0  0  0999 V2000
    3.6610   11.4660   -5.0910 C   0  0  0  0  0  0  0  0  0  0  0  0
    2.1410   11.2850   -5.0440 C   0  0  2  0  0  0  0  0  0  0  0  0
    1.5370   11.0750   -6.4470 C   0  0  0  0  0  0  0  0  0  0  0  0
    2.0300   12.0840   -7.4870 C   0  0  0  0  0  0  0  0  0  0  0  0
    1.1480   13.2940   -7.5470 C   0  0  2  0  0  0  0  0  0  0  0  0
    0.2770   13.3440   -8.6840 O   0  0  0  0  0  0  0  0  0  0  0  0
    1.2770   14.3720   -8.6070 C   0  0  0  0  0  0  0  0  0  0  0  0
    2.3180   14.2910   -9.6800 C   0  0  0  0  0  0  0  0  0  0  0  0
    0.7230   15.7320   -8.3160 C   0  0  0  0  0  0  0  0  0  0  0  0
    1.4950   12.4920   -4.3740 C   0  0  1  0  0  0  0  0  0  0  0  0
   -0.0490   12.3660   -4.2770 C   0  0  0  0  0  0  0  0  0  0  0  0
   -0.4700   13.0410   -2.9460 C   0  0  0  0  0  0  0  0  0  0  0  0
    0.7860   13.8180   -2.4880 C   0  0  1  0  0  0  0  0  0  0  0  0
    0.7620   15.1420   -3.3140 C   0  0  0  0  0  0  0  0  0  0  0  0
    0.9060   14.0960   -0.9540 C   0  0  2  0  0  0  0  0  0  0  0  0
   -0.2080   14.9760   -0.3620 C   0  0  0  0  0  0  0  0  0  0  0  0
    0.0690   16.4430   -0.3650 C   0  0  0  0  0  0  0  0  0  0  0  0
    1.2730   17.0110   -0.5580 C   0  0  0  0  0  0  0  0  0  0  0  0
    2.5350   16.1510   -0.7060 C   0  0  1  0  0  0  0  0  0  0  0  0
    3.6660   16.7350    0.1810 C   0  0  0  0  0  0  0  0  0  0  0  0
    3.9290   18.2110   -0.1020 C   0  0  0  0  0  0  0  0  0  0  0  0
    2.6660   19.0410    0.1120 C   0  0  2  0  0  0  0  0  0  0  0  0
    2.3320   19.0210    1.5030 O   0  0  0  0  0  0  0  0  0  0  0  0
    1.4550   18.5400   -0.7240 C   0  0  0  0  0  0  0  0  0  0  0  0
    1.6980   18.8410   -2.2240 C   0  0  0  0  0  0  0  0  0  0  0  0
    0.2120   19.3730   -0.3090 C   0  0  0  0  0  0  0  0  0  0  0  0
    2.3380   14.5890   -0.4950 C   0  0  1  0  0  0  0  0  0  0  0  0
    2.4650   14.2360    1.0190 C   0  0  0  0  0  0  0  0  0  0  0  0
    3.4990   13.8200   -1.2290 C   0  0  0  0  0  0  0  0  0  0  0  0
    3.2720   13.4680   -2.7110 C   0  0  0  0  0  0  0  0  0  0  0  0
    1.9080   12.8010   -2.9130 C   0  0  2  0  0  0  0  0  0  0  0  0
    1.9100   11.4550   -2.1120 C   0  0  0  0  0  0  0  0  0  0  0  0
    4.0565   11.5131   -4.0656 H   0  0  0  0  0  0  0  0  0  0  0  0
    4.1153   10.6156   -5.6206 H   0  0  0  0  0  0  0  0  0  0  0  0
    3.9029   12.3993   -5.6206 H   0  0  0  0  0  0  0  0  0  0  0  0
    1.9337   10.3782   -4.4569 H   0  0  0  0  0  0  0  0  0  0  0  0
    1.8016   10.0643   -6.7912 H   0  0  0  0  0  0  0  0  0  0  0  0
    0.4501   11.2155   -6.3531 H   0  0  0  0  0  0  0  0  0  0  0  0
    3.0501   12.3992   -7.2222 H   0  0  0  0  0  0  0  0  0  0  0  0
    2.0113   11.5969   -8.4731 H   0  0  0  0  0  0  0  0  0  0  0  0
    1.0982   13.3410   -6.4491 H   0  0  0  0  0  0  0  0  0  0  0  0
    3.3140   14.2135   -9.2195 H   0  0  0  0  0  0  0  0  0  0  0  0
    2.1328   13.4046  -10.3044 H   0  0  0  0  0  0  0  0  0  0  0  0
    2.2721   15.1954  -10.3044 H   0  0  0  0  0  0  0  0  0  0  0  0
    0.6634   15.8784   -7.2274 H   0  0  0  0  0  0  0  0  0  0  0  0
    1.3811   16.4973   -8.7534 H   0  0  0  0  0  0  0  0  0  0  0  0
   -0.2825   15.8196   -8.7534 H   0  0  0  0  0  0  0  0  0  0  0  0
    1.8546   13.2880   -5.0426 H   0  0  0  0  0  0  0  0  0  0  0  0
   -0.5249   12.8760   -5.1275 H   0  0  0  0  0  0  0  0  0  0  0  0
   -0.3616   11.3116   -4.3014 H   0  0  0  0  0  0  0  0  0  0  0  0
   -1.3136   13.7279   -3.1088 H   0  0  0  0  0  0  0  0  0  0  0  0
   -0.8049   12.3100   -2.1954 H   0  0  0  0  0  0  0  0  0  0  0  0
    0.7464   16.0018   -2.6281 H   0  0  0  0  0  0  0  0  0  0  0  0
    1.6593   15.1949   -3.9480 H   0  0  0  0  0  0  0  0  0  0  0  0
   -0.1367   15.1624   -3.9480 H   0  0  0  0  0  0  0  0  0  0  0  0
    0.7588   13.0959   -0.5202 H   0  0  0  0  0  0  0  0  0  0  0  0
   -1.1245   14.8019   -0.9448 H   0  0  0  0  0  0  0  0  0  0  0  0
   -0.2963   14.6851    0.6951 H   0  0  0  0  0  0  0  0  0  0  0  0
   -0.7838   17.1166   -0.1950 H   0  0  0  0  0  0  0  0  0  0  0  0
    2.8228   16.2124   -1.7659 H   0  0  0  0  0  0  0  0  0  0  0  0
    3.3786   16.6243    1.2370 H   0  0  0  0  0  0  0  0  0  0  0  0
    4.5888   16.1818   -0.0478 H   0  0  0  0  0  0  0  0  0  0  0  0
    4.7165   18.5727    0.5755 H   0  0  0  0  0  0  0  0  0  0  0  0
    4.2451   18.3166   -1.1503 H   0  0  0  0  0  0  0  0  0  0  0  0
    2.8811   20.0641   -0.2301 H   0  0  0  0  0  0  0  0  0  0  0  0
    1.9340   19.8800    1.7220 H   0  0  0  0  0  0  0  0  0  0  0  0
    2.3863   19.6936   -2.3201 H   0  0  0  0  0  0  0  0  0  0  0  0
    2.1389   17.9574   -2.7085 H   0  0  0  0  0  0  0  0  0  0  0  0
    0.7413   19.0857   -2.7085 H   0  0  0  0  0  0  0  0  0  0  0  0
    0.1487   19.4154    0.7884 H   0  0  0  0  0  0  0  0  0  0  0  0
    0.3034   20.3930   -0.7107 H   0  0  0  0  0  0  0  0  0  0  0  0
   -0.6966   18.9008   -0.7107 H   0  0  0  0  0  0  0  0  0  0  0  0
    2.1541   15.1002    1.6243 H   0  0  0  0  0  0  0  0  0  0  0  0
    1.8201   13.3754    1.2502 H   0  0  0  0  0  0  0  0  0  0  0  0
    3.5104   13.9835    1.2502 H   0  0  0  0  0  0  0  0  0  0  0  0
    4.4016   14.4460   -1.1704 H   0  0  0  0  0  0  0  0  0  0  0  0
    3.5742   12.8520   -0.7120 H   0  0  0  0  0  0  0  0  0  0  0  0
    3.3143   14.3894   -3.3103 H   0  0  0  0  0  0  0  0  0  0  0  0
    4.0566   12.7656   -3.0290 H   0  0  0  0  0  0  0  0  0  0  0  0
    1.9097   11.6703   -1.0333 H   0  0  0  0  0  0  0  0  0  0  0  0
    1.0127   10.8734   -2.3701 H   0  0  0  0  0  0  0  0  0  0  0  0
    2.8090   10.8761   -2.3701 H   0  0  0  0  0  0  0  0  0  0  0  0
  1  2  1  0
  2  3  1  0
  3  4  1  0
  4  5  1  0
  5  6  1  0
  6  7  1  0
  7  8  1  0
  7  9  1  0
  2 10  1  0
 10 11  1  0
 11 12  1  0
 12 13  1  0
 13 14  1  6
 13 15  1  0
 15 16  1  0
 16 17  1  0
 17 18  2  0
 18 19  1  0
 19 20  1  0
 20 21  1  0
 21 22  1  0
 22 23  1  0
 22 24  1  0
 24 25  1  0
 24 26  1  0
 19 27  1  0
 27 28  1  1
 27 29  1  0
 29 30  1  0
 30 31  1  0
 31 32  1  1
  7  5  1  0
 31 10  1  0
 31 13  1  0
 27 15  1  0
 24 18  1  0
  1 33  1  0
  1 34  1  0
  1 35  1  0
  2 36  1  1
  3 37  1  0
  3 38  1  0
  4 39  1  0
  4 40  1  0
  5 41  1  1
  8 42  1  0
  8 43  1  0
  8 44  1  0
  9 45  1  0
  9 46  1  0
  9 47  1  0
 10 48  1  6
 11 49  1  0
 11 50  1  0
 12 51  1  0
 12 52  1  0
 14 53  1  0
 14 54  1  0
 14 55  1  0
 15 56  1  1
 16 57  1  0
 16 58  1  0
 17 59  1  0
 19 60  1  6
 20 61  1  0
 20 62  1  0
 21 63  1  0
 21 64  1  0
 22 65  1  6
 23 66  1  0
 25 67  1  0
 25 68  1  0
 25 69  1  0
 26 70  1  0
 26 71  1  0
 26 72  1  0
 28 73  1  0
 28 74  1  0
 28 75  1  0
 29 76  1  0
 29 77  1  0
 30 78  1  0
 30 79  1  0
 32 80  1  0
 32 81  1  0
 32 82  1  0
M  END
>  <meeko>  (6) 
{"is_sidechain": [false], "intermolecular_energy": 2.731, "internal_energy": -0.839}

$$$$
EPH_relaxed_0001_pdb2pqr_Repair_117_r2_0001_out
     RDKit          3D

 82 86  0  0  0  0  0  0  0  0999 V2000
   -5.1820    5.9480   -1.7110 C   0  0  0  0  0  0  0  0  0  0  0  0
   -5.4690    7.4380   -1.9130 C   0  0  2  0  0  0  0  0  0  0  0  0
   -5.1900    8.2620   -0.6400 C   0  0  0  0  0  0  0  0  0  0  0  0
   -4.1880    9.4000   -0.8500 C   0  0  0  0  0  0  0  0  0  0  0  0
   -2.7960    8.9910   -0.4750 C   0  0  2  0  0  0  0  0  0  0  0  0
   -2.2220    9.7400    0.6040 O   0  0  0  0  0  0  0  0  0  0  0  0
   -1.5810    9.8770   -0.6740 C   0  0  0  0  0  0  0  0  0  0  0  0
   -1.7010   11.2440   -1.2720 C   0  0  0  0  0  0  0  0  0  0  0  0
   -0.2300    9.2350   -0.7430 C   0  0  0  0  0  0  0  0  0  0  0  0
   -6.9150    7.6340   -2.3540 C   0  0  1  0  0  0  0  0  0  0  0  0
   -7.2360    6.9110   -3.6890 C   0  0  0  0  0  0  0  0  0  0  0  0
   -8.7010    6.4150   -3.5880 C   0  0  0  0  0  0  0  0  0  0  0  0
   -9.2770    7.1480   -2.3540 C   0  0  1  0  0  0  0  0  0  0  0  0
   -9.6600    8.5690   -2.8730 C   0  0  0  0  0  0  0  0  0  0  0  0
  -10.4790    6.4520   -1.6360 C   0  0  2  0  0  0  0  0  0  0  0  0
  -11.7470    6.2920   -2.4920 C   0  0  0  0  0  0  0  0  0  0  0  0
  -12.7180    7.4230   -2.4120 C   0  0  0  0  0  0  0  0  0  0  0  0
  -12.7190    8.3870   -1.4730 C   0  0  0  0  0  0  0  0  0  0  0  0
  -11.7320    8.3460   -0.3000 C   0  0  1  0  0  0  0  0  0  0  0  0
  -12.4880    8.6340    1.0230 C   0  0  0  0  0  0  0  0  0  0  0  0
  -13.2790    9.9370    0.9730 C   0  0  0  0  0  0  0  0  0  0  0  0
  -14.2910    9.9170   -0.1700 C   0  0  2  0  0  0  0  0  0  0  0  0
  -15.2870    8.9310    0.1130 O   0  0  0  0  0  0  0  0  0  0  0  0
  -13.6450    9.6250   -1.5540 C   0  0  0  0  0  0  0  0  0  0  0  0
  -12.7940   10.8410   -1.9980 C   0  0  0  0  0  0  0  0  0  0  0  0
  -14.7890    9.4930   -2.5960 C   0  0  0  0  0  0  0  0  0  0  0  0
  -10.8160    7.0500   -0.2100 C   0  0  1  0  0  0  0  0  0  0  0  0
  -11.5580    5.9280    0.5790 C   0  0  0  0  0  0  0  0  0  0  0  0
   -9.5210    7.3920    0.6170 C   0  0  0  0  0  0  0  0  0  0  0  0
   -8.3260    7.9650   -0.1680 C   0  0  0  0  0  0  0  0  0  0  0  0
   -8.0240    7.1130   -1.4050 C   0  0  2  0  0  0  0  0  0  0  0  0
   -7.6130    5.6840   -0.9130 C   0  0  0  0  0  0  0  0  0  0  0  0
   -5.1391    5.7255   -0.6346 H   0  0  0  0  0  0  0  0  0  0  0  0
   -5.9822    5.3540   -2.1766 H   0  0  0  0  0  0  0  0  0  0  0  0
   -4.2184    5.6938   -2.1766 H   0  0  0  0  0  0  0  0  0  0  0  0
   -4.7885    7.8020   -2.6969 H   0  0  0  0  0  0  0  0  0  0  0  0
   -6.1393    8.6952   -0.2919 H   0  0  0  0  0  0  0  0  0  0  0  0
   -4.7465    7.5754    0.0962 H   0  0  0  0  0  0  0  0  0  0  0  0
   -4.1996    9.6938   -1.9100 H   0  0  0  0  0  0  0  0  0  0  0  0
   -4.4837   10.2399   -0.2041 H   0  0  0  0  0  0  0  0  0  0  0  0
   -3.0021    7.9476   -0.7558 H   0  0  0  0  0  0  0  0  0  0  0  0
   -1.7666   11.9916   -0.4677 H   0  0  0  0  0  0  0  0  0  0  0  0
   -0.8176   11.4510   -1.8939 H   0  0  0  0  0  0  0  0  0  0  0  0
   -2.6070   11.2939   -1.8939 H   0  0  0  0  0  0  0  0  0  0  0  0
    0.1440    9.0573    0.2761 H   0  0  0  0  0  0  0  0  0  0  0  0
   -0.3062    8.2768   -1.2779 H   0  0  0  0  0  0  0  0  0  0  0  0
    0.4647    9.8993   -1.2779 H   0  0  0  0  0  0  0  0  0  0  0  0
   -6.9458    8.7325   -2.4028 H   0  0  0  0  0  0  0  0  0  0  0  0
   -7.1296    7.6087   -4.5327 H   0  0  0  0  0  0  0  0  0  0  0  0
   -6.5457    6.0717   -3.8595 H   0  0  0  0  0  0  0  0  0  0  0  0
   -9.2641    6.6801   -4.4950 H   0  0  0  0  0  0  0  0  0  0  0  0
   -8.7653    5.3212   -3.4910 H   0  0  0  0  0  0  0  0  0  0  0  0
   -9.8397    9.2359   -2.0169 H   0  0  0  0  0  0  0  0  0  0  0  0
   -8.8379    8.9701   -3.4840 H   0  0  0  0  0  0  0  0  0  0  0  0
  -10.5723    8.5026   -3.4840 H   0  0  0  0  0  0  0  0  0  0  0  0
  -10.0984    5.4328   -1.4735 H   0  0  0  0  0  0  0  0  0  0  0  0
  -11.4368    6.1841   -3.5418 H   0  0  0  0  0  0  0  0  0  0  0  0
  -12.2728    5.4112   -2.0948 H   0  0  0  0  0  0  0  0  0  0  0  0
  -13.4984    7.4726   -3.1857 H   0  0  0  0  0  0  0  0  0  0  0  0
  -10.9984    9.1430   -0.4915 H   0  0  0  0  0  0  0  0  0  0  0  0
  -13.1850    7.8057    1.2183 H   0  0  0  0  0  0  0  0  0  0  0  0
  -11.7381    8.7292    1.8221 H   0  0  0  0  0  0  0  0  0  0  0  0
  -13.8137   10.0704    1.9250 H   0  0  0  0  0  0  0  0  0  0  0  0
  -12.5774   10.7677    0.8065 H   0  0  0  0  0  0  0  0  0  0  0  0
  -14.7346   10.9215   -0.2357 H   0  0  0  0  0  0  0  0  0  0  0  0
  -16.0700    9.3930    0.4580 H   0  0  0  0  0  0  0  0  0  0  0  0
  -12.4222   11.3723   -1.1095 H   0  0  0  0  0  0  0  0  0  0  0  0
  -11.9419   10.4921   -2.5999 H   0  0  0  0  0  0  0  0  0  0  0  0
  -13.4136   11.5220   -2.5999 H   0  0  0  0  0  0  0  0  0  0  0  0
  -15.7503    9.3821   -2.0730 H   0  0  0  0  0  0  0  0  0  0  0  0
  -14.8164   10.3939   -3.2265 H   0  0  0  0  0  0  0  0  0  0  0  0
  -14.6105    8.6095   -3.2265 H   0  0  0  0  0  0  0  0  0  0  0  0
  -11.4430    6.1019    1.6591 H   0  0  0  0  0  0  0  0  0  0  0  0
  -12.6263    5.9408    0.3172 H   0  0  0  0  0  0  0  0  0  0  0  0
  -11.1280    4.9499    0.3172 H   0  0  0  0  0  0  0  0  0  0  0  0
   -9.8007    8.1304    1.3828 H   0  0  0  0  0  0  0  0  0  0  0  0
   -9.1694    6.4277    1.0125 H   0  0  0  0  0  0  0  0  0  0  0  0
   -8.5632    8.9908   -0.4866 H   0  0  0  0  0  0  0  0  0  0  0  0
   -7.4416    7.9601    0.4860 H   0  0  0  0  0  0  0  0  0  0  0  0
   -7.6068    5.6626    0.1868 H   0  0  0  0  0  0  0  0  0  0  0  0
   -8.3349    4.9447   -1.2901 H   0  0  0  0  0  0  0  0  0  0  0  0
   -6.6086    5.4412   -1.2901 H   0  0  0  0  0  0  0  0  0  0  0  0
  1  2  1  0
  2  3  1  0
  3  4  1  0
  4  5  1  0
  5  6  1  0
  6  7  1  0
  7  8  1  0
  7  9  1  0
  2 10  1  0
 10 11  1  0
 11 12  1  0
 12 13  1  0
 13 14  1  6
 13 15  1  0
 15 16  1  0
 16 17  1  0
 17 18  2  0
 18 19  1  0
 19 20  1  0
 20 21  1  0
 21 22  1  0
 22 23  1  0
 22 24  1  0
 24 25  1  0
 24 26  1  0
 19 27  1  0
 27 28  1  1
 27 29  1  0
 29 30  1  0
 30 31  1  0
 31 32  1  1
  7  5  1  0
 31 10  1  0
 31 13  1  0
 27 15  1  0
 24 18  1  0
  1 33  1  0
  1 34  1  0
  1 35  1  0
  2 36  1  6
  3 37  1  0
  3 38  1  0
  4 39  1  0
  4 40  1  0
  5 41  1  1
  8 42  1  0
  8 43  1  0
  8 44  1  0
  9 45  1  0
  9 46  1  0
  9 47  1  0
 10 48  1  6
 11 49  1  0
 11 50  1  0
 12 51  1  0
 12 52  1  0
 14 53  1  0
 14 54  1  0
 14 55  1  0
 15 56  1  1
 16 57  1  0
 16 58  1  0
 17 59  1  0
 19 60  1  6
 20 61  1  0
 20 62  1  0
 21 63  1  0
 21 64  1  0
 22 65  1  6
 23 66  1  0
 25 67  1  0
 25 68  1  0
 25 69  1  0
 26 70  1  0
 26 71  1  0
 26 72  1  0
 28 73  1  0
 28 74  1  0
 28 75  1  0
 29 76  1  0
 29 77  1  0
 30 78  1  0
 30 79  1  0
 32 80  1  0
 32 81  1  0
 32 82  1  0
M  END
>  <meeko>  (7) 
{"is_sidechain": [false], "intermolecular_energy": 2.731, "internal_energy": -0.839}

$$$$
EPH_relaxed_0001_pdb2pqr_Repair_117_r2_0001_out
     RDKit          3D

 82 86  0  0  0  0  0  0  0  0999 V2000
   -0.0110   13.5090   -8.3840 C   0  0  0  0  0  0  0  0  0  0  0  0
    1.4530   13.5530   -7.9360 C   0  0  2  0  0  0  0  0  0  0  0  0
    2.4220   13.1920   -9.0800 C   0  0  0  0  0  0  0  0  0  0  0  0
    2.6520   14.3320  -10.0750 C   0  0  0  0  0  0  0  0  0  0  0  0
    1.4530   15.2250  -10.1810 C   0  0  2  0  0  0  0  0  0  0  0  0
    1.7230   16.5280  -10.7150 O   0  0  0  0  0  0  0  0  0  0  0  0
    1.2700   16.4830   -9.3520 C   0  0  0  0  0  0  0  0  0  0  0  0
    2.2980   16.9160   -8.3550 C   0  0  0  0  0  0  0  0  0  0  0  0
   -0.1150   17.0170   -9.1590 C   0  0  0  0  0  0  0  0  0  0  0  0
    1.6640   12.6100   -6.7570 C   0  0  1  0  0  0  0  0  0  0  0  0
    3.1350   12.1310   -6.6310 C   0  0  0  0  0  0  0  0  0  0  0  0
    3.4330   11.9940   -5.1160 C   0  0  0  0  0  0  0  0  0  0  0  0
    2.0450   12.0740   -4.4370 C   0  0  1  0  0  0  0  0  0  0  0  0
    1.4470   10.6390   -4.5770 C   0  0  0  0  0  0  0  0  0  0  0  0
    2.0300   12.5640   -2.9520 C   0  0  2  0  0  0  0  0  0  0  0  0
    2.7840   11.6620   -1.9600 C   0  0  0  0  0  0  0  0  0  0  0  0
    1.9640   10.5900   -1.3210 C   0  0  0  0  0  0  0  0  0  0  0  0
    0.6190   10.5350   -1.3140 C   0  0  0  0  0  0  0  0  0  0  0  0
   -0.2200   11.6730   -1.9100 C   0  0  1  0  0  0  0  0  0  0  0  0
   -1.3610   12.0440   -0.9270 C   0  0  0  0  0  0  0  0  0  0  0  0
   -2.2100   10.8390   -0.5330 C   0  0  0  0  0  0  0  0  0  0  0  0
   -1.3500    9.7530    0.1090 C   0  0  2  0  0  0  0  0  0  0  0  0
   -0.8540   10.2380    1.3610 O   0  0  0  0  0  0  0  0  0  0  0  0
   -0.1600    9.3050   -0.7860 C   0  0  0  0  0  0  0  0  0  0  0  0
   -0.6950    8.5100   -2.0030 C   0  0  0  0  0  0  0  0  0  0  0  0
    0.7070    8.3120    0.0350 C   0  0  0  0  0  0  0  0  0  0  0  0
    0.5920   12.9440   -2.4100 C   0  0  1  0  0  0  0  0  0  0  0  0
    0.8110   13.9350   -1.2270 C   0  0  0  0  0  0  0  0  0  0  0  0
   -0.2670   13.7140   -3.4810 C   0  0  0  0  0  0  0  0  0  0  0  0
   -0.1180   13.2620   -4.9470 C   0  0  0  0  0  0  0  0  0  0  0  0
    1.3590   13.1610   -5.3420 C   0  0  2  0  0  0  0  0  0  0  0  0
    1.9820   14.5940   -5.2320 C   0  0  0  0  0  0  0  0  0  0  0  0
   -0.6647   13.4894   -7.4995 H   0  0  0  0  0  0  0  0  0  0  0  0
   -0.2369   14.4008   -8.9871 H   0  0  0  0  0  0  0  0  0  0  0  0
   -0.1829   12.6053   -8.9871 H   0  0  0  0  0  0  0  0  0  0  0  0
    1.6746   14.5861   -7.6302 H   0  0  0  0  0  0  0  0  0  0  0  0
    3.3911   12.9147   -8.6396 H   0  0  0  0  0  0  0  0  0  0  0  0
    1.9631   12.3642   -9.6404 H   0  0  0  0  0  0  0  0  0  0  0  0
    3.5129   14.9292   -9.7402 H   0  0  0  0  0  0  0  0  0  0  0  0
    2.8397   13.8907  -11.0650 H   0  0  0  0  0  0  0  0  0  0  0  0
    0.7969   14.3617  -10.3659 H   0  0  0  0  0  0  0  0  0  0  0  0
    1.9130   16.7538   -7.3374 H   0  0  0  0  0  0  0  0  0  0  0  0
    3.2171   16.3285   -8.4973 H   0  0  0  0  0  0  0  0  0  0  0  0
    2.5198   17.9840   -8.4973 H   0  0  0  0  0  0  0  0  0  0  0  0
   -0.3295   17.0997   -8.0833 H   0  0  0  0  0  0  0  0  0  0  0  0
   -0.1935   18.0099   -9.6259 H   0  0  0  0  0  0  0  0  0  0  0  0
   -0.8398   16.3338   -9.6259 H   0  0  0  0  0  0  0  0  0  0  0  0
    0.9407   11.8236   -7.0185 H   0  0  0  0  0  0  0  0  0  0  0  0
    3.2611   11.1594   -7.1311 H   0  0  0  0  0  0  0  0  0  0  0  0
    3.8245   12.8444   -7.1060 H   0  0  0  0  0  0  0  0  0  0  0  0
    3.9157   11.0293   -4.9008 H   0  0  0  0  0  0  0  0  0  0  0  0
    4.1204   12.7727   -4.7537 H   0  0  0  0  0  0  0  0  0  0  0  0
    1.2707   10.2161   -3.5770 H   0  0  0  0  0  0  0  0  0  0  0  0
    0.4954   10.6903   -5.1263 H   0  0  0  0  0  0  0  0  0  0  0  0
    2.1535    9.9994   -5.1263 H   0  0  0  0  0  0  0  0  0  0  0  0
    2.6086   13.4980   -3.0053 H   0  0  0  0  0  0  0  0  0  0  0  0
    3.6117   11.1798   -2.5008 H   0  0  0  0  0  0  0  0  0  0  0  0
    3.1150   12.3194   -1.1425 H   0  0  0  0  0  0  0  0  0  0  0  0
    2.5043    9.7772   -0.8135 H   0  0  0  0  0  0  0  0  0  0  0  0
   -0.6458   11.2800   -2.8450 H   0  0  0  0  0  0  0  0  0  0  0  0
   -0.9166   12.4745   -0.0175 H   0  0  0  0  0  0  0  0  0  0  0  0
   -2.0191   12.7634   -1.4362 H   0  0  0  0  0  0  0  0  0  0  0  0
   -2.9797   11.1599    0.1844 H   0  0  0  0  0  0  0  0  0  0  0  0
   -2.6775   10.4270   -1.4395 H   0  0  0  0  0  0  0  0  0  0  0  0
   -1.9874    8.8676    0.2500 H   0  0  0  0  0  0  0  0  0  0  0  0
   -0.8700   11.2090    1.3270 H   0  0  0  0  0  0  0  0  0  0  0  0
   -1.2766    7.6458   -1.6495 H   0  0  0  0  0  0  0  0  0  0  0  0
   -1.3393    9.1613   -2.6119 H   0  0  0  0  0  0  0  0  0  0  0  0
    0.1509    8.1584   -2.6119 H   0  0  0  0  0  0  0  0  0  0  0  0
    0.5511    8.4906    1.1092 H   0  0  0  0  0  0  0  0  0  0  0  0
    0.4154    7.2803   -0.2113 H   0  0  0  0  0  0  0  0  0  0  0  0
    1.7686    8.4618   -0.2113 H   0  0  0  0  0  0  0  0  0  0  0  0
    0.6927   13.3995   -0.2734 H   0  0  0  0  0  0  0  0  0  0  0  0
    1.8244   14.3586   -1.2863 H   0  0  0  0  0  0  0  0  0  0  0  0
    0.0705   14.7462   -1.2863 H   0  0  0  0  0  0  0  0  0  0  0  0
   -1.3253   13.5997   -3.2035 H   0  0  0  0  0  0  0  0  0  0  0  0
    0.1061   14.7486   -3.4595 H   0  0  0  0  0  0  0  0  0  0  0  0
   -0.5916   12.2768   -5.0698 H   0  0  0  0  0  0  0  0  0  0  0  0
   -0.6044   14.0062   -5.5948 H   0  0  0  0  0  0  0  0  0  0  0  0
    2.0988   14.8626   -4.1717 H   0  0  0  0  0  0  0  0  0  0  0  0
    2.9660   14.6047   -5.7235 H   0  0  0  0  0  0  0  0  0  0  0  0
    1.3187   15.3209   -5.7235 H   0  0  0  0  0  0  0  0  0  0  0  0
  1  2  1  0
  2  3  1  0
  3  4  1  0
  4  5  1  0
  5  6  1  0
  6  7  1  0
  7  8  1  0
  7  9  1  0
  2 10  1  0
 10 11  1  0
 11 12  1  0
 12 13  1  0
 13 14  1  1
 13 15  1  0
 15 16  1  0
 16 17  1  0
 17 18  2  0
 18 19  1  0
 19 20  1  0
 20 21  1  0
 21 22  1  0
 22 23  1  0
 22 24  1  0
 24 25  1  0
 24 26  1  0
 19 27  1  0
 27 28  1  1
 27 29  1  0
 29 30  1  0
 30 31  1  0
 31 32  1  6
  7  5  1  0
 31 10  1  0
 31 13  1  0
 27 15  1  0
 24 18  1  0
  1 33  1  0
  1 34  1  0
  1 35  1  0
  2 36  1  1
  3 37  1  0
  3 38  1  0
  4 39  1  0
  4 40  1  0
  5 41  1  6
  8 42  1  0
  8 43  1  0
  8 44  1  0
  9 45  1  0
  9 46  1  0
  9 47  1  0
 10 48  1  6
 11 49  1  0
 11 50  1  0
 12 51  1  0
 12 52  1  0
 14 53  1  0
 14 54  1  0
 14 55  1  0
 15 56  1  6
 16 57  1  0
 16 58  1  0
 17 59  1  0
 19 60  1  6
 20 61  1  0
 20 62  1  0
 21 63  1  0
 21 64  1  0
 22 65  1  1
 23 66  1  0
 25 67  1  0
 25 68  1  0
 25 69  1  0
 26 70  1  0
 26 71  1  0
 26 72  1  0
 28 73  1  0
 28 74  1  0
 28 75  1  0
 29 76  1  0
 29 77  1  0
 30 78  1  0
 30 79  1  0
 32 80  1  0
 32 81  1  0
 32 82  1  0
M  END
>  <meeko>  (8) 
{"is_sidechain": [false], "intermolecular_energy": 2.731, "internal_energy": -0.839}

$$$$
EPH_relaxed_0001_pdb2pqr_Repair_117_r2_0001_out
     RDKit          3D

 82 86  0  0  0  0  0  0  0  0999 V2000
    1.6350   13.0450   -8.8450 C   0  0  0  0  0  0  0  0  0  0  0  0
    0.6480   13.3670   -7.7200 C   0  0  2  0  0  0  0  0  0  0  0  0
    0.7460   14.8370   -7.2640 C   0  0  0  0  0  0  0  0  0  0  0  0
    0.6030   15.8460   -8.4070 C   0  0  0  0  0  0  0  0  0  0  0  0
    1.8550   15.9380   -9.2260 C   0  0  2  0  0  0  0  0  0  0  0  0
    1.7660   16.8140  -10.3580 O   0  0  0  0  0  0  0  0  0  0  0  0
    1.9640   15.4200  -10.6470 C   0  0  0  0  0  0  0  0  0  0  0  0
    0.8030   14.7710  -11.3330 C   0  0  0  0  0  0  0  0  0  0  0  0
    3.3230   15.1050  -11.1910 C   0  0  0  0  0  0  0  0  0  0  0  0
    0.8870   12.4380   -6.5360 C   0  0  1  0  0  0  0  0  0  0  0  0
    1.9680   11.3630   -6.8300 C   0  0  0  0  0  0  0  0  0  0  0  0
    2.7320   11.1230   -5.5020 C   0  0  0  0  0  0  0  0  0  0  0  0
    1.8630   11.8090   -4.4220 C   0  0  1  0  0  0  0  0  0  0  0  0
    0.7320   10.7810   -4.1040 C   0  0  0  0  0  0  0  0  0  0  0  0
    2.6070   12.2690   -3.1260 C   0  0  2  0  0  0  0  0  0  0  0  0
    3.2460   11.1360   -2.3040 C   0  0  0  0  0  0  0  0  0  0  0  0
    2.3700   10.5390   -1.2530 C   0  0  0  0  0  0  0  0  0  0  0  0
    1.2290   11.0790   -0.7860 C   0  0  0  0  0  0  0  0  0  0  0  0
    0.7640   12.4640   -1.2530 C   0  0  1  0  0  0  0  0  0  0  0  0
    0.3320   13.3070   -0.0250 C   0  0  0  0  0  0  0  0  0  0  0  0
   -0.7130   12.6000    0.8320 C   0  0  0  0  0  0  0  0  0  0  0  0
   -0.1920   11.2520    1.3260 C   0  0  2  0  0  0  0  0  0  0  0  0
    0.8880   11.4810    2.2360 O   0  0  0  0  0  0  0  0  0  0  0  0
    0.2820   10.3200    0.1760 C   0  0  0  0  0  0  0  0  0  0  0  0
   -0.9430    9.8290   -0.6340 C   0  0  0  0  0  0  0  0  0  0  0  0
    0.9140    9.0550    0.8170 C   0  0  0  0  0  0  0  0  0  0  0  0
    1.7660   13.2460   -2.2080 C   0  0  1  0  0  0  0  0  0  0  0  0
    2.7940   14.0510   -1.3560 C   0  0  0  0  0  0  0  0  0  0  0  0
    0.9560   14.3050   -3.0460 C   0  0  0  0  0  0  0  0  0  0  0  0
    0.3470   13.8210   -4.3750 C   0  0  0  0  0  0  0  0  0  0  0  0
    1.3880   13.0790   -5.2180 C   0  0  2  0  0  0  0  0  0  0  0  0
    2.5280   14.0950   -5.5720 C   0  0  0  0  0  0  0  0  0  0  0  0
    2.5960   12.7315   -8.4111 H   0  0  0  0  0  0  0  0  0  0  0  0
    1.2306   12.2322   -9.4661 H   0  0  0  0  0  0  0  0  0  0  0  0
    1.7877   13.9399   -9.4661 H   0  0  0  0  0  0  0  0  0  0  0  0
   -0.3663   13.2109   -8.1160 H   0  0  0  0  0  0  0  0  0  0  0  0
   -0.0516   15.0272   -6.5308 H   0  0  0  0  0  0  0  0  0  0  0  0
    1.7501   14.9751   -6.8365 H   0  0  0  0  0  0  0  0  0  0  0  0
   -0.2263   15.5320   -9.0579 H   0  0  0  0  0  0  0  0  0  0  0  0
    0.4072   16.8355   -7.9681 H   0  0  0  0  0  0  0  0  0  0  0  0
    2.4791   15.7809   -8.3339 H   0  0  0  0  0  0  0  0  0  0  0  0
    0.1036   14.3800  -10.5794 H   0  0  0  0  0  0  0  0  0  0  0  0
    0.2878   15.5119  -11.9619 H   0  0  0  0  0  0  0  0  0  0  0  0
    1.1643   13.9440  -11.9619 H   0  0  0  0  0  0  0  0  0  0  0  0
    4.0228   14.9428  -10.3580 H   0  0  0  0  0  0  0  0  0  0  0  0
    3.2695   14.1955  -11.8073 H   0  0  0  0  0  0  0  0  0  0  0  0
    3.6751   15.9454  -11.8073 H   0  0  0  0  0  0  0  0  0  0  0  0
   -0.1321   12.0469   -6.3997 H   0  0  0  0  0  0  0  0  0  0  0  0
    1.4928   10.4302   -7.1677 H   0  0  0  0  0  0  0  0  0  0  0  0
    2.6516   11.6968   -7.6245 H   0  0  0  0  0  0  0  0  0  0  0  0
    2.8269   10.0463   -5.2978 H   0  0  0  0  0  0  0  0  0  0  0  0
    3.7554   11.5252   -5.5312 H   0  0  0  0  0  0  0  0  0  0  0  0
    0.6227   10.6816   -3.0140 H   0  0  0  0  0  0  0  0  0  0  0  0
   -0.2159   11.1331   -4.5370 H   0  0  0  0  0  0  0  0  0  0  0  0
    0.9923    9.8039   -4.5370 H   0  0  0  0  0  0  0  0  0  0  0  0
    3.4458   12.8545   -3.5304 H   0  0  0  0  0  0  0  0  0  0  0  0
    3.5378   10.3347   -2.9989 H   0  0  0  0  0  0  0  0  0  0  0  0
    4.0957   11.5881   -1.7714 H   0  0  0  0  0  0  0  0  0  0  0  0
    2.6836    9.5760   -0.8238 H   0  0  0  0  0  0  0  0  0  0  0  0
   -0.1020   12.2889   -1.9083 H   0  0  0  0  0  0  0  0  0  0  0  0
    1.2186   13.5077    0.5943 H   0  0  0  0  0  0  0  0  0  0  0  0
   -0.1187   14.2374   -0.4008 H   0  0  0  0  0  0  0  0  0  0  0  0
   -0.9551   13.2321    1.6991 H   0  0  0  0  0  0  0  0  0  0  0  0
   -1.6104   12.4268    0.2199 H   0  0  0  0  0  0  0  0  0  0  0  0
   -1.0275   10.7370    1.8227 H   0  0  0  0  0  0  0  0  0  0  0  0
    0.9270   12.4370    2.4130 H   0  0  0  0  0  0  0  0  0  0  0  0
   -1.7366    9.5109    0.0581 H   0  0  0  0  0  0  0  0  0  0  0  0
   -1.3154   10.6473   -1.2677 H   0  0  0  0  0  0  0  0  0  0  0  0
   -0.6471    8.9800   -1.2677 H   0  0  0  0  0  0  0  0  0  0  0  0
    0.8719    9.1393    1.9130 H   0  0  0  0  0  0  0  0  0  0  0  0
    0.3555    8.1633    0.4961 H   0  0  0  0  0  0  0  0  0  0  0  0
    1.9624    8.9661    0.4961 H   0  0  0  0  0  0  0  0  0  0  0  0
    2.5895   13.8909   -0.2871 H   0  0  0  0  0  0  0  0  0  0  0  0
    3.8126   13.7079   -1.5899 H   0  0  0  0  0  0  0  0  0  0  0  0
    2.7051   15.1222   -1.5899 H   0  0  0  0  0  0  0  0  0  0  0  0
    0.1314   14.6683   -2.4150 H   0  0  0  0  0  0  0  0  0  0  0  0
    1.6923   15.0715   -3.3294 H   0  0  0  0  0  0  0  0  0  0  0  0
   -0.4918   13.1425   -4.1603 H   0  0  0  0  0  0  0  0  0  0  0  0
   -0.0014   14.6978   -4.9406 H   0  0  0  0  0  0  0  0  0  0  0  0
    2.9695   14.4885   -4.6445 H   0  0  0  0  0  0  0  0  0  0  0  0
    3.3048   13.5842   -6.1600 H   0  0  0  0  0  0  0  0  0  0  0  0
    2.1097   14.9252   -6.1600 H   0  0  0  0  0  0  0  0  0  0  0  0
  1  2  1  0
  2  3  1  0
  3  4  1  0
  4  5  1  0
  5  6  1  0
  6  7  1  0
  7  8  1  0
  7  9  1  0
  2 10  1  0
 10 11  1  0
 11 12  1  0
 12 13  1  0
 13 14  1  1
 13 15  1  0
 15 16  1  0
 16 17  1  0
 17 18  2  0
 18 19  1  0
 19 20  1  0
 20 21  1  0
 21 22  1  0
 22 23  1  0
 22 24  1  0
 24 25  1  0
 24 26  1  0
 19 27  1  0
 27 28  1  1
 27 29  1  0
 29 30  1  0
 30 31  1  0
 31 32  1  6
  7  5  1  0
 31 10  1  0
 31 13  1  0
 27 15  1  0
 24 18  1  0
  1 33  1  0
  1 34  1  0
  1 35  1  0
  2 36  1  6
  3 37  1  0
  3 38  1  0
  4 39  1  0
  4 40  1  0
  5 41  1  1
  8 42  1  0
  8 43  1  0
  8 44  1  0
  9 45  1  0
  9 46  1  0
  9 47  1  0
 10 48  1  1
 11 49  1  0
 11 50  1  0
 12 51  1  0
 12 52  1  0
 14 53  1  0
 14 54  1  0
 14 55  1  0
 15 56  1  6
 16 57  1  0
 16 58  1  0
 17 59  1  0
 19 60  1  6
 20 61  1  0
 20 62  1  0
 21 63  1  0
 21 64  1  0
 22 65  1  1
 23 66  1  0
 25 67  1  0
 25 68  1  0
 25 69  1  0
 26 70  1  0
 26 71  1  0
 26 72  1  0
 28 73  1  0
 28 74  1  0
 28 75  1  0
 29 76  1  0
 29 77  1  0
 30 78  1  0
 30 79  1  0
 32 80  1  0
 32 81  1  0
 32 82  1  0
M  END
>  <meeko>  (9) 
{"is_sidechain": [false], "intermolecular_energy": 2.731, "internal_energy": -0.839}

$$$$
EPH_relaxed_0001_pdb2pqr_Repair_117_r2_0001_out
     RDKit          3D

 82 86  0  0  0  0  0  0  0  0999 V2000
   -2.8070    7.8260   -0.4560 C   0  0  0  0  0  0  0  0  0  0  0  0
   -3.2250    9.2770   -0.2030 C   0  0  2  0  0  0  0  0  0  0  0  0
   -4.7380    9.4900   -0.4050 C   0  0  0  0  0  0  0  0  0  0  0  0
   -5.3110    8.7350   -1.6080 C   0  0  0  0  0  0  0  0  0  0  0  0
   -6.4200    7.8110   -1.2060 C   0  0  2  0  0  0  0  0  0  0  0  0
   -6.0040    6.4720   -0.9080 O   0  0  0  0  0  0  0  0  0  0  0  0
   -6.8690    6.6290   -2.0440 C   0  0  0  0  0  0  0  0  0  0  0  0
   -6.2180    6.3090   -3.3540 C   0  0  0  0  0  0  0  0  0  0  0  0
   -8.2480    6.0850   -1.8330 C   0  0  0  0  0  0  0  0  0  0  0  0
   -2.4410   10.2110   -1.1180 C   0  0  1  0  0  0  0  0  0  0  0  0
   -3.0150   11.6520   -1.1350 C   0  0  0  0  0  0  0  0  0  0  0  0
   -1.8080   12.6140   -1.2810 C   0  0  0  0  0  0  0  0  0  0  0  0
   -0.6260   11.6980   -1.6750 C   0  0  1  0  0  0  0  0  0  0  0  0
   -0.7900   11.4680   -3.2100 C   0  0  0  0  0  0  0  0  0  0  0  0
    0.8040   12.2230   -1.3200 C   0  0  2  0  0  0  0  0  0  0  0  0
    1.2090   13.5330   -2.0170 C   0  0  0  0  0  0  0  0  0  0  0  0
    1.9020   13.3680   -3.3300 C   0  0  0  0  0  0  0  0  0  0  0  0
    2.4410   12.2240   -3.7920 C   0  0  0  0  0  0  0  0  0  0  0  0
    2.4690   10.9600   -2.9230 C   0  0  1  0  0  0  0  0  0  0  0  0
    3.8810   10.3200   -2.9870 C   0  0  0  0  0  0  0  0  0  0  0  0
    4.3390   10.0550   -4.4170 C   0  0  0  0  0  0  0  0  0  0  0  0
    4.3530   11.3450   -5.2330 C   0  0  2  0  0  0  0  0  0  0  0  0
    5.3670   12.2100   -4.7110 O   0  0  0  0  0  0  0  0  0  0  0  0
    2.9860   12.0850   -5.2340 C   0  0  0  0  0  0  0  0  0  0  0  0
    1.9590   11.2780   -6.0660 C   0  0  0  0  0  0  0  0  0  0  0  0
    3.1760   13.4370   -5.9720 C   0  0  0  0  0  0  0  0  0  0  0  0
    1.9430   11.1300   -1.4330 C   0  0  1  0  0  0  0  0  0  0  0  0
    3.1060   11.6020   -0.5080 C   0  0  0  0  0  0  0  0  0  0  0  0
    1.4820    9.7270   -0.8870 C   0  0  0  0  0  0  0  0  0  0  0  0
    0.0240    9.3170   -1.1670 C   0  0  0  0  0  0  0  0  0  0  0  0
   -0.9450   10.4400   -0.7870 C   0  0  2  0  0  0  0  0  0  0  0  0
   -0.8180   10.6790    0.7570 C   0  0  0  0  0  0  0  0  0  0  0  0
   -2.6595    7.3138    0.5062 H   0  0  0  0  0  0  0  0  0  0  0  0
   -3.5937    7.3122   -1.0280 H   0  0  0  0  0  0  0  0  0  0  0  0
   -1.8676    7.8095   -1.0280 H   0  0  0  0  0  0  0  0  0  0  0  0
   -2.9970    9.5078    0.8481 H   0  0  0  0  0  0  0  0  0  0  0  0
   -5.2607    9.1483    0.5005 H   0  0  0  0  0  0  0  0  0  0  0  0
   -4.8887   10.5625   -0.5972 H   0  0  0  0  0  0  0  0  0  0  0  0
   -5.7001    9.4641   -2.3340 H   0  0  0  0  0  0  0  0  0  0  0  0
   -4.5046    8.1309   -2.0493 H   0  0  0  0  0  0  0  0  0  0  0  0
   -6.9751    8.6400   -0.7427 H   0  0  0  0  0  0  0  0  0  0  0  0
   -5.2444    5.8304   -3.1724 H   0  0  0  0  0  0  0  0  0  0  0  0
   -6.8619    5.6247   -3.9260 H   0  0  0  0  0  0  0  0  0  0  0  0
   -6.0695    7.2368   -3.9260 H   0  0  0  0  0  0  0  0  0  0  0  0
   -8.4497    6.0054   -0.7546 H   0  0  0  0  0  0  0  0  0  0  0  0
   -8.9832    6.7605   -2.2947 H   0  0  0  0  0  0  0  0  0  0  0  0
   -8.3241    5.0895   -2.2947 H   0  0  0  0  0  0  0  0  0  0  0  0
   -2.5372    9.6626   -2.0667 H   0  0  0  0  0  0  0  0  0  0  0  0
   -3.7026   11.7756   -1.9847 H   0  0  0  0  0  0  0  0  0  0  0  0
   -3.5784   11.8630   -0.2141 H   0  0  0  0  0  0  0  0  0  0  0  0
   -1.9991   13.3608   -2.0657 H   0  0  0  0  0  0  0  0  0  0  0  0
   -1.6095   13.1780   -0.3577 H   0  0  0  0  0  0  0  0  0  0  0  0
   -1.4207   10.5835   -3.3829 H   0  0  0  0  0  0  0  0  0  0  0  0
   -1.2637   12.3506   -3.6645 H   0  0  0  0  0  0  0  0  0  0  0  0
    0.1988   11.3078   -3.6645 H   0  0  0  0  0  0  0  0  0  0  0  0
    0.7064   12.4710   -0.2528 H   0  0  0  0  0  0  0  0  0  0  0  0
    0.2971   14.1245   -2.1857 H   0  0  0  0  0  0  0  0  0  0  0  0
    1.9335   14.0222   -1.3493 H   0  0  0  0  0  0  0  0  0  0  0  0
    1.9784   14.2565   -3.9740 H   0  0  0  0  0  0  0  0  0  0  0  0
    1.7275   10.2745   -3.3592 H   0  0  0  0  0  0  0  0  0  0  0  0
    4.5990   11.0015   -2.5074 H   0  0  0  0  0  0  0  0  0  0  0  0
    3.8324    9.3517   -2.4673 H   0  0  0  0  0  0  0  0  0  0  0  0
    5.3536    9.6304   -4.3973 H   0  0  0  0  0  0  0  0  0  0  0  0
    3.6364    9.3504   -4.8859 H   0  0  0  0  0  0  0  0  0  0  0  0
    4.5625   11.0715   -6.2777 H   0  0  0  0  0  0  0  0  0  0  0  0
    5.3300   12.1540   -3.7410 H   0  0  0  0  0  0  0  0  0  0  0  0
    1.2777   10.7427   -5.3883 H   0  0  0  0  0  0  0  0  0  0  0  0
    1.3800   11.9653   -6.7003 H   0  0  0  0  0  0  0  0  0  0  0  0
    2.4898   10.5528   -6.7003 H   0  0  0  0  0  0  0  0  0  0  0  0
    3.2895   14.2448   -5.2340 H   0  0  0  0  0  0  0  0  0  0  0  0
    4.0760   13.3873   -6.6025 H   0  0  0  0  0  0  0  0  0  0  0  0
    2.2972   13.6372   -6.6025 H   0  0  0  0  0  0  0  0  0  0  0  0
    2.8094   11.4816    0.5444 H   0  0  0  0  0  0  0  0  0  0  0  0
    4.0023   10.9965   -0.7079 H   0  0  0  0  0  0  0  0  0  0  0  0
    3.3268   12.6609   -0.7079 H   0  0  0  0  0  0  0  0  0  0  0  0
    2.1343    8.9642   -1.3371 H   0  0  0  0  0  0  0  0  0  0  0  0
    1.5530    9.8071    0.2078 H   0  0  0  0  0  0  0  0  0  0  0  0
   -0.0872    9.0932   -2.2382 H   0  0  0  0  0  0  0  0  0  0  0  0
   -0.2129    8.4300   -0.5611 H   0  0  0  0  0  0  0  0  0  0  0  0
   -1.2676    9.8328    1.2972 H   0  0  0  0  0  0  0  0  0  0  0  0
    0.2445   10.7645    1.0286 H   0  0  0  0  0  0  0  0  0  0  0  0
   -1.3417   11.6074    1.0286 H   0  0  0  0  0  0  0  0  0  0  0  0
  1  2  1  0
  2  3  1  0
  3  4  1  0
  4  5  1  0
  5  6  1  0
  6  7  1  0
  7  8  1  0
  7  9  1  0
  2 10  1  0
 10 11  1  0
 11 12  1  0
 12 13  1  0
 13 14  1  6
 13 15  1  0
 15 16  1  0
 16 17  1  0
 17 18  2  0
 18 19  1  0
 19 20  1  0
 20 21  1  0
 21 22  1  0
 22 23  1  0
 22 24  1  0
 24 25  1  0
 24 26  1  0
 19 27  1  0
 27 28  1  1
 27 29  1  0
 29 30  1  0
 30 31  1  0
 31 32  1  1
  7  5  1  0
 31 10  1  0
 31 13  1  0
 27 15  1  0
 24 18  1  0
  1 33  1  0
  1 34  1  0
  1 35  1  0
  2 36  1  1
  3 37  1  0
  3 38  1  0
  4 39  1  0
  4 40  1  0
  5 41  1  1
  8 42  1  0
  8 43  1  0
  8 44  1  0
  9 45  1  0
  9 46  1  0
  9 47  1  0
 10 48  1  6
 11 49  1  0
 11 50  1  0
 12 51  1  0
 12 52  1  0
 14 53  1  0
 14 54  1  0
 14 55  1  0
 15 56  1  1
 16 57  1  0
 16 58  1  0
 17 59  1  0
 19 60  1  6
 20 61  1  0
 20 62  1  0
 21 63  1  0
 21 64  1  0
 22 65  1  6
 23 66  1  0
 25 67  1  0
 25 68  1  0
 25 69  1  0
 26 70  1  0
 26 71  1  0
 26 72  1  0
 28 73  1  0
 28 74  1  0
 28 75  1  0
 29 76  1  0
 29 77  1  0
 30 78  1  0
 30 79  1  0
 32 80  1  0
 32 81  1  0
 32 82  1  0
M  END
>  <meeko>  (10) 
{"is_sidechain": [false], "intermolecular_energy": 2.731, "internal_energy": -0.839}

$$$$
EPH_relaxed_0001_pdb2pqr_Repair_117_r2_0001_out
     RDKit          3D

 82 86  0  0  0  0  0  0  0  0999 V2000
   -1.1700    8.2520   -1.1760 C   0  0  0  0  0  0  0  0  0  0  0  0
   -1.4980    9.4860   -0.3300 C   0  0  2  0  0  0  0  0  0  0  0  0
   -2.9520    9.4680    0.1820 C   0  0  0  0  0  0  0  0  0  0  0  0
   -3.9970    9.3850   -0.9340 C   0  0  0  0  0  0  0  0  0  0  0  0
   -4.6750    8.0490   -0.9600 C   0  0  2  0  0  0  0  0  0  0  0  0
   -4.7070    7.4190   -2.2470 O   0  0  0  0  0  0  0  0  0  0  0  0
   -5.9790    7.7860   -1.6900 C   0  0  0  0  0  0  0  0  0  0  0  0
   -6.6830    8.8710   -2.4440 C   0  0  0  0  0  0  0  0  0  0  0  0
   -6.8130    6.6170   -1.2670 C   0  0  0  0  0  0  0  0  0  0  0  0
   -1.2450   10.7520   -1.1390 C   0  0  1  0  0  0  0  0  0  0  0  0
   -1.4100   12.0440   -0.2940 C   0  0  0  0  0  0  0  0  0  0  0  0
   -0.3650   13.0600   -0.8220 C   0  0  0  0  0  0  0  0  0  0  0  0
    0.1330   12.4510   -2.1540 C   0  0  1  0  0  0  0  0  0  0  0  0
   -0.9560   12.8360   -3.2030 C   0  0  0  0  0  0  0  0  0  0  0  0
    1.5620   12.8840   -2.6190 C   0  0  2  0  0  0  0  0  0  0  0  0
    1.7260   14.3860   -2.9100 C   0  0  0  0  0  0  0  0  0  0  0  0
    1.4480   14.7970   -4.3180 C   0  0  0  0  0  0  0  0  0  0  0  0
    1.3600   13.9660   -5.3730 C   0  0  0  0  0  0  0  0  0  0  0  0
    1.6440   12.4660   -5.2190 C   0  0  1  0  0  0  0  0  0  0  0  0
    2.5730   11.9940   -6.3690 C   0  0  0  0  0  0  0  0  0  0  0  0
    2.0220   12.3460   -7.7470 C   0  0  0  0  0  0  0  0  0  0  0  0
    1.8080   13.8510   -7.8820 C   0  0  2  0  0  0  0  0  0  0  0  0
    3.0820   14.5020   -7.8540 O   0  0  0  0  0  0  0  0  0  0  0  0
    0.8950   14.4420   -6.7710 C   0  0  0  0  0  0  0  0  0  0  0  0
   -0.5620   13.9650   -6.9870 C   0  0  0  0  0  0  0  0  0  0  0  0
    0.8760   15.9850   -6.9390 C   0  0  0  0  0  0  0  0  0  0  0  0
    2.1580   12.0000   -3.7890 C   0  0  1  0  0  0  0  0  0  0  0  0
    3.7080   12.1420   -3.7090 C   0  0  0  0  0  0  0  0  0  0  0  0
    1.8420   10.4690   -3.6030 C   0  0  0  0  0  0  0  0  0  0  0  0
    0.4590   10.1100   -3.0270 C   0  0  0  0  0  0  0  0  0  0  0  0
    0.1610   10.9280   -1.7660 C   0  0  2  0  0  0  0  0  0  0  0  0
    1.2280   10.5460   -0.6840 C   0  0  0  0  0  0  0  0  0  0  0  0
   -0.9443    7.4030   -0.5140 H   0  0  0  0  0  0  0  0  0  0  0  0
   -2.0331    8.0027   -1.8108 H   0  0  0  0  0  0  0  0  0  0  0  0
   -0.2970    8.4641   -1.8108 H   0  0  0  0  0  0  0  0  0  0  0  0
   -0.8384    9.4700    0.5502 H   0  0  0  0  0  0  0  0  0  0  0  0
   -3.0774    8.5959    0.8406 H   0  0  0  0  0  0  0  0  0  0  0  0
   -3.1190   10.4193    0.7084 H   0  0  0  0  0  0  0  0  0  0  0  0
   -4.7544   10.1661   -0.7720 H   0  0  0  0  0  0  0  0  0  0  0  0
   -3.4833    9.5277   -1.8962 H   0  0  0  0  0  0  0  0  0  0  0  0
   -4.3504    7.8382    0.0697 H   0  0  0  0  0  0  0  0  0  0  0  0
   -7.1397    9.5749   -1.7327 H   0  0  0  0  0  0  0  0  0  0  0  0
   -5.9598    9.4065   -3.0766 H   0  0  0  0  0  0  0  0  0  0  0  0
   -7.4667    8.4288   -3.0766 H   0  0  0  0  0  0  0  0  0  0  0  0
   -6.8471    6.5692   -0.1686 H   0  0  0  0  0  0  0  0  0  0  0  0
   -7.8335    6.7330   -1.6608 H   0  0  0  0  0  0  0  0  0  0  0  0
   -6.3712    5.6898   -1.6608 H   0  0  0  0  0  0  0  0  0  0  0  0
   -1.9956   10.6163   -1.9316 H   0  0  0  0  0  0  0  0  0  0  0  0
   -2.4259   12.4483   -0.4145 H   0  0  0  0  0  0  0  0  0  0  0  0
   -1.2560   11.8388    0.7757 H   0  0  0  0  0  0  0  0  0  0  0  0
   -0.8303   14.0418   -0.9939 H   0  0  0  0  0  0  0  0  0  0  0  0
    0.4543   13.2254   -0.1069 H   0  0  0  0  0  0  0  0  0  0  0  0
   -1.8693   13.1589   -2.6818 H   0  0  0  0  0  0  0  0  0  0  0  0
   -0.5839   13.6571   -3.8334 H   0  0  0  0  0  0  0  0  0  0  0  0
   -1.1826   11.9635   -3.8334 H   0  0  0  0  0  0  0  0  0  0  0  0
    2.1718   12.6846   -1.7255 H   0  0  0  0  0  0  0  0  0  0  0  0
    1.0369   14.9367   -2.2528 H   0  0  0  0  0  0  0  0  0  0  0  0
    2.7862   14.6169   -2.7294 H   0  0  0  0  0  0  0  0  0  0  0  0
    1.3027   15.8704   -4.5095 H   0  0  0  0  0  0  0  0  0  0  0  0
    0.6689   11.9628   -5.2961 H   0  0  0  0  0  0  0  0  0  0  0  0
    3.5553   12.4743   -6.2486 H   0  0  0  0  0  0  0  0  0  0  0  0
    2.6485   10.8982   -6.3092 H   0  0  0  0  0  0  0  0  0  0  0  0
    2.7355   12.0137   -8.5154 H   0  0  0  0  0  0  0  0  0  0  0  0
    1.0534   11.8411   -7.8767 H   0  0  0  0  0  0  0  0  0  0  0  0
    1.2929   14.0266   -8.8379 H   0  0  0  0  0  0  0  0  0  0  0  0
    2.9570   15.3760   -7.4470 H   0  0  0  0  0  0  0  0  0  0  0  0
   -1.0446   13.8070   -6.0112 H   0  0  0  0  0  0  0  0  0  0  0  0
   -1.1178   14.7281   -7.5516 H   0  0  0  0  0  0  0  0  0  0  0  0
   -0.5589   13.0210   -7.5516 H   0  0  0  0  0  0  0  0  0  0  0  0
    0.8701   16.4617   -5.9477 H   0  0  0  0  0  0  0  0  0  0  0  0
    1.7703   16.3044   -7.4942 H   0  0  0  0  0  0  0  0  0  0  0  0
   -0.0259   16.2823   -7.4942 H   0  0  0  0  0  0  0  0  0  0  0  0
    4.0196   12.1706   -2.6545 H   0  0  0  0  0  0  0  0  0  0  0  0
    4.1811   11.2834   -4.2080 H   0  0  0  0  0  0  0  0  0  0  0  0
    4.0172   13.0722   -4.2080 H   0  0  0  0  0  0  0  0  0  0  0  0
    1.9262    9.9896   -4.5895 H   0  0  0  0  0  0  0  0  0  0  0  0
    2.5662   10.1145   -2.8547 H   0  0  0  0  0  0  0  0  0  0  0  0
   -0.3115   10.3209   -3.7832 H   0  0  0  0  0  0  0  0  0  0  0  0
    0.4559    9.0425   -2.7615 H   0  0  0  0  0  0  0  0  0  0  0  0
    0.8034   10.6980    0.3193 H   0  0  0  0  0  0  0  0  0  0  0  0
    1.5121    9.4903   -0.8059 H   0  0  0  0  0  0  0  0  0  0  0  0
    2.1175   11.1815   -0.8059 H   0  0  0  0  0  0  0  0  0  0  0  0
  1  2  1  0
  2  3  1  0
  3  4  1  0
  4  5  1  0
  5  6  1  0
  6  7  1  0
  7  8  1  0
  7  9  1  0
  2 10  1  0
 10 11  1  0
 11 12  1  0
 12 13  1  0
 13 14  1  6
 13 15  1  0
 15 16  1  0
 16 17  1  0
 17 18  2  0
 18 19  1  0
 19 20  1  0
 20 21  1  0
 21 22  1  0
 22 23  1  0
 22 24  1  0
 24 25  1  0
 24 26  1  0
 19 27  1  0
 27 28  1  6
 27 29  1  0
 29 30  1  0
 30 31  1  0
 31 32  1  1
  7  5  1  0
 31 10  1  0
 31 13  1  0
 27 15  1  0
 24 18  1  0
  1 33  1  0
  1 34  1  0
  1 35  1  0
  2 36  1  1
  3 37  1  0
  3 38  1  0
  4 39  1  0
  4 40  1  0
  5 41  1  1
  8 42  1  0
  8 43  1  0
  8 44  1  0
  9 45  1  0
  9 46  1  0
  9 47  1  0
 10 48  1  6
 11 49  1  0
 11 50  1  0
 12 51  1  0
 12 52  1  0
 14 53  1  0
 14 54  1  0
 14 55  1  0
 15 56  1  1
 16 57  1  0
 16 58  1  0
 17 59  1  0
 19 60  1  6
 20 61  1  0
 20 62  1  0
 21 63  1  0
 21 64  1  0
 22 65  1  6
 23 66  1  0
 25 67  1  0
 25 68  1  0
 25 69  1  0
 26 70  1  0
 26 71  1  0
 26 72  1  0
 28 73  1  0
 28 74  1  0
 28 75  1  0
 29 76  1  0
 29 77  1  0
 30 78  1  0
 30 79  1  0
 32 80  1  0
 32 81  1  0
 32 82  1  0
M  END
>  <meeko>  (11) 
{"is_sidechain": [false], "intermolecular_energy": 2.731, "internal_energy": -0.839}

$$$$
EPH_relaxed_0001_pdb2pqr_Repair_117_r2_0001_out
     RDKit          3D

 82 86  0  0  0  0  0  0  0  0999 V2000
   -1.4900    7.8110   -1.6300 C   0  0  0  0  0  0  0  0  0  0  0  0
   -1.6790    8.6880   -0.3890 C   0  0  2  0  0  0  0  0  0  0  0  0
   -3.1360    8.6740    0.1150 C   0  0  0  0  0  0  0  0  0  0  0  0
   -4.1750    8.8370   -0.9980 C   0  0  0  0  0  0  0  0  0  0  0  0
   -4.9960    7.5960   -1.1770 C   0  0  2  0  0  0  0  0  0  0  0  0
   -5.1700    7.1850   -2.5400 O   0  0  0  0  0  0  0  0  0  0  0  0
   -6.3600    7.5840   -1.8410 C   0  0  0  0  0  0  0  0  0  0  0  0
   -6.9830    8.8390   -2.3670 C   0  0  0  0  0  0  0  0  0  0  0  0
   -7.2910    6.4510   -1.5410 C   0  0  0  0  0  0  0  0  0  0  0  0
   -1.2470   10.1180   -0.6920 C   0  0  1  0  0  0  0  0  0  0  0  0
   -0.8350   10.9010    0.5830 C   0  0  0  0  0  0  0  0  0  0  0  0
    0.3220   11.8470    0.1730 C   0  0  0  0  0  0  0  0  0  0  0  0
    0.3160   11.8240   -1.3740 C   0  0  1  0  0  0  0  0  0  0  0  0
   -0.8130   12.8200   -1.7850 C   0  0  0  0  0  0  0  0  0  0  0  0
    1.6710   12.1640   -2.0760 C   0  0  2  0  0  0  0  0  0  0  0  0
    2.2030   13.5830   -1.8120 C   0  0  0  0  0  0  0  0  0  0  0  0
    1.7600   14.6230   -2.7870 C   0  0  0  0  0  0  0  0  0  0  0  0
    1.2020   14.3810   -3.9880 C   0  0  0  0  0  0  0  0  0  0  0  0
    1.0570   12.9480   -4.5150 C   0  0  1  0  0  0  0  0  0  0  0  0
    1.5310   12.8880   -5.9900 C   0  0  0  0  0  0  0  0  0  0  0  0
    0.8220   13.9100   -6.8750 C   0  0  0  0  0  0  0  0  0  0  0  0
    1.0380   15.3270   -6.3510 C   0  0  2  0  0  0  0  0  0  0  0  0
    2.4210   15.6650   -6.4930 O   0  0  0  0  0  0  0  0  0  0  0  0
    0.6050   15.5060   -4.8690 C   0  0  0  0  0  0  0  0  0  0  0  0
   -0.9390   15.4370   -4.7660 C   0  0  0  0  0  0  0  0  0  0  0  0
    1.0060   16.9380   -4.4240 C   0  0  0  0  0  0  0  0  0  0  0  0
    1.7090   11.8100   -3.6170 C   0  0  1  0  0  0  0  0  0  0  0  0
    3.2110   11.6300   -3.9960 C   0  0  0  0  0  0  0  0  0  0  0  0
    1.0040   10.4380   -3.9340 C   0  0  0  0  0  0  0  0  0  0  0  0
   -0.2630   10.1050   -3.1230 C   0  0  0  0  0  0  0  0  0  0  0  0
   -0.0240   10.3090   -1.6240 C   0  0  2  0  0  0  0  0  0  0  0  0
    1.0920    9.3040   -1.1760 C   0  0  0  0  0  0  0  0  0  0  0  0
   -1.2677    6.7794   -1.3196 H   0  0  0  0  0  0  0  0  0  0  0  0
   -2.4113    7.8226   -2.2309 H   0  0  0  0  0  0  0  0  0  0  0  0
   -0.6553    8.2010   -2.2309 H   0  0  0  0  0  0  0  0  0  0  0  0
   -1.0487    8.2706    0.4101 H   0  0  0  0  0  0  0  0  0  0  0  0
   -3.3185    7.7153    0.6225 H   0  0  0  0  0  0  0  0  0  0  0  0
   -3.2506    9.5352    0.7897 H   0  0  0  0  0  0  0  0  0  0  0  0
   -4.8432    9.6725   -0.7421 H   0  0  0  0  0  0  0  0  0  0  0  0
   -3.6407    9.0331   -1.9393 H   0  0  0  0  0  0  0  0  0  0  0  0
   -4.6387    7.1927   -0.2180 H   0  0  0  0  0  0  0  0  0  0  0  0
   -7.2977    9.4730   -1.5249 H   0  0  0  0  0  0  0  0  0  0  0  0
   -6.2501    9.3826   -2.9813 H   0  0  0  0  0  0  0  0  0  0  0  0
   -7.8591    8.5839   -2.9813 H   0  0  0  0  0  0  0  0  0  0  0  0
   -7.3871    6.3341   -0.4515 H   0  0  0  0  0  0  0  0  0  0  0  0
   -8.2790    6.6634   -1.9755 H   0  0  0  0  0  0  0  0  0  0  0  0
   -6.8911    5.5229   -1.9755 H   0  0  0  0  0  0  0  0  0  0  0  0
   -2.1584   10.4847   -1.1869 H   0  0  0  0  0  0  0  0  0  0  0  0
   -1.6869   11.4859    0.9600 H   0  0  0  0  0  0  0  0  0  0  0  0
   -0.5194   10.2149    1.3828 H   0  0  0  0  0  0  0  0  0  0  0  0
    0.1416   12.8657    0.5468 H   0  0  0  0  0  0  0  0  0  0  0  0
    1.2885   11.5291    0.5910 H   0  0  0  0  0  0  0  0  0  0  0  0
   -1.2831   13.2347   -0.8811 H   0  0  0  0  0  0  0  0  0  0  0  0
   -0.3817   13.6372   -2.3818 H   0  0  0  0  0  0  0  0  0  0  0  0
   -1.5700   12.2901   -2.3818 H   0  0  0  0  0  0  0  0  0  0  0  0
    2.3745   11.4826   -1.5751 H   0  0  0  0  0  0  0  0  0  0  0  0
    1.8670   13.8909   -0.8109 H   0  0  0  0  0  0  0  0  0  0  0  0
    3.2968   13.5205   -1.9105 H   0  0  0  0  0  0  0  0  0  0  0  0
    1.9014   15.6754   -2.5000 H   0  0  0  0  0  0  0  0  0  0  0  0
   -0.0155   12.7102   -4.4584 H   0  0  0  0  0  0  0  0  0  0  0  0
    2.6128   13.0850   -6.0210 H   0  0  0  0  0  0  0  0  0  0  0  0
    1.2904   11.8870   -6.3775 H   0  0  0  0  0  0  0  0  0  0  0  0
    1.2212   13.8394   -7.8976 H   0  0  0  0  0  0  0  0  0  0  0  0
   -0.2564   13.6932   -6.8677 H   0  0  0  0  0  0  0  0  0  0  0  0
    0.4017   15.9989   -6.9458 H   0  0  0  0  0  0  0  0  0  0  0  0
    2.9360   15.0180   -5.9810 H   0  0  0  0  0  0  0  0  0  0  0  0
   -1.2356   15.4237   -3.7068 H   0  0  0  0  0  0  0  0  0  0  0  0
   -1.3790   16.3164   -5.2590 H   0  0  0  0  0  0  0  0  0  0  0  0
   -1.2988   14.5219   -5.2590 H   0  0  0  0  0  0  0  0  0  0  0  0
    1.0205   16.9900   -3.3253 H   0  0  0  0  0  0  0  0  0  0  0  0
    2.0057   17.1772   -4.8157 H   0  0  0  0  0  0  0  0  0  0  0  0
    0.2759   17.6616   -4.8157 H   0  0  0  0  0  0  0  0  0  0  0  0
    3.8144   11.5577   -3.0791 H   0  0  0  0  0  0  0  0  0  0  0  0
    3.3322   10.7109   -4.5881 H   0  0  0  0  0  0  0  0  0  0  0  0
    3.5459   12.4944   -4.5881 H   0  0  0  0  0  0  0  0  0  0  0  0
    0.7258   10.4447   -4.9982 H   0  0  0  0  0  0  0  0  0  0  0  0
    1.7363    9.6664   -3.6541 H   0  0  0  0  0  0  0  0  0  0  0  0
   -1.0823   10.7624   -3.4495 H   0  0  0  0  0  0  0  0  0  0  0  0
   -0.5231    9.0503   -3.2963 H   0  0  0  0  0  0  0  0  0  0  0  0
    1.1328    9.2673   -0.0774 H   0  0  0  0  0  0  0  0  0  0  0  0
    0.8622    8.3023   -1.5681 H   0  0  0  0  0  0  0  0  0  0  0  0
    2.0643    9.6371   -1.5681 H   0  0  0  0  0  0  0  0  0  0  0  0
  1  2  1  0
  2  3  1  0
  3  4  1  0
  4  5  1  0
  5  6  1  0
  6  7  1  0
  7  8  1  0
  7  9  1  0
  2 10  1  0
 10 11  1  0
 11 12  1  0
 12 13  1  0
 13 14  1  6
 13 15  1  0
 15 16  1  0
 16 17  1  0
 17 18  2  0
 18 19  1  0
 19 20  1  0
 20 21  1  0
 21 22  1  0
 22 23  1  0
 22 24  1  0
 24 25  1  0
 24 26  1  0
 19 27  1  0
 27 28  1  6
 27 29  1  0
 29 30  1  0
 30 31  1  0
 31 32  1  1
  7  5  1  0
 31 10  1  0
 31 13  1  0
 27 15  1  0
 24 18  1  0
  1 33  1  0
  1 34  1  0
  1 35  1  0
  2 36  1  1
  3 37  1  0
  3 38  1  0
  4 39  1  0
  4 40  1  0
  5 41  1  1
  8 42  1  0
  8 43  1  0
  8 44  1  0
  9 45  1  0
  9 46  1  0
  9 47  1  0
 10 48  1  6
 11 49  1  0
 11 50  1  0
 12 51  1  0
 12 52  1  0
 14 53  1  0
 14 54  1  0
 14 55  1  0
 15 56  1  1
 16 57  1  0
 16 58  1  0
 17 59  1  0
 19 60  1  6
 20 61  1  0
 20 62  1  0
 21 63  1  0
 21 64  1  0
 22 65  1  6
 23 66  1  0
 25 67  1  0
 25 68  1  0
 25 69  1  0
 26 70  1  0
 26 71  1  0
 26 72  1  0
 28 73  1  0
 28 74  1  0
 28 75  1  0
 29 76  1  0
 29 77  1  0
 30 78  1  0
 30 79  1  0
 32 80  1  0
 32 81  1  0
 32 82  1  0
M  END
>  <meeko>  (12) 
{"is_sidechain": [false], "intermolecular_energy": 2.731, "internal_energy": -0.839}

$$$$
EPH_relaxed_0001_pdb2pqr_Repair_117_r2_0001_out
     RDKit          3D

 82 86  0  0  0  0  0  0  0  0999 V2000
    1.1980   10.1710   -4.0700 C   0  0  0  0  0  0  0  0  0  0  0  0
    1.7620   11.4200   -4.7530 C   0  0  2  0  0  0  0  0  0  0  0  0
    3.3030   11.4650   -4.6980 C   0  0  0  0  0  0  0  0  0  0  0  0
    3.9230   10.3320   -3.8770 C   0  0  0  0  0  0  0  0  0  0  0  0
    5.2730   10.7070   -3.3450 C   0  0  2  0  0  0  0  0  0  0  0  0
    5.7700   11.9690   -3.8090 O   0  0  0  0  0  0  0  0  0  0  0  0
    6.5150   10.8080   -4.2110 C   0  0  0  0  0  0  0  0  0  0  0  0
    6.4660   10.5310   -5.6810 C   0  0  0  0  0  0  0  0  0  0  0  0
    7.8560   10.6960   -3.5540 C   0  0  0  0  0  0  0  0  0  0  0  0
    1.1810   12.6720   -4.1080 C   0  0  1  0  0  0  0  0  0  0  0  0
   -0.3630   12.6080   -3.9630 C   0  0  0  0  0  0  0  0  0  0  0  0
   -0.7200   13.3440   -2.6460 C   0  0  0  0  0  0  0  0  0  0  0  0
    0.5770   14.0870   -2.2510 C   0  0  1  0  0  0  0  0  0  0  0  0
    0.5780   15.3830   -3.1220 C   0  0  0  0  0  0  0  0  0  0  0  0
    0.7520   14.4130   -0.7320 C   0  0  2  0  0  0  0  0  0  0  0  0
   -0.3110   15.3550   -0.1400 C   0  0  0  0  0  0  0  0  0  0  0  0
    0.0190   16.8090   -0.2020 C   0  0  0  0  0  0  0  0  0  0  0  0
    1.2380   17.3240   -0.4490 C   0  0  0  0  0  0  0  0  0  0  0  0
    2.4620   16.4130   -0.6020 C   0  0  1  0  0  0  0  0  0  0  0  0
    3.6390   16.9830    0.2320 C   0  0  0  0  0  0  0  0  0  0  0  0
    3.9480   18.4370   -0.1100 C   0  0  0  0  0  0  0  0  0  0  0  0
    2.7240   19.3210    0.1100 C   0  0  2  0  0  0  0  0  0  0  0  0
    2.4300   19.3620    1.5100 O   0  0  0  0  0  0  0  0  0  0  0  0
    1.4710   18.8390   -0.6730 C   0  0  0  0  0  0  0  0  0  0  0  0
    1.6800   19.0790   -2.1890 C   0  0  0  0  0  0  0  0  0  0  0  0
    0.2720   19.7320   -0.2540 C   0  0  0  0  0  0  0  0  0  0  0  0
    2.2140   14.8670   -0.3300 C   0  0  1  0  0  0  0  0  0  0  0  0
    2.3720   14.5620    1.1910 C   0  0  0  0  0  0  0  0  0  0  0  0
    3.3240   14.0300   -1.0690 C   0  0  0  0  0  0  0  0  0  0  0  0
    3.0410   13.6370   -2.5310 C   0  0  0  0  0  0  0  0  0  0  0  0
    1.6480   13.0150   -2.6710 C   0  0  2  0  0  0  0  0  0  0  0  0
    1.6240   11.6980   -1.8240 C   0  0  0  0  0  0  0  0  0  0  0  0
    1.2533   10.2935   -2.9782 H   0  0  0  0  0  0  0  0  0  0  0  0
    0.1492   10.0307   -4.3705 H   0  0  0  0  0  0  0  0  0  0  0  0
    1.7863    9.2915   -4.3705 H   0  0  0  0  0  0  0  0  0  0  0  0
    1.4702   11.3787   -5.8128 H   0  0  0  0  0  0  0  0  0  0  0  0
    3.6892   11.4004   -5.7260 H   0  0  0  0  0  0  0  0  0  0  0  0
    3.5795   12.4082   -4.2041 H   0  0  0  0  0  0  0  0  0  0  0  0
    3.2587   10.0997   -3.0316 H   0  0  0  0  0  0  0  0  0  0  0  0
    4.0443    9.4588   -4.5348 H   0  0  0  0  0  0  0  0  0  0  0  0
    5.0731   10.1802   -2.4003 H   0  0  0  0  0  0  0  0  0  0  0  0
    6.2766    9.4601   -5.8462 H   0  0  0  0  0  0  0  0  0  0  0  0
    5.6583   11.1211   -6.1386 H   0  0  0  0  0  0  0  0  0  0  0  0
    7.4271   10.8082   -6.1386 H   0  0  0  0  0  0  0  0  0  0  0  0
    7.7309   10.7064   -2.4612 H   0  0  0  0  0  0  0  0  0  0  0  0
    8.3363    9.7546   -3.8591 H   0  0  0  0  0  0  0  0  0  0  0  0
    8.4858   11.5447   -3.8591 H   0  0  0  0  0  0  0  0  0  0  0  0
    1.5498   13.4304   -4.8142 H   0  0  0  0  0  0  0  0  0  0  0  0
   -0.8446   13.1058   -4.8176 H   0  0  0  0  0  0  0  0  0  0  0  0
   -0.7145   11.5659   -3.9406 H   0  0  0  0  0  0  0  0  0  0  0  0
   -1.5415   14.0570   -2.8099 H   0  0  0  0  0  0  0  0  0  0  0  0
   -1.0607   12.6529   -1.8609 H   0  0  0  0  0  0  0  0  0  0  0  0
    0.5787   16.2658   -2.4658 H   0  0  0  0  0  0  0  0  0  0  0  0
    1.4762   15.3974   -3.7569 H   0  0  0  0  0  0  0  0  0  0  0  0
   -0.3201   15.3988   -3.7569 H   0  0  0  0  0  0  0  0  0  0  0  0
    0.5806   13.4342   -0.2602 H   0  0  0  0  0  0  0  0  0  0  0  0
   -1.2501   15.1960   -0.6903 H   0  0  0  0  0  0  0  0  0  0  0  0
   -0.3782   15.1039    0.9289 H   0  0  0  0  0  0  0  0  0  0  0  0
   -0.8030   17.5198   -0.0315 H   0  0  0  0  0  0  0  0  0  0  0  0
    2.7204   16.4279   -1.6711 H   0  0  0  0  0  0  0  0  0  0  0  0
    3.3785   16.9194    1.2988 H   0  0  0  0  0  0  0  0  0  0  0  0
    4.5336   16.3875   -0.0026 H   0  0  0  0  0  0  0  0  0  0  0  0
    4.7680   18.7913    0.5319 H   0  0  0  0  0  0  0  0  0  0  0  0
    4.2367   18.4946   -1.1699 H   0  0  0  0  0  0  0  0  0  0  0  0
    2.9677   20.3225   -0.2742 H   0  0  0  0  0  0  0  0  0  0  0  0
    2.4180   18.4450    1.8350 H   0  0  0  0  0  0  0  0  0  0  0  0
    2.3960   19.9012   -2.3348 H   0  0  0  0  0  0  0  0  0  0  0  0
    2.0735   18.1633   -2.6544 H   0  0  0  0  0  0  0  0  0  0  0  0
    0.7189   19.3429   -2.6544 H   0  0  0  0  0  0  0  0  0  0  0  0
    0.2133   19.7757    0.8436 H   0  0  0  0  0  0  0  0  0  0  0  0
    0.4131   20.7468   -0.6544 H   0  0  0  0  0  0  0  0  0  0  0  0
   -0.6599   19.3062   -0.6544 H   0  0  0  0  0  0  0  0  0  0  0  0
    1.9438   15.3885    1.7771 H   0  0  0  0  0  0  0  0  0  0  0  0
    1.8443   13.6280    1.4344 H   0  0  0  0  0  0  0  0  0  0  0  0
    3.4393   14.4543    1.4344 H   0  0  0  0  0  0  0  0  0  0  0  0
    4.2505   14.6229   -1.0574 H   0  0  0  0  0  0  0  0  0  0  0  0
    3.3783   13.0778   -0.5209 H   0  0  0  0  0  0  0  0  0  0  0  0
    3.0992   14.5354   -3.1630 H   0  0  0  0  0  0  0  0  0  0  0  0
    3.7898   12.8956   -2.8465 H   0  0  0  0  0  0  0  0  0  0  0  0
    1.6286   11.9505   -0.7534 H   0  0  0  0  0  0  0  0  0  0  0  0
    0.7153   11.1256   -2.0618 H   0  0  0  0  0  0  0  0  0  0  0  0
    2.5113   11.0929   -2.0618 H   0  0  0  0  0  0  0  0  0  0  0  0
  1  2  1  0
  2  3  1  0
  3  4  1  0
  4  5  1  0
  5  6  1  0
  6  7  1  0
  7  8  1  0
  7  9  1  0
  2 10  1  0
 10 11  1  0
 11 12  1  0
 12 13  1  0
 13 14  1  6
 13 15  1  0
 15 16  1  0
 16 17  1  0
 17 18  2  0
 18 19  1  0
 19 20  1  0
 20 21  1  0
 21 22  1  0
 22 23  1  0
 22 24  1  0
 24 25  1  0
 24 26  1  0
 19 27  1  0
 27 28  1  1
 27 29  1  0
 29 30  1  0
 30 31  1  0
 31 32  1  1
  7  5  1  0
 31 10  1  0
 31 13  1  0
 27 15  1  0
 24 18  1  0
  1 33  1  0
  1 34  1  0
  1 35  1  0
  2 36  1  6
  3 37  1  0
  3 38  1  0
  4 39  1  0
  4 40  1  0
  5 41  1  1
  8 42  1  0
  8 43  1  0
  8 44  1  0
  9 45  1  0
  9 46  1  0
  9 47  1  0
 10 48  1  6
 11 49  1  0
 11 50  1  0
 12 51  1  0
 12 52  1  0
 14 53  1  0
 14 54  1  0
 14 55  1  0
 15 56  1  1
 16 57  1  0
 16 58  1  0
 17 59  1  0
 19 60  1  6
 20 61  1  0
 20 62  1  0
 21 63  1  0
 21 64  1  0
 22 65  1  6
 23 66  1  0
 25 67  1  0
 25 68  1  0
 25 69  1  0
 26 70  1  0
 26 71  1  0
 26 72  1  0
 28 73  1  0
 28 74  1  0
 28 75  1  0
 29 76  1  0
 29 77  1  0
 30 78  1  0
 30 79  1  0
 32 80  1  0
 32 81  1  0
 32 82  1  0
M  END
>  <meeko>  (13) 
{"is_sidechain": [false], "intermolecular_energy": 2.731, "internal_energy": -0.839}

$$$$
EPH_relaxed_0001_pdb2pqr_Repair_117_r2_0001_out
     RDKit          3D

 82 86  0  0  0  0  0  0  0  0999 V2000
   -5.1460    7.0580   -3.2730 C   0  0  0  0  0  0  0  0  0  0  0  0
   -5.1320    7.3540   -1.7700 C   0  0  2  0  0  0  0  0  0  0  0  0
   -6.5540    7.4650   -1.1870 C   0  0  0  0  0  0  0  0  0  0  0  0
   -7.4680    6.2960   -1.5650 C   0  0  0  0  0  0  0  0  0  0  0  0
   -8.7890    6.7720   -2.0880 C   0  0  2  0  0  0  0  0  0  0  0  0
   -9.0190    8.1790   -1.9430 O   0  0  0  0  0  0  0  0  0  0  0  0
   -9.8940    7.3150   -1.2010 C   0  0  0  0  0  0  0  0  0  0  0  0
   -9.7280    7.4090    0.2830 C   0  0  0  0  0  0  0  0  0  0  0  0
  -11.3000    7.2940   -1.7160 C   0  0  0  0  0  0  0  0  0  0  0  0
   -4.3560    8.6380   -1.5010 C   0  0  1  0  0  0  0  0  0  0  0  0
   -4.9450    9.4550   -0.3200 C   0  0  0  0  0  0  0  0  0  0  0  0
   -3.7460   10.1200    0.4050 C   0  0  0  0  0  0  0  0  0  0  0  0
   -2.5550    9.9400   -0.5650 C   0  0  1  0  0  0  0  0  0  0  0  0
   -2.7170   11.0840   -1.6150 C   0  0  0  0  0  0  0  0  0  0  0  0
   -1.1310    9.9460    0.0800 C   0  0  2  0  0  0  0  0  0  0  0  0
   -0.7370   11.2590    0.7790 C   0  0  0  0  0  0  0  0  0  0  0  0
   -0.0430   12.2590   -0.0850 C   0  0  0  0  0  0  0  0  0  0  0  0
    0.5060   12.0050   -1.2870 C   0  0  0  0  0  0  0  0  0  0  0  0
    0.5460   10.5790   -1.8500 C   0  0  1  0  0  0  0  0  0  0  0  0
    1.9640   10.2810   -2.4060 C   0  0  0  0  0  0  0  0  0  0  0  0
    2.4250   11.3220   -3.4210 C   0  0  0  0  0  0  0  0  0  0  0  0
    2.4280   12.7190   -2.8060 C   0  0  2  0  0  0  0  0  0  0  0  0
    3.4330   12.7740   -1.7900 O   0  0  0  0  0  0  0  0  0  0  0  0
    1.0530   13.1270   -2.2050 C   0  0  0  0  0  0  0  0  0  0  0  0
    0.0340   13.3600   -3.3470 C   0  0  0  0  0  0  0  0  0  0  0  0
    1.2300   14.4950   -1.4940 C   0  0  0  0  0  0  0  0  0  0  0  0
    0.0180    9.4360   -0.8810 C   0  0  1  0  0  0  0  0  0  0  0  0
    1.1770    8.9380    0.0360 C   0  0  0  0  0  0  0  0  0  0  0  0
   -0.4290    8.1960   -1.7430 C   0  0  0  0  0  0  0  0  0  0  0  0
   -1.8830    8.1920   -2.2510 C   0  0  0  0  0  0  0  0  0  0  0  0
   -2.8630    8.4990   -1.1140 C   0  0  2  0  0  0  0  0  0  0  0  0
   -2.7380    7.3530   -0.0530 C   0  0  0  0  0  0  0  0  0  0  0  0
   -5.1974    5.9708   -3.4321 H   0  0  0  0  0  0  0  0  0  0  0  0
   -6.0225    7.5378   -3.7330 H   0  0  0  0  0  0  0  0  0  0  0  0
   -4.2282    7.4529   -3.7330 H   0  0  0  0  0  0  0  0  0  0  0  0
   -4.6363    6.5086   -1.2704 H   0  0  0  0  0  0  0  0  0  0  0  0
   -6.4774    7.5053   -0.0904 H   0  0  0  0  0  0  0  0  0  0  0  0
   -7.0045    8.3748   -1.6103 H   0  0  0  0  0  0  0  0  0  0  0  0
   -6.9735    5.6934   -2.3411 H   0  0  0  0  0  0  0  0  0  0  0  0
   -7.6526    5.6986   -0.6600 H   0  0  0  0  0  0  0  0  0  0  0  0
   -8.7836    5.9990   -2.8706 H   0  0  0  0  0  0  0  0  0  0  0  0
  -10.5824    6.9252    0.7789 H   0  0  0  0  0  0  0  0  0  0  0  0
   -8.7972    6.9039    0.5806 H   0  0  0  0  0  0  0  0  0  0  0  0
   -9.6823    8.4670    0.5806 H   0  0  0  0  0  0  0  0  0  0  0  0
  -12.0009    7.2835   -0.8683 H   0  0  0  0  0  0  0  0  0  0  0  0
  -11.4794    8.1896   -2.3290 H   0  0  0  0  0  0  0  0  0  0  0  0
  -11.4525    6.3935   -2.3290 H   0  0  0  0  0  0  0  0  0  0  0  0
   -4.4452    9.1176   -2.4869 H   0  0  0  0  0  0  0  0  0  0  0  0
   -5.6336   10.2250   -0.6981 H   0  0  0  0  0  0  0  0  0  0  0  0
   -5.5113    8.8071    0.3652 H   0  0  0  0  0  0  0  0  0  0  0  0
   -3.9436   11.1873    0.5835 H   0  0  0  0  0  0  0  0  0  0  0  0
   -3.5531    9.6707    1.3904 H   0  0  0  0  0  0  0  0  0  0  0  0
   -2.8528   12.0433   -1.0941 H   0  0  0  0  0  0  0  0  0  0  0  0
   -1.8169   11.1333   -2.2454 H   0  0  0  0  0  0  0  0  0  0  0  0
   -3.5954   10.8814   -2.2454 H   0  0  0  0  0  0  0  0  0  0  0  0
   -1.2320    9.1992    0.8813 H   0  0  0  0  0  0  0  0  0  0  0  0
   -1.6541   11.7250    1.1685 H   0  0  0  0  0  0  0  0  0  0  0  0
   -0.0161   10.9818    1.5623 H   0  0  0  0  0  0  0  0  0  0  0  0
    0.0254   13.2899    0.2925 H   0  0  0  0  0  0  0  0  0  0  0  0
   -0.1885   10.5547   -2.6685 H   0  0  0  0  0  0  0  0  0  0  0  0
    2.6757   10.2668   -1.5674 H   0  0  0  0  0  0  0  0  0  0  0  0
    1.9238    9.3090   -2.9194 H   0  0  0  0  0  0  0  0  0  0  0  0
    3.4432   11.0733   -3.7547 H   0  0  0  0  0  0  0  0  0  0  0  0
    1.7288   11.3146   -4.2726 H   0  0  0  0  0  0  0  0  0  0  0  0
    2.6416   13.4343   -3.6139 H   0  0  0  0  0  0  0  0  0  0  0  0
    3.5230   13.7020   -1.5150 H   0  0  0  0  0  0  0  0  0  0  0  0
   -0.9531   13.5857   -2.9172 H   0  0  0  0  0  0  0  0  0  0  0  0
    0.3657   14.2055   -3.9676 H   0  0  0  0  0  0  0  0  0  0  0  0
   -0.0347   12.4544   -3.9676 H   0  0  0  0  0  0  0  0  0  0  0  0
    1.2109   14.3470   -0.4042 H   0  0  0  0  0  0  0  0  0  0  0  0
    2.1930   14.9386   -1.7869 H   0  0  0  0  0  0  0  0  0  0  0  0
    0.4116   15.1691   -1.7869 H   0  0  0  0  0  0  0  0  0  0  0  0
    0.8892    9.0617    1.0905 H   0  0  0  0  0  0  0  0  0  0  0  0
    1.3751    7.8754   -0.1678 H   0  0  0  0  0  0  0  0  0  0  0  0
    2.0842    9.5257   -0.1678 H   0  0  0  0  0  0  0  0  0  0  0  0
    0.2308    8.1462   -2.6218 H   0  0  0  0  0  0  0  0  0  0  0  0
   -0.3585    7.3330   -1.0645 H   0  0  0  0  0  0  0  0  0  0  0  0
   -1.9920    8.9552   -3.0356 H   0  0  0  0  0  0  0  0  0  0  0  0
   -2.1118    7.1930   -2.6505 H   0  0  0  0  0  0  0  0  0  0  0  0
   -2.7849    7.7830    0.9584 H   0  0  0  0  0  0  0  0  0  0  0  0
   -3.5635    6.6383   -0.1862 H   0  0  0  0  0  0  0  0  0  0  0  0
   -1.7778    6.8331   -0.1862 H   0  0  0  0  0  0  0  0  0  0  0  0
  1  2  1  0
  2  3  1  0
  3  4  1  0
  4  5  1  0
  5  6  1  0
  6  7  1  0
  7  8  1  0
  7  9  1  0
  2 10  1  0
 10 11  1  0
 11 12  1  0
 12 13  1  0
 13 14  1  6
 13 15  1  0
 15 16  1  0
 16 17  1  0
 17 18  2  0
 18 19  1  0
 19 20  1  0
 20 21  1  0
 21 22  1  0
 22 23  1  0
 22 24  1  0
 24 25  1  0
 24 26  1  0
 19 27  1  0
 27 28  1  1
 27 29  1  0
 29 30  1  0
 30 31  1  0
 31 32  1  1
  7  5  1  0
 31 10  1  0
 31 13  1  0
 27 15  1  0
 24 18  1  0
  1 33  1  0
  1 34  1  0
  1 35  1  0
  2 36  1  1
  3 37  1  0
  3 38  1  0
  4 39  1  0
  4 40  1  0
  5 41  1  6
  8 42  1  0
  8 43  1  0
  8 44  1  0
  9 45  1  0
  9 46  1  0
  9 47  1  0
 10 48  1  6
 11 49  1  0
 11 50  1  0
 12 51  1  0
 12 52  1  0
 14 53  1  0
 14 54  1  0
 14 55  1  0
 15 56  1  1
 16 57  1  0
 16 58  1  0
 17 59  1  0
 19 60  1  6
 20 61  1  0
 20 62  1  0
 21 63  1  0
 21 64  1  0
 22 65  1  6
 23 66  1  0
 25 67  1  0
 25 68  1  0
 25 69  1  0
 26 70  1  0
 26 71  1  0
 26 72  1  0
 28 73  1  0
 28 74  1  0
 28 75  1  0
 29 76  1  0
 29 77  1  0
 30 78  1  0
 30 79  1  0
 32 80  1  0
 32 81  1  0
 32 82  1  0
M  END
>  <meeko>  (14) 
{"is_sidechain": [false], "intermolecular_energy": 2.731, "internal_energy": -0.839}

$$$$
EPH_relaxed_0001_pdb2pqr_Repair_117_r2_0001_out
     RDKit          3D

 82 86  0  0  0  0  0  0  0  0999 V2000
   -4.3020   11.3180   -1.1820 C   0  0  0  0  0  0  0  0  0  0  0  0
   -2.9380   10.6240   -1.1310 C   0  0  2  0  0  0  0  0  0  0  0  0
   -2.9690    9.3440   -0.2720 C   0  0  0  0  0  0  0  0  0  0  0  0
   -2.4630    8.0990   -1.0050 C   0  0  0  0  0  0  0  0  0  0  0  0
   -1.2810    8.4090   -1.8730 C   0  0  2  0  0  0  0  0  0  0  0  0
   -0.4630    7.2760   -2.1970 O   0  0  0  0  0  0  0  0  0  0  0  0
    0.1560    8.2980   -1.3990 C   0  0  0  0  0  0  0  0  0  0  0  0
    0.4870    7.8640   -0.0050 C   0  0  0  0  0  0  0  0  0  0  0  0
    1.2110    9.0730   -2.1250 C   0  0  0  0  0  0  0  0  0  0  0  0
   -1.8860   11.5870   -0.5930 C   0  0  1  0  0  0  0  0  0  0  0  0
   -0.9920   10.9450    0.5010 C   0  0  0  0  0  0  0  0  0  0  0  0
    0.4270   11.5450    0.3280 C   0  0  0  0  0  0  0  0  0  0  0  0
    0.2300   12.7430   -0.6290 C   0  0  1  0  0  0  0  0  0  0  0  0
   -0.2860   13.9020    0.2810 C   0  0  0  0  0  0  0  0  0  0  0  0
    1.4810   13.1760   -1.4610 C   0  0  2  0  0  0  0  0  0  0  0  0
    2.6800   13.6650   -0.6300 C   0  0  0  0  0  0  0  0  0  0  0  0
    2.7070   15.1320   -0.3510 C   0  0  0  0  0  0  0  0  0  0  0  0
    1.9680   16.0620   -0.9840 C   0  0  0  0  0  0  0  0  0  0  0  0
    1.0640   15.6810   -2.1630 C   0  0  1  0  0  0  0  0  0  0  0  0
    1.2690   16.6920   -3.3210 C   0  0  0  0  0  0  0  0  0  0  0  0
    1.0710   18.1380   -2.8770 C   0  0  0  0  0  0  0  0  0  0  0  0
    2.0270   18.4970   -1.7430 C   0  0  2  0  0  0  0  0  0  0  0  0
    3.3660   18.4820   -2.2480 O   0  0  0  0  0  0  0  0  0  0  0  0
    1.9180   17.5400   -0.5230 C   0  0  0  0  0  0  0  0  0  0  0  0
    0.5720   17.7760    0.2050 C   0  0  0  0  0  0  0  0  0  0  0  0
    3.0320   17.9250    0.4870 C   0  0  0  0  0  0  0  0  0  0  0  0
    1.1570   14.1700   -2.6490 C   0  0  1  0  0  0  0  0  0  0  0  0
    2.3110   14.0150   -3.6860 C   0  0  0  0  0  0  0  0  0  0  0  0
   -0.1720   13.7900   -3.4020 C   0  0  0  0  0  0  0  0  0  0  0  0
   -1.3310   13.2550   -2.5390 C   0  0  0  0  0  0  0  0  0  0  0  0
   -0.8500   12.1440   -1.6020 C   0  0  2  0  0  0  0  0  0  0  0  0
   -0.3450   10.9550   -2.4890 C   0  0  0  0  0  0  0  0  0  0  0  0
   -4.6594   11.4998   -0.1577 H   0  0  0  0  0  0  0  0  0  0  0  0
   -4.2059   12.2768   -1.7125 H   0  0  0  0  0  0  0  0  0  0  0  0
   -5.0205   10.6759   -1.7125 H   0  0  0  0  0  0  0  0  0  0  0  0
   -2.6795   10.3256   -2.1577 H   0  0  0  0  0  0  0  0  0  0  0  0
   -2.3383    9.5054    0.6147 H   0  0  0  0  0  0  0  0  0  0  0  0
   -4.0210    9.1577   -0.0102 H   0  0  0  0  0  0  0  0  0  0  0  0
   -2.1711    7.3420   -0.2622 H   0  0  0  0  0  0  0  0  0  0  0  0
   -3.2734    7.7272   -1.6491 H   0  0  0  0  0  0  0  0  0  0  0  0
   -1.8317    9.2175   -2.3760 H   0  0  0  0  0  0  0  0  0  0  0  0
   -0.0176    8.5256    0.7145 H   0  0  0  0  0  0  0  0  0  0  0  0
    0.1467    6.8291    0.1474 H   0  0  0  0  0  0  0  0  0  0  0  0
    1.5750    7.9184    0.1474 H   0  0  0  0  0  0  0  0  0  0  0  0
    1.8748    9.5606   -1.3959 H   0  0  0  0  0  0  0  0  0  0  0  0
    1.7985    8.3901   -2.7563 H   0  0  0  0  0  0  0  0  0  0  0  0
    0.7350    9.8378   -2.7563 H   0  0  0  0  0  0  0  0  0  0  0  0
   -2.5408   12.3972   -0.2398 H   0  0  0  0  0  0  0  0  0  0  0  0
   -1.3852   11.1843    1.5001 H   0  0  0  0  0  0  0  0  0  0  0  0
   -0.9724    9.8496    0.4024 H   0  0  0  0  0  0  0  0  0  0  0  0
    0.8264   11.8826    1.2957 H   0  0  0  0  0  0  0  0  0  0  0  0
    1.1452   10.8106   -0.0654 H   0  0  0  0  0  0  0  0  0  0  0  0
   -0.1613   13.6220    1.3374 H   0  0  0  0  0  0  0  0  0  0  0  0
    0.2904   14.8156    0.0734 H   0  0  0  0  0  0  0  0  0  0  0  0
   -1.3506   14.0850    0.0734 H   0  0  0  0  0  0  0  0  0  0  0  0
    1.8008   12.2274   -1.9169 H   0  0  0  0  0  0  0  0  0  0  0  0
    2.6637   13.1359    0.3342 H   0  0  0  0  0  0  0  0  0  0  0  0
    3.5750   13.4535   -1.2335 H   0  0  0  0  0  0  0  0  0  0  0  0
    3.3884   15.4820    0.4385 H   0  0  0  0  0  0  0  0  0  0  0  0
    0.0321   15.7472   -1.7878 H   0  0  0  0  0  0  0  0  0  0  0  0
    2.2916   16.5796   -3.7104 H   0  0  0  0  0  0  0  0  0  0  0  0
    0.5158   16.4734   -4.0923 H   0  0  0  0  0  0  0  0  0  0  0  0
    1.2588   18.8055   -3.7309 H   0  0  0  0  0  0  0  0  0  0  0  0
    0.0386   18.2558   -2.5159 H   0  0  0  0  0  0  0  0  0  0  0  0
    1.7492   19.4981   -1.3815 H   0  0  0  0  0  0  0  0  0  0  0  0
    3.4180   19.1370   -2.9650 H   0  0  0  0  0  0  0  0  0  0  0  0
    0.7335   17.7477    1.2927 H   0  0  0  0  0  0  0  0  0  0  0  0
    0.1682   18.7586   -0.0803 H   0  0  0  0  0  0  0  0  0  0  0  0
   -0.1420   16.9893   -0.0803 H   0  0  0  0  0  0  0  0  0  0  0  0
    2.6573   17.7955    1.5131 H   0  0  0  0  0  0  0  0  0  0  0  0
    3.9074   17.2773    0.3318 H   0  0  0  0  0  0  0  0  0  0  0  0
    3.3207   18.9750    0.3318 H   0  0  0  0  0  0  0  0  0  0  0  0
    3.2660   13.8867   -3.1554 H   0  0  0  0  0  0  0  0  0  0  0  0
    2.1210   13.1343   -4.3171 H   0  0  0  0  0  0  0  0  0  0  0  0
    2.3601   14.9146   -4.3171 H   0  0  0  0  0  0  0  0  0  0  0  0
   -0.5310   14.6920   -3.9191 H   0  0  0  0  0  0  0  0  0  0  0  0
    0.1014   12.9563   -4.0654 H   0  0  0  0  0  0  0  0  0  0  0  0
   -1.7423   14.0794   -1.9380 H   0  0  0  0  0  0  0  0  0  0  0  0
   -2.1024   12.8418   -3.2055 H   0  0  0  0  0  0  0  0  0  0  0  0
    0.0027   10.1365   -1.8416 H   0  0  0  0  0  0  0  0  0  0  0  0
   -1.1683   10.5958   -3.1240 H   0  0  0  0  0  0  0  0  0  0  0  0
    0.4851   11.2981   -3.1240 H   0  0  0  0  0  0  0  0  0  0  0  0
  1  2  1  0
  2  3  1  0
  3  4  1  0
  4  5  1  0
  5  6  1  0
  6  7  1  0
  7  8  1  0
  7  9  1  0
  2 10  1  0
 10 11  1  0
 11 12  1  0
 12 13  1  0
 13 14  1  1
 13 15  1  0
 15 16  1  0
 16 17  1  0
 17 18  2  0
 18 19  1  0
 19 20  1  0
 20 21  1  0
 21 22  1  0
 22 23  1  0
 22 24  1  0
 24 25  1  0
 24 26  1  0
 19 27  1  0
 27 28  1  6
 27 29  1  0
 29 30  1  0
 30 31  1  0
 31 32  1  6
  7  5  1  0
 31 10  1  0
 31 13  1  0
 27 15  1  0
 24 18  1  0
  1 33  1  0
  1 34  1  0
  1 35  1  0
  2 36  1  6
  3 37  1  0
  3 38  1  0
  4 39  1  0
  4 40  1  0
  5 41  1  6
  8 42  1  0
  8 43  1  0
  8 44  1  0
  9 45  1  0
  9 46  1  0
  9 47  1  0
 10 48  1  1
 11 49  1  0
 11 50  1  0
 12 51  1  0
 12 52  1  0
 14 53  1  0
 14 54  1  0
 14 55  1  0
 15 56  1  6
 16 57  1  0
 16 58  1  0
 17 59  1  0
 19 60  1  1
 20 61  1  0
 20 62  1  0
 21 63  1  0
 21 64  1  0
 22 65  1  1
 23 66  1  0
 25 67  1  0
 25 68  1  0
 25 69  1  0
 26 70  1  0
 26 71  1  0
 26 72  1  0
 28 73  1  0
 28 74  1  0
 28 75  1  0
 29 76  1  0
 29 77  1  0
 30 78  1  0
 30 79  1  0
 32 80  1  0
 32 81  1  0
 32 82  1  0
M  END
>  <meeko>  (15) 
{"is_sidechain": [false], "intermolecular_energy": 2.731, "internal_energy": -0.839}

$$$$
EPH_relaxed_0001_pdb2pqr_Repair_117_r2_0001_out
     RDKit          3D

 82 86  0  0  0  0  0  0  0  0999 V2000
   -1.7410   14.7770    0.4050 C   0  0  0  0  0  0  0  0  0  0  0  0
   -0.4030   15.4990    0.2270 C   0  0  2  0  0  0  0  0  0  0  0  0
   -0.4460   16.5270   -0.9220 C   0  0  0  0  0  0  0  0  0  0  0  0
   -0.0740   17.9480   -0.4900 C   0  0  0  0  0  0  0  0  0  0  0  0
    1.3560   18.0380   -0.0510 C   0  0  2  0  0  0  0  0  0  0  0  0
    2.0100   19.2680   -0.3890 O   0  0  0  0  0  0  0  0  0  0  0  0
    2.5260   18.0820   -1.0150 C   0  0  0  0  0  0  0  0  0  0  0  0
    2.3190   18.0370   -2.4970 C   0  0  0  0  0  0  0  0  0  0  0  0
    3.8790   17.6780   -0.5180 C   0  0  0  0  0  0  0  0  0  0  0  0
    0.7070   14.4840   -0.0240 C   0  0  1  0  0  0  0  0  0  0  0  0
    0.8620   13.4690    1.1400 C   0  0  0  0  0  0  0  0  0  0  0  0
    1.2610   12.1140    0.5020 C   0  0  0  0  0  0  0  0  0  0  0  0
    1.6440   12.4670   -0.9550 C   0  0  1  0  0  0  0  0  0  0  0  0
    3.1080   13.0000   -0.8660 C   0  0  0  0  0  0  0  0  0  0  0  0
    1.5120   11.3150   -2.0030 C   0  0  2  0  0  0  0  0  0  0  0  0
    2.4200   10.0980   -1.7530 C   0  0  0  0  0  0  0  0  0  0  0  0
    3.7610   10.1580   -2.4060 C   0  0  0  0  0  0  0  0  0  0  0  0
    4.1150   11.0070   -3.3880 C   0  0  0  0  0  0  0  0  0  0  0  0
    3.0890   11.9640   -4.0100 C   0  0  1  0  0  0  0  0  0  0  0  0
    3.2090   11.9170   -5.5560 C   0  0  0  0  0  0  0  0  0  0  0  0
    4.6290   12.1880   -6.0420 C   0  0  0  0  0  0  0  0  0  0  0  0
    5.6100   11.1810   -5.4480 C   0  0  2  0  0  0  0  0  0  0  0  0
    5.3170    9.8850   -5.9770 O   0  0  0  0  0  0  0  0  0  0  0  0
    5.5730   11.1320   -3.8950 C   0  0  0  0  0  0  0  0  0  0  0  0
    6.1780   12.4360   -3.3180 C   0  0  0  0  0  0  0  0  0  0  0  0
    6.5040    9.9790   -3.4310 C   0  0  0  0  0  0  0  0  0  0  0  0
    1.5910   11.7950   -3.5080 C   0  0  1  0  0  0  0  0  0  0  0  0
    0.8630   10.7110   -4.3610 C   0  0  0  0  0  0  0  0  0  0  0  0
    0.8140   13.1440   -3.7470 C   0  0  0  0  0  0  0  0  0  0  0  0
    0.8850   14.1950   -2.6240 C   0  0  0  0  0  0  0  0  0  0  0  0
    0.5640   13.5670   -1.2640 C   0  0  2  0  0  0  0  0  0  0  0  0
   -0.9110   13.0420   -1.3160 C   0  0  0  0  0  0  0  0  0  0  0  0
   -1.9554   14.6613    1.4777 H   0  0  0  0  0  0  0  0  0  0  0  0
   -2.5411   15.3658   -0.0674 H   0  0  0  0  0  0  0  0  0  0  0  0
   -1.6880   13.7850   -0.0674 H   0  0  0  0  0  0  0  0  0  0  0  0
   -0.1991   16.0506    1.1566 H   0  0  0  0  0  0  0  0  0  0  0  0
    0.2593   16.2053   -1.7025 H   0  0  0  0  0  0  0  0  0  0  0  0
   -1.4843   16.5621   -1.2836 H   0  0  0  0  0  0  0  0  0  0  0  0
   -0.2300   18.6307   -1.3383 H   0  0  0  0  0  0  0  0  0  0  0  0
   -0.7121   18.2252    0.3620 H   0  0  0  0  0  0  0  0  0  0  0  0
    1.1491   17.4124    0.8298 H   0  0  0  0  0  0  0  0  0  0  0  0
    1.2651   17.8079   -2.7132 H   0  0  0  0  0  0  0  0  0  0  0  0
    2.5791   19.0127   -2.9334 H   0  0  0  0  0  0  0  0  0  0  0  0
    2.9607   17.2574   -2.9334 H   0  0  0  0  0  0  0  0  0  0  0  0
    3.8805   17.6776    0.5820 H   0  0  0  0  0  0  0  0  0  0  0  0
    4.1184   16.6692   -0.8854 H   0  0  0  0  0  0  0  0  0  0  0  0
    4.6323   18.3904   -0.8854 H   0  0  0  0  0  0  0  0  0  0  0  0
    1.5572   15.1689   -0.1585 H   0  0  0  0  0  0  0  0  0  0  0  0
    1.6456   13.8060    1.8345 H   0  0  0  0  0  0  0  0  0  0  0  0
   -0.0740   13.3764    1.7104 H   0  0  0  0  0  0  0  0  0  0  0  0
    2.1173   11.6721    1.0325 H   0  0  0  0  0  0  0  0  0  0  0  0
    0.4489   11.3737    0.5524 H   0  0  0  0  0  0  0  0  0  0  0  0
    3.3964   13.1050    0.1903 H   0  0  0  0  0  0  0  0  0  0  0  0
    3.7870   12.2914   -1.3628 H   0  0  0  0  0  0  0  0  0  0  0  0
    3.1725   13.9793   -1.3628 H   0  0  0  0  0  0  0  0  0  0  0  0
    0.4843   10.9608   -1.8348 H   0  0  0  0  0  0  0  0  0  0  0  0
    2.5742   10.0063   -0.6677 H   0  0  0  0  0  0  0  0  0  0  0  0
    1.9027    9.2357   -2.1990 H   0  0  0  0  0  0  0  0  0  0  0  0
    4.5243    9.4481   -2.0547 H   0  0  0  0  0  0  0  0  0  0  0  0
    3.3493   12.9689   -3.6461 H   0  0  0  0  0  0  0  0  0  0  0  0
    2.9021   10.9193   -5.9031 H   0  0  0  0  0  0  0  0  0  0  0  0
    2.5604   12.7058   -5.9649 H   0  0  0  0  0  0  0  0  0  0  0  0
    4.6548   12.1117   -7.1390 H   0  0  0  0  0  0  0  0  0  0  0  0
    4.9238   13.1976   -5.7198 H   0  0  0  0  0  0  0  0  0  0  0  0
    6.6237   11.5043   -5.7273 H   0  0  0  0  0  0  0  0  0  0  0  0
    6.1640    9.4340   -6.1370 H   0  0  0  0  0  0  0  0  0  0  0  0
    6.1586   12.3942   -2.2190 H   0  0  0  0  0  0  0  0  0  0  0  0
    7.2172   12.5419   -3.6626 H   0  0  0  0  0  0  0  0  0  0  0  0
    5.5878   13.2979   -3.6626 H   0  0  0  0  0  0  0  0  0  0  0  0
    6.5291    9.9479   -2.3317 H   0  0  0  0  0  0  0  0  0  0  0  0
    6.1224    9.0220   -3.8163 H   0  0  0  0  0  0  0  0  0  0  0  0
    7.5199   10.1504   -3.8163 H   0  0  0  0  0  0  0  0  0  0  0  0
    0.3756    9.9853   -3.6933 H   0  0  0  0  0  0  0  0  0  0  0  0
    0.1044   11.1923   -4.9957 H   0  0  0  0  0  0  0  0  0  0  0  0
    1.5956   10.1909   -4.9957 H   0  0  0  0  0  0  0  0  0  0  0  0
    1.2199   13.6045   -4.6598 H   0  0  0  0  0  0  0  0  0  0  0  0
   -0.2466   12.8583   -3.8069 H   0  0  0  0  0  0  0  0  0  0  0  0
    1.8987   14.6209   -2.5934 H   0  0  0  0  0  0  0  0  0  0  0  0
    0.1434   14.9805   -2.8314 H   0  0  0  0  0  0  0  0  0  0  0  0
   -1.2887   12.9076   -0.2917 H   0  0  0  0  0  0  0  0  0  0  0  0
   -1.5412   13.7710   -1.8464 H   0  0  0  0  0  0  0  0  0  0  0  0
   -0.9389   12.0787   -1.8464 H   0  0  0  0  0  0  0  0  0  0  0  0
  1  2  1  0
  2  3  1  0
  3  4  1  0
  4  5  1  0
  5  6  1  0
  6  7  1  0
  7  8  1  0
  7  9  1  0
  2 10  1  0
 10 11  1  0
 11 12  1  0
 12 13  1  0
 13 14  1  1
 13 15  1  0
 15 16  1  0
 16 17  1  0
 17 18  2  0
 18 19  1  0
 19 20  1  0
 20 21  1  0
 21 22  1  0
 22 23  1  0
 22 24  1  0
 24 25  1  0
 24 26  1  0
 19 27  1  0
 27 28  1  6
 27 29  1  0
 29 30  1  0
 30 31  1  0
 31 32  1  6
  7  5  1  0
 31 10  1  0
 31 13  1  0
 27 15  1  0
 24 18  1  0
  1 33  1  0
  1 34  1  0
  1 35  1  0
  2 36  1  1
  3 37  1  0
  3 38  1  0
  4 39  1  0
  4 40  1  0
  5 41  1  1
  8 42  1  0
  8 43  1  0
  8 44  1  0
  9 45  1  0
  9 46  1  0
  9 47  1  0
 10 48  1  6
 11 49  1  0
 11 50  1  0
 12 51  1  0
 12 52  1  0
 14 53  1  0
 14 54  1  0
 14 55  1  0
 15 56  1  6
 16 57  1  0
 16 58  1  0
 17 59  1  0
 19 60  1  1
 20 61  1  0
 20 62  1  0
 21 63  1  0
 21 64  1  0
 22 65  1  1
 23 66  1  0
 25 67  1  0
 25 68  1  0
 25 69  1  0
 26 70  1  0
 26 71  1  0
 26 72  1  0
 28 73  1  0
 28 74  1  0
 28 75  1  0
 29 76  1  0
 29 77  1  0
 30 78  1  0
 30 79  1  0
 32 80  1  0
 32 81  1  0
 32 82  1  0
M  END
>  <meeko>  (16) 
{"is_sidechain": [false], "intermolecular_energy": 2.731, "internal_energy": -0.839}

$$$$
EPH_relaxed_0001_pdb2pqr_Repair_117_r2_0001_out
     RDKit          3D

 82 86  0  0  0  0  0  0  0  0999 V2000
    2.8190   14.0740   -0.8410 C   0  0  0  0  0  0  0  0  0  0  0  0
    2.1210   12.8000   -1.3270 C   0  0  2  0  0  0  0  0  0  0  0  0
    2.6450   11.5410   -0.6100 C   0  0  0  0  0  0  0  0  0  0  0  0
    1.7370   11.0560    0.5240 C   0  0  0  0  0  0  0  0  0  0  0  0
    0.2910   11.3150    0.2270 C   0  0  2  0  0  0  0  0  0  0  0  0
   -0.6280   10.5190    0.9850 O   0  0  0  0  0  0  0  0  0  0  0  0
   -0.6220   10.3000   -0.4350 C   0  0  0  0  0  0  0  0  0  0  0  0
   -0.1220    8.9490   -0.8400 C   0  0  0  0  0  0  0  0  0  0  0  0
   -1.8550   10.7910   -1.1270 C   0  0  0  0  0  0  0  0  0  0  0  0
    2.2980   12.6530   -2.8340 C   0  0  1  0  0  0  0  0  0  0  0  0
    2.1430   11.1850   -3.3130 C   0  0  0  0  0  0  0  0  0  0  0  0
    1.4730   11.2390   -4.7100 C   0  0  0  0  0  0  0  0  0  0  0  0
    1.5670   12.7250   -5.1310 C   0  0  1  0  0  0  0  0  0  0  0  0
    3.0180   12.8940   -5.6810 C   0  0  0  0  0  0  0  0  0  0  0  0
    0.4990   13.2210   -6.1590 C   0  0  2  0  0  0  0  0  0  0  0  0
    0.5440   12.5290   -7.5320 C   0  0  0  0  0  0  0  0  0  0  0  0
    1.4170   13.1860   -8.5490 C   0  0  0  0  0  0  0  0  0  0  0  0
    1.9120   14.4350   -8.4650 C   0  0  0  0  0  0  0  0  0  0  0  0
    1.5220   15.3610   -7.3050 C   0  0  1  0  0  0  0  0  0  0  0  0
    1.1560   16.7620   -7.8620 C   0  0  0  0  0  0  0  0  0  0  0  0
    2.2610   17.3520   -8.7330 C   0  0  0  0  0  0  0  0  0  0  0  0
    2.5800   16.4310   -9.9070 C   0  0  2  0  0  0  0  0  0  0  0  0
    1.4490   16.3910  -10.7820 O   0  0  0  0  0  0  0  0  0  0  0  0
    2.9540   14.9870   -9.4700 C   0  0  0  0  0  0  0  0  0  0  0  0
    4.3390   14.9950   -8.7780 C   0  0  0  0  0  0  0  0  0  0  0  0
    3.1130   14.1260  -10.7510 C   0  0  0  0  0  0  0  0  0  0  0  0
    0.4230   14.7950   -6.3060 C   0  0  1  0  0  0  0  0  0  0  0  0
   -1.0030   15.1240   -6.8430 C   0  0  0  0  0  0  0  0  0  0  0  0
    0.5580   15.5330   -4.9220 C   0  0  0  0  0  0  0  0  0  0  0  0
    1.5420   14.9250   -3.9040 C   0  0  0  0  0  0  0  0  0  0  0  0
    1.3070   13.4200   -3.7450 C   0  0  2  0  0  0  0  0  0  0  0  0
   -0.1370   13.2190   -3.1720 C   0  0  0  0  0  0  0  0  0  0  0  0
    2.8280   14.0904    0.2588 H   0  0  0  0  0  0  0  0  0  0  0  0
    3.8528   14.0917   -1.2164 H   0  0  0  0  0  0  0  0  0  0  0  0
    2.2775   14.9548   -1.2164 H   0  0  0  0  0  0  0  0  0  0  0  0
    1.0521   12.8960   -1.0856 H   0  0  0  0  0  0  0  0  0  0  0  0
    2.7378   10.7329   -1.3505 H   0  0  0  0  0  0  0  0  0  0  0  0
    3.6112   11.8076   -0.1568 H   0  0  0  0  0  0  0  0  0  0  0  0
    1.8845    9.9745    0.6608 H   0  0  0  0  0  0  0  0  0  0  0  0
    2.0036   11.6093    1.4366 H   0  0  0  0  0  0  0  0  0  0  0  0
    0.5016   12.3720    0.0070 H   0  0  0  0  0  0  0  0  0  0  0  0
    0.0979    8.3547    0.0591 H   0  0  0  0  0  0  0  0  0  0  0  0
   -0.8905    8.4378   -1.4384 H   0  0  0  0  0  0  0  0  0  0  0  0
    0.7941    9.0613   -1.4384 H   0  0  0  0  0  0  0  0  0  0  0  0
   -2.6025   11.0887   -0.3769 H   0  0  0  0  0  0  0  0  0  0  0  0
   -1.6020   11.6570   -1.7563 H   0  0  0  0  0  0  0  0  0  0  0  0
   -2.2666    9.9882   -1.7563 H   0  0  0  0  0  0  0  0  0  0  0  0
    3.3093   13.0719   -2.9426 H   0  0  0  0  0  0  0  0  0  0  0  0
    3.1295   10.7036   -3.3843 H   0  0  0  0  0  0  0  0  0  0  0  0
    1.5358   10.6008   -2.6059 H   0  0  0  0  0  0  0  0  0  0  0  0
    2.0114   10.5984   -5.4239 H   0  0  0  0  0  0  0  0  0  0  0  0
    0.4347   10.8764   -4.6889 H   0  0  0  0  0  0  0  0  0  0  0  0
    3.7218   12.9760   -4.8396 H   0  0  0  0  0  0  0  0  0  0  0  0
    3.2813   12.0204   -6.2955 H   0  0  0  0  0  0  0  0  0  0  0  0
    3.0735   13.8047   -6.2955 H   0  0  0  0  0  0  0  0  0  0  0  0
   -0.4441   12.8984   -5.6937 H   0  0  0  0  0  0  0  0  0  0  0  0
    0.9091   11.5021   -7.3832 H   0  0  0  0  0  0  0  0  0  0  0  0
   -0.4796   12.5792   -7.9317 H   0  0  0  0  0  0  0  0  0  0  0  0
    1.6779   12.6000   -9.4426 H   0  0  0  0  0  0  0  0  0  0  0  0
    2.4116   15.4356   -6.6623 H   0  0  0  0  0  0  0  0  0  0  0  0
    0.2406   16.6734   -8.4655 H   0  0  0  0  0  0  0  0  0  0  0  0
    1.0116   17.4352   -7.0041 H   0  0  0  0  0  0  0  0  0  0  0  0
    1.9321   18.3278   -9.1199 H   0  0  0  0  0  0  0  0  0  0  0  0
    3.1674   17.4669   -8.1204 H   0  0  0  0  0  0  0  0  0  0  0  0
    3.4632   16.8422  -10.4177 H   0  0  0  0  0  0  0  0  0  0  0  0
    0.7030   16.0180  -10.2820 H   0  0  0  0  0  0  0  0  0  0  0  0
    4.2035   14.9942   -7.6864 H   0  0  0  0  0  0  0  0  0  0  0  0
    4.9039   14.1001   -9.0780 H   0  0  0  0  0  0  0  0  0  0  0  0
    4.8936   15.8964   -9.0780 H   0  0  0  0  0  0  0  0  0  0  0  0
    3.3061   13.0806  -10.4685 H   0  0  0  0  0  0  0  0  0  0  0  0
    2.1896   14.1804  -11.3463 H   0  0  0  0  0  0  0  0  0  0  0  0
    3.9560   14.5066  -11.3463 H   0  0  0  0  0  0  0  0  0  0  0  0
   -1.6865   15.2817   -5.9957 H   0  0  0  0  0  0  0  0  0  0  0  0
   -0.9624   16.0364   -7.4561 H   0  0  0  0  0  0  0  0  0  0  0  0
   -1.3663   14.2861   -7.4561 H   0  0  0  0  0  0  0  0  0  0  0  0
    0.8836   16.5639   -5.1249 H   0  0  0  0  0  0  0  0  0  0  0  0
   -0.4327   15.4468   -4.4518 H   0  0  0  0  0  0  0  0  0  0  0  0
    2.5712   15.0934   -4.2538 H   0  0  0  0  0  0  0  0  0  0  0  0
    1.3820   15.4096   -2.9295 H   0  0  0  0  0  0  0  0  0  0  0  0
   -0.0993   13.2243   -2.0727 H   0  0  0  0  0  0  0  0  0  0  0  0
   -0.7867   14.0354   -3.5205 H   0  0  0  0  0  0  0  0  0  0  0  0
   -0.5390   12.2562   -3.5205 H   0  0  0  0  0  0  0  0  0  0  0  0
  1  2  1  0
  2  3  1  0
  3  4  1  0
  4  5  1  0
  5  6  1  0
  6  7  1  0
  7  8  1  0
  7  9  1  0
  2 10  1  0
 10 11  1  0
 11 12  1  0
 12 13  1  0
 13 14  1  6
 13 15  1  0
 15 16  1  0
 16 17  1  0
 17 18  2  0
 18 19  1  0
 19 20  1  0
 20 21  1  0
 21 22  1  0
 22 23  1  0
 22 24  1  0
 24 25  1  0
 24 26  1  0
 19 27  1  0
 27 28  1  6
 27 29  1  0
 29 30  1  0
 30 31  1  0
 31 32  1  1
  7  5  1  0
 31 10  1  0
 31 13  1  0
 27 15  1  0
 24 18  1  0
  1 33  1  0
  1 34  1  0
  1 35  1  0
  2 36  1  6
  3 37  1  0
  3 38  1  0
  4 39  1  0
  4 40  1  0
  5 41  1  6
  8 42  1  0
  8 43  1  0
  8 44  1  0
  9 45  1  0
  9 46  1  0
  9 47  1  0
 10 48  1  6
 11 49  1  0
 11 50  1  0
 12 51  1  0
 12 52  1  0
 14 53  1  0
 14 54  1  0
 14 55  1  0
 15 56  1  1
 16 57  1  0
 16 58  1  0
 17 59  1  0
 19 60  1  1
 20 61  1  0
 20 62  1  0
 21 63  1  0
 21 64  1  0
 22 65  1  6
 23 66  1  0
 25 67  1  0
 25 68  1  0
 25 69  1  0
 26 70  1  0
 26 71  1  0
 26 72  1  0
 28 73  1  0
 28 74  1  0
 28 75  1  0
 29 76  1  0
 29 77  1  0
 30 78  1  0
 30 79  1  0
 32 80  1  0
 32 81  1  0
 32 82  1  0
M  END
>  <meeko>  (17) 
{"is_sidechain": [false], "intermolecular_energy": 2.731, "internal_energy": -0.839}

$$$$
EPH_relaxed_0001_pdb2pqr_Repair_117_r2_0001_out
     RDKit          3D

 82 86  0  0  0  0  0  0  0  0999 V2000
  -14.9800    8.8010    0.7220 C   0  0  0  0  0  0  0  0  0  0  0  0
  -14.1580    9.0540   -0.5450 C   0  0  2  0  0  0  0  0  0  0  0  0
  -14.5240    8.0780   -1.6800 C   0  0  0  0  0  0  0  0  0  0  0  0
  -14.5840    8.7350   -3.0620 C   0  0  0  0  0  0  0  0  0  0  0  0
  -15.2700   10.0670   -3.0130 C   0  0  2  0  0  0  0  0  0  0  0  0
  -14.9880   10.9260   -4.1250 O   0  0  0  0  0  0  0  0  0  0  0  0
  -14.5320   11.3820   -2.8410 C   0  0  0  0  0  0  0  0  0  0  0  0
  -13.0420   11.4290   -2.7060 C   0  0  0  0  0  0  0  0  0  0  0  0
  -15.2870   12.5630   -2.3170 C   0  0  0  0  0  0  0  0  0  0  0  0
  -12.6700    8.9500   -0.2280 C   0  0  1  0  0  0  0  0  0  0  0  0
  -12.3820    8.9660    1.2970 C   0  0  0  0  0  0  0  0  0  0  0  0
  -11.1680    8.0310    1.5330 C   0  0  0  0  0  0  0  0  0  0  0  0
  -10.5940    7.7730    0.1190 C   0  0  1  0  0  0  0  0  0  0  0  0
   -9.7250    9.0310   -0.1960 C   0  0  0  0  0  0  0  0  0  0  0  0
   -9.7830    6.4500   -0.0670 C   0  0  2  0  0  0  0  0  0  0  0  0
   -8.5070    6.3410    0.7860 C   0  0  0  0  0  0  0  0  0  0  0  0
   -7.2640    6.8630    0.1440 C   0  0  0  0  0  0  0  0  0  0  0  0
   -7.1160    7.1340   -1.1660 C   0  0  0  0  0  0  0  0  0  0  0  0
   -8.2370    6.8260   -2.1660 C   0  0  1  0  0  0  0  0  0  0  0  0
   -7.6410    6.1130   -3.4090 C   0  0  0  0  0  0  0  0  0  0  0  0
   -6.4950    6.8970   -4.0400 C   0  0  0  0  0  0  0  0  0  0  0  0
   -5.3750    7.1340   -3.0310 C   0  0  2  0  0  0  0  0  0  0  0  0
   -4.7780    5.8760   -2.7020 O   0  0  0  0  0  0  0  0  0  0  0  0
   -5.8580    7.8380   -1.7320 C   0  0  0  0  0  0  0  0  0  0  0  0
   -6.2240    9.3100   -2.0440 C   0  0  0  0  0  0  0  0  0  0  0  0
   -4.6630    7.8890   -0.7430 C   0  0  0  0  0  0  0  0  0  0  0  0
   -9.5030    6.0680   -1.5760 C   0  0  1  0  0  0  0  0  0  0  0  0
   -9.2640    4.5270   -1.6090 C   0  0  0  0  0  0  0  0  0  0  0  0
  -10.7460    6.3440   -2.5040 C   0  0  0  0  0  0  0  0  0  0  0  0
  -11.5770    7.6030   -2.1940 C   0  0  0  0  0  0  0  0  0  0  0  0
  -11.9290    7.6760   -0.7050 C   0  0  2  0  0  0  0  0  0  0  0  0
  -12.8220    6.4350   -0.3640 C   0  0  0  0  0  0  0  0  0  0  0  0
  -14.3567    8.9928    1.6078 H   0  0  0  0  0  0  0  0  0  0  0  0
  -15.8511    9.4726    0.7341 H   0  0  0  0  0  0  0  0  0  0  0  0
  -15.3227    7.7558    0.7341 H   0  0  0  0  0  0  0  0  0  0  0  0
  -14.3941   10.0697   -0.8951 H   0  0  0  0  0  0  0  0  0  0  0  0
  -13.7685    7.2790   -1.7079 H   0  0  0  0  0  0  0  0  0  0  0  0
  -15.5320    7.6954   -1.4621 H   0  0  0  0  0  0  0  0  0  0  0  0
  -13.5587    8.8755   -3.4348 H   0  0  0  0  0  0  0  0  0  0  0  0
  -15.1594    8.0771   -3.7299 H   0  0  0  0  0  0  0  0  0  0  0  0
  -16.1322    9.6307   -2.4875 H   0  0  0  0  0  0  0  0  0  0  0  0
  -12.7705   11.4376   -1.6401 H   0  0  0  0  0  0  0  0  0  0  0  0
  -12.6019   10.5443   -3.1894 H   0  0  0  0  0  0  0  0  0  0  0  0
  -12.6586   12.3397   -3.1894 H   0  0  0  0  0  0  0  0  0  0  0  0
  -15.2764   12.5464   -1.2172 H   0  0  0  0  0  0  0  0  0  0  0  0
  -14.8131   13.4891   -2.6743 H   0  0  0  0  0  0  0  0  0  0  0  0
  -16.3265   12.5216   -2.6743 H   0  0  0  0  0  0  0  0  0  0  0  0
  -12.3019    9.8280   -0.7789 H   0  0  0  0  0  0  0  0  0  0  0  0
  -12.1428    9.9878    1.6266 H   0  0  0  0  0  0  0  0  0  0  0  0
  -13.2588    8.6265    1.8680 H   0  0  0  0  0  0  0  0  0  0  0  0
  -10.4191    8.5207    2.1728 H   0  0  0  0  0  0  0  0  0  0  0  0
  -11.4518    7.0995    2.0446 H   0  0  0  0  0  0  0  0  0  0  0  0
   -9.4020    9.4987    0.7458 H   0  0  0  0  0  0  0  0  0  0  0  0
   -8.8414    8.7299   -0.7779 H   0  0  0  0  0  0  0  0  0  0  0  0
  -10.3193    9.7509   -0.7779 H   0  0  0  0  0  0  0  0  0  0  0  0
  -10.4742    5.6925    0.3311 H   0  0  0  0  0  0  0  0  0  0  0  0
   -8.6711    6.9041    1.7166 H   0  0  0  0  0  0  0  0  0  0  0  0
   -8.3386    5.2657    0.9455 H   0  0  0  0  0  0  0  0  0  0  0  0
   -6.3965    7.0410    0.7965 H   0  0  0  0  0  0  0  0  0  0  0  0
   -8.6581    7.7987   -2.4602 H   0  0  0  0  0  0  0  0  0  0  0  0
   -7.2659    5.1253   -3.1027 H   0  0  0  0  0  0  0  0  0  0  0  0
   -8.4402    6.0277   -4.1600 H   0  0  0  0  0  0  0  0  0  0  0  0
   -6.0965    6.3281   -4.8930 H   0  0  0  0  0  0  0  0  0  0  0  0
   -6.8790    7.8724   -4.3735 H   0  0  0  0  0  0  0  0  0  0  0  0
   -4.6457    7.8101   -3.5011 H   0  0  0  0  0  0  0  0  0  0  0  0
   -3.8810    6.0530   -2.3710 H   0  0  0  0  0  0  0  0  0  0  0  0
   -6.3611    9.8613   -1.1020 H   0  0  0  0  0  0  0  0  0  0  0  0
   -5.4138    9.7739   -2.6258 H   0  0  0  0  0  0  0  0  0  0  0  0
   -7.1571    9.3404   -2.6258 H   0  0  0  0  0  0  0  0  0  0  0  0
   -5.0410    7.8729    0.2899 H   0  0  0  0  0  0  0  0  0  0  0  0
   -4.0122    7.0178   -0.9090 H   0  0  0  0  0  0  0  0  0  0  0  0
   -4.0888    8.8125   -0.9090 H   0  0  0  0  0  0  0  0  0  0  0  0
   -9.2045    4.1431   -0.5799 H   0  0  0  0  0  0  0  0  0  0  0  0
  -10.0970    4.0379   -2.1352 H   0  0  0  0  0  0  0  0  0  0  0  0
   -8.3220    4.3132   -2.1352 H   0  0  0  0  0  0  0  0  0  0  0  0
  -10.3772    6.4344   -3.5364 H   0  0  0  0  0  0  0  0  0  0  0  0
  -11.4282    5.4986   -2.3310 H   0  0  0  0  0  0  0  0  0  0  0  0
  -10.9954    8.4949   -2.4702 H   0  0  0  0  0  0  0  0  0  0  0  0
  -12.5112    7.5574   -2.7730 H   0  0  0  0  0  0  0  0  0  0  0  0
  -12.8992    6.3278    0.7280 H   0  0  0  0  0  0  0  0  0  0  0  0
  -13.8260    6.5775   -0.7903 H   0  0  0  0  0  0  0  0  0  0  0  0
  -12.3679    5.5283   -0.7903 H   0  0  0  0  0  0  0  0  0  0  0  0
  1  2  1  0
  2  3  1  0
  3  4  1  0
  4  5  1  0
  5  6  1  0
  6  7  1  0
  7  8  1  0
  7  9  1  0
  2 10  1  0
 10 11  1  0
 11 12  1  0
 12 13  1  0
 13 14  1  6
 13 15  1  0
 15 16  1  0
 16 17  1  0
 17 18  2  0
 18 19  1  0
 19 20  1  0
 20 21  1  0
 21 22  1  0
 22 23  1  0
 22 24  1  0
 24 25  1  0
 24 26  1  0
 19 27  1  0
 27 28  1  1
 27 29  1  0
 29 30  1  0
 30 31  1  0
 31 32  1  1
  7  5  1  0
 31 10  1  0
 31 13  1  0
 27 15  1  0
 24 18  1  0
  1 33  1  0
  1 34  1  0
  1 35  1  0
  2 36  1  6
  3 37  1  0
  3 38  1  0
  4 39  1  0
  4 40  1  0
  5 41  1  1
  8 42  1  0
  8 43  1  0
  8 44  1  0
  9 45  1  0
  9 46  1  0
  9 47  1  0
 10 48  1  6
 11 49  1  0
 11 50  1  0
 12 51  1  0
 12 52  1  0
 14 53  1  0
 14 54  1  0
 14 55  1  0
 15 56  1  1
 16 57  1  0
 16 58  1  0
 17 59  1  0
 19 60  1  6
 20 61  1  0
 20 62  1  0
 21 63  1  0
 21 64  1  0
 22 65  1  6
 23 66  1  0
 25 67  1  0
 25 68  1  0
 25 69  1  0
 26 70  1  0
 26 71  1  0
 26 72  1  0
 28 73  1  0
 28 74  1  0
 28 75  1  0
 29 76  1  0
 29 77  1  0
 30 78  1  0
 30 79  1  0
 32 80  1  0
 32 81  1  0
 32 82  1  0
M  END
>  <meeko>  (18) 
{"is_sidechain": [false], "intermolecular_energy": 2.731, "internal_energy": -0.839}

$$$$
EPH_relaxed_0001_pdb2pqr_Repair_117_r2_0001_out
     RDKit          3D

 82 86  0  0  0  0  0  0  0  0999 V2000
    2.0600   15.8200   -0.5900 C   0  0  0  0  0  0  0  0  0  0  0  0
    1.8700   15.7120   -2.1050 C   0  0  2  0  0  0  0  0  0  0  0  0
    1.2430   16.9860   -2.7050 C   0  0  0  0  0  0  0  0  0  0  0  0
    1.7130   18.2790   -2.0320 C   0  0  0  0  0  0  0  0  0  0  0  0
    0.6270   19.3110   -1.9940 C   0  0  2  0  0  0  0  0  0  0  0  0
    0.6800   20.1940   -0.8660 O   0  0  0  0  0  0  0  0  0  0  0  0
   -0.4680   19.3350   -0.9440 C   0  0  0  0  0  0  0  0  0  0  0  0
   -0.5330   18.3050    0.1400 C   0  0  0  0  0  0  0  0  0  0  0  0
   -1.7420   20.0570   -1.2560 C   0  0  0  0  0  0  0  0  0  0  0  0
    1.0060   14.5010   -2.4360 C   0  0  1  0  0  0  0  0  0  0  0  0
    1.3500   13.8800   -3.8160 C   0  0  0  0  0  0  0  0  0  0  0  0
    1.1550   12.3480   -3.6790 C   0  0  0  0  0  0  0  0  0  0  0  0
    0.3950   12.1700   -2.3440 C   0  0  1  0  0  0  0  0  0  0  0  0
   -1.0990   12.4550   -2.6920 C   0  0  0  0  0  0  0  0  0  0  0  0
    0.5680   10.7900   -1.6300 C   0  0  2  0  0  0  0  0  0  0  0  0
    0.0500    9.5760   -2.4210 C   0  0  0  0  0  0  0  0  0  0  0  0
   -1.3760    9.2120   -2.1680 C   0  0  0  0  0  0  0  0  0  0  0  0
   -2.1230    9.6480   -1.1370 C   0  0  0  0  0  0  0  0  0  0  0  0
   -1.5120   10.5230   -0.0360 C   0  0  1  0  0  0  0  0  0  0  0  0
   -1.9470    9.9860    1.3530 C   0  0  0  0  0  0  0  0  0  0  0  0
   -3.4610    9.8570    1.4830 C   0  0  0  0  0  0  0  0  0  0  0  0
   -4.0250    8.9330    0.4070 C   0  0  2  0  0  0  0  0  0  0  0  0
   -3.5540    7.6040    0.6480 O   0  0  0  0  0  0  0  0  0  0  0  0
   -3.6430    9.3700   -1.0360 C   0  0  0  0  0  0  0  0  0  0  0  0
   -4.4010   10.6690   -1.4040 C   0  0  0  0  0  0  0  0  0  0  0  0
   -4.1530    8.2780   -2.0150 C   0  0  0  0  0  0  0  0  0  0  0  0
    0.0550   10.7660   -0.1330 C   0  0  1  0  0  0  0  0  0  0  0  0
    0.8190    9.6080    0.5810 C   0  0  0  0  0  0  0  0  0  0  0  0
    0.4210   12.0850    0.6460 C   0  0  0  0  0  0  0  0  0  0  0  0
    0.3460   13.4030   -0.1480 C   0  0  0  0  0  0  0  0  0  0  0  0
    1.0910   13.2840   -1.4810 C   0  0  2  0  0  0  0  0  0  0  0  0
    2.6020   13.0190   -1.1620 C   0  0  0  0  0  0  0  0  0  0  0  0
    1.2131   15.3386   -0.0790 H   0  0  0  0  0  0  0  0  0  0  0  0
    2.9955   15.3187   -0.3011 H   0  0  0  0  0  0  0  0  0  0  0  0
    2.1079   16.8803   -0.3011 H   0  0  0  0  0  0  0  0  0  0  0  0
    2.8667   15.5919   -2.5547 H   0  0  0  0  0  0  0  0  0  0  0  0
    1.5071   17.0338   -3.7717 H   0  0  0  0  0  0  0  0  0  0  0  0
    0.1570   16.9163   -2.5443 H   0  0  0  0  0  0  0  0  0  0  0  0
    2.0248   18.0517   -1.0019 H   0  0  0  0  0  0  0  0  0  0  0  0
    2.5512   18.6849   -2.6173 H   0  0  0  0  0  0  0  0  0  0  0  0
    0.5968   19.3540   -3.0927 H   0  0  0  0  0  0  0  0  0  0  0  0
   -0.5016   18.8023    1.1207 H   0  0  0  0  0  0  0  0  0  0  0  0
   -1.4689   17.7344    0.0480 H   0  0  0  0  0  0  0  0  0  0  0  0
    0.3238   17.6213    0.0480 H   0  0  0  0  0  0  0  0  0  0  0  0
   -2.2420   20.3404   -0.3181 H   0  0  0  0  0  0  0  0  0  0  0  0
   -1.5172   20.9619   -1.8396 H   0  0  0  0  0  0  0  0  0  0  0  0
   -2.4028   19.3991   -1.8396 H   0  0  0  0  0  0  0  0  0  0  0  0
    0.0098   14.9629   -2.3703 H   0  0  0  0  0  0  0  0  0  0  0  0
    0.6775   14.2797   -4.5893 H   0  0  0  0  0  0  0  0  0  0  0  0
    2.3816   14.1217   -4.1114 H   0  0  0  0  0  0  0  0  0  0  0  0
    0.5627   11.9552   -4.5185 H   0  0  0  0  0  0  0  0  0  0  0  0
    2.1103   11.8029   -3.6913 H   0  0  0  0  0  0  0  0  0  0  0  0
   -1.6773   12.5653   -1.7628 H   0  0  0  0  0  0  0  0  0  0  0  0
   -1.1682   13.3825   -3.2793 H   0  0  0  0  0  0  0  0  0  0  0  0
   -1.5048   11.6181   -3.2793 H   0  0  0  0  0  0  0  0  0  0  0  0
    1.6618   10.6786   -1.5947 H   0  0  0  0  0  0  0  0  0  0  0  0
    0.1595    9.7968   -3.4930 H   0  0  0  0  0  0  0  0  0  0  0  0
    0.6481    8.7160   -2.0854 H   0  0  0  0  0  0  0  0  0  0  0  0
   -1.8564    8.5299   -2.8849 H   0  0  0  0  0  0  0  0  0  0  0  0
   -1.9187   11.5334   -0.1897 H   0  0  0  0  0  0  0  0  0  0  0  0
   -1.4944    8.9950    1.5053 H   0  0  0  0  0  0  0  0  0  0  0  0
   -1.6074   10.7074    2.1108 H   0  0  0  0  0  0  0  0  0  0  0  0
   -3.7033    9.4454    2.4739 H   0  0  0  0  0  0  0  0  0  0  0  0
   -3.9098   10.8537    1.3598 H   0  0  0  0  0  0  0  0  0  0  0  0
   -5.1221    8.9827    0.4701 H   0  0  0  0  0  0  0  0  0  0  0  0
   -4.2020    7.1620    1.2220 H   0  0  0  0  0  0  0  0  0  0  0  0
   -4.7047   11.1895   -0.4838 H   0  0  0  0  0  0  0  0  0  0  0  0
   -3.7427   11.3228   -1.9948 H   0  0  0  0  0  0  0  0  0  0  0  0
   -5.2941   10.4175   -1.9948 H   0  0  0  0  0  0  0  0  0  0  0  0
   -4.5501    7.4277   -1.4412 H   0  0  0  0  0  0  0  0  0  0  0  0
   -4.9489    8.6964   -2.6487 H   0  0  0  0  0  0  0  0  0  0  0  0
   -3.3213    7.9363   -2.6487 H   0  0  0  0  0  0  0  0  0  0  0  0
    0.7372    9.7320    1.6709 H   0  0  0  0  0  0  0  0  0  0  0  0
    0.3795    8.6432    0.2877 H   0  0  0  0  0  0  0  0  0  0  0  0
    1.8789    9.6324    0.2877 H   0  0  0  0  0  0  0  0  0  0  0  0
   -0.2686   12.1703    1.4987 H   0  0  0  0  0  0  0  0  0  0  0  0
    1.4805   11.9734    0.9200 H   0  0  0  0  0  0  0  0  0  0  0  0
   -0.7088   13.6443   -0.3458 H   0  0  0  0  0  0  0  0  0  0  0  0
    0.8182   14.1982    0.4475 H   0  0  0  0  0  0  0  0  0  0  0  0
    2.7476   12.9935   -0.0720 H   0  0  0  0  0  0  0  0  0  0  0  0
    2.9044   12.0541   -1.5950 H   0  0  0  0  0  0  0  0  0  0  0  0
    3.2147   13.8234   -1.5950 H   0  0  0  0  0  0  0  0  0  0  0  0
  1  2  1  0
  2  3  1  0
  3  4  1  0
  4  5  1  0
  5  6  1  0
  6  7  1  0
  7  8  1  0
  7  9  1  0
  2 10  1  0
 10 11  1  0
 11 12  1  0
 12 13  1  0
 13 14  1  6
 13 15  1  0
 15 16  1  0
 16 17  1  0
 17 18  2  0
 18 19  1  0
 19 20  1  0
 20 21  1  0
 21 22  1  0
 22 23  1  0
 22 24  1  0
 24 25  1  0
 24 26  1  0
 19 27  1  0
 27 28  1  1
 27 29  1  0
 29 30  1  0
 30 31  1  0
 31 32  1  1
  7  5  1  0
 31 10  1  0
 31 13  1  0
 27 15  1  0
 24 18  1  0
  1 33  1  0
  1 34  1  0
  1 35  1  0
  2 36  1  6
  3 37  1  0
  3 38  1  0
  4 39  1  0
  4 40  1  0
  5 41  1  6
  8 42  1  0
  8 43  1  0
  8 44  1  0
  9 45  1  0
  9 46  1  0
  9 47  1  0
 10 48  1  6
 11 49  1  0
 11 50  1  0
 12 51  1  0
 12 52  1  0
 14 53  1  0
 14 54  1  0
 14 55  1  0
 15 56  1  1
 16 57  1  0
 16 58  1  0
 17 59  1  0
 19 60  1  6
 20 61  1  0
 20 62  1  0
 21 63  1  0
 21 64  1  0
 22 65  1  6
 23 66  1  0
 25 67  1  0
 25 68  1  0
 25 69  1  0
 26 70  1  0
 26 71  1  0
 26 72  1  0
 28 73  1  0
 28 74  1  0
 28 75  1  0
 29 76  1  0
 29 77  1  0
 30 78  1  0
 30 79  1  0
 32 80  1  0
 32 81  1  0
 32 82  1  0
M  END
>  <meeko>  (19) 
{"is_sidechain": [false], "intermolecular_energy": 2.731, "internal_energy": -0.839}

$$$$
