EPH_relaxed_0001_pdb2pqr_Repair_332_r2_0001_out
     RDKit          3D

 82 86  0  0  0  0  0  0  0  0999 V2000
   -1.6850    8.4150   -1.8370 C   0  0  0  0  0  0  0  0  0  0  0  0
   -2.0870    8.9810   -0.4730 C   0  0  2  0  0  0  0  0  0  0  0  0
   -3.5840    9.3470   -0.4150 C   0  0  0  0  0  0  0  0  0  0  0  0
   -4.5100    8.1330   -0.3010 C   0  0  0  0  0  0  0  0  0  0  0  0
   -5.2190    7.8550   -1.5920 C   0  0  2  0  0  0  0  0  0  0  0  0
   -6.3620    8.6850   -1.8380 O   0  0  0  0  0  0  0  0  0  0  0  0
   -6.6220    7.2820   -1.6680 C   0  0  0  0  0  0  0  0  0  0  0  0
   -7.4000    6.9530   -0.4330 C   0  0  0  0  0  0  0  0  0  0  0  0
   -7.0450    6.5900   -2.9270 C   0  0  0  0  0  0  0  0  0  0  0  0
   -1.2390   10.2050   -0.1470 C   0  0  1  0  0  0  0  0  0  0  0  0
   -0.2050    9.9330    0.9780 C   0  0  0  0  0  0  0  0  0  0  0  0
    1.0580   10.7650    0.6360 C   0  0  0  0  0  0  0  0  0  0  0  0
    0.5960   11.7350   -0.4780 C   0  0  1  0  0  0  0  0  0  0  0  0
   -0.1210   12.8980    0.2760 C   0  0  0  0  0  0  0  0  0  0  0  0
    1.7100   12.2680   -1.4360 C   0  0  2  0  0  0  0  0  0  0  0  0
    2.8060   13.1090   -0.7580 C   0  0  0  0  0  0  0  0  0  0  0  0
    2.5420   14.5770   -0.7050 C   0  0  0  0  0  0  0  0  0  0  0  0
    1.6130   15.2310   -1.4270 C   0  0  0  0  0  0  0  0  0  0  0  0
    0.7740   14.4980   -2.4810 C   0  0  1  0  0  0  0  0  0  0  0  0
    0.7390   15.3330   -3.7880 C   0  0  0  0  0  0  0  0  0  0  0  0
    0.2630   16.7640   -3.5550 C   0  0  0  0  0  0  0  0  0  0  0  0
    1.1560   17.4780   -2.5440 C   0  0  2  0  0  0  0  0  0  0  0  0
    2.4560   17.6480   -3.1170 O   0  0  0  0  0  0  0  0  0  0  0  0
    1.2760   16.7240   -1.1910 C   0  0  0  0  0  0  0  0  0  0  0  0
   -0.0710   16.8040   -0.4300 C   0  0  0  0  0  0  0  0  0  0  0  0
    2.3140   17.4760   -0.3150 C   0  0  0  0  0  0  0  0  0  0  0  0
    1.1600   12.9770   -2.7390 C   0  0  1  0  0  0  0  0  0  0  0  0
    2.2930   12.8900   -3.8060 C   0  0  0  0  0  0  0  0  0  0  0  0
   -0.0830   12.2280   -3.3490 C   0  0  0  0  0  0  0  0  0  0  0  0
   -1.0860   11.6200   -2.3500 C   0  0  0  0  0  0  0  0  0  0  0  0
   -0.3650   10.7880   -1.2860 C   0  0  2  0  0  0  0  0  0  0  0  0
    0.3480    9.5960   -2.0120 C   0  0  0  0  0  0  0  0  0  0  0  0
   -1.0535    7.5259   -1.6934 H   0  0  0  0  0  0  0  0  0  0  0  0
   -2.5885    8.1361   -2.3990 H   0  0  0  0  0  0  0  0  0  0  0  0
   -1.1240    9.1762   -2.3990 H   0  0  0  0  0  0  0  0  0  0  0  0
   -1.9093    8.1956    0.2764 H   0  0  0  0  0  0  0  0  0  0  0  0
   -3.7499    9.9937    0.4592 H   0  0  0  0  0  0  0  0  0  0  0  0
   -3.8289    9.8506   -1.3618 H   0  0  0  0  0  0  0  0  0  0  0  0
   -3.9112    7.2522   -0.0260 H   0  0  0  0  0  0  0  0  0  0  0  0
   -5.2672    8.3495    0.4670 H   0  0  0  0  0  0  0  0  0  0  0  0
   -4.2752    7.5627   -2.0755 H   0  0  0  0  0  0  0  0  0  0  0  0
   -6.8022    7.2058    0.4551 H   0  0  0  0  0  0  0  0  0  0  0  0
   -8.3347    7.5329   -0.4231 H   0  0  0  0  0  0  0  0  0  0  0  0
   -7.6351    5.8785   -0.4231 H   0  0  0  0  0  0  0  0  0  0  0  0
   -7.6033    5.6767   -2.6736 H   0  0  0  0  0  0  0  0  0  0  0  0
   -7.6875    7.2609   -3.5161 H   0  0  0  0  0  0  0  0  0  0  0  0
   -6.1549    6.3241   -3.5161 H   0  0  0  0  0  0  0  0  0  0  0  0
   -2.0353   10.9163    0.1177 H   0  0  0  0  0  0  0  0  0  0  0  0
   -0.6126   10.2457    1.9507 H   0  0  0  0  0  0  0  0  0  0  0  0
    0.0341    8.8613    1.0438 H   0  0  0  0  0  0  0  0  0  0  0  0
    1.4058   11.3234    1.5176 H   0  0  0  0  0  0  0  0  0  0  0  0
    1.9000   10.1333    0.3166 H   0  0  0  0  0  0  0  0  0  0  0  0
   -0.0265   12.7447    1.3612 H   0  0  0  0  0  0  0  0  0  0  0  0
    0.3436   13.8559   -0.0008 H   0  0  0  0  0  0  0  0  0  0  0  0
   -1.1855   12.9132   -0.0008 H   0  0  0  0  0  0  0  0  0  0  0  0
    2.2039   11.3408   -1.7621 H   0  0  0  0  0  0  0  0  0  0  0  0
    2.9224   12.7471    0.2742 H   0  0  0  0  0  0  0  0  0  0  0  0
    3.7094   12.9843   -1.3731 H   0  0  0  0  0  0  0  0  0  0  0  0
    3.1587   15.1750   -0.0179 H   0  0  0  0  0  0  0  0  0  0  0  0
   -0.2398   14.4191   -2.0615 H   0  0  0  0  0  0  0  0  0  0  0  0
    1.7526   15.3634   -4.2143 H   0  0  0  0  0  0  0  0  0  0  0  0
    0.0261   14.8512   -4.4733 H   0  0  0  0  0  0  0  0  0  0  0  0
    0.2892   17.3119   -4.5085 H   0  0  0  0  0  0  0  0  0  0  0  0
   -0.7622   16.7327   -3.1574 H   0  0  0  0  0  0  0  0  0  0  0  0
    0.6897   18.4489   -2.3206 H   0  0  0  0  0  0  0  0  0  0  0  0
    2.5700   16.9610   -3.7960 H   0  0  0  0  0  0  0  0  0  0  0  0
    0.1187   16.7927    0.6535 H   0  0  0  0  0  0  0  0  0  0  0  0
   -0.5908   17.7346   -0.7015 H   0  0  0  0  0  0  0  0  0  0  0  0
   -0.6973   15.9415   -0.7015 H   0  0  0  0  0  0  0  0  0  0  0  0
    2.0853   17.3103    0.7481 H   0  0  0  0  0  0  0  0  0  0  0  0
    3.3230   17.0979   -0.5362 H   0  0  0  0  0  0  0  0  0  0  0  0
    2.2692   18.5526   -0.5362 H   0  0  0  0  0  0  0  0  0  0  0  0
    3.2673   12.8152   -3.3009 H   0  0  0  0  0  0  0  0  0  0  0  0
    2.1368   12.0012   -4.4350 H   0  0  0  0  0  0  0  0  0  0  0  0
    2.2744   13.7922   -4.4350 H   0  0  0  0  0  0  0  0  0  0  0  0
   -0.6312   12.9477   -3.9747 H   0  0  0  0  0  0  0  0  0  0  0  0
    0.3368   11.3697   -3.8941 H   0  0  0  0  0  0  0  0  0  0  0  0
   -1.6399   12.4325   -1.8569 H   0  0  0  0  0  0  0  0  0  0  0  0
   -1.7749   10.9630   -2.9012 H   0  0  0  0  0  0  0  0  0  0  0  0
    0.7614    8.9048   -1.2627 H   0  0  0  0  0  0  0  0  0  0  0  0
   -0.3793    9.0622   -2.6414 H   0  0  0  0  0  0  0  0  0  0  0  0
    1.1623    9.9843   -2.6414 H   0  0  0  0  0  0  0  0  0  0  0  0
  1  2  1  0
  2  3  1  0
  3  4  1  0
  4  5  1  0
  5  6  1  0
  6  7  1  0
  7  8  1  0
  7  9  1  0
  2 10  1  0
 10 11  1  0
 11 12  1  0
 12 13  1  0
 13 14  1  1
 13 15  1  0
 15 16  1  0
 16 17  1  0
 17 18  2  0
 18 19  1  0
 19 20  1  0
 20 21  1  0
 21 22  1  0
 22 23  1  0
 22 24  1  0
 24 25  1  0
 24 26  1  0
 19 27  1  0
 27 28  1  6
 27 29  1  0
 29 30  1  0
 30 31  1  0
 31 32  1  6
  7  5  1  0
 31 10  1  0
 31 13  1  0
 27 15  1  0
 24 18  1  0
  1 33  1  0
  1 34  1  0
  1 35  1  0
  2 36  1  1
  3 37  1  0
  3 38  1  0
  4 39  1  0
  4 40  1  0
  5 41  1  6
  8 42  1  0
  8 43  1  0
  8 44  1  0
  9 45  1  0
  9 46  1  0
  9 47  1  0
 10 48  1  1
 11 49  1  0
 11 50  1  0
 12 51  1  0
 12 52  1  0
 14 53  1  0
 14 54  1  0
 14 55  1  0
 15 56  1  6
 16 57  1  0
 16 58  1  0
 17 59  1  0
 19 60  1  1
 20 61  1  0
 20 62  1  0
 21 63  1  0
 21 64  1  0
 22 65  1  1
 23 66  1  0
 25 67  1  0
 25 68  1  0
 25 69  1  0
 26 70  1  0
 26 71  1  0
 26 72  1  0
 28 73  1  0
 28 74  1  0
 28 75  1  0
 29 76  1  0
 29 77  1  0
 30 78  1  0
 30 79  1  0
 32 80  1  0
 32 81  1  0
 32 82  1  0
M  END
>  <meeko>  (1) 
{"is_sidechain": [false], "intermolecular_energy": 2.731, "internal_energy": -0.839}

$$$$
EPH_relaxed_0001_pdb2pqr_Repair_332_r2_0001_out
     RDKit          3D

 82 86  0  0  0  0  0  0  0  0999 V2000
    1.9600   19.6120   -0.4320 C   0  0  0  0  0  0  0  0  0  0  0  0
    2.4240   18.3390    0.2800 C   0  0  2  0  0  0  0  0  0  0  0  0
    3.8550   17.9340   -0.1270 C   0  0  0  0  0  0  0  0  0  0  0  0
    4.9480   18.7000    0.6240 C   0  0  0  0  0  0  0  0  0  0  0  0
    4.5570   18.9740    2.0450 C   0  0  2  0  0  0  0  0  0  0  0  0
    5.0810   20.1940    2.5850 O   0  0  0  0  0  0  0  0  0  0  0  0
    5.5440   18.9800    3.1970 C   0  0  0  0  0  0  0  0  0  0  0  0
    6.9990   18.7050    2.9810 C   0  0  0  0  0  0  0  0  0  0  0  0
    5.0240   18.7680    4.5850 C   0  0  0  0  0  0  0  0  0  0  0  0
    1.4570   17.1980   -0.0120 C   0  0  1  0  0  0  0  0  0  0  0  0
    0.1890   17.6690   -0.7720 C   0  0  0  0  0  0  0  0  0  0  0  0
   -0.2090   16.5200   -1.7340 C   0  0  0  0  0  0  0  0  0  0  0  0
    0.6310   15.3090   -1.2640 C   0  0  1  0  0  0  0  0  0  0  0  0
   -0.1510   14.7280   -0.0440 C   0  0  0  0  0  0  0  0  0  0  0  0
    0.9220   14.2120   -2.3390 C   0  0  2  0  0  0  0  0  0  0  0  0
   -0.3220   13.4990   -2.8980 C   0  0  0  0  0  0  0  0  0  0  0  0
   -0.7380   12.2690   -2.1610 C   0  0  0  0  0  0  0  0  0  0  0  0
    0.0180   11.5970   -1.2730 C   0  0  0  0  0  0  0  0  0  0  0  0
    1.4720   12.0070   -1.0050 C   0  0  1  0  0  0  0  0  0  0  0  0
    2.3760   10.7470   -1.0160 C   0  0  0  0  0  0  0  0  0  0  0  0
    1.8880    9.6680   -0.0540 C   0  0  0  0  0  0  0  0  0  0  0  0
    0.4600    9.2450   -0.3880 C   0  0  2  0  0  0  0  0  0  0  0  0
    0.4600    8.5860   -1.6580 O   0  0  0  0  0  0  0  0  0  0  0  0
   -0.5410   10.4340   -0.4170 C   0  0  0  0  0  0  0  0  0  0  0  0
   -0.7690   10.9560    1.0230 C   0  0  0  0  0  0  0  0  0  0  0  0
   -1.9120    9.8920   -0.9040 C   0  0  0  0  0  0  0  0  0  0  0  0
    2.0420   13.1750   -1.9190 C   0  0  1  0  0  0  0  0  0  0  0  0
    2.6180   12.5830   -3.2420 C   0  0  0  0  0  0  0  0  0  0  0  0
    3.2480   13.8650   -1.1790 C   0  0  0  0  0  0  0  0  0  0  0  0
    2.9060   15.0220   -0.2210 C   0  0  0  0  0  0  0  0  0  0  0  0
    1.9760   16.0350   -0.8950 C   0  0  2  0  0  0  0  0  0  0  0  0
    2.7430   16.6530   -2.1140 C   0  0  0  0  0  0  0  0  0  0  0  0
    1.6836   20.3702    0.3155 H   0  0  0  0  0  0  0  0  0  0  0  0
    2.7753   19.9979   -1.0616 H   0  0  0  0  0  0  0  0  0  0  0  0
    1.0876   19.3828   -1.0616 H   0  0  0  0  0  0  0  0  0  0  0  0
    2.4353   18.5497    1.3596 H   0  0  0  0  0  0  0  0  0  0  0  0
    3.9826   16.8601    0.0742 H   0  0  0  0  0  0  0  0  0  0  0  0
    3.9670   18.1770   -1.1940 H   0  0  0  0  0  0  0  0  0  0  0  0
    5.8711   18.1019    0.6174 H   0  0  0  0  0  0  0  0  0  0  0  0
    5.0996   19.6649    0.1181 H   0  0  0  0  0  0  0  0  0  0  0  0
    3.5918   18.4659    1.9028 H   0  0  0  0  0  0  0  0  0  0  0  0
    7.5026   18.6098    3.9543 H   0  0  0  0  0  0  0  0  0  0  0  0
    7.1152   17.7690    2.4150 H   0  0  0  0  0  0  0  0  0  0  0  0
    7.4488   19.5340    2.4150 H   0  0  0  0  0  0  0  0  0  0  0  0
    5.7869   19.0790    5.3139 H   0  0  0  0  0  0  0  0  0  0  0  0
    4.1125   19.3663    4.7304 H   0  0  0  0  0  0  0  0  0  0  0  0
    4.7906   17.7029    4.7304 H   0  0  0  0  0  0  0  0  0  0  0  0
    1.2773   16.8415    1.0130 H   0  0  0  0  0  0  0  0  0  0  0  0
   -0.6267   17.8675   -0.0612 H   0  0  0  0  0  0  0  0  0  0  0  0
    0.3837   18.5987   -1.3267 H   0  0  0  0  0  0  0  0  0  0  0  0
   -1.2841   16.3014   -1.6540 H   0  0  0  0  0  0  0  0  0  0  0  0
   -0.0213   16.7742   -2.7876 H   0  0  0  0  0  0  0  0  0  0  0  0
    0.3159   15.0749    0.8897 H   0  0  0  0  0  0  0  0  0  0  0  0
   -1.1956   15.0708   -0.0810 H   0  0  0  0  0  0  0  0  0  0  0  0
   -0.1243   13.6289   -0.0810 H   0  0  0  0  0  0  0  0  0  0  0  0
    1.3283   14.8018   -3.1739 H   0  0  0  0  0  0  0  0  0  0  0  0
   -1.1610   14.2100   -2.8732 H   0  0  0  0  0  0  0  0  0  0  0  0
   -0.0532   13.1693   -3.9124 H   0  0  0  0  0  0  0  0  0  0  0  0
   -1.7471   11.8792   -2.3605 H   0  0  0  0  0  0  0  0  0  0  0  0
    1.4799   12.4627   -0.0039 H   0  0  0  0  0  0  0  0  0  0  0  0
    2.3893   10.3315   -2.0344 H   0  0  0  0  0  0  0  0  0  0  0  0
    3.3809   11.0544   -0.6908 H   0  0  0  0  0  0  0  0  0  0  0  0
    2.5497    8.7925   -0.1292 H   0  0  0  0  0  0  0  0  0  0  0  0
    1.9037   10.0752    0.9677 H   0  0  0  0  0  0  0  0  0  0  0  0
    0.1210    8.5692    0.4110 H   0  0  0  0  0  0  0  0  0  0  0  0
   -0.1590    7.8380   -1.6020 H   0  0  0  0  0  0  0  0  0  0  0  0
   -0.4370   10.1958    1.7454 H   0  0  0  0  0  0  0  0  0  0  0  0
   -0.1929   11.8810    1.1732 H   0  0  0  0  0  0  0  0  0  0  0  0
   -1.8390   11.1620    1.1732 H   0  0  0  0  0  0  0  0  0  0  0  0
   -2.5383    9.6444   -0.0343 H   0  0  0  0  0  0  0  0  0  0  0  0
   -2.4147   10.6590   -1.5114 H   0  0  0  0  0  0  0  0  0  0  0  0
   -1.7543    8.9886   -1.5114 H   0  0  0  0  0  0  0  0  0  0  0  0
    3.3669   11.8133   -3.0038 H   0  0  0  0  0  0  0  0  0  0  0  0
    1.8030   12.1328   -3.8276 H   0  0  0  0  0  0  0  0  0  0  0  0
    3.0904   13.3854   -3.8276 H   0  0  0  0  0  0  0  0  0  0  0  0
    3.7661   13.0909   -0.5940 H   0  0  0  0  0  0  0  0  0  0  0  0
    3.8517   14.3216   -1.9772 H   0  0  0  0  0  0  0  0  0  0  0  0
    2.4084   14.6150    0.6716 H   0  0  0  0  0  0  0  0  0  0  0  0
    3.8389   15.5338    0.0580 H   0  0  0  0  0  0  0  0  0  0  0  0
    3.5506   17.3037   -1.7474 H   0  0  0  0  0  0  0  0  0  0  0  0
    3.1719   15.8452   -2.7251 H   0  0  0  0  0  0  0  0  0  0  0  0
    2.0449   17.2439   -2.7251 H   0  0  0  0  0  0  0  0  0  0  0  0
  1  2  1  0
  2  3  1  0
  3  4  1  0
  4  5  1  0
  5  6  1  0
  6  7  1  0
  7  8  1  0
  7  9  1  0
  2 10  1  0
 10 11  1  0
 11 12  1  0
 12 13  1  0
 13 14  1  1
 13 15  1  0
 15 16  1  0
 16 17  1  0
 17 18  2  0
 18 19  1  0
 19 20  1  0
 20 21  1  0
 21 22  1  0
 22 23  1  0
 22 24  1  0
 24 25  1  0
 24 26  1  0
 19 27  1  0
 27 28  1  6
 27 29  1  0
 29 30  1  0
 30 31  1  0
 31 32  1  6
  7  5  1  0
 31 10  1  0
 31 13  1  0
 27 15  1  0
 24 18  1  0
  1 33  1  0
  1 34  1  0
  1 35  1  0
  2 36  1  1
  3 37  1  0
  3 38  1  0
  4 39  1  0
  4 40  1  0
  5 41  1  1
  8 42  1  0
  8 43  1  0
  8 44  1  0
  9 45  1  0
  9 46  1  0
  9 47  1  0
 10 48  1  1
 11 49  1  0
 11 50  1  0
 12 51  1  0
 12 52  1  0
 14 53  1  0
 14 54  1  0
 14 55  1  0
 15 56  1  6
 16 57  1  0
 16 58  1  0
 17 59  1  0
 19 60  1  1
 20 61  1  0
 20 62  1  0
 21 63  1  0
 21 64  1  0
 22 65  1  1
 23 66  1  0
 25 67  1  0
 25 68  1  0
 25 69  1  0
 26 70  1  0
 26 71  1  0
 26 72  1  0
 28 73  1  0
 28 74  1  0
 28 75  1  0
 29 76  1  0
 29 77  1  0
 30 78  1  0
 30 79  1  0
 32 80  1  0
 32 81  1  0
 32 82  1  0
M  END
>  <meeko>  (2) 
{"is_sidechain": [false], "intermolecular_energy": 2.731, "internal_energy": -0.839}

$$$$
EPH_relaxed_0001_pdb2pqr_Repair_332_r2_0001_out
     RDKit          3D

 82 86  0  0  0  0  0  0  0  0999 V2000
    0.9790   18.6020   -1.0720 C   0  0  0  0  0  0  0  0  0  0  0  0
    1.4800   17.3130   -0.4170 C   0  0  2  0  0  0  0  0  0  0  0  0
    3.0200   17.2210   -0.4200 C   0  0  0  0  0  0  0  0  0  0  0  0
    3.7140   18.5160    0.0090 C   0  0  0  0  0  0  0  0  0  0  0  0
    3.8030   18.6300    1.5010 C   0  0  2  0  0  0  0  0  0  0  0  0
    3.9800   19.9660    1.9900 O   0  0  0  0  0  0  0  0  0  0  0  0
    5.0620   19.0530    2.2340 C   0  0  0  0  0  0  0  0  0  0  0  0
    6.3200   19.3880    1.4960 C   0  0  0  0  0  0  0  0  0  0  0  0
    5.2140   18.6710    3.6740 C   0  0  0  0  0  0  0  0  0  0  0  0
    0.8850   16.1030   -1.1280 C   0  0  1  0  0  0  0  0  0  0  0  0
    0.7060   16.3340   -2.6520 C   0  0  0  0  0  0  0  0  0  0  0  0
    0.9760   14.9740   -3.3460 C   0  0  0  0  0  0  0  0  0  0  0  0
    0.9730   13.9420   -2.1940 C   0  0  1  0  0  0  0  0  0  0  0  0
   -0.5360   13.6470   -1.9230 C   0  0  0  0  0  0  0  0  0  0  0  0
    1.7810   12.6270   -2.4420 C   0  0  2  0  0  0  0  0  0  0  0  0
    1.2750   11.7590   -3.6080 C   0  0  0  0  0  0  0  0  0  0  0  0
    0.2560   10.7310   -3.2420 C   0  0  0  0  0  0  0  0  0  0  0  0
   -0.0240   10.3190   -1.9920 C   0  0  0  0  0  0  0  0  0  0  0  0
    0.7850   10.8300   -0.7930 C   0  0  1  0  0  0  0  0  0  0  0  0
    1.1730    9.6350    0.1180 C   0  0  0  0  0  0  0  0  0  0  0  0
   -0.0360    8.8060    0.5410 C   0  0  0  0  0  0  0  0  0  0  0  0
   -0.7810    8.2670   -0.6780 C   0  0  2  0  0  0  0  0  0  0  0  0
    0.0570    7.3200   -1.3490 O   0  0  0  0  0  0  0  0  0  0  0  0
   -1.2140    9.3800   -1.6730 C   0  0  0  0  0  0  0  0  0  0  0  0
   -2.3480   10.2270   -1.0450 C   0  0  0  0  0  0  0  0  0  0  0  0
   -1.8280    8.6910   -2.9220 C   0  0  0  0  0  0  0  0  0  0  0  0
    2.0260   11.7600   -1.1400 C   0  0  1  0  0  0  0  0  0  0  0  0
    3.2860   10.8850   -1.4180 C   0  0  0  0  0  0  0  0  0  0  0  0
    2.3690   12.6490    0.1130 C   0  0  0  0  0  0  0  0  0  0  0  0
    1.6240   13.9910    0.2400 C   0  0  0  0  0  0  0  0  0  0  0  0
    1.6880   14.7790   -1.0720 C   0  0  2  0  0  0  0  0  0  0  0  0
    3.1930   15.1090   -1.3590 C   0  0  0  0  0  0  0  0  0  0  0  0
    0.6981   19.3246   -0.2917 H   0  0  0  0  0  0  0  0  0  0  0  0
    1.7765   19.0294   -1.6976 H   0  0  0  0  0  0  0  0  0  0  0  0
    0.1022   18.3786   -1.6976 H   0  0  0  0  0  0  0  0  0  0  0  0
    1.1515   17.3259    0.6327 H   0  0  0  0  0  0  0  0  0  0  0  0
    3.3215   16.4200    0.2710 H   0  0  0  0  0  0  0  0  0  0  0  0
    3.3282   17.0189   -1.4564 H   0  0  0  0  0  0  0  0  0  0  0  0
    4.7306   18.5315   -0.4109 H   0  0  0  0  0  0  0  0  0  0  0  0
    3.1199   19.3631   -0.3645 H   0  0  0  0  0  0  0  0  0  0  0  0
    3.1270   17.7720    1.6304 H   0  0  0  0  0  0  0  0  0  0  0  0
    7.1225   19.6017    2.2174 H   0  0  0  0  0  0  0  0  0  0  0  0
    6.6122   18.5364    0.8641 H   0  0  0  0  0  0  0  0  0  0  0  0
    6.1500   20.2722    0.8641 H   0  0  0  0  0  0  0  0  0  0  0  0
    4.8825   19.5041    4.3113 H   0  0  0  0  0  0  0  0  0  0  0  0
    4.6011   17.7821    3.8842 H   0  0  0  0  0  0  0  0  0  0  0  0
    6.2701   18.4462    3.8842 H   0  0  0  0  0  0  0  0  0  0  0  0
   -0.0521   15.9988   -0.5615 H   0  0  0  0  0  0  0  0  0  0  0  0
   -0.3188   16.6715   -2.8661 H   0  0  0  0  0  0  0  0  0  0  0  0
    1.3970   17.1078   -3.0178 H   0  0  0  0  0  0  0  0  0  0  0  0
    0.1840   14.7455   -4.0744 H   0  0  0  0  0  0  0  0  0  0  0  0
    1.9227   14.9717   -3.9062 H   0  0  0  0  0  0  0  0  0  0  0  0
   -0.7137   13.6123   -0.8380 H   0  0  0  0  0  0  0  0  0  0  0  0
   -1.1510   14.4419   -2.3700 H   0  0  0  0  0  0  0  0  0  0  0  0
   -0.8064   12.6790   -2.3700 H   0  0  0  0  0  0  0  0  0  0  0  0
    2.7619   13.0108   -2.7592 H   0  0  0  0  0  0  0  0  0  0  0  0
    0.8295   12.4265   -4.3603 H   0  0  0  0  0  0  0  0  0  0  0  0
    2.1500   11.2029   -3.9756 H   0  0  0  0  0  0  0  0  0  0  0  0
   -0.3138   10.2718   -4.0633 H   0  0  0  0  0  0  0  0  0  0  0  0
    0.1193   11.5147   -0.2471 H   0  0  0  0  0  0  0  0  0  0  0  0
    1.8715    8.9858   -0.4302 H   0  0  0  0  0  0  0  0  0  0  0  0
    1.6325   10.0450    1.0295 H   0  0  0  0  0  0  0  0  0  0  0  0
    0.3047    7.9610    1.1575 H   0  0  0  0  0  0  0  0  0  0  0  0
   -0.7197    9.4492    1.1145 H   0  0  0  0  0  0  0  0  0  0  0  0
   -1.7056    7.7930   -0.3168 H   0  0  0  0  0  0  0  0  0  0  0  0
    0.6560    7.8180   -1.9300 H   0  0  0  0  0  0  0  0  0  0  0  0
   -2.2795   10.1759    0.0517 H   0  0  0  0  0  0  0  0  0  0  0  0
   -2.2476   11.2730   -1.3703 H   0  0  0  0  0  0  0  0  0  0  0  0
   -3.3225    9.8338   -1.3703 H   0  0  0  0  0  0  0  0  0  0  0  0
   -2.5279    7.9056   -2.6006 H   0  0  0  0  0  0  0  0  0  0  0  0
   -2.3660    9.4372   -3.5251 H   0  0  0  0  0  0  0  0  0  0  0  0
   -1.0250    8.2421   -3.5251 H   0  0  0  0  0  0  0  0  0  0  0  0
    3.7342   10.5737   -0.4629 H   0  0  0  0  0  0  0  0  0  0  0  0
    2.9941    9.9942   -1.9936 H   0  0  0  0  0  0  0  0  0  0  0  0
    4.0187   11.4697   -1.9936 H   0  0  0  0  0  0  0  0  0  0  0  0
    2.1432   12.0571    1.0123 H   0  0  0  0  0  0  0  0  0  0  0  0
    3.4283   12.9194   -0.0085 H   0  0  0  0  0  0  0  0  0  0  0  0
    0.5711   13.7958    0.4917 H   0  0  0  0  0  0  0  0  0  0  0  0
    2.1046   14.5859    1.0306 H   0  0  0  0  0  0  0  0  0  0  0  0
    3.7306   15.2269   -0.4066 H   0  0  0  0  0  0  0  0  0  0  0  0
    3.6447   14.2886   -1.9359 H   0  0  0  0  0  0  0  0  0  0  0  0
    3.2600   16.0432   -1.9359 H   0  0  0  0  0  0  0  0  0  0  0  0
  1  2  1  0
  2  3  1  0
  3  4  1  0
  4  5  1  0
  5  6  1  0
  6  7  1  0
  7  8  1  0
  7  9  1  0
  2 10  1  0
 10 11  1  0
 11 12  1  0
 12 13  1  0
 13 14  1  1
 13 15  1  0
 15 16  1  0
 16 17  1  0
 17 18  2  0
 18 19  1  0
 19 20  1  0
 20 21  1  0
 21 22  1  0
 22 23  1  0
 22 24  1  0
 24 25  1  0
 24 26  1  0
 19 27  1  0
 27 28  1  6
 27 29  1  0
 29 30  1  0
 30 31  1  0
 31 32  1  6
  7  5  1  0
 31 10  1  0
 31 13  1  0
 27 15  1  0
 24 18  1  0
  1 33  1  0
  1 34  1  0
  1 35  1  0
  2 36  1  1
  3 37  1  0
  3 38  1  0
  4 39  1  0
  4 40  1  0
  5 41  1  1
  8 42  1  0
  8 43  1  0
  8 44  1  0
  9 45  1  0
  9 46  1  0
  9 47  1  0
 10 48  1  1
 11 49  1  0
 11 50  1  0
 12 51  1  0
 12 52  1  0
 14 53  1  0
 14 54  1  0
 14 55  1  0
 15 56  1  6
 16 57  1  0
 16 58  1  0
 17 59  1  0
 19 60  1  1
 20 61  1  0
 20 62  1  0
 21 63  1  0
 21 64  1  0
 22 65  1  1
 23 66  1  0
 25 67  1  0
 25 68  1  0
 25 69  1  0
 26 70  1  0
 26 71  1  0
 26 72  1  0
 28 73  1  0
 28 74  1  0
 28 75  1  0
 29 76  1  0
 29 77  1  0
 30 78  1  0
 30 79  1  0
 32 80  1  0
 32 81  1  0
 32 82  1  0
M  END
>  <meeko>  (3) 
{"is_sidechain": [false], "intermolecular_energy": 2.731, "internal_energy": -0.839}

$$$$
EPH_relaxed_0001_pdb2pqr_Repair_332_r2_0001_out
     RDKit          3D

 82 86  0  0  0  0  0  0  0  0999 V2000
    0.9710   18.6930   -2.5810 C   0  0  0  0  0  0  0  0  0  0  0  0
    0.7540   17.7180   -1.4200 C   0  0  2  0  0  0  0  0  0  0  0  0
    1.9970   17.6070   -0.5150 C   0  0  0  0  0  0  0  0  0  0  0  0
    2.2760   18.8700    0.3040 C   0  0  0  0  0  0  0  0  0  0  0  0
    3.6790   19.3600    0.1070 C   0  0  2  0  0  0  0  0  0  0  0  0
    4.6760   18.3300    0.0880 O   0  0  0  0  0  0  0  0  0  0  0  0
    4.7550   19.2690    1.1730 C   0  0  0  0  0  0  0  0  0  0  0  0
    4.4740   18.6720    2.5160 C   0  0  0  0  0  0  0  0  0  0  0  0
    5.9290   20.1940    1.0850 C   0  0  0  0  0  0  0  0  0  0  0  0
    0.3780   16.3430   -1.9600 C   0  0  1  0  0  0  0  0  0  0  0  0
    0.4550   16.2670   -3.5080 C   0  0  0  0  0  0  0  0  0  0  0  0
    0.9350   14.8360   -3.8620 C   0  0  0  0  0  0  0  0  0  0  0  0
    0.8000   14.0410   -2.5420 C   0  0  1  0  0  0  0  0  0  0  0  0
   -0.7100   13.6510   -2.4630 C   0  0  0  0  0  0  0  0  0  0  0  0
    1.7280   12.7930   -2.3890 C   0  0  2  0  0  0  0  0  0  0  0  0
    1.4960   11.6770   -3.4230 C   0  0  0  0  0  0  0  0  0  0  0  0
    0.5010   10.6360   -3.0250 C   0  0  0  0  0  0  0  0  0  0  0  0
    0.0330   10.4370   -1.7790 C   0  0  0  0  0  0  0  0  0  0  0  0
    0.5810   11.2420   -0.5940 C   0  0  1  0  0  0  0  0  0  0  0  0
    0.8830   10.2840    0.5880 C   0  0  0  0  0  0  0  0  0  0  0  0
   -0.3210    9.4290    0.9700 C   0  0  0  0  0  0  0  0  0  0  0  0
   -0.8010    8.6000   -0.2180 C   0  0  2  0  0  0  0  0  0  0  0  0
    0.2050    7.6350   -0.5430 O   0  0  0  0  0  0  0  0  0  0  0  0
   -1.1270    9.4580   -1.4730 C   0  0  0  0  0  0  0  0  0  0  0  0
   -2.4090   10.2880   -1.2170 C   0  0  0  0  0  0  0  0  0  0  0  0
   -1.4620    8.4900   -2.6390 C   0  0  0  0  0  0  0  0  0  0  0  0
    1.7970   12.2130   -0.9180 C   0  0  1  0  0  0  0  0  0  0  0  0
    3.1430   11.4340   -0.8100 C   0  0  0  0  0  0  0  0  0  0  0  0
    1.8520   13.3490    0.1700 C   0  0  0  0  0  0  0  0  0  0  0  0
    1.0060   14.6090   -0.0960 C   0  0  0  0  0  0  0  0  0  0  0  0
    1.2470   15.1410   -1.5120 C   0  0  2  0  0  0  0  0  0  0  0  0
    2.7520   15.5630   -1.6150 C   0  0  0  0  0  0  0  0  0  0  0  0
    1.1937   19.6938   -2.1826 H   0  0  0  0  0  0  0  0  0  0  0  0
    1.8142   18.3476   -3.1971 H   0  0  0  0  0  0  0  0  0  0  0  0
    0.0609   18.7378   -3.1971 H   0  0  0  0  0  0  0  0  0  0  0  0
   -0.0676   18.1133   -0.8047 H   0  0  0  0  0  0  0  0  0  0  0  0
    1.8465   16.7682    0.1805 H   0  0  0  0  0  0  0  0  0  0  0  0
    2.8632   17.4540   -1.1755 H   0  0  0  0  0  0  0  0  0  0  0  0
    1.5758   19.6590   -0.0078 H   0  0  0  0  0  0  0  0  0  0  0  0
    2.1448   18.6245    1.3682 H   0  0  0  0  0  0  0  0  0  0  0  0
    3.3245   20.1960   -0.5138 H   0  0  0  0  0  0  0  0  0  0  0  0
    4.8016   19.3679    3.3024 H   0  0  0  0  0  0  0  0  0  0  0  0
    3.3943   18.4871    2.6164 H   0  0  0  0  0  0  0  0  0  0  0  0
    5.0196   17.7221    2.6164 H   0  0  0  0  0  0  0  0  0  0  0  0
    6.2644   20.4583    2.0987 H   0  0  0  0  0  0  0  0  0  0  0  0
    6.7484   19.6962    0.5458 H   0  0  0  0  0  0  0  0  0  0  0  0
    5.6367   21.1071    0.5458 H   0  0  0  0  0  0  0  0  0  0  0  0
   -0.6351   16.2517   -1.5414 H   0  0  0  0  0  0  0  0  0  0  0  0
   -0.5366   16.4532   -3.9462 H   0  0  0  0  0  0  0  0  0  0  0  0
    1.1450   17.0251   -3.9069 H   0  0  0  0  0  0  0  0  0  0  0  0
    0.3011   14.3968   -4.6463 H   0  0  0  0  0  0  0  0  0  0  0  0
    1.9636   14.8257   -4.2517 H   0  0  0  0  0  0  0  0  0  0  0  0
   -1.0138   13.5725   -1.4087 H   0  0  0  0  0  0  0  0  0  0  0  0
   -1.3146   14.4225   -2.9623 H   0  0  0  0  0  0  0  0  0  0  0  0
   -0.8654   12.6833   -2.9623 H   0  0  0  0  0  0  0  0  0  0  0  0
    2.7212   13.2082   -2.6152 H   0  0  0  0  0  0  0  0  0  0  0  0
    1.1448   12.1444   -4.3548 H   0  0  0  0  0  0  0  0  0  0  0  0
    2.4582   11.1543   -3.5282 H   0  0  0  0  0  0  0  0  0  0  0  0
    0.1185    9.9762   -3.8177 H   0  0  0  0  0  0  0  0  0  0  0  0
   -0.2159   11.9452   -0.3104 H   0  0  0  0  0  0  0  0  0  0  0  0
    1.7107    9.6190    0.3004 H   0  0  0  0  0  0  0  0  0  0  0  0
    1.1442   10.9015    1.4600 H   0  0  0  0  0  0  0  0  0  0  0  0
   -0.0365    8.7525    1.7894 H   0  0  0  0  0  0  0  0  0  0  0  0
   -1.1377   10.0945    1.2862 H   0  0  0  0  0  0  0  0  0  0  0  0
   -1.7402    8.1106    0.0794 H   0  0  0  0  0  0  0  0  0  0  0  0
    1.0650    8.0090   -0.2870 H   0  0  0  0  0  0  0  0  0  0  0  0
   -2.5686   10.3914   -0.1336 H   0  0  0  0  0  0  0  0  0  0  0  0
   -2.2964   11.2850   -1.6678 H   0  0  0  0  0  0  0  0  0  0  0  0
   -3.2726    9.7772   -1.6678 H   0  0  0  0  0  0  0  0  0  0  0  0
   -1.7960    7.5250   -2.2300 H   0  0  0  0  0  0  0  0  0  0  0  0
   -2.2625    8.9232   -3.2567 H   0  0  0  0  0  0  0  0  0  0  0  0
   -0.5650    8.3357   -3.2567 H   0  0  0  0  0  0  0  0  0  0  0  0
    3.3974   11.2868    0.2500 H   0  0  0  0  0  0  0  0  0  0  0  0
    3.0408   10.4554   -1.3019 H   0  0  0  0  0  0  0  0  0  0  0  0
    3.9406   12.0101   -1.3019 H   0  0  0  0  0  0  0  0  0  0  0  0
    1.5117   12.9148    1.1216 H   0  0  0  0  0  0  0  0  0  0  0  0
    2.8952   13.6979    0.1686 H   0  0  0  0  0  0  0  0  0  0  0  0
   -0.0590   14.3583    0.0180 H   0  0  0  0  0  0  0  0  0  0  0  0
    1.2974   15.3864    0.6256 H   0  0  0  0  0  0  0  0  0  0  0  0
    3.1699   15.6802   -0.6043 H   0  0  0  0  0  0  0  0  0  0  0  0
    3.3139   14.7878   -2.1565 H   0  0  0  0  0  0  0  0  0  0  0  0
    2.8290   16.5174   -2.1565 H   0  0  0  0  0  0  0  0  0  0  0  0
  1  2  1  0
  2  3  1  0
  3  4  1  0
  4  5  1  0
  5  6  1  0
  6  7  1  0
  7  8  1  0
  7  9  1  0
  2 10  1  0
 10 11  1  0
 11 12  1  0
 12 13  1  0
 13 14  1  1
 13 15  1  0
 15 16  1  0
 16 17  1  0
 17 18  2  0
 18 19  1  0
 19 20  1  0
 20 21  1  0
 21 22  1  0
 22 23  1  0
 22 24  1  0
 24 25  1  0
 24 26  1  0
 19 27  1  0
 27 28  1  6
 27 29  1  0
 29 30  1  0
 30 31  1  0
 31 32  1  1
  7  5  1  0
 31 10  1  0
 31 13  1  0
 27 15  1  0
 24 18  1  0
  1 33  1  0
  1 34  1  0
  1 35  1  0
  2 36  1  1
  3 37  1  0
  3 38  1  0
  4 39  1  0
  4 40  1  0
  5 41  1  6
  8 42  1  0
  8 43  1  0
  8 44  1  0
  9 45  1  0
  9 46  1  0
  9 47  1  0
 10 48  1  6
 11 49  1  0
 11 50  1  0
 12 51  1  0
 12 52  1  0
 14 53  1  0
 14 54  1  0
 14 55  1  0
 15 56  1  6
 16 57  1  0
 16 58  1  0
 17 59  1  0
 19 60  1  1
 20 61  1  0
 20 62  1  0
 21 63  1  0
 21 64  1  0
 22 65  1  1
 23 66  1  0
 25 67  1  0
 25 68  1  0
 25 69  1  0
 26 70  1  0
 26 71  1  0
 26 72  1  0
 28 73  1  0
 28 74  1  0
 28 75  1  0
 29 76  1  0
 29 77  1  0
 30 78  1  0
 30 79  1  0
 32 80  1  0
 32 81  1  0
 32 82  1  0
M  END
>  <meeko>  (4) 
{"is_sidechain": [false], "intermolecular_energy": 2.731, "internal_energy": -0.839}

$$$$
EPH_relaxed_0001_pdb2pqr_Repair_332_r2_0001_out
     RDKit          3D

 82 86  0  0  0  0  0  0  0  0999 V2000
    1.9800   17.2340   -0.4630 C   0  0  0  0  0  0  0  0  0  0  0  0
    1.4780   17.3250   -1.9070 C   0  0  2  0  0  0  0  0  0  0  0  0
    0.4640   18.4710   -2.0970 C   0  0  0  0  0  0  0  0  0  0  0  0
    0.6820   19.6500   -1.1460 C   0  0  0  0  0  0  0  0  0  0  0  0
   -0.6150   20.1840   -0.6180 C   0  0  2  0  0  0  0  0  0  0  0  0
   -0.7260   20.1840    0.8120 O   0  0  0  0  0  0  0  0  0  0  0  0
   -1.6390   19.3290    0.1050 C   0  0  0  0  0  0  0  0  0  0  0  0
   -1.4110   17.8690    0.3400 C   0  0  0  0  0  0  0  0  0  0  0  0
   -3.0600   19.7980    0.1490 C   0  0  0  0  0  0  0  0  0  0  0  0
    0.8510   16.0000   -2.3240 C   0  0  1  0  0  0  0  0  0  0  0  0
    0.6380   15.8960   -3.8580 C   0  0  0  0  0  0  0  0  0  0  0  0
    0.8740   14.4130   -4.2420 C   0  0  0  0  0  0  0  0  0  0  0  0
    0.8850   13.6570   -2.8930 C   0  0  1  0  0  0  0  0  0  0  0  0
   -0.6200   13.4560   -2.5330 C   0  0  0  0  0  0  0  0  0  0  0  0
    1.6710   12.3060   -2.8650 C   0  0  2  0  0  0  0  0  0  0  0  0
    1.1260   11.2140   -3.8020 C   0  0  0  0  0  0  0  0  0  0  0  0
    0.1040   10.3080   -3.1990 C   0  0  0  0  0  0  0  0  0  0  0  0
   -0.1520   10.1840   -1.8830 C   0  0  0  0  0  0  0  0  0  0  0  0
    0.6930   10.9300   -0.8420 C   0  0  1  0  0  0  0  0  0  0  0  0
    1.0880    9.9560    0.2990 C   0  0  0  0  0  0  0  0  0  0  0  0
   -0.1210    9.2600    0.9180 C   0  0  0  0  0  0  0  0  0  0  0  0
   -0.9020    8.4820   -0.1370 C   0  0  2  0  0  0  0  0  0  0  0  0
   -0.0920    7.3970   -0.6020 O   0  0  0  0  0  0  0  0  0  0  0  0
   -1.3450    9.3580   -1.3420 C   0  0  0  0  0  0  0  0  0  0  0  0
   -2.4520   10.3420   -0.8910 C   0  0  0  0  0  0  0  0  0  0  0  0
   -1.9970    8.4240   -2.3970 C   0  0  0  0  0  0  0  0  0  0  0  0
    1.9360   11.7400   -1.4110 C   0  0  1  0  0  0  0  0  0  0  0  0
    3.1780   10.8040   -1.5170 C   0  0  0  0  0  0  0  0  0  0  0  0
    2.3210   12.8750   -0.3890 C   0  0  0  0  0  0  0  0  0  0  0  0
    1.5960   14.2250   -0.5430 C   0  0  0  0  0  0  0  0  0  0  0  0
    1.6380   14.7070   -1.9970 C   0  0  2  0  0  0  0  0  0  0  0  0
    3.1390   14.9390   -2.3800 C   0  0  0  0  0  0  0  0  0  0  0  0
    1.1380   17.3866    0.2282 H   0  0  0  0  0  0  0  0  0  0  0  0
    2.4211   16.2413   -0.2900 H   0  0  0  0  0  0  0  0  0  0  0  0
    2.7415   18.0087   -0.2900 H   0  0  0  0  0  0  0  0  0  0  0  0
    2.3462   17.5424   -2.5466 H   0  0  0  0  0  0  0  0  0  0  0  0
    0.5455   18.8389   -3.1304 H   0  0  0  0  0  0  0  0  0  0  0  0
   -0.5315   18.0591   -1.8751 H   0  0  0  0  0  0  0  0  0  0  0  0
    1.3006   19.3159   -0.3000 H   0  0  0  0  0  0  0  0  0  0  0  0
    1.1812   20.4544   -1.7062 H   0  0  0  0  0  0  0  0  0  0  0  0
   -0.7006   20.8796   -1.4659 H   0  0  0  0  0  0  0  0  0  0  0  0
   -1.3803   17.6722    1.4218 H   0  0  0  0  0  0  0  0  0  0  0  0
   -2.2300   17.2922   -0.1145 H   0  0  0  0  0  0  0  0  0  0  0  0
   -0.4552   17.5693   -0.1145 H   0  0  0  0  0  0  0  0  0  0  0  0
   -3.3791   19.9033    1.1964 H   0  0  0  0  0  0  0  0  0  0  0  0
   -3.1410   20.7705   -0.3585 H   0  0  0  0  0  0  0  0  0  0  0  0
   -3.7040   19.0648   -0.3585 H   0  0  0  0  0  0  0  0  0  0  0  0
   -0.0734   16.0385   -1.7291 H   0  0  0  0  0  0  0  0  0  0  0  0
   -0.3873   16.1965   -4.1194 H   0  0  0  0  0  0  0  0  0  0  0  0
    1.3292   16.5591   -4.3989 H   0  0  0  0  0  0  0  0  0  0  0  0
    0.0622   14.0450   -4.8866 H   0  0  0  0  0  0  0  0  0  0  0  0
    1.8075   14.2720   -4.8065 H   0  0  0  0  0  0  0  0  0  0  0  0
   -0.7365   13.4404   -1.4393 H   0  0  0  0  0  0  0  0  0  0  0  0
   -1.2111   14.2832   -2.9530 H   0  0  0  0  0  0  0  0  0  0  0  0
   -0.9733   12.5027   -2.9530 H   0  0  0  0  0  0  0  0  0  0  0  0
    2.6487   12.5940   -3.2788 H   0  0  0  0  0  0  0  0  0  0  0  0
    0.6702   11.7092   -4.6721 H   0  0  0  0  0  0  0  0  0  0  0  0
    1.9849   10.5762   -4.0579 H   0  0  0  0  0  0  0  0  0  0  0  0
   -0.4900    9.6896   -3.8880 H   0  0  0  0  0  0  0  0  0  0  0  0
    0.0502   11.7290   -0.4440 H   0  0  0  0  0  0  0  0  0  0  0  0
    1.7650    9.1909   -0.1089 H   0  0  0  0  0  0  0  0  0  0  0  0
    1.5745   10.5467    1.0892 H   0  0  0  0  0  0  0  0  0  0  0  0
    0.2241    8.5638    1.6966 H   0  0  0  0  0  0  0  0  0  0  0  0
   -0.7824   10.0247    1.3513 H   0  0  0  0  0  0  0  0  0  0  0  0
   -1.8237    8.1150    0.3382 H   0  0  0  0  0  0  0  0  0  0  0  0
    0.7560    7.4390   -0.1290 H   0  0  0  0  0  0  0  0  0  0  0  0
   -2.4884   10.3743    0.2079 H   0  0  0  0  0  0  0  0  0  0  0  0
   -2.2304   11.3467   -1.2802 H   0  0  0  0  0  0  0  0  0  0  0  0
   -3.4238   10.0041   -1.2802 H   0  0  0  0  0  0  0  0  0  0  0  0
   -2.5544    7.6256   -1.8853 H   0  0  0  0  0  0  0  0  0  0  0  0
   -2.6857    9.0064   -3.0266 H   0  0  0  0  0  0  0  0  0  0  0  0
   -1.2128    7.9782   -3.0266 H   0  0  0  0  0  0  0  0  0  0  0  0
    3.5265   10.5414   -0.5072 H   0  0  0  0  0  0  0  0  0  0  0  0
    2.9014    9.8878   -2.0593 H   0  0  0  0  0  0  0  0  0  0  0  0
    3.9825   11.3223   -2.0593 H   0  0  0  0  0  0  0  0  0  0  0  0
    2.1096   12.4975    0.6223 H   0  0  0  0  0  0  0  0  0  0  0  0
    3.3805   13.0936   -0.5882 H   0  0  0  0  0  0  0  0  0  0  0  0
    0.5472   14.1077   -0.2329 H   0  0  0  0  0  0  0  0  0  0  0  0
    2.1030   14.9696    0.0883 H   0  0  0  0  0  0  0  0  0  0  0  0
    3.7410   15.0320   -1.4640 H   0  0  0  0  0  0  0  0  0  0  0  0
    3.5023   14.0863   -2.9725 H   0  0  0  0  0  0  0  0  0  0  0  0
    3.2279   15.8615   -2.9725 H   0  0  0  0  0  0  0  0  0  0  0  0
  1  2  1  0
  2  3  1  0
  3  4  1  0
  4  5  1  0
  5  6  1  0
  6  7  1  0
  7  8  1  0
  7  9  1  0
  2 10  1  0
 10 11  1  0
 11 12  1  0
 12 13  1  0
 13 14  1  1
 13 15  1  0
 15 16  1  0
 16 17  1  0
 17 18  2  0
 18 19  1  0
 19 20  1  0
 20 21  1  0
 21 22  1  0
 22 23  1  0
 22 24  1  0
 24 25  1  0
 24 26  1  0
 19 27  1  0
 27 28  1  6
 27 29  1  0
 29 30  1  0
 30 31  1  0
 31 32  1  6
  7  5  1  0
 31 10  1  0
 31 13  1  0
 27 15  1  0
 24 18  1  0
  1 33  1  0
  1 34  1  0
  1 35  1  0
  2 36  1  6
  3 37  1  0
  3 38  1  0
  4 39  1  0
  4 40  1  0
  5 41  1  6
  8 42  1  0
  8 43  1  0
  8 44  1  0
  9 45  1  0
  9 46  1  0
  9 47  1  0
 10 48  1  1
 11 49  1  0
 11 50  1  0
 12 51  1  0
 12 52  1  0
 14 53  1  0
 14 54  1  0
 14 55  1  0
 15 56  1  6
 16 57  1  0
 16 58  1  0
 17 59  1  0
 19 60  1  1
 20 61  1  0
 20 62  1  0
 21 63  1  0
 21 64  1  0
 22 65  1  1
 23 66  1  0
 25 67  1  0
 25 68  1  0
 25 69  1  0
 26 70  1  0
 26 71  1  0
 26 72  1  0
 28 73  1  0
 28 74  1  0
 28 75  1  0
 29 76  1  0
 29 77  1  0
 30 78  1  0
 30 79  1  0
 32 80  1  0
 32 81  1  0
 32 82  1  0
M  END
>  <meeko>  (5) 
{"is_sidechain": [false], "intermolecular_energy": 2.731, "internal_energy": -0.839}

$$$$
EPH_relaxed_0001_pdb2pqr_Repair_332_r2_0001_out
     RDKit          3D

 82 86  0  0  0  0  0  0  0  0999 V2000
   -5.1810    5.7980   -1.7430 C   0  0  0  0  0  0  0  0  0  0  0  0
   -5.4700    7.3010   -1.8010 C   0  0  2  0  0  0  0  0  0  0  0  0
   -5.2390    7.9890   -0.4410 C   0  0  0  0  0  0  0  0  0  0  0  0
   -4.2090    9.1210   -0.4910 C   0  0  0  0  0  0  0  0  0  0  0  0
   -2.8280    8.6040   -0.7560 C   0  0  2  0  0  0  0  0  0  0  0  0
   -1.8490    8.9840    0.2190 O   0  0  0  0  0  0  0  0  0  0  0  0
   -1.6530    9.4970   -1.1080 C   0  0  0  0  0  0  0  0  0  0  0  0
   -1.8070   10.9820   -1.2160 C   0  0  0  0  0  0  0  0  0  0  0  0
   -0.4840    8.8930   -1.8220 C   0  0  0  0  0  0  0  0  0  0  0  0
   -6.9020    7.5370   -2.2670 C   0  0  1  0  0  0  0  0  0  0  0  0
   -7.2140    6.8360   -3.6160 C   0  0  0  0  0  0  0  0  0  0  0  0
   -8.6940    6.3770   -3.5490 C   0  0  0  0  0  0  0  0  0  0  0  0
   -9.2750    7.1120   -2.3190 C   0  0  1  0  0  0  0  0  0  0  0  0
   -9.6120    8.5470   -2.8310 C   0  0  0  0  0  0  0  0  0  0  0  0
  -10.5080    6.4400   -1.6310 C   0  0  2  0  0  0  0  0  0  0  0  0
  -11.7620    6.3200   -2.5140 C   0  0  0  0  0  0  0  0  0  0  0  0
  -12.7060    7.4750   -2.4420 C   0  0  0  0  0  0  0  0  0  0  0  0
  -12.7010    8.4300   -1.4930 C   0  0  0  0  0  0  0  0  0  0  0  0
  -11.7390    8.3530   -0.3010 C   0  0  1  0  0  0  0  0  0  0  0  0
  -12.5130    8.6480    1.0100 C   0  0  0  0  0  0  0  0  0  0  0  0
  -13.2700    9.9710    0.9570 C   0  0  0  0  0  0  0  0  0  0  0  0
  -14.2590    9.9880   -0.2060 C   0  0  2  0  0  0  0  0  0  0  0  0
  -15.2860    9.0240    0.0480 O   0  0  0  0  0  0  0  0  0  0  0  0
  -13.5940    9.6930   -1.5800 C   0  0  0  0  0  0  0  0  0  0  0  0
  -12.7040   10.8900   -1.9950 C   0  0  0  0  0  0  0  0  0  0  0  0
  -14.7200    9.5990   -2.6450 C   0  0  0  0  0  0  0  0  0  0  0  0
  -10.8580    7.0330   -0.2060 C   0  0  1  0  0  0  0  0  0  0  0  0
  -11.6440    5.9230    0.5570 C   0  0  0  0  0  0  0  0  0  0  0  0
   -9.5710    7.3340    0.6490 C   0  0  0  0  0  0  0  0  0  0  0  0
   -8.3470    7.8840   -0.1070 C   0  0  0  0  0  0  0  0  0  0  0  0
   -8.0420    7.0360   -1.3460 C   0  0  2  0  0  0  0  0  0  0  0  0
   -7.6780    5.5920   -0.8600 C   0  0  0  0  0  0  0  0  0  0  0  0
   -5.1192    5.4768   -0.6928 H   0  0  0  0  0  0  0  0  0  0  0  0
   -5.9901    5.2493   -2.2473 H   0  0  0  0  0  0  0  0  0  0  0  0
   -4.2261    5.5885   -2.2473 H   0  0  0  0  0  0  0  0  0  0  0  0
   -4.7666    7.7460   -2.5202 H   0  0  0  0  0  0  0  0  0  0  0  0
   -6.1966    8.4058   -0.0955 H   0  0  0  0  0  0  0  0  0  0  0  0
   -4.8430    7.2240    0.2431 H   0  0  0  0  0  0  0  0  0  0  0  0
   -4.4874    9.8208   -1.2928 H   0  0  0  0  0  0  0  0  0  0  0  0
   -4.2046    9.6233    0.4876 H   0  0  0  0  0  0  0  0  0  0  0  0
   -3.2333    7.6973   -1.2289 H   0  0  0  0  0  0  0  0  0  0  0  0
   -1.8524   11.4202   -0.2081 H   0  0  0  0  0  0  0  0  0  0  0  0
   -0.9475   11.4012   -1.7596 H   0  0  0  0  0  0  0  0  0  0  0  0
   -2.7342   11.2159   -1.7596 H   0  0  0  0  0  0  0  0  0  0  0  0
    0.2418    8.5180   -1.0853 H   0  0  0  0  0  0  0  0  0  0  0  0
   -0.8297    8.0607   -2.4526 H   0  0  0  0  0  0  0  0  0  0  0  0
   -0.0051    9.6565   -2.4526 H   0  0  0  0  0  0  0  0  0  0  0  0
   -6.9048    8.6364   -2.3038 H   0  0  0  0  0  0  0  0  0  0  0  0
   -7.0727    7.5392   -4.4500 H   0  0  0  0  0  0  0  0  0  0  0  0
   -6.5421    5.9810   -3.7819 H   0  0  0  0  0  0  0  0  0  0  0  0
   -9.2320    6.6659   -4.4639 H   0  0  0  0  0  0  0  0  0  0  0  0
   -8.7885    5.2843   -3.4650 H   0  0  0  0  0  0  0  0  0  0  0  0
   -9.7690    9.2155   -1.9716 H   0  0  0  0  0  0  0  0  0  0  0  0
   -8.7779    8.9239   -3.4411 H   0  0  0  0  0  0  0  0  0  0  0  0
  -10.5266    8.5132   -3.4411 H   0  0  0  0  0  0  0  0  0  0  0  0
  -10.1567    5.4101   -1.4700 H   0  0  0  0  0  0  0  0  0  0  0  0
  -11.4334    6.2142   -3.5584 H   0  0  0  0  0  0  0  0  0  0  0  0
  -12.3177    5.4489   -2.1365 H   0  0  0  0  0  0  0  0  0  0  0  0
  -13.4693    7.5519   -3.2303 H   0  0  0  0  0  0  0  0  0  0  0  0
  -10.9822    9.1331   -0.4702 H   0  0  0  0  0  0  0  0  0  0  0  0
  -13.2341    7.8358    1.1841 H   0  0  0  0  0  0  0  0  0  0  0  0
  -11.7766    8.7170    1.8243 H   0  0  0  0  0  0  0  0  0  0  0  0
  -13.8203   10.1088    1.8994 H   0  0  0  0  0  0  0  0  0  0  0  0
  -12.5443   10.7850    0.8125 H   0  0  0  0  0  0  0  0  0  0  0  0
  -14.6750   11.0042   -0.2704 H   0  0  0  0  0  0  0  0  0  0  0  0
  -14.9790    8.4510    0.7710 H   0  0  0  0  0  0  0  0  0  0  0  0
  -12.3274   11.3966   -1.0941 H   0  0  0  0  0  0  0  0  0  0  0  0
  -11.8554   10.5260   -2.5929 H   0  0  0  0  0  0  0  0  0  0  0  0
  -13.2969   11.5978   -2.5929 H   0  0  0  0  0  0  0  0  0  0  0  0
  -15.6948    9.5176   -2.1418 H   0  0  0  0  0  0  0  0  0  0  0  0
  -14.7062   10.5014   -3.2738 H   0  0  0  0  0  0  0  0  0  0  0  0
  -14.5567    8.7114   -3.2738 H   0  0  0  0  0  0  0  0  0  0  0  0
  -11.5356    6.0761    1.6409 H   0  0  0  0  0  0  0  0  0  0  0  0
  -12.7084    5.9740    0.2842 H   0  0  0  0  0  0  0  0  0  0  0  0
  -11.2424    4.9359    0.2842 H   0  0  0  0  0  0  0  0  0  0  0  0
   -9.8468    8.0718    1.4168 H   0  0  0  0  0  0  0  0  0  0  0  0
   -9.2515    6.3572    1.0412 H   0  0  0  0  0  0  0  0  0  0  0  0
   -8.5523    8.9183   -0.4203 H   0  0  0  0  0  0  0  0  0  0  0  0
   -7.4760    7.8510    0.5640 H   0  0  0  0  0  0  0  0  0  0  0  0
   -7.6714    5.5660    0.2397 H   0  0  0  0  0  0  0  0  0  0  0  0
   -8.4244    4.8785   -1.2392 H   0  0  0  0  0  0  0  0  0  0  0  0
   -6.6826    5.3175   -1.2392 H   0  0  0  0  0  0  0  0  0  0  0  0
  1  2  1  0
  2  3  1  0
  3  4  1  0
  4  5  1  0
  5  6  1  0
  6  7  1  0
  7  8  1  0
  7  9  1  0
  2 10  1  0
 10 11  1  0
 11 12  1  0
 12 13  1  0
 13 14  1  6
 13 15  1  0
 15 16  1  0
 16 17  1  0
 17 18  2  0
 18 19  1  0
 19 20  1  0
 20 21  1  0
 21 22  1  0
 22 23  1  0
 22 24  1  0
 24 25  1  0
 24 26  1  0
 19 27  1  0
 27 28  1  1
 27 29  1  0
 29 30  1  0
 30 31  1  0
 31 32  1  1
  7  5  1  0
 31 10  1  0
 31 13  1  0
 27 15  1  0
 24 18  1  0
  1 33  1  0
  1 34  1  0
  1 35  1  0
  2 36  1  6
  3 37  1  0
  3 38  1  0
  4 39  1  0
  4 40  1  0
  5 41  1  6
  8 42  1  0
  8 43  1  0
  8 44  1  0
  9 45  1  0
  9 46  1  0
  9 47  1  0
 10 48  1  6
 11 49  1  0
 11 50  1  0
 12 51  1  0
 12 52  1  0
 14 53  1  0
 14 54  1  0
 14 55  1  0
 15 56  1  1
 16 57  1  0
 16 58  1  0
 17 59  1  0
 19 60  1  6
 20 61  1  0
 20 62  1  0
 21 63  1  0
 21 64  1  0
 22 65  1  6
 23 66  1  0
 25 67  1  0
 25 68  1  0
 25 69  1  0
 26 70  1  0
 26 71  1  0
 26 72  1  0
 28 73  1  0
 28 74  1  0
 28 75  1  0
 29 76  1  0
 29 77  1  0
 30 78  1  0
 30 79  1  0
 32 80  1  0
 32 81  1  0
 32 82  1  0
M  END
>  <meeko>  (6) 
{"is_sidechain": [false], "intermolecular_energy": 2.731, "internal_energy": -0.839}

$$$$
EPH_relaxed_0001_pdb2pqr_Repair_332_r2_0001_out
     RDKit          3D

 82 86  0  0  0  0  0  0  0  0999 V2000
    4.1020   17.0600    0.3860 C   0  0  0  0  0  0  0  0  0  0  0  0
    2.8490   17.6240   -0.2910 C   0  0  2  0  0  0  0  0  0  0  0  0
    2.3210   18.8840    0.4230 C   0  0  0  0  0  0  0  0  0  0  0  0
    1.1620   19.5660   -0.3100 C   0  0  0  0  0  0  0  0  0  0  0  0
   -0.0670   19.6400    0.5450 C   0  0  2  0  0  0  0  0  0  0  0  0
   -0.8720   18.4530    0.5410 O   0  0  0  0  0  0  0  0  0  0  0  0
   -1.4770   19.6320   -0.0150 C   0  0  0  0  0  0  0  0  0  0  0  0
   -1.7320   19.5480   -1.4880 C   0  0  0  0  0  0  0  0  0  0  0  0
   -2.5830   20.1940    0.8230 C   0  0  0  0  0  0  0  0  0  0  0  0
    1.7610   16.5580   -0.3390 C   0  0  1  0  0  0  0  0  0  0  0  0
    0.3900   17.1240   -0.7940 C   0  0  0  0  0  0  0  0  0  0  0  0
   -0.3010   16.0110   -1.6240 C   0  0  0  0  0  0  0  0  0  0  0  0
    0.5350   14.7400   -1.3440 C   0  0  1  0  0  0  0  0  0  0  0  0
    0.0150   14.2130    0.0310 C   0  0  0  0  0  0  0  0  0  0  0  0
    0.4910   13.6290   -2.4420 C   0  0  2  0  0  0  0  0  0  0  0  0
   -0.8960   13.0120   -2.6920 C   0  0  0  0  0  0  0  0  0  0  0  0
   -1.2190   11.8120   -1.8630 C   0  0  0  0  0  0  0  0  0  0  0  0
   -0.3310   11.0820   -1.1640 C   0  0  0  0  0  0  0  0  0  0  0  0
    1.1710   11.3840   -1.2420 C   0  0  1  0  0  0  0  0  0  0  0  0
    1.9560   10.0610   -1.4430 C   0  0  0  0  0  0  0  0  0  0  0  0
    1.6240    9.0170   -0.3810 C   0  0  0  0  0  0  0  0  0  0  0  0
    0.1310    8.7010   -0.3740 C   0  0  2  0  0  0  0  0  0  0  0  0
   -0.2080    8.0490   -1.6020 O   0  0  0  0  0  0  0  0  0  0  0  0
   -0.7610    9.9600   -0.1870 C   0  0  0  0  0  0  0  0  0  0  0  0
   -0.6140   10.4920    1.2600 C   0  0  0  0  0  0  0  0  0  0  0  0
   -2.2430    9.5230   -0.3400 C   0  0  0  0  0  0  0  0  0  0  0  0
    1.5990   12.5110   -2.2780 C   0  0  1  0  0  0  0  0  0  0  0  0
    1.8120   11.8830   -3.6890 C   0  0  0  0  0  0  0  0  0  0  0  0
    2.9900   13.1070   -1.8430 C   0  0  0  0  0  0  0  0  0  0  0  0
    2.9620   14.2820   -0.8470 C   0  0  0  0  0  0  0  0  0  0  0  0
    1.9770   15.3630   -1.3030 C   0  0  2  0  0  0  0  0  0  0  0  0
    2.4870   15.9280   -2.6720 C   0  0  0  0  0  0  0  0  0  0  0  0
    3.9840   17.1131    1.4784 H   0  0  0  0  0  0  0  0  0  0  0  0
    4.2423   16.0119    0.0829 H   0  0  0  0  0  0  0  0  0  0  0  0
    4.9796   17.6499    0.0829 H   0  0  0  0  0  0  0  0  0  0  0  0
    3.1282   17.9170   -1.3138 H   0  0  0  0  0  0  0  0  0  0  0  0
    1.9755   18.5955    1.4267 H   0  0  0  0  0  0  0  0  0  0  0  0
    3.1501   19.6062    0.4564 H   0  0  0  0  0  0  0  0  0  0  0  0
    1.4660   20.5864   -0.5865 H   0  0  0  0  0  0  0  0  0  0  0  0
    0.9231   18.9705   -1.2035 H   0  0  0  0  0  0  0  0  0  0  0  0
    0.4402   20.3071    1.2575 H   0  0  0  0  0  0  0  0  0  0  0  0
   -2.7635   19.2082   -1.6628 H   0  0  0  0  0  0  0  0  0  0  0  0
   -1.5909   20.5401   -1.9417 H   0  0  0  0  0  0  0  0  0  0  0  0
   -1.0289   18.8340   -1.9417 H   0  0  0  0  0  0  0  0  0  0  0  0
   -2.3363   20.0687    1.8876 H   0  0  0  0  0  0  0  0  0  0  0  0
   -2.7058   21.2638    0.5985 H   0  0  0  0  0  0  0  0  0  0  0  0
   -3.5195   19.6624    0.5985 H   0  0  0  0  0  0  0  0  0  0  0  0
    1.7969   16.2113    0.7043 H   0  0  0  0  0  0  0  0  0  0  0  0
   -0.2239   17.3794    0.0823 H   0  0  0  0  0  0  0  0  0  0  0  0
    0.5191   18.0389   -1.3908 H   0  0  0  0  0  0  0  0  0  0  0  0
   -1.3417   15.8714   -1.2961 H   0  0  0  0  0  0  0  0  0  0  0  0
   -0.3432   16.2550   -2.6958 H   0  0  0  0  0  0  0  0  0  0  0  0
    0.5343   14.7393    0.8455 H   0  0  0  0  0  0  0  0  0  0  0  0
   -1.0671   14.3951    0.1080 H   0  0  0  0  0  0  0  0  0  0  0  0
    0.2115   13.1334    0.1080 H   0  0  0  0  0  0  0  0  0  0  0  0
    0.7367   14.1913   -3.3549 H   0  0  0  0  0  0  0  0  0  0  0  0
   -1.6532   13.7824   -2.4844 H   0  0  0  0  0  0  0  0  0  0  0  0
   -0.8925   12.6682   -3.7369 H   0  0  0  0  0  0  0  0  0  0  0  0
   -2.2725   11.4986   -1.8205 H   0  0  0  0  0  0  0  0  0  0  0  0
    1.4407   11.8347   -0.2755 H   0  0  0  0  0  0  0  0  0  0  0  0
    1.7064    9.6496   -2.4322 H   0  0  0  0  0  0  0  0  0  0  0  0
    3.0281   10.2928   -1.3599 H   0  0  0  0  0  0  0  0  0  0  0  0
    2.1859    8.0956   -0.5940 H   0  0  0  0  0  0  0  0  0  0  0  0
    1.9023    9.4184    0.6046 H   0  0  0  0  0  0  0  0  0  0  0  0
   -0.0638    8.0479    0.4894 H   0  0  0  0  0  0  0  0  0  0  0  0
    0.2140    8.5440   -2.3240 H   0  0  0  0  0  0  0  0  0  0  0  0
   -0.8373    9.6840    1.9722 H   0  0  0  0  0  0  0  0  0  0  0  0
    0.4155   10.8457    1.4178 H   0  0  0  0  0  0  0  0  0  0  0  0
   -1.3159   11.3242    1.4178 H   0  0  0  0  0  0  0  0  0  0  0  0
   -2.6910    9.3909    0.6559 H   0  0  0  0  0  0  0  0  0  0  0  0
   -2.7980   10.2957   -0.8922 H   0  0  0  0  0  0  0  0  0  0  0  0
   -2.2899    8.5728   -0.8922 H   0  0  0  0  0  0  0  0  0  0  0  0
    2.1636   10.8464   -3.5797 H   0  0  0  0  0  0  0  0  0  0  0  0
    0.8608   11.8913   -4.2414 H   0  0  0  0  0  0  0  0  0  0  0  0
    2.5619   12.4682   -4.2414 H   0  0  0  0  0  0  0  0  0  0  0  0
    3.5708   12.2942   -1.3824 H   0  0  0  0  0  0  0  0  0  0  0  0
    3.4262   13.5211   -2.7640 H   0  0  0  0  0  0  0  0  0  0  0  0
    2.6550   13.9090    0.1412 H   0  0  0  0  0  0  0  0  0  0  0  0
    3.9684   14.7231   -0.7960 H   0  0  0  0  0  0  0  0  0  0  0  0
    3.2137   16.7331   -2.4885 H   0  0  0  0  0  0  0  0  0  0  0  0
    2.9694   15.1220   -3.2444 H   0  0  0  0  0  0  0  0  0  0  0  0
    1.6360   16.3256   -3.2444 H   0  0  0  0  0  0  0  0  0  0  0  0
  1  2  1  0
  2  3  1  0
  3  4  1  0
  4  5  1  0
  5  6  1  0
  6  7  1  0
  7  8  1  0
  7  9  1  0
  2 10  1  0
 10 11  1  0
 11 12  1  0
 12 13  1  0
 13 14  1  1
 13 15  1  0
 15 16  1  0
 16 17  1  0
 17 18  2  0
 18 19  1  0
 19 20  1  0
 20 21  1  0
 21 22  1  0
 22 23  1  0
 22 24  1  0
 24 25  1  0
 24 26  1  0
 19 27  1  0
 27 28  1  6
 27 29  1  0
 29 30  1  0
 30 31  1  0
 31 32  1  6
  7  5  1  0
 31 10  1  0
 31 13  1  0
 27 15  1  0
 24 18  1  0
  1 33  1  0
  1 34  1  0
  1 35  1  0
  2 36  1  6
  3 37  1  0
  3 38  1  0
  4 39  1  0
  4 40  1  0
  5 41  1  1
  8 42  1  0
  8 43  1  0
  8 44  1  0
  9 45  1  0
  9 46  1  0
  9 47  1  0
 10 48  1  1
 11 49  1  0
 11 50  1  0
 12 51  1  0
 12 52  1  0
 14 53  1  0
 14 54  1  0
 14 55  1  0
 15 56  1  6
 16 57  1  0
 16 58  1  0
 17 59  1  0
 19 60  1  1
 20 61  1  0
 20 62  1  0
 21 63  1  0
 21 64  1  0
 22 65  1  1
 23 66  1  0
 25 67  1  0
 25 68  1  0
 25 69  1  0
 26 70  1  0
 26 71  1  0
 26 72  1  0
 28 73  1  0
 28 74  1  0
 28 75  1  0
 29 76  1  0
 29 77  1  0
 30 78  1  0
 30 79  1  0
 32 80  1  0
 32 81  1  0
 32 82  1  0
M  END
>  <meeko>  (7) 
{"is_sidechain": [false], "intermolecular_energy": 2.731, "internal_energy": -0.839}

$$$$
EPH_relaxed_0001_pdb2pqr_Repair_332_r2_0001_out
     RDKit          3D

 82 86  0  0  0  0  0  0  0  0999 V2000
   -0.9040   16.4780   -5.8170 C   0  0  0  0  0  0  0  0  0  0  0  0
    0.1730   15.7730   -6.6460 C   0  0  2  0  0  0  0  0  0  0  0  0
   -0.2510   15.5970   -8.1180 C   0  0  0  0  0  0  0  0  0  0  0  0
    0.4190   16.5870   -9.0750 C   0  0  0  0  0  0  0  0  0  0  0  0
    1.8240   16.1780   -9.4010 C   0  0  2  0  0  0  0  0  0  0  0  0
    2.3370   16.7230  -10.6240 O   0  0  0  0  0  0  0  0  0  0  0  0
    2.1860   15.2950  -10.5800 C   0  0  0  0  0  0  0  0  0  0  0  0
    1.1380   14.7650  -11.5080 C   0  0  0  0  0  0  0  0  0  0  0  0
    3.4850   14.5520  -10.5450 C   0  0  0  0  0  0  0  0  0  0  0  0
    0.4980   14.4170   -6.0310 C   0  0  1  0  0  0  0  0  0  0  0  0
    1.7100   13.7280   -6.7120 C   0  0  0  0  0  0  0  0  0  0  0  0
    2.4660   12.9540   -5.6010 C   0  0  0  0  0  0  0  0  0  0  0  0
    1.4930   12.9470   -4.3990 C   0  0  1  0  0  0  0  0  0  0  0  0
    0.4910   11.7890   -4.6990 C   0  0  0  0  0  0  0  0  0  0  0  0
    2.1430   12.7960   -2.9850 C   0  0  2  0  0  0  0  0  0  0  0  0
    2.8980   11.4760   -2.7510 C   0  0  0  0  0  0  0  0  0  0  0  0
    2.0780   10.3650   -2.1840 C   0  0  0  0  0  0  0  0  0  0  0  0
    0.8680   10.4990   -1.6100 C   0  0  0  0  0  0  0  0  0  0  0  0
    0.2460   11.8860   -1.3990 C   0  0  1  0  0  0  0  0  0  0  0  0
   -0.3160   11.9870    0.0430 C   0  0  0  0  0  0  0  0  0  0  0  0
   -1.2860   10.8560    0.3730 C   0  0  0  0  0  0  0  0  0  0  0  0
   -0.6140    9.4960    0.2080 C   0  0  2  0  0  0  0  0  0  0  0  0
    0.4080    9.3620    1.2010 O   0  0  0  0  0  0  0  0  0  0  0  0
   -0.0000    9.2830   -1.2040 C   0  0  0  0  0  0  0  0  0  0  0  0
   -1.1350    9.1260   -2.2460 C   0  0  0  0  0  0  0  0  0  0  0  0
    0.7680    7.9340   -1.1930 C   0  0  0  0  0  0  0  0  0  0  0  0
    1.1660   13.1240   -1.7840 C   0  0  1  0  0  0  0  0  0  0  0  0
    2.0650   13.5160   -0.5720 C   0  0  0  0  0  0  0  0  0  0  0  0
    0.2510   14.3710   -2.0800 C   0  0  0  0  0  0  0  0  0  0  0  0
   -0.2620   14.5300   -3.5240 C   0  0  0  0  0  0  0  0  0  0  0  0
    0.8840   14.3910   -4.5310 C   0  0  2  0  0  0  0  0  0  0  0  0
    1.8960   15.5570   -4.2670 C   0  0  0  0  0  0  0  0  0  0  0  0
   -0.6921   16.3393   -4.7466 H   0  0  0  0  0  0  0  0  0  0  0  0
   -0.9049   17.5521   -6.0544 H   0  0  0  0  0  0  0  0  0  0  0  0
   -1.8887   16.0491   -6.0544 H   0  0  0  0  0  0  0  0  0  0  0  0
    1.0698   16.4099   -6.6347 H   0  0  0  0  0  0  0  0  0  0  0  0
    0.0106   14.5767   -8.4350 H   0  0  0  0  0  0  0  0  0  0  0  0
   -1.3334   15.7871   -8.1653 H   0  0  0  0  0  0  0  0  0  0  0  0
   -0.1643   16.6328  -10.0065 H   0  0  0  0  0  0  0  0  0  0  0  0
    0.4533   17.5702   -8.5829 H   0  0  0  0  0  0  0  0  0  0  0  0
    2.0816   16.1245   -8.3329 H   0  0  0  0  0  0  0  0  0  0  0  0
    0.3075   14.3450  -10.9216 H   0  0  0  0  0  0  0  0  0  0  0  0
    0.7628   15.5817  -12.1422 H   0  0  0  0  0  0  0  0  0  0  0  0
    1.5735   13.9788  -12.1422 H   0  0  0  0  0  0  0  0  0  0  0  0
    3.7821   14.3820   -9.4996 H   0  0  0  0  0  0  0  0  0  0  0  0
    3.3678   13.5844  -11.0548 H   0  0  0  0  0  0  0  0  0  0  0  0
    4.2596   15.1436  -11.0548 H   0  0  0  0  0  0  0  0  0  0  0  0
   -0.4670   13.9104   -6.1797 H   0  0  0  0  0  0  0  0  0  0  0  0
    1.3625   13.0318   -7.4895 H   0  0  0  0  0  0  0  0  0  0  0  0
    2.3656   14.4679   -7.1944 H   0  0  0  0  0  0  0  0  0  0  0  0
    2.6889   11.9271   -5.9261 H   0  0  0  0  0  0  0  0  0  0  0  0
    3.4320   13.4180   -5.3529 H   0  0  0  0  0  0  0  0  0  0  0  0
    0.1251   11.3661   -3.7517 H   0  0  0  0  0  0  0  0  0  0  0  0
   -0.3584   12.1800   -5.2784 H   0  0  0  0  0  0  0  0  0  0  0  0
    1.0000   11.0046   -5.2784 H   0  0  0  0  0  0  0  0  0  0  0  0
    2.9124   13.5821   -2.9944 H   0  0  0  0  0  0  0  0  0  0  0  0
    3.3037   11.1405   -3.7169 H   0  0  0  0  0  0  0  0  0  0  0  0
    3.6720   11.6966   -2.0012 H   0  0  0  0  0  0  0  0  0  0  0  0
    2.4986    9.3501   -2.2401 H   0  0  0  0  0  0  0  0  0  0  0  0
   -0.5756   11.9652   -2.1261 H   0  0  0  0  0  0  0  0  0  0  0  0
    0.5239   11.9495    0.7523 H   0  0  0  0  0  0  0  0  0  0  0  0
   -0.8690   12.9347    0.1205 H   0  0  0  0  0  0  0  0  0  0  0  0
   -1.6263   10.9656    1.4133 H   0  0  0  0  0  0  0  0  0  0  0  0
   -2.1394   10.9123   -0.3187 H   0  0  0  0  0  0  0  0  0  0  0  0
   -1.3915    8.7278    0.3318 H   0  0  0  0  0  0  0  0  0  0  0  0
    0.4780   10.2130    1.6670 H   0  0  0  0  0  0  0  0  0  0  0  0
   -2.0949    8.9932   -1.7254 H   0  0  0  0  0  0  0  0  0  0  0  0
   -1.1812   10.0263   -2.8763 H   0  0  0  0  0  0  0  0  0  0  0  0
   -0.9351    8.2470   -2.8763 H   0  0  0  0  0  0  0  0  0  0  0  0
    0.9458    7.6218   -0.1533 H   0  0  0  0  0  0  0  0  0  0  0  0
    0.1707    7.1678   -1.7089 H   0  0  0  0  0  0  0  0  0  0  0  0
    1.7317    8.0565   -1.7089 H   0  0  0  0  0  0  0  0  0  0  0  0
    1.5374   13.2860    0.3654 H   0  0  0  0  0  0  0  0  0  0  0  0
    3.0049   12.9460   -0.6132 H   0  0  0  0  0  0  0  0  0  0  0  0
    2.2869   14.5926   -0.6132 H   0  0  0  0  0  0  0  0  0  0  0  0
   -0.6269   14.3034   -1.4207 H   0  0  0  0  0  0  0  0  0  0  0  0
    0.8932   15.2468   -1.9050 H   0  0  0  0  0  0  0  0  0  0  0  0
   -1.0148   13.7538   -3.7260 H   0  0  0  0  0  0  0  0  0  0  0  0
   -0.7037   15.5317   -3.6312 H   0  0  0  0  0  0  0  0  0  0  0  0
    2.0183   15.6979   -3.1829 H   0  0  0  0  0  0  0  0  0  0  0  0
    2.8685   15.3072   -4.7163 H   0  0  0  0  0  0  0  0  0  0  0  0
    1.5119   16.4847   -4.7163 H   0  0  0  0  0  0  0  0  0  0  0  0
  1  2  1  0
  2  3  1  0
  3  4  1  0
  4  5  1  0
  5  6  1  0
  6  7  1  0
  7  8  1  0
  7  9  1  0
  2 10  1  0
 10 11  1  0
 11 12  1  0
 12 13  1  0
 13 14  1  6
 13 15  1  0
 15 16  1  0
 16 17  1  0
 17 18  2  0
 18 19  1  0
 19 20  1  0
 20 21  1  0
 21 22  1  0
 22 23  1  0
 22 24  1  0
 24 25  1  0
 24 26  1  0
 19 27  1  0
 27 28  1  1
 27 29  1  0
 29 30  1  0
 30 31  1  0
 31 32  1  6
  7  5  1  0
 31 10  1  0
 31 13  1  0
 27 15  1  0
 24 18  1  0
  1 33  1  0
  1 34  1  0
  1 35  1  0
  2 36  1  6
  3 37  1  0
  3 38  1  0
  4 39  1  0
  4 40  1  0
  5 41  1  1
  8 42  1  0
  8 43  1  0
  8 44  1  0
  9 45  1  0
  9 46  1  0
  9 47  1  0
 10 48  1  1
 11 49  1  0
 11 50  1  0
 12 51  1  0
 12 52  1  0
 14 53  1  0
 14 54  1  0
 14 55  1  0
 15 56  1  6
 16 57  1  0
 16 58  1  0
 17 59  1  0
 19 60  1  6
 20 61  1  0
 20 62  1  0
 21 63  1  0
 21 64  1  0
 22 65  1  1
 23 66  1  0
 25 67  1  0
 25 68  1  0
 25 69  1  0
 26 70  1  0
 26 71  1  0
 26 72  1  0
 28 73  1  0
 28 74  1  0
 28 75  1  0
 29 76  1  0
 29 77  1  0
 30 78  1  0
 30 79  1  0
 32 80  1  0
 32 81  1  0
 32 82  1  0
M  END
>  <meeko>  (8) 
{"is_sidechain": [false], "intermolecular_energy": 2.731, "internal_energy": -0.839}

$$$$
EPH_relaxed_0001_pdb2pqr_Repair_332_r2_0001_out
     RDKit          3D

 82 86  0  0  0  0  0  0  0  0999 V2000
   -2.1990    7.8910   -2.1860 C   0  0  0  0  0  0  0  0  0  0  0  0
   -2.0990    8.4940   -0.7810 C   0  0  2  0  0  0  0  0  0  0  0  0
   -3.4470    8.4530   -0.0350 C   0  0  0  0  0  0  0  0  0  0  0  0
   -4.6630    8.6180   -0.9500 C   0  0  0  0  0  0  0  0  0  0  0  0
   -5.3990    7.3250   -1.1330 C   0  0  2  0  0  0  0  0  0  0  0  0
   -5.5880    6.9320   -2.4980 O   0  0  0  0  0  0  0  0  0  0  0  0
   -6.7800    7.2290   -1.7530 C   0  0  0  0  0  0  0  0  0  0  0  0
   -7.5080    8.4460   -2.2300 C   0  0  0  0  0  0  0  0  0  0  0  0
   -7.6180    6.0260   -1.4510 C   0  0  0  0  0  0  0  0  0  0  0  0
   -1.5930    9.9290   -0.8670 C   0  0  1  0  0  0  0  0  0  0  0  0
   -1.1420   10.4860    0.5100 C   0  0  0  0  0  0  0  0  0  0  0  0
    0.0630   11.4240    0.2400 C   0  0  0  0  0  0  0  0  0  0  0  0
    0.0560   11.6360   -1.2920 C   0  0  1  0  0  0  0  0  0  0  0  0
   -1.0200   12.7400   -1.5400 C   0  0  0  0  0  0  0  0  0  0  0  0
    1.4270   12.0100   -1.9440 C   0  0  2  0  0  0  0  0  0  0  0  0
    2.0320   13.3430   -1.4720 C   0  0  0  0  0  0  0  0  0  0  0  0
    1.6430   14.5400   -2.2740 C   0  0  0  0  0  0  0  0  0  0  0  0
    1.0740   14.5130   -3.4940 C   0  0  0  0  0  0  0  0  0  0  0  0
    0.8550   13.1860   -4.2310 C   0  0  1  0  0  0  0  0  0  0  0  0
    1.3270   13.3270   -5.7030 C   0  0  0  0  0  0  0  0  0  0  0  0
    0.6720   14.5060   -6.4160 C   0  0  0  0  0  0  0  0  0  0  0  0
    0.9610   15.8150   -5.6850 C   0  0  2  0  0  0  0  0  0  0  0  0
    2.3600   16.0990   -5.7830 O   0  0  0  0  0  0  0  0  0  0  0  0
    0.5370   15.7880   -4.1900 C   0  0  0  0  0  0  0  0  0  0  0  0
   -1.0090   15.7830   -4.0870 C   0  0  0  0  0  0  0  0  0  0  0  0
    1.0110   17.1130   -3.5350 C   0  0  0  0  0  0  0  0  0  0  0  0
    1.4480   11.8930   -3.5220 C   0  0  1  0  0  0  0  0  0  0  0  0
    2.9390   11.6960   -3.9340 C   0  0  0  0  0  0  0  0  0  0  0  0
    0.6730   10.6230   -4.0380 C   0  0  0  0  0  0  0  0  0  0  0  0
   -0.6100   10.2350   -3.2780 C   0  0  0  0  0  0  0  0  0  0  0  0
   -0.3610   10.1970   -1.7670 C   0  0  2  0  0  0  0  0  0  0  0  0
    0.7000    9.0800   -1.4860 C   0  0  0  0  0  0  0  0  0  0  0  0
   -2.3785    6.8085   -2.1085 H   0  0  0  0  0  0  0  0  0  0  0  0
   -3.0312    8.3627   -2.7291 H   0  0  0  0  0  0  0  0  0  0  0  0
   -1.2591    8.0688   -2.7291 H   0  0  0  0  0  0  0  0  0  0  0  0
   -1.3866    7.8829   -0.2075 H   0  0  0  0  0  0  0  0  0  0  0  0
   -3.5292    7.4846    0.4803 H   0  0  0  0  0  0  0  0  0  0  0  0
   -3.4533    9.3026    0.6636 H   0  0  0  0  0  0  0  0  0  0  0  0
   -5.3459    9.3570   -0.5055 H   0  0  0  0  0  0  0  0  0  0  0  0
   -4.3074    8.9525   -1.9357 H   0  0  0  0  0  0  0  0  0  0  0  0
   -4.9820    6.9279   -0.1957 H   0  0  0  0  0  0  0  0  0  0  0  0
   -7.8561    9.0280   -1.3639 H   0  0  0  0  0  0  0  0  0  0  0  0
   -6.8308    9.0634   -2.8384 H   0  0  0  0  0  0  0  0  0  0  0  0
   -8.3723    8.1413   -2.8384 H   0  0  0  0  0  0  0  0  0  0  0  0
   -7.7037    5.9030   -0.3613 H   0  0  0  0  0  0  0  0  0  0  0  0
   -8.6200    6.1588   -1.8849 H   0  0  0  0  0  0  0  0  0  0  0  0
   -7.1461    5.1321   -1.8849 H   0  0  0  0  0  0  0  0  0  0  0  0
   -2.4833   10.4129   -1.2951 H   0  0  0  0  0  0  0  0  0  0  0  0
   -1.9629   11.0490    0.9782 H   0  0  0  0  0  0  0  0  0  0  0  0
   -0.8626    9.6708    1.1936 H   0  0  0  0  0  0  0  0  0  0  0  0
   -0.0651   12.3819    0.7653 H   0  0  0  0  0  0  0  0  0  0  0  0
    1.0119   10.9981    0.5981 H   0  0  0  0  0  0  0  0  0  0  0  0
   -1.3876   13.1172   -0.5743 H   0  0  0  0  0  0  0  0  0  0  0  0
   -0.5720   13.5671   -2.1102 H   0  0  0  0  0  0  0  0  0  0  0  0
   -1.8584   12.3134   -2.1102 H   0  0  0  0  0  0  0  0  0  0  0  0
    2.0936   11.2254   -1.5566 H   0  0  0  0  0  0  0  0  0  0  0  0
    1.7129   13.5119   -0.4329 H   0  0  0  0  0  0  0  0  0  0  0  0
    3.1211   13.2404   -1.5878 H   0  0  0  0  0  0  0  0  0  0  0  0
    1.8376   15.5278   -1.8309 H   0  0  0  0  0  0  0  0  0  0  0  0
   -0.2284   12.9976   -4.2024 H   0  0  0  0  0  0  0  0  0  0  0  0
    2.4175   13.4712   -5.7115 H   0  0  0  0  0  0  0  0  0  0  0  0
    1.0361   12.4101   -6.2366 H   0  0  0  0  0  0  0  0  0  0  0  0
    1.0666   14.5713   -7.4407 H   0  0  0  0  0  0  0  0  0  0  0  0
   -0.4162   14.3459   -6.4322 H   0  0  0  0  0  0  0  0  0  0  0  0
    0.3615   16.6012   -6.1671 H   0  0  0  0  0  0  0  0  0  0  0  0
    2.5600   16.2700   -6.7190 H   0  0  0  0  0  0  0  0  0  0  0  0
   -1.3059   15.7820   -3.0278 H   0  0  0  0  0  0  0  0  0  0  0  0
   -1.4122   16.6798   -4.5800 H   0  0  0  0  0  0  0  0  0  0  0  0
   -1.4064   14.8836   -4.5800 H   0  0  0  0  0  0  0  0  0  0  0  0
    0.9756   17.0139   -2.4400 H   0  0  0  0  0  0  0  0  0  0  0  0
    2.0423   17.3295   -3.8504 H   0  0  0  0  0  0  0  0  0  0  0  0
    0.3510   17.9346   -3.8504 H   0  0  0  0  0  0  0  0  0  0  0  0
    3.5612   11.6138   -3.0306 H   0  0  0  0  0  0  0  0  0  0  0  0
    3.0361   10.7772   -4.5310 H   0  0  0  0  0  0  0  0  0  0  0  0
    3.2714   12.5580   -4.5310 H   0  0  0  0  0  0  0  0  0  0  0  0
    0.3960   10.8056   -5.0868 H   0  0  0  0  0  0  0  0  0  0  0  0
    1.3645    9.7816   -3.8833 H   0  0  0  0  0  0  0  0  0  0  0  0
   -1.3946   10.9748   -3.4950 H   0  0  0  0  0  0  0  0  0  0  0  0
   -0.9239    9.2335   -3.6074 H   0  0  0  0  0  0  0  0  0  0  0  0
    0.8203    8.9534   -0.3999 H   0  0  0  0  0  0  0  0  0  0  0  0
    0.3613    8.1324   -1.9303 H   0  0  0  0  0  0  0  0  0  0  0  0
    1.6637    9.3696   -1.9303 H   0  0  0  0  0  0  0  0  0  0  0  0
  1  2  1  0
  2  3  1  0
  3  4  1  0
  4  5  1  0
  5  6  1  0
  6  7  1  0
  7  8  1  0
  7  9  1  0
  2 10  1  0
 10 11  1  0
 11 12  1  0
 12 13  1  0
 13 14  1  1
 13 15  1  0
 15 16  1  0
 16 17  1  0
 17 18  2  0
 18 19  1  0
 19 20  1  0
 20 21  1  0
 21 22  1  0
 22 23  1  0
 22 24  1  0
 24 25  1  0
 24 26  1  0
 19 27  1  0
 27 28  1  6
 27 29  1  0
 29 30  1  0
 30 31  1  0
 31 32  1  6
  7  5  1  0
 31 10  1  0
 31 13  1  0
 27 15  1  0
 24 18  1  0
  1 33  1  0
  1 34  1  0
  1 35  1  0
  2 36  1  1
  3 37  1  0
  3 38  1  0
  4 39  1  0
  4 40  1  0
  5 41  1  1
  8 42  1  0
  8 43  1  0
  8 44  1  0
  9 45  1  0
  9 46  1  0
  9 47  1  0
 10 48  1  6
 11 49  1  0
 11 50  1  0
 12 51  1  0
 12 52  1  0
 14 53  1  0
 14 54  1  0
 14 55  1  0
 15 56  1  1
 16 57  1  0
 16 58  1  0
 17 59  1  0
 19 60  1  6
 20 61  1  0
 20 62  1  0
 21 63  1  0
 21 64  1  0
 22 65  1  6
 23 66  1  0
 25 67  1  0
 25 68  1  0
 25 69  1  0
 26 70  1  0
 26 71  1  0
 26 72  1  0
 28 73  1  0
 28 74  1  0
 28 75  1  0
 29 76  1  0
 29 77  1  0
 30 78  1  0
 30 79  1  0
 32 80  1  0
 32 81  1  0
 32 82  1  0
M  END
>  <meeko>  (9) 
{"is_sidechain": [false], "intermolecular_energy": 2.731, "internal_energy": -0.839}

$$$$
EPH_relaxed_0001_pdb2pqr_Repair_332_r2_0001_out
     RDKit          3D

 82 86  0  0  0  0  0  0  0  0999 V2000
   -3.7220    7.1540   -3.3740 C   0  0  0  0  0  0  0  0  0  0  0  0
   -3.7630    7.2590   -1.8470 C   0  0  2  0  0  0  0  0  0  0  0  0
   -5.1860    7.0550   -1.2890 C   0  0  0  0  0  0  0  0  0  0  0  0
   -6.2910    7.2790   -2.3250 C   0  0  0  0  0  0  0  0  0  0  0  0
   -7.6240    7.4990   -1.6750 C   0  0  2  0  0  0  0  0  0  0  0  0
   -8.2180    6.3210   -1.1150 O   0  0  0  0  0  0  0  0  0  0  0  0
   -8.9220    6.9250   -2.2130 C   0  0  0  0  0  0  0  0  0  0  0  0
   -8.9500    6.0870   -3.4530 C   0  0  0  0  0  0  0  0  0  0  0  0
  -10.2100    7.5770   -1.8180 C   0  0  0  0  0  0  0  0  0  0  0  0
   -3.2180    8.6110   -1.4040 C   0  0  1  0  0  0  0  0  0  0  0  0
   -3.8340    9.0930   -0.0640 C   0  0  0  0  0  0  0  0  0  0  0  0
   -2.7180    9.8580    0.6920 C   0  0  0  0  0  0  0  0  0  0  0  0
   -1.6110   10.0780   -0.3650 C   0  0  1  0  0  0  0  0  0  0  0  0
   -2.0810   11.3210   -1.1850 C   0  0  0  0  0  0  0  0  0  0  0  0
   -0.1580   10.2640    0.1830 C   0  0  2  0  0  0  0  0  0  0  0  0
    0.0480   11.4990    1.0770 C   0  0  0  0  0  0  0  0  0  0  0  0
    0.4600   12.7430    0.3620 C   0  0  0  0  0  0  0  0  0  0  0  0
    0.9310   12.8010   -0.8980 C   0  0  0  0  0  0  0  0  0  0  0  0
    1.1830   11.5210   -1.7050 C   0  0  1  0  0  0  0  0  0  0  0  0
    2.5720   11.6050   -2.3900 C   0  0  0  0  0  0  0  0  0  0  0  0
    2.7340   12.8670   -3.2320 C   0  0  0  0  0  0  0  0  0  0  0  0
    2.5340   14.1190   -2.3820 C   0  0  2  0  0  0  0  0  0  0  0  0
    3.6030   14.2090   -1.4350 O   0  0  0  0  0  0  0  0  0  0  0  0
    1.1710   14.1420   -1.6350 C   0  0  0  0  0  0  0  0  0  0  0  0
    0.0230   14.3480   -2.6540 C   0  0  0  0  0  0  0  0  0  0  0  0
    1.1570   15.3850   -0.7060 C   0  0  0  0  0  0  0  0  0  0  0  0
    0.9700   10.1540   -0.9210 C   0  0  1  0  0  0  0  0  0  0  0  0
    2.2820    9.7570   -0.1790 C   0  0  0  0  0  0  0  0  0  0  0  0
    0.6820    9.0060   -1.9590 C   0  0  0  0  0  0  0  0  0  0  0  0
   -0.7880    8.7940   -2.3710 C   0  0  0  0  0  0  0  0  0  0  0  0
   -1.6950    8.7130   -1.1400 C   0  0  2  0  0  0  0  0  0  0  0  0
   -1.2610    7.4590   -0.3070 C   0  0  0  0  0  0  0  0  0  0  0  0
   -3.3360    6.1654   -3.6633 H   0  0  0  0  0  0  0  0  0  0  0  0
   -4.7369    7.2839   -3.7778 H   0  0  0  0  0  0  0  0  0  0  0  0
   -3.0637    7.9373   -3.7778 H   0  0  0  0  0  0  0  0  0  0  0  0
   -3.1317    6.4539   -1.4428 H   0  0  0  0  0  0  0  0  0  0  0  0
   -5.2669    6.0248   -0.9121 H   0  0  0  0  0  0  0  0  0  0  0  0
   -5.3313    7.8042   -0.4968 H   0  0  0  0  0  0  0  0  0  0  0  0
   -6.0390    8.1627   -2.9296 H   0  0  0  0  0  0  0  0  0  0  0  0
   -6.3601    6.3785   -2.9529 H   0  0  0  0  0  0  0  0  0  0  0  0
   -7.3363    8.5173   -1.3746 H   0  0  0  0  0  0  0  0  0  0  0  0
   -8.9855    5.0231   -3.1758 H   0  0  0  0  0  0  0  0  0  0  0  0
   -9.8402    6.3410   -4.0472 H   0  0  0  0  0  0  0  0  0  0  0  0
   -8.0449    6.2811   -4.0472 H   0  0  0  0  0  0  0  0  0  0  0  0
  -10.2813    7.6131   -0.7209 H   0  0  0  0  0  0  0  0  0  0  0  0
  -10.2420    8.5999   -2.2214 H   0  0  0  0  0  0  0  0  0  0  0  0
  -11.0533    6.9972   -2.2214 H   0  0  0  0  0  0  0  0  0  0  0  0
   -3.4881    9.2150   -2.2828 H   0  0  0  0  0  0  0  0  0  0  0  0
   -4.6865    9.7606   -0.2575 H   0  0  0  0  0  0  0  0  0  0  0  0
   -4.2020    8.2432    0.5297 H   0  0  0  0  0  0  0  0  0  0  0  0
   -3.0934   10.8214    1.0674 H   0  0  0  0  0  0  0  0  0  0  0  0
   -2.3529    9.3037    1.5692 H   0  0  0  0  0  0  0  0  0  0  0  0
   -2.3840   12.1223   -0.4950 H   0  0  0  0  0  0  0  0  0  0  0  0
   -1.2550   11.6758   -1.8188 H   0  0  0  0  0  0  0  0  0  0  0  0
   -2.9352   11.0405   -1.8188 H   0  0  0  0  0  0  0  0  0  0  0  0
   -0.0415    9.3933    0.8450 H   0  0  0  0  0  0  0  0  0  0  0  0
   -0.8995   11.7039    1.5969 H   0  0  0  0  0  0  0  0  0  0  0  0
    0.8777   11.2488    1.7546 H   0  0  0  0  0  0  0  0  0  0  0  0
    0.3713   13.6922    0.9108 H   0  0  0  0  0  0  0  0  0  0  0  0
    0.3926   11.4827   -2.4691 H   0  0  0  0  0  0  0  0  0  0  0  0
    3.3497   11.5979   -1.6121 H   0  0  0  0  0  0  0  0  0  0  0  0
    2.6649   10.7402   -3.0634 H   0  0  0  0  0  0  0  0  0  0  0  0
    3.7450   12.8836   -3.6651 H   0  0  0  0  0  0  0  0  0  0  0  0
    1.9749   12.8580   -4.0280 H   0  0  0  0  0  0  0  0  0  0  0  0
    2.5326   14.9828   -3.0631 H   0  0  0  0  0  0  0  0  0  0  0  0
    3.8320   13.3040   -1.1630 H   0  0  0  0  0  0  0  0  0  0  0  0
   -0.9204   14.5173   -2.1142 H   0  0  0  0  0  0  0  0  0  0  0  0
    0.2457   15.2205   -3.2857 H   0  0  0  0  0  0  0  0  0  0  0  0
   -0.0716   13.4525   -3.2857 H   0  0  0  0  0  0  0  0  0  0  0  0
    1.1607   15.0579    0.3442 H   0  0  0  0  0  0  0  0  0  0  0  0
    2.0483   15.9992   -0.9019 H   0  0  0  0  0  0  0  0  0  0  0  0
    0.2521   15.9790   -0.9019 H   0  0  0  0  0  0  0  0  0  0  0  0
    2.1181    9.8066    0.9076 H   0  0  0  0  0  0  0  0  0  0  0  0
    2.5668    8.7325   -0.4605 H   0  0  0  0  0  0  0  0  0  0  0  0
    3.0870   10.4518   -0.4605 H   0  0  0  0  0  0  0  0  0  0  0  0
    1.2541    9.2310   -2.8712 H   0  0  0  0  0  0  0  0  0  0  0  0
    0.9747    8.0766   -1.4486 H   0  0  0  0  0  0  0  0  0  0  0  0
   -1.1104    9.6362   -3.0009 H   0  0  0  0  0  0  0  0  0  0  0  0
   -0.8641    7.8474   -2.9261 H   0  0  0  0  0  0  0  0  0  0  0  0
   -1.3398    7.6866    0.7663 H   0  0  0  0  0  0  0  0  0  0  0  0
   -1.9180    6.6112   -0.5512 H   0  0  0  0  0  0  0  0  0  0  0  0
   -0.2205    7.1987   -0.5512 H   0  0  0  0  0  0  0  0  0  0  0  0
  1  2  1  0
  2  3  1  0
  3  4  1  0
  4  5  1  0
  5  6  1  0
  6  7  1  0
  7  8  1  0
  7  9  1  0
  2 10  1  0
 10 11  1  0
 11 12  1  0
 12 13  1  0
 13 14  1  6
 13 15  1  0
 15 16  1  0
 16 17  1  0
 17 18  2  0
 18 19  1  0
 19 20  1  0
 20 21  1  0
 21 22  1  0
 22 23  1  0
 22 24  1  0
 24 25  1  0
 24 26  1  0
 19 27  1  0
 27 28  1  1
 27 29  1  0
 29 30  1  0
 30 31  1  0
 31 32  1  1
  7  5  1  0
 31 10  1  0
 31 13  1  0
 27 15  1  0
 24 18  1  0
  1 33  1  0
  1 34  1  0
  1 35  1  0
  2 36  1  1
  3 37  1  0
  3 38  1  0
  4 39  1  0
  4 40  1  0
  5 41  1  1
  8 42  1  0
  8 43  1  0
  8 44  1  0
  9 45  1  0
  9 46  1  0
  9 47  1  0
 10 48  1  6
 11 49  1  0
 11 50  1  0
 12 51  1  0
 12 52  1  0
 14 53  1  0
 14 54  1  0
 14 55  1  0
 15 56  1  1
 16 57  1  0
 16 58  1  0
 17 59  1  0
 19 60  1  6
 20 61  1  0
 20 62  1  0
 21 63  1  0
 21 64  1  0
 22 65  1  6
 23 66  1  0
 25 67  1  0
 25 68  1  0
 25 69  1  0
 26 70  1  0
 26 71  1  0
 26 72  1  0
 28 73  1  0
 28 74  1  0
 28 75  1  0
 29 76  1  0
 29 77  1  0
 30 78  1  0
 30 79  1  0
 32 80  1  0
 32 81  1  0
 32 82  1  0
M  END
>  <meeko>  (10) 
{"is_sidechain": [false], "intermolecular_energy": 2.731, "internal_energy": -0.839}

$$$$
EPH_relaxed_0001_pdb2pqr_Repair_332_r2_0001_out
     RDKit          3D

 82 86  0  0  0  0  0  0  0  0999 V2000
   -0.2430    9.3030   -2.1090 C   0  0  0  0  0  0  0  0  0  0  0  0
    0.8590   10.2360   -2.6170 C   0  0  2  0  0  0  0  0  0  0  0  0
    2.2270    9.5300   -2.6980 C   0  0  0  0  0  0  0  0  0  0  0  0
    3.1400   10.0800   -3.7980 C   0  0  0  0  0  0  0  0  0  0  0  0
    4.4870   10.4590   -3.2610 C   0  0  2  0  0  0  0  0  0  0  0  0
    4.9150   11.7850   -3.5990 O   0  0  0  0  0  0  0  0  0  0  0  0
    5.6980   10.7090   -4.1410 C   0  0  0  0  0  0  0  0  0  0  0  0
    5.6170   10.5890   -5.6310 C   0  0  0  0  0  0  0  0  0  0  0  0
    7.0610   10.5890   -3.5340 C   0  0  0  0  0  0  0  0  0  0  0  0
    0.9580   11.4620   -1.7160 C   0  0  1  0  0  0  0  0  0  0  0  0
    2.0650   11.3210   -0.6360 C   0  0  0  0  0  0  0  0  0  0  0  0
    2.6690   12.7340   -0.4290 C   0  0  0  0  0  0  0  0  0  0  0  0
    1.6810   13.6890   -1.1390 C   0  0  1  0  0  0  0  0  0  0  0  0
    0.5200   13.8970   -0.1170 C   0  0  0  0  0  0  0  0  0  0  0  0
    2.2700   15.0510   -1.6300 C   0  0  2  0  0  0  0  0  0  0  0  0
    2.8070   15.9680   -0.5170 C   0  0  0  0  0  0  0  0  0  0  0  0
    1.8150   16.9250    0.0560 C   0  0  0  0  0  0  0  0  0  0  0  0
    0.6280   17.2430   -0.4930 C   0  0  0  0  0  0  0  0  0  0  0  0
    0.2220   16.6920   -1.8660 C   0  0  1  0  0  0  0  0  0  0  0  0
   -0.3490   17.8420   -2.7370 C   0  0  0  0  0  0  0  0  0  0  0  0
   -1.4870   18.5880   -2.0480 C   0  0  0  0  0  0  0  0  0  0  0  0
   -1.0290   19.1700   -0.7130 C   0  0  2  0  0  0  0  0  0  0  0  0
   -0.0620   20.1940   -0.9660 O   0  0  0  0  0  0  0  0  0  0  0  0
   -0.4260   18.1060    0.2450 C   0  0  0  0  0  0  0  0  0  0  0  0
   -1.5480   17.1700    0.7560 C   0  0  0  0  0  0  0  0  0  0  0  0
    0.1260   18.8460    1.4940 C   0  0  0  0  0  0  0  0  0  0  0  0
    1.3290   15.8420   -2.6270 C   0  0  1  0  0  0  0  0  0  0  0  0
    2.2520   16.7890   -3.4530 C   0  0  0  0  0  0  0  0  0  0  0  0
    0.6230   14.8920   -3.6650 C   0  0  0  0  0  0  0  0  0  0  0  0
    0.1720   13.5120   -3.1490 C   0  0  0  0  0  0  0  0  0  0  0  0
    1.3040   12.8140   -2.3890 C   0  0  2  0  0  0  0  0  0  0  0  0
    2.4780   12.5700   -3.3980 C   0  0  0  0  0  0  0  0  0  0  0  0
   -0.2443    9.3019   -1.0090 H   0  0  0  0  0  0  0  0  0  0  0  0
   -1.2187    9.6538   -2.4765 H   0  0  0  0  0  0  0  0  0  0  0  0
   -0.0580    8.2828   -2.4765 H   0  0  0  0  0  0  0  0  0  0  0  0
    0.5866   10.5447   -3.6370 H   0  0  0  0  0  0  0  0  0  0  0  0
    2.7374    9.6499   -1.7310 H   0  0  0  0  0  0  0  0  0  0  0  0
    2.0304    8.4754   -2.9411 H   0  0  0  0  0  0  0  0  0  0  0  0
    3.2687    9.3099   -4.5729 H   0  0  0  0  0  0  0  0  0  0  0  0
    2.6700   10.9830   -4.2147 H   0  0  0  0  0  0  0  0  0  0  0  0
    4.3375    9.8265   -2.3736 H   0  0  0  0  0  0  0  0  0  0  0  0
    5.0197    9.7040   -5.8956 H   0  0  0  0  0  0  0  0  0  0  0  0
    5.1415   11.4899   -6.0461 H   0  0  0  0  0  0  0  0  0  0  0  0
    6.6303   10.4849   -6.0461 H   0  0  0  0  0  0  0  0  0  0  0  0
    6.9759   10.5965   -2.4373 H   0  0  0  0  0  0  0  0  0  0  0  0
    7.5256    9.6465   -3.8593 H   0  0  0  0  0  0  0  0  0  0  0  0
    7.6831   11.4358   -3.8593 H   0  0  0  0  0  0  0  0  0  0  0  0
   -0.0704   11.4883   -1.3266 H   0  0  0  0  0  0  0  0  0  0  0  0
    1.6313   10.9526    0.3054 H   0  0  0  0  0  0  0  0  0  0  0  0
    2.8366   10.6036   -0.9520 H   0  0  0  0  0  0  0  0  0  0  0  0
    2.7383   12.9735    0.6424 H   0  0  0  0  0  0  0  0  0  0  0  0
    3.6893   12.8145   -0.8322 H   0  0  0  0  0  0  0  0  0  0  0  0
    0.9157   13.8261    0.9069 H   0  0  0  0  0  0  0  0  0  0  0  0
    0.0714   14.8898   -0.2688 H   0  0  0  0  0  0  0  0  0  0  0  0
   -0.2454   13.1217   -0.2688 H   0  0  0  0  0  0  0  0  0  0  0  0
    3.1511   14.7335   -2.2069 H   0  0  0  0  0  0  0  0  0  0  0  0
    3.1752   15.3305    0.3003 H   0  0  0  0  0  0  0  0  0  0  0  0
    3.5901   16.5845   -0.9826 H   0  0  0  0  0  0  0  0  0  0  0  0
    2.0762   17.4115    1.0074 H   0  0  0  0  0  0  0  0  0  0  0  0
   -0.5617   15.9444   -1.6742 H   0  0  0  0  0  0  0  0  0  0  0  0
    0.4599   18.5552   -2.9537 H   0  0  0  0  0  0  0  0  0  0  0  0
   -0.7521   17.3949   -3.6577 H   0  0  0  0  0  0  0  0  0  0  0  0
   -1.8274   19.4063   -2.6995 H   0  0  0  0  0  0  0  0  0  0  0  0
   -2.3072   17.8798   -1.8592 H   0  0  0  0  0  0  0  0  0  0  0  0
   -1.9171   19.5775   -0.2078 H   0  0  0  0  0  0  0  0  0  0  0  0
   -0.3040   20.6290   -1.8010 H   0  0  0  0  0  0  0  0  0  0  0  0
   -1.5509   17.1676    1.8560 H   0  0  0  0  0  0  0  0  0  0  0  0
   -2.5206   17.5283    0.3876 H   0  0  0  0  0  0  0  0  0  0  0  0
   -1.3699   16.1490    0.3876 H   0  0  0  0  0  0  0  0  0  0  0  0
   -0.2423   18.3522    2.4053 H   0  0  0  0  0  0  0  0  0  0  0  0
    1.2256   18.8179    1.4806 H   0  0  0  0  0  0  0  0  0  0  0  0
   -0.2143   19.8920    1.4806 H   0  0  0  0  0  0  0  0  0  0  0  0
    2.8525   17.4052   -2.7676 H   0  0  0  0  0  0  0  0  0  0  0  0
    2.9205   16.1881   -4.0871 H   0  0  0  0  0  0  0  0  0  0  0  0
    1.6341   17.4419   -4.0871 H   0  0  0  0  0  0  0  0  0  0  0  0
   -0.2690   15.4144   -4.0411 H   0  0  0  0  0  0  0  0  0  0  0  0
    1.3877   14.6787   -4.4264 H   0  0  0  0  0  0  0  0  0  0  0  0
   -0.6869   13.6432   -2.4744 H   0  0  0  0  0  0  0  0  0  0  0  0
   -0.1074   12.8892   -4.0116 H   0  0  0  0  0  0  0  0  0  0  0  0
    3.4064   12.3770   -2.8405 H   0  0  0  0  0  0  0  0  0  0  0  0
    2.2430   11.7015   -4.0308 H   0  0  0  0  0  0  0  0  0  0  0  0
    2.6086   13.4602   -4.0308 H   0  0  0  0  0  0  0  0  0  0  0  0
  1  2  1  0
  2  3  1  0
  3  4  1  0
  4  5  1  0
  5  6  1  0
  6  7  1  0
  7  8  1  0
  7  9  1  0
  2 10  1  0
 10 11  1  0
 11 12  1  0
 12 13  1  0
 13 14  1  1
 13 15  1  0
 15 16  1  0
 16 17  1  0
 17 18  2  0
 18 19  1  0
 19 20  1  0
 20 21  1  0
 21 22  1  0
 22 23  1  0
 22 24  1  0
 24 25  1  0
 24 26  1  0
 19 27  1  0
 27 28  1  6
 27 29  1  0
 29 30  1  0
 30 31  1  0
 31 32  1  6
  7  5  1  0
 31 10  1  0
 31 13  1  0
 27 15  1  0
 24 18  1  0
  1 33  1  0
  1 34  1  0
  1 35  1  0
  2 36  1  6
  3 37  1  0
  3 38  1  0
  4 39  1  0
  4 40  1  0
  5 41  1  1
  8 42  1  0
  8 43  1  0
  8 44  1  0
  9 45  1  0
  9 46  1  0
  9 47  1  0
 10 48  1  1
 11 49  1  0
 11 50  1  0
 12 51  1  0
 12 52  1  0
 14 53  1  0
 14 54  1  0
 14 55  1  0
 15 56  1  6
 16 57  1  0
 16 58  1  0
 17 59  1  0
 19 60  1  1
 20 61  1  0
 20 62  1  0
 21 63  1  0
 21 64  1  0
 22 65  1  1
 23 66  1  0
 25 67  1  0
 25 68  1  0
 25 69  1  0
 26 70  1  0
 26 71  1  0
 26 72  1  0
 28 73  1  0
 28 74  1  0
 28 75  1  0
 29 76  1  0
 29 77  1  0
 30 78  1  0
 30 79  1  0
 32 80  1  0
 32 81  1  0
 32 82  1  0
M  END
>  <meeko>  (11) 
{"is_sidechain": [false], "intermolecular_energy": 2.731, "internal_energy": -0.839}

$$$$
EPH_relaxed_0001_pdb2pqr_Repair_332_r2_0001_out
     RDKit          3D

 82 86  0  0  0  0  0  0  0  0999 V2000
    0.4180    8.9100   -2.9360 C   0  0  0  0  0  0  0  0  0  0  0  0
    1.2340   10.0780   -3.4960 C   0  0  2  0  0  0  0  0  0  0  0  0
    2.7120   10.0160   -3.0620 C   0  0  0  0  0  0  0  0  0  0  0  0
    3.6710   10.6970   -4.0430 C   0  0  0  0  0  0  0  0  0  0  0  0
    5.0390   10.8640   -3.4540 C   0  0  2  0  0  0  0  0  0  0  0  0
    5.7070   12.0770   -3.8270 O   0  0  0  0  0  0  0  0  0  0  0  0
    6.3120   10.8550   -4.2800 C   0  0  0  0  0  0  0  0  0  0  0  0
    6.2770   10.6730   -5.7650 C   0  0  0  0  0  0  0  0  0  0  0  0
    7.6050   10.5330   -3.5980 C   0  0  0  0  0  0  0  0  0  0  0  0
    0.6180   11.4010   -3.0560 C   0  0  1  0  0  0  0  0  0  0  0  0
   -0.8550   11.2480   -2.5910 C   0  0  0  0  0  0  0  0  0  0  0  0
   -1.0670   12.2610   -1.4360 C   0  0  0  0  0  0  0  0  0  0  0  0
    0.1720   13.1840   -1.4950 C   0  0  1  0  0  0  0  0  0  0  0  0
   -0.1480   14.2130   -2.6250 C   0  0  0  0  0  0  0  0  0  0  0  0
    0.5680   13.8960   -0.1610 C   0  0  2  0  0  0  0  0  0  0  0  0
   -0.4880   14.8660    0.3990 C   0  0  0  0  0  0  0  0  0  0  0  0
   -0.3650   16.2800   -0.0640 C   0  0  0  0  0  0  0  0  0  0  0  0
    0.7140   16.8150   -0.6650 C   0  0  0  0  0  0  0  0  0  0  0  0
    2.0000   15.9980   -0.8470 C   0  0  1  0  0  0  0  0  0  0  0  0
    3.2220   16.8550   -0.4240 C   0  0  0  0  0  0  0  0  0  0  0  0
    3.2750   18.1960   -1.1490 C   0  0  0  0  0  0  0  0  0  0  0  0
    2.0040   19.0030   -0.8970 C   0  0  2  0  0  0  0  0  0  0  0  0
    1.9580   19.3710    0.4850 O   0  0  0  0  0  0  0  0  0  0  0  0
    0.7070   18.2370   -1.2770 C   0  0  0  0  0  0  0  0  0  0  0  0
    0.6130   18.1040   -2.8170 C   0  0  0  0  0  0  0  0  0  0  0  0
   -0.5050   19.1050   -0.8430 C   0  0  0  0  0  0  0  0  0  0  0  0
    2.0060   14.5560   -0.1790 C   0  0  1  0  0  0  0  0  0  0  0  0
    2.4680   14.6590    1.3070 C   0  0  0  0  0  0  0  0  0  0  0  0
    3.0680   13.6540   -0.9120 C   0  0  0  0  0  0  0  0  0  0  0  0
    2.5850   12.8820   -2.1550 C   0  0  0  0  0  0  0  0  0  0  0  0
    1.2820   12.1330   -1.8630 C   0  0  2  0  0  0  0  0  0  0  0  0
    1.5780   11.0750   -0.7460 C   0  0  0  0  0  0  0  0  0  0  0  0
    0.4398    8.9412   -1.8367 H   0  0  0  0  0  0  0  0  0  0  0  0
   -0.6223    8.9891   -3.2845 H   0  0  0  0  0  0  0  0  0  0  0  0
    0.8502    7.9604   -3.2845 H   0  0  0  0  0  0  0  0  0  0  0  0
    1.2087   10.0021   -4.5931 H   0  0  0  0  0  0  0  0  0  0  0  0
    2.8076   10.5097   -2.0837 H   0  0  0  0  0  0  0  0  0  0  0  0
    2.9917    8.9528   -3.0248 H   0  0  0  0  0  0  0  0  0  0  0  0
    3.7468   10.0826   -4.9522 H   0  0  0  0  0  0  0  0  0  0  0  0
    3.2728   11.6959   -4.2748 H   0  0  0  0  0  0  0  0  0  0  0  0
    4.7428   10.3134   -2.5490 H   0  0  0  0  0  0  0  0  0  0  0  0
    6.0741    9.6178   -6.0004 H   0  0  0  0  0  0  0  0  0  0  0  0
    5.4836   11.3033   -6.1931 H   0  0  0  0  0  0  0  0  0  0  0  0
    7.2476   10.9641   -6.1931 H   0  0  0  0  0  0  0  0  0  0  0  0
    7.4632   10.5683   -2.5077 H   0  0  0  0  0  0  0  0  0  0  0  0
    7.9339    9.5255   -3.8925 H   0  0  0  0  0  0  0  0  0  0  0  0
    8.3680   11.2686   -3.8925 H   0  0  0  0  0  0  0  0  0  0  0  0
    0.7553   11.9844   -3.9784 H   0  0  0  0  0  0  0  0  0  0  0  0
   -1.5398   11.4723   -3.4221 H   0  0  0  0  0  0  0  0  0  0  0  0
   -1.0591   10.2199   -2.2572 H   0  0  0  0  0  0  0  0  0  0  0  0
   -1.9898   12.8392   -1.5910 H   0  0  0  0  0  0  0  0  0  0  0  0
   -1.1717   11.7649   -0.4598 H   0  0  0  0  0  0  0  0  0  0  0  0
   -0.4460   15.1713   -2.1746 H   0  0  0  0  0  0  0  0  0  0  0  0
    0.7459   14.3630   -3.2482 H   0  0  0  0  0  0  0  0  0  0  0  0
   -0.9693   13.8296   -3.2482 H   0  0  0  0  0  0  0  0  0  0  0  0
    0.6113   13.0571    0.5492 H   0  0  0  0  0  0  0  0  0  0  0  0
   -1.4805   14.4963    0.1019 H   0  0  0  0  0  0  0  0  0  0  0  0
   -0.3336   14.8881    1.4879 H   0  0  0  0  0  0  0  0  0  0  0  0
   -1.2293   16.9404    0.0999 H   0  0  0  0  0  0  0  0  0  0  0  0
    2.0616   15.7633   -1.9199 H   0  0  0  0  0  0  0  0  0  0  0  0
    3.1642   17.0415    0.6585 H   0  0  0  0  0  0  0  0  0  0  0  0
    4.1307   16.2952   -0.6904 H   0  0  0  0  0  0  0  0  0  0  0  0
    4.1421   18.7674   -0.7862 H   0  0  0  0  0  0  0  0  0  0  0  0
    3.3631   18.0079   -2.2292 H   0  0  0  0  0  0  0  0  0  0  0  0
    2.0440   19.8920   -1.5436 H   0  0  0  0  0  0  0  0  0  0  0  0
    1.1390   19.8740    0.6290 H   0  0  0  0  0  0  0  0  0  0  0  0
   -0.0045   17.2303   -3.0726 H   0  0  0  0  0  0  0  0  0  0  0  0
    0.1549   19.0120   -3.2362 H   0  0  0  0  0  0  0  0  0  0  0  0
    1.6218   17.9752   -3.2362 H   0  0  0  0  0  0  0  0  0  0  0  0
   -0.5555   19.1412    0.2552 H   0  0  0  0  0  0  0  0  0  0  0  0
   -0.3861   20.1246   -1.2384 H   0  0  0  0  0  0  0  0  0  0  0  0
   -1.4320   18.6642   -1.2384 H   0  0  0  0  0  0  0  0  0  0  0  0
    1.6121   14.4682    1.9711 H   0  0  0  0  0  0  0  0  0  0  0  0
    3.2543   13.9141    1.4990 H   0  0  0  0  0  0  0  0  0  0  0  0
    2.8634   15.6674    1.4990 H   0  0  0  0  0  0  0  0  0  0  0  0
    3.8973   14.3049   -1.2261 H   0  0  0  0  0  0  0  0  0  0  0  0
    3.3413   12.8793   -0.1805 H   0  0  0  0  0  0  0  0  0  0  0  0
    2.4148   13.5933   -2.9767 H   0  0  0  0  0  0  0  0  0  0  0  0
    3.3561   12.1487   -2.4339 H   0  0  0  0  0  0  0  0  0  0  0  0
    1.4481   11.5394    0.2426 H   0  0  0  0  0  0  0  0  0  0  0  0
    0.8819   10.2294   -0.8482 H   0  0  0  0  0  0  0  0  0  0  0  0
    2.6118   10.7134   -0.8482 H   0  0  0  0  0  0  0  0  0  0  0  0
  1  2  1  0
  2  3  1  0
  3  4  1  0
  4  5  1  0
  5  6  1  0
  6  7  1  0
  7  8  1  0
  7  9  1  0
  2 10  1  0
 10 11  1  0
 11 12  1  0
 12 13  1  0
 13 14  1  6
 13 15  1  0
 15 16  1  0
 16 17  1  0
 17 18  2  0
 18 19  1  0
 19 20  1  0
 20 21  1  0
 21 22  1  0
 22 23  1  0
 22 24  1  0
 24 25  1  0
 24 26  1  0
 19 27  1  0
 27 28  1  1
 27 29  1  0
 29 30  1  0
 30 31  1  0
 31 32  1  1
  7  5  1  0
 31 10  1  0
 31 13  1  0
 27 15  1  0
 24 18  1  0
  1 33  1  0
  1 34  1  0
  1 35  1  0
  2 36  1  6
  3 37  1  0
  3 38  1  0
  4 39  1  0
  4 40  1  0
  5 41  1  1
  8 42  1  0
  8 43  1  0
  8 44  1  0
  9 45  1  0
  9 46  1  0
  9 47  1  0
 10 48  1  6
 11 49  1  0
 11 50  1  0
 12 51  1  0
 12 52  1  0
 14 53  1  0
 14 54  1  0
 14 55  1  0
 15 56  1  1
 16 57  1  0
 16 58  1  0
 17 59  1  0
 19 60  1  6
 20 61  1  0
 20 62  1  0
 21 63  1  0
 21 64  1  0
 22 65  1  6
 23 66  1  0
 25 67  1  0
 25 68  1  0
 25 69  1  0
 26 70  1  0
 26 71  1  0
 26 72  1  0
 28 73  1  0
 28 74  1  0
 28 75  1  0
 29 76  1  0
 29 77  1  0
 30 78  1  0
 30 79  1  0
 32 80  1  0
 32 81  1  0
 32 82  1  0
M  END
>  <meeko>  (12) 
{"is_sidechain": [false], "intermolecular_energy": 2.731, "internal_energy": -0.839}

$$$$
EPH_relaxed_0001_pdb2pqr_Repair_332_r2_0001_out
     RDKit          3D

 82 86  0  0  0  0  0  0  0  0999 V2000
    2.4160    9.7280   -2.0730 C   0  0  0  0  0  0  0  0  0  0  0  0
    1.0680   10.1020   -1.4500 C   0  0  2  0  0  0  0  0  0  0  0  0
   -0.0730   10.0950   -2.4880 C   0  0  0  0  0  0  0  0  0  0  0  0
   -0.8530    8.7790   -2.5350 C   0  0  0  0  0  0  0  0  0  0  0  0
   -1.6900    8.5860   -1.3070 C   0  0  2  0  0  0  0  0  0  0  0  0
   -3.0970    8.7770   -1.5050 O   0  0  0  0  0  0  0  0  0  0  0  0
   -2.4480    9.7100   -0.6260 C   0  0  0  0  0  0  0  0  0  0  0  0
   -2.4040   11.1110   -1.1500 C   0  0  0  0  0  0  0  0  0  0  0  0
   -2.8280    9.5480    0.8130 C   0  0  0  0  0  0  0  0  0  0  0  0
    1.1630   11.4720   -0.7890 C   0  0  1  0  0  0  0  0  0  0  0  0
    2.2610   11.5320    0.3060 C   0  0  0  0  0  0  0  0  0  0  0  0
    2.8660   12.9590    0.2550 C   0  0  0  0  0  0  0  0  0  0  0  0
    1.8850   13.7670   -0.6270 C   0  0  1  0  0  0  0  0  0  0  0  0
    0.7170   14.1610    0.3300 C   0  0  0  0  0  0  0  0  0  0  0  0
    2.4800   15.0160   -1.3560 C   0  0  2  0  0  0  0  0  0  0  0  0
    3.0120   16.1220   -0.4270 C   0  0  0  0  0  0  0  0  0  0  0  0
    2.0170   17.1680   -0.0470 C   0  0  0  0  0  0  0  0  0  0  0  0
    0.8340   17.3800   -0.6540 C   0  0  0  0  0  0  0  0  0  0  0  0
    0.4380   16.5860   -1.9060 C   0  0  1  0  0  0  0  0  0  0  0  0
   -0.1250   17.5560   -2.9780 C   0  0  0  0  0  0  0  0  0  0  0  0
   -1.2670   18.4170   -2.4470 C   0  0  0  0  0  0  0  0  0  0  0  0
   -0.8170   19.2350   -1.2390 C   0  0  2  0  0  0  0  0  0  0  0  0
    0.1540   20.1940   -1.6680 O   0  0  0  0  0  0  0  0  0  0  0  0
   -0.2230   18.3650   -0.0960 C   0  0  0  0  0  0  0  0  0  0  0  0
   -1.3510   17.5390    0.5700 C   0  0  0  0  0  0  0  0  0  0  0  0
    0.3200   19.3210    0.9990 C   0  0  0  0  0  0  0  0  0  0  0  0
    1.5480   15.6100   -2.4880 C   0  0  1  0  0  0  0  0  0  0  0  0
    2.4790   16.3880   -3.4680 C   0  0  0  0  0  0  0  0  0  0  0  0
    0.8490   14.4850   -3.3390 C   0  0  0  0  0  0  0  0  0  0  0  0
    0.3910   13.2240   -2.5810 C   0  0  0  0  0  0  0  0  0  0  0  0
    1.5160   12.6770   -1.6970 C   0  0  2  0  0  0  0  0  0  0  0  0
    2.6970   12.2520   -2.6350 C   0  0  0  0  0  0  0  0  0  0  0  0
    3.1453    9.5257   -1.2748 H   0  0  0  0  0  0  0  0  0  0  0  0
    2.2954    8.8294   -2.6959 H   0  0  0  0  0  0  0  0  0  0  0  0
    2.7756   10.5603   -2.6959 H   0  0  0  0  0  0  0  0  0  0  0  0
    0.8303    9.3402   -0.6930 H   0  0  0  0  0  0  0  0  0  0  0  0
   -0.7738   10.9055   -2.2393 H   0  0  0  0  0  0  0  0  0  0  0  0
    0.3904   10.2298   -3.4765 H   0  0  0  0  0  0  0  0  0  0  0  0
   -1.5104    8.7857   -3.4169 H   0  0  0  0  0  0  0  0  0  0  0  0
   -0.1286    7.9530   -2.5892 H   0  0  0  0  0  0  0  0  0  0  0  0
   -0.9923    7.8275   -0.9223 H   0  0  0  0  0  0  0  0  0  0  0  0
   -2.3818   11.8173   -0.3070 H   0  0  0  0  0  0  0  0  0  0  0  0
   -1.5012   11.2446   -1.7641 H   0  0  0  0  0  0  0  0  0  0  0  0
   -3.2966   11.3010   -1.7641 H   0  0  0  0  0  0  0  0  0  0  0  0
   -2.0041    9.8992    1.4516 H   0  0  0  0  0  0  0  0  0  0  0  0
   -3.7318   10.1391    1.0224 H   0  0  0  0  0  0  0  0  0  0  0  0
   -3.0273    8.4867    1.0224 H   0  0  0  0  0  0  0  0  0  0  0  0
    0.1320   11.5695   -0.4181 H   0  0  0  0  0  0  0  0  0  0  0  0
    1.8198   11.3428    1.2957 H   0  0  0  0  0  0  0  0  0  0  0  0
    3.0340   10.7688    0.1326 H   0  0  0  0  0  0  0  0  0  0  0  0
    2.9269   13.3914    1.2646 H   0  0  0  0  0  0  0  0  0  0  0  0
    3.8898   12.9641   -0.1472 H   0  0  0  0  0  0  0  0  0  0  0  0
    1.0452   14.0503    1.3740 H   0  0  0  0  0  0  0  0  0  0  0  0
    0.4283   15.2062    0.1453 H   0  0  0  0  0  0  0  0  0  0  0  0
   -0.1458   13.5042    0.1453 H   0  0  0  0  0  0  0  0  0  0  0  0
    3.3646   14.5973   -1.8581 H   0  0  0  0  0  0  0  0  0  0  0  0
    3.3740   15.6457    0.4961 H   0  0  0  0  0  0  0  0  0  0  0  0
    3.7996   16.6418   -0.9922 H   0  0  0  0  0  0  0  0  0  0  0  0
    2.2719   17.8209    0.8008 H   0  0  0  0  0  0  0  0  0  0  0  0
   -0.3485   15.8865   -1.5863 H   0  0  0  0  0  0  0  0  0  0  0  0
    0.6867   18.2168   -3.3165 H   0  0  0  0  0  0  0  0  0  0  0  0
   -0.5224   16.9468   -3.8032 H   0  0  0  0  0  0  0  0  0  0  0  0
   -1.6013   19.1012   -3.2408 H   0  0  0  0  0  0  0  0  0  0  0  0
   -2.0901   17.7564   -2.1370 H   0  0  0  0  0  0  0  0  0  0  0  0
   -1.7082   19.7295   -0.8251 H   0  0  0  0  0  0  0  0  0  0  0  0
    0.0730   20.2840   -2.6320 H   0  0  0  0  0  0  0  0  0  0  0  0
   -1.2582   17.6069    1.6640 H   0  0  0  0  0  0  0  0  0  0  0  0
   -2.3286   17.9363    0.2595 H   0  0  0  0  0  0  0  0  0  0  0  0
   -1.2674   16.4870    0.2595 H   0  0  0  0  0  0  0  0  0  0  0  0
    0.0869   18.9105    1.9926 H   0  0  0  0  0  0  0  0  0  0  0  0
    1.4100   19.4215    0.8903 H   0  0  0  0  0  0  0  0  0  0  0  0
   -0.1519   20.3087    0.8903 H   0  0  0  0  0  0  0  0  0  0  0  0
    3.1979   16.9888   -2.8916 H   0  0  0  0  0  0  0  0  0  0  0  0
    3.0238   15.6728   -4.1018 H   0  0  0  0  0  0  0  0  0  0  0  0
    1.8719   17.0512   -4.1018 H   0  0  0  0  0  0  0  0  0  0  0  0
   -0.0388   14.9293   -3.8128 H   0  0  0  0  0  0  0  0  0  0  0  0
    1.6197   14.1346   -4.0414 H   0  0  0  0  0  0  0  0  0  0  0  0
   -0.4724   13.4780   -1.9486 H   0  0  0  0  0  0  0  0  0  0  0  0
    0.1162   12.4532   -3.3161 H   0  0  0  0  0  0  0  0  0  0  0  0
    3.5575   11.9423   -2.0238 H   0  0  0  0  0  0  0  0  0  0  0  0
    2.3772   11.4126   -3.2699 H   0  0  0  0  0  0  0  0  0  0  0  0
    2.9854   13.1027   -3.2699 H   0  0  0  0  0  0  0  0  0  0  0  0
  1  2  1  0
  2  3  1  0
  3  4  1  0
  4  5  1  0
  5  6  1  0
  6  7  1  0
  7  8  1  0
  7  9  1  0
  2 10  1  0
 10 11  1  0
 11 12  1  0
 12 13  1  0
 13 14  1  1
 13 15  1  0
 15 16  1  0
 16 17  1  0
 17 18  2  0
 18 19  1  0
 19 20  1  0
 20 21  1  0
 21 22  1  0
 22 23  1  0
 22 24  1  0
 24 25  1  0
 24 26  1  0
 19 27  1  0
 27 28  1  6
 27 29  1  0
 29 30  1  0
 30 31  1  0
 31 32  1  6
  7  5  1  0
 31 10  1  0
 31 13  1  0
 27 15  1  0
 24 18  1  0
  1 33  1  0
  1 34  1  0
  1 35  1  0
  2 36  1  1
  3 37  1  0
  3 38  1  0
  4 39  1  0
  4 40  1  0
  5 41  1  1
  8 42  1  0
  8 43  1  0
  8 44  1  0
  9 45  1  0
  9 46  1  0
  9 47  1  0
 10 48  1  1
 11 49  1  0
 11 50  1  0
 12 51  1  0
 12 52  1  0
 14 53  1  0
 14 54  1  0
 14 55  1  0
 15 56  1  6
 16 57  1  0
 16 58  1  0
 17 59  1  0
 19 60  1  1
 20 61  1  0
 20 62  1  0
 21 63  1  0
 21 64  1  0
 22 65  1  1
 23 66  1  0
 25 67  1  0
 25 68  1  0
 25 69  1  0
 26 70  1  0
 26 71  1  0
 26 72  1  0
 28 73  1  0
 28 74  1  0
 28 75  1  0
 29 76  1  0
 29 77  1  0
 30 78  1  0
 30 79  1  0
 32 80  1  0
 32 81  1  0
 32 82  1  0
M  END
>  <meeko>  (13) 
{"is_sidechain": [false], "intermolecular_energy": 2.731, "internal_energy": -0.839}

$$$$
EPH_relaxed_0001_pdb2pqr_Repair_332_r2_0001_out
     RDKit          3D

 82 86  0  0  0  0  0  0  0  0999 V2000
   -0.1250   17.2870   -2.5990 C   0  0  0  0  0  0  0  0  0  0  0  0
    0.2030   16.9260   -1.1470 C   0  0  2  0  0  0  0  0  0  0  0  0
    0.7070   18.1430   -0.3460 C   0  0  0  0  0  0  0  0  0  0  0  0
    2.2290   18.1840   -0.1810 C   0  0  0  0  0  0  0  0  0  0  0  0
    2.6310   18.8840    1.0820 C   0  0  2  0  0  0  0  0  0  0  0  0
    3.1910   20.1900    0.8900 O   0  0  0  0  0  0  0  0  0  0  0  0
    4.0710   19.1970    1.4430 C   0  0  0  0  0  0  0  0  0  0  0  0
    5.2020   18.8160    0.5400 C   0  0  0  0  0  0  0  0  0  0  0  0
    4.4140   19.4290    2.8820 C   0  0  0  0  0  0  0  0  0  0  0  0
    1.2420   15.8120   -1.1100 C   0  0  1  0  0  0  0  0  0  0  0  0
    1.4280   15.2150    0.3100 C   0  0  0  0  0  0  0  0  0  0  0  0
    1.7160   13.7020    0.1260 C   0  0  0  0  0  0  0  0  0  0  0  0
    2.0150   13.5440   -1.3830 C   0  0  1  0  0  0  0  0  0  0  0  0
    3.5060   13.9760   -1.5450 C   0  0  0  0  0  0  0  0  0  0  0  0
    1.7550   12.1280   -1.9940 C   0  0  2  0  0  0  0  0  0  0  0  0
    2.6190   10.9970   -1.4090 C   0  0  0  0  0  0  0  0  0  0  0  0
    3.9130   10.7540   -2.1120 C   0  0  0  0  0  0  0  0  0  0  0  0
    4.2390   11.2170   -3.3330 C   0  0  0  0  0  0  0  0  0  0  0  0
    3.2210   11.9910   -4.1790 C   0  0  1  0  0  0  0  0  0  0  0  0
    3.2310   11.4440   -5.6300 C   0  0  0  0  0  0  0  0  0  0  0  0
    4.6260   11.4490   -6.2480 C   0  0  0  0  0  0  0  0  0  0  0  0
    5.5960   10.6210   -5.4090 C   0  0  2  0  0  0  0  0  0  0  0  0
    5.2050    9.2460   -5.4750 O   0  0  0  0  0  0  0  0  0  0  0  0
    5.6630   11.0740   -3.9240 C   0  0  0  0  0  0  0  0  0  0  0  0
    6.3680   12.4500   -3.8310 C   0  0  0  0  0  0  0  0  0  0  0  0
    6.5680   10.0700   -3.1590 C   0  0  0  0  0  0  0  0  0  0  0  0
    1.7540   12.0950   -3.5760 C   0  0  1  0  0  0  0  0  0  0  0  0
    0.9180   10.8470   -3.9940 C   0  0  0  0  0  0  0  0  0  0  0  0
    1.0280   13.3450   -4.2000 C   0  0  0  0  0  0  0  0  0  0  0  0
    1.2270   14.6940   -3.4820 C   0  0  0  0  0  0  0  0  0  0  0  0
    0.9710   14.5570   -1.9780 C   0  0  2  0  0  0  0  0  0  0  0  0
   -0.5280   14.1450   -1.7840 C   0  0  0  0  0  0  0  0  0  0  0  0
   -0.8646   18.1010   -2.6163 H   0  0  0  0  0  0  0  0  0  0  0  0
    0.7918   17.6136   -3.1117 H   0  0  0  0  0  0  0  0  0  0  0  0
   -0.5377   16.4056   -3.1117 H   0  0  0  0  0  0  0  0  0  0  0  0
   -0.7282   16.5815   -0.6735 H   0  0  0  0  0  0  0  0  0  0  0  0
    0.3895   19.0578   -0.8678 H   0  0  0  0  0  0  0  0  0  0  0  0
    0.2763   18.0644    0.6631 H   0  0  0  0  0  0  0  0  0  0  0  0
    2.6127   17.1534   -0.1550 H   0  0  0  0  0  0  0  0  0  0  0  0
    2.6512   18.7404   -1.0308 H   0  0  0  0  0  0  0  0  0  0  0  0
    1.8208   18.3924    1.6405 H   0  0  0  0  0  0  0  0  0  0  0  0
    6.0721   18.5229    1.1458 H   0  0  0  0  0  0  0  0  0  0  0  0
    4.8959   17.9714   -0.0948 H   0  0  0  0  0  0  0  0  0  0  0  0
    5.4693   19.6737   -0.0948 H   0  0  0  0  0  0  0  0  0  0  0  0
    3.6725   18.9274    3.5212 H   0  0  0  0  0  0  0  0  0  0  0  0
    5.4140   19.0211    3.0910 H   0  0  0  0  0  0  0  0  0  0  0  0
    4.4076   20.5090    3.0910 H   0  0  0  0  0  0  0  0  0  0  0  0
    2.1124   16.3595   -1.5008 H   0  0  0  0  0  0  0  0  0  0  0  0
    2.2733   15.7023    0.8179 H   0  0  0  0  0  0  0  0  0  0  0  0
    0.5303   15.3738    0.9256 H   0  0  0  0  0  0  0  0  0  0  0  0
    2.5840   13.3956    0.7283 H   0  0  0  0  0  0  0  0  0  0  0  0
    0.8744   13.0738    0.4531 H   0  0  0  0  0  0  0  0  0  0  0  0
    3.9597   14.1074   -0.5516 H   0  0  0  0  0  0  0  0  0  0  0  0
    4.0545   13.1998   -2.0988 H   0  0  0  0  0  0  0  0  0  0  0  0
    3.5546   14.9252   -2.0988 H   0  0  0  0  0  0  0  0  0  0  0  0
    0.7254   11.9162   -1.6698 H   0  0  0  0  0  0  0  0  0  0  0  0
    2.8431   11.2476   -0.3616 H   0  0  0  0  0  0  0  0  0  0  0  0
    2.0316   10.0743   -1.5255 H   0  0  0  0  0  0  0  0  0  0  0  0
    4.6640   10.1448   -1.5877 H   0  0  0  0  0  0  0  0  0  0  0  0
    3.5552   13.0390   -4.1729 H   0  0  0  0  0  0  0  0  0  0  0  0
    2.8536   10.4108   -5.6199 H   0  0  0  0  0  0  0  0  0  0  0  0
    2.5938   12.1020   -6.2391 H   0  0  0  0  0  0  0  0  0  0  0  0
    4.5727   11.0240   -7.2612 H   0  0  0  0  0  0  0  0  0  0  0  0
    4.9903   12.4862   -6.2854 H   0  0  0  0  0  0  0  0  0  0  0  0
    6.6025   10.7686   -5.8275 H   0  0  0  0  0  0  0  0  0  0  0  0
    4.2350    9.2180   -5.5310 H   0  0  0  0  0  0  0  0  0  0  0  0
    6.5065   12.7203   -2.7738 H   0  0  0  0  0  0  0  0  0  0  0  0
    7.3484   12.3939   -4.3266 H   0  0  0  0  0  0  0  0  0  0  0  0
    5.7498   13.2130   -4.3266 H   0  0  0  0  0  0  0  0  0  0  0  0
    6.4396   10.2124   -2.0758 H   0  0  0  0  0  0  0  0  0  0  0  0
    6.2855    9.0419   -3.4297 H   0  0  0  0  0  0  0  0  0  0  0  0
    7.6198   10.2446   -3.4297 H   0  0  0  0  0  0  0  0  0  0  0  0
    0.5667   10.3225   -3.0932 H   0  0  0  0  0  0  0  0  0  0  0  0
    0.0526   11.1689   -4.5919 H   0  0  0  0  0  0  0  0  0  0  0  0
    1.5450   10.1692   -4.5919 H   0  0  0  0  0  0  0  0  0  0  0  0
    1.3916   13.4603   -5.2318 H   0  0  0  0  0  0  0  0  0  0  0  0
   -0.0467   13.1276   -4.1116 H   0  0  0  0  0  0  0  0  0  0  0  0
    2.2597   15.0377   -3.6415 H   0  0  0  0  0  0  0  0  0  0  0  0
    0.5116   15.4203   -3.8951 H   0  0  0  0  0  0  0  0  0  0  0  0
   -0.7550   14.0826   -0.7095 H   0  0  0  0  0  0  0  0  0  0  0  0
   -1.1788   14.8976   -2.2531 H   0  0  0  0  0  0  0  0  0  0  0  0
   -0.7027   13.1655   -2.2531 H   0  0  0  0  0  0  0  0  0  0  0  0
  1  2  1  0
  2  3  1  0
  3  4  1  0
  4  5  1  0
  5  6  1  0
  6  7  1  0
  7  8  1  0
  7  9  1  0
  2 10  1  0
 10 11  1  0
 11 12  1  0
 12 13  1  0
 13 14  1  1
 13 15  1  0
 15 16  1  0
 16 17  1  0
 17 18  2  0
 18 19  1  0
 19 20  1  0
 20 21  1  0
 21 22  1  0
 22 23  1  0
 22 24  1  0
 24 25  1  0
 24 26  1  0
 19 27  1  0
 27 28  1  1
 27 29  1  0
 29 30  1  0
 30 31  1  0
 31 32  1  6
  7  5  1  0
 31 10  1  0
 31 13  1  0
 27 15  1  0
 24 18  1  0
  1 33  1  0
  1 34  1  0
  1 35  1  0
  2 36  1  1
  3 37  1  0
  3 38  1  0
  4 39  1  0
  4 40  1  0
  5 41  1  1
  8 42  1  0
  8 43  1  0
  8 44  1  0
  9 45  1  0
  9 46  1  0
  9 47  1  0
 10 48  1  6
 11 49  1  0
 11 50  1  0
 12 51  1  0
 12 52  1  0
 14 53  1  0
 14 54  1  0
 14 55  1  0
 15 56  1  1
 16 57  1  0
 16 58  1  0
 17 59  1  0
 19 60  1  6
 20 61  1  0
 20 62  1  0
 21 63  1  0
 21 64  1  0
 22 65  1  6
 23 66  1  0
 25 67  1  0
 25 68  1  0
 25 69  1  0
 26 70  1  0
 26 71  1  0
 26 72  1  0
 28 73  1  0
 28 74  1  0
 28 75  1  0
 29 76  1  0
 29 77  1  0
 30 78  1  0
 30 79  1  0
 32 80  1  0
 32 81  1  0
 32 82  1  0
M  END
>  <meeko>  (14) 
{"is_sidechain": [false], "intermolecular_energy": 2.731, "internal_energy": -0.839}

$$$$
EPH_relaxed_0001_pdb2pqr_Repair_332_r2_0001_out
     RDKit          3D

 82 86  0  0  0  0  0  0  0  0999 V2000
   -0.6030   16.9550   -5.6460 C   0  0  0  0  0  0  0  0  0  0  0  0
   -0.1600   16.4870   -4.2570 C   0  0  2  0  0  0  0  0  0  0  0  0
    1.1440   17.1730   -3.8030 C   0  0  0  0  0  0  0  0  0  0  0  0
    1.0410   17.8430   -2.4300 C   0  0  0  0  0  0  0  0  0  0  0  0
   -0.0200   18.9020   -2.4080 C   0  0  2  0  0  0  0  0  0  0  0  0
    0.4310   20.1940   -1.9810 O   0  0  0  0  0  0  0  0  0  0  0  0
   -0.5330   19.5470   -1.1340 C   0  0  0  0  0  0  0  0  0  0  0  0
    0.0020   19.1560    0.2080 C   0  0  0  0  0  0  0  0  0  0  0  0
   -1.8820   20.1940   -1.1530 C   0  0  0  0  0  0  0  0  0  0  0  0
    0.0190   14.9740   -4.2510 C   0  0  1  0  0  0  0  0  0  0  0  0
    0.9150   14.4730   -5.4150 C   0  0  0  0  0  0  0  0  0  0  0  0
    1.7180   13.2630   -4.8730 C   0  0  0  0  0  0  0  0  0  0  0  0
    1.0250   12.9010   -3.5380 C   0  0  1  0  0  0  0  0  0  0  0  0
   -0.2190   12.0520   -3.9500 C   0  0  0  0  0  0  0  0  0  0  0  0
    1.9060   12.1600   -2.4810 C   0  0  2  0  0  0  0  0  0  0  0  0
    2.4270   10.7800   -2.9180 C   0  0  0  0  0  0  0  0  0  0  0  0
    1.5430    9.6260   -2.5760 C   0  0  0  0  0  0  0  0  0  0  0  0
    0.5210    9.6570   -1.7000 C   0  0  0  0  0  0  0  0  0  0  0  0
    0.2300   10.9160   -0.8730 C   0  0  1  0  0  0  0  0  0  0  0  0
   -0.0010   10.5200    0.6090 C   0  0  0  0  0  0  0  0  0  0  0  0
   -1.0800    9.4540    0.7690 C   0  0  0  0  0  0  0  0  0  0  0  0
   -0.7270    8.1960   -0.0210 C   0  0  2  0  0  0  0  0  0  0  0  0
    0.4300    7.5930    0.5670 O   0  0  0  0  0  0  0  0  0  0  0  0
   -0.4620    8.4730   -1.5270 C   0  0  0  0  0  0  0  0  0  0  0  0
   -1.7930    8.8400   -2.2300 C   0  0  0  0  0  0  0  0  0  0  0  0
    0.0210    7.1490   -2.1780 C   0  0  0  0  0  0  0  0  0  0  0  0
    1.2710   12.1060   -1.0320 C   0  0  1  0  0  0  0  0  0  0  0  0
    2.4540   11.9150   -0.0340 C   0  0  0  0  0  0  0  0  0  0  0  0
    0.5700   13.4590   -0.6350 C   0  0  0  0  0  0  0  0  0  0  0  0
   -0.1840   14.2040   -1.7530 C   0  0  0  0  0  0  0  0  0  0  0  0
    0.6870   14.3410   -3.0050 C   0  0  2  0  0  0  0  0  0  0  0  0
    1.9350   15.2100   -2.6270 C   0  0  0  0  0  0  0  0  0  0  0  0
   -1.3558   17.7503   -5.5421 H   0  0  0  0  0  0  0  0  0  0  0  0
    0.2665   17.3429   -6.1968 H   0  0  0  0  0  0  0  0  0  0  0  0
   -1.0380   16.1080   -6.1968 H   0  0  0  0  0  0  0  0  0  0  0  0
   -0.9487   16.7708   -3.5446 H   0  0  0  0  0  0  0  0  0  0  0  0
    1.9391   16.4140   -3.7603 H   0  0  0  0  0  0  0  0  0  0  0  0
    1.3606   17.9670   -4.5328 H   0  0  0  0  0  0  0  0  0  0  0  0
    0.7972   17.0785   -1.6776 H   0  0  0  0  0  0  0  0  0  0  0  0
    2.0068   18.3205   -2.2081 H   0  0  0  0  0  0  0  0  0  0  0  0
   -0.5377   18.4329   -3.2576 H   0  0  0  0  0  0  0  0  0  0  0  0
   -0.6177   19.6089    0.9959 H   0  0  0  0  0  0  0  0  0  0  0  0
   -0.0215   18.0607    0.3072 H   0  0  0  0  0  0  0  0  0  0  0  0
    1.0384   19.5110    0.3072 H   0  0  0  0  0  0  0  0  0  0  0  0
   -2.2245   20.3582   -0.1206 H   0  0  0  0  0  0  0  0  0  0  0  0
   -1.8182   21.1595   -1.6762 H   0  0  0  0  0  0  0  0  0  0  0  0
   -2.5950   19.5399   -1.6762 H   0  0  0  0  0  0  0  0  0  0  0  0
   -1.0349   14.6646   -4.3107 H   0  0  0  0  0  0  0  0  0  0  0  0
    0.2914   14.1629   -6.2665 H   0  0  0  0  0  0  0  0  0  0  0  0
    1.5887   15.2689   -5.7653 H   0  0  0  0  0  0  0  0  0  0  0  0
    1.6704   12.4188   -5.5766 H   0  0  0  0  0  0  0  0  0  0  0  0
    2.7846   13.4964   -4.7394 H   0  0  0  0  0  0  0  0  0  0  0  0
   -0.7371   11.6984   -3.0464 H   0  0  0  0  0  0  0  0  0  0  0  0
   -0.9044   12.6716   -4.5469 H   0  0  0  0  0  0  0  0  0  0  0  0
    0.1082   11.1879   -4.5469 H   0  0  0  0  0  0  0  0  0  0  0  0
    2.7931   12.8073   -2.4172 H   0  0  0  0  0  0  0  0  0  0  0  0
    2.5572   10.7962   -4.0101 H   0  0  0  0  0  0  0  0  0  0  0  0
    3.3640   10.6196   -2.3645 H   0  0  0  0  0  0  0  0  0  0  0  0
    1.7437    8.6703   -3.0823 H   0  0  0  0  0  0  0  0  0  0  0  0
   -0.6907   11.3487   -1.2914 H   0  0  0  0  0  0  0  0  0  0  0  0
    0.9420   10.1316    1.0212 H   0  0  0  0  0  0  0  0  0  0  0  0
   -0.3381   11.4190    1.1458 H   0  0  0  0  0  0  0  0  0  0  0  0
   -1.1751    9.1953    1.8339 H   0  0  0  0  0  0  0  0  0  0  0  0
   -2.0291    9.8551    0.3839 H   0  0  0  0  0  0  0  0  0  0  0  0
   -1.5949    7.5219    0.0264 H   0  0  0  0  0  0  0  0  0  0  0  0
    1.1550    7.6560   -0.0770 H   0  0  0  0  0  0  0  0  0  0  0  0
   -2.5616    9.0519   -1.4722 H   0  0  0  0  0  0  0  0  0  0  0  0
   -1.6424    9.7301   -2.8585 H   0  0  0  0  0  0  0  0  0  0  0  0
   -2.1199    7.9985   -2.8585 H   0  0  0  0  0  0  0  0  0  0  0  0
    0.2841    6.4277   -1.3903 H   0  0  0  0  0  0  0  0  0  0  0  0
   -0.7832    6.7328   -2.8025 H   0  0  0  0  0  0  0  0  0  0  0  0
    0.9043    7.3484   -2.8025 H   0  0  0  0  0  0  0  0  0  0  0  0
    2.0769   11.9759    0.9976 H   0  0  0  0  0  0  0  0  0  0  0  0
    2.9166   10.9305   -0.1978 H   0  0  0  0  0  0  0  0  0  0  0  0
    3.2029   12.7039   -0.1978 H   0  0  0  0  0  0  0  0  0  0  0  0
   -0.1531   13.2374    0.1638 H   0  0  0  0  0  0  0  0  0  0  0  0
    1.3887   14.1324   -0.3414 H   0  0  0  0  0  0  0  0  0  0  0  0
   -1.0951   13.6429   -2.0082 H   0  0  0  0  0  0  0  0  0  0  0  0
   -0.4401   15.2111   -1.3922 H   0  0  0  0  0  0  0  0  0  0  0  0
    2.0217   15.2704   -1.5321 H   0  0  0  0  0  0  0  0  0  0  0  0
    2.8429   14.7478   -3.0418 H   0  0  0  0  0  0  0  0  0  0  0  0
    1.8164   16.2219   -3.0418 H   0  0  0  0  0  0  0  0  0  0  0  0
  1  2  1  0
  2  3  1  0
  3  4  1  0
  4  5  1  0
  5  6  1  0
  6  7  1  0
  7  8  1  0
  7  9  1  0
  2 10  1  0
 10 11  1  0
 11 12  1  0
 12 13  1  0
 13 14  1  6
 13 15  1  0
 15 16  1  0
 16 17  1  0
 17 18  2  0
 18 19  1  0
 19 20  1  0
 20 21  1  0
 21 22  1  0
 22 23  1  0
 22 24  1  0
 24 25  1  0
 24 26  1  0
 19 27  1  0
 27 28  1  1
 27 29  1  0
 29 30  1  0
 30 31  1  0
 31 32  1  1
  7  5  1  0
 31 10  1  0
 31 13  1  0
 27 15  1  0
 24 18  1  0
  1 33  1  0
  1 34  1  0
  1 35  1  0
  2 36  1  1
  3 37  1  0
  3 38  1  0
  4 39  1  0
  4 40  1  0
  5 41  1  6
  8 42  1  0
  8 43  1  0
  8 44  1  0
  9 45  1  0
  9 46  1  0
  9 47  1  0
 10 48  1  6
 11 49  1  0
 11 50  1  0
 12 51  1  0
 12 52  1  0
 14 53  1  0
 14 54  1  0
 14 55  1  0
 15 56  1  1
 16 57  1  0
 16 58  1  0
 17 59  1  0
 19 60  1  6
 20 61  1  0
 20 62  1  0
 21 63  1  0
 21 64  1  0
 22 65  1  6
 23 66  1  0
 25 67  1  0
 25 68  1  0
 25 69  1  0
 26 70  1  0
 26 71  1  0
 26 72  1  0
 28 73  1  0
 28 74  1  0
 28 75  1  0
 29 76  1  0
 29 77  1  0
 30 78  1  0
 30 79  1  0
 32 80  1  0
 32 81  1  0
 32 82  1  0
M  END
>  <meeko>  (15) 
{"is_sidechain": [false], "intermolecular_energy": 2.731, "internal_energy": -0.839}

$$$$
EPH_relaxed_0001_pdb2pqr_Repair_332_r2_0001_out
     RDKit          3D

 82 86  0  0  0  0  0  0  0  0999 V2000
    1.8440   19.6970   -1.1750 C   0  0  0  0  0  0  0  0  0  0  0  0
    1.6720   18.6630   -2.2910 C   0  0  2  0  0  0  0  0  0  0  0  0
    0.2060   18.5490   -2.7550 C   0  0  0  0  0  0  0  0  0  0  0  0
   -0.6900   19.6830   -2.2500 C   0  0  0  0  0  0  0  0  0  0  0  0
   -1.7920   19.1700   -1.3730 C   0  0  2  0  0  0  0  0  0  0  0  0
   -2.6270   20.1860   -0.8040 O   0  0  0  0  0  0  0  0  0  0  0  0
   -1.8510   19.4110    0.1240 C   0  0  0  0  0  0  0  0  0  0  0  0
   -0.7880   20.1920    0.8310 C   0  0  0  0  0  0  0  0  0  0  0  0
   -2.6700   18.4830    0.9670 C   0  0  0  0  0  0  0  0  0  0  0  0
    2.1770   17.3030   -1.8230 C   0  0  1  0  0  0  0  0  0  0  0  0
    3.0500   17.3990   -0.5420 C   0  0  0  0  0  0  0  0  0  0  0  0
    2.7610   16.1240    0.2910 C   0  0  0  0  0  0  0  0  0  0  0  0
    1.9980   15.1890   -0.6760 C   0  0  1  0  0  0  0  0  0  0  0  0
    3.1080   14.5210   -1.5470 C   0  0  0  0  0  0  0  0  0  0  0  0
    1.0640   14.1240   -0.0150 C   0  0  2  0  0  0  0  0  0  0  0  0
    1.7780   13.0940    0.8770 C   0  0  0  0  0  0  0  0  0  0  0  0
    2.2320   11.8540    0.1820 C   0  0  0  0  0  0  0  0  0  0  0  0
    1.8280   11.4470   -1.0360 C   0  0  0  0  0  0  0  0  0  0  0  0
    0.7450   12.2170   -1.8040 C   0  0  1  0  0  0  0  0  0  0  0  0
   -0.2940   11.2160   -2.3750 C   0  0  0  0  0  0  0  0  0  0  0  0
    0.3510   10.1200   -3.2180 C   0  0  0  0  0  0  0  0  0  0  0  0
    1.3800    9.3400   -2.4030 C   0  0  2  0  0  0  0  0  0  0  0  0
    0.6990    8.6150   -1.3740 O   0  0  0  0  0  0  0  0  0  0  0  0
    2.4730   10.2450   -1.7690 C   0  0  0  0  0  0  0  0  0  0  0  0
    3.4020   10.7950   -2.8800 C   0  0  0  0  0  0  0  0  0  0  0  0
    3.3620    9.3540   -0.8600 C   0  0  0  0  0  0  0  0  0  0  0  0
    0.0660   13.4230   -1.0230 C   0  0  1  0  0  0  0  0  0  0  0  0
   -1.1310   12.8980   -0.1720 C   0  0  0  0  0  0  0  0  0  0  0  0
   -0.5410   14.4340   -2.0660 C   0  0  0  0  0  0  0  0  0  0  0  0
    0.3990   15.5360   -2.5920 C   0  0  0  0  0  0  0  0  0  0  0  0
    1.1150   16.2440   -1.4370 C   0  0  2  0  0  0  0  0  0  0  0  0
    0.0250   16.9440   -0.5560 C   0  0  0  0  0  0  0  0  0  0  0  0
    1.7611   19.1989   -0.1977 H   0  0  0  0  0  0  0  0  0  0  0  0
    2.8332   20.1701   -1.2627 H   0  0  0  0  0  0  0  0  0  0  0  0
    1.0612   20.4648   -1.2627 H   0  0  0  0  0  0  0  0  0  0  0  0
    2.2660   19.0036   -3.1519 H   0  0  0  0  0  0  0  0  0  0  0  0
    0.1884   18.5562   -3.8548 H   0  0  0  0  0  0  0  0  0  0  0  0
   -0.1921   17.6137   -2.3347 H   0  0  0  0  0  0  0  0  0  0  0  0
   -0.0771   20.3922   -1.6743 H   0  0  0  0  0  0  0  0  0  0  0  0
   -1.1462   20.1740   -3.1222 H   0  0  0  0  0  0  0  0  0  0  0  0
   -1.8779   18.2547   -1.9770 H   0  0  0  0  0  0  0  0  0  0  0  0
   -0.9224   20.0933    1.9183 H   0  0  0  0  0  0  0  0  0  0  0  0
    0.2016   19.8046    0.5472 H   0  0  0  0  0  0  0  0  0  0  0  0
   -0.8619   21.2522    0.5472 H   0  0  0  0  0  0  0  0  0  0  0  0
   -2.4842   18.6935    2.0306 H   0  0  0  0  0  0  0  0  0  0  0  0
   -3.7371   18.6312    0.7448 H   0  0  0  0  0  0  0  0  0  0  0  0
   -2.3903   17.4426    0.7448 H   0  0  0  0  0  0  0  0  0  0  0  0
    2.7141   16.9841   -2.7284 H   0  0  0  0  0  0  0  0  0  0  0  0
    4.1155   17.4421   -0.8118 H   0  0  0  0  0  0  0  0  0  0  0  0
    2.8133   18.3078    0.0308 H   0  0  0  0  0  0  0  0  0  0  0  0
    3.6996   15.6564    0.6231 H   0  0  0  0  0  0  0  0  0  0  0  0
    2.1833   16.3431    1.2011 H   0  0  0  0  0  0  0  0  0  0  0  0
    3.8645   14.0657   -0.8909 H   0  0  0  0  0  0  0  0  0  0  0  0
    2.6577   13.7437   -2.1819 H   0  0  0  0  0  0  0  0  0  0  0  0
    3.5839   15.2828   -2.1819 H   0  0  0  0  0  0  0  0  0  0  0  0
    0.4532   14.7354    0.6655 H   0  0  0  0  0  0  0  0  0  0  0  0
    2.6615   13.5799    1.3168 H   0  0  0  0  0  0  0  0  0  0  0  0
    1.0360   12.7707    1.6219 H   0  0  0  0  0  0  0  0  0  0  0  0
    2.9584   11.2185    0.7097 H   0  0  0  0  0  0  0  0  0  0  0  0
    1.2621   12.7297   -2.6285 H   0  0  0  0  0  0  0  0  0  0  0  0
   -0.8293   10.7467   -1.5364 H   0  0  0  0  0  0  0  0  0  0  0  0
   -0.9774   11.7799   -3.0269 H   0  0  0  0  0  0  0  0  0  0  0  0
   -0.4297    9.4288   -3.5685 H   0  0  0  0  0  0  0  0  0  0  0  0
    0.8614   10.5884   -4.0724 H   0  0  0  0  0  0  0  0  0  0  0  0
    1.8991    8.6581   -3.0926 H   0  0  0  0  0  0  0  0  0  0  0  0
    1.1730    7.7770   -1.2420 H   0  0  0  0  0  0  0  0  0  0  0  0
    4.2619   11.3041   -2.4202 H   0  0  0  0  0  0  0  0  0  0  0  0
    3.7594    9.9629   -3.5043 H   0  0  0  0  0  0  0  0  0  0  0  0
    2.8443   11.5086   -3.5043 H   0  0  0  0  0  0  0  0  0  0  0  0
    3.1431    9.5734    0.1954 H   0  0  0  0  0  0  0  0  0  0  0  0
    3.1506    8.2943   -1.0657 H   0  0  0  0  0  0  0  0  0  0  0  0
    4.4222    9.5630   -1.0657 H   0  0  0  0  0  0  0  0  0  0  0  0
   -0.8942   13.0019    0.8972 H   0  0  0  0  0  0  0  0  0  0  0  0
   -2.0323   13.4834   -0.4065 H   0  0  0  0  0  0  0  0  0  0  0  0
   -1.3108   11.8384   -0.4065 H   0  0  0  0  0  0  0  0  0  0  0  0
   -0.8879   13.8510   -2.9319 H   0  0  0  0  0  0  0  0  0  0  0  0
   -1.3347   14.9674   -1.5223 H   0  0  0  0  0  0  0  0  0  0  0  0
    1.1492   15.0821   -3.2562 H   0  0  0  0  0  0  0  0  0  0  0  0
   -0.2017   16.2774   -3.1392 H   0  0  0  0  0  0  0  0  0  0  0  0
    0.2606   16.7927    0.5078 H   0  0  0  0  0  0  0  0  0  0  0  0
    0.0098   18.0211   -0.7786 H   0  0  0  0  0  0  0  0  0  0  0  0
   -0.9608   16.5097   -0.7786 H   0  0  0  0  0  0  0  0  0  0  0  0
  1  2  1  0
  2  3  1  0
  3  4  1  0
  4  5  1  0
  5  6  1  0
  6  7  1  0
  7  8  1  0
  7  9  1  0
  2 10  1  0
 10 11  1  0
 11 12  1  0
 12 13  1  0
 13 14  1  6
 13 15  1  0
 15 16  1  0
 16 17  1  0
 17 18  2  0
 18 19  1  0
 19 20  1  0
 20 21  1  0
 21 22  1  0
 22 23  1  0
 22 24  1  0
 24 25  1  0
 24 26  1  0
 19 27  1  0
 27 28  1  1
 27 29  1  0
 29 30  1  0
 30 31  1  0
 31 32  1  1
  7  5  1  0
 31 10  1  0
 31 13  1  0
 27 15  1  0
 24 18  1  0
  1 33  1  0
  1 34  1  0
  1 35  1  0
  2 36  1  6
  3 37  1  0
  3 38  1  0
  4 39  1  0
  4 40  1  0
  5 41  1  1
  8 42  1  0
  8 43  1  0
  8 44  1  0
  9 45  1  0
  9 46  1  0
  9 47  1  0
 10 48  1  6
 11 49  1  0
 11 50  1  0
 12 51  1  0
 12 52  1  0
 14 53  1  0
 14 54  1  0
 14 55  1  0
 15 56  1  1
 16 57  1  0
 16 58  1  0
 17 59  1  0
 19 60  1  6
 20 61  1  0
 20 62  1  0
 21 63  1  0
 21 64  1  0
 22 65  1  6
 23 66  1  0
 25 67  1  0
 25 68  1  0
 25 69  1  0
 26 70  1  0
 26 71  1  0
 26 72  1  0
 28 73  1  0
 28 74  1  0
 28 75  1  0
 29 76  1  0
 29 77  1  0
 30 78  1  0
 30 79  1  0
 32 80  1  0
 32 81  1  0
 32 82  1  0
M  END
>  <meeko>  (16) 
{"is_sidechain": [false], "intermolecular_energy": 2.731, "internal_energy": -0.839}

$$$$
