EPH_relaxed_0001_pdb2pqr_Repair_147_r2_0001_out
     RDKit          3D

 82 86  0  0  0  0  0  0  0  0999 V2000
    4.4770   17.7320   -0.7660 C   0  0  0  0  0  0  0  0  0  0  0  0
    3.1020   18.2930   -0.3930 C   0  0  2  0  0  0  0  0  0  0  0  0
    3.0830   18.8850    1.0300 C   0  0  0  0  0  0  0  0  0  0  0  0
    4.3960   18.6930    1.7940 C   0  0  0  0  0  0  0  0  0  0  0  0
    4.3340   19.2980    3.1640 C   0  0  2  0  0  0  0  0  0  0  0  0
    5.4090   20.1940    3.4720 O   0  0  0  0  0  0  0  0  0  0  0  0
    5.3390   18.9940    4.2590 C   0  0  0  0  0  0  0  0  0  0  0  0
    6.4780   18.0510    4.0320 C   0  0  0  0  0  0  0  0  0  0  0  0
    4.9400   19.2290    5.6820 C   0  0  0  0  0  0  0  0  0  0  0  0
    2.0440   17.2030   -0.5190 C   0  0  1  0  0  0  0  0  0  0  0  0
    0.7080   17.7310   -1.1070 C   0  0  0  0  0  0  0  0  0  0  0  0
    0.1180   16.5880   -1.9730 C   0  0  0  0  0  0  0  0  0  0  0  0
    0.9510   15.3410   -1.5930 C   0  0  1  0  0  0  0  0  0  0  0  0
    0.3190   14.8280   -0.2610 C   0  0  0  0  0  0  0  0  0  0  0  0
    1.0300   14.2090   -2.6690 C   0  0  2  0  0  0  0  0  0  0  0  0
   -0.3170   13.5580   -3.0300 C   0  0  0  0  0  0  0  0  0  0  0  0
   -0.6890   12.3670   -2.2110 C   0  0  0  0  0  0  0  0  0  0  0  0
    0.1470   11.6690   -1.4200 C   0  0  0  0  0  0  0  0  0  0  0  0
    1.6440   12.0020   -1.3670 C   0  0  1  0  0  0  0  0  0  0  0  0
    2.4690   10.6930   -1.4710 C   0  0  0  0  0  0  0  0  0  0  0  0
    2.0650    9.6610   -0.4220 C   0  0  0  0  0  0  0  0  0  0  0  0
    0.5830    9.3130   -0.5440 C   0  0  2  0  0  0  0  0  0  0  0  0
    0.3700    8.6310   -1.7840 O   0  0  0  0  0  0  0  0  0  0  0  0
   -0.3470   10.5550   -0.4640 C   0  0  0  0  0  0  0  0  0  0  0  0
   -0.3430   11.1160    0.9800 C   0  0  0  0  0  0  0  0  0  0  0  0
   -1.8000   10.0830   -0.7410 C   0  0  0  0  0  0  0  0  0  0  0  0
    2.1410   13.1190   -2.3830 C   0  0  1  0  0  0  0  0  0  0  0  0
    2.4930   12.4710   -3.7560 C   0  0  0  0  0  0  0  0  0  0  0  0
    3.4740   13.7540   -1.8360 C   0  0  0  0  0  0  0  0  0  0  0  0
    3.3320   14.9460   -0.8700 C   0  0  0  0  0  0  0  0  0  0  0  0
    2.3710   15.9970   -1.4340 C   0  0  2  0  0  0  0  0  0  0  0  0
    2.9910   16.5470   -2.7630 C   0  0  0  0  0  0  0  0  0  0  0  0
    5.0402   17.5022    0.1505 H   0  0  0  0  0  0  0  0  0  0  0  0
    4.3500   16.8138   -1.3582 H   0  0  0  0  0  0  0  0  0  0  0  0
    5.0286   18.4770   -1.3582 H   0  0  0  0  0  0  0  0  0  0  0  0
    2.8773   19.1111   -1.0932 H   0  0  0  0  0  0  0  0  0  0  0  0
    2.8794   19.9634    0.9548 H   0  0  0  0  0  0  0  0  0  0  0  0
    2.3033   18.3488    1.5909 H   0  0  0  0  0  0  0  0  0  0  0  0
    4.5991   17.6161    1.8888 H   0  0  0  0  0  0  0  0  0  0  0  0
    5.1963   19.1972    1.2325 H   0  0  0  0  0  0  0  0  0  0  0  0
    3.2343   19.2819    3.1468 H   0  0  0  0  0  0  0  0  0  0  0  0
    6.8784   17.7195    5.0014 H   0  0  0  0  0  0  0  0  0  0  0  0
    6.1238   17.1782    3.4638 H   0  0  0  0  0  0  0  0  0  0  0  0
    7.2693   18.5619    3.4638 H   0  0  0  0  0  0  0  0  0  0  0  0
    5.6920   18.7861    6.3516 H   0  0  0  0  0  0  0  0  0  0  0  0
    4.8732   20.3107    5.8702 H   0  0  0  0  0  0  0  0  0  0  0  0
    3.9616   18.7629    5.8702 H   0  0  0  0  0  0  0  0  0  0  0  0
    1.9913   16.8759    0.5299 H   0  0  0  0  0  0  0  0  0  0  0  0
    0.0123   17.9888   -0.2949 H   0  0  0  0  0  0  0  0  0  0  0  0
    0.8718   18.6377   -1.7079 H   0  0  0  0  0  0  0  0  0  0  0  0
   -0.9450   16.4314   -1.7375 H   0  0  0  0  0  0  0  0  0  0  0  0
    0.1682   16.8113   -3.0489 H   0  0  0  0  0  0  0  0  0  0  0  0
    0.8576   15.2652    0.5927 H   0  0  0  0  0  0  0  0  0  0  0  0
   -0.7390   15.1260   -0.2185 H   0  0  0  0  0  0  0  0  0  0  0  0
    0.3930   13.7313   -0.2185 H   0  0  0  0  0  0  0  0  0  0  0  0
    1.3469   14.7586   -3.5676 H   0  0  0  0  0  0  0  0  0  0  0  0
   -1.1048   14.3155   -2.9057 H   0  0  0  0  0  0  0  0  0  0  0  0
   -0.2130   13.1962   -4.0636 H   0  0  0  0  0  0  0  0  0  0  0  0
   -1.7354   12.0311   -2.2578 H   0  0  0  0  0  0  0  0  0  0  0  0
    1.8168   12.4752   -0.3891 H   0  0  0  0  0  0  0  0  0  0  0  0
    2.3163   10.2586   -2.4700 H   0  0  0  0  0  0  0  0  0  0  0  0
    3.5246   10.9493   -1.2976 H   0  0  0  0  0  0  0  0  0  0  0  0
    2.6624    8.7486   -0.5654 H   0  0  0  0  0  0  0  0  0  0  0  0
    2.2459   10.0850    0.5768 H   0  0  0  0  0  0  0  0  0  0  0  0
    0.3235    8.6721    0.3115 H   0  0  0  0  0  0  0  0  0  0  0  0
   -0.3060    7.9500   -1.6330 H   0  0  0  0  0  0  0  0  0  0  0  0
   -0.3489   10.2821    1.6973 H   0  0  0  0  0  0  0  0  0  0  0  0
    0.5595   11.7257    1.1340 H   0  0  0  0  0  0  0  0  0  0  0  0
   -1.2367   11.7385    1.1340 H   0  0  0  0  0  0  0  0  0  0  0  0
   -2.3191    9.9144    0.2140 H   0  0  0  0  0  0  0  0  0  0  0  0
   -2.3326   10.8543   -1.3166 H   0  0  0  0  0  0  0  0  0  0  0  0
   -1.7777    9.1459   -1.3166 H   0  0  0  0  0  0  0  0  0  0  0  0
    3.0119   11.5157   -3.5883 H   0  0  0  0  0  0  0  0  0  0  0  0
    1.5685   12.2913   -4.3244 H   0  0  0  0  0  0  0  0  0  0  0  0
    3.1470   13.1487   -4.3244 H   0  0  0  0  0  0  0  0  0  0  0  0
    4.0273   12.9629   -1.3088 H   0  0  0  0  0  0  0  0  0  0  0  0
    3.9828   14.1614   -2.7221 H   0  0  0  0  0  0  0  0  0  0  0  0
    2.9442   14.5841    0.0937 H   0  0  0  0  0  0  0  0  0  0  0  0
    4.3206   15.4098   -0.7374 H   0  0  0  0  0  0  0  0  0  0  0  0
    3.7944   17.2597   -2.5253 H   0  0  0  0  0  0  0  0  0  0  0  0
    3.4030   15.7119   -3.3485 H   0  0  0  0  0  0  0  0  0  0  0  0
    2.2110   17.0556   -3.3485 H   0  0  0  0  0  0  0  0  0  0  0  0
  1  2  1  0
  2  3  1  0
  3  4  1  0
  4  5  1  0
  5  6  1  0
  6  7  1  0
  7  8  1  0
  7  9  1  0
  2 10  1  0
 10 11  1  0
 11 12  1  0
 12 13  1  0
 13 14  1  1
 13 15  1  0
 15 16  1  0
 16 17  1  0
 17 18  2  0
 18 19  1  0
 19 20  1  0
 20 21  1  0
 21 22  1  0
 22 23  1  0
 22 24  1  0
 24 25  1  0
 24 26  1  0
 19 27  1  0
 27 28  1  6
 27 29  1  0
 29 30  1  0
 30 31  1  0
 31 32  1  6
  7  5  1  0
 31 10  1  0
 31 13  1  0
 27 15  1  0
 24 18  1  0
  1 33  1  0
  1 34  1  0
  1 35  1  0
  2 36  1  6
  3 37  1  0
  3 38  1  0
  4 39  1  0
  4 40  1  0
  5 41  1  1
  8 42  1  0
  8 43  1  0
  8 44  1  0
  9 45  1  0
  9 46  1  0
  9 47  1  0
 10 48  1  1
 11 49  1  0
 11 50  1  0
 12 51  1  0
 12 52  1  0
 14 53  1  0
 14 54  1  0
 14 55  1  0
 15 56  1  6
 16 57  1  0
 16 58  1  0
 17 59  1  0
 19 60  1  1
 20 61  1  0
 20 62  1  0
 21 63  1  0
 21 64  1  0
 22 65  1  1
 23 66  1  0
 25 67  1  0
 25 68  1  0
 25 69  1  0
 26 70  1  0
 26 71  1  0
 26 72  1  0
 28 73  1  0
 28 74  1  0
 28 75  1  0
 29 76  1  0
 29 77  1  0
 30 78  1  0
 30 79  1  0
 32 80  1  0
 32 81  1  0
 32 82  1  0
M  END
>  <meeko>  (1) 
{"is_sidechain": [false], "intermolecular_energy": 2.731, "internal_energy": -0.839}

$$$$
EPH_relaxed_0001_pdb2pqr_Repair_147_r2_0001_out
     RDKit          3D

 82 86  0  0  0  0  0  0  0  0999 V2000
    3.8570   17.9490    0.6790 C   0  0  0  0  0  0  0  0  0  0  0  0
    2.9870   18.3360   -0.5200 C   0  0  2  0  0  0  0  0  0  0  0  0
    2.2570   19.6760   -0.2990 C   0  0  0  0  0  0  0  0  0  0  0  0
    1.2360   19.6400    0.8400 C   0  0  0  0  0  0  0  0  0  0  0  0
   -0.0930   20.1860    0.4110 C   0  0  2  0  0  0  0  0  0  0  0  0
   -1.0960   20.1940    1.4360 O   0  0  0  0  0  0  0  0  0  0  0  0
   -1.3500   19.3430    0.3070 C   0  0  0  0  0  0  0  0  0  0  0  0
   -1.3380   17.8820    0.6310 C   0  0  0  0  0  0  0  0  0  0  0  0
   -2.4620   19.8230   -0.5720 C   0  0  0  0  0  0  0  0  0  0  0  0
    1.9750   17.2330   -0.8050 C   0  0  1  0  0  0  0  0  0  0  0  0
    0.8360   17.6970   -1.7510 C   0  0  0  0  0  0  0  0  0  0  0  0
    0.4590   16.4770   -2.6310 C   0  0  0  0  0  0  0  0  0  0  0  0
    1.1510   15.2750   -1.9460 C   0  0  1  0  0  0  0  0  0  0  0  0
    0.2010   14.8800   -0.7720 C   0  0  0  0  0  0  0  0  0  0  0  0
    1.4740   14.0500   -2.8630 C   0  0  2  0  0  0  0  0  0  0  0  0
    0.2490   13.3610   -3.4870 C   0  0  0  0  0  0  0  0  0  0  0  0
   -0.3350   12.2470   -2.6830 C   0  0  0  0  0  0  0  0  0  0  0  0
    0.2680   11.6290   -1.6500 C   0  0  0  0  0  0  0  0  0  0  0  0
    1.7100   11.9740   -1.2590 C   0  0  1  0  0  0  0  0  0  0  0  0
    2.5140   10.6660   -1.0370 C   0  0  0  0  0  0  0  0  0  0  0  0
    1.8450    9.7310   -0.0330 C   0  0  0  0  0  0  0  0  0  0  0  0
    0.4340    9.3650   -0.4870 C   0  0  2  0  0  0  0  0  0  0  0  0
    0.5230    8.5720   -1.6750 O   0  0  0  0  0  0  0  0  0  0  0  0
   -0.4660   10.6040   -0.7510 C   0  0  0  0  0  0  0  0  0  0  0  0
   -0.8100   11.2930    0.5930 C   0  0  0  0  0  0  0  0  0  0  0  0
   -1.8130   10.0990   -1.3360 C   0  0  0  0  0  0  0  0  0  0  0  0
    2.4620   12.9980   -2.2140 C   0  0  1  0  0  0  0  0  0  0  0  0
    3.1320   12.2300   -3.3950 C   0  0  0  0  0  0  0  0  0  0  0  0
    3.6290   13.6870   -1.4130 C   0  0  0  0  0  0  0  0  0  0  0  0
    3.2720   14.9610   -0.6240 C   0  0  0  0  0  0  0  0  0  0  0  0
    2.4980   15.9500   -1.5000 C   0  0  2  0  0  0  0  0  0  0  0  0
    3.4370   16.3820   -2.6780 C   0  0  0  0  0  0  0  0  0  0  0  0
    3.3233   18.1864    1.6111 H   0  0  0  0  0  0  0  0  0  0  0  0
    4.0713   16.8707    0.6437 H   0  0  0  0  0  0  0  0  0  0  0  0
    4.8014   18.5119    0.6437 H   0  0  0  0  0  0  0  0  0  0  0  0
    3.6537   18.4619   -1.3858 H   0  0  0  0  0  0  0  0  0  0  0  0
    3.0075   20.4464   -0.0683 H   0  0  0  0  0  0  0  0  0  0  0  0
    1.7007   19.8950   -1.2224 H   0  0  0  0  0  0  0  0  0  0  0  0
    1.1044   18.5983    1.1679 H   0  0  0  0  0  0  0  0  0  0  0  0
    1.6154   20.2667    1.6606 H   0  0  0  0  0  0  0  0  0  0  0  0
    0.3921   20.8772   -0.2939 H   0  0  0  0  0  0  0  0  0  0  0  0
   -1.3369   17.7486    1.7229 H   0  0  0  0  0  0  0  0  0  0  0  0
   -2.2323   17.4044    0.2041 H   0  0  0  0  0  0  0  0  0  0  0  0
   -0.4360   17.4192    0.2041 H   0  0  0  0  0  0  0  0  0  0  0  0
   -3.2937   20.1820    0.0520 H   0  0  0  0  0  0  0  0  0  0  0  0
   -2.0989   20.6445   -1.2070 H   0  0  0  0  0  0  0  0  0  0  0  0
   -2.8108   18.9953   -1.2070 H   0  0  0  0  0  0  0  0  0  0  0  0
    1.6593   17.0026    0.2232 H   0  0  0  0  0  0  0  0  0  0  0  0
   -0.0347   18.0236   -1.1635 H   0  0  0  0  0  0  0  0  0  0  0  0
    1.1595   18.5459   -2.3712 H   0  0  0  0  0  0  0  0  0  0  0  0
   -0.6317   16.3363   -2.6535 H   0  0  0  0  0  0  0  0  0  0  0  0
    0.7771   16.6019   -3.6766 H   0  0  0  0  0  0  0  0  0  0  0  0
    0.6981   15.0867    0.1873 H   0  0  0  0  0  0  0  0  0  0  0  0
   -0.7271   15.4668   -0.8380 H   0  0  0  0  0  0  0  0  0  0  0  0
   -0.0374   13.8082   -0.8380 H   0  0  0  0  0  0  0  0  0  0  0  0
    2.0115   14.5176   -3.7011 H   0  0  0  0  0  0  0  0  0  0  0  0
   -0.5322   14.1219   -3.6310 H   0  0  0  0  0  0  0  0  0  0  0  0
    0.6005   12.9070   -4.4253 H   0  0  0  0  0  0  0  0  0  0  0  0
   -1.3428   11.9020   -2.9577 H   0  0  0  0  0  0  0  0  0  0  0  0
    1.6425   12.5352   -0.3153 H   0  0  0  0  0  0  0  0  0  0  0  0
    2.6070   10.1416   -1.9995 H   0  0  0  0  0  0  0  0  0  0  0  0
    3.4977   10.9437   -0.6305 H   0  0  0  0  0  0  0  0  0  0  0  0
    2.4436    8.8127    0.0584 H   0  0  0  0  0  0  0  0  0  0  0  0
    1.7801   10.2451    0.9373 H   0  0  0  0  0  0  0  0  0  0  0  0
   -0.0401    8.8028    0.3310 H   0  0  0  0  0  0  0  0  0  0  0  0
   -0.3640    8.2230   -1.8630 H   0  0  0  0  0  0  0  0  0  0  0  0
   -0.4895   10.6510    1.4267 H   0  0  0  0  0  0  0  0  0  0  0  0
   -0.2888   12.2598    0.6533 H   0  0  0  0  0  0  0  0  0  0  0  0
   -1.8960   11.4574    0.6533 H   0  0  0  0  0  0  0  0  0  0  0  0
   -2.4968    9.8426   -0.5134 H   0  0  0  0  0  0  0  0  0  0  0  0
   -2.2634   10.8893   -1.9545 H   0  0  0  0  0  0  0  0  0  0  0  0
   -1.6328    9.2074   -1.9545 H   0  0  0  0  0  0  0  0  0  0  0  0
    3.8056   11.4578   -2.9950 H   0  0  0  0  0  0  0  0  0  0  0  0
    2.3546   11.7549   -4.0114 H   0  0  0  0  0  0  0  0  0  0  0  0
    3.7082   12.9357   -4.0114 H   0  0  0  0  0  0  0  0  0  0  0  0
    4.0208   12.9504   -0.6961 H   0  0  0  0  0  0  0  0  0  0  0  0
    4.3490   14.0141   -2.1776 H   0  0  0  0  0  0  0  0  0  0  0  0
    2.6520   14.6859    0.2420 H   0  0  0  0  0  0  0  0  0  0  0  0
    4.2047   15.4413   -0.2932 H   0  0  0  0  0  0  0  0  0  0  0  0
    4.3649   16.8089   -2.2696 H   0  0  0  0  0  0  0  0  0  0  0  0
    3.6780   15.5042   -3.2956 H   0  0  0  0  0  0  0  0  0  0  0  0
    2.9272   17.1361   -3.2956 H   0  0  0  0  0  0  0  0  0  0  0  0
  1  2  1  0
  2  3  1  0
  3  4  1  0
  4  5  1  0
  5  6  1  0
  6  7  1  0
  7  8  1  0
  7  9  1  0
  2 10  1  0
 10 11  1  0
 11 12  1  0
 12 13  1  0
 13 14  1  1
 13 15  1  0
 15 16  1  0
 16 17  1  0
 17 18  2  0
 18 19  1  0
 19 20  1  0
 20 21  1  0
 21 22  1  0
 22 23  1  0
 22 24  1  0
 24 25  1  0
 24 26  1  0
 19 27  1  0
 27 28  1  6
 27 29  1  0
 29 30  1  0
 30 31  1  0
 31 32  1  6
  7  5  1  0
 31 10  1  0
 31 13  1  0
 27 15  1  0
 24 18  1  0
  1 33  1  0
  1 34  1  0
  1 35  1  0
  2 36  1  6
  3 37  1  0
  3 38  1  0
  4 39  1  0
  4 40  1  0
  5 41  1  6
  8 42  1  0
  8 43  1  0
  8 44  1  0
  9 45  1  0
  9 46  1  0
  9 47  1  0
 10 48  1  1
 11 49  1  0
 11 50  1  0
 12 51  1  0
 12 52  1  0
 14 53  1  0
 14 54  1  0
 14 55  1  0
 15 56  1  6
 16 57  1  0
 16 58  1  0
 17 59  1  0
 19 60  1  1
 20 61  1  0
 20 62  1  0
 21 63  1  0
 21 64  1  0
 22 65  1  1
 23 66  1  0
 25 67  1  0
 25 68  1  0
 25 69  1  0
 26 70  1  0
 26 71  1  0
 26 72  1  0
 28 73  1  0
 28 74  1  0
 28 75  1  0
 29 76  1  0
 29 77  1  0
 30 78  1  0
 30 79  1  0
 32 80  1  0
 32 81  1  0
 32 82  1  0
M  END
>  <meeko>  (2) 
{"is_sidechain": [false], "intermolecular_energy": 2.731, "internal_energy": -0.839}

$$$$
EPH_relaxed_0001_pdb2pqr_Repair_147_r2_0001_out
     RDKit          3D

 82 86  0  0  0  0  0  0  0  0999 V2000
    2.0280   18.5050   -1.8350 C   0  0  0  0  0  0  0  0  0  0  0  0
    1.7730   17.4740   -0.7330 C   0  0  2  0  0  0  0  0  0  0  0  0
    3.0780   17.0160   -0.0520 C   0  0  0  0  0  0  0  0  0  0  0  0
    4.0210   18.1680    0.3070 C   0  0  0  0  0  0  0  0  0  0  0  0
    3.7270   18.7220    1.6680 C   0  0  2  0  0  0  0  0  0  0  0  0
    4.0740   20.1020    1.8400 O   0  0  0  0  0  0  0  0  0  0  0  0
    4.8030   19.1600    2.6440 C   0  0  0  0  0  0  0  0  0  0  0  0
    6.2560   19.0620    2.2990 C   0  0  0  0  0  0  0  0  0  0  0  0
    4.4660   19.2220    4.1010 C   0  0  0  0  0  0  0  0  0  0  0  0
    1.0350   16.2700   -1.3080 C   0  0  1  0  0  0  0  0  0  0  0  0
    0.5250   16.5170   -2.7530 C   0  0  0  0  0  0  0  0  0  0  0  0
    0.6350   15.1650   -3.5030 C   0  0  0  0  0  0  0  0  0  0  0  0
    0.8860   14.1210   -2.3900 C   0  0  1  0  0  0  0  0  0  0  0  0
   -0.5260   13.8200   -1.7970 C   0  0  0  0  0  0  0  0  0  0  0  0
    1.6200   12.8110   -2.8250 C   0  0  2  0  0  0  0  0  0  0  0  0
    0.8690   11.9540   -3.8600 C   0  0  0  0  0  0  0  0  0  0  0  0
   -0.0430   10.9200   -3.2900 C   0  0  0  0  0  0  0  0  0  0  0  0
   -0.0420   10.4930   -2.0130 C   0  0  0  0  0  0  0  0  0  0  0  0
    1.0120   10.9940   -1.0170 C   0  0  1  0  0  0  0  0  0  0  0  0
    1.5920    9.7910   -0.2270 C   0  0  0  0  0  0  0  0  0  0  0  0
    0.5060    8.9540    0.4430 C   0  0  0  0  0  0  0  0  0  0  0  0
   -0.4890    8.4260   -0.5870 C   0  0  2  0  0  0  0  0  0  0  0  0
    0.1800    7.4890   -1.4360 O   0  0  0  0  0  0  0  0  0  0  0  0
   -1.1310    9.5480   -1.4500 C   0  0  0  0  0  0  0  0  0  0  0  0
   -2.0990   10.3860   -0.5780 C   0  0  0  0  0  0  0  0  0  0  0  0
   -2.0050    8.8710   -2.5400 C   0  0  0  0  0  0  0  0  0  0  0  0
    2.1460   11.9310   -1.6190 C   0  0  1  0  0  0  0  0  0  0  0  0
    3.3140   11.0620   -2.1780 C   0  0  0  0  0  0  0  0  0  0  0  0
    2.7570   12.8070   -0.4620 C   0  0  0  0  0  0  0  0  0  0  0  0
    2.0580   14.1460   -0.1600 C   0  0  0  0  0  0  0  0  0  0  0  0
    1.8310   14.9480   -1.4450 C   0  0  2  0  0  0  0  0  0  0  0  0
    3.2350   15.2840   -2.0530 C   0  0  0  0  0  0  0  0  0  0  0  0
    2.2684   19.4769   -1.3793 H   0  0  0  0  0  0  0  0  0  0  0  0
    2.8713   18.1739   -2.4589 H   0  0  0  0  0  0  0  0  0  0  0  0
    1.1276   18.6052   -2.4589 H   0  0  0  0  0  0  0  0  0  0  0  0
    1.1526   17.9583    0.0355 H   0  0  0  0  0  0  0  0  0  0  0  0
    2.8178   16.4791    0.8721 H   0  0  0  0  0  0  0  0  0  0  0  0
    3.6099   16.3771   -0.7723 H   0  0  0  0  0  0  0  0  0  0  0  0
    5.0572   17.7993    0.2885 H   0  0  0  0  0  0  0  0  0  0  0  0
    3.8753   18.9722   -0.4292 H   0  0  0  0  0  0  0  0  0  0  0  0
    2.8591   18.0551    1.7776 H   0  0  0  0  0  0  0  0  0  0  0  0
    6.8505   19.0219    3.2236 H   0  0  0  0  0  0  0  0  0  0  0  0
    6.4323   18.1499    1.7099 H   0  0  0  0  0  0  0  0  0  0  0  0
    6.5532   19.9421    1.7099 H   0  0  0  0  0  0  0  0  0  0  0  0
    5.3763   19.0545    4.6953 H   0  0  0  0  0  0  0  0  0  0  0  0
    4.0495   20.2118    4.3392 H   0  0  0  0  0  0  0  0  0  0  0  0
    3.7245   18.4452    4.3392 H   0  0  0  0  0  0  0  0  0  0  0  0
    0.2455   16.1574   -0.5503 H   0  0  0  0  0  0  0  0  0  0  0  0
   -0.5216   16.8549   -2.7328 H   0  0  0  0  0  0  0  0  0  0  0  0
    1.1187   17.2960   -3.2537 H   0  0  0  0  0  0  0  0  0  0  0  0
   -0.2982   14.9423   -4.0411 H   0  0  0  0  0  0  0  0  0  0  0  0
    1.4350   15.1706   -4.2580 H   0  0  0  0  0  0  0  0  0  0  0  0
   -0.4723   13.8314   -0.6984 H   0  0  0  0  0  0  0  0  0  0  0  0
   -1.2377   14.5866   -2.1373 H   0  0  0  0  0  0  0  0  0  0  0  0
   -0.8632   12.8298   -2.1373 H   0  0  0  0  0  0  0  0  0  0  0  0
    2.5066   13.2007   -3.3467 H   0  0  0  0  0  0  0  0  0  0  0  0
    0.2681   12.6283   -4.4878 H   0  0  0  0  0  0  0  0  0  0  0  0
    1.6414   11.4042   -4.4178 H   0  0  0  0  0  0  0  0  0  0  0  0
   -0.7790   10.4679   -3.9711 H   0  0  0  0  0  0  0  0  0  0  0  0
    0.4827   11.6715   -0.3309 H   0  0  0  0  0  0  0  0  0  0  0  0
    2.1530    9.1496   -0.9226 H   0  0  0  0  0  0  0  0  0  0  0  0
    2.2409   10.1928    0.5651 H   0  0  0  0  0  0  0  0  0  0  0  0
    0.9745    8.1035    0.9599 H   0  0  0  0  0  0  0  0  0  0  0  0
   -0.0347    9.5893    1.1600 H   0  0  0  0  0  0  0  0  0  0  0  0
   -1.3109    7.9458   -0.0357 H   0  0  0  0  0  0  0  0  0  0  0  0
    1.0940    7.4010   -1.1160 H   0  0  0  0  0  0  0  0  0  0  0  0
   -1.8867   10.2023    0.4856 H   0  0  0  0  0  0  0  0  0  0  0  0
   -1.9610   11.4544   -0.8002 H   0  0  0  0  0  0  0  0  0  0  0  0
   -3.1367   10.0964   -0.8002 H   0  0  0  0  0  0  0  0  0  0  0  0
   -2.7871    8.2652   -2.0589 H   0  0  0  0  0  0  0  0  0  0  0  0
   -2.4736    9.6441   -3.1667 H   0  0  0  0  0  0  0  0  0  0  0  0
   -1.3736    8.2240   -3.1667 H   0  0  0  0  0  0  0  0  0  0  0  0
    3.8869   10.6358   -1.3413 H   0  0  0  0  0  0  0  0  0  0  0  0
    2.9034   10.2480   -2.7935 H   0  0  0  0  0  0  0  0  0  0  0  0
    3.9756   11.6892   -2.7935 H   0  0  0  0  0  0  0  0  0  0  0  0
    2.7343   12.2050    0.4584 H   0  0  0  0  0  0  0  0  0  0  0  0
    3.7640   13.0806   -0.8099 H   0  0  0  0  0  0  0  0  0  0  0  0
    1.0865   13.9456    0.3154 H   0  0  0  0  0  0  0  0  0  0  0  0
    2.7012   14.7339    0.5113 H   0  0  0  0  0  0  0  0  0  0  0  0
    3.9551   15.4563   -1.2395 H   0  0  0  0  0  0  0  0  0  0  0  0
    3.5769   14.4423   -2.6732 H   0  0  0  0  0  0  0  0  0  0  0  0
    3.1589   16.1893   -2.6732 H   0  0  0  0  0  0  0  0  0  0  0  0
  1  2  1  0
  2  3  1  0
  3  4  1  0
  4  5  1  0
  5  6  1  0
  6  7  1  0
  7  8  1  0
  7  9  1  0
  2 10  1  0
 10 11  1  0
 11 12  1  0
 12 13  1  0
 13 14  1  1
 13 15  1  0
 15 16  1  0
 16 17  1  0
 17 18  2  0
 18 19  1  0
 19 20  1  0
 20 21  1  0
 21 22  1  0
 22 23  1  0
 22 24  1  0
 24 25  1  0
 24 26  1  0
 19 27  1  0
 27 28  1  6
 27 29  1  0
 29 30  1  0
 30 31  1  0
 31 32  1  6
  7  5  1  0
 31 10  1  0
 31 13  1  0
 27 15  1  0
 24 18  1  0
  1 33  1  0
  1 34  1  0
  1 35  1  0
  2 36  1  1
  3 37  1  0
  3 38  1  0
  4 39  1  0
  4 40  1  0
  5 41  1  1
  8 42  1  0
  8 43  1  0
  8 44  1  0
  9 45  1  0
  9 46  1  0
  9 47  1  0
 10 48  1  1
 11 49  1  0
 11 50  1  0
 12 51  1  0
 12 52  1  0
 14 53  1  0
 14 54  1  0
 14 55  1  0
 15 56  1  6
 16 57  1  0
 16 58  1  0
 17 59  1  0
 19 60  1  1
 20 61  1  0
 20 62  1  0
 21 63  1  0
 21 64  1  0
 22 65  1  1
 23 66  1  0
 25 67  1  0
 25 68  1  0
 25 69  1  0
 26 70  1  0
 26 71  1  0
 26 72  1  0
 28 73  1  0
 28 74  1  0
 28 75  1  0
 29 76  1  0
 29 77  1  0
 30 78  1  0
 30 79  1  0
 32 80  1  0
 32 81  1  0
 32 82  1  0
M  END
>  <meeko>  (3) 
{"is_sidechain": [false], "intermolecular_energy": 2.731, "internal_energy": -0.839}

$$$$
EPH_relaxed_0001_pdb2pqr_Repair_147_r2_0001_out
     RDKit          3D

 82 86  0  0  0  0  0  0  0  0999 V2000
    3.1140   17.1340    0.3360 C   0  0  0  0  0  0  0  0  0  0  0  0
    2.5850   17.3540   -1.0840 C   0  0  2  0  0  0  0  0  0  0  0  0
    1.8740   18.7140   -1.2340 C   0  0  0  0  0  0  0  0  0  0  0  0
    1.3110   19.2630    0.0790 C   0  0  0  0  0  0  0  0  0  0  0  0
   -0.0120   19.9380   -0.1240 C   0  0  2  0  0  0  0  0  0  0  0  0
   -0.7450   20.1930    1.0820 O   0  0  0  0  0  0  0  0  0  0  0  0
   -1.3450   19.2690    0.1590 C   0  0  0  0  0  0  0  0  0  0  0  0
   -1.4200   17.8640    0.6680 C   0  0  0  0  0  0  0  0  0  0  0  0
   -2.5700   19.8010   -0.5170 C   0  0  0  0  0  0  0  0  0  0  0  0
    1.6340   16.2250   -1.4640 C   0  0  1  0  0  0  0  0  0  0  0  0
    0.8490   16.5190   -2.7700 C   0  0  0  0  0  0  0  0  0  0  0  0
    0.6710   15.1640   -3.5010 C   0  0  0  0  0  0  0  0  0  0  0  0
    1.0600   14.0990   -2.4480 C   0  0  1  0  0  0  0  0  0  0  0  0
   -0.2120   13.9300   -1.5600 C   0  0  0  0  0  0  0  0  0  0  0  0
    1.5610   12.7270   -3.0060 C   0  0  2  0  0  0  0  0  0  0  0  0
    0.5300   11.9450   -3.8390 C   0  0  0  0  0  0  0  0  0  0  0  0
   -0.3280   10.9990   -3.0660 C   0  0  0  0  0  0  0  0  0  0  0  0
   -0.0900   10.5730   -1.8120 C   0  0  0  0  0  0  0  0  0  0  0  0
    1.1950   10.9730   -1.0750 C   0  0  1  0  0  0  0  0  0  0  0  0
    1.8190    9.7200   -0.4050 C   0  0  0  0  0  0  0  0  0  0  0  0
    0.8320    8.9870    0.4980 C   0  0  0  0  0  0  0  0  0  0  0  0
   -0.4060    8.5550   -0.2840 C   0  0  2  0  0  0  0  0  0  0  0  0
   -0.0230    7.5600   -1.2390 O   0  0  0  0  0  0  0  0  0  0  0  0
   -1.1140    9.7320   -1.0100 C   0  0  0  0  0  0  0  0  0  0  0  0
   -1.7900   10.6560    0.0330 C   0  0  0  0  0  0  0  0  0  0  0  0
   -2.2600    9.1410   -1.8740 C   0  0  0  0  0  0  0  0  0  0  0  0
    2.2520   11.8010   -1.9240 C   0  0  1  0  0  0  0  0  0  0  0  0
    3.1880   10.8280   -2.7040 C   0  0  0  0  0  0  0  0  0  0  0  0
    3.1760   12.6150   -0.9420 C   0  0  0  0  0  0  0  0  0  0  0  0
    2.6830   14.0130   -0.5230 C   0  0  0  0  0  0  0  0  0  0  0  0
    2.2580   14.8340   -1.7440 C   0  0  2  0  0  0  0  0  0  0  0  0
    3.5230   15.0390   -2.6460 C   0  0  0  0  0  0  0  0  0  0  0  0
    2.3526   17.4506    1.0641 H   0  0  0  0  0  0  0  0  0  0  0  0
    3.3398   16.0674    0.4820 H   0  0  0  0  0  0  0  0  0  0  0  0
    4.0296   17.7260    0.4820 H   0  0  0  0  0  0  0  0  0  0  0  0
    3.4501   17.3568   -1.7634 H   0  0  0  0  0  0  0  0  0  0  0  0
    2.5965   19.4413   -1.6329 H   0  0  0  0  0  0  0  0  0  0  0  0
    1.0197   18.5570   -1.9089 H   0  0  0  0  0  0  0  0  0  0  0  0
    1.1818   18.4311    0.7869 H   0  0  0  0  0  0  0  0  0  0  0  0
    2.0193   20.0078    0.4709 H   0  0  0  0  0  0  0  0  0  0  0  0
    0.3710   20.4771   -1.0030 H   0  0  0  0  0  0  0  0  0  0  0  0
   -1.4196   17.8720    1.7680 H   0  0  0  0  0  0  0  0  0  0  0  0
   -2.3447   17.3914    0.3051 H   0  0  0  0  0  0  0  0  0  0  0  0
   -0.5509   17.2957    0.3051 H   0  0  0  0  0  0  0  0  0  0  0  0
   -3.2997   20.1179    0.2427 H   0  0  0  0  0  0  0  0  0  0  0  0
   -2.2975   20.6618   -1.1452 H   0  0  0  0  0  0  0  0  0  0  0  0
   -3.0130   19.0142   -1.1452 H   0  0  0  0  0  0  0  0  0  0  0  0
    1.0198   16.1864   -0.5522 H   0  0  0  0  0  0  0  0  0  0  0  0
   -0.1335   16.9525   -2.5317 H   0  0  0  0  0  0  0  0  0  0  0  0
    1.3895   17.2397   -3.4013 H   0  0  0  0  0  0  0  0  0  0  0  0
   -0.3726   15.0299   -3.8219 H   0  0  0  0  0  0  0  0  0  0  0  0
    1.2865   15.0963   -4.4102 H   0  0  0  0  0  0  0  0  0  0  0  0
    0.0741   13.9680   -0.4985 H   0  0  0  0  0  0  0  0  0  0  0  0
   -0.9217   14.7417   -1.7777 H   0  0  0  0  0  0  0  0  0  0  0  0
   -0.6851   12.9611   -1.7777 H   0  0  0  0  0  0  0  0  0  0  0  0
    2.3459   13.0326   -3.7134 H   0  0  0  0  0  0  0  0  0  0  0  0
   -0.1284   12.6729   -4.3356 H   0  0  0  0  0  0  0  0  0  0  0  0
    1.1104   11.3267   -4.5396 H   0  0  0  0  0  0  0  0  0  0  0  0
   -1.2317   10.6177   -3.5639 H   0  0  0  0  0  0  0  0  0  0  0  0
    0.8908   11.6962   -0.3040 H   0  0  0  0  0  0  0  0  0  0  0  0
    2.1559    9.0299   -1.1926 H   0  0  0  0  0  0  0  0  0  0  0  0
    2.6569   10.0589    0.2219 H   0  0  0  0  0  0  0  0  0  0  0  0
    1.3216    8.0960    0.9179 H   0  0  0  0  0  0  0  0  0  0  0  0
    0.5189    9.6689    1.3023 H   0  0  0  0  0  0  0  0  0  0  0  0
   -1.1304    8.1532    0.4398 H   0  0  0  0  0  0  0  0  0  0  0  0
   -0.7550    6.9240   -1.3110 H   0  0  0  0  0  0  0  0  0  0  0  0
   -1.5377   10.3111    1.0466 H   0  0  0  0  0  0  0  0  0  0  0  0
   -1.4314   11.6869   -0.1034 H   0  0  0  0  0  0  0  0  0  0  0  0
   -2.8811   10.6263   -0.1034 H   0  0  0  0  0  0  0  0  0  0  0  0
   -3.0438    8.7368   -1.2165 H   0  0  0  0  0  0  0  0  0  0  0  0
   -2.6858    9.9319   -2.5089 H   0  0  0  0  0  0  0  0  0  0  0  0
   -1.8625    8.3354   -2.5089 H   0  0  0  0  0  0  0  0  0  0  0  0
    3.7678   10.2253   -1.9894 H   0  0  0  0  0  0  0  0  0  0  0  0
    2.5810   10.1635   -3.3364 H   0  0  0  0  0  0  0  0  0  0  0  0
    3.8755   11.4088   -3.3364 H   0  0  0  0  0  0  0  0  0  0  0  0
    3.2976   12.0169   -0.0269 H   0  0  0  0  0  0  0  0  0  0  0  0
    4.1053   12.7936   -1.5028 H   0  0  0  0  0  0  0  0  0  0  0  0
    1.8228   13.9032    0.1537 H   0  0  0  0  0  0  0  0  0  0  0  0
    3.5067   14.5380   -0.0172 H   0  0  0  0  0  0  0  0  0  0  0  0
    4.4082   15.1825   -2.0090 H   0  0  0  0  0  0  0  0  0  0  0  0
    3.6680   14.1526   -3.2811 H   0  0  0  0  0  0  0  0  0  0  0  0
    3.3807   15.9258   -3.2811 H   0  0  0  0  0  0  0  0  0  0  0  0
  1  2  1  0
  2  3  1  0
  3  4  1  0
  4  5  1  0
  5  6  1  0
  6  7  1  0
  7  8  1  0
  7  9  1  0
  2 10  1  0
 10 11  1  0
 11 12  1  0
 12 13  1  0
 13 14  1  1
 13 15  1  0
 15 16  1  0
 16 17  1  0
 17 18  2  0
 18 19  1  0
 19 20  1  0
 20 21  1  0
 21 22  1  0
 22 23  1  0
 22 24  1  0
 24 25  1  0
 24 26  1  0
 19 27  1  0
 27 28  1  6
 27 29  1  0
 29 30  1  0
 30 31  1  0
 31 32  1  6
  7  5  1  0
 31 10  1  0
 31 13  1  0
 27 15  1  0
 24 18  1  0
  1 33  1  0
  1 34  1  0
  1 35  1  0
  2 36  1  6
  3 37  1  0
  3 38  1  0
  4 39  1  0
  4 40  1  0
  5 41  1  6
  8 42  1  0
  8 43  1  0
  8 44  1  0
  9 45  1  0
  9 46  1  0
  9 47  1  0
 10 48  1  1
 11 49  1  0
 11 50  1  0
 12 51  1  0
 12 52  1  0
 14 53  1  0
 14 54  1  0
 14 55  1  0
 15 56  1  6
 16 57  1  0
 16 58  1  0
 17 59  1  0
 19 60  1  1
 20 61  1  0
 20 62  1  0
 21 63  1  0
 21 64  1  0
 22 65  1  1
 23 66  1  0
 25 67  1  0
 25 68  1  0
 25 69  1  0
 26 70  1  0
 26 71  1  0
 26 72  1  0
 28 73  1  0
 28 74  1  0
 28 75  1  0
 29 76  1  0
 29 77  1  0
 30 78  1  0
 30 79  1  0
 32 80  1  0
 32 81  1  0
 32 82  1  0
M  END
>  <meeko>  (4) 
{"is_sidechain": [false], "intermolecular_energy": 2.731, "internal_energy": -0.839}

$$$$
EPH_relaxed_0001_pdb2pqr_Repair_147_r2_0001_out
     RDKit          3D

 82 86  0  0  0  0  0  0  0  0999 V2000
   -1.5760    8.7440   -1.9240 C   0  0  0  0  0  0  0  0  0  0  0  0
   -1.9970    9.2020   -0.5250 C   0  0  2  0  0  0  0  0  0  0  0  0
   -3.5070    9.5060   -0.4440 C   0  0  0  0  0  0  0  0  0  0  0  0
   -4.3810    8.2540   -0.3360 C   0  0  0  0  0  0  0  0  0  0  0  0
   -5.0830    7.9550   -1.6270 C   0  0  2  0  0  0  0  0  0  0  0  0
   -6.2890    8.7010   -1.8390 O   0  0  0  0  0  0  0  0  0  0  0  0
   -6.4380    7.2780   -1.7050 C   0  0  0  0  0  0  0  0  0  0  0  0
   -7.1720    6.8570   -0.4700 C   0  0  0  0  0  0  0  0  0  0  0  0
   -6.8220    6.5890   -2.9770 C   0  0  0  0  0  0  0  0  0  0  0  0
   -1.1950   10.4330   -0.1180 C   0  0  1  0  0  0  0  0  0  0  0  0
   -0.2330   10.1540    1.0670 C   0  0  0  0  0  0  0  0  0  0  0  0
    1.0330   11.0150    0.8270 C   0  0  0  0  0  0  0  0  0  0  0  0
    0.6280   12.0010   -0.2940 C   0  0  1  0  0  0  0  0  0  0  0  0
   -0.1590   13.1350    0.4350 C   0  0  0  0  0  0  0  0  0  0  0  0
    1.7940   12.5740   -1.1640 C   0  0  2  0  0  0  0  0  0  0  0  0
    2.8260   13.4190   -0.3980 C   0  0  0  0  0  0  0  0  0  0  0  0
    2.5310   14.8810   -0.3320 C   0  0  0  0  0  0  0  0  0  0  0  0
    1.6400   15.5350   -1.1000 C   0  0  0  0  0  0  0  0  0  0  0  0
    0.8870   14.8100   -2.2230 C   0  0  1  0  0  0  0  0  0  0  0  0
    0.9230   15.6730   -3.5110 C   0  0  0  0  0  0  0  0  0  0  0  0
    0.4050   17.0900   -3.2810 C   0  0  0  0  0  0  0  0  0  0  0  0
    1.2160   17.7980   -2.1980 C   0  0  2  0  0  0  0  0  0  0  0  0
    2.5480   18.0020   -2.6800 O   0  0  0  0  0  0  0  0  0  0  0  0
    1.2600   17.0160   -0.8560 C   0  0  0  0  0  0  0  0  0  0  0  0
   -0.1360   17.0550   -0.1850 C   0  0  0  0  0  0  0  0  0  0  0  0
    2.2230   17.7660    0.1030 C   0  0  0  0  0  0  0  0  0  0  0  0
    1.3180   13.3030   -2.4860 C   0  0  1  0  0  0  0  0  0  0  0  0
    2.5210   13.2580   -3.4770 C   0  0  0  0  0  0  0  0  0  0  0  0
    0.1320   12.5460   -3.1930 C   0  0  0  0  0  0  0  0  0  0  0  0
   -0.9240   11.8980   -2.2760 C   0  0  0  0  0  0  0  0  0  0  0  0
   -0.2580   11.0560   -1.1830 C   0  0  2  0  0  0  0  0  0  0  0  0
    0.5230    9.8930   -1.8850 C   0  0  0  0  0  0  0  0  0  0  0  0
   -0.8339    7.9367   -1.8376 H   0  0  0  0  0  0  0  0  0  0  0  0
   -2.4571    8.3753   -2.4697 H   0  0  0  0  0  0  0  0  0  0  0  0
   -1.1346    9.5910   -2.4697 H   0  0  0  0  0  0  0  0  0  0  0  0
   -1.7886    8.3760    0.1709 H   0  0  0  0  0  0  0  0  0  0  0  0
   -3.6881   10.1335    0.4411 H   0  0  0  0  0  0  0  0  0  0  0  0
   -3.7841   10.0121   -1.3805 H   0  0  0  0  0  0  0  0  0  0  0  0
   -3.7450    7.3971   -0.0692 H   0  0  0  0  0  0  0  0  0  0  0  0
   -5.1440    8.4338    0.4357 H   0  0  0  0  0  0  0  0  0  0  0  0
   -4.1254    7.7483   -2.1273 H   0  0  0  0  0  0  0  0  0  0  0  0
   -6.6096    7.1796    0.4187 H   0  0  0  0  0  0  0  0  0  0  0  0
   -8.1697    7.3201   -0.4606 H   0  0  0  0  0  0  0  0  0  0  0  0
   -7.2760    5.7620   -0.4606 H   0  0  0  0  0  0  0  0  0  0  0  0
   -7.3452    5.6503   -2.7421 H   0  0  0  0  0  0  0  0  0  0  0  0
   -7.4861    7.2424   -3.5619 H   0  0  0  0  0  0  0  0  0  0  0  0
   -5.9170    6.3679   -3.5619 H   0  0  0  0  0  0  0  0  0  0  0  0
   -2.0205   11.1243    0.1072 H   0  0  0  0  0  0  0  0  0  0  0  0
   -0.7097   10.4378    2.0169 H   0  0  0  0  0  0  0  0  0  0  0  0
    0.0213    9.0854    1.1262 H   0  0  0  0  0  0  0  0  0  0  0  0
    1.3112   11.5596    1.7413 H   0  0  0  0  0  0  0  0  0  0  0  0
    1.9058   10.4052    0.5507 H   0  0  0  0  0  0  0  0  0  0  0  0
   -0.0677   13.0035    1.5233 H   0  0  0  0  0  0  0  0  0  0  0  0
    0.2559   14.1124    0.1477 H   0  0  0  0  0  0  0  0  0  0  0  0
   -1.2198   13.0882    0.1477 H   0  0  0  0  0  0  0  0  0  0  0  0
    2.3259   11.6626   -1.4746 H   0  0  0  0  0  0  0  0  0  0  0  0
    2.8811   13.0366    0.6319 H   0  0  0  0  0  0  0  0  0  0  0  0
    3.7701   13.3241   -0.9545 H   0  0  0  0  0  0  0  0  0  0  0  0
    3.0894   15.4742    0.4072 H   0  0  0  0  0  0  0  0  0  0  0  0
   -0.1507   14.7032   -1.8741 H   0  0  0  0  0  0  0  0  0  0  0  0
    1.9620   15.7310   -3.8676 H   0  0  0  0  0  0  0  0  0  0  0  0
    0.2665   15.1939   -4.2523 H   0  0  0  0  0  0  0  0  0  0  0  0
    0.4834   17.6588   -4.2193 H   0  0  0  0  0  0  0  0  0  0  0  0
   -0.6434   17.0319   -2.9532 H   0  0  0  0  0  0  0  0  0  0  0  0
    0.7187   18.7560   -1.9861 H   0  0  0  0  0  0  0  0  0  0  0  0
    2.4850   18.4590   -3.5350 H   0  0  0  0  0  0  0  0  0  0  0  0
   -0.0174   17.0517    0.9086 H   0  0  0  0  0  0  0  0  0  0  0  0
   -0.6658   17.9683   -0.4936 H   0  0  0  0  0  0  0  0  0  0  0  0
   -0.7159   16.1727   -0.4936 H   0  0  0  0  0  0  0  0  0  0  0  0
    1.9450   17.5495    1.1450 H   0  0  0  0  0  0  0  0  0  0  0  0
    3.2551   17.4314   -0.0782 H   0  0  0  0  0  0  0  0  0  0  0  0
    2.1514   18.8486   -0.0782 H   0  0  0  0  0  0  0  0  0  0  0  0
    3.4626   13.2228   -2.9093 H   0  0  0  0  0  0  0  0  0  0  0  0
    2.4410   12.3622   -4.1104 H   0  0  0  0  0  0  0  0  0  0  0  0
    2.5081   14.1573   -4.1104 H   0  0  0  0  0  0  0  0  0  0  0  0
   -0.3870   13.2699   -3.8385 H   0  0  0  0  0  0  0  0  0  0  0  0
    0.6033   11.7074   -3.7266 H   0  0  0  0  0  0  0  0  0  0  0  0
   -1.5254   12.6892   -1.8045 H   0  0  0  0  0  0  0  0  0  0  0  0
   -1.5621   11.2410   -2.8852 H   0  0  0  0  0  0  0  0  0  0  0  0
    0.9648    9.2351   -1.1221 H   0  0  0  0  0  0  0  0  0  0  0  0
   -0.1694    9.3130   -2.5129 H   0  0  0  0  0  0  0  0  0  0  0  0
    1.3219   10.3144   -2.5129 H   0  0  0  0  0  0  0  0  0  0  0  0
  1  2  1  0
  2  3  1  0
  3  4  1  0
  4  5  1  0
  5  6  1  0
  6  7  1  0
  7  8  1  0
  7  9  1  0
  2 10  1  0
 10 11  1  0
 11 12  1  0
 12 13  1  0
 13 14  1  1
 13 15  1  0
 15 16  1  0
 16 17  1  0
 17 18  2  0
 18 19  1  0
 19 20  1  0
 20 21  1  0
 21 22  1  0
 22 23  1  0
 22 24  1  0
 24 25  1  0
 24 26  1  0
 19 27  1  0
 27 28  1  6
 27 29  1  0
 29 30  1  0
 30 31  1  0
 31 32  1  6
  7  5  1  0
 31 10  1  0
 31 13  1  0
 27 15  1  0
 24 18  1  0
  1 33  1  0
  1 34  1  0
  1 35  1  0
  2 36  1  1
  3 37  1  0
  3 38  1  0
  4 39  1  0
  4 40  1  0
  5 41  1  6
  8 42  1  0
  8 43  1  0
  8 44  1  0
  9 45  1  0
  9 46  1  0
  9 47  1  0
 10 48  1  1
 11 49  1  0
 11 50  1  0
 12 51  1  0
 12 52  1  0
 14 53  1  0
 14 54  1  0
 14 55  1  0
 15 56  1  6
 16 57  1  0
 16 58  1  0
 17 59  1  0
 19 60  1  1
 20 61  1  0
 20 62  1  0
 21 63  1  0
 21 64  1  0
 22 65  1  1
 23 66  1  0
 25 67  1  0
 25 68  1  0
 25 69  1  0
 26 70  1  0
 26 71  1  0
 26 72  1  0
 28 73  1  0
 28 74  1  0
 28 75  1  0
 29 76  1  0
 29 77  1  0
 30 78  1  0
 30 79  1  0
 32 80  1  0
 32 81  1  0
 32 82  1  0
M  END
>  <meeko>  (5) 
{"is_sidechain": [false], "intermolecular_energy": 2.731, "internal_energy": -0.839}

$$$$
EPH_relaxed_0001_pdb2pqr_Repair_147_r2_0001_out
     RDKit          3D

 82 86  0  0  0  0  0  0  0  0999 V2000
   -0.8450    7.8890   -0.6950 C   0  0  0  0  0  0  0  0  0  0  0  0
   -1.2400    9.2210   -0.0490 C   0  0  2  0  0  0  0  0  0  0  0  0
   -2.5120    9.8190   -0.6830 C   0  0  0  0  0  0  0  0  0  0  0  0
   -3.8120    9.2690   -0.0900 C   0  0  0  0  0  0  0  0  0  0  0  0
   -4.1240    7.9000   -0.6140 C   0  0  2  0  0  0  0  0  0  0  0  0
   -4.2330    7.8160   -2.0410 O   0  0  0  0  0  0  0  0  0  0  0  0
   -5.4320    7.5440   -1.2970 C   0  0  0  0  0  0  0  0  0  0  0  0
   -6.5120    8.5610   -1.4920 C   0  0  0  0  0  0  0  0  0  0  0  0
   -5.8520    6.1080   -1.3340 C   0  0  0  0  0  0  0  0  0  0  0  0
   -0.0880   10.2120   -0.1570 C   0  0  1  0  0  0  0  0  0  0  0  0
    1.3020    9.5230   -0.1010 C   0  0  0  0  0  0  0  0  0  0  0  0
    2.2380   10.3270   -1.0390 C   0  0  0  0  0  0  0  0  0  0  0  0
    1.4630   11.6300   -1.3410 C   0  0  1  0  0  0  0  0  0  0  0  0
    1.7140   12.5440   -0.1000 C   0  0  0  0  0  0  0  0  0  0  0  0
    1.8270   12.3580   -2.6760 C   0  0  2  0  0  0  0  0  0  0  0  0
    3.2790   12.8580   -2.7720 C   0  0  0  0  0  0  0  0  0  0  0  0
    3.5080   14.2490   -2.2790 C   0  0  0  0  0  0  0  0  0  0  0  0
    2.5490   15.1640   -2.0460 C   0  0  0  0  0  0  0  0  0  0  0  0
    1.0800   14.8660   -2.3730 C   0  0  1  0  0  0  0  0  0  0  0  0
    0.4620   16.0730   -3.1260 C   0  0  0  0  0  0  0  0  0  0  0  0
    0.6360   17.3860   -2.3690 C   0  0  0  0  0  0  0  0  0  0  0  0
    2.1130   17.6760   -2.1140 C   0  0  2  0  0  0  0  0  0  0  0  0
    2.7570   17.9240   -3.3680 O   0  0  0  0  0  0  0  0  0  0  0  0
    2.8440   16.5250   -1.3690 C   0  0  0  0  0  0  0  0  0  0  0  0
    2.3480   16.4560    0.0970 C   0  0  0  0  0  0  0  0  0  0  0  0
    4.3530   16.8820   -1.3010 C   0  0  0  0  0  0  0  0  0  0  0  0
    0.7990   13.4820   -3.1030 C   0  0  1  0  0  0  0  0  0  0  0  0
    0.9440   13.6560   -4.6460 C   0  0  0  0  0  0  0  0  0  0  0  0
   -0.6950   13.0570   -2.8430 C   0  0  0  0  0  0  0  0  0  0  0  0
   -0.9720   12.2380   -1.5680 C   0  0  0  0  0  0  0  0  0  0  0  0
    0.0010   11.0610   -1.4500 C   0  0  2  0  0  0  0  0  0  0  0  0
   -0.2440   10.1140   -2.6730 C   0  0  0  0  0  0  0  0  0  0  0  0
   -0.6262    7.1510    0.0908 H   0  0  0  0  0  0  0  0  0  0  0  0
   -1.6737    7.5245   -1.3198 H   0  0  0  0  0  0  0  0  0  0  0  0
    0.0485    8.0352   -1.3198 H   0  0  0  0  0  0  0  0  0  0  0  0
   -1.4616    9.0230    1.0101 H   0  0  0  0  0  0  0  0  0  0  0  0
   -2.4955   10.9086   -0.5330 H   0  0  0  0  0  0  0  0  0  0  0  0
   -2.5016    9.5418   -1.7474 H   0  0  0  0  0  0  0  0  0  0  0  0
   -3.7111    9.2176    1.0042 H   0  0  0  0  0  0  0  0  0  0  0  0
   -4.6326    9.9422   -0.3787 H   0  0  0  0  0  0  0  0  0  0  0  0
   -3.5725    7.4311    0.2142 H   0  0  0  0  0  0  0  0  0  0  0  0
   -6.8751    8.9029   -0.5115 H   0  0  0  0  0  0  0  0  0  0  0  0
   -6.1117    9.4178   -2.0539 H   0  0  0  0  0  0  0  0  0  0  0  0
   -7.3432    8.1100   -2.0539 H   0  0  0  0  0  0  0  0  0  0  0  0
   -5.9621    5.7316   -0.3063 H   0  0  0  0  0  0  0  0  0  0  0  0
   -6.8133    6.0206   -1.8615 H   0  0  0  0  0  0  0  0  0  0  0  0
   -5.0893    5.5164   -1.8615 H   0  0  0  0  0  0  0  0  0  0  0  0
   -0.3204   10.8576    0.7027 H   0  0  0  0  0  0  0  0  0  0  0  0
    1.6916    9.5392    0.9276 H   0  0  0  0  0  0  0  0  0  0  0  0
    1.2345    8.4716   -0.4171 H   0  0  0  0  0  0  0  0  0  0  0  0
    3.1916   10.5497   -0.5380 H   0  0  0  0  0  0  0  0  0  0  0  0
    2.4899    9.7703   -1.9537 H   0  0  0  0  0  0  0  0  0  0  0  0
    1.5547   11.9638    0.8209 H   0  0  0  0  0  0  0  0  0  0  0  0
    2.7481   12.9182   -0.1233 H   0  0  0  0  0  0  0  0  0  0  0  0
    1.0160   13.3938   -0.1233 H   0  0  0  0  0  0  0  0  0  0  0  0
    1.7404   11.5490   -3.4163 H   0  0  0  0  0  0  0  0  0  0  0  0
    3.9120   12.1794   -2.1814 H   0  0  0  0  0  0  0  0  0  0  0  0
    3.5267   12.8700   -3.8437 H   0  0  0  0  0  0  0  0  0  0  0  0
    4.5487   14.5513   -2.0903 H   0  0  0  0  0  0  0  0  0  0  0  0
    0.5743   14.7313   -1.4055 H   0  0  0  0  0  0  0  0  0  0  0  0
    0.9507   16.1642   -4.1072 H   0  0  0  0  0  0  0  0  0  0  0  0
   -0.6173   15.8864   -3.2271 H   0  0  0  0  0  0  0  0  0  0  0  0
    0.2057   18.2048   -2.9644 H   0  0  0  0  0  0  0  0  0  0  0  0
    0.1215   17.3041   -1.4002 H   0  0  0  0  0  0  0  0  0  0  0  0
    2.1678   18.5574   -1.4581 H   0  0  0  0  0  0  0  0  0  0  0  0
    3.6450   18.2710   -3.1780 H   0  0  0  0  0  0  0  0  0  0  0  0
    3.2027   16.5749    0.7792 H   0  0  0  0  0  0  0  0  0  0  0  0
    1.6208   17.2616    0.2764 H   0  0  0  0  0  0  0  0  0  0  0  0
    1.8683   15.4825    0.2764 H   0  0  0  0  0  0  0  0  0  0  0  0
    4.6653   16.9559   -0.2488 H   0  0  0  0  0  0  0  0  0  0  0  0
    4.9384   16.0975   -1.8030 H   0  0  0  0  0  0  0  0  0  0  0  0
    4.5248   17.8456   -1.8030 H   0  0  0  0  0  0  0  0  0  0  0  0
    1.6350   14.4852   -4.8582 H   0  0  0  0  0  0  0  0  0  0  0  0
    1.3396   12.7278   -5.0841 H   0  0  0  0  0  0  0  0  0  0  0  0
   -0.0403   13.8778   -5.0841 H   0  0  0  0  0  0  0  0  0  0  0  0
   -1.2973   13.9757   -2.7858 H   0  0  0  0  0  0  0  0  0  0  0  0
   -0.9533   12.3878   -3.6769 H   0  0  0  0  0  0  0  0  0  0  0  0
   -0.8565   12.8898   -0.6895 H   0  0  0  0  0  0  0  0  0  0  0  0
   -1.9968   11.8418   -1.6215 H   0  0  0  0  0  0  0  0  0  0  0  0
   -0.5042    9.1082   -2.3116 H   0  0  0  0  0  0  0  0  0  0  0  0
   -1.0695   10.5093   -3.2832 H   0  0  0  0  0  0  0  0  0  0  0  0
    0.6696   10.0594   -3.2832 H   0  0  0  0  0  0  0  0  0  0  0  0
  1  2  1  0
  2  3  1  0
  3  4  1  0
  4  5  1  0
  5  6  1  0
  6  7  1  0
  7  8  1  0
  7  9  1  0
  2 10  1  0
 10 11  1  0
 11 12  1  0
 12 13  1  0
 13 14  1  1
 13 15  1  0
 15 16  1  0
 16 17  1  0
 17 18  2  0
 18 19  1  0
 19 20  1  0
 20 21  1  0
 21 22  1  0
 22 23  1  0
 22 24  1  0
 24 25  1  0
 24 26  1  0
 19 27  1  0
 27 28  1  6
 27 29  1  0
 29 30  1  0
 30 31  1  0
 31 32  1  6
  7  5  1  0
 31 10  1  0
 31 13  1  0
 27 15  1  0
 24 18  1  0
  1 33  1  0
  1 34  1  0
  1 35  1  0
  2 36  1  1
  3 37  1  0
  3 38  1  0
  4 39  1  0
  4 40  1  0
  5 41  1  1
  8 42  1  0
  8 43  1  0
  8 44  1  0
  9 45  1  0
  9 46  1  0
  9 47  1  0
 10 48  1  1
 11 49  1  0
 11 50  1  0
 12 51  1  0
 12 52  1  0
 14 53  1  0
 14 54  1  0
 14 55  1  0
 15 56  1  6
 16 57  1  0
 16 58  1  0
 17 59  1  0
 19 60  1  1
 20 61  1  0
 20 62  1  0
 21 63  1  0
 21 64  1  0
 22 65  1  1
 23 66  1  0
 25 67  1  0
 25 68  1  0
 25 69  1  0
 26 70  1  0
 26 71  1  0
 26 72  1  0
 28 73  1  0
 28 74  1  0
 28 75  1  0
 29 76  1  0
 29 77  1  0
 30 78  1  0
 30 79  1  0
 32 80  1  0
 32 81  1  0
 32 82  1  0
M  END
>  <meeko>  (6) 
{"is_sidechain": [false], "intermolecular_energy": 2.731, "internal_energy": -0.839}

$$$$
EPH_relaxed_0001_pdb2pqr_Repair_147_r2_0001_out
     RDKit          3D

 82 86  0  0  0  0  0  0  0  0999 V2000
    3.6720   17.9520   -1.3650 C   0  0  0  0  0  0  0  0  0  0  0  0
    2.6440   17.4810   -2.3980 C   0  0  2  0  0  0  0  0  0  0  0  0
    1.2220   17.9790   -2.0700 C   0  0  0  0  0  0  0  0  0  0  0  0
    1.1500   18.8590   -0.8200 C   0  0  0  0  0  0  0  0  0  0  0  0
   -0.1040   19.6790   -0.7900 C   0  0  2  0  0  0  0  0  0  0  0  0
   -0.4520   20.1940    0.5020 O   0  0  0  0  0  0  0  0  0  0  0  0
   -1.3680   19.2480   -0.0710 C   0  0  0  0  0  0  0  0  0  0  0  0
   -1.4410   17.9480    0.6680 C   0  0  0  0  0  0  0  0  0  0  0  0
   -2.6720   19.8510   -0.4920 C   0  0  0  0  0  0  0  0  0  0  0  0
    2.6560   15.9600   -2.4870 C   0  0  1  0  0  0  0  0  0  0  0  0
    4.0870   15.3820   -2.6500 C   0  0  0  0  0  0  0  0  0  0  0  0
    4.1170   14.0370   -1.8790 C   0  0  0  0  0  0  0  0  0  0  0  0
    2.6320   13.7240   -1.5830 C   0  0  1  0  0  0  0  0  0  0  0  0
    2.0820   13.1000   -2.9040 C   0  0  0  0  0  0  0  0  0  0  0  0
    2.3520   12.8050   -0.3500 C   0  0  2  0  0  0  0  0  0  0  0  0
    2.9310   11.3830   -0.4510 C   0  0  0  0  0  0  0  0  0  0  0  0
    2.0230   10.3660   -1.0610 C   0  0  0  0  0  0  0  0  0  0  0  0
    0.6990   10.5130   -1.2480 C   0  0  0  0  0  0  0  0  0  0  0  0
   -0.0350   11.7610   -0.7400 C   0  0  1  0  0  0  0  0  0  0  0  0
   -1.3350   11.3350   -0.0070 C   0  0  0  0  0  0  0  0  0  0  0  0
   -2.2260   10.4440   -0.8670 C   0  0  0  0  0  0  0  0  0  0  0  0
   -1.4790    9.1860   -1.3050 C   0  0  2  0  0  0  0  0  0  0  0  0
   -1.2160    8.3820   -0.1510 O   0  0  0  0  0  0  0  0  0  0  0  0
   -0.1470    9.4900   -2.0460 C   0  0  0  0  0  0  0  0  0  0  0  0
   -0.4530   10.0930   -3.4390 C   0  0  0  0  0  0  0  0  0  0  0  0
    0.5730    8.1400   -2.3060 C   0  0  0  0  0  0  0  0  0  0  0  0
    0.8380   12.7810    0.1110 C   0  0  1  0  0  0  0  0  0  0  0  0
    0.8360   12.3600    1.6120 C   0  0  0  0  0  0  0  0  0  0  0  0
    0.1710   14.2050    0.0480 C   0  0  0  0  0  0  0  0  0  0  0  0
    0.5790   15.1120   -1.1290 C   0  0  0  0  0  0  0  0  0  0  0  0
    2.1020   15.1720   -1.2730 C   0  0  2  0  0  0  0  0  0  0  0  0
    2.6820   15.8160    0.0320 C   0  0  0  0  0  0  0  0  0  0  0  0
    3.2822   17.7734   -0.3520 H   0  0  0  0  0  0  0  0  0  0  0  0
    4.6102   17.3939   -1.5005 H   0  0  0  0  0  0  0  0  0  0  0  0
    3.8620   19.0270   -1.5005 H   0  0  0  0  0  0  0  0  0  0  0  0
    2.9289   17.9120   -3.3691 H   0  0  0  0  0  0  0  0  0  0  0  0
    0.8523   18.5618   -2.9265 H   0  0  0  0  0  0  0  0  0  0  0  0
    0.6080   17.0883   -1.8712 H   0  0  0  0  0  0  0  0  0  0  0  0
    1.1759   18.2148    0.0713 H   0  0  0  0  0  0  0  0  0  0  0  0
    2.0086   19.5465   -0.8351 H   0  0  0  0  0  0  0  0  0  0  0  0
    0.0769   20.0360   -1.8146 H   0  0  0  0  0  0  0  0  0  0  0  0
   -1.4302   18.1407    1.7509 H   0  0  0  0  0  0  0  0  0  0  0  0
   -2.3700   17.4244    0.3980 H   0  0  0  0  0  0  0  0  0  0  0  0
   -0.5765   17.3237    0.3980 H   0  0  0  0  0  0  0  0  0  0  0  0
   -3.2561   20.1211    0.4001 H   0  0  0  0  0  0  0  0  0  0  0  0
   -2.4821   20.7527   -1.0927 H   0  0  0  0  0  0  0  0  0  0  0  0
   -3.2360   19.1223   -1.0927 H   0  0  0  0  0  0  0  0  0  0  0  0
    1.9981   15.8213   -3.3576 H   0  0  0  0  0  0  0  0  0  0  0  0
    4.3085   15.2135   -3.7142 H   0  0  0  0  0  0  0  0  0  0  0  0
    4.8416   16.0793   -2.2571 H   0  0  0  0  0  0  0  0  0  0  0  0
    4.5651   13.2450   -2.4970 H   0  0  0  0  0  0  0  0  0  0  0  0
    4.7219   14.0951   -0.9621 H   0  0  0  0  0  0  0  0  0  0  0  0
    1.3725   12.2951   -2.6617 H   0  0  0  0  0  0  0  0  0  0  0  0
    1.5692   13.8765   -3.4906 H   0  0  0  0  0  0  0  0  0  0  0  0
    2.9167   12.6887   -3.4906 H   0  0  0  0  0  0  0  0  0  0  0  0
    2.9209   13.3034    0.4488 H   0  0  0  0  0  0  0  0  0  0  0  0
    3.8456   11.4310   -1.0603 H   0  0  0  0  0  0  0  0  0  0  0  0
    3.1072   11.0521    0.5832 H   0  0  0  0  0  0  0  0  0  0  0  0
    2.4750    9.4168   -1.3846 H   0  0  0  0  0  0  0  0  0  0  0  0
   -0.2860   12.3506   -1.6341 H   0  0  0  0  0  0  0  0  0  0  0  0
   -1.0613   10.7846    0.9053 H   0  0  0  0  0  0  0  0  0  0  0  0
   -1.9017   12.2485    0.2261 H   0  0  0  0  0  0  0  0  0  0  0  0
   -3.1125   10.1520   -0.2848 H   0  0  0  0  0  0  0  0  0  0  0  0
   -2.5235   11.0062   -1.7644 H   0  0  0  0  0  0  0  0  0  0  0  0
   -2.1209    8.6538   -2.0224 H   0  0  0  0  0  0  0  0  0  0  0  0
   -1.9390    7.7380   -0.0690 H   0  0  0  0  0  0  0  0  0  0  0  0
   -0.9477   11.0678   -3.3160 H   0  0  0  0  0  0  0  0  0  0  0  0
    0.4866   10.2262   -3.9953 H   0  0  0  0  0  0  0  0  0  0  0  0
   -1.1153    9.4134   -3.9953 H   0  0  0  0  0  0  0  0  0  0  0  0
    0.8249    7.6677   -1.3450 H   0  0  0  0  0  0  0  0  0  0  0  0
   -0.0903    7.4750   -2.8786 H   0  0  0  0  0  0  0  0  0  0  0  0
    1.4947    8.3204   -2.8786 H   0  0  0  0  0  0  0  0  0  0  0  0
    0.8403   13.2595    2.2451 H   0  0  0  0  0  0  0  0  0  0  0  0
   -0.0650   11.7660    1.8250 H   0  0  0  0  0  0  0  0  0  0  0  0
    1.7313   11.7574    1.8250 H   0  0  0  0  0  0  0  0  0  0  0  0
   -0.9181   14.0602   -0.0055 H   0  0  0  0  0  0  0  0  0  0  0  0
    0.5229   14.7278    0.9496 H   0  0  0  0  0  0  0  0  0  0  0  0
    0.1453   14.7130   -2.0578 H   0  0  0  0  0  0  0  0  0  0  0  0
    0.2050   16.1280   -0.9345 H   0  0  0  0  0  0  0  0  0  0  0  0
    2.2396   15.3248    0.9112 H   0  0  0  0  0  0  0  0  0  0  0  0
    3.7742   15.6867    0.0506 H   0  0  0  0  0  0  0  0  0  0  0  0
    2.4395   16.8888    0.0506 H   0  0  0  0  0  0  0  0  0  0  0  0
  1  2  1  0
  2  3  1  0
  3  4  1  0
  4  5  1  0
  5  6  1  0
  6  7  1  0
  7  8  1  0
  7  9  1  0
  2 10  1  0
 10 11  1  0
 11 12  1  0
 12 13  1  0
 13 14  1  6
 13 15  1  0
 15 16  1  0
 16 17  1  0
 17 18  2  0
 18 19  1  0
 19 20  1  0
 20 21  1  0
 21 22  1  0
 22 23  1  0
 22 24  1  0
 24 25  1  0
 24 26  1  0
 19 27  1  0
 27 28  1  1
 27 29  1  0
 29 30  1  0
 30 31  1  0
 31 32  1  1
  7  5  1  0
 31 10  1  0
 31 13  1  0
 27 15  1  0
 24 18  1  0
  1 33  1  0
  1 34  1  0
  1 35  1  0
  2 36  1  6
  3 37  1  0
  3 38  1  0
  4 39  1  0
  4 40  1  0
  5 41  1  6
  8 42  1  0
  8 43  1  0
  8 44  1  0
  9 45  1  0
  9 46  1  0
  9 47  1  0
 10 48  1  6
 11 49  1  0
 11 50  1  0
 12 51  1  0
 12 52  1  0
 14 53  1  0
 14 54  1  0
 14 55  1  0
 15 56  1  1
 16 57  1  0
 16 58  1  0
 17 59  1  0
 19 60  1  6
 20 61  1  0
 20 62  1  0
 21 63  1  0
 21 64  1  0
 22 65  1  6
 23 66  1  0
 25 67  1  0
 25 68  1  0
 25 69  1  0
 26 70  1  0
 26 71  1  0
 26 72  1  0
 28 73  1  0
 28 74  1  0
 28 75  1  0
 29 76  1  0
 29 77  1  0
 30 78  1  0
 30 79  1  0
 32 80  1  0
 32 81  1  0
 32 82  1  0
M  END
>  <meeko>  (7) 
{"is_sidechain": [false], "intermolecular_energy": 2.731, "internal_energy": -0.839}

$$$$
EPH_relaxed_0001_pdb2pqr_Repair_147_r2_0001_out
     RDKit          3D

 82 86  0  0  0  0  0  0  0  0999 V2000
   -2.2070    7.5140   -3.1570 C   0  0  0  0  0  0  0  0  0  0  0  0
   -2.6960    7.8180   -1.7380 C   0  0  2  0  0  0  0  0  0  0  0  0
   -4.2330    7.7670   -1.6300 C   0  0  0  0  0  0  0  0  0  0  0  0
   -4.8490    6.4910   -2.2090 C   0  0  0  0  0  0  0  0  0  0  0  0
   -6.0810    6.7830   -3.0100 C   0  0  2  0  0  0  0  0  0  0  0  0
   -6.7600    7.9920   -2.6450 O   0  0  0  0  0  0  0  0  0  0  0  0
   -7.4820    6.7690   -2.4260 C   0  0  0  0  0  0  0  0  0  0  0  0
   -7.7220    6.4540   -0.9830 C   0  0  0  0  0  0  0  0  0  0  0  0
   -8.6410    6.5800   -3.3530 C   0  0  0  0  0  0  0  0  0  0  0  0
   -2.1880    9.1850   -1.2950 C   0  0  1  0  0  0  0  0  0  0  0  0
   -2.8010    9.6420    0.0560 C   0  0  0  0  0  0  0  0  0  0  0  0
   -1.6990   10.4380    0.8010 C   0  0  0  0  0  0  0  0  0  0  0  0
   -0.6130   10.6970   -0.2700 C   0  0  1  0  0  0  0  0  0  0  0  0
   -1.1320   11.9280   -1.0770 C   0  0  0  0  0  0  0  0  0  0  0  0
    0.8400   10.9250    0.2600 C   0  0  2  0  0  0  0  0  0  0  0  0
    1.0200   12.1620    1.1580 C   0  0  0  0  0  0  0  0  0  0  0  0
    1.3830   13.4210    0.4440 C   0  0  0  0  0  0  0  0  0  0  0  0
    1.8360   13.5000   -0.8220 C   0  0  0  0  0  0  0  0  0  0  0  0
    2.1160   12.2320   -1.6380 C   0  0  1  0  0  0  0  0  0  0  0  0
    3.4930   12.3630   -2.3410 C   0  0  0  0  0  0  0  0  0  0  0  0
    3.6050   13.6330   -3.1790 C   0  0  0  0  0  0  0  0  0  0  0  0
    3.3770   14.8740   -2.3200 C   0  0  2  0  0  0  0  0  0  0  0  0
    4.4550   14.9930   -1.3870 O   0  0  0  0  0  0  0  0  0  0  0  0
    2.0240   14.8510   -1.5550 C   0  0  0  0  0  0  0  0  0  0  0  0
    0.8570   15.0270   -2.5580 C   0  0  0  0  0  0  0  0  0  0  0  0
    1.9830   16.0890   -0.6200 C   0  0  0  0  0  0  0  0  0  0  0  0
    1.9560   10.8560   -0.8590 C   0  0  1  0  0  0  0  0  0  0  0  0
    3.2900   10.4960   -0.1360 C   0  0  0  0  0  0  0  0  0  0  0  0
    1.6910    9.7040   -1.8990 C   0  0  0  0  0  0  0  0  0  0  0  0
    0.2230    9.4480   -2.2920 C   0  0  0  0  0  0  0  0  0  0  0  0
   -0.6650    9.3330   -1.0500 C   0  0  2  0  0  0  0  0  0  0  0  0
   -0.1810    8.0890   -0.2290 C   0  0  0  0  0  0  0  0  0  0  0  0
   -1.2738    6.9338   -3.1068 H   0  0  0  0  0  0  0  0  0  0  0  0
   -2.9722    6.9321   -3.6917 H   0  0  0  0  0  0  0  0  0  0  0  0
   -2.0238    8.4577   -3.6917 H   0  0  0  0  0  0  0  0  0  0  0  0
   -2.2925    7.0385   -1.0750 H   0  0  0  0  0  0  0  0  0  0  0  0
   -4.5088    7.8344   -0.5673 H   0  0  0  0  0  0  0  0  0  0  0  0
   -4.6246    8.6090   -2.2197 H   0  0  0  0  0  0  0  0  0  0  0  0
   -4.1090    6.0015   -2.8592 H   0  0  0  0  0  0  0  0  0  0  0  0
   -5.1324    5.8370   -1.3712 H   0  0  0  0  0  0  0  0  0  0  0  0
   -5.6468    6.2998   -3.8977 H   0  0  0  0  0  0  0  0  0  0  0  0
   -7.1747    7.1723   -0.3549 H   0  0  0  0  0  0  0  0  0  0  0  0
   -8.7983    6.5234   -0.7666 H   0  0  0  0  0  0  0  0  0  0  0  0
   -7.3695    5.4347   -0.7666 H   0  0  0  0  0  0  0  0  0  0  0  0
   -9.5593    6.4303   -2.7662 H   0  0  0  0  0  0  0  0  0  0  0  0
   -8.7525    7.4718   -3.9872 H   0  0  0  0  0  0  0  0  0  0  0  0
   -8.4634    5.6990   -3.9872 H   0  0  0  0  0  0  0  0  0  0  0  0
   -2.4889    9.7843   -2.1670 H   0  0  0  0  0  0  0  0  0  0  0  0
   -3.6763   10.2837   -0.1230 H   0  0  0  0  0  0  0  0  0  0  0  0
   -3.1346    8.7786    0.6504 H   0  0  0  0  0  0  0  0  0  0  0  0
   -2.0990   11.3876    1.1860 H   0  0  0  0  0  0  0  0  0  0  0  0
   -1.3053    9.8914    1.6706 H   0  0  0  0  0  0  0  0  0  0  0  0
   -1.4622   12.7113   -0.3789 H   0  0  0  0  0  0  0  0  0  0  0  0
   -0.3222   12.3191   -1.7104 H   0  0  0  0  0  0  0  0  0  0  0  0
   -1.9774   11.6212   -1.7104 H   0  0  0  0  0  0  0  0  0  0  0  0
    0.9915   10.0549    0.9158 H   0  0  0  0  0  0  0  0  0  0  0  0
    0.0740   12.3348    1.6920 H   0  0  0  0  0  0  0  0  0  0  0  0
    1.8663   11.9346    1.8229 H   0  0  0  0  0  0  0  0  0  0  0  0
    1.2712   14.3644    0.9985 H   0  0  0  0  0  0  0  0  0  0  0  0
    1.3165   12.1719   -2.3911 H   0  0  0  0  0  0  0  0  0  0  0  0
    4.2807   12.3768   -1.5733 H   0  0  0  0  0  0  0  0  0  0  0  0
    3.6036   11.5047   -3.0201 H   0  0  0  0  0  0  0  0  0  0  0  0
    4.6094   13.6830   -3.6247 H   0  0  0  0  0  0  0  0  0  0  0  0
    2.8367   13.6040   -3.9657 H   0  0  0  0  0  0  0  0  0  0  0  0
    3.3392   15.7404   -2.9967 H   0  0  0  0  0  0  0  0  0  0  0  0
    4.1930   15.6450   -0.7150 H   0  0  0  0  0  0  0  0  0  0  0  0
   -0.0834   15.1688   -2.0052 H   0  0  0  0  0  0  0  0  0  0  0  0
    1.0467   15.9067   -3.1906 H   0  0  0  0  0  0  0  0  0  0  0  0
    0.7788   14.1305   -3.1906 H   0  0  0  0  0  0  0  0  0  0  0  0
    1.9940   15.7570    0.4287 H   0  0  0  0  0  0  0  0  0  0  0  0
    2.8606   16.7235   -0.8130 H   0  0  0  0  0  0  0  0  0  0  0  0
    1.0653   16.6640   -0.8130 H   0  0  0  0  0  0  0  0  0  0  0  0
    3.1394   10.5366    0.9529 H   0  0  0  0  0  0  0  0  0  0  0  0
    3.6018    9.4816   -0.4255 H   0  0  0  0  0  0  0  0  0  0  0  0
    4.0698   11.2158   -0.4255 H   0  0  0  0  0  0  0  0  0  0  0  0
    2.2433    9.9512   -2.8176 H   0  0  0  0  0  0  0  0  0  0  0  0
    2.0202    8.7818   -1.3978 H   0  0  0  0  0  0  0  0  0  0  0  0
   -0.1339   10.2825   -2.9134 H   0  0  0  0  0  0  0  0  0  0  0  0
    0.1694    8.5017   -2.8502 H   0  0  0  0  0  0  0  0  0  0  0  0
   -0.2648    8.3043    0.8465 H   0  0  0  0  0  0  0  0  0  0  0  0
   -0.8063    7.2191   -0.4786 H   0  0  0  0  0  0  0  0  0  0  0  0
    0.8678    7.8704   -0.4786 H   0  0  0  0  0  0  0  0  0  0  0  0
  1  2  1  0
  2  3  1  0
  3  4  1  0
  4  5  1  0
  5  6  1  0
  6  7  1  0
  7  8  1  0
  7  9  1  0
  2 10  1  0
 10 11  1  0
 11 12  1  0
 12 13  1  0
 13 14  1  6
 13 15  1  0
 15 16  1  0
 16 17  1  0
 17 18  2  0
 18 19  1  0
 19 20  1  0
 20 21  1  0
 21 22  1  0
 22 23  1  0
 22 24  1  0
 24 25  1  0
 24 26  1  0
 19 27  1  0
 27 28  1  1
 27 29  1  0
 29 30  1  0
 30 31  1  0
 31 32  1  1
  7  5  1  0
 31 10  1  0
 31 13  1  0
 27 15  1  0
 24 18  1  0
  1 33  1  0
  1 34  1  0
  1 35  1  0
  2 36  1  1
  3 37  1  0
  3 38  1  0
  4 39  1  0
  4 40  1  0
  5 41  1  6
  8 42  1  0
  8 43  1  0
  8 44  1  0
  9 45  1  0
  9 46  1  0
  9 47  1  0
 10 48  1  6
 11 49  1  0
 11 50  1  0
 12 51  1  0
 12 52  1  0
 14 53  1  0
 14 54  1  0
 14 55  1  0
 15 56  1  1
 16 57  1  0
 16 58  1  0
 17 59  1  0
 19 60  1  6
 20 61  1  0
 20 62  1  0
 21 63  1  0
 21 64  1  0
 22 65  1  6
 23 66  1  0
 25 67  1  0
 25 68  1  0
 25 69  1  0
 26 70  1  0
 26 71  1  0
 26 72  1  0
 28 73  1  0
 28 74  1  0
 28 75  1  0
 29 76  1  0
 29 77  1  0
 30 78  1  0
 30 79  1  0
 32 80  1  0
 32 81  1  0
 32 82  1  0
M  END
>  <meeko>  (8) 
{"is_sidechain": [false], "intermolecular_energy": 2.731, "internal_energy": -0.839}

$$$$
EPH_relaxed_0001_pdb2pqr_Repair_147_r2_0001_out
     RDKit          3D

 82 86  0  0  0  0  0  0  0  0999 V2000
    3.4580   18.3700    0.2920 C   0  0  0  0  0  0  0  0  0  0  0  0
    3.6570   17.1260   -0.5770 C   0  0  2  0  0  0  0  0  0  0  0  0
    3.8860   17.4830   -2.0600 C   0  0  0  0  0  0  0  0  0  0  0  0
    5.2680   17.0850   -2.5830 C   0  0  0  0  0  0  0  0  0  0  0  0
    5.3150   15.6410   -2.9820 C   0  0  2  0  0  0  0  0  0  0  0  0
    6.4280   14.9090   -2.4520 O   0  0  0  0  0  0  0  0  0  0  0  0
    6.3880   15.0560   -3.8810 C   0  0  0  0  0  0  0  0  0  0  0  0
    7.4890   15.9040   -4.4360 C   0  0  0  0  0  0  0  0  0  0  0  0
    6.0950   13.7810   -4.6090 C   0  0  0  0  0  0  0  0  0  0  0  0
    2.4530   16.2000   -0.4440 C   0  0  1  0  0  0  0  0  0  0  0  0
    1.1080   16.9730   -0.4050 C   0  0  0  0  0  0  0  0  0  0  0  0
    0.0630   16.0890   -1.1350 C   0  0  0  0  0  0  0  0  0  0  0  0
    0.7490   14.7100   -1.2740 C   0  0  1  0  0  0  0  0  0  0  0  0
    0.5500   14.0210    0.1120 C   0  0  0  0  0  0  0  0  0  0  0  0
    0.2470   13.8040   -2.4460 C   0  0  2  0  0  0  0  0  0  0  0  0
   -1.2300   13.3840   -2.3600 C   0  0  0  0  0  0  0  0  0  0  0  0
   -1.4880   12.1050   -1.6340 C   0  0  0  0  0  0  0  0  0  0  0  0
   -0.5590   11.1820   -1.3230 C   0  0  0  0  0  0  0  0  0  0  0  0
    0.8930   11.3350   -1.7930 C   0  0  1  0  0  0  0  0  0  0  0  0
    1.3910    9.9890   -2.3820 C   0  0  0  0  0  0  0  0  0  0  0  0
    1.2120    8.8250   -1.4120 C   0  0  0  0  0  0  0  0  0  0  0  0
   -0.2530    8.6680   -1.0130 C   0  0  2  0  0  0  0  0  0  0  0  0
   -1.0040    8.2650   -2.1630 O   0  0  0  0  0  0  0  0  0  0  0  0
   -0.8670    9.9650   -0.4160 C   0  0  0  0  0  0  0  0  0  0  0  0
   -0.2570   10.2340    0.9820 C   0  0  0  0  0  0  0  0  0  0  0  0
   -2.3820    9.7140   -0.1880 C   0  0  0  0  0  0  0  0  0  0  0  0
    1.1830   12.5660   -2.7550 C   0  0  1  0  0  0  0  0  0  0  0  0
    0.9110   12.1610   -4.2360 C   0  0  0  0  0  0  0  0  0  0  0  0
    2.7120   12.9360   -2.6700 C   0  0  0  0  0  0  0  0  0  0  0  0
    3.1260   13.9280   -1.5660 C   0  0  0  0  0  0  0  0  0  0  0  0
    2.2230   15.1650   -1.5740 C   0  0  2  0  0  0  0  0  0  0  0  0
    2.4190   15.8920   -2.9480 C   0  0  0  0  0  0  0  0  0  0  0  0
    3.5033   18.0866    1.3539 H   0  0  0  0  0  0  0  0  0  0  0  0
    4.2507   19.1006    0.0733 H   0  0  0  0  0  0  0  0  0  0  0  0
    2.4769   18.8169    0.0733 H   0  0  0  0  0  0  0  0  0  0  0  0
    4.5615   16.6135   -0.2176 H   0  0  0  0  0  0  0  0  0  0  0  0
    3.1247   16.9665   -2.6630 H   0  0  0  0  0  0  0  0  0  0  0  0
    3.8148   18.5777   -2.1415 H   0  0  0  0  0  0  0  0  0  0  0  0
    5.5098   17.7049   -3.4589 H   0  0  0  0  0  0  0  0  0  0  0  0
    5.9984   17.2416   -1.7755 H   0  0  0  0  0  0  0  0  0  0  0  0
    4.2167   15.5901   -3.0148 H   0  0  0  0  0  0  0  0  0  0  0  0
    8.0635   16.3465   -3.6089 H   0  0  0  0  0  0  0  0  0  0  0  0
    8.1545   15.2829   -5.0536 H   0  0  0  0  0  0  0  0  0  0  0  0
    7.0584   16.7060   -5.0536 H   0  0  0  0  0  0  0  0  0  0  0  0
    5.9103   12.9773   -3.8811 H   0  0  0  0  0  0  0  0  0  0  0  0
    5.2044   13.9156   -5.2404 H   0  0  0  0  0  0  0  0  0  0  0  0
    6.9550   13.5133   -5.2404 H   0  0  0  0  0  0  0  0  0  0  0  0
    2.7192   15.6836    0.4901 H   0  0  0  0  0  0  0  0  0  0  0  0
    0.7988   17.1430    0.6369 H   0  0  0  0  0  0  0  0  0  0  0  0
    1.2027   17.9555   -0.8906 H   0  0  0  0  0  0  0  0  0  0  0  0
   -0.8589   16.0062   -0.5406 H   0  0  0  0  0  0  0  0  0  0  0  0
   -0.2320   16.5086   -2.1081 H   0  0  0  0  0  0  0  0  0  0  0  0
    0.7588   14.7440    0.9143 H   0  0  0  0  0  0  0  0  0  0  0  0
   -0.4874   13.6659    0.1994 H   0  0  0  0  0  0  0  0  0  0  0  0
    1.2383   13.1674    0.1994 H   0  0  0  0  0  0  0  0  0  0  0  0
    0.3150   14.4796   -3.3114 H   0  0  0  0  0  0  0  0  0  0  0  0
   -1.7816   14.1844   -1.8451 H   0  0  0  0  0  0  0  0  0  0  0  0
   -1.5600   13.2178   -3.3961 H   0  0  0  0  0  0  0  0  0  0  0  0
   -2.5243   11.8998   -1.3276 H   0  0  0  0  0  0  0  0  0  0  0  0
    1.4781   11.5894   -0.8969 H   0  0  0  0  0  0  0  0  0  0  0  0
    0.8237    9.7740   -3.2996 H   0  0  0  0  0  0  0  0  0  0  0  0
    2.4670   10.0913   -2.5865 H   0  0  0  0  0  0  0  0  0  0  0  0
    1.5550    7.8980   -1.8948 H   0  0  0  0  0  0  0  0  0  0  0  0
    1.8027    9.0283   -0.5066 H   0  0  0  0  0  0  0  0  0  0  0  0
   -0.2995    7.9055   -0.2216 H   0  0  0  0  0  0  0  0  0  0  0  0
   -0.3700    7.9890   -2.8460 H   0  0  0  0  0  0  0  0  0  0  0  0
   -0.9691    9.9200    1.7594 H   0  0  0  0  0  0  0  0  0  0  0  0
    0.6781    9.6648    1.0898 H   0  0  0  0  0  0  0  0  0  0  0  0
   -0.0467   11.3083    1.0898 H   0  0  0  0  0  0  0  0  0  0  0  0
   -2.5895    9.6796    0.8917 H   0  0  0  0  0  0  0  0  0  0  0  0
   -2.9617   10.5283   -0.6471 H   0  0  0  0  0  0  0  0  0  0  0  0
   -2.6681    8.7562   -0.6471 H   0  0  0  0  0  0  0  0  0  0  0  0
    0.2979   11.2480   -4.2598 H   0  0  0  0  0  0  0  0  0  0  0  0
    0.3760   12.9754   -4.7465 H   0  0  0  0  0  0  0  0  0  0  0  0
    1.8672   11.9739   -4.7465 H   0  0  0  0  0  0  0  0  0  0  0  0
    3.2716   12.0032   -2.5063 H   0  0  0  0  0  0  0  0  0  0  0  0
    2.9374   13.4484   -3.6169 H   0  0  0  0  0  0  0  0  0  0  0  0
    3.0471   13.4312   -0.5878 H   0  0  0  0  0  0  0  0  0  0  0  0
    4.1616   14.2484   -1.7527 H   0  0  0  0  0  0  0  0  0  0  0  0
    2.7016   16.9403   -2.7711 H   0  0  0  0  0  0  0  0  0  0  0  0
    3.2137   15.3893   -3.5188 H   0  0  0  0  0  0  0  0  0  0  0  0
    1.4793   15.8569   -3.5188 H   0  0  0  0  0  0  0  0  0  0  0  0
  1  2  1  0
  2  3  1  0
  3  4  1  0
  4  5  1  0
  5  6  1  0
  6  7  1  0
  7  8  1  0
  7  9  1  0
  2 10  1  0
 10 11  1  0
 11 12  1  0
 12 13  1  0
 13 14  1  1
 13 15  1  0
 15 16  1  0
 16 17  1  0
 17 18  2  0
 18 19  1  0
 19 20  1  0
 20 21  1  0
 21 22  1  0
 22 23  1  0
 22 24  1  0
 24 25  1  0
 24 26  1  0
 19 27  1  0
 27 28  1  6
 27 29  1  0
 29 30  1  0
 30 31  1  0
 31 32  1  6
  7  5  1  0
 31 10  1  0
 31 13  1  0
 27 15  1  0
 24 18  1  0
  1 33  1  0
  1 34  1  0
  1 35  1  0
  2 36  1  1
  3 37  1  0
  3 38  1  0
  4 39  1  0
  4 40  1  0
  5 41  1  6
  8 42  1  0
  8 43  1  0
  8 44  1  0
  9 45  1  0
  9 46  1  0
  9 47  1  0
 10 48  1  1
 11 49  1  0
 11 50  1  0
 12 51  1  0
 12 52  1  0
 14 53  1  0
 14 54  1  0
 14 55  1  0
 15 56  1  6
 16 57  1  0
 16 58  1  0
 17 59  1  0
 19 60  1  1
 20 61  1  0
 20 62  1  0
 21 63  1  0
 21 64  1  0
 22 65  1  1
 23 66  1  0
 25 67  1  0
 25 68  1  0
 25 69  1  0
 26 70  1  0
 26 71  1  0
 26 72  1  0
 28 73  1  0
 28 74  1  0
 28 75  1  0
 29 76  1  0
 29 77  1  0
 30 78  1  0
 30 79  1  0
 32 80  1  0
 32 81  1  0
 32 82  1  0
M  END
>  <meeko>  (9) 
{"is_sidechain": [false], "intermolecular_energy": 2.731, "internal_energy": -0.839}

$$$$
EPH_relaxed_0001_pdb2pqr_Repair_147_r2_0001_out
     RDKit          3D

 82 86  0  0  0  0  0  0  0  0999 V2000
    0.3140   17.8430   -0.1900 C   0  0  0  0  0  0  0  0  0  0  0  0
    1.2480   17.1420   -1.1790 C   0  0  2  0  0  0  0  0  0  0  0  0
    1.6380   18.0570   -2.3580 C   0  0  0  0  0  0  0  0  0  0  0  0
    3.1410   18.3350   -2.4490 C   0  0  0  0  0  0  0  0  0  0  0  0
    3.9520   17.1180   -2.1190 C   0  0  2  0  0  0  0  0  0  0  0  0
    5.1270   17.3750   -1.3400 O   0  0  0  0  0  0  0  0  0  0  0  0
    5.3450   16.8680   -2.6660 C   0  0  0  0  0  0  0  0  0  0  0  0
    6.0070   17.8410   -3.5890 C   0  0  0  0  0  0  0  0  0  0  0  0
    5.8590   15.4620   -2.6970 C   0  0  0  0  0  0  0  0  0  0  0  0
    0.5910   15.8700   -1.7030 C   0  0  1  0  0  0  0  0  0  0  0  0
    0.1650   15.9870   -3.1910 C   0  0  0  0  0  0  0  0  0  0  0  0
    0.3690   14.5870   -3.8250 C   0  0  0  0  0  0  0  0  0  0  0  0
    0.5840   13.6400   -2.6210 C   0  0  1  0  0  0  0  0  0  0  0  0
   -0.8520   13.3310   -2.0930 C   0  0  0  0  0  0  0  0  0  0  0  0
    1.3890   12.3310   -2.9070 C   0  0  2  0  0  0  0  0  0  0  0  0
    0.7350   11.3700   -3.9150 C   0  0  0  0  0  0  0  0  0  0  0  0
   -0.1760   10.3470   -3.3230 C   0  0  0  0  0  0  0  0  0  0  0  0
   -0.2410   10.0190   -2.0190 C   0  0  0  0  0  0  0  0  0  0  0  0
    0.7290   10.6340   -1.0030 C   0  0  1  0  0  0  0  0  0  0  0  0
    1.2980    9.5180   -0.0880 C   0  0  0  0  0  0  0  0  0  0  0  0
    0.2010    8.6920    0.5780 C   0  0  0  0  0  0  0  0  0  0  0  0
   -0.7080    8.0490   -0.4660 C   0  0  2  0  0  0  0  0  0  0  0  0
    0.0460    7.0770   -1.1970 O   0  0  0  0  0  0  0  0  0  0  0  0
   -1.3310    9.0770   -1.4510 C   0  0  0  0  0  0  0  0  0  0  0  0
   -2.3810    9.9400   -0.7080 C   0  0  0  0  0  0  0  0  0  0  0  0
   -2.1100    8.2860   -2.5360 C   0  0  0  0  0  0  0  0  0  0  0  0
    1.8660   11.5670   -1.6060 C   0  0  1  0  0  0  0  0  0  0  0  0
    3.0960   10.7040   -2.0230 C   0  0  0  0  0  0  0  0  0  0  0  0
    2.3730   12.5500   -0.4860 C   0  0  0  0  0  0  0  0  0  0  0  0
    1.6100   13.8800   -0.3330 C   0  0  0  0  0  0  0  0  0  0  0  0
    1.4380   14.5730   -1.6880 C   0  0  2  0  0  0  0  0  0  0  0  0
    2.8660   14.9170   -2.2340 C   0  0  0  0  0  0  0  0  0  0  0  0
    0.6263   17.6086    0.8384 H   0  0  0  0  0  0  0  0  0  0  0  0
    0.3613   18.9305   -0.3487 H   0  0  0  0  0  0  0  0  0  0  0  0
   -0.7169   17.4938   -0.3487 H   0  0  0  0  0  0  0  0  0  0  0  0
    2.1715   16.8879   -0.6381 H   0  0  0  0  0  0  0  0  0  0  0  0
    1.3166   17.5750   -3.2930 H   0  0  0  0  0  0  0  0  0  0  0  0
    1.1411   19.0244   -2.1928 H   0  0  0  0  0  0  0  0  0  0  0  0
    3.3824   18.6572   -3.4727 H   0  0  0  0  0  0  0  0  0  0  0  0
    3.3889   19.1199   -1.7193 H   0  0  0  0  0  0  0  0  0  0  0  0
    3.0470   16.4933   -2.0910 H   0  0  0  0  0  0  0  0  0  0  0  0
    6.5293   18.6087   -2.9992 H   0  0  0  0  0  0  0  0  0  0  0  0
    6.7319   17.3097   -4.2233 H   0  0  0  0  0  0  0  0  0  0  0  0
    5.2467   18.3202   -4.2233 H   0  0  0  0  0  0  0  0  0  0  0  0
    5.9922   15.0975   -1.6677 H   0  0  0  0  0  0  0  0  0  0  0  0
    5.1376   14.8194   -3.2230 H   0  0  0  0  0  0  0  0  0  0  0  0
    6.8247   15.4362   -3.2230 H   0  0  0  0  0  0  0  0  0  0  0  0
   -0.2402   15.7843   -0.9876 H   0  0  0  0  0  0  0  0  0  0  0  0
   -0.8918   16.2841   -3.2604 H   0  0  0  0  0  0  0  0  0  0  0  0
    0.7616   16.7487   -3.7143 H   0  0  0  0  0  0  0  0  0  0  0  0
   -0.5198   14.2881   -4.4001 H   0  0  0  0  0  0  0  0  0  0  0  0
    1.2153   14.5669   -4.5274 H   0  0  0  0  0  0  0  0  0  0  0  0
   -0.8464   13.3322   -0.9930 H   0  0  0  0  0  0  0  0  0  0  0  0
   -1.5498   14.0996   -2.4569 H   0  0  0  0  0  0  0  0  0  0  0  0
   -1.1719   12.3435   -2.4569 H   0  0  0  0  0  0  0  0  0  0  0  0
    2.2935   12.7134   -3.4027 H   0  0  0  0  0  0  0  0  0  0  0  0
    0.1526   11.9711   -4.6288 H   0  0  0  0  0  0  0  0  0  0  0  0
    1.5597   10.8099   -4.3799 H   0  0  0  0  0  0  0  0  0  0  0  0
   -0.8514    9.8162   -4.0101 H   0  0  0  0  0  0  0  0  0  0  0  0
    0.1342   11.3400   -0.4048 H   0  0  0  0  0  0  0  0  0  0  0  0
    1.9238    8.8482   -0.6961 H   0  0  0  0  0  0  0  0  0  0  0  0
    1.8807   10.0037    0.7086 H   0  0  0  0  0  0  0  0  0  0  0  0
    0.6648    7.9020    1.1870 H   0  0  0  0  0  0  0  0  0  0  0  0
   -0.4057    9.3581    1.2091 H   0  0  0  0  0  0  0  0  0  0  0  0
   -1.5467    7.5800    0.0694 H   0  0  0  0  0  0  0  0  0  0  0  0
   -0.0070    7.3120   -2.1390 H   0  0  0  0  0  0  0  0  0  0  0  0
   -2.2452    9.8284    0.3779 H   0  0  0  0  0  0  0  0  0  0  0  0
   -2.2514   10.9961   -0.9871 H   0  0  0  0  0  0  0  0  0  0  0  0
   -3.3920    9.6084   -0.9871 H   0  0  0  0  0  0  0  0  0  0  0  0
   -2.8026    7.5827   -2.0506 H   0  0  0  0  0  0  0  0  0  0  0  0
   -2.6796    8.9876   -3.1631 H   0  0  0  0  0  0  0  0  0  0  0  0
   -1.3998    7.7272   -3.1631 H   0  0  0  0  0  0  0  0  0  0  0  0
    3.6123   10.3418   -1.1217 H   0  0  0  0  0  0  0  0  0  0  0  0
    2.7559    9.8455   -2.6207 H   0  0  0  0  0  0  0  0  0  0  0  0
    3.7876   11.3159   -2.6207 H   0  0  0  0  0  0  0  0  0  0  0  0
    2.3126   12.0190    0.4754 H   0  0  0  0  0  0  0  0  0  0  0  0
    3.3906   12.8349   -0.7915 H   0  0  0  0  0  0  0  0  0  0  0  0
    0.6176   13.6781    0.0963 H   0  0  0  0  0  0  0  0  0  0  0  0
    2.1885   14.5419    0.3283 H   0  0  0  0  0  0  0  0  0  0  0  0
    3.5514   15.0821   -1.3897 H   0  0  0  0  0  0  0  0  0  0  0  0
    3.2348   14.0820   -2.8478 H   0  0  0  0  0  0  0  0  0  0  0  0
    2.8141   15.8283   -2.8478 H   0  0  0  0  0  0  0  0  0  0  0  0
  1  2  1  0
  2  3  1  0
  3  4  1  0
  4  5  1  0
  5  6  1  0
  6  7  1  0
  7  8  1  0
  7  9  1  0
  2 10  1  0
 10 11  1  0
 11 12  1  0
 12 13  1  0
 13 14  1  1
 13 15  1  0
 15 16  1  0
 16 17  1  0
 17 18  2  0
 18 19  1  0
 19 20  1  0
 20 21  1  0
 21 22  1  0
 22 23  1  0
 22 24  1  0
 24 25  1  0
 24 26  1  0
 19 27  1  0
 27 28  1  6
 27 29  1  0
 29 30  1  0
 30 31  1  0
 31 32  1  6
  7  5  1  0
 31 10  1  0
 31 13  1  0
 27 15  1  0
 24 18  1  0
  1 33  1  0
  1 34  1  0
  1 35  1  0
  2 36  1  1
  3 37  1  0
  3 38  1  0
  4 39  1  0
  4 40  1  0
  5 41  1  1
  8 42  1  0
  8 43  1  0
  8 44  1  0
  9 45  1  0
  9 46  1  0
  9 47  1  0
 10 48  1  1
 11 49  1  0
 11 50  1  0
 12 51  1  0
 12 52  1  0
 14 53  1  0
 14 54  1  0
 14 55  1  0
 15 56  1  6
 16 57  1  0
 16 58  1  0
 17 59  1  0
 19 60  1  1
 20 61  1  0
 20 62  1  0
 21 63  1  0
 21 64  1  0
 22 65  1  1
 23 66  1  0
 25 67  1  0
 25 68  1  0
 25 69  1  0
 26 70  1  0
 26 71  1  0
 26 72  1  0
 28 73  1  0
 28 74  1  0
 28 75  1  0
 29 76  1  0
 29 77  1  0
 30 78  1  0
 30 79  1  0
 32 80  1  0
 32 81  1  0
 32 82  1  0
M  END
>  <meeko>  (10) 
{"is_sidechain": [false], "intermolecular_energy": 2.731, "internal_energy": -0.839}

$$$$
EPH_relaxed_0001_pdb2pqr_Repair_147_r2_0001_out
     RDKit          3D

 82 86  0  0  0  0  0  0  0  0999 V2000
    2.0820   18.2870   -3.0110 C   0  0  0  0  0  0  0  0  0  0  0  0
    2.2550   17.5150   -1.7000 C   0  0  2  0  0  0  0  0  0  0  0  0
    3.5190   17.9510   -0.9320 C   0  0  0  0  0  0  0  0  0  0  0  0
    3.2670   19.0690    0.0830 C   0  0  0  0  0  0  0  0  0  0  0  0
    3.5720   18.6260    1.4820 C   0  0  2  0  0  0  0  0  0  0  0  0
    3.3930   19.6370    2.4830 O   0  0  0  0  0  0  0  0  0  0  0  0
    4.7360   19.1630    2.2950 C   0  0  0  0  0  0  0  0  0  0  0  0
    5.6710   20.1890    1.7360 C   0  0  0  0  0  0  0  0  0  0  0  0
    5.2500   18.3420    3.4360 C   0  0  0  0  0  0  0  0  0  0  0  0
    2.3080   16.0180   -1.9820 C   0  0  1  0  0  0  0  0  0  0  0  0
    3.7320   15.5300   -2.3580 C   0  0  0  0  0  0  0  0  0  0  0  0
    3.8860   14.1040   -1.7710 C   0  0  0  0  0  0  0  0  0  0  0  0
    2.4510   13.6900   -1.3710 C   0  0  1  0  0  0  0  0  0  0  0  0
    1.7870   13.2080   -2.6990 C   0  0  0  0  0  0  0  0  0  0  0  0
    2.3310   12.6140   -0.2420 C   0  0  2  0  0  0  0  0  0  0  0  0
    2.9420   11.2430   -0.5800 C   0  0  0  0  0  0  0  0  0  0  0  0
    2.0090   10.2690   -1.2200 C   0  0  0  0  0  0  0  0  0  0  0  0
    0.6680   10.3780   -1.2540 C   0  0  0  0  0  0  0  0  0  0  0  0
   -0.0490   11.5190   -0.5220 C   0  0  1  0  0  0  0  0  0  0  0  0
   -1.2510   10.9480    0.2760 C   0  0  0  0  0  0  0  0  0  0  0  0
   -2.1970   10.1300   -0.5980 C   0  0  0  0  0  0  0  0  0  0  0  0
   -1.4600    8.9700   -1.2620 C   0  0  2  0  0  0  0  0  0  0  0  0
   -1.0510    8.0440   -0.2520 O   0  0  0  0  0  0  0  0  0  0  0  0
   -0.2220    9.4230   -2.0870 C   0  0  0  0  0  0  0  0  0  0  0  0
   -0.6910   10.1780   -3.3560 C   0  0  0  0  0  0  0  0  0  0  0  0
    0.5110    8.1490   -2.5860 C   0  0  0  0  0  0  0  0  0  0  0  0
    0.8750   12.4660    0.3600 C   0  0  1  0  0  0  0  0  0  0  0  0
    1.0430   11.8640    1.7880 C   0  0  0  0  0  0  0  0  0  0  0  0
    0.1590   13.8560    0.5440 C   0  0  0  0  0  0  0  0  0  0  0  0
    0.4120   14.9170   -0.5430 C   0  0  0  0  0  0  0  0  0  0  0  0
    1.9100   15.0630   -0.8290 C   0  0  2  0  0  0  0  0  0  0  0  0
    2.6000   15.5680    0.4830 C   0  0  0  0  0  0  0  0  0  0  0  0
    1.8464   19.3383   -2.7891 H   0  0  0  0  0  0  0  0  0  0  0  0
    3.0141   18.2350   -3.5929 H   0  0  0  0  0  0  0  0  0  0  0  0
    1.2612   17.8422   -3.5929 H   0  0  0  0  0  0  0  0  0  0  0  0
    1.3869   17.7435   -1.0642 H   0  0  0  0  0  0  0  0  0  0  0  0
    3.9177   17.0777   -0.3950 H   0  0  0  0  0  0  0  0  0  0  0  0
    4.2271   18.3454   -1.6757 H   0  0  0  0  0  0  0  0  0  0  0  0
    3.9071   19.9281   -0.1665 H   0  0  0  0  0  0  0  0  0  0  0  0
    2.2029   19.3433    0.0342 H   0  0  0  0  0  0  0  0  0  0  0  0
    3.2405   17.6020    1.2550 H   0  0  0  0  0  0  0  0  0  0  0  0
    6.1610   20.7267    2.5610 H   0  0  0  0  0  0  0  0  0  0  0  0
    6.4335   19.6923    1.1180 H   0  0  0  0  0  0  0  0  0  0  0  0
    5.1058   20.9022    1.1180 H   0  0  0  0  0  0  0  0  0  0  0  0
    4.9564   18.8110    4.3867 H   0  0  0  0  0  0  0  0  0  0  0  0
    4.8244   17.3292    3.3799 H   0  0  0  0  0  0  0  0  0  0  0  0
    6.3470   18.2824    3.3799 H   0  0  0  0  0  0  0  0  0  0  0  0
    1.5681   15.9576   -2.7938 H   0  0  0  0  0  0  0  0  0  0  0  0
    3.8469   15.5038   -3.4517 H   0  0  0  0  0  0  0  0  0  0  0  0
    4.5002   16.2072   -1.9565 H   0  0  0  0  0  0  0  0  0  0  0  0
    4.2927   13.4151   -2.5260 H   0  0  0  0  0  0  0  0  0  0  0  0
    4.5810   14.0764   -0.9188 H   0  0  0  0  0  0  0  0  0  0  0  0
    0.9170   12.5765   -2.4658 H   0  0  0  0  0  0  0  0  0  0  0  0
    1.4604   14.0808   -3.2835 H   0  0  0  0  0  0  0  0  0  0  0  0
    2.5156   12.6271   -3.2835 H   0  0  0  0  0  0  0  0  0  0  0  0
    2.9637   13.0347    0.5534 H   0  0  0  0  0  0  0  0  0  0  0  0
    3.7856   11.4069   -1.2666 H   0  0  0  0  0  0  0  0  0  0  0  0
    3.2363   10.7959    0.3810 H   0  0  0  0  0  0  0  0  0  0  0  0
    2.4552    9.3880   -1.7046 H   0  0  0  0  0  0  0  0  0  0  0  0
   -0.4113   12.2020   -1.3044 H   0  0  0  0  0  0  0  0  0  0  0  0
   -0.8664   10.3026    1.0795 H   0  0  0  0  0  0  0  0  0  0  0  0
   -1.8198   11.7993    0.6783 H   0  0  0  0  0  0  0  0  0  0  0  0
   -3.0091    9.7300    0.0269 H   0  0  0  0  0  0  0  0  0  0  0  0
   -2.6029   10.7840   -1.3838 H   0  0  0  0  0  0  0  0  0  0  0  0
   -2.1567    8.5006   -1.9722 H   0  0  0  0  0  0  0  0  0  0  0  0
   -0.1020    7.8720   -0.3760 H   0  0  0  0  0  0  0  0  0  0  0  0
   -1.2502   11.0783   -3.0614 H   0  0  0  0  0  0  0  0  0  0  0  0
    0.1850   10.4698   -3.9538 H   0  0  0  0  0  0  0  0  0  0  0  0
   -1.3408    9.5220   -3.9538 H   0  0  0  0  0  0  0  0  0  0  0  0
    0.8504    7.5591   -1.7218 H   0  0  0  0  0  0  0  0  0  0  0  0
   -0.1775    7.5446   -3.1949 H   0  0  0  0  0  0  0  0  0  0  0  0
    1.3795    8.4404   -3.1949 H   0  0  0  0  0  0  0  0  0  0  0  0
    0.8271   12.6375    2.5397 H   0  0  0  0  0  0  0  0  0  0  0  0
    0.3451   11.0234    1.9160 H   0  0  0  0  0  0  0  0  0  0  0  0
    2.0753   11.5063    1.9160 H   0  0  0  0  0  0  0  0  0  0  0  0
   -0.9245   13.6698    0.5814 H   0  0  0  0  0  0  0  0  0  0  0  0
    0.5861   14.2800    1.4648 H   0  0  0  0  0  0  0  0  0  0  0  0
   -0.1030   14.6153   -1.4670 H   0  0  0  0  0  0  0  0  0  0  0  0
    0.0274   15.8837   -0.1857 H   0  0  0  0  0  0  0  0  0  0  0  0
    2.0604   15.1731    1.3564 H   0  0  0  0  0  0  0  0  0  0  0  0
    3.6426   15.2180    0.5071 H   0  0  0  0  0  0  0  0  0  0  0  0
    2.5817   16.6676    0.5071 H   0  0  0  0  0  0  0  0  0  0  0  0
  1  2  1  0
  2  3  1  0
  3  4  1  0
  4  5  1  0
  5  6  1  0
  6  7  1  0
  7  8  1  0
  7  9  1  0
  2 10  1  0
 10 11  1  0
 11 12  1  0
 12 13  1  0
 13 14  1  6
 13 15  1  0
 15 16  1  0
 16 17  1  0
 17 18  2  0
 18 19  1  0
 19 20  1  0
 20 21  1  0
 21 22  1  0
 22 23  1  0
 22 24  1  0
 24 25  1  0
 24 26  1  0
 19 27  1  0
 27 28  1  1
 27 29  1  0
 29 30  1  0
 30 31  1  0
 31 32  1  1
  7  5  1  0
 31 10  1  0
 31 13  1  0
 27 15  1  0
 24 18  1  0
  1 33  1  0
  1 34  1  0
  1 35  1  0
  2 36  1  1
  3 37  1  0
  3 38  1  0
  4 39  1  0
  4 40  1  0
  5 41  1  1
  8 42  1  0
  8 43  1  0
  8 44  1  0
  9 45  1  0
  9 46  1  0
  9 47  1  0
 10 48  1  6
 11 49  1  0
 11 50  1  0
 12 51  1  0
 12 52  1  0
 14 53  1  0
 14 54  1  0
 14 55  1  0
 15 56  1  1
 16 57  1  0
 16 58  1  0
 17 59  1  0
 19 60  1  6
 20 61  1  0
 20 62  1  0
 21 63  1  0
 21 64  1  0
 22 65  1  6
 23 66  1  0
 25 67  1  0
 25 68  1  0
 25 69  1  0
 26 70  1  0
 26 71  1  0
 26 72  1  0
 28 73  1  0
 28 74  1  0
 28 75  1  0
 29 76  1  0
 29 77  1  0
 30 78  1  0
 30 79  1  0
 32 80  1  0
 32 81  1  0
 32 82  1  0
M  END
>  <meeko>  (11) 
{"is_sidechain": [false], "intermolecular_energy": 2.731, "internal_energy": -0.839}

$$$$
EPH_relaxed_0001_pdb2pqr_Repair_147_r2_0001_out
     RDKit          3D

 82 86  0  0  0  0  0  0  0  0999 V2000
    2.5050   10.0140   -3.4580 C   0  0  0  0  0  0  0  0  0  0  0  0
    2.3170   11.1870   -4.4240 C   0  0  2  0  0  0  0  0  0  0  0  0
    3.6630   11.7880   -4.8770 C   0  0  0  0  0  0  0  0  0  0  0  0
    4.5700   10.7890   -5.6000 C   0  0  0  0  0  0  0  0  0  0  0  0
    5.6900   10.3210   -4.7210 C   0  0  2  0  0  0  0  0  0  0  0  0
    5.5790   10.7160   -3.3470 O   0  0  0  0  0  0  0  0  0  0  0  0
    6.6940   11.2570   -4.0740 C   0  0  0  0  0  0  0  0  0  0  0  0
    6.6250   12.7380   -4.2800 C   0  0  0  0  0  0  0  0  0  0  0  0
    8.0170   10.7030   -3.6470 C   0  0  0  0  0  0  0  0  0  0  0  0
    1.4590   12.2650   -3.7710 C   0  0  1  0  0  0  0  0  0  0  0  0
    0.1210   11.7080   -3.2160 C   0  0  0  0  0  0  0  0  0  0  0  0
   -0.1970   12.5110   -1.9280 C   0  0  0  0  0  0  0  0  0  0  0  0
    0.7780   13.7110   -1.9660 C   0  0  1  0  0  0  0  0  0  0  0  0
    0.1070   14.7430   -2.9260 C   0  0  0  0  0  0  0  0  0  0  0  0
    1.1360   14.3540   -0.5860 C   0  0  2  0  0  0  0  0  0  0  0  0
   -0.0510   14.9710    0.1740 C   0  0  0  0  0  0  0  0  0  0  0  0
   -0.3120   16.4130   -0.1140 C   0  0  0  0  0  0  0  0  0  0  0  0
    0.5410   17.2550   -0.7250 C   0  0  0  0  0  0  0  0  0  0  0  0
    1.9550   16.8020   -1.1090 C   0  0  1  0  0  0  0  0  0  0  0  0
    2.9810   17.8830   -0.6770 C   0  0  0  0  0  0  0  0  0  0  0  0
    2.6410   19.2650   -1.2270 C   0  0  0  0  0  0  0  0  0  0  0  0
    1.2510   19.7050   -0.7750 C   0  0  2  0  0  0  0  0  0  0  0  0
    1.2680   19.9040    0.6420 O   0  0  0  0  0  0  0  0  0  0  0  0
    0.1350   18.6890   -1.1470 C   0  0  0  0  0  0  0  0  0  0  0  0
   -0.0880   18.6990   -2.6800 C   0  0  0  0  0  0  0  0  0  0  0  0
   -1.1920   19.1830   -0.5120 C   0  0  0  0  0  0  0  0  0  0  0  0
    2.3700   15.3440   -0.6330 C   0  0  1  0  0  0  0  0  0  0  0  0
    2.9500   15.4000    0.8130 C   0  0  0  0  0  0  0  0  0  0  0  0
    3.5290   14.8120   -1.5570 C   0  0  0  0  0  0  0  0  0  0  0  0
    3.1100   14.0800   -2.8460 C   0  0  0  0  0  0  0  0  0  0  0  0
    2.0570   13.0080   -2.5500 C   0  0  2  0  0  0  0  0  0  0  0  0
    2.7100   11.9430   -1.6040 C   0  0  0  0  0  0  0  0  0  0  0  0
    2.4465   10.3792   -2.4220 H   0  0  0  0  0  0  0  0  0  0  0  0
    1.7150    9.2679   -3.6290 H   0  0  0  0  0  0  0  0  0  0  0  0
    3.4886    9.5522   -3.6290 H   0  0  0  0  0  0  0  0  0  0  0  0
    1.8102   10.7998   -5.3202 H   0  0  0  0  0  0  0  0  0  0  0  0
    3.4572   12.6267   -5.5584 H   0  0  0  0  0  0  0  0  0  0  0  0
    4.1951   12.1067   -3.9685 H   0  0  0  0  0  0  0  0  0  0  0  0
    3.9699    9.9195   -5.9063 H   0  0  0  0  0  0  0  0  0  0  0  0
    5.0077   11.2933   -6.4742 H   0  0  0  0  0  0  0  0  0  0  0  0
    5.8134    9.4098   -5.3247 H   0  0  0  0  0  0  0  0  0  0  0  0
    6.6015   13.2434   -3.3032 H   0  0  0  0  0  0  0  0  0  0  0  0
    7.5086   13.0713   -4.8441 H   0  0  0  0  0  0  0  0  0  0  0  0
    5.7142   12.9877   -4.8441 H   0  0  0  0  0  0  0  0  0  0  0  0
    8.0682   10.6816   -2.5484 H   0  0  0  0  0  0  0  0  0  0  0  0
    8.1307    9.6817   -4.0394 H   0  0  0  0  0  0  0  0  0  0  0  0
    8.8245   11.3386   -4.0394 H   0  0  0  0  0  0  0  0  0  0  0  0
    1.3567   12.9581   -4.6190 H   0  0  0  0  0  0  0  0  0  0  0  0
   -0.6819   11.8442   -3.9554 H   0  0  0  0  0  0  0  0  0  0  0  0
    0.1994   10.6319   -3.0017 H   0  0  0  0  0  0  0  0  0  0  0  0
   -1.2407   12.8583   -1.9346 H   0  0  0  0  0  0  0  0  0  0  0  0
   -0.0772   11.9047   -1.0180 H   0  0  0  0  0  0  0  0  0  0  0  0
   -0.3983   15.5201   -2.3337 H   0  0  0  0  0  0  0  0  0  0  0  0
    0.8762   15.2076   -3.5604 H   0  0  0  0  0  0  0  0  0  0  0  0
   -0.6298   14.2285   -3.5604 H   0  0  0  0  0  0  0  0  0  0  0  0
    1.4489   13.4817    0.0066 H   0  0  0  0  0  0  0  0  0  0  0  0
   -0.9554   14.4027   -0.0888 H   0  0  0  0  0  0  0  0  0  0  0  0
    0.2090   14.9158    1.2414 H   0  0  0  0  0  0  0  0  0  0  0  0
   -1.2840   16.8212    0.2000 H   0  0  0  0  0  0  0  0  0  0  0  0
    1.9545   16.7036   -2.2046 H   0  0  0  0  0  0  0  0  0  0  0  0
    2.9971   17.9349    0.4217 H   0  0  0  0  0  0  0  0  0  0  0  0
    3.9616   17.5939   -1.0830 H   0  0  0  0  0  0  0  0  0  0  0  0
    3.3841   19.9900   -0.8634 H   0  0  0  0  0  0  0  0  0  0  0  0
    2.6546   19.2187   -2.3259 H   0  0  0  0  0  0  0  0  0  0  0  0
    1.0129   20.6394   -1.3043 H   0  0  0  0  0  0  0  0  0  0  0  0
    0.9500   19.0840    1.0570 H   0  0  0  0  0  0  0  0  0  0  0  0
   -1.1660   18.7473   -2.8934 H   0  0  0  0  0  0  0  0  0  0  0  0
    0.4121   19.5756   -3.1176 H   0  0  0  0  0  0  0  0  0  0  0  0
    0.3316   17.7811   -3.1176 H   0  0  0  0  0  0  0  0  0  0  0  0
   -1.1078   19.1517    0.5843 H   0  0  0  0  0  0  0  0  0  0  0  0
   -1.3911   20.2155   -0.8351 H   0  0  0  0  0  0  0  0  0  0  0  0
   -2.0177   18.5320   -0.8351 H   0  0  0  0  0  0  0  0  0  0  0  0
    2.1289   15.3207    1.5407 H   0  0  0  0  0  0  0  0  0  0  0  0
    3.6515   14.5654    0.9593 H   0  0  0  0  0  0  0  0  0  0  0  0
    3.4788   16.3534    0.9593 H   0  0  0  0  0  0  0  0  0  0  0  0
    4.1440   15.6757   -1.8499 H   0  0  0  0  0  0  0  0  0  0  0  0
    4.0531   14.0557   -0.9542 H   0  0  0  0  0  0  0  0  0  0  0  0
    2.6912   14.8099   -3.5544 H   0  0  0  0  0  0  0  0  0  0  0  0
    3.9968   13.5913   -3.2759 H   0  0  0  0  0  0  0  0  0  0  0  0
    2.5355   12.2275   -0.5559 H   0  0  0  0  0  0  0  0  0  0  0  0
    2.2608   10.9575   -1.7960 H   0  0  0  0  0  0  0  0  0  0  0  0
    3.7921   11.8964   -1.7960 H   0  0  0  0  0  0  0  0  0  0  0  0
  1  2  1  0
  2  3  1  0
  3  4  1  0
  4  5  1  0
  5  6  1  0
  6  7  1  0
  7  8  1  0
  7  9  1  0
  2 10  1  0
 10 11  1  0
 11 12  1  0
 12 13  1  0
 13 14  1  6
 13 15  1  0
 15 16  1  0
 16 17  1  0
 17 18  2  0
 18 19  1  0
 19 20  1  0
 20 21  1  0
 21 22  1  0
 22 23  1  0
 22 24  1  0
 24 25  1  0
 24 26  1  0
 19 27  1  0
 27 28  1  1
 27 29  1  0
 29 30  1  0
 30 31  1  0
 31 32  1  1
  7  5  1  0
 31 10  1  0
 31 13  1  0
 27 15  1  0
 24 18  1  0
  1 33  1  0
  1 34  1  0
  1 35  1  0
  2 36  1  6
  3 37  1  0
  3 38  1  0
  4 39  1  0
  4 40  1  0
  5 41  1  1
  8 42  1  0
  8 43  1  0
  8 44  1  0
  9 45  1  0
  9 46  1  0
  9 47  1  0
 10 48  1  6
 11 49  1  0
 11 50  1  0
 12 51  1  0
 12 52  1  0
 14 53  1  0
 14 54  1  0
 14 55  1  0
 15 56  1  1
 16 57  1  0
 16 58  1  0
 17 59  1  0
 19 60  1  6
 20 61  1  0
 20 62  1  0
 21 63  1  0
 21 64  1  0
 22 65  1  6
 23 66  1  0
 25 67  1  0
 25 68  1  0
 25 69  1  0
 26 70  1  0
 26 71  1  0
 26 72  1  0
 28 73  1  0
 28 74  1  0
 28 75  1  0
 29 76  1  0
 29 77  1  0
 30 78  1  0
 30 79  1  0
 32 80  1  0
 32 81  1  0
 32 82  1  0
M  END
>  <meeko>  (12) 
{"is_sidechain": [false], "intermolecular_energy": 2.731, "internal_energy": -0.839}

$$$$
EPH_relaxed_0001_pdb2pqr_Repair_147_r2_0001_out
     RDKit          3D

 82 86  0  0  0  0  0  0  0  0999 V2000
    0.9020    8.7630   -0.2750 C   0  0  0  0  0  0  0  0  0  0  0  0
   -0.1560    9.5230   -1.0790 C   0  0  2  0  0  0  0  0  0  0  0  0
   -0.8570    8.6210   -2.1150 C   0  0  0  0  0  0  0  0  0  0  0  0
   -2.3410    8.3840   -1.8210 C   0  0  0  0  0  0  0  0  0  0  0  0
   -2.8770    7.2100   -2.5830 C   0  0  2  0  0  0  0  0  0  0  0  0
   -3.8910    7.5320   -3.5440 O   0  0  0  0  0  0  0  0  0  0  0  0
   -4.3000    6.7020   -2.4450 C   0  0  0  0  0  0  0  0  0  0  0  0
   -5.2750    7.3560   -1.5170 C   0  0  0  0  0  0  0  0  0  0  0  0
   -4.5950    5.2870   -2.8350 C   0  0  0  0  0  0  0  0  0  0  0  0
    0.4810   10.7190   -1.7760 C   0  0  1  0  0  0  0  0  0  0  0  0
    0.1360   10.7830   -3.2880 C   0  0  0  0  0  0  0  0  0  0  0  0
    0.0180   12.2840   -3.6570 C   0  0  0  0  0  0  0  0  0  0  0  0
    0.6190   13.0320   -2.4440 C   0  0  1  0  0  0  0  0  0  0  0  0
    2.1630   12.9710   -2.6590 C   0  0  0  0  0  0  0  0  0  0  0  0
    0.1240   14.4990   -2.2230 C   0  0  2  0  0  0  0  0  0  0  0  0
    0.4600   15.4790   -3.3600 C   0  0  0  0  0  0  0  0  0  0  0  0
    1.7620   16.1950   -3.2220 C   0  0  0  0  0  0  0  0  0  0  0  0
    2.4950   16.2750   -2.0950 C   0  0  0  0  0  0  0  0  0  0  0  0
    1.9780   15.6870   -0.7760 C   0  0  1  0  0  0  0  0  0  0  0  0
    2.1860   16.7160    0.3660 C   0  0  0  0  0  0  0  0  0  0  0  0
    3.6320   17.1930    0.4670 C   0  0  0  0  0  0  0  0  0  0  0  0
    4.0910   17.8240   -0.8450 C   0  0  2  0  0  0  0  0  0  0  0  0
    3.3530   19.0320   -1.0590 O   0  0  0  0  0  0  0  0  0  0  0  0
    3.9190   16.8830   -2.0700 C   0  0  0  0  0  0  0  0  0  0  0  0
    4.9410   15.7230   -1.9830 C   0  0  0  0  0  0  0  0  0  0  0  0
    4.2850   17.6890   -3.3460 C   0  0  0  0  0  0  0  0  0  0  0  0
    0.5000   15.1030   -0.8090 C   0  0  1  0  0  0  0  0  0  0  0  0
   -0.5280   16.2400   -0.5240 C   0  0  0  0  0  0  0  0  0  0  0  0
    0.3360   14.0540    0.3530 C   0  0  0  0  0  0  0  0  0  0  0  0
    0.7290   12.5980    0.0360 C   0  0  0  0  0  0  0  0  0  0  0  0
    0.0850   12.1300   -1.2720 C   0  0  2  0  0  0  0  0  0  0  0  0
   -1.4700   12.1590   -1.0780 C   0  0  0  0  0  0  0  0  0  0  0  0
    0.7130    8.8987    0.8001 H   0  0  0  0  0  0  0  0  0  0  0  0
    0.8526    7.6926   -0.5237 H   0  0  0  0  0  0  0  0  0  0  0  0
    1.9006    9.1515   -0.5237 H   0  0  0  0  0  0  0  0  0  0  0  0
   -0.9231    9.8704   -0.3713 H   0  0  0  0  0  0  0  0  0  0  0  0
   -0.7703    9.0954   -3.1036 H   0  0  0  0  0  0  0  0  0  0  0  0
   -0.3608    7.6401   -2.0752 H   0  0  0  0  0  0  0  0  0  0  0  0
   -2.4655    8.1969   -0.7442 H   0  0  0  0  0  0  0  0  0  0  0  0
   -2.8993    9.2789   -2.1331 H   0  0  0  0  0  0  0  0  0  0  0  0
   -1.9033    6.7010   -2.5294 H   0  0  0  0  0  0  0  0  0  0  0  0
   -4.9798    7.1580   -0.4760 H   0  0  0  0  0  0  0  0  0  0  0  0
   -5.2806    8.4413   -1.6964 H   0  0  0  0  0  0  0  0  0  0  0  0
   -6.2813    6.9495   -1.6964 H   0  0  0  0  0  0  0  0  0  0  0  0
   -4.7224    4.6760   -1.9292 H   0  0  0  0  0  0  0  0  0  0  0  0
   -5.5189    5.2560   -3.4312 H   0  0  0  0  0  0  0  0  0  0  0  0
   -3.7604    4.8894   -3.4312 H   0  0  0  0  0  0  0  0  0  0  0  0
    1.5393   10.5219   -1.5498 H   0  0  0  0  0  0  0  0  0  0  0  0
    0.9338   10.3093   -3.8789 H   0  0  0  0  0  0  0  0  0  0  0  0
   -0.8015   10.2489   -3.5020 H   0  0  0  0  0  0  0  0  0  0  0  0
    0.5883   12.5052   -4.5712 H   0  0  0  0  0  0  0  0  0  0  0  0
   -1.0209   12.5836   -3.8591 H   0  0  0  0  0  0  0  0  0  0  0  0
    2.6687   12.9510   -1.6823 H   0  0  0  0  0  0  0  0  0  0  0  0
    2.4190   12.0620   -3.2231 H   0  0  0  0  0  0  0  0  0  0  0  0
    2.4899   13.8569   -3.2231 H   0  0  0  0  0  0  0  0  0  0  0  0
   -0.9699   14.3848   -2.2411 H   0  0  0  0  0  0  0  0  0  0  0  0
    0.4826   14.9115   -4.3020 H   0  0  0  0  0  0  0  0  0  0  0  0
   -0.3184   16.2558   -3.3315 H   0  0  0  0  0  0  0  0  0  0  0  0
    2.1563   16.7000   -4.1161 H   0  0  0  0  0  0  0  0  0  0  0  0
    2.5842   14.7892   -0.5851 H   0  0  0  0  0  0  0  0  0  0  0  0
    1.5398   17.5862    0.1787 H   0  0  0  0  0  0  0  0  0  0  0  0
    1.9311   16.2193    1.3138 H   0  0  0  0  0  0  0  0  0  0  0  0
    3.7097   17.9388    1.2718 H   0  0  0  0  0  0  0  0  0  0  0  0
    4.2735   16.3260    0.6830 H   0  0  0  0  0  0  0  0  0  0  0  0
    5.1682   18.0274   -0.7542 H   0  0  0  0  0  0  0  0  0  0  0  0
    3.5970   19.3750   -1.9350 H   0  0  0  0  0  0  0  0  0  0  0  0
    5.1445   15.4920   -0.9269 H   0  0  0  0  0  0  0  0  0  0  0  0
    4.5284   14.8327   -2.4801 H   0  0  0  0  0  0  0  0  0  0  0  0
    5.8762   16.0202   -2.4801 H   0  0  0  0  0  0  0  0  0  0  0  0
    4.7237   18.6552   -3.0561 H   0  0  0  0  0  0  0  0  0  0  0  0
    5.0130   17.1200   -3.9428 H   0  0  0  0  0  0  0  0  0  0  0  0
    3.3775   17.8627   -3.9428 H   0  0  0  0  0  0  0  0  0  0  0  0
   -0.6426   16.3668    0.5626 H   0  0  0  0  0  0  0  0  0  0  0  0
   -0.1671   17.1801   -0.9668 H   0  0  0  0  0  0  0  0  0  0  0  0
   -1.4996   15.9754   -0.9668 H   0  0  0  0  0  0  0  0  0  0  0  0
    0.9582   14.3906    1.1953 H   0  0  0  0  0  0  0  0  0  0  0  0
   -0.7437   14.0217    0.5610 H   0  0  0  0  0  0  0  0  0  0  0  0
    1.8230   12.5327   -0.0578 H   0  0  0  0  0  0  0  0  0  0  0  0
    0.3739   11.9526    0.8529 H   0  0  0  0  0  0  0  0  0  0  0  0
   -1.7054   12.1634   -0.0035 H   0  0  0  0  0  0  0  0  0  0  0  0
   -1.8812   13.0650   -1.5472 H   0  0  0  0  0  0  0  0  0  0  0  0
   -1.9147   11.2690   -1.5472 H   0  0  0  0  0  0  0  0  0  0  0  0
  1  2  1  0
  2  3  1  0
  3  4  1  0
  4  5  1  0
  5  6  1  0
  6  7  1  0
  7  8  1  0
  7  9  1  0
  2 10  1  0
 10 11  1  0
 11 12  1  0
 12 13  1  0
 13 14  1  6
 13 15  1  0
 15 16  1  0
 16 17  1  0
 17 18  2  0
 18 19  1  0
 19 20  1  0
 20 21  1  0
 21 22  1  0
 22 23  1  0
 22 24  1  0
 24 25  1  0
 24 26  1  0
 19 27  1  0
 27 28  1  1
 27 29  1  0
 29 30  1  0
 30 31  1  0
 31 32  1  1
  7  5  1  0
 31 10  1  0
 31 13  1  0
 27 15  1  0
 24 18  1  0
  1 33  1  0
  1 34  1  0
  1 35  1  0
  2 36  1  1
  3 37  1  0
  3 38  1  0
  4 39  1  0
  4 40  1  0
  5 41  1  6
  8 42  1  0
  8 43  1  0
  8 44  1  0
  9 45  1  0
  9 46  1  0
  9 47  1  0
 10 48  1  6
 11 49  1  0
 11 50  1  0
 12 51  1  0
 12 52  1  0
 14 53  1  0
 14 54  1  0
 14 55  1  0
 15 56  1  1
 16 57  1  0
 16 58  1  0
 17 59  1  0
 19 60  1  1
 20 61  1  0
 20 62  1  0
 21 63  1  0
 21 64  1  0
 22 65  1  1
 23 66  1  0
 25 67  1  0
 25 68  1  0
 25 69  1  0
 26 70  1  0
 26 71  1  0
 26 72  1  0
 28 73  1  0
 28 74  1  0
 28 75  1  0
 29 76  1  0
 29 77  1  0
 30 78  1  0
 30 79  1  0
 32 80  1  0
 32 81  1  0
 32 82  1  0
M  END
>  <meeko>  (13) 
{"is_sidechain": [false], "intermolecular_energy": 2.731, "internal_energy": -0.839}

$$$$
EPH_relaxed_0001_pdb2pqr_Repair_147_r2_0001_out
     RDKit          3D

 82 86  0  0  0  0  0  0  0  0999 V2000
   -5.1770    5.8110   -1.7580 C   0  0  0  0  0  0  0  0  0  0  0  0
   -5.4650    7.3130   -1.8310 C   0  0  2  0  0  0  0  0  0  0  0  0
   -5.2290    8.0160   -0.4790 C   0  0  0  0  0  0  0  0  0  0  0  0
   -4.2010    9.1490   -0.5450 C   0  0  0  0  0  0  0  0  0  0  0  0
   -2.8250    8.6330   -0.8390 C   0  0  2  0  0  0  0  0  0  0  0  0
   -1.8350    8.9780    0.1390 O   0  0  0  0  0  0  0  0  0  0  0  0
   -1.6490    9.5310   -1.1740 C   0  0  0  0  0  0  0  0  0  0  0  0
   -1.7960   11.0190   -1.2350 C   0  0  0  0  0  0  0  0  0  0  0  0
   -0.4890    8.9430   -1.9170 C   0  0  0  0  0  0  0  0  0  0  0  0
   -6.8970    7.5460   -2.2960 C   0  0  1  0  0  0  0  0  0  0  0  0
   -7.2090    6.8450   -3.6450 C   0  0  0  0  0  0  0  0  0  0  0  0
   -8.6870    6.3820   -3.5780 C   0  0  0  0  0  0  0  0  0  0  0  0
   -9.2690    7.1140   -2.3460 C   0  0  1  0  0  0  0  0  0  0  0  0
   -9.6110    8.5490   -2.8570 C   0  0  0  0  0  0  0  0  0  0  0  0
  -10.5000    6.4370   -1.6590 C   0  0  2  0  0  0  0  0  0  0  0  0
  -11.7540    6.3150   -2.5420 C   0  0  0  0  0  0  0  0  0  0  0  0
  -12.7010    7.4670   -2.4670 C   0  0  0  0  0  0  0  0  0  0  0  0
  -12.6990    8.4210   -1.5170 C   0  0  0  0  0  0  0  0  0  0  0  0
  -11.7360    8.3440   -0.3260 C   0  0  1  0  0  0  0  0  0  0  0  0
  -12.5100    8.6350    0.9860 C   0  0  0  0  0  0  0  0  0  0  0  0
  -13.2710    9.9570    0.9350 C   0  0  0  0  0  0  0  0  0  0  0  0
  -14.2610    9.9720   -0.2270 C   0  0  2  0  0  0  0  0  0  0  0  0
  -15.2850    9.0050    0.0270 O   0  0  0  0  0  0  0  0  0  0  0  0
  -13.5960    9.6810   -1.6010 C   0  0  0  0  0  0  0  0  0  0  0  0
  -12.7090   10.8810   -2.0160 C   0  0  0  0  0  0  0  0  0  0  0  0
  -14.7220    9.5850   -2.6660 C   0  0  0  0  0  0  0  0  0  0  0  0
  -10.8510    7.0270   -0.2330 C   0  0  1  0  0  0  0  0  0  0  0  0
  -11.6330    5.9140    0.5290 C   0  0  0  0  0  0  0  0  0  0  0  0
   -9.5650    7.3310    0.6220 C   0  0  0  0  0  0  0  0  0  0  0  0
   -8.3420    7.8850   -0.1340 C   0  0  0  0  0  0  0  0  0  0  0  0
   -8.0360    7.0410   -1.3750 C   0  0  2  0  0  0  0  0  0  0  0  0
   -7.6670    5.5970   -0.8910 C   0  0  0  0  0  0  0  0  0  0  0  0
   -5.1173    5.4999   -0.7046 H   0  0  0  0  0  0  0  0  0  0  0  0
   -5.9855    5.2579   -2.2585 H   0  0  0  0  0  0  0  0  0  0  0  0
   -4.2213    5.5962   -2.2585 H   0  0  0  0  0  0  0  0  0  0  0  0
   -4.7631    7.7493   -2.5569 H   0  0  0  0  0  0  0  0  0  0  0  0
   -6.1857    8.4349   -0.1338 H   0  0  0  0  0  0  0  0  0  0  0  0
   -4.8287    7.2588    0.2113 H   0  0  0  0  0  0  0  0  0  0  0  0
   -4.4953    9.8515   -1.3386 H   0  0  0  0  0  0  0  0  0  0  0  0
   -4.1777    9.6482    0.4349 H   0  0  0  0  0  0  0  0  0  0  0  0
   -3.2389    7.7433   -1.3361 H   0  0  0  0  0  0  0  0  0  0  0  0
   -1.8362   11.4257   -0.2137 H   0  0  0  0  0  0  0  0  0  0  0  0
   -0.9361   11.4509   -1.7681 H   0  0  0  0  0  0  0  0  0  0  0  0
   -2.7237   11.2743   -1.7681 H   0  0  0  0  0  0  0  0  0  0  0  0
    0.2538    8.5665   -1.1984 H   0  0  0  0  0  0  0  0  0  0  0  0
   -0.8405    8.1143   -2.5491 H   0  0  0  0  0  0  0  0  0  0  0  0
   -0.0284    9.7165   -2.5491 H   0  0  0  0  0  0  0  0  0  0  0  0
   -6.9014    8.6454   -2.3319 H   0  0  0  0  0  0  0  0  0  0  0  0
   -7.0702    7.5491   -4.4786 H   0  0  0  0  0  0  0  0  0  0  0  0
   -6.5352    5.9915   -3.8114 H   0  0  0  0  0  0  0  0  0  0  0  0
   -9.2264    6.6709   -4.4921 H   0  0  0  0  0  0  0  0  0  0  0  0
   -8.7787    5.2889   -3.4959 H   0  0  0  0  0  0  0  0  0  0  0  0
   -9.7700    9.2162   -1.9971 H   0  0  0  0  0  0  0  0  0  0  0  0
   -8.7783    8.9291   -3.4670 H   0  0  0  0  0  0  0  0  0  0  0  0
  -10.5257    8.5127   -3.4670 H   0  0  0  0  0  0  0  0  0  0  0  0
  -10.1462    5.4077   -1.5000 H   0  0  0  0  0  0  0  0  0  0  0  0
  -11.4254    6.2125   -3.5868 H   0  0  0  0  0  0  0  0  0  0  0  0
  -12.3070    5.4414   -2.1665 H   0  0  0  0  0  0  0  0  0  0  0  0
  -13.4651    7.5426   -3.2547 H   0  0  0  0  0  0  0  0  0  0  0  0
  -10.9811    9.1260   -0.4953 H   0  0  0  0  0  0  0  0  0  0  0  0
  -13.2289    7.8207    1.1594 H   0  0  0  0  0  0  0  0  0  0  0  0
  -11.7734    8.7047    1.8000 H   0  0  0  0  0  0  0  0  0  0  0  0
  -13.8207   10.0926    1.8781 H   0  0  0  0  0  0  0  0  0  0  0  0
  -12.5478   10.7732    0.7907 H   0  0  0  0  0  0  0  0  0  0  0  0
  -14.6807   10.9868   -0.2903 H   0  0  0  0  0  0  0  0  0  0  0  0
  -14.8630    8.2290    0.4340 H   0  0  0  0  0  0  0  0  0  0  0  0
  -12.3338   11.3885   -1.1151 H   0  0  0  0  0  0  0  0  0  0  0  0
  -11.8593   10.5195   -2.6138 H   0  0  0  0  0  0  0  0  0  0  0  0
  -13.3039   11.5872   -2.6138 H   0  0  0  0  0  0  0  0  0  0  0  0
  -15.6966    9.5019   -2.1627 H   0  0  0  0  0  0  0  0  0  0  0  0
  -14.7098   10.4874   -3.2948 H   0  0  0  0  0  0  0  0  0  0  0  0
  -14.5572    8.6976   -3.2948 H   0  0  0  0  0  0  0  0  0  0  0  0
  -11.5255    6.0670    1.6130 H   0  0  0  0  0  0  0  0  0  0  0  0
  -12.6975    5.9612    0.2558 H   0  0  0  0  0  0  0  0  0  0  0  0
  -11.2277    4.9286    0.2558 H   0  0  0  0  0  0  0  0  0  0  0  0
   -9.8428    8.0676    1.3902 H   0  0  0  0  0  0  0  0  0  0  0  0
   -9.2429    6.3549    1.0137 H   0  0  0  0  0  0  0  0  0  0  0  0
   -8.5494    8.9196   -0.4447 H   0  0  0  0  0  0  0  0  0  0  0  0
   -7.4706    7.8516    0.5364 H   0  0  0  0  0  0  0  0  0  0  0  0
   -7.6600    5.5695    0.2086 H   0  0  0  0  0  0  0  0  0  0  0  0
   -8.4112    4.8816   -1.2709 H   0  0  0  0  0  0  0  0  0  0  0  0
   -6.6708    5.3263   -1.2709 H   0  0  0  0  0  0  0  0  0  0  0  0
  1  2  1  0
  2  3  1  0
  3  4  1  0
  4  5  1  0
  5  6  1  0
  6  7  1  0
  7  8  1  0
  7  9  1  0
  2 10  1  0
 10 11  1  0
 11 12  1  0
 12 13  1  0
 13 14  1  6
 13 15  1  0
 15 16  1  0
 16 17  1  0
 17 18  2  0
 18 19  1  0
 19 20  1  0
 20 21  1  0
 21 22  1  0
 22 23  1  0
 22 24  1  0
 24 25  1  0
 24 26  1  0
 19 27  1  0
 27 28  1  1
 27 29  1  0
 29 30  1  0
 30 31  1  0
 31 32  1  1
  7  5  1  0
 31 10  1  0
 31 13  1  0
 27 15  1  0
 24 18  1  0
  1 33  1  0
  1 34  1  0
  1 35  1  0
  2 36  1  6
  3 37  1  0
  3 38  1  0
  4 39  1  0
  4 40  1  0
  5 41  1  6
  8 42  1  0
  8 43  1  0
  8 44  1  0
  9 45  1  0
  9 46  1  0
  9 47  1  0
 10 48  1  6
 11 49  1  0
 11 50  1  0
 12 51  1  0
 12 52  1  0
 14 53  1  0
 14 54  1  0
 14 55  1  0
 15 56  1  1
 16 57  1  0
 16 58  1  0
 17 59  1  0
 19 60  1  6
 20 61  1  0
 20 62  1  0
 21 63  1  0
 21 64  1  0
 22 65  1  6
 23 66  1  0
 25 67  1  0
 25 68  1  0
 25 69  1  0
 26 70  1  0
 26 71  1  0
 26 72  1  0
 28 73  1  0
 28 74  1  0
 28 75  1  0
 29 76  1  0
 29 77  1  0
 30 78  1  0
 30 79  1  0
 32 80  1  0
 32 81  1  0
 32 82  1  0
M  END
>  <meeko>  (14) 
{"is_sidechain": [false], "intermolecular_energy": 2.731, "internal_energy": -0.839}

$$$$
EPH_relaxed_0001_pdb2pqr_Repair_147_r2_0001_out
     RDKit          3D

 82 86  0  0  0  0  0  0  0  0999 V2000
   -1.0340   10.4020    1.4570 C   0  0  0  0  0  0  0  0  0  0  0  0
   -1.6790   10.1060    0.1000 C   0  0  2  0  0  0  0  0  0  0  0  0
   -2.4740    8.7860    0.1110 C   0  0  0  0  0  0  0  0  0  0  0  0
   -3.9060    8.9250   -0.4120 C   0  0  0  0  0  0  0  0  0  0  0  0
   -4.4840    7.6000   -0.8080 C   0  0  2  0  0  0  0  0  0  0  0  0
   -4.6470    7.4160   -2.2210 O   0  0  0  0  0  0  0  0  0  0  0  0
   -5.8530    7.4400   -1.4410 C   0  0  0  0  0  0  0  0  0  0  0  0
   -6.7300    8.6220   -1.7130 C   0  0  0  0  0  0  0  0  0  0  0  0
   -6.5350    6.1110   -1.3450 C   0  0  0  0  0  0  0  0  0  0  0  0
   -0.6090   10.0610   -0.9840 C   0  0  1  0  0  0  0  0  0  0  0  0
   -1.0480    9.2360   -2.2230 C   0  0  0  0  0  0  0  0  0  0  0  0
   -0.4280    9.9280   -3.4640 C   0  0  0  0  0  0  0  0  0  0  0  0
    0.6070   10.9180   -2.8820 C   0  0  1  0  0  0  0  0  0  0  0  0
    1.8680   10.0490   -2.5810 C   0  0  0  0  0  0  0  0  0  0  0  0
    0.9580   12.1540   -3.7730 C   0  0  2  0  0  0  0  0  0  0  0  0
    1.6090   11.8200   -5.1270 C   0  0  0  0  0  0  0  0  0  0  0  0
    3.1000   11.7560   -5.1190 C   0  0  0  0  0  0  0  0  0  0  0  0
    3.8980   12.2350   -4.1460 C   0  0  0  0  0  0  0  0  0  0  0  0
    3.3130   13.0040   -2.9550 C   0  0  1  0  0  0  0  0  0  0  0  0
    4.1490   14.2870   -2.7070 C   0  0  0  0  0  0  0  0  0  0  0  0
    5.6360   13.9940   -2.5380 C   0  0  0  0  0  0  0  0  0  0  0  0
    6.1940   13.2800   -3.7670 C   0  0  2  0  0  0  0  0  0  0  0  0
    6.1540   14.1790   -4.8790 O   0  0  0  0  0  0  0  0  0  0  0  0
    5.4250   11.9770   -4.1200 C   0  0  0  0  0  0  0  0  0  0  0  0
    5.7170   10.8940   -3.0520 C   0  0  0  0  0  0  0  0  0  0  0  0
    5.9970   11.4320   -5.4570 C   0  0  0  0  0  0  0  0  0  0  0  0
    1.7520   13.2950   -3.0160 C   0  0  1  0  0  0  0  0  0  0  0  0
    1.4870   14.6170   -3.7990 C   0  0  0  0  0  0  0  0  0  0  0  0
    1.2150   13.5290   -1.5550 C   0  0  0  0  0  0  0  0  0  0  0  0
    0.7720   12.2800   -0.7690 C   0  0  0  0  0  0  0  0  0  0  0  0
   -0.1700   11.4100   -1.6070 C   0  0  2  0  0  0  0  0  0  0  0  0
   -1.4570   12.2510   -1.9070 C   0  0  0  0  0  0  0  0  0  0  0  0
   -1.7148   10.0896    2.2625 H   0  0  0  0  0  0  0  0  0  0  0  0
   -0.0873    9.8482    1.5416 H   0  0  0  0  0  0  0  0  0  0  0  0
   -0.8365   11.4808    1.5416 H   0  0  0  0  0  0  0  0  0  0  0  0
   -2.3905   10.9175   -0.1130 H   0  0  0  0  0  0  0  0  0  0  0  0
   -1.9438    8.0562   -0.5185 H   0  0  0  0  0  0  0  0  0  0  0  0
   -2.5451    8.4626    1.1600 H   0  0  0  0  0  0  0  0  0  0  0  0
   -4.5325    9.3653    0.3777 H   0  0  0  0  0  0  0  0  0  0  0  0
   -3.8839    9.5690   -1.3035 H   0  0  0  0  0  0  0  0  0  0  0  0
   -4.0072    7.1083    0.0527 H   0  0  0  0  0  0  0  0  0  0  0  0
   -7.0571    9.0629   -0.7598 H   0  0  0  0  0  0  0  0  0  0  0  0
   -6.1674    9.3711   -2.2895 H   0  0  0  0  0  0  0  0  0  0  0  0
   -7.6100    8.3007   -2.2895 H   0  0  0  0  0  0  0  0  0  0  0  0
   -6.6717    5.8446   -0.2865 H   0  0  0  0  0  0  0  0  0  0  0  0
   -7.5163    6.1659   -1.8390 H   0  0  0  0  0  0  0  0  0  0  0  0
   -5.9182    5.3458   -1.8390 H   0  0  0  0  0  0  0  0  0  0  0  0
    0.2198    9.6257   -0.4064 H   0  0  0  0  0  0  0  0  0  0  0  0
   -0.6781    8.2033   -2.1409 H   0  0  0  0  0  0  0  0  0  0  0  0
   -2.1444    9.1938   -2.3010 H   0  0  0  0  0  0  0  0  0  0  0  0
    0.0638    9.1901   -4.1149 H   0  0  0  0  0  0  0  0  0  0  0  0
   -1.1853   10.4319   -4.0825 H   0  0  0  0  0  0  0  0  0  0  0  0
    1.9996    9.9583   -1.4927 H   0  0  0  0  0  0  0  0  0  0  0  0
    1.7370    9.0486   -3.0191 H   0  0  0  0  0  0  0  0  0  0  0  0
    2.7562   10.5276   -3.0191 H   0  0  0  0  0  0  0  0  0  0  0  0
   -0.0357   12.5608   -4.0119 H   0  0  0  0  0  0  0  0  0  0  0  0
    1.2286   10.8413   -5.4548 H   0  0  0  0  0  0  0  0  0  0  0  0
    1.3435   12.6453   -5.8041 H   0  0  0  0  0  0  0  0  0  0  0  0
    3.5882   11.2772   -5.9806 H   0  0  0  0  0  0  0  0  0  0  0  0
    3.3950   12.3312   -2.0886 H   0  0  0  0  0  0  0  0  0  0  0  0
    4.0184   14.9638   -3.5642 H   0  0  0  0  0  0  0  0  0  0  0  0
    3.7907   14.7428   -1.7722 H   0  0  0  0  0  0  0  0  0  0  0  0
    6.1759   14.9418   -2.3961 H   0  0  0  0  0  0  0  0  0  0  0  0
    5.7683   13.3415   -1.6623 H   0  0  0  0  0  0  0  0  0  0  0  0
    7.2268   12.9808   -3.5349 H   0  0  0  0  0  0  0  0  0  0  0  0
    5.2760   14.1010   -5.2890 H   0  0  0  0  0  0  0  0  0  0  0  0
    5.6000   11.3281   -2.0481 H   0  0  0  0  0  0  0  0  0  0  0  0
    5.0120   10.0586   -3.1747 H   0  0  0  0  0  0  0  0  0  0  0  0
    6.7464   10.5262   -3.1747 H   0  0  0  0  0  0  0  0  0  0  0  0
    6.7785   10.6874   -5.2451 H   0  0  0  0  0  0  0  0  0  0  0  0
    5.1893   10.9610   -6.0365 H   0  0  0  0  0  0  0  0  0  0  0  0
    6.4284   12.2615   -6.0365 H   0  0  0  0  0  0  0  0  0  0  0  0
    1.3223   15.4385   -3.0863 H   0  0  0  0  0  0  0  0  0  0  0  0
    2.3565   14.8491   -4.4316 H   0  0  0  0  0  0  0  0  0  0  0  0
    0.5952   14.4960   -4.4316 H   0  0  0  0  0  0  0  0  0  0  0  0
    2.0160   14.0170   -0.9803 H   0  0  0  0  0  0  0  0  0  0  0  0
    0.3024   14.1309   -1.6769 H   0  0  0  0  0  0  0  0  0  0  0  0
    1.6608   11.6909   -0.4989 H   0  0  0  0  0  0  0  0  0  0  0  0
    0.2367   12.6062    0.1349 H   0  0  0  0  0  0  0  0  0  0  0  0
   -1.9245   12.5565   -0.9593 H   0  0  0  0  0  0  0  0  0  0  0  0
   -1.1838   13.1454   -2.4862 H   0  0  0  0  0  0  0  0  0  0  0  0
   -2.1664   11.6417   -2.4862 H   0  0  0  0  0  0  0  0  0  0  0  0
  1  2  1  0
  2  3  1  0
  3  4  1  0
  4  5  1  0
  5  6  1  0
  6  7  1  0
  7  8  1  0
  7  9  1  0
  2 10  1  0
 10 11  1  0
 11 12  1  0
 12 13  1  0
 13 14  1  1
 13 15  1  0
 15 16  1  0
 16 17  1  0
 17 18  2  0
 18 19  1  0
 19 20  1  0
 20 21  1  0
 21 22  1  0
 22 23  1  0
 22 24  1  0
 24 25  1  0
 24 26  1  0
 19 27  1  0
 27 28  1  6
 27 29  1  0
 29 30  1  0
 30 31  1  0
 31 32  1  6
  7  5  1  0
 31 10  1  0
 31 13  1  0
 27 15  1  0
 24 18  1  0
  1 33  1  0
  1 34  1  0
  1 35  1  0
  2 36  1  6
  3 37  1  0
  3 38  1  0
  4 39  1  0
  4 40  1  0
  5 41  1  1
  8 42  1  0
  8 43  1  0
  8 44  1  0
  9 45  1  0
  9 46  1  0
  9 47  1  0
 10 48  1  1
 11 49  1  0
 11 50  1  0
 12 51  1  0
 12 52  1  0
 14 53  1  0
 14 54  1  0
 14 55  1  0
 15 56  1  6
 16 57  1  0
 16 58  1  0
 17 59  1  0
 19 60  1  1
 20 61  1  0
 20 62  1  0
 21 63  1  0
 21 64  1  0
 22 65  1  1
 23 66  1  0
 25 67  1  0
 25 68  1  0
 25 69  1  0
 26 70  1  0
 26 71  1  0
 26 72  1  0
 28 73  1  0
 28 74  1  0
 28 75  1  0
 29 76  1  0
 29 77  1  0
 30 78  1  0
 30 79  1  0
 32 80  1  0
 32 81  1  0
 32 82  1  0
M  END
>  <meeko>  (15) 
{"is_sidechain": [false], "intermolecular_energy": 2.731, "internal_energy": -0.839}

$$$$
EPH_relaxed_0001_pdb2pqr_Repair_147_r2_0001_out
     RDKit          3D

 82 86  0  0  0  0  0  0  0  0999 V2000
    4.6890   17.7710   -2.5900 C   0  0  0  0  0  0  0  0  0  0  0  0
    3.3060   17.1790   -2.8780 C   0  0  2  0  0  0  0  0  0  0  0  0
    2.1770   18.2020   -2.6470 C   0  0  0  0  0  0  0  0  0  0  0  0
    2.0910   18.7090   -1.2040 C   0  0  0  0  0  0  0  0  0  0  0  0
    0.9710   19.6890   -1.0270 C   0  0  2  0  0  0  0  0  0  0  0  0
    0.8230   20.1940    0.3070 O   0  0  0  0  0  0  0  0  0  0  0  0
   -0.2660   19.4040   -0.1950 C   0  0  0  0  0  0  0  0  0  0  0  0
   -0.4470   18.0980    0.5120 C   0  0  0  0  0  0  0  0  0  0  0  0
   -1.5080   20.1940   -0.4680 C   0  0  0  0  0  0  0  0  0  0  0  0
    3.0780   15.9470   -2.0110 C   0  0  1  0  0  0  0  0  0  0  0  0
    3.2540   16.2400   -0.4970 C   0  0  0  0  0  0  0  0  0  0  0  0
    2.2270   15.3530    0.2520 C   0  0  0  0  0  0  0  0  0  0  0  0
    1.7320   14.3450   -0.8120 C   0  0  1  0  0  0  0  0  0  0  0  0
    2.8360   13.2430   -0.8650 C   0  0  0  0  0  0  0  0  0  0  0  0
    0.3140   13.7310   -0.5750 C   0  0  2  0  0  0  0  0  0  0  0  0
    0.1720   12.8900    0.7060 C   0  0  0  0  0  0  0  0  0  0  0  0
    0.4680   11.4350    0.5490 C   0  0  0  0  0  0  0  0  0  0  0  0
    0.5540   10.7760   -0.6220 C   0  0  0  0  0  0  0  0  0  0  0  0
    0.2490   11.4840   -1.9480 C   0  0  1  0  0  0  0  0  0  0  0  0
   -0.6760   10.5870   -2.8120 C   0  0  0  0  0  0  0  0  0  0  0  0
   -0.1090    9.1860   -3.0160 C   0  0  0  0  0  0  0  0  0  0  0  0
    0.1260    8.4930   -1.6760 C   0  0  2  0  0  0  0  0  0  0  0  0
   -1.1390    8.2550   -1.0520 O   0  0  0  0  0  0  0  0  0  0  0  0
    1.0380    9.3080   -0.7170 C   0  0  0  0  0  0  0  0  0  0  0  0
    2.4910    9.3080   -1.2540 C   0  0  0  0  0  0  0  0  0  0  0  0
    1.0790    8.5670    0.6470 C   0  0  0  0  0  0  0  0  0  0  0  0
   -0.2840   12.9770   -1.8310 C   0  0  1  0  0  0  0  0  0  0  0  0
   -1.8330   12.9760   -1.6550 C   0  0  0  0  0  0  0  0  0  0  0  0
    0.0100   13.7340   -3.1800 C   0  0  0  0  0  0  0  0  0  0  0  0
    1.3820   14.4220   -3.3060 C   0  0  0  0  0  0  0  0  0  0  0  0
    1.6800   15.2820   -2.0740 C   0  0  2  0  0  0  0  0  0  0  0  0
    0.5990   16.4130   -2.0070 C   0  0  0  0  0  0  0  0  0  0  0  0
    4.8408   17.8360   -1.5025 H   0  0  0  0  0  0  0  0  0  0  0  0
    5.4631   17.1254   -3.0304 H   0  0  0  0  0  0  0  0  0  0  0  0
    4.7563   18.7768   -3.0304 H   0  0  0  0  0  0  0  0  0  0  0  0
    3.2818   16.8957   -3.9406 H   0  0  0  0  0  0  0  0  0  0  0  0
    2.3489   19.0641   -3.3083 H   0  0  0  0  0  0  0  0  0  0  0  0
    1.2287   17.6887   -2.8644 H   0  0  0  0  0  0  0  0  0  0  0  0
    1.9243   17.8523   -0.5344 H   0  0  0  0  0  0  0  0  0  0  0  0
    3.0350   19.2197   -0.9630 H   0  0  0  0  0  0  0  0  0  0  0  0
    1.1001   20.0589   -2.0549 H   0  0  0  0  0  0  0  0  0  0  0  0
   -0.4241   18.2634    1.5993 H   0  0  0  0  0  0  0  0  0  0  0  0
   -1.4146   17.6585    0.2283 H   0  0  0  0  0  0  0  0  0  0  0  0
    0.3646   17.4119    0.2283 H   0  0  0  0  0  0  0  0  0  0  0  0
   -1.9718   20.4890    0.4848 H   0  0  0  0  0  0  0  0  0  0  0  0
   -1.2504   21.0946   -1.0447 H   0  0  0  0  0  0  0  0  0  0  0  0
   -2.2144   19.5789   -1.0447 H   0  0  0  0  0  0  0  0  0  0  0  0
    3.8340   15.2751   -2.4435 H   0  0  0  0  0  0  0  0  0  0  0  0
    4.2762   15.9875   -0.1785 H   0  0  0  0  0  0  0  0  0  0  0  0
    3.0891   17.3055   -0.2790 H   0  0  0  0  0  0  0  0  0  0  0  0
    2.7067   14.8277    1.0910 H   0  0  0  0  0  0  0  0  0  0  0  0
    1.4040   15.9416    0.6835 H   0  0  0  0  0  0  0  0  0  0  0  0
    3.1203   12.9592    0.1590 H   0  0  0  0  0  0  0  0  0  0  0  0
    2.4484   12.3609   -1.3957 H   0  0  0  0  0  0  0  0  0  0  0  0
    3.7174   13.6322   -1.3957 H   0  0  0  0  0  0  0  0  0  0  0  0
   -0.3060   14.6254   -0.4146 H   0  0  0  0  0  0  0  0  0  0  0  0
    0.8623   13.2981    1.4589 H   0  0  0  0  0  0  0  0  0  0  0  0
   -0.8866   12.9557    0.9978 H   0  0  0  0  0  0  0  0  0  0  0  0
    0.6295   10.8521    1.4678 H   0  0  0  0  0  0  0  0  0  0  0  0
    1.2177   11.6170   -2.4520 H   0  0  0  0  0  0  0  0  0  0  0  0
   -1.6523   10.5028   -2.3122 H   0  0  0  0  0  0  0  0  0  0  0  0
   -0.7668   11.0575   -3.8021 H   0  0  0  0  0  0  0  0  0  0  0  0
   -0.8205    8.5923   -3.6086 H   0  0  0  0  0  0  0  0  0  0  0  0
    0.8534    9.2695   -3.5421 H   0  0  0  0  0  0  0  0  0  0  0  0
    0.6513    7.5484   -1.8803 H   0  0  0  0  0  0  0  0  0  0  0  0
   -1.7950    8.8230   -1.4900 H   0  0  0  0  0  0  0  0  0  0  0  0
    2.8349    8.2709   -1.3811 H   0  0  0  0  0  0  0  0  0  0  0  0
    2.5236    9.8265   -2.2236 H   0  0  0  0  0  0  0  0  0  0  0  0
    3.1463    9.8265   -0.5387 H   0  0  0  0  0  0  0  0  0  0  0  0
    1.0384    9.3016    1.4647 H   0  0  0  0  0  0  0  0  0  0  0  0
    0.2171    7.8876    0.7213 H   0  0  0  0  0  0  0  0  0  0  0  0
    2.0106    7.9869    0.7213 H   0  0  0  0  0  0  0  0  0  0  0  0
   -2.0802   12.9758   -0.5831 H   0  0  0  0  0  0  0  0  0  0  0  0
   -2.2564   13.8739   -2.1288 H   0  0  0  0  0  0  0  0  0  0  0  0
   -2.2553   12.0776   -2.1288 H   0  0  0  0  0  0  0  0  0  0  0  0
   -0.0713   13.0018   -3.9969 H   0  0  0  0  0  0  0  0  0  0  0  0
   -0.7258   14.5508   -3.2177 H   0  0  0  0  0  0  0  0  0  0  0  0
    2.1623   13.6530   -3.4052 H   0  0  0  0  0  0  0  0  0  0  0  0
    1.3675   15.0729   -4.1926 H   0  0  0  0  0  0  0  0  0  0  0  0
    0.3765   16.6457   -0.9552 H   0  0  0  0  0  0  0  0  0  0  0  0
    0.9798   17.3144   -2.5094 H   0  0  0  0  0  0  0  0  0  0  0  0
   -0.3187   16.0733   -2.5094 H   0  0  0  0  0  0  0  0  0  0  0  0
  1  2  1  0
  2  3  1  0
  3  4  1  0
  4  5  1  0
  5  6  1  0
  6  7  1  0
  7  8  1  0
  7  9  1  0
  2 10  1  0
 10 11  1  0
 11 12  1  0
 12 13  1  0
 13 14  1  6
 13 15  1  0
 15 16  1  0
 16 17  1  0
 17 18  2  0
 18 19  1  0
 19 20  1  0
 20 21  1  0
 21 22  1  0
 22 23  1  0
 22 24  1  0
 24 25  1  0
 24 26  1  0
 19 27  1  0
 27 28  1  1
 27 29  1  0
 29 30  1  0
 30 31  1  0
 31 32  1  1
  7  5  1  0
 31 10  1  0
 31 13  1  0
 27 15  1  0
 24 18  1  0
  1 33  1  0
  1 34  1  0
  1 35  1  0
  2 36  1  6
  3 37  1  0
  3 38  1  0
  4 39  1  0
  4 40  1  0
  5 41  1  6
  8 42  1  0
  8 43  1  0
  8 44  1  0
  9 45  1  0
  9 46  1  0
  9 47  1  0
 10 48  1  6
 11 49  1  0
 11 50  1  0
 12 51  1  0
 12 52  1  0
 14 53  1  0
 14 54  1  0
 14 55  1  0
 15 56  1  1
 16 57  1  0
 16 58  1  0
 17 59  1  0
 19 60  1  6
 20 61  1  0
 20 62  1  0
 21 63  1  0
 21 64  1  0
 22 65  1  6
 23 66  1  0
 25 67  1  0
 25 68  1  0
 25 69  1  0
 26 70  1  0
 26 71  1  0
 26 72  1  0
 28 73  1  0
 28 74  1  0
 28 75  1  0
 29 76  1  0
 29 77  1  0
 30 78  1  0
 30 79  1  0
 32 80  1  0
 32 81  1  0
 32 82  1  0
M  END
>  <meeko>  (16) 
{"is_sidechain": [false], "intermolecular_energy": 2.731, "internal_energy": -0.839}

$$$$
EPH_relaxed_0001_pdb2pqr_Repair_147_r2_0001_out
     RDKit          3D

 82 86  0  0  0  0  0  0  0  0999 V2000
   -0.1270    8.5350   -3.4530 C   0  0  0  0  0  0  0  0  0  0  0  0
   -0.5690    8.9350   -2.0420 C   0  0  2  0  0  0  0  0  0  0  0  0
   -1.8810    8.2400   -1.6260 C   0  0  0  0  0  0  0  0  0  0  0  0
   -2.5020    7.3840   -2.7330 C   0  0  0  0  0  0  0  0  0  0  0  0
   -3.9880    7.5700   -2.8090 C   0  0  2  0  0  0  0  0  0  0  0  0
   -4.6920    7.2680   -1.5970 O   0  0  0  0  0  0  0  0  0  0  0  0
   -4.9790    6.4240   -2.7240 C   0  0  0  0  0  0  0  0  0  0  0  0
   -4.5240    5.0090   -2.5570 C   0  0  0  0  0  0  0  0  0  0  0  0
   -6.3510    6.6220   -3.2910 C   0  0  0  0  0  0  0  0  0  0  0  0
   -0.7300   10.4480   -1.9580 C   0  0  1  0  0  0  0  0  0  0  0  0
   -2.0630   10.8700   -1.2830 C   0  0  0  0  0  0  0  0  0  0  0  0
   -1.7680   12.1640   -0.4810 C   0  0  0  0  0  0  0  0  0  0  0  0
   -0.3800   12.6250   -0.9830 C   0  0  1  0  0  0  0  0  0  0  0  0
   -0.6660   13.3710   -2.3240 C   0  0  0  0  0  0  0  0  0  0  0  0
    0.4530   13.5090    0.0030 C   0  0  2  0  0  0  0  0  0  0  0  0
   -0.1870   14.8610    0.3660 C   0  0  0  0  0  0  0  0  0  0  0  0
    0.1830   16.0010   -0.5250 C   0  0  0  0  0  0  0  0  0  0  0  0
    1.2090   16.0120   -1.3960 C   0  0  0  0  0  0  0  0  0  0  0  0
    2.1840   14.8300   -1.4800 C   0  0  1  0  0  0  0  0  0  0  0  0
    3.6410   15.3620   -1.5050 C   0  0  0  0  0  0  0  0  0  0  0  0
    3.8710   16.3880   -2.6100 C   0  0  0  0  0  0  0  0  0  0  0  0
    2.9220   17.5750   -2.4590 C   0  0  2  0  0  0  0  0  0  0  0  0
    3.2620   18.2870   -1.2650 O   0  0  0  0  0  0  0  0  0  0  0  0
    1.4250   17.1600   -2.4120 C   0  0  0  0  0  0  0  0  0  0  0  0
    0.9780   16.6640   -3.8100 C   0  0  0  0  0  0  0  0  0  0  0  0
    0.5870   18.4330   -2.1160 C   0  0  0  0  0  0  0  0  0  0  0  0
    1.9720   13.6790   -0.4050 C   0  0  1  0  0  0  0  0  0  0  0  0
    2.7480   14.0240    0.9030 C   0  0  0  0  0  0  0  0  0  0  0  0
    2.5980   12.3420   -0.9530 C   0  0  0  0  0  0  0  0  0  0  0  0
    1.6870   11.4540   -1.8220 C   0  0  0  0  0  0  0  0  0  0  0  0
    0.3310   11.2330   -1.1470 C   0  0  2  0  0  0  0  0  0  0  0  0
    0.5850   10.4640    0.1950 C   0  0  0  0  0  0  0  0  0  0  0  0
    0.6871    7.7982   -3.3871 H   0  0  0  0  0  0  0  0  0  0  0  0
   -0.9780    8.0938   -3.9926 H   0  0  0  0  0  0  0  0  0  0  0  0
    0.2273    9.4257   -3.9926 H   0  0  0  0  0  0  0  0  0  0  0  0
    0.2140    8.6056   -1.3431 H   0  0  0  0  0  0  0  0  0  0  0  0
   -1.6719    7.5921   -0.7620 H   0  0  0  0  0  0  0  0  0  0  0  0
   -2.6045    9.0342   -1.3898 H   0  0  0  0  0  0  0  0  0  0  0  0
   -2.0569    7.6703   -3.6973 H   0  0  0  0  0  0  0  0  0  0  0  0
   -2.2995    6.3273   -2.5042 H   0  0  0  0  0  0  0  0  0  0  0  0
   -3.8723    8.3939   -3.5286 H   0  0  0  0  0  0  0  0  0  0  0  0
   -4.4479    4.7724   -1.4855 H   0  0  0  0  0  0  0  0  0  0  0  0
   -5.2498    4.3321   -3.0314 H   0  0  0  0  0  0  0  0  0  0  0  0
   -3.5397    4.8819   -3.0314 H   0  0  0  0  0  0  0  0  0  0  0  0
   -7.0755    6.7266   -2.4699 H   0  0  0  0  0  0  0  0  0  0  0  0
   -6.3643    7.5314   -3.9098 H   0  0  0  0  0  0  0  0  0  0  0  0
   -6.6209    5.7535   -3.9098 H   0  0  0  0  0  0  0  0  0  0  0  0
   -0.6497   10.7013   -3.0254 H   0  0  0  0  0  0  0  0  0  0  0  0
   -2.8297   11.0645   -2.0474 H   0  0  0  0  0  0  0  0  0  0  0  0
   -2.4414   10.0745   -0.6242 H   0  0  0  0  0  0  0  0  0  0  0  0
   -2.5297   12.9305   -0.6865 H   0  0  0  0  0  0  0  0  0  0  0  0
   -1.7838   11.9944    0.6057 H   0  0  0  0  0  0  0  0  0  0  0  0
   -1.0521   14.3781   -2.1082 H   0  0  0  0  0  0  0  0  0  0  0  0
    0.2649   13.4518   -2.9044 H   0  0  0  0  0  0  0  0  0  0  0  0
   -1.4123   12.8088   -2.9044 H   0  0  0  0  0  0  0  0  0  0  0  0
    0.4361   12.9128    0.9273 H   0  0  0  0  0  0  0  0  0  0  0  0
   -1.2798   14.7409    0.3284 H   0  0  0  0  0  0  0  0  0  0  0  0
    0.1934   15.1195    1.3652 H   0  0  0  0  0  0  0  0  0  0  0  0
   -0.4355   16.9086   -0.4642 H   0  0  0  0  0  0  0  0  0  0  0  0
    1.9586   14.3156   -2.4258 H   0  0  0  0  0  0  0  0  0  0  0  0
    3.8610   15.8328   -0.5355 H   0  0  0  0  0  0  0  0  0  0  0  0
    4.3050   14.5070   -1.7002 H   0  0  0  0  0  0  0  0  0  0  0  0
    4.9091   16.7480   -2.5566 H   0  0  0  0  0  0  0  0  0  0  0  0
    3.6800   15.9072   -3.5807 H   0  0  0  0  0  0  0  0  0  0  0  0
    3.0431   18.2104   -3.3487 H   0  0  0  0  0  0  0  0  0  0  0  0
    4.2260   18.2310   -1.1540 H   0  0  0  0  0  0  0  0  0  0  0  0
    0.2457   15.8514   -3.6939 H   0  0  0  0  0  0  0  0  0  0  0  0
    0.5183   17.4955   -4.3644 H   0  0  0  0  0  0  0  0  0  0  0  0
    1.8526   16.2929   -4.3644 H   0  0  0  0  0  0  0  0  0  0  0  0
    0.4978   18.5685   -1.0280 H   0  0  0  0  0  0  0  0  0  0  0  0
    1.0849   19.3101   -2.5551 H   0  0  0  0  0  0  0  0  0  0  0  0
   -0.4155   18.3224   -2.5551 H   0  0  0  0  0  0  0  0  0  0  0  0
    2.1356   13.7517    1.7753 H   0  0  0  0  0  0  0  0  0  0  0  0
    3.6927   13.4611    0.9282 H   0  0  0  0  0  0  0  0  0  0  0  0
    2.9630   15.1025    0.9282 H   0  0  0  0  0  0  0  0  0  0  0  0
    3.4771   12.6094   -1.5577 H   0  0  0  0  0  0  0  0  0  0  0  0
    2.8193   11.7401   -0.0593 H   0  0  0  0  0  0  0  0  0  0  0  0
    1.5293   11.9433   -2.7945 H   0  0  0  0  0  0  0  0  0  0  0  0
    2.1748   10.4773   -1.9567 H   0  0  0  0  0  0  0  0  0  0  0  0
    0.3659   11.1272    1.0448 H   0  0  0  0  0  0  0  0  0  0  0  0
   -0.0692    9.5809    0.2410 H   0  0  0  0  0  0  0  0  0  0  0  0
    1.6365   10.1442    0.2410 H   0  0  0  0  0  0  0  0  0  0  0  0
  1  2  1  0
  2  3  1  0
  3  4  1  0
  4  5  1  0
  5  6  1  0
  6  7  1  0
  7  8  1  0
  7  9  1  0
  2 10  1  0
 10 11  1  0
 11 12  1  0
 12 13  1  0
 13 14  1  6
 13 15  1  0
 15 16  1  0
 16 17  1  0
 17 18  2  0
 18 19  1  0
 19 20  1  0
 20 21  1  0
 21 22  1  0
 22 23  1  0
 22 24  1  0
 24 25  1  0
 24 26  1  0
 19 27  1  0
 27 28  1  1
 27 29  1  0
 29 30  1  0
 30 31  1  0
 31 32  1  1
  7  5  1  0
 31 10  1  0
 31 13  1  0
 27 15  1  0
 24 18  1  0
  1 33  1  0
  1 34  1  0
  1 35  1  0
  2 36  1  1
  3 37  1  0
  3 38  1  0
  4 39  1  0
  4 40  1  0
  5 41  1  6
  8 42  1  0
  8 43  1  0
  8 44  1  0
  9 45  1  0
  9 46  1  0
  9 47  1  0
 10 48  1  6
 11 49  1  0
 11 50  1  0
 12 51  1  0
 12 52  1  0
 14 53  1  0
 14 54  1  0
 14 55  1  0
 15 56  1  1
 16 57  1  0
 16 58  1  0
 17 59  1  0
 19 60  1  6
 20 61  1  0
 20 62  1  0
 21 63  1  0
 21 64  1  0
 22 65  1  6
 23 66  1  0
 25 67  1  0
 25 68  1  0
 25 69  1  0
 26 70  1  0
 26 71  1  0
 26 72  1  0
 28 73  1  0
 28 74  1  0
 28 75  1  0
 29 76  1  0
 29 77  1  0
 30 78  1  0
 30 79  1  0
 32 80  1  0
 32 81  1  0
 32 82  1  0
M  END
>  <meeko>  (17) 
{"is_sidechain": [false], "intermolecular_energy": 2.731, "internal_energy": -0.839}

$$$$
EPH_relaxed_0001_pdb2pqr_Repair_147_r2_0001_out
     RDKit          3D

 82 86  0  0  0  0  0  0  0  0999 V2000
   -0.8500   10.7300   -1.6660 C   0  0  0  0  0  0  0  0  0  0  0  0
    0.3190   10.3420   -0.7570 C   0  0  2  0  0  0  0  0  0  0  0  0
   -0.1470    9.9890    0.6690 C   0  0  0  0  0  0  0  0  0  0  0  0
    0.6600   10.6830    1.7700 C   0  0  0  0  0  0  0  0  0  0  0  0
   -0.1290   11.7700    2.4340 C   0  0  2  0  0  0  0  0  0  0  0  0
    0.4480   13.0780    2.3300 O   0  0  0  0  0  0  0  0  0  0  0  0
    0.3550   12.5300    3.6550 C   0  0  0  0  0  0  0  0  0  0  0  0
    1.6790   12.2310    4.2850 C   0  0  0  0  0  0  0  0  0  0  0  0
   -0.6570   13.2140    4.5200 C   0  0  0  0  0  0  0  0  0  0  0  0
    1.3370   11.4750   -0.7070 C   0  0  1  0  0  0  0  0  0  0  0  0
    2.6890   11.0940   -1.3680 C   0  0  0  0  0  0  0  0  0  0  0  0
    3.2350   12.3790   -2.0420 C   0  0  0  0  0  0  0  0  0  0  0  0
    2.3600   13.5200   -1.4730 C   0  0  1  0  0  0  0  0  0  0  0  0
    2.9780   13.8400   -0.0760 C   0  0  0  0  0  0  0  0  0  0  0  0
    2.2380   14.8040   -2.3580 C   0  0  2  0  0  0  0  0  0  0  0  0
    3.5590   15.5510   -2.6090 C   0  0  0  0  0  0  0  0  0  0  0  0
    3.8920   16.6110   -1.6120 C   0  0  0  0  0  0  0  0  0  0  0  0
    3.0340   17.1450   -0.7230 C   0  0  0  0  0  0  0  0  0  0  0  0
    1.5500   16.7550   -0.7270 C   0  0  1  0  0  0  0  0  0  0  0  0
    0.6780   18.0340   -0.6250 C   0  0  0  0  0  0  0  0  0  0  0  0
    1.0500   18.9020    0.5730 C   0  0  0  0  0  0  0  0  0  0  0  0
    2.5180   19.3180    0.5110 C   0  0  2  0  0  0  0  0  0  0  0  0
    2.7020   20.1930   -0.6060 O   0  0  0  0  0  0  0  0  0  0  0  0
    3.4920   18.1120    0.3980 C   0  0  0  0  0  0  0  0  0  0  0  0
    3.5120   17.3310    1.7350 C   0  0  0  0  0  0  0  0  0  0  0  0
    4.9260   18.6730    0.2010 C   0  0  0  0  0  0  0  0  0  0  0  0
    1.0900   15.7950   -1.9060 C   0  0  1  0  0  0  0  0  0  0  0  0
    0.7100   16.6380   -3.1620 C   0  0  0  0  0  0  0  0  0  0  0  0
   -0.2190   15.0350   -1.4690 C   0  0  0  0  0  0  0  0  0  0  0  0
   -0.0310   13.7120   -0.7030 C   0  0  0  0  0  0  0  0  0  0  0  0
    0.9650   12.7980   -1.4230 C   0  0  2  0  0  0  0  0  0  0  0  0
    0.3600   12.4410   -2.8230 C   0  0  0  0  0  0  0  0  0  0  0  0
   -1.7145   11.0169   -1.0493 H   0  0  0  0  0  0  0  0  0  0  0  0
   -0.5548   11.5784   -2.3010 H   0  0  0  0  0  0  0  0  0  0  0  0
   -1.1207    9.8735   -2.3010 H   0  0  0  0  0  0  0  0  0  0  0  0
    0.7855    9.4420   -1.1840 H   0  0  0  0  0  0  0  0  0  0  0  0
   -1.2015   10.2843    0.7728 H   0  0  0  0  0  0  0  0  0  0  0  0
    0.0002    8.9064    0.7965 H   0  0  0  0  0  0  0  0  0  0  0  0
    0.9460    9.9372    2.5263 H   0  0  0  0  0  0  0  0  0  0  0  0
    1.5491   11.1376    1.3087 H   0  0  0  0  0  0  0  0  0  0  0  0
   -1.0732   11.2496    2.2154 H   0  0  0  0  0  0  0  0  0  0  0  0
    1.5775   12.2539    5.3801 H   0  0  0  0  0  0  0  0  0  0  0  0
    2.0185   11.2336    3.9690 H   0  0  0  0  0  0  0  0  0  0  0  0
    2.4142   12.9857    3.9690 H   0  0  0  0  0  0  0  0  0  0  0  0
   -0.4083   13.0459    5.5783 H   0  0  0  0  0  0  0  0  0  0  0  0
   -0.6503   14.2935    4.3087 H   0  0  0  0  0  0  0  0  0  0  0  0
   -1.6561   12.8053    4.3087 H   0  0  0  0  0  0  0  0  0  0  0  0
    1.3809   11.6346    0.3805 H   0  0  0  0  0  0  0  0  0  0  0  0
    3.3963   10.7366   -0.6051 H   0  0  0  0  0  0  0  0  0  0  0  0
    2.5554   10.2879   -2.1045 H   0  0  0  0  0  0  0  0  0  0  0  0
    4.2926   12.5343   -1.7824 H   0  0  0  0  0  0  0  0  0  0  0  0
    3.1891   12.3259   -3.1398 H   0  0  0  0  0  0  0  0  0  0  0  0
    2.2989   13.4883    0.7146 H   0  0  0  0  0  0  0  0  0  0  0  0
    3.9483   13.3310    0.0210 H   0  0  0  0  0  0  0  0  0  0  0  0
    3.1224   14.9262    0.0210 H   0  0  0  0  0  0  0  0  0  0  0  0
    1.9386   14.3918   -3.3329 H   0  0  0  0  0  0  0  0  0  0  0  0
    4.3736   14.8118   -2.6040 H   0  0  0  0  0  0  0  0  0  0  0  0
    3.4381   16.0672   -3.5728 H   0  0  0  0  0  0  0  0  0  0  0  0
    4.9256   16.9873   -1.6031 H   0  0  0  0  0  0  0  0  0  0  0  0
    1.3973   16.1280    0.1638 H   0  0  0  0  0  0  0  0  0  0  0  0
    0.8103   18.6250   -1.5432 H   0  0  0  0  0  0  0  0  0  0  0  0
   -0.3670   17.7160   -0.4951 H   0  0  0  0  0  0  0  0  0  0  0  0
    0.4201   19.8038    0.5736 H   0  0  0  0  0  0  0  0  0  0  0  0
    0.8888   18.3195    1.4921 H   0  0  0  0  0  0  0  0  0  0  0  0
    2.7578   19.8262    1.4567 H   0  0  0  0  0  0  0  0  0  0  0  0
    1.8270   20.3650   -0.9920 H   0  0  0  0  0  0  0  0  0  0  0  0
    3.4938   18.0412    2.5748 H   0  0  0  0  0  0  0  0  0  0  0  0
    2.6303   16.6755    1.7900 H   0  0  0  0  0  0  0  0  0  0  0  0
    4.4260   16.7215    1.7900 H   0  0  0  0  0  0  0  0  0  0  0  0
    5.3873   18.8535    1.1832 H   0  0  0  0  0  0  0  0  0  0  0  0
    5.5306   17.9451   -0.3599 H   0  0  0  0  0  0  0  0  0  0  0  0
    4.8762   19.6179   -0.3599 H   0  0  0  0  0  0  0  0  0  0  0  0
    0.2775   17.5976   -2.8424 H   0  0  0  0  0  0  0  0  0  0  0  0
    1.6111   16.8246   -3.7647 H   0  0  0  0  0  0  0  0  0  0  0  0
   -0.0265   16.0864   -3.7647 H   0  0  0  0  0  0  0  0  0  0  0  0
   -0.7982   15.7130   -0.8249 H   0  0  0  0  0  0  0  0  0  0  0  0
   -0.7167   14.7550   -2.4092 H   0  0  0  0  0  0  0  0  0  0  0  0
    0.3468   13.9313    0.3065 H   0  0  0  0  0  0  0  0  0  0  0  0
   -1.0019   13.1979   -0.6477 H   0  0  0  0  0  0  0  0  0  0  0  0
   -0.5799   11.8864   -2.6856 H   0  0  0  0  0  0  0  0  0  0  0  0
    0.1611   13.3665   -3.3833 H   0  0  0  0  0  0  0  0  0  0  0  0
    1.0740   11.8195   -3.3833 H   0  0  0  0  0  0  0  0  0  0  0  0
  1  2  1  0
  2  3  1  0
  3  4  1  0
  4  5  1  0
  5  6  1  0
  6  7  1  0
  7  8  1  0
  7  9  1  0
  2 10  1  0
 10 11  1  0
 11 12  1  0
 12 13  1  0
 13 14  1  1
 13 15  1  0
 15 16  1  0
 16 17  1  0
 17 18  2  0
 18 19  1  0
 19 20  1  0
 20 21  1  0
 21 22  1  0
 22 23  1  0
 22 24  1  0
 24 25  1  0
 24 26  1  0
 19 27  1  0
 27 28  1  6
 27 29  1  0
 29 30  1  0
 30 31  1  0
 31 32  1  6
  7  5  1  0
 31 10  1  0
 31 13  1  0
 27 15  1  0
 24 18  1  0
  1 33  1  0
  1 34  1  0
  1 35  1  0
  2 36  1  6
  3 37  1  0
  3 38  1  0
  4 39  1  0
  4 40  1  0
  5 41  1  1
  8 42  1  0
  8 43  1  0
  8 44  1  0
  9 45  1  0
  9 46  1  0
  9 47  1  0
 10 48  1  1
 11 49  1  0
 11 50  1  0
 12 51  1  0
 12 52  1  0
 14 53  1  0
 14 54  1  0
 14 55  1  0
 15 56  1  6
 16 57  1  0
 16 58  1  0
 17 59  1  0
 19 60  1  1
 20 61  1  0
 20 62  1  0
 21 63  1  0
 21 64  1  0
 22 65  1  1
 23 66  1  0
 25 67  1  0
 25 68  1  0
 25 69  1  0
 26 70  1  0
 26 71  1  0
 26 72  1  0
 28 73  1  0
 28 74  1  0
 28 75  1  0
 29 76  1  0
 29 77  1  0
 30 78  1  0
 30 79  1  0
 32 80  1  0
 32 81  1  0
 32 82  1  0
M  END
>  <meeko>  (18) 
{"is_sidechain": [false], "intermolecular_energy": 2.731, "internal_energy": -0.839}

$$$$
EPH_relaxed_0001_pdb2pqr_Repair_147_r2_0001_out
     RDKit          3D

 82 86  0  0  0  0  0  0  0  0999 V2000
    2.8360   11.5840   -5.3610 C   0  0  0  0  0  0  0  0  0  0  0  0
    1.8600   11.2110   -4.2410 C   0  0  2  0  0  0  0  0  0  0  0  0
    0.7750   10.2260   -4.7210 C   0  0  0  0  0  0  0  0  0  0  0  0
   -0.2800    9.9070   -3.6580 C   0  0  0  0  0  0  0  0  0  0  0  0
    0.3140    9.1860   -2.4860 C   0  0  2  0  0  0  0  0  0  0  0  0
   -0.4390    8.0530   -2.0360 O   0  0  0  0  0  0  0  0  0  0  0  0
   -0.3300    9.1480   -1.1130 C   0  0  0  0  0  0  0  0  0  0  0  0
   -1.6260    9.8450   -0.8400 C   0  0  0  0  0  0  0  0  0  0  0  0
    0.5330    8.8530    0.0740 C   0  0  0  0  0  0  0  0  0  0  0  0
    1.2090   12.4700   -3.6800 C   0  0  1  0  0  0  0  0  0  0  0  0
   -0.2800   12.2530   -3.2980 C   0  0  0  0  0  0  0  0  0  0  0  0
   -0.5520   13.1250   -2.0460 C   0  0  0  0  0  0  0  0  0  0  0  0
    0.6760   14.0590   -1.9460 C   0  0  1  0  0  0  0  0  0  0  0  0
    0.3900   15.2080   -2.9630 C   0  0  0  0  0  0  0  0  0  0  0  0
    1.0070   14.6170   -0.5240 C   0  0  2  0  0  0  0  0  0  0  0  0
   -0.0830   15.5080    0.0980 C   0  0  0  0  0  0  0  0  0  0  0  0
    0.0410   16.9660   -0.1960 C   0  0  0  0  0  0  0  0  0  0  0  0
    1.1370   17.5750   -0.6850 C   0  0  0  0  0  0  0  0  0  0  0  0
    2.4400   16.7950   -0.9040 C   0  0  1  0  0  0  0  0  0  0  0  0
    3.6320   17.6080   -0.3340 C   0  0  0  0  0  0  0  0  0  0  0  0
    3.6980   19.0230   -0.8990 C   0  0  0  0  0  0  0  0  0  0  0  0
    2.4080   19.7860   -0.6110 C   0  0  2  0  0  0  0  0  0  0  0  0
    2.3000   19.9930    0.8010 O   0  0  0  0  0  0  0  0  0  0  0  0
    1.1370   19.0580   -1.1310 C   0  0  0  0  0  0  0  0  0  0  0  0
    1.1090   19.1010   -2.6790 C   0  0  0  0  0  0  0  0  0  0  0  0
   -0.1030   19.8610   -0.6520 C   0  0  0  0  0  0  0  0  0  0  0  0
    2.4370   15.2860   -0.4060 C   0  0  1  0  0  0  0  0  0  0  0  0
    2.8350   15.2220    1.1010 C   0  0  0  0  0  0  0  0  0  0  0  0
    3.5400   14.4820   -1.1910 C   0  0  0  0  0  0  0  0  0  0  0  0
    3.1180   13.8540   -2.5330 C   0  0  0  0  0  0  0  0  0  0  0  0
    1.8130   13.0660   -2.3840 C   0  0  2  0  0  0  0  0  0  0  0  0
    2.0770   11.8890   -1.3830 C   0  0  0  0  0  0  0  0  0  0  0  0
    3.7780   11.9440   -4.9217 H   0  0  0  0  0  0  0  0  0  0  0  0
    3.0361   10.6990   -5.9828 H   0  0  0  0  0  0  0  0  0  0  0  0
    2.3948   12.3769   -5.9828 H   0  0  0  0  0  0  0  0  0  0  0  0
    2.4374   10.7071   -3.4519 H   0  0  0  0  0  0  0  0  0  0  0  0
    0.2680   10.6655   -5.5927 H   0  0  0  0  0  0  0  0  0  0  0  0
    1.2831    9.2810   -4.9636 H   0  0  0  0  0  0  0  0  0  0  0  0
   -0.7287   10.8482   -3.3074 H   0  0  0  0  0  0  0  0  0  0  0  0
   -1.0390    9.2539   -4.1135 H   0  0  0  0  0  0  0  0  0  0  0  0
    1.3322    9.4391   -2.8166 H   0  0  0  0  0  0  0  0  0  0  0  0
   -1.7769    9.9262    0.2466 H   0  0  0  0  0  0  0  0  0  0  0  0
   -1.6014   10.8516   -1.2830 H   0  0  0  0  0  0  0  0  0  0  0  0
   -2.4522    9.2696   -1.2830 H   0  0  0  0  0  0  0  0  0  0  0  0
   -0.0338    9.0467    0.9966 H   0  0  0  0  0  0  0  0  0  0  0  0
    0.8430    7.7979    0.0488 H   0  0  0  0  0  0  0  0  0  0  0  0
    1.4240    9.4976    0.0488 H   0  0  0  0  0  0  0  0  0  0  0  0
    1.3768   13.1558   -4.5236 H   0  0  0  0  0  0  0  0  0  0  0  0
   -0.9330   12.5653   -4.1263 H   0  0  0  0  0  0  0  0  0  0  0  0
   -0.4844   11.1919   -3.0923 H   0  0  0  0  0  0  0  0  0  0  0  0
   -1.4751   13.7096   -2.1732 H   0  0  0  0  0  0  0  0  0  0  0  0
   -0.6901   12.5194   -1.1382 H   0  0  0  0  0  0  0  0  0  0  0  0
    0.1596   16.1336   -2.4152 H   0  0  0  0  0  0  0  0  0  0  0  0
    1.2760   15.3670   -3.5953 H   0  0  0  0  0  0  0  0  0  0  0  0
   -0.4671   14.9331   -3.5953 H   0  0  0  0  0  0  0  0  0  0  0  0
    1.0307   13.7029    0.0875 H   0  0  0  0  0  0  0  0  0  0  0  0
   -1.0579   15.1667   -0.2803 H   0  0  0  0  0  0  0  0  0  0  0  0
    0.0265   15.4069    1.1879 H   0  0  0  0  0  0  0  0  0  0  0  0
   -0.8380   17.5963    0.0040 H   0  0  0  0  0  0  0  0  0  0  0  0
    2.5494   16.6855   -1.9931 H   0  0  0  0  0  0  0  0  0  0  0  0
    3.5263   17.6694    0.7592 H   0  0  0  0  0  0  0  0  0  0  0  0
    4.5582   17.0896   -0.6227 H   0  0  0  0  0  0  0  0  0  0  0  0
    4.5422   19.5560   -0.4373 H   0  0  0  0  0  0  0  0  0  0  0  0
    3.8328   18.9599   -1.9889 H   0  0  0  0  0  0  0  0  0  0  0  0
    2.4637   20.7435   -1.1496 H   0  0  0  0  0  0  0  0  0  0  0  0
    3.1500   19.7420    1.2010 H   0  0  0  0  0  0  0  0  0  0  0  0
    0.5368   19.9798   -3.0111 H   0  0  0  0  0  0  0  0  0  0  0  0
    2.1378   19.1670   -3.0626 H   0  0  0  0  0  0  0  0  0  0  0  0
    0.6325   18.1868   -3.0626 H   0  0  0  0  0  0  0  0  0  0  0  0
   -0.1273   19.8767    0.4476 H   0  0  0  0  0  0  0  0  0  0  0  0
   -0.0418   20.8914   -1.0322 H   0  0  0  0  0  0  0  0  0  0  0  0
   -1.0182   19.3836   -1.0322 H   0  0  0  0  0  0  0  0  0  0  0  0
    1.9394   15.3660    1.7232 H   0  0  0  0  0  0  0  0  0  0  0  0
    3.2805   14.2407    1.3212 H   0  0  0  0  0  0  0  0  0  0  0  0
    3.5657   16.0142    1.3212 H   0  0  0  0  0  0  0  0  0  0  0  0
    4.3734   15.1709   -1.3933 H   0  0  0  0  0  0  0  0  0  0  0  0
    3.7930   13.6310   -0.5416 H   0  0  0  0  0  0  0  0  0  0  0  0
    2.9728   14.6535   -3.2744 H   0  0  0  0  0  0  0  0  0  0  0  0
    3.9089   13.1634   -2.8609 H   0  0  0  0  0  0  0  0  0  0  0  0
    1.9938   12.2599   -0.3508 H   0  0  0  0  0  0  0  0  0  0  0  0
    1.3349   11.0940   -1.5479 H   0  0  0  0  0  0  0  0  0  0  0  0
    3.0876   11.4871   -1.5479 H   0  0  0  0  0  0  0  0  0  0  0  0
  1  2  1  0
  2  3  1  0
  3  4  1  0
  4  5  1  0
  5  6  1  0
  6  7  1  0
  7  8  1  0
  7  9  1  0
  2 10  1  0
 10 11  1  0
 11 12  1  0
 12 13  1  0
 13 14  1  6
 13 15  1  0
 15 16  1  0
 16 17  1  0
 17 18  2  0
 18 19  1  0
 19 20  1  0
 20 21  1  0
 21 22  1  0
 22 23  1  0
 22 24  1  0
 24 25  1  0
 24 26  1  0
 19 27  1  0
 27 28  1  1
 27 29  1  0
 29 30  1  0
 30 31  1  0
 31 32  1  1
  7  5  1  0
 31 10  1  0
 31 13  1  0
 27 15  1  0
 24 18  1  0
  1 33  1  0
  1 34  1  0
  1 35  1  0
  2 36  1  1
  3 37  1  0
  3 38  1  0
  4 39  1  0
  4 40  1  0
  5 41  1  1
  8 42  1  0
  8 43  1  0
  8 44  1  0
  9 45  1  0
  9 46  1  0
  9 47  1  0
 10 48  1  6
 11 49  1  0
 11 50  1  0
 12 51  1  0
 12 52  1  0
 14 53  1  0
 14 54  1  0
 14 55  1  0
 15 56  1  1
 16 57  1  0
 16 58  1  0
 17 59  1  0
 19 60  1  6
 20 61  1  0
 20 62  1  0
 21 63  1  0
 21 64  1  0
 22 65  1  6
 23 66  1  0
 25 67  1  0
 25 68  1  0
 25 69  1  0
 26 70  1  0
 26 71  1  0
 26 72  1  0
 28 73  1  0
 28 74  1  0
 28 75  1  0
 29 76  1  0
 29 77  1  0
 30 78  1  0
 30 79  1  0
 32 80  1  0
 32 81  1  0
 32 82  1  0
M  END
>  <meeko>  (19) 
{"is_sidechain": [false], "intermolecular_energy": 2.731, "internal_energy": -0.839}

$$$$
