EPH_relaxed_0001_pdb2pqr_Repair_401_r2_0001_out
     RDKit          3D

 82 86  0  0  0  0  0  0  0  0999 V2000
   -1.6880    8.6020   -1.9080 C   0  0  0  0  0  0  0  0  0  0  0  0
   -2.0580    9.1230   -0.5170 C   0  0  2  0  0  0  0  0  0  0  0  0
   -3.5500    9.4980   -0.4150 C   0  0  0  0  0  0  0  0  0  0  0  0
   -4.4810    8.2900   -0.2770 C   0  0  0  0  0  0  0  0  0  0  0  0
   -5.1800    7.9780   -1.5650 C   0  0  2  0  0  0  0  0  0  0  0  0
   -6.3660    8.7470   -1.8040 O   0  0  0  0  0  0  0  0  0  0  0  0
   -6.5510    7.3320   -1.6380 C   0  0  0  0  0  0  0  0  0  0  0  0
   -7.3040    6.9570   -0.4000 C   0  0  0  0  0  0  0  0  0  0  0  0
   -6.9410    6.6230   -2.8980 C   0  0  0  0  0  0  0  0  0  0  0  0
   -1.1930   10.3280   -0.1660 C   0  0  1  0  0  0  0  0  0  0  0  0
   -0.1470   10.0120    0.9350 C   0  0  0  0  0  0  0  0  0  0  0  0
    1.1190   10.8420    0.6000 C   0  0  0  0  0  0  0  0  0  0  0  0
    0.6520   11.8490   -0.4760 C   0  0  1  0  0  0  0  0  0  0  0  0
   -0.0430   12.9960    0.3220 C   0  0  0  0  0  0  0  0  0  0  0  0
    1.7590   12.4000   -1.4340 C   0  0  2  0  0  0  0  0  0  0  0  0
    2.8720   13.2100   -0.7460 C   0  0  0  0  0  0  0  0  0  0  0  0
    2.6230   14.6780   -0.6450 C   0  0  0  0  0  0  0  0  0  0  0  0
    1.6910   15.3630   -1.3330 C   0  0  0  0  0  0  0  0  0  0  0  0
    0.8310   14.6700   -2.3980 C   0  0  1  0  0  0  0  0  0  0  0  0
    0.7860   15.5450   -3.6780 C   0  0  0  0  0  0  0  0  0  0  0  0
    0.3270   16.9720   -3.3950 C   0  0  0  0  0  0  0  0  0  0  0  0
    1.2410   17.6470   -2.3760 C   0  0  2  0  0  0  0  0  0  0  0  0
    2.5350   17.8210   -2.9620 O   0  0  0  0  0  0  0  0  0  0  0  0
    1.3720   16.8510   -1.0480 C   0  0  0  0  0  0  0  0  0  0  0  0
    0.0370   16.9200   -0.2660 C   0  0  0  0  0  0  0  0  0  0  0  0
    2.4300   17.5660   -0.1640 C   0  0  0  0  0  0  0  0  0  0  0  0
    1.1970   13.1550   -2.7070 C   0  0  1  0  0  0  0  0  0  0  0  0
    2.3150   13.0880   -3.7920 C   0  0  0  0  0  0  0  0  0  0  0  0
   -0.0620   12.4360   -3.3210 C   0  0  0  0  0  0  0  0  0  0  0  0
   -1.0570   11.8070   -2.3270 C   0  0  0  0  0  0  0  0  0  0  0  0
   -0.3290   10.9370   -1.2990 C   0  0  2  0  0  0  0  0  0  0  0  0
    0.3620    9.7610   -2.0710 C   0  0  0  0  0  0  0  0  0  0  0  0
   -1.0537    7.7088   -1.8083 H   0  0  0  0  0  0  0  0  0  0  0  0
   -2.6045    8.3413   -2.4577 H   0  0  0  0  0  0  0  0  0  0  0  0
   -1.1399    9.3814   -2.4577 H   0  0  0  0  0  0  0  0  0  0  0  0
   -1.8722    8.3103    0.2006 H   0  0  0  0  0  0  0  0  0  0  0  0
   -3.6863   10.1437    0.4651 H   0  0  0  0  0  0  0  0  0  0  0  0
   -3.8186   10.0050   -1.3535 H   0  0  0  0  0  0  0  0  0  0  0  0
   -3.8872    7.4154    0.0271 H   0  0  0  0  0  0  0  0  0  0  0  0
   -5.2445    8.5304    0.4776 H   0  0  0  0  0  0  0  0  0  0  0  0
   -4.2239    7.7368   -2.0526 H   0  0  0  0  0  0  0  0  0  0  0  0
   -6.7206    7.2475    0.4861 H   0  0  0  0  0  0  0  0  0  0  0  0
   -8.2728    7.4779   -0.3882 H   0  0  0  0  0  0  0  0  0  0  0  0
   -7.4720    5.8700   -0.3882 H   0  0  0  0  0  0  0  0  0  0  0  0
   -7.4571    5.6848   -2.6461 H   0  0  0  0  0  0  0  0  0  0  0  0
   -7.6132    7.2646   -3.4867 H   0  0  0  0  0  0  0  0  0  0  0  0
   -6.0393    6.3988   -3.4867 H   0  0  0  0  0  0  0  0  0  0  0  0
   -1.9783   11.0386    0.1314 H   0  0  0  0  0  0  0  0  0  0  0  0
   -0.5378   10.2989    1.9224 H   0  0  0  0  0  0  0  0  0  0  0  0
    0.0822    8.9366    0.9653 H   0  0  0  0  0  0  0  0  0  0  0  0
    1.4848   11.3698    1.4931 H   0  0  0  0  0  0  0  0  0  0  0  0
    1.9498   10.2122    0.2492 H   0  0  0  0  0  0  0  0  0  0  0  0
    0.0685   12.8119    1.4007 H   0  0  0  0  0  0  0  0  0  0  0  0
    0.4244   13.9577    0.0639 H   0  0  0  0  0  0  0  0  0  0  0  0
   -1.1118   13.0268    0.0639 H   0  0  0  0  0  0  0  0  0  0  0  0
    2.2393   11.4788   -1.7955 H   0  0  0  0  0  0  0  0  0  0  0  0
    2.9987   12.8159    0.2731 H   0  0  0  0  0  0  0  0  0  0  0  0
    3.7658   13.0958   -1.3770 H   0  0  0  0  0  0  0  0  0  0  0  0
    3.2551   15.2488    0.0511 H   0  0  0  0  0  0  0  0  0  0  0  0
   -0.1777   14.5875   -1.9670 H   0  0  0  0  0  0  0  0  0  0  0  0
    1.7939   15.5793   -4.1173 H   0  0  0  0  0  0  0  0  0  0  0  0
    0.0591   15.0909   -4.3676 H   0  0  0  0  0  0  0  0  0  0  0  0
    0.3447   17.5483   -4.3318 H   0  0  0  0  0  0  0  0  0  0  0  0
   -0.6926   16.9378   -2.9836 H   0  0  0  0  0  0  0  0  0  0  0  0
    0.7880   18.6154   -2.1174 H   0  0  0  0  0  0  0  0  0  0  0  0
    3.1860   17.4140   -2.3650 H   0  0  0  0  0  0  0  0  0  0  0  0
    0.2439   16.9093    0.8143 H   0  0  0  0  0  0  0  0  0  0  0  0
   -0.4942   17.8468   -0.5284 H   0  0  0  0  0  0  0  0  0  0  0  0
   -0.5869   16.0529   -0.5284 H   0  0  0  0  0  0  0  0  0  0  0  0
    2.1907   17.4043    0.8974 H   0  0  0  0  0  0  0  0  0  0  0  0
    3.4272   17.1559   -0.3816 H   0  0  0  0  0  0  0  0  0  0  0  0
    2.4214   18.6442   -0.3816 H   0  0  0  0  0  0  0  0  0  0  0  0
    3.2982   13.0291   -3.3022 H   0  0  0  0  0  0  0  0  0  0  0  0
    2.1640   12.1973   -4.4196 H   0  0  0  0  0  0  0  0  0  0  0  0
    2.2715   13.9904   -4.4196 H   0  0  0  0  0  0  0  0  0  0  0  0
   -0.6120   13.1793   -3.9168 H   0  0  0  0  0  0  0  0  0  0  0  0
    0.3421   11.5906   -3.8971 H   0  0  0  0  0  0  0  0  0  0  0  0
   -1.5966   12.6090   -1.8020 H   0  0  0  0  0  0  0  0  0  0  0  0
   -1.7596   11.1732   -2.8879 H   0  0  0  0  0  0  0  0  0  0  0  0
    0.7824    9.0454   -1.3491 H   0  0  0  0  0  0  0  0  0  0  0  0
   -0.3801    9.2511   -2.7029 H   0  0  0  0  0  0  0  0  0  0  0  0
    1.1686   10.1611   -2.7029 H   0  0  0  0  0  0  0  0  0  0  0  0
  1  2  1  0
  2  3  1  0
  3  4  1  0
  4  5  1  0
  5  6  1  0
  6  7  1  0
  7  8  1  0
  7  9  1  0
  2 10  1  0
 10 11  1  0
 11 12  1  0
 12 13  1  0
 13 14  1  1
 13 15  1  0
 15 16  1  0
 16 17  1  0
 17 18  2  0
 18 19  1  0
 19 20  1  0
 20 21  1  0
 21 22  1  0
 22 23  1  0
 22 24  1  0
 24 25  1  0
 24 26  1  0
 19 27  1  0
 27 28  1  6
 27 29  1  0
 29 30  1  0
 30 31  1  0
 31 32  1  6
  7  5  1  0
 31 10  1  0
 31 13  1  0
 27 15  1  0
 24 18  1  0
  1 33  1  0
  1 34  1  0
  1 35  1  0
  2 36  1  1
  3 37  1  0
  3 38  1  0
  4 39  1  0
  4 40  1  0
  5 41  1  6
  8 42  1  0
  8 43  1  0
  8 44  1  0
  9 45  1  0
  9 46  1  0
  9 47  1  0
 10 48  1  1
 11 49  1  0
 11 50  1  0
 12 51  1  0
 12 52  1  0
 14 53  1  0
 14 54  1  0
 14 55  1  0
 15 56  1  6
 16 57  1  0
 16 58  1  0
 17 59  1  0
 19 60  1  1
 20 61  1  0
 20 62  1  0
 21 63  1  0
 21 64  1  0
 22 65  1  1
 23 66  1  0
 25 67  1  0
 25 68  1  0
 25 69  1  0
 26 70  1  0
 26 71  1  0
 26 72  1  0
 28 73  1  0
 28 74  1  0
 28 75  1  0
 29 76  1  0
 29 77  1  0
 30 78  1  0
 30 79  1  0
 32 80  1  0
 32 81  1  0
 32 82  1  0
M  END
>  <meeko>  (1) 
{"is_sidechain": [false], "intermolecular_energy": 2.731, "internal_energy": -0.839}

$$$$
EPH_relaxed_0001_pdb2pqr_Repair_401_r2_0001_out
     RDKit          3D

 82 86  0  0  0  0  0  0  0  0999 V2000
    2.3880   19.6620   -1.0260 C   0  0  0  0  0  0  0  0  0  0  0  0
    2.1680   18.8310    0.2400 C   0  0  2  0  0  0  0  0  0  0  0  0
    3.4970   18.3780    0.8770 C   0  0  0  0  0  0  0  0  0  0  0  0
    3.7720   19.0090    2.2450 C   0  0  0  0  0  0  0  0  0  0  0  0
    5.2320   18.9910    2.5800 C   0  0  2  0  0  0  0  0  0  0  0  0
    5.6420   17.8990    3.4140 O   0  0  0  0  0  0  0  0  0  0  0  0
    5.7710   19.2130    3.9810 C   0  0  0  0  0  0  0  0  0  0  0  0
    4.8570   19.4690    5.1380 C   0  0  0  0  0  0  0  0  0  0  0  0
    7.1900   19.6640    4.1390 C   0  0  0  0  0  0  0  0  0  0  0  0
    1.3030   17.6170   -0.0790 C   0  0  1  0  0  0  0  0  0  0  0  0
    0.1150   17.9600   -1.0160 C   0  0  0  0  0  0  0  0  0  0  0  0
   -0.1050   16.7270   -1.9300 C   0  0  0  0  0  0  0  0  0  0  0  0
    0.7320   15.6030   -1.2750 C   0  0  1  0  0  0  0  0  0  0  0  0
   -0.1620   15.0610   -0.1160 C   0  0  0  0  0  0  0  0  0  0  0  0
    1.2080   14.4540   -2.2230 C   0  0  2  0  0  0  0  0  0  0  0  0
    0.0790   13.6330   -2.8700 C   0  0  0  0  0  0  0  0  0  0  0  0
   -0.3610   12.4330   -2.0980 C   0  0  0  0  0  0  0  0  0  0  0  0
    0.3140   11.8680   -1.0800 C   0  0  0  0  0  0  0  0  0  0  0  0
    1.7010   12.3810   -0.6730 C   0  0  1  0  0  0  0  0  0  0  0  0
    2.6630   11.1790   -0.4830 C   0  0  0  0  0  0  0  0  0  0  0  0
    2.1160   10.1410    0.4920 C   0  0  0  0  0  0  0  0  0  0  0  0
    0.7630    9.6120    0.0230 C   0  0  2  0  0  0  0  0  0  0  0  0
    0.9520    8.8690   -1.1850 O   0  0  0  0  0  0  0  0  0  0  0  0
   -0.2860   10.7350   -0.2110 C   0  0  0  0  0  0  0  0  0  0  0  0
   -0.7140   11.3400    1.1480 C   0  0  0  0  0  0  0  0  0  0  0  0
   -1.5580   10.0810   -0.8160 C   0  0  0  0  0  0  0  0  0  0  0  0
    2.3190   13.5160   -1.5980 C   0  0  1  0  0  0  0  0  0  0  0  0
    3.0810   12.8710   -2.7960 C   0  0  0  0  0  0  0  0  0  0  0  0
    3.3900   14.3250   -0.7740 C   0  0  0  0  0  0  0  0  0  0  0  0
    2.8750   15.5220    0.0480 C   0  0  0  0  0  0  0  0  0  0  0  0
    1.9840   16.4300   -0.8050 C   0  0  2  0  0  0  0  0  0  0  0  0
    2.8620   17.0080   -1.9670 C   0  0  0  0  0  0  0  0  0  0  0  0
    2.6603   20.6905   -0.7468 H   0  0  0  0  0  0  0  0  0  0  0  0
    3.1992   19.2166   -1.6206 H   0  0  0  0  0  0  0  0  0  0  0  0
    1.4627   19.6763   -1.6206 H   0  0  0  0  0  0  0  0  0  0  0  0
    1.6541   19.4725    0.9710 H   0  0  0  0  0  0  0  0  0  0  0  0
    3.4690   17.2851    0.9983 H   0  0  0  0  0  0  0  0  0  0  0  0
    4.3034   18.7058    0.2045 H   0  0  0  0  0  0  0  0  0  0  0  0
    3.4217   20.0517    2.2336 H   0  0  0  0  0  0  0  0  0  0  0  0
    3.2381   18.4221    3.0069 H   0  0  0  0  0  0  0  0  0  0  0  0
    5.4841   19.4471    1.6113 H   0  0  0  0  0  0  0  0  0  0  0  0
    5.4051   19.3155    6.0793 H   0  0  0  0  0  0  0  0  0  0  0  0
    4.4893   20.5047    5.0926 H   0  0  0  0  0  0  0  0  0  0  0  0
    4.0048   18.7750    5.0926 H   0  0  0  0  0  0  0  0  0  0  0  0
    7.4332   19.7413    5.2090 H   0  0  0  0  0  0  0  0  0  0  0  0
    7.8617   18.9351    3.6620 H   0  0  0  0  0  0  0  0  0  0  0  0
    7.3176   20.6470    3.6620 H   0  0  0  0  0  0  0  0  0  0  0  0
    1.0179   17.3202    0.9411 H   0  0  0  0  0  0  0  0  0  0  0  0
   -0.7900   18.1581   -0.4230 H   0  0  0  0  0  0  0  0  0  0  0  0
    0.3290   18.8597   -1.6116 H   0  0  0  0  0  0  0  0  0  0  0  0
   -1.1694   16.4512   -1.9608 H   0  0  0  0  0  0  0  0  0  0  0  0
    0.1957   16.9194   -2.9704 H   0  0  0  0  0  0  0  0  0  0  0  0
    0.2865   15.3329    0.8509 H   0  0  0  0  0  0  0  0  0  0  0  0
   -1.1669   15.5021   -0.1911 H   0  0  0  0  0  0  0  0  0  0  0  0
   -0.2356   13.9660   -0.1911 H   0  0  0  0  0  0  0  0  0  0  0  0
    1.6841   15.0084   -3.0452 H   0  0  0  0  0  0  0  0  0  0  0  0
   -0.7915   14.2934   -2.9968 H   0  0  0  0  0  0  0  0  0  0  0  0
    0.4854   13.2520   -3.8185 H   0  0  0  0  0  0  0  0  0  0  0  0
   -1.3174   11.9720   -2.3856 H   0  0  0  0  0  0  0  0  0  0  0  0
    1.5626   12.9033    0.2851 H   0  0  0  0  0  0  0  0  0  0  0  0
    2.8221   10.6969   -1.4588 H   0  0  0  0  0  0  0  0  0  0  0  0
    3.6037   11.5668   -0.0651 H   0  0  0  0  0  0  0  0  0  0  0  0
    2.8256    9.3034    0.5617 H   0  0  0  0  0  0  0  0  0  0  0  0
    1.9854   10.6170    1.4750 H   0  0  0  0  0  0  0  0  0  0  0  0
    0.3631    8.9722    0.8234 H   0  0  0  0  0  0  0  0  0  0  0  0
    0.3640    9.2500   -1.8590 H   0  0  0  0  0  0  0  0  0  0  0  0
   -0.2895   10.7400    1.9664 H   0  0  0  0  0  0  0  0  0  0  0  0
   -0.3451   12.3737    1.2217 H   0  0  0  0  0  0  0  0  0  0  0  0
   -1.8115   11.3363    1.2217 H   0  0  0  0  0  0  0  0  0  0  0  0
   -2.2176    9.7418   -0.0037 H   0  0  0  0  0  0  0  0  0  0  0  0
   -2.0894   10.8177   -1.4364 H   0  0  0  0  0  0  0  0  0  0  0  0
   -1.2680    9.2202   -1.4364 H   0  0  0  0  0  0  0  0  0  0  0  0
    3.8683   12.2046   -2.4137 H   0  0  0  0  0  0  0  0  0  0  0  0
    2.3758   12.2912   -3.4096 H   0  0  0  0  0  0  0  0  0  0  0  0
    3.5364   13.6622   -3.4096 H   0  0  0  0  0  0  0  0  0  0  0  0
    3.8714   13.6244   -0.0759 H   0  0  0  0  0  0  0  0  0  0  0  0
    4.0630   14.7611   -1.5269 H   0  0  0  0  0  0  0  0  0  0  0  0
    2.2933   15.1476    0.9032 H   0  0  0  0  0  0  0  0  0  0  0  0
    3.7395   16.1061    0.3965 H   0  0  0  0  0  0  0  0  0  0  0  0
    3.7098   17.5661   -1.5432 H   0  0  0  0  0  0  0  0  0  0  0  0
    3.2401   16.1816   -2.5868 H   0  0  0  0  0  0  0  0  0  0  0  0
    2.2524   17.6820   -2.5868 H   0  0  0  0  0  0  0  0  0  0  0  0
  1  2  1  0
  2  3  1  0
  3  4  1  0
  4  5  1  0
  5  6  1  0
  6  7  1  0
  7  8  1  0
  7  9  1  0
  2 10  1  0
 10 11  1  0
 11 12  1  0
 12 13  1  0
 13 14  1  1
 13 15  1  0
 15 16  1  0
 16 17  1  0
 17 18  2  0
 18 19  1  0
 19 20  1  0
 20 21  1  0
 21 22  1  0
 22 23  1  0
 22 24  1  0
 24 25  1  0
 24 26  1  0
 19 27  1  0
 27 28  1  6
 27 29  1  0
 29 30  1  0
 30 31  1  0
 31 32  1  6
  7  5  1  0
 31 10  1  0
 31 13  1  0
 27 15  1  0
 24 18  1  0
  1 33  1  0
  1 34  1  0
  1 35  1  0
  2 36  1  1
  3 37  1  0
  3 38  1  0
  4 39  1  0
  4 40  1  0
  5 41  1  6
  8 42  1  0
  8 43  1  0
  8 44  1  0
  9 45  1  0
  9 46  1  0
  9 47  1  0
 10 48  1  1
 11 49  1  0
 11 50  1  0
 12 51  1  0
 12 52  1  0
 14 53  1  0
 14 54  1  0
 14 55  1  0
 15 56  1  6
 16 57  1  0
 16 58  1  0
 17 59  1  0
 19 60  1  1
 20 61  1  0
 20 62  1  0
 21 63  1  0
 21 64  1  0
 22 65  1  1
 23 66  1  0
 25 67  1  0
 25 68  1  0
 25 69  1  0
 26 70  1  0
 26 71  1  0
 26 72  1  0
 28 73  1  0
 28 74  1  0
 28 75  1  0
 29 76  1  0
 29 77  1  0
 30 78  1  0
 30 79  1  0
 32 80  1  0
 32 81  1  0
 32 82  1  0
M  END
>  <meeko>  (2) 
{"is_sidechain": [false], "intermolecular_energy": 2.731, "internal_energy": -0.839}

$$$$
EPH_relaxed_0001_pdb2pqr_Repair_401_r2_0001_out
     RDKit          3D

 82 86  0  0  0  0  0  0  0  0999 V2000
    0.3350   18.4870   -0.0550 C   0  0  0  0  0  0  0  0  0  0  0  0
    1.4280   17.4300   -0.2390 C   0  0  2  0  0  0  0  0  0  0  0  0
    2.6580   17.9890   -0.9800 C   0  0  0  0  0  0  0  0  0  0  0  0
    3.8920   18.1530   -0.0880 C   0  0  0  0  0  0  0  0  0  0  0  0
    3.5260   18.6500    1.2780 C   0  0  2  0  0  0  0  0  0  0  0  0
    3.7780   20.0450    1.4950 O   0  0  0  0  0  0  0  0  0  0  0  0
    4.5450   19.1300    2.2940 C   0  0  0  0  0  0  0  0  0  0  0  0
    6.0100   19.1360    1.9870 C   0  0  0  0  0  0  0  0  0  0  0  0
    4.1660   19.1300    3.7420 C   0  0  0  0  0  0  0  0  0  0  0  0
    0.8670   16.2290   -0.9920 C   0  0  1  0  0  0  0  0  0  0  0  0
    0.7060   16.4990   -2.5120 C   0  0  0  0  0  0  0  0  0  0  0  0
    1.0130   15.1650   -3.2390 C   0  0  0  0  0  0  0  0  0  0  0  0
    1.0140   14.1010   -2.1170 C   0  0  1  0  0  0  0  0  0  0  0  0
   -0.4930   13.7690   -1.8770 C   0  0  0  0  0  0  0  0  0  0  0  0
    1.8520   12.8100   -2.3890 C   0  0  2  0  0  0  0  0  0  0  0  0
    1.3810   11.9650   -3.5860 C   0  0  0  0  0  0  0  0  0  0  0  0
    0.3780   10.9070   -3.2640 C   0  0  0  0  0  0  0  0  0  0  0  0
    0.0870   10.4540   -2.0310 C   0  0  0  0  0  0  0  0  0  0  0  0
    0.8690   10.9480   -0.8060 C   0  0  1  0  0  0  0  0  0  0  0  0
    1.2680    9.7360    0.0760 C   0  0  0  0  0  0  0  0  0  0  0  0
    0.0700    8.8710    0.4580 C   0  0  0  0  0  0  0  0  0  0  0  0
   -0.6460    8.3520   -0.7860 C   0  0  2  0  0  0  0  0  0  0  0  0
    0.2200    7.4410   -1.4700 O   0  0  0  0  0  0  0  0  0  0  0  0
   -1.0870    9.4830   -1.7560 C   0  0  0  0  0  0  0  0  0  0  0  0
   -2.2470   10.2900   -1.1220 C   0  0  0  0  0  0  0  0  0  0  0  0
   -1.6690    8.8180   -3.0320 C   0  0  0  0  0  0  0  0  0  0  0  0
    2.0950   11.9120   -1.1090 C   0  0  1  0  0  0  0  0  0  0  0  0
    3.3770   11.0700   -1.3920 C   0  0  0  0  0  0  0  0  0  0  0  0
    2.4030   12.7710    0.1740 C   0  0  0  0  0  0  0  0  0  0  0  0
    1.6290   14.0940    0.3270 C   0  0  0  0  0  0  0  0  0  0  0  0
    1.6960   14.9200   -0.9610 C   0  0  2  0  0  0  0  0  0  0  0  0
    3.1970   15.2870   -1.2170 C   0  0  0  0  0  0  0  0  0  0  0  0
    0.1629   18.6534    1.0186 H   0  0  0  0  0  0  0  0  0  0  0  0
    0.6529   19.4290   -0.5257 H   0  0  0  0  0  0  0  0  0  0  0  0
   -0.5958   18.1377   -0.5257 H   0  0  0  0  0  0  0  0  0  0  0  0
    1.7601   17.1193    0.7626 H   0  0  0  0  0  0  0  0  0  0  0  0
    2.9114   17.3014   -1.8003 H   0  0  0  0  0  0  0  0  0  0  0  0
    2.3871   18.9919   -1.3416 H   0  0  0  0  0  0  0  0  0  0  0  0
    4.3935   17.1788    0.0095 H   0  0  0  0  0  0  0  0  0  0  0  0
    4.5574   18.8936   -0.5557 H   0  0  0  0  0  0  0  0  0  0  0  0
    2.7007   17.9260    1.3462 H   0  0  0  0  0  0  0  0  0  0  0  0
    6.5816   19.1383    2.9268 H   0  0  0  0  0  0  0  0  0  0  0  0
    6.2662   18.2389    1.4043 H   0  0  0  0  0  0  0  0  0  0  0  0
    6.2588   20.0352    1.4043 H   0  0  0  0  0  0  0  0  0  0  0  0
    4.0732   18.0929    4.0967 H   0  0  0  0  0  0  0  0  0  0  0  0
    4.9420   19.6485    4.3241 H   0  0  0  0  0  0  0  0  0  0  0  0
    3.2043   19.6485    3.8693 H   0  0  0  0  0  0  0  0  0  0  0  0
   -0.0761   16.0908   -0.4429 H   0  0  0  0  0  0  0  0  0  0  0  0
   -0.3220   16.8224   -2.7323 H   0  0  0  0  0  0  0  0  0  0  0  0
    1.3869   17.2959   -2.8455 H   0  0  0  0  0  0  0  0  0  0  0  0
    0.2363   14.9417   -3.9853 H   0  0  0  0  0  0  0  0  0  0  0  0
    1.9677   15.1971   -3.7845 H   0  0  0  0  0  0  0  0  0  0  0  0
   -0.6912   13.7253   -0.7959 H   0  0  0  0  0  0  0  0  0  0  0  0
   -1.1179   14.5510   -2.3330 H   0  0  0  0  0  0  0  0  0  0  0  0
   -0.7314   12.7968   -2.3330 H   0  0  0  0  0  0  0  0  0  0  0  0
    2.8293   13.2224   -2.6802 H   0  0  0  0  0  0  0  0  0  0  0  0
    0.9330   12.6442   -4.3263 H   0  0  0  0  0  0  0  0  0  0  0  0
    2.2725   11.4370   -3.9555 H   0  0  0  0  0  0  0  0  0  0  0  0
   -0.1697   10.4598   -4.1066 H   0  0  0  0  0  0  0  0  0  0  0  0
    0.1825   11.6041   -0.2507 H   0  0  0  0  0  0  0  0  0  0  0  0
    1.9871    9.1167   -0.4801 H   0  0  0  0  0  0  0  0  0  0  0  0
    1.7061   10.1290    1.0053 H   0  0  0  0  0  0  0  0  0  0  0  0
    0.4191    8.0160    1.0556 H   0  0  0  0  0  0  0  0  0  0  0  0
   -0.6348    9.4838    1.0391 H   0  0  0  0  0  0  0  0  0  0  0  0
   -1.5660    7.8501   -0.4518 H   0  0  0  0  0  0  0  0  0  0  0  0
    0.8100    7.9670   -2.0370 H   0  0  0  0  0  0  0  0  0  0  0  0
   -2.1731   10.2386   -0.0257 H   0  0  0  0  0  0  0  0  0  0  0  0
   -2.1830   11.3396   -1.4450 H   0  0  0  0  0  0  0  0  0  0  0  0
   -3.2088    9.8650   -1.4450 H   0  0  0  0  0  0  0  0  0  0  0  0
   -2.3680    8.0193   -2.7430 H   0  0  0  0  0  0  0  0  0  0  0  0
   -2.2016    9.5732   -3.6287 H   0  0  0  0  0  0  0  0  0  0  0  0
   -0.8499    8.3902   -3.6287 H   0  0  0  0  0  0  0  0  0  0  0  0
    3.8357   10.7687   -0.4387 H   0  0  0  0  0  0  0  0  0  0  0  0
    3.1067   10.1730   -1.9685 H   0  0  0  0  0  0  0  0  0  0  0  0
    4.0928   11.6744   -1.9685 H   0  0  0  0  0  0  0  0  0  0  0  0
    2.1763   12.1494    1.0528 H   0  0  0  0  0  0  0  0  0  0  0  0
    3.4585   13.0649    0.0767 H   0  0  0  0  0  0  0  0  0  0  0  0
    0.5767   13.8708    0.5571 H   0  0  0  0  0  0  0  0  0  0  0  0
    2.0860   14.6757    1.1411 H   0  0  0  0  0  0  0  0  0  0  0  0
    3.7130   15.4132   -0.2538 H   0  0  0  0  0  0  0  0  0  0  0  0
    3.6794   14.4803   -1.7885 H   0  0  0  0  0  0  0  0  0  0  0  0
    3.2527   16.2252   -1.7885 H   0  0  0  0  0  0  0  0  0  0  0  0
  1  2  1  0
  2  3  1  0
  3  4  1  0
  4  5  1  0
  5  6  1  0
  6  7  1  0
  7  8  1  0
  7  9  1  0
  2 10  1  0
 10 11  1  0
 11 12  1  0
 12 13  1  0
 13 14  1  1
 13 15  1  0
 15 16  1  0
 16 17  1  0
 17 18  2  0
 18 19  1  0
 19 20  1  0
 20 21  1  0
 21 22  1  0
 22 23  1  0
 22 24  1  0
 24 25  1  0
 24 26  1  0
 19 27  1  0
 27 28  1  6
 27 29  1  0
 29 30  1  0
 30 31  1  0
 31 32  1  6
  7  5  1  0
 31 10  1  0
 31 13  1  0
 27 15  1  0
 24 18  1  0
  1 33  1  0
  1 34  1  0
  1 35  1  0
  2 36  1  1
  3 37  1  0
  3 38  1  0
  4 39  1  0
  4 40  1  0
  5 41  1  1
  8 42  1  0
  8 43  1  0
  8 44  1  0
  9 45  1  0
  9 46  1  0
  9 47  1  0
 10 48  1  1
 11 49  1  0
 11 50  1  0
 12 51  1  0
 12 52  1  0
 14 53  1  0
 14 54  1  0
 14 55  1  0
 15 56  1  6
 16 57  1  0
 16 58  1  0
 17 59  1  0
 19 60  1  1
 20 61  1  0
 20 62  1  0
 21 63  1  0
 21 64  1  0
 22 65  1  1
 23 66  1  0
 25 67  1  0
 25 68  1  0
 25 69  1  0
 26 70  1  0
 26 71  1  0
 26 72  1  0
 28 73  1  0
 28 74  1  0
 28 75  1  0
 29 76  1  0
 29 77  1  0
 30 78  1  0
 30 79  1  0
 32 80  1  0
 32 81  1  0
 32 82  1  0
M  END
>  <meeko>  (3) 
{"is_sidechain": [false], "intermolecular_energy": 2.731, "internal_energy": -0.839}

$$$$
EPH_relaxed_0001_pdb2pqr_Repair_401_r2_0001_out
     RDKit          3D

 82 86  0  0  0  0  0  0  0  0999 V2000
    2.1210   18.1760   -2.7920 C   0  0  0  0  0  0  0  0  0  0  0  0
    0.9560   17.6860   -1.9270 C   0  0  2  0  0  0  0  0  0  0  0  0
    1.3110   17.6760   -0.4270 C   0  0  0  0  0  0  0  0  0  0  0  0
    1.3300   19.0680    0.2100 C   0  0  0  0  0  0  0  0  0  0  0  0
    0.0750   19.8320   -0.0870 C   0  0  2  0  0  0  0  0  0  0  0  0
   -0.6930   20.1940    1.0680 O   0  0  0  0  0  0  0  0  0  0  0  0
   -1.3170   19.2790    0.1540 C   0  0  0  0  0  0  0  0  0  0  0  0
   -1.5260   17.9070    0.7140 C   0  0  0  0  0  0  0  0  0  0  0  0
   -2.4640   19.8720   -0.6040 C   0  0  0  0  0  0  0  0  0  0  0  0
    0.5300   16.2920   -2.3710 C   0  0  1  0  0  0  0  0  0  0  0  0
    0.6000   16.1070   -3.9110 C   0  0  0  0  0  0  0  0  0  0  0  0
    1.0280   14.6390   -4.1660 C   0  0  0  0  0  0  0  0  0  0  0  0
    0.8670   13.9420   -2.7940 C   0  0  1  0  0  0  0  0  0  0  0  0
   -0.6550   13.6130   -2.6880 C   0  0  0  0  0  0  0  0  0  0  0  0
    1.7500   12.6740   -2.5560 C   0  0  2  0  0  0  0  0  0  0  0  0
    1.4750   11.4990   -3.5100 C   0  0  0  0  0  0  0  0  0  0  0  0
    0.4450   10.5250   -3.0420 C   0  0  0  0  0  0  0  0  0  0  0  0
   -0.0270   10.4290   -1.7850 C   0  0  0  0  0  0  0  0  0  0  0  0
    0.5530   11.2930   -0.6580 C   0  0  1  0  0  0  0  0  0  0  0  0
    0.8230   10.4080    0.5870 C   0  0  0  0  0  0  0  0  0  0  0  0
   -0.4110    9.6250    1.0270 C   0  0  0  0  0  0  0  0  0  0  0  0
   -0.9230    8.7340   -0.1020 C   0  0  2  0  0  0  0  0  0  0  0  0
    0.0470    7.7140   -0.3600 O   0  0  0  0  0  0  0  0  0  0  0  0
   -1.2200    9.5150   -1.4120 C   0  0  0  0  0  0  0  0  0  0  0  0
   -2.4710   10.4070   -1.2140 C   0  0  0  0  0  0  0  0  0  0  0  0
   -1.5930    8.4820   -2.5100 C   0  0  0  0  0  0  0  0  0  0  0  0
    1.8020   12.1950   -1.0490 C   0  0  1  0  0  0  0  0  0  0  0  0
    3.1200   11.3770   -0.8870 C   0  0  0  0  0  0  0  0  0  0  0  0
    1.9010   13.4000   -0.0400 C   0  0  0  0  0  0  0  0  0  0  0  0
    1.1000   14.6680   -0.3930 C   0  0  0  0  0  0  0  0  0  0  0  0
    1.3560   15.0930   -1.8420 C   0  0  2  0  0  0  0  0  0  0  0  0
    2.8750   15.4520   -1.9740 C   0  0  0  0  0  0  0  0  0  0  0  0
    2.9398   18.5204   -2.1433 H   0  0  0  0  0  0  0  0  0  0  0  0
    2.4782   17.3519   -3.4270 H   0  0  0  0  0  0  0  0  0  0  0  0
    1.7817   19.0077   -3.4270 H   0  0  0  0  0  0  0  0  0  0  0  0
    0.1225   18.3906   -2.0640 H   0  0  0  0  0  0  0  0  0  0  0  0
    0.5671   17.0621    0.1019 H   0  0  0  0  0  0  0  0  0  0  0  0
    2.3291   17.2687   -0.3402 H   0  0  0  0  0  0  0  0  0  0  0  0
    1.4317   18.9597    1.2999 H   0  0  0  0  0  0  0  0  0  0  0  0
    2.1787   19.6262   -0.2121 H   0  0  0  0  0  0  0  0  0  0  0  0
    0.5407   20.3019   -0.9658 H   0  0  0  0  0  0  0  0  0  0  0  0
   -1.5188   17.9545    1.8130 H   0  0  0  0  0  0  0  0  0  0  0  0
   -2.4943   17.5143    0.3703 H   0  0  0  0  0  0  0  0  0  0  0  0
   -0.7185   17.2438    0.3703 H   0  0  0  0  0  0  0  0  0  0  0  0
   -3.2113   20.2583    0.1047 H   0  0  0  0  0  0  0  0  0  0  0  0
   -2.0992   20.6945   -1.2368 H   0  0  0  0  0  0  0  0  0  0  0  0
   -2.9242   19.0988   -1.2368 H   0  0  0  0  0  0  0  0  0  0  0  0
   -0.4845   16.2663   -1.9465 H   0  0  0  0  0  0  0  0  0  0  0  0
   -0.3856   16.2978   -4.3606 H   0  0  0  0  0  0  0  0  0  0  0  0
    1.3154   16.8109   -4.3613 H   0  0  0  0  0  0  0  0  0  0  0  0
    0.3773   14.1699   -4.9187 H   0  0  0  0  0  0  0  0  0  0  0  0
    2.0547   14.5650   -4.5537 H   0  0  0  0  0  0  0  0  0  0  0  0
   -0.9437   13.5506   -1.6284 H   0  0  0  0  0  0  0  0  0  0  0  0
   -1.2367   14.4061   -3.1804 H   0  0  0  0  0  0  0  0  0  0  0  0
   -0.8572   12.6504   -3.1804 H   0  0  0  0  0  0  0  0  0  0  0  0
    2.7569   13.0360   -2.8112 H   0  0  0  0  0  0  0  0  0  0  0  0
    1.1385   11.9136   -4.4717 H   0  0  0  0  0  0  0  0  0  0  0  0
    2.4174   10.9358   -3.5785 H   0  0  0  0  0  0  0  0  0  0  0  0
    0.0372    9.8265   -3.7875 H   0  0  0  0  0  0  0  0  0  0  0  0
   -0.2169   12.0425   -0.4223 H   0  0  0  0  0  0  0  0  0  0  0  0
    1.6254    9.6953    0.3457 H   0  0  0  0  0  0  0  0  0  0  0  0
    1.1086   11.0740    1.4146 H   0  0  0  0  0  0  0  0  0  0  0  0
   -0.1494    8.9966    1.8911 H   0  0  0  0  0  0  0  0  0  0  0  0
   -1.2025   10.3396    1.2967 H   0  0  0  0  0  0  0  0  0  0  0  0
   -1.8784    8.2999    0.2279 H   0  0  0  0  0  0  0  0  0  0  0  0
    0.0820    7.1370    0.4220 H   0  0  0  0  0  0  0  0  0  0  0  0
   -2.6592   10.5412   -0.1386 H   0  0  0  0  0  0  0  0  0  0  0  0
   -2.2996   11.3879   -1.6814 H   0  0  0  0  0  0  0  0  0  0  0  0
   -3.3425    9.9253   -1.6814 H   0  0  0  0  0  0  0  0  0  0  0  0
   -1.9301    7.5485   -2.0358 H   0  0  0  0  0  0  0  0  0  0  0  0
   -2.4013    8.8880   -3.1360 H   0  0  0  0  0  0  0  0  0  0  0  0
   -0.7118    8.2779   -3.1360 H   0  0  0  0  0  0  0  0  0  0  0  0
    3.3383   11.2415    0.1826 H   0  0  0  0  0  0  0  0  0  0  0  0
    3.0020   10.3932   -1.3647 H   0  0  0  0  0  0  0  0  0  0  0  0
    3.9492   11.9194   -1.3647 H   0  0  0  0  0  0  0  0  0  0  0  0
    1.5472   13.0445    0.9390 H   0  0  0  0  0  0  0  0  0  0  0  0
    2.9562   13.7097   -0.0635 H   0  0  0  0  0  0  0  0  0  0  0  0
    0.0271   14.4638   -0.2622 H   0  0  0  0  0  0  0  0  0  0  0  0
    1.4212   15.4823    0.2731 H   0  0  0  0  0  0  0  0  0  0  0  0
    3.3156   15.5561   -0.9715 H   0  0  0  0  0  0  0  0  0  0  0  0
    3.3946   14.6519   -2.5216 H   0  0  0  0  0  0  0  0  0  0  0  0
    2.9815   16.4000   -2.5216 H   0  0  0  0  0  0  0  0  0  0  0  0
  1  2  1  0
  2  3  1  0
  3  4  1  0
  4  5  1  0
  5  6  1  0
  6  7  1  0
  7  8  1  0
  7  9  1  0
  2 10  1  0
 10 11  1  0
 11 12  1  0
 12 13  1  0
 13 14  1  1
 13 15  1  0
 15 16  1  0
 16 17  1  0
 17 18  2  0
 18 19  1  0
 19 20  1  0
 20 21  1  0
 21 22  1  0
 22 23  1  0
 22 24  1  0
 24 25  1  0
 24 26  1  0
 19 27  1  0
 27 28  1  6
 27 29  1  0
 29 30  1  0
 30 31  1  0
 31 32  1  1
  7  5  1  0
 31 10  1  0
 31 13  1  0
 27 15  1  0
 24 18  1  0
  1 33  1  0
  1 34  1  0
  1 35  1  0
  2 36  1  1
  3 37  1  0
  3 38  1  0
  4 39  1  0
  4 40  1  0
  5 41  1  6
  8 42  1  0
  8 43  1  0
  8 44  1  0
  9 45  1  0
  9 46  1  0
  9 47  1  0
 10 48  1  1
 11 49  1  0
 11 50  1  0
 12 51  1  0
 12 52  1  0
 14 53  1  0
 14 54  1  0
 14 55  1  0
 15 56  1  6
 16 57  1  0
 16 58  1  0
 17 59  1  0
 19 60  1  1
 20 61  1  0
 20 62  1  0
 21 63  1  0
 21 64  1  0
 22 65  1  1
 23 66  1  0
 25 67  1  0
 25 68  1  0
 25 69  1  0
 26 70  1  0
 26 71  1  0
 26 72  1  0
 28 73  1  0
 28 74  1  0
 28 75  1  0
 29 76  1  0
 29 77  1  0
 30 78  1  0
 30 79  1  0
 32 80  1  0
 32 81  1  0
 32 82  1  0
M  END
>  <meeko>  (4) 
{"is_sidechain": [false], "intermolecular_energy": 2.731, "internal_energy": -0.839}

$$$$
EPH_relaxed_0001_pdb2pqr_Repair_401_r2_0001_out
     RDKit          3D

 82 86  0  0  0  0  0  0  0  0999 V2000
    2.7610   12.4120   -5.2970 C   0  0  0  0  0  0  0  0  0  0  0  0
    1.2980   12.8430   -5.1500 C   0  0  2  0  0  0  0  0  0  0  0  0
    1.0250   14.2060   -5.8160 C   0  0  0  0  0  0  0  0  0  0  0  0
    1.6720   14.3590   -7.1950 C   0  0  0  0  0  0  0  0  0  0  0  0
    1.3350   15.6780   -7.8220 C   0  0  2  0  0  0  0  0  0  0  0  0
    0.4060   15.6030   -8.9110 O   0  0  0  0  0  0  0  0  0  0  0  0
    1.7300   16.0560   -9.2370 C   0  0  0  0  0  0  0  0  0  0  0  0
    2.4970   15.1150  -10.1120 C   0  0  0  0  0  0  0  0  0  0  0  0
    1.7990   17.5080   -9.5970 C   0  0  0  0  0  0  0  0  0  0  0  0
    0.9180   12.8970   -3.6750 C   0  0  1  0  0  0  0  0  0  0  0  0
   -0.5190   13.4350   -3.4480 C   0  0  0  0  0  0  0  0  0  0  0  0
   -1.0950   12.6730   -2.2270 C   0  0  0  0  0  0  0  0  0  0  0  0
    0.1290   11.9710   -1.5930 C   0  0  1  0  0  0  0  0  0  0  0  0
    0.8240   13.0750   -0.7350 C   0  0  0  0  0  0  0  0  0  0  0  0
   -0.1690   10.6880   -0.7510 C   0  0  2  0  0  0  0  0  0  0  0  0
   -1.0480   10.9130    0.4920 C   0  0  0  0  0  0  0  0  0  0  0  0
   -0.3060   11.2250    1.7490 C   0  0  0  0  0  0  0  0  0  0  0  0
    1.0130   11.0430    1.9450 C   0  0  0  0  0  0  0  0  0  0  0  0
    1.8850   10.3810    0.8700 C   0  0  1  0  0  0  0  0  0  0  0  0
    2.7930    9.3090    1.5280 C   0  0  0  0  0  0  0  0  0  0  0  0
    3.6170    9.8700    2.6840 C   0  0  0  0  0  0  0  0  0  0  0  0
    2.7120   10.4670    3.7590 C   0  0  2  0  0  0  0  0  0  0  0  0
    1.9590    9.4130    4.3650 O   0  0  0  0  0  0  0  0  0  0  0  0
    1.7450   11.5530    3.2110 C   0  0  0  0  0  0  0  0  0  0  0  0
    2.5480   12.8220    2.8300 C   0  0  0  0  0  0  0  0  0  0  0  0
    0.7940   11.9720    4.3650 C   0  0  0  0  0  0  0  0  0  0  0  0
    1.1130    9.8280   -0.4040 C   0  0  1  0  0  0  0  0  0  0  0  0
    0.6150    8.3750   -0.1360 C   0  0  0  0  0  0  0  0  0  0  0  0
    2.1170    9.7360   -1.6140 C   0  0  0  0  0  0  0  0  0  0  0  0
    2.2780   11.0000   -2.4800 C   0  0  0  0  0  0  0  0  0  0  0  0
    0.9140   11.5600   -2.8920 C   0  0  2  0  0  0  0  0  0  0  0  0
    0.2000   10.4810   -3.7750 C   0  0  0  0  0  0  0  0  0  0  0  0
    3.2065   12.2807   -4.2999 H   0  0  0  0  0  0  0  0  0  0  0  0
    2.8096   11.4614   -5.8483 H   0  0  0  0  0  0  0  0  0  0  0  0
    3.3172   13.1845   -5.8483 H   0  0  0  0  0  0  0  0  0  0  0  0
    0.6785   12.0945   -5.6656 H   0  0  0  0  0  0  0  0  0  0  0  0
   -0.0627   14.3260   -5.9277 H   0  0  0  0  0  0  0  0  0  0  0  0
    1.4682   14.9751   -5.1664 H   0  0  0  0  0  0  0  0  0  0  0  0
    2.7641   14.2844   -7.0867 H   0  0  0  0  0  0  0  0  0  0  0  0
    1.2851   13.5610   -7.8458 H   0  0  0  0  0  0  0  0  0  0  0  0
    1.4581   16.1945   -6.8586 H   0  0  0  0  0  0  0  0  0  0  0  0
    3.0681   14.4144   -9.4851 H   0  0  0  0  0  0  0  0  0  0  0  0
    1.7972   14.5520  -10.7471 H   0  0  0  0  0  0  0  0  0  0  0  0
    3.1896   15.6869  -10.7471 H   0  0  0  0  0  0  0  0  0  0  0  0
    1.8277   18.1125   -8.6785 H   0  0  0  0  0  0  0  0  0  0  0  0
    2.7071   17.6964  -10.1885 H   0  0  0  0  0  0  0  0  0  0  0  0
    0.9128   17.7816  -10.1885 H   0  0  0  0  0  0  0  0  0  0  0  0
    1.7214   13.5489   -3.3014 H   0  0  0  0  0  0  0  0  0  0  0  0
   -0.4907   14.5151   -3.2414 H   0  0  0  0  0  0  0  0  0  0  0  0
   -1.1437   13.2806   -4.3401 H   0  0  0  0  0  0  0  0  0  0  0  0
   -1.5540   13.3731   -1.5134 H   0  0  0  0  0  0  0  0  0  0  0  0
   -1.8828   11.9606   -2.5133 H   0  0  0  0  0  0  0  0  0  0  0  0
    0.6836   12.8520    0.3330 H   0  0  0  0  0  0  0  0  0  0  0  0
    1.8991   13.0969   -0.9668 H   0  0  0  0  0  0  0  0  0  0  0  0
    0.3789   14.0539   -0.9668 H   0  0  0  0  0  0  0  0  0  0  0  0
   -0.7780   10.0880   -1.4432 H   0  0  0  0  0  0  0  0  0  0  0  0
   -1.7271   11.7522    0.2808 H   0  0  0  0  0  0  0  0  0  0  0  0
   -1.5680    9.9608    0.6737 H   0  0  0  0  0  0  0  0  0  0  0  0
   -0.8867   11.6390    2.5865 H   0  0  0  0  0  0  0  0  0  0  0  0
    2.5044   11.1837    0.4433 H   0  0  0  0  0  0  0  0  0  0  0  0
    2.1586    8.4953    1.9094 H   0  0  0  0  0  0  0  0  0  0  0  0
    3.4949    8.9494    0.7611 H   0  0  0  0  0  0  0  0  0  0  0  0
    4.2153    9.0598    3.1262 H   0  0  0  0  0  0  0  0  0  0  0  0
    4.2722   10.6637    2.2958 H   0  0  0  0  0  0  0  0  0  0  0  0
    3.3589   10.9663    4.4954 H   0  0  0  0  0  0  0  0  0  0  0  0
    2.1140    9.4540    5.3240 H   0  0  0  0  0  0  0  0  0  0  0  0
    2.8744   13.3378    3.7451 H   0  0  0  0  0  0  0  0  0  0  0  0
    3.4288   12.5343    2.2372 H   0  0  0  0  0  0  0  0  0  0  0  0
    1.9109   13.4948    2.2372 H   0  0  0  0  0  0  0  0  0  0  0  0
    1.2747   11.7602    5.3315 H   0  0  0  0  0  0  0  0  0  0  0  0
    0.5790   13.0482    4.2905 H   0  0  0  0  0  0  0  0  0  0  0  0
   -0.1453   11.4044    4.2905 H   0  0  0  0  0  0  0  0  0  0  0  0
    0.5557    8.2019    0.9487 H   0  0  0  0  0  0  0  0  0  0  0  0
   -0.3806    8.2402   -0.5838 H   0  0  0  0  0  0  0  0  0  0  0  0
    1.3186    7.6578   -0.5838 H   0  0  0  0  0  0  0  0  0  0  0  0
    3.1070    9.4833   -1.2066 H   0  0  0  0  0  0  0  0  0  0  0  0
    1.6886    8.9785   -2.2868 H   0  0  0  0  0  0  0  0  0  0  0  0
    2.8214   11.7637   -1.9043 H   0  0  0  0  0  0  0  0  0  0  0  0
    2.8365   10.7331   -3.3893 H   0  0  0  0  0  0  0  0  0  0  0  0
   -0.2897    9.7409   -3.1251 H   0  0  0  0  0  0  0  0  0  0  0  0
   -0.5548   10.9678   -4.4100 H   0  0  0  0  0  0  0  0  0  0  0  0
    0.9432    9.9766   -4.4100 H   0  0  0  0  0  0  0  0  0  0  0  0
  1  2  1  0
  2  3  1  0
  3  4  1  0
  4  5  1  0
  5  6  1  0
  6  7  1  0
  7  8  1  0
  7  9  1  0
  2 10  1  0
 10 11  1  0
 11 12  1  0
 12 13  1  0
 13 14  1  1
 13 15  1  0
 15 16  1  0
 16 17  1  0
 17 18  2  0
 18 19  1  0
 19 20  1  0
 20 21  1  0
 21 22  1  0
 22 23  1  0
 22 24  1  0
 24 25  1  0
 24 26  1  0
 19 27  1  0
 27 28  1  1
 27 29  1  0
 29 30  1  0
 30 31  1  0
 31 32  1  6
  7  5  1  0
 31 10  1  0
 31 13  1  0
 27 15  1  0
 24 18  1  0
  1 33  1  0
  1 34  1  0
  1 35  1  0
  2 36  1  6
  3 37  1  0
  3 38  1  0
  4 39  1  0
  4 40  1  0
  5 41  1  1
  8 42  1  0
  8 43  1  0
  8 44  1  0
  9 45  1  0
  9 46  1  0
  9 47  1  0
 10 48  1  1
 11 49  1  0
 11 50  1  0
 12 51  1  0
 12 52  1  0
 14 53  1  0
 14 54  1  0
 14 55  1  0
 15 56  1  6
 16 57  1  0
 16 58  1  0
 17 59  1  0
 19 60  1  6
 20 61  1  0
 20 62  1  0
 21 63  1  0
 21 64  1  0
 22 65  1  1
 23 66  1  0
 25 67  1  0
 25 68  1  0
 25 69  1  0
 26 70  1  0
 26 71  1  0
 26 72  1  0
 28 73  1  0
 28 74  1  0
 28 75  1  0
 29 76  1  0
 29 77  1  0
 30 78  1  0
 30 79  1  0
 32 80  1  0
 32 81  1  0
 32 82  1  0
M  END
>  <meeko>  (5) 
{"is_sidechain": [false], "intermolecular_energy": 2.731, "internal_energy": -0.839}

$$$$
EPH_relaxed_0001_pdb2pqr_Repair_401_r2_0001_out
     RDKit          3D

 82 86  0  0  0  0  0  0  0  0999 V2000
   -2.1810    9.8700   -0.7350 C   0  0  0  0  0  0  0  0  0  0  0  0
   -0.8310   10.2510   -1.3480 C   0  0  2  0  0  0  0  0  0  0  0  0
    0.2230    9.1400   -1.1680 C   0  0  0  0  0  0  0  0  0  0  0  0
    0.6310    8.9090    0.2890 C   0  0  0  0  0  0  0  0  0  0  0  0
    2.1010    8.6460    0.4180 C   0  0  2  0  0  0  0  0  0  0  0  0
    2.4620    7.7810    1.5020 O   0  0  0  0  0  0  0  0  0  0  0  0
    2.9390    9.1330    1.5850 C   0  0  0  0  0  0  0  0  0  0  0  0
    2.3350    9.9240    2.7030 C   0  0  0  0  0  0  0  0  0  0  0  0
    4.4190    9.2630    1.3990 C   0  0  0  0  0  0  0  0  0  0  0  0
   -0.3280   11.5510   -0.7300 C   0  0  1  0  0  0  0  0  0  0  0  0
    0.7950   11.3190    0.3160 C   0  0  0  0  0  0  0  0  0  0  0  0
    1.7690   12.5200    0.2000 C   0  0  0  0  0  0  0  0  0  0  0  0
    1.0100   13.5560   -0.6620 C   0  0  1  0  0  0  0  0  0  0  0  0
    0.0440   14.2740    0.3320 C   0  0  0  0  0  0  0  0  0  0  0  0
    1.8930   14.5780   -1.4490 C   0  0  2  0  0  0  0  0  0  0  0  0
    2.7540   15.5060   -0.5750 C   0  0  0  0  0  0  0  0  0  0  0  0
    2.1080   16.7940   -0.1830 C   0  0  0  0  0  0  0  0  0  0  0  0
    1.0030   17.3180   -0.7460 C   0  0  0  0  0  0  0  0  0  0  0  0
    0.3420   16.6470   -1.9570 C   0  0  1  0  0  0  0  0  0  0  0  0
    0.0210   17.7190   -3.0320 C   0  0  0  0  0  0  0  0  0  0  0  0
   -0.8110   18.8710   -2.4770 C   0  0  0  0  0  0  0  0  0  0  0  0
   -0.0950   19.5500   -1.3130 C   0  0  2  0  0  0  0  0  0  0  0  0
    1.0830   20.1940   -1.8080 O   0  0  0  0  0  0  0  0  0  0  0  0
    0.2880   18.5660   -0.1720 C   0  0  0  0  0  0  0  0  0  0  0  0
   -0.9910   18.0980    0.5640 C   0  0  0  0  0  0  0  0  0  0  0  0
    1.1280   19.3500    0.8730 C   0  0  0  0  0  0  0  0  0  0  0  0
    1.1090   15.3910   -2.5580 C   0  0  1  0  0  0  0  0  0  0  0  0
    2.1710   15.8640   -3.5970 C   0  0  0  0  0  0  0  0  0  0  0  0
    0.0850   14.4930   -3.3470 C   0  0  0  0  0  0  0  0  0  0  0  0
   -0.6680   13.4210   -2.5360 C   0  0  0  0  0  0  0  0  0  0  0  0
    0.3020   12.5960   -1.6850 C   0  0  2  0  0  0  0  0  0  0  0  0
    1.2720   11.8440   -2.6590 C   0  0  0  0  0  0  0  0  0  0  0  0
   -2.1047    9.8915    0.3621 H   0  0  0  0  0  0  0  0  0  0  0  0
   -2.9481   10.5867   -1.0633 H   0  0  0  0  0  0  0  0  0  0  0  0
   -2.4602    8.8580   -1.0633 H   0  0  0  0  0  0  0  0  0  0  0  0
   -0.9851   10.3878   -2.4285 H   0  0  0  0  0  0  0  0  0  0  0  0
   -0.1903    8.2015   -1.5658 H   0  0  0  0  0  0  0  0  0  0  0  0
    1.1257    9.4630   -1.7072 H   0  0  0  0  0  0  0  0  0  0  0  0
    0.3759    9.8032    0.8767 H   0  0  0  0  0  0  0  0  0  0  0  0
    0.0907    8.0258    0.6605 H   0  0  0  0  0  0  0  0  0  0  0  0
    2.2344    8.7270   -0.6709 H   0  0  0  0  0  0  0  0  0  0  0  0
    2.6572    9.5021    3.6664 H   0  0  0  0  0  0  0  0  0  0  0  0
    2.6658   10.9707    2.6321 H   0  0  0  0  0  0  0  0  0  0  0  0
    1.2381    9.8805    2.6321 H   0  0  0  0  0  0  0  0  0  0  0  0
    4.9098    9.3061    2.3825 H   0  0  0  0  0  0  0  0  0  0  0  0
    4.7959    8.3945    0.8389 H   0  0  0  0  0  0  0  0  0  0  0  0
    4.6387   10.1839    0.8389 H   0  0  0  0  0  0  0  0  0  0  0  0
   -1.2725   11.9377   -0.3196 H   0  0  0  0  0  0  0  0  0  0  0  0
    0.3667   11.2750    1.3282 H   0  0  0  0  0  0  0  0  0  0  0  0
    1.3164   10.3682    0.1315 H   0  0  0  0  0  0  0  0  0  0  0  0
    1.9959   12.9334    1.1938 H   0  0  0  0  0  0  0  0  0  0  0  0
    2.7334   12.2335   -0.2449 H   0  0  0  0  0  0  0  0  0  0  0  0
    0.3471   14.0487    1.3651 H   0  0  0  0  0  0  0  0  0  0  0  0
    0.0879   15.3605    0.1657 H   0  0  0  0  0  0  0  0  0  0  0  0
   -0.9837   13.9188    0.1657 H   0  0  0  0  0  0  0  0  0  0  0  0
    2.6022   13.9218   -1.9747 H   0  0  0  0  0  0  0  0  0  0  0  0
    3.0134   14.9620    0.3452 H   0  0  0  0  0  0  0  0  0  0  0  0
    3.6266   15.7774   -1.1874 H   0  0  0  0  0  0  0  0  0  0  0  0
    2.5744   17.3627    0.6349 H   0  0  0  0  0  0  0  0  0  0  0  0
   -0.5917   16.2001   -1.5850 H   0  0  0  0  0  0  0  0  0  0  0  0
    0.9673   18.1227   -3.4214 H   0  0  0  0  0  0  0  0  0  0  0  0
   -0.5673   17.2327   -3.8242 H   0  0  0  0  0  0  0  0  0  0  0  0
   -0.9812   19.6090   -3.2747 H   0  0  0  0  0  0  0  0  0  0  0  0
   -1.7684   18.4693   -2.1138 H   0  0  0  0  0  0  0  0  0  0  0  0
   -0.7931   20.2800   -0.8773 H   0  0  0  0  0  0  0  0  0  0  0  0
    0.7980   20.9390   -2.3650 H   0  0  0  0  0  0  0  0  0  0  0  0
   -0.8309   18.1566    1.6507 H   0  0  0  0  0  0  0  0  0  0  0  0
   -1.8341   18.7459    0.2821 H   0  0  0  0  0  0  0  0  0  0  0  0
   -1.2168   17.0590    0.2821 H   0  0  0  0  0  0  0  0  0  0  0  0
    0.8162   19.0590    1.8869 H   0  0  0  0  0  0  0  0  0  0  0  0
    2.1942   19.1165    0.7361 H   0  0  0  0  0  0  0  0  0  0  0  0
    0.9685   20.4297    0.7361 H   0  0  0  0  0  0  0  0  0  0  0  0
    3.0520   16.2564   -3.0681 H   0  0  0  0  0  0  0  0  0  0  0  0
    2.4705   15.0142   -4.2280 H   0  0  0  0  0  0  0  0  0  0  0  0
    1.7397   16.6551   -4.2280 H   0  0  0  0  0  0  0  0  0  0  0  0
   -0.6663   15.1600   -3.7949 H   0  0  0  0  0  0  0  0  0  0  0  0
    0.6933   13.9313   -4.0712 H   0  0  0  0  0  0  0  0  0  0  0  0
   -1.3959   13.9148   -1.8754 H   0  0  0  0  0  0  0  0  0  0  0  0
   -1.1806   12.7462   -3.2373 H   0  0  0  0  0  0  0  0  0  0  0  0
    2.0085   11.2730   -2.0746 H   0  0  0  0  0  0  0  0  0  0  0  0
    0.6940   11.1557   -3.2931 H   0  0  0  0  0  0  0  0  0  0  0  0
    1.7945   12.5753   -3.2931 H   0  0  0  0  0  0  0  0  0  0  0  0
  1  2  1  0
  2  3  1  0
  3  4  1  0
  4  5  1  0
  5  6  1  0
  6  7  1  0
  7  8  1  0
  7  9  1  0
  2 10  1  0
 10 11  1  0
 11 12  1  0
 12 13  1  0
 13 14  1  1
 13 15  1  0
 15 16  1  0
 16 17  1  0
 17 18  2  0
 18 19  1  0
 19 20  1  0
 20 21  1  0
 21 22  1  0
 22 23  1  0
 22 24  1  0
 24 25  1  0
 24 26  1  0
 19 27  1  0
 27 28  1  6
 27 29  1  0
 29 30  1  0
 30 31  1  0
 31 32  1  6
  7  5  1  0
 31 10  1  0
 31 13  1  0
 27 15  1  0
 24 18  1  0
  1 33  1  0
  1 34  1  0
  1 35  1  0
  2 36  1  6
  3 37  1  0
  3 38  1  0
  4 39  1  0
  4 40  1  0
  5 41  1  6
  8 42  1  0
  8 43  1  0
  8 44  1  0
  9 45  1  0
  9 46  1  0
  9 47  1  0
 10 48  1  1
 11 49  1  0
 11 50  1  0
 12 51  1  0
 12 52  1  0
 14 53  1  0
 14 54  1  0
 14 55  1  0
 15 56  1  6
 16 57  1  0
 16 58  1  0
 17 59  1  0
 19 60  1  1
 20 61  1  0
 20 62  1  0
 21 63  1  0
 21 64  1  0
 22 65  1  1
 23 66  1  0
 25 67  1  0
 25 68  1  0
 25 69  1  0
 26 70  1  0
 26 71  1  0
 26 72  1  0
 28 73  1  0
 28 74  1  0
 28 75  1  0
 29 76  1  0
 29 77  1  0
 30 78  1  0
 30 79  1  0
 32 80  1  0
 32 81  1  0
 32 82  1  0
M  END
>  <meeko>  (6) 
{"is_sidechain": [false], "intermolecular_energy": 2.731, "internal_energy": -0.839}

$$$$
EPH_relaxed_0001_pdb2pqr_Repair_401_r2_0001_out
     RDKit          3D

 82 86  0  0  0  0  0  0  0  0999 V2000
    1.7780   12.7710   -5.9090 C   0  0  0  0  0  0  0  0  0  0  0  0
    0.8900   13.5720   -4.9520 C   0  0  2  0  0  0  0  0  0  0  0  0
    0.8950   15.0790   -5.2790 C   0  0  0  0  0  0  0  0  0  0  0  0
    0.6070   15.3910   -6.7500 C   0  0  0  0  0  0  0  0  0  0  0  0
    1.8470   15.3050   -7.5880 C   0  0  2  0  0  0  0  0  0  0  0  0
    2.2360   16.5370   -8.2090 O   0  0  0  0  0  0  0  0  0  0  0  0
    1.8510   15.4750   -9.0960 C   0  0  0  0  0  0  0  0  0  0  0  0
    0.5890   15.7430   -9.8540 C   0  0  0  0  0  0  0  0  0  0  0  0
    2.9900   14.8990   -9.8770 C   0  0  0  0  0  0  0  0  0  0  0  0
    1.3420   13.3490   -3.5140 C   0  0  1  0  0  0  0  0  0  0  0  0
    1.3350   14.6560   -2.6760 C   0  0  0  0  0  0  0  0  0  0  0  0
    0.9270   14.2610   -1.2340 C   0  0  0  0  0  0  0  0  0  0  0  0
    1.0350   12.7180   -1.2070 C   0  0  1  0  0  0  0  0  0  0  0  0
    2.5530   12.4260   -0.9910 C   0  0  0  0  0  0  0  0  0  0  0  0
    0.1490   11.9820   -0.1490 C   0  0  2  0  0  0  0  0  0  0  0  0
    0.4690   12.3190    1.3180 C   0  0  0  0  0  0  0  0  0  0  0  0
    1.4850   11.4380    1.9680 C   0  0  0  0  0  0  0  0  0  0  0  0
    1.9050   10.2490    1.4970 C   0  0  0  0  0  0  0  0  0  0  0  0
    1.2740    9.6320    0.2420 C   0  0  1  0  0  0  0  0  0  0  0  0
    0.9580    8.1360    0.5040 C   0  0  0  0  0  0  0  0  0  0  0  0
    2.1760    7.3560    0.9880 C   0  0  0  0  0  0  0  0  0  0  0  0
    2.7390    7.9660    2.2700 C   0  0  2  0  0  0  0  0  0  0  0  0
    1.7870    7.7870    3.3220 O   0  0  0  0  0  0  0  0  0  0  0  0
    3.0870    9.4740    2.1300 C   0  0  0  0  0  0  0  0  0  0  0  0
    4.3240    9.6410    1.2120 C   0  0  0  0  0  0  0  0  0  0  0  0
    3.5100    9.9990    3.5280 C   0  0  0  0  0  0  0  0  0  0  0  0
    0.0380   10.4190   -0.3720 C   0  0  1  0  0  0  0  0  0  0  0  0
   -1.2810    9.9640    0.3240 C   0  0  0  0  0  0  0  0  0  0  0  0
   -0.1090   10.0410   -1.8930 C   0  0  0  0  0  0  0  0  0  0  0  0
    0.6990   10.8820   -2.8990 C   0  0  0  0  0  0  0  0  0  0  0  0
    0.5000   12.3800   -2.6460 C   0  0  2  0  0  0  0  0  0  0  0  0
   -1.0140   12.7080   -2.8770 C   0  0  0  0  0  0  0  0  0  0  0  0
    2.4717   12.1452   -5.3284 H   0  0  0  0  0  0  0  0  0  0  0  0
    1.1484   12.1293   -6.5430 H   0  0  0  0  0  0  0  0  0  0  0  0
    2.3516   13.4632   -6.5430 H   0  0  0  0  0  0  0  0  0  0  0  0
   -0.1415   13.2109   -5.0773 H   0  0  0  0  0  0  0  0  0  0  0  0
    0.1274   15.5705   -4.6631 H   0  0  0  0  0  0  0  0  0  0  0  0
    1.9076   15.4511   -5.0640 H   0  0  0  0  0  0  0  0  0  0  0  0
   -0.1307   14.6688   -7.1298 H   0  0  0  0  0  0  0  0  0  0  0  0
    0.2209   16.4191   -6.8133 H   0  0  0  0  0  0  0  0  0  0  0  0
    2.2651   14.5273   -6.9320 H   0  0  0  0  0  0  0  0  0  0  0  0
   -0.2341   15.9178   -9.1456 H   0  0  0  0  0  0  0  0  0  0  0  0
    0.7233   16.6327  -10.4868 H   0  0  0  0  0  0  0  0  0  0  0  0
    0.3501   14.8756  -10.4868 H   0  0  0  0  0  0  0  0  0  0  0  0
    3.7521   14.5136   -9.1838 H   0  0  0  0  0  0  0  0  0  0  0  0
    2.6223   14.0785  -10.5107 H   0  0  0  0  0  0  0  0  0  0  0  0
    3.4329   15.6815  -10.5107 H   0  0  0  0  0  0  0  0  0  0  0  0
    2.3384   12.9209   -3.6983 H   0  0  0  0  0  0  0  0  0  0  0  0
    2.3367   15.1106   -2.6751 H   0  0  0  0  0  0  0  0  0  0  0  0
    0.6337   15.3913   -3.0973 H   0  0  0  0  0  0  0  0  0  0  0  0
    1.6112   14.7111   -0.4997 H   0  0  0  0  0  0  0  0  0  0  0  0
   -0.0823   14.6132   -0.9746 H   0  0  0  0  0  0  0  0  0  0  0  0
    2.7687   12.3845    0.0869 H   0  0  0  0  0  0  0  0  0  0  0  0
    2.8104   11.4619   -1.4538 H   0  0  0  0  0  0  0  0  0  0  0  0
    3.1497   13.2258   -1.4538 H   0  0  0  0  0  0  0  0  0  0  0  0
   -0.8484   12.4040   -0.3415 H   0  0  0  0  0  0  0  0  0  0  0  0
    0.8420   13.3531    1.3556 H   0  0  0  0  0  0  0  0  0  0  0  0
   -0.4667   12.1676    1.8761 H   0  0  0  0  0  0  0  0  0  0  0  0
    1.9274   11.7906    2.9114 H   0  0  0  0  0  0  0  0  0  0  0  0
    2.0292    9.7205   -0.5529 H   0  0  0  0  0  0  0  0  0  0  0  0
    0.1708    8.0709    1.2695 H   0  0  0  0  0  0  0  0  0  0  0  0
    0.6345    7.6917   -0.4489 H   0  0  0  0  0  0  0  0  0  0  0  0
    1.8822    6.3142    1.1836 H   0  0  0  0  0  0  0  0  0  0  0  0
    2.9517    7.3964    0.2091 H   0  0  0  0  0  0  0  0  0  0  0  0
    3.6823    7.4470    2.4956 H   0  0  0  0  0  0  0  0  0  0  0  0
    0.9140    8.0360    2.9750 H   0  0  0  0  0  0  0  0  0  0  0  0
    5.2256    9.7627    1.8302 H   0  0  0  0  0  0  0  0  0  0  0  0
    4.4324    8.7493    0.5770 H   0  0  0  0  0  0  0  0  0  0  0  0
    4.1921   10.5295    0.5770 H   0  0  0  0  0  0  0  0  0  0  0  0
    3.0238    9.3956    4.3088 H   0  0  0  0  0  0  0  0  0  0  0  0
    4.6024    9.9232    3.6330 H   0  0  0  0  0  0  0  0  0  0  0  0
    3.2036   11.0502    3.6330 H   0  0  0  0  0  0  0  0  0  0  0  0
   -1.1535   10.0080    1.4157 H   0  0  0  0  0  0  0  0  0  0  0  0
   -2.1029   10.6306    0.0237 H   0  0  0  0  0  0  0  0  0  0  0  0
   -1.5171    8.9325    0.0237 H   0  0  0  0  0  0  0  0  0  0  0  0
    0.2052    8.9930   -2.0073 H   0  0  0  0  0  0  0  0  0  0  0  0
   -1.1638   10.2354   -2.1372 H   0  0  0  0  0  0  0  0  0  0  0  0
    1.7667   10.6384   -2.7960 H   0  0  0  0  0  0  0  0  0  0  0  0
    0.3469   10.6479   -3.9145 H   0  0  0  0  0  0  0  0  0  0  0  0
   -1.5179   12.8172   -1.9053 H   0  0  0  0  0  0  0  0  0  0  0  0
   -1.1035   13.6464   -3.4440 H   0  0  0  0  0  0  0  0  0  0  0  0
   -1.4839   11.8908   -3.4440 H   0  0  0  0  0  0  0  0  0  0  0  0
  1  2  1  0
  2  3  1  0
  3  4  1  0
  4  5  1  0
  5  6  1  0
  6  7  1  0
  7  8  1  0
  7  9  1  0
  2 10  1  0
 10 11  1  0
 11 12  1  0
 12 13  1  0
 13 14  1  6
 13 15  1  0
 15 16  1  0
 16 17  1  0
 17 18  2  0
 18 19  1  0
 19 20  1  0
 20 21  1  0
 21 22  1  0
 22 23  1  0
 22 24  1  0
 24 25  1  0
 24 26  1  0
 19 27  1  0
 27 28  1  1
 27 29  1  0
 29 30  1  0
 30 31  1  0
 31 32  1  1
  7  5  1  0
 31 10  1  0
 31 13  1  0
 27 15  1  0
 24 18  1  0
  1 33  1  0
  1 34  1  0
  1 35  1  0
  2 36  1  1
  3 37  1  0
  3 38  1  0
  4 39  1  0
  4 40  1  0
  5 41  1  6
  8 42  1  0
  8 43  1  0
  8 44  1  0
  9 45  1  0
  9 46  1  0
  9 47  1  0
 10 48  1  6
 11 49  1  0
 11 50  1  0
 12 51  1  0
 12 52  1  0
 14 53  1  0
 14 54  1  0
 14 55  1  0
 15 56  1  6
 16 57  1  0
 16 58  1  0
 17 59  1  0
 19 60  1  6
 20 61  1  0
 20 62  1  0
 21 63  1  0
 21 64  1  0
 22 65  1  1
 23 66  1  0
 25 67  1  0
 25 68  1  0
 25 69  1  0
 26 70  1  0
 26 71  1  0
 26 72  1  0
 28 73  1  0
 28 74  1  0
 28 75  1  0
 29 76  1  0
 29 77  1  0
 30 78  1  0
 30 79  1  0
 32 80  1  0
 32 81  1  0
 32 82  1  0
M  END
>  <meeko>  (7) 
{"is_sidechain": [false], "intermolecular_energy": 2.731, "internal_energy": -0.839}

$$$$
EPH_relaxed_0001_pdb2pqr_Repair_401_r2_0001_out
     RDKit          3D

 82 86  0  0  0  0  0  0  0  0999 V2000
   -5.1710    5.8260   -1.7160 C   0  0  0  0  0  0  0  0  0  0  0  0
   -5.4610    7.3290   -1.7730 C   0  0  2  0  0  0  0  0  0  0  0  0
   -5.2330    8.0160   -0.4120 C   0  0  0  0  0  0  0  0  0  0  0  0
   -4.1760    9.1240   -0.4520 C   0  0  0  0  0  0  0  0  0  0  0  0
   -2.8480    8.6060   -0.9160 C   0  0  2  0  0  0  0  0  0  0  0  0
   -1.7680    8.8210    0.0030 O   0  0  0  0  0  0  0  0  0  0  0  0
   -1.6740    9.5040   -1.2580 C   0  0  0  0  0  0  0  0  0  0  0  0
   -1.7730   10.9940   -1.1510 C   0  0  0  0  0  0  0  0  0  0  0  0
   -0.6010    8.9690   -2.1550 C   0  0  0  0  0  0  0  0  0  0  0  0
   -6.8920    7.5650   -2.2430 C   0  0  1  0  0  0  0  0  0  0  0  0
   -7.1980    6.8720   -3.5970 C   0  0  0  0  0  0  0  0  0  0  0  0
   -8.6760    6.4090   -3.5390 C   0  0  0  0  0  0  0  0  0  0  0  0
   -9.2630    7.1330   -2.3050 C   0  0  1  0  0  0  0  0  0  0  0  0
   -9.6030    8.5710   -2.8080 C   0  0  0  0  0  0  0  0  0  0  0  0
  -10.4970    6.4530   -1.6260 C   0  0  2  0  0  0  0  0  0  0  0  0
  -11.7480    6.3360   -2.5140 C   0  0  0  0  0  0  0  0  0  0  0  0
  -12.6950    7.4880   -2.4360 C   0  0  0  0  0  0  0  0  0  0  0  0
  -12.6960    8.4360   -1.4810 C   0  0  0  0  0  0  0  0  0  0  0  0
  -11.7370    8.3520   -0.2870 C   0  0  1  0  0  0  0  0  0  0  0  0
  -12.5170    8.6360    1.0240 C   0  0  0  0  0  0  0  0  0  0  0  0
  -13.2770    9.9570    0.9780 C   0  0  0  0  0  0  0  0  0  0  0  0
  -14.2620    9.9800   -0.1880 C   0  0  2  0  0  0  0  0  0  0  0  0
  -15.2870    9.0120    0.0560 O   0  0  0  0  0  0  0  0  0  0  0  0
  -13.5920    9.6970   -1.5610 C   0  0  0  0  0  0  0  0  0  0  0  0
  -12.7040   10.9000   -1.9650 C   0  0  0  0  0  0  0  0  0  0  0  0
  -14.7140    9.6080   -2.6310 C   0  0  0  0  0  0  0  0  0  0  0  0
  -10.8530    7.0340   -0.1980 C   0  0  1  0  0  0  0  0  0  0  0  0
  -11.6390    5.9170    0.5540 C   0  0  0  0  0  0  0  0  0  0  0  0
   -9.5700    7.3330    0.6640 C   0  0  0  0  0  0  0  0  0  0  0  0
   -8.3450    7.8910   -0.0840 C   0  0  0  0  0  0  0  0  0  0  0  0
   -8.0340    7.0540   -1.3290 C   0  0  2  0  0  0  0  0  0  0  0  0
   -7.6670    5.6070   -0.8520 C   0  0  0  0  0  0  0  0  0  0  0  0
   -5.1089    5.5041   -0.6660 H   0  0  0  0  0  0  0  0  0  0  0  0
   -5.9798    5.2771   -2.2205 H   0  0  0  0  0  0  0  0  0  0  0  0
   -4.2160    5.6174   -2.2205 H   0  0  0  0  0  0  0  0  0  0  0  0
   -4.7562    7.7752   -2.4900 H   0  0  0  0  0  0  0  0  0  0  0  0
   -6.1853    8.4560   -0.0810 H   0  0  0  0  0  0  0  0  0  0  0  0
   -4.8646    7.2446    0.2803 H   0  0  0  0  0  0  0  0  0  0  0  0
   -4.5119    9.9125   -1.1415 H   0  0  0  0  0  0  0  0  0  0  0  0
   -4.0534    9.5183    0.5676 H   0  0  0  0  0  0  0  0  0  0  0  0
   -3.3324    7.7842   -1.4638 H   0  0  0  0  0  0  0  0  0  0  0  0
   -1.7923   11.2850   -0.0904 H   0  0  0  0  0  0  0  0  0  0  0  0
   -0.9035   11.4555   -1.6420 H   0  0  0  0  0  0  0  0  0  0  0  0
   -2.6959   11.3364   -1.6420 H   0  0  0  0  0  0  0  0  0  0  0  0
    0.2177    8.5608   -1.5442 H   0  0  0  0  0  0  0  0  0  0  0  0
   -1.0170    8.1728   -2.7899 H   0  0  0  0  0  0  0  0  0  0  0  0
   -0.2155    9.7804   -2.7899 H   0  0  0  0  0  0  0  0  0  0  0  0
   -6.8971    8.6646   -2.2731 H   0  0  0  0  0  0  0  0  0  0  0  0
   -7.0555    7.5809   -4.4260 H   0  0  0  0  0  0  0  0  0  0  0  0
   -6.5236    6.0195   -3.7654 H   0  0  0  0  0  0  0  0  0  0  0  0
   -9.2115    6.7038   -4.4535 H   0  0  0  0  0  0  0  0  0  0  0  0
   -8.7681    5.3154   -3.4642 H   0  0  0  0  0  0  0  0  0  0  0  0
   -9.7598    9.2340   -1.9444 H   0  0  0  0  0  0  0  0  0  0  0  0
   -8.7704    8.9528   -3.4170 H   0  0  0  0  0  0  0  0  0  0  0  0
  -10.5185    8.5395   -3.4170 H   0  0  0  0  0  0  0  0  0  0  0  0
  -10.1435    5.4228   -1.4716 H   0  0  0  0  0  0  0  0  0  0  0  0
  -11.4159    6.2390   -3.5582 H   0  0  0  0  0  0  0  0  0  0  0  0
  -12.3025    5.4605   -2.1452 H   0  0  0  0  0  0  0  0  0  0  0  0
  -13.4561    7.5684   -3.2261 H   0  0  0  0  0  0  0  0  0  0  0  0
  -10.9807    9.1342   -0.4489 H   0  0  0  0  0  0  0  0  0  0  0  0
  -13.2367    7.8208    1.1897 H   0  0  0  0  0  0  0  0  0  0  0  0
  -11.7836    8.7011    1.8413 H   0  0  0  0  0  0  0  0  0  0  0  0
  -13.8308   10.0866    1.9196 H   0  0  0  0  0  0  0  0  0  0  0  0
  -12.5529   10.7738    0.8418 H   0  0  0  0  0  0  0  0  0  0  0  0
  -14.6805   10.9956   -0.2469 H   0  0  0  0  0  0  0  0  0  0  0  0
  -16.1380    9.4810    0.0710 H   0  0  0  0  0  0  0  0  0  0  0  0
  -12.3331   11.4024   -1.0594 H   0  0  0  0  0  0  0  0  0  0  0  0
  -11.8515   10.5426   -2.5612 H   0  0  0  0  0  0  0  0  0  0  0  0
  -13.2967   11.6094   -2.5612 H   0  0  0  0  0  0  0  0  0  0  0  0
  -15.6912    9.5305   -2.1320 H   0  0  0  0  0  0  0  0  0  0  0  0
  -14.6938   10.5106   -3.2595 H   0  0  0  0  0  0  0  0  0  0  0  0
  -14.5517    8.7199   -3.2595 H   0  0  0  0  0  0  0  0  0  0  0  0
  -11.5360    6.0634    1.6393 H   0  0  0  0  0  0  0  0  0  0  0  0
  -12.7023    5.9666    0.2766 H   0  0  0  0  0  0  0  0  0  0  0  0
  -11.2332    4.9329    0.2766 H   0  0  0  0  0  0  0  0  0  0  0  0
   -9.8507    8.0652    1.4355 H   0  0  0  0  0  0  0  0  0  0  0  0
   -9.2494    6.3547    1.0515 H   0  0  0  0  0  0  0  0  0  0  0  0
   -8.5514    8.9274   -0.3896 H   0  0  0  0  0  0  0  0  0  0  0  0
   -7.4761    7.8537    0.5895 H   0  0  0  0  0  0  0  0  0  0  0  0
   -7.6587    5.5744    0.2475 H   0  0  0  0  0  0  0  0  0  0  0  0
   -8.4129    4.8947   -1.2343 H   0  0  0  0  0  0  0  0  0  0  0  0
   -6.6718    5.3363   -1.2343 H   0  0  0  0  0  0  0  0  0  0  0  0
  1  2  1  0
  2  3  1  0
  3  4  1  0
  4  5  1  0
  5  6  1  0
  6  7  1  0
  7  8  1  0
  7  9  1  0
  2 10  1  0
 10 11  1  0
 11 12  1  0
 12 13  1  0
 13 14  1  6
 13 15  1  0
 15 16  1  0
 16 17  1  0
 17 18  2  0
 18 19  1  0
 19 20  1  0
 20 21  1  0
 21 22  1  0
 22 23  1  0
 22 24  1  0
 24 25  1  0
 24 26  1  0
 19 27  1  0
 27 28  1  1
 27 29  1  0
 29 30  1  0
 30 31  1  0
 31 32  1  1
  7  5  1  0
 31 10  1  0
 31 13  1  0
 27 15  1  0
 24 18  1  0
  1 33  1  0
  1 34  1  0
  1 35  1  0
  2 36  1  6
  3 37  1  0
  3 38  1  0
  4 39  1  0
  4 40  1  0
  5 41  1  6
  8 42  1  0
  8 43  1  0
  8 44  1  0
  9 45  1  0
  9 46  1  0
  9 47  1  0
 10 48  1  6
 11 49  1  0
 11 50  1  0
 12 51  1  0
 12 52  1  0
 14 53  1  0
 14 54  1  0
 14 55  1  0
 15 56  1  1
 16 57  1  0
 16 58  1  0
 17 59  1  0
 19 60  1  6
 20 61  1  0
 20 62  1  0
 21 63  1  0
 21 64  1  0
 22 65  1  6
 23 66  1  0
 25 67  1  0
 25 68  1  0
 25 69  1  0
 26 70  1  0
 26 71  1  0
 26 72  1  0
 28 73  1  0
 28 74  1  0
 28 75  1  0
 29 76  1  0
 29 77  1  0
 30 78  1  0
 30 79  1  0
 32 80  1  0
 32 81  1  0
 32 82  1  0
M  END
>  <meeko>  (8) 
{"is_sidechain": [false], "intermolecular_energy": 2.731, "internal_energy": -0.839}

$$$$
EPH_relaxed_0001_pdb2pqr_Repair_401_r2_0001_out
     RDKit          3D

 82 86  0  0  0  0  0  0  0  0999 V2000
    2.3610   12.4130   -5.1600 C   0  0  0  0  0  0  0  0  0  0  0  0
    0.9960   13.0700   -4.9350 C   0  0  2  0  0  0  0  0  0  0  0  0
    0.9590   14.5230   -5.4470 C   0  0  0  0  0  0  0  0  0  0  0  0
    0.4300   15.5250   -4.4170 C   0  0  0  0  0  0  0  0  0  0  0  0
    1.5350   16.0950   -3.5800 C   0  0  2  0  0  0  0  0  0  0  0  0
    1.3500   15.9500   -2.1660 O   0  0  0  0  0  0  0  0  0  0  0  0
    1.3610   17.2960   -2.6690 C   0  0  0  0  0  0  0  0  0  0  0  0
    0.0460   18.0000   -2.5490 C   0  0  0  0  0  0  0  0  0  0  0  0
    2.5750   18.0770   -2.2750 C   0  0  0  0  0  0  0  0  0  0  0  0
    0.6390   13.0300   -3.4530 C   0  0  1  0  0  0  0  0  0  0  0  0
   -0.8400   13.4170   -3.1850 C   0  0  0  0  0  0  0  0  0  0  0  0
   -1.3180   12.5550   -1.9880 C   0  0  0  0  0  0  0  0  0  0  0  0
   -0.0210   11.9520   -1.3990 C   0  0  1  0  0  0  0  0  0  0  0  0
    0.5800   13.0840   -0.5080 C   0  0  0  0  0  0  0  0  0  0  0  0
   -0.1790   10.6150   -0.6050 C   0  0  2  0  0  0  0  0  0  0  0  0
   -1.0530   10.7050    0.6580 C   0  0  0  0  0  0  0  0  0  0  0  0
   -0.3230   11.0390    1.9160 C   0  0  0  0  0  0  0  0  0  0  0  0
    1.0110   10.9790    2.0860 C   0  0  0  0  0  0  0  0  0  0  0  0
    1.9230   10.4460    0.9730 C   0  0  1  0  0  0  0  0  0  0  0  0
    2.9420    9.4430    1.5750 C   0  0  0  0  0  0  0  0  0  0  0  0
    3.7290   10.0360    2.7410 C   0  0  0  0  0  0  0  0  0  0  0  0
    2.7900   10.5010    3.8510 C   0  0  2  0  0  0  0  0  0  0  0  0
    2.1520    9.3560    4.4250 O   0  0  0  0  0  0  0  0  0  0  0  0
    1.7130   11.5080    3.3610 C   0  0  0  0  0  0  0  0  0  0  0  0
    2.3830   12.8620    3.0210 C   0  0  0  0  0  0  0  0  0  0  0  0
    0.7470   11.7870    4.5440 C   0  0  0  0  0  0  0  0  0  0  0  0
    1.1860    9.8700   -0.3110 C   0  0  1  0  0  0  0  0  0  0  0  0
    0.8350    8.3660   -0.0940 C   0  0  0  0  0  0  0  0  0  0  0  0
    2.1730    9.9230   -1.5370 C   0  0  0  0  0  0  0  0  0  0  0  0
    2.1960   11.2290   -2.3540 C   0  0  0  0  0  0  0  0  0  0  0  0
    0.7770   11.6700   -2.7250 C   0  0  2  0  0  0  0  0  0  0  0  0
    0.1550   10.5610   -3.6400 C   0  0  0  0  0  0  0  0  0  0  0  0
    2.8251   12.1896   -4.1880 H   0  0  0  0  0  0  0  0  0  0  0  0
    2.2296   11.4795   -5.7268 H   0  0  0  0  0  0  0  0  0  0  0  0
    3.0087   13.0980   -5.7268 H   0  0  0  0  0  0  0  0  0  0  0  0
    0.2542   12.4986   -5.5123 H   0  0  0  0  0  0  0  0  0  0  0  0
    1.9809   14.8189   -5.7264 H   0  0  0  0  0  0  0  0  0  0  0  0
    0.2672   14.5452   -6.3020 H   0  0  0  0  0  0  0  0  0  0  0  0
   -0.0765   16.3459   -4.9457 H   0  0  0  0  0  0  0  0  0  0  0  0
   -0.2671   14.9960   -3.7505 H   0  0  0  0  0  0  0  0  0  0  0  0
    2.2768   15.8606   -4.3577 H   0  0  0  0  0  0  0  0  0  0  0  0
   -0.2029   18.1332   -1.4858 H   0  0  0  0  0  0  0  0  0  0  0  0
    0.1110   18.9839   -3.0365 H   0  0  0  0  0  0  0  0  0  0  0  0
   -0.7368   17.4003   -3.0365 H   0  0  0  0  0  0  0  0  0  0  0  0
    2.6428   18.1206   -1.1780 H   0  0  0  0  0  0  0  0  0  0  0  0
    3.4732   17.5869   -2.6787 H   0  0  0  0  0  0  0  0  0  0  0  0
    2.5014   19.0976   -2.6787 H   0  0  0  0  0  0  0  0  0  0  0  0
    1.3825   13.7415   -3.0644 H   0  0  0  0  0  0  0  0  0  0  0  0
   -0.9126   14.4858   -2.9351 H   0  0  0  0  0  0  0  0  0  0  0  0
   -1.4625   13.2381   -4.0741 H   0  0  0  0  0  0  0  0  0  0  0  0
   -1.8307   13.1785   -1.2407 H   0  0  0  0  0  0  0  0  0  0  0  0
   -2.0373   11.7805   -2.2925 H   0  0  0  0  0  0  0  0  0  0  0  0
    0.4436   12.8270    0.5528 H   0  0  0  0  0  0  0  0  0  0  0  0
    1.6533   13.1902   -0.7245 H   0  0  0  0  0  0  0  0  0  0  0  0
    0.0667   14.0325   -0.7245 H   0  0  0  0  0  0  0  0  0  0  0  0
   -0.7400    9.9865   -1.3123 H   0  0  0  0  0  0  0  0  0  0  0  0
   -1.8139   11.4815    0.4902 H   0  0  0  0  0  0  0  0  0  0  0  0
   -1.4746    9.7002    0.8085 H   0  0  0  0  0  0  0  0  0  0  0  0
   -0.9262   11.3616    2.7775 H   0  0  0  0  0  0  0  0  0  0  0  0
    2.4538   11.3210    0.5696 H   0  0  0  0  0  0  0  0  0  0  0  0
    2.3959    8.5575    1.9324 H   0  0  0  0  0  0  0  0  0  0  0  0
    3.6616    9.1835    0.7845 H   0  0  0  0  0  0  0  0  0  0  0  0
    4.4099    9.2709    3.1422 H   0  0  0  0  0  0  0  0  0  0  0  0
    4.2985   10.9034    2.3758 H   0  0  0  0  0  0  0  0  0  0  0  0
    3.3993   11.0322    4.5970 H   0  0  0  0  0  0  0  0  0  0  0  0
    1.1980    9.4350    4.2570 H   0  0  0  0  0  0  0  0  0  0  0  0
    2.6426   13.3867    3.9523 H   0  0  0  0  0  0  0  0  0  0  0  0
    3.2961   12.6822    2.4346 H   0  0  0  0  0  0  0  0  0  0  0  0
    1.6862   13.4789    2.4346 H   0  0  0  0  0  0  0  0  0  0  0  0
    1.2781   11.6336    5.4950 H   0  0  0  0  0  0  0  0  0  0  0  0
    0.3885   12.8254    4.4876 H   0  0  0  0  0  0  0  0  0  0  0  0
   -0.1100   11.0996    4.4876 H   0  0  0  0  0  0  0  0  0  0  0  0
    0.7853    8.1529    0.9840 H   0  0  0  0  0  0  0  0  0  0  0  0
   -0.1386    8.1463   -0.5565 H   0  0  0  0  0  0  0  0  0  0  0  0
    1.6107    7.7380   -0.5565 H   0  0  0  0  0  0  0  0  0  0  0  0
    3.1897    9.7525   -1.1534 H   0  0  0  0  0  0  0  0  0  0  0  0
    1.8083    9.1539   -2.2337 H   0  0  0  0  0  0  0  0  0  0  0  0
    2.6733   12.0191   -1.7557 H   0  0  0  0  0  0  0  0  0  0  0  0
    2.7614   11.0524   -3.2809 H   0  0  0  0  0  0  0  0  0  0  0  0
   -0.2869    9.7731   -3.0124 H   0  0  0  0  0  0  0  0  0  0  0  0
   -0.6258   11.0049   -4.2751 H   0  0  0  0  0  0  0  0  0  0  0  0
    0.9409   10.1262   -4.2751 H   0  0  0  0  0  0  0  0  0  0  0  0
  1  2  1  0
  2  3  1  0
  3  4  1  0
  4  5  1  0
  5  6  1  0
  6  7  1  0
  7  8  1  0
  7  9  1  0
  2 10  1  0
 10 11  1  0
 11 12  1  0
 12 13  1  0
 13 14  1  1
 13 15  1  0
 15 16  1  0
 16 17  1  0
 17 18  2  0
 18 19  1  0
 19 20  1  0
 20 21  1  0
 21 22  1  0
 22 23  1  0
 22 24  1  0
 24 25  1  0
 24 26  1  0
 19 27  1  0
 27 28  1  1
 27 29  1  0
 29 30  1  0
 30 31  1  0
 31 32  1  6
  7  5  1  0
 31 10  1  0
 31 13  1  0
 27 15  1  0
 24 18  1  0
  1 33  1  0
  1 34  1  0
  1 35  1  0
  2 36  1  6
  3 37  1  0
  3 38  1  0
  4 39  1  0
  4 40  1  0
  5 41  1  6
  8 42  1  0
  8 43  1  0
  8 44  1  0
  9 45  1  0
  9 46  1  0
  9 47  1  0
 10 48  1  1
 11 49  1  0
 11 50  1  0
 12 51  1  0
 12 52  1  0
 14 53  1  0
 14 54  1  0
 14 55  1  0
 15 56  1  6
 16 57  1  0
 16 58  1  0
 17 59  1  0
 19 60  1  6
 20 61  1  0
 20 62  1  0
 21 63  1  0
 21 64  1  0
 22 65  1  1
 23 66  1  0
 25 67  1  0
 25 68  1  0
 25 69  1  0
 26 70  1  0
 26 71  1  0
 26 72  1  0
 28 73  1  0
 28 74  1  0
 28 75  1  0
 29 76  1  0
 29 77  1  0
 30 78  1  0
 30 79  1  0
 32 80  1  0
 32 81  1  0
 32 82  1  0
M  END
>  <meeko>  (9) 
{"is_sidechain": [false], "intermolecular_energy": 2.731, "internal_energy": -0.839}

$$$$
EPH_relaxed_0001_pdb2pqr_Repair_401_r2_0001_out
     RDKit          3D

 82 86  0  0  0  0  0  0  0  0999 V2000
    0.4170    8.8200   -2.3820 C   0  0  0  0  0  0  0  0  0  0  0  0
    1.1650    9.9640   -3.0720 C   0  0  2  0  0  0  0  0  0  0  0  0
    2.6640    9.9780   -2.7120 C   0  0  0  0  0  0  0  0  0  0  0  0
    3.5560   10.5600   -3.8120 C   0  0  0  0  0  0  0  0  0  0  0  0
    4.9500   10.8100   -3.3210 C   0  0  2  0  0  0  0  0  0  0  0  0
    5.5320   12.0400   -3.7720 O   0  0  0  0  0  0  0  0  0  0  0  0
    6.1650   10.8350   -4.2300 C   0  0  0  0  0  0  0  0  0  0  0  0
    6.0420   10.6040   -5.7040 C   0  0  0  0  0  0  0  0  0  0  0  0
    7.5140   10.5960   -3.6270 C   0  0  0  0  0  0  0  0  0  0  0  0
    0.5280   11.2980   -2.7030 C   0  0  1  0  0  0  0  0  0  0  0  0
   -0.8440   11.1310   -1.9970 C   0  0  0  0  0  0  0  0  0  0  0  0
   -0.9530   12.2730   -0.9550 C   0  0  0  0  0  0  0  0  0  0  0  0
    0.1940   13.2450   -1.3190 C   0  0  1  0  0  0  0  0  0  0  0  0
   -0.3650   14.0990   -2.5000 C   0  0  0  0  0  0  0  0  0  0  0  0
    0.7320   14.1450   -0.1600 C   0  0  2  0  0  0  0  0  0  0  0  0
   -0.2950   15.1220    0.4380 C   0  0  0  0  0  0  0  0  0  0  0  0
   -0.3440   16.4680   -0.2070 C   0  0  0  0  0  0  0  0  0  0  0  0
    0.5910   16.9760   -1.0310 C   0  0  0  0  0  0  0  0  0  0  0  0
    1.8910   16.2110   -1.3120 C   0  0  1  0  0  0  0  0  0  0  0  0
    3.0980   17.1790   -1.1930 C   0  0  0  0  0  0  0  0  0  0  0  0
    2.9450   18.4150   -2.0750 C   0  0  0  0  0  0  0  0  0  0  0  0
    1.6710   19.1800   -1.7250 C   0  0  2  0  0  0  0  0  0  0  0  0
    1.8060   19.7230   -0.4080 O   0  0  0  0  0  0  0  0  0  0  0  0
    0.3900   18.3040   -1.8010 C   0  0  0  0  0  0  0  0  0  0  0  0
    0.0770   17.9650   -3.2800 C   0  0  0  0  0  0  0  0  0  0  0  0
   -0.8030   19.1560   -1.2890 C   0  0  0  0  0  0  0  0  0  0  0  0
    2.1000   14.8710   -0.4840 C   0  0  1  0  0  0  0  0  0  0  0  0
    2.7700   15.1910    0.8870 C   0  0  0  0  0  0  0  0  0  0  0  0
    3.1030   13.9380   -1.2610 C   0  0  0  0  0  0  0  0  0  0  0  0
    2.4960   12.9860   -2.3100 C   0  0  0  0  0  0  0  0  0  0  0  0
    1.3080   12.2140   -1.7270 C   0  0  2  0  0  0  0  0  0  0  0  0
    1.8440   11.3280   -0.5510 C   0  0  0  0  0  0  0  0  0  0  0  0
    0.4936    8.9372   -1.2910 H   0  0  0  0  0  0  0  0  0  0  0  0
   -0.6417    8.8420   -2.6797 H   0  0  0  0  0  0  0  0  0  0  0  0
    0.8617    7.8589   -2.6797 H   0  0  0  0  0  0  0  0  0  0  0  0
    1.0880    9.8029   -4.1574 H   0  0  0  0  0  0  0  0  0  0  0  0
    2.7969   10.5812   -1.8018 H   0  0  0  0  0  0  0  0  0  0  0  0
    2.9703    8.9310   -2.5703 H   0  0  0  0  0  0  0  0  0  0  0  0
    3.5957    9.8503   -4.6515 H   0  0  0  0  0  0  0  0  0  0  0  0
    3.1264   11.5218   -4.1288 H   0  0  0  0  0  0  0  0  0  0  0  0
    4.7409   10.2751   -2.3828 H   0  0  0  0  0  0  0  0  0  0  0  0
    5.5320    9.6461   -5.8837 H   0  0  0  0  0  0  0  0  0  0  0  0
    5.4591   11.4202   -6.1557 H   0  0  0  0  0  0  0  0  0  0  0  0
    7.0446   10.5760   -6.1557 H   0  0  0  0  0  0  0  0  0  0  0  0
    7.4331   10.6103   -2.5301 H   0  0  0  0  0  0  0  0  0  0  0  0
    7.8935    9.6166   -3.9539 H   0  0  0  0  0  0  0  0  0  0  0  0
    8.2068   11.3854   -3.9539 H   0  0  0  0  0  0  0  0  0  0  0  0
    0.4836   11.7614   -3.6996 H   0  0  0  0  0  0  0  0  0  0  0  0
   -1.6596   11.2089   -2.7310 H   0  0  0  0  0  0  0  0  0  0  0  0
   -0.9217   10.1462   -1.5131 H   0  0  0  0  0  0  0  0  0  0  0  0
   -1.9278   12.7768   -1.0317 H   0  0  0  0  0  0  0  0  0  0  0  0
   -0.8744   11.9036    0.0781 H   0  0  0  0  0  0  0  0  0  0  0  0
   -0.9260   14.9561   -2.0993 H   0  0  0  0  0  0  0  0  0  0  0  0
    0.4700   14.4632   -3.1165 H   0  0  0  0  0  0  0  0  0  0  0  0
   -1.0329   13.4795   -3.1165 H   0  0  0  0  0  0  0  0  0  0  0  0
    0.9408   13.4099    0.6312 H   0  0  0  0  0  0  0  0  0  0  0  0
   -1.2916   14.6652    0.3478 H   0  0  0  0  0  0  0  0  0  0  0  0
    0.0177   15.2938    1.4785 H   0  0  0  0  0  0  0  0  0  0  0  0
   -1.2191   17.0981    0.0099 H   0  0  0  0  0  0  0  0  0  0  0  0
    1.8089   15.8419   -2.3450 H   0  0  0  0  0  0  0  0  0  0  0  0
    3.1891   17.5022   -0.1455 H   0  0  0  0  0  0  0  0  0  0  0  0
    3.9949   16.6378   -1.5287 H   0  0  0  0  0  0  0  0  0  0  0  0
    3.8132   19.0738   -1.9255 H   0  0  0  0  0  0  0  0  0  0  0  0
    2.8838   18.0921   -3.1248 H   0  0  0  0  0  0  0  0  0  0  0  0
    1.5495   19.9778   -2.4725 H   0  0  0  0  0  0  0  0  0  0  0  0
    2.6430   20.2160   -0.3770 H   0  0  0  0  0  0  0  0  0  0  0  0
   -0.6687   17.1574   -3.3212 H   0  0  0  0  0  0  0  0  0  0  0  0
   -0.3212   18.8577   -3.7845 H   0  0  0  0  0  0  0  0  0  0  0  0
    0.9986   17.6392   -3.7845 H   0  0  0  0  0  0  0  0  0  0  0  0
   -0.8064   19.1584   -0.1890 H   0  0  0  0  0  0  0  0  0  0  0  0
   -0.7019   20.1874   -1.6577 H   0  0  0  0  0  0  0  0  0  0  0  0
   -1.7458   18.7257   -1.6577 H   0  0  0  0  0  0  0  0  0  0  0  0
    2.1047   14.8732    1.7033 H   0  0  0  0  0  0  0  0  0  0  0  0
    3.7261   14.6523    0.9625 H   0  0  0  0  0  0  0  0  0  0  0  0
    2.9519   16.2732    0.9625 H   0  0  0  0  0  0  0  0  0  0  0  0
    3.8268   14.5851   -1.7782 H   0  0  0  0  0  0  0  0  0  0  0  0
    3.5381   13.2809   -0.4936 H   0  0  0  0  0  0  0  0  0  0  0  0
    2.1539   13.5740   -3.1744 H   0  0  0  0  0  0  0  0  0  0  0  0
    3.2672   12.2641   -2.6166 H   0  0  0  0  0  0  0  0  0  0  0  0
    1.5665   11.7866    0.4096 H   0  0  0  0  0  0  0  0  0  0  0  0
    1.4024   10.3228   -0.6185 H   0  0  0  0  0  0  0  0  0  0  0  0
    2.9393   11.2526   -0.6185 H   0  0  0  0  0  0  0  0  0  0  0  0
  1  2  1  0
  2  3  1  0
  3  4  1  0
  4  5  1  0
  5  6  1  0
  6  7  1  0
  7  8  1  0
  7  9  1  0
  2 10  1  0
 10 11  1  0
 11 12  1  0
 12 13  1  0
 13 14  1  6
 13 15  1  0
 15 16  1  0
 16 17  1  0
 17 18  2  0
 18 19  1  0
 19 20  1  0
 20 21  1  0
 21 22  1  0
 22 23  1  0
 22 24  1  0
 24 25  1  0
 24 26  1  0
 19 27  1  0
 27 28  1  1
 27 29  1  0
 29 30  1  0
 30 31  1  0
 31 32  1  1
  7  5  1  0
 31 10  1  0
 31 13  1  0
 27 15  1  0
 24 18  1  0
  1 33  1  0
  1 34  1  0
  1 35  1  0
  2 36  1  6
  3 37  1  0
  3 38  1  0
  4 39  1  0
  4 40  1  0
  5 41  1  1
  8 42  1  0
  8 43  1  0
  8 44  1  0
  9 45  1  0
  9 46  1  0
  9 47  1  0
 10 48  1  6
 11 49  1  0
 11 50  1  0
 12 51  1  0
 12 52  1  0
 14 53  1  0
 14 54  1  0
 14 55  1  0
 15 56  1  1
 16 57  1  0
 16 58  1  0
 17 59  1  0
 19 60  1  6
 20 61  1  0
 20 62  1  0
 21 63  1  0
 21 64  1  0
 22 65  1  6
 23 66  1  0
 25 67  1  0
 25 68  1  0
 25 69  1  0
 26 70  1  0
 26 71  1  0
 26 72  1  0
 28 73  1  0
 28 74  1  0
 28 75  1  0
 29 76  1  0
 29 77  1  0
 30 78  1  0
 30 79  1  0
 32 80  1  0
 32 81  1  0
 32 82  1  0
M  END
>  <meeko>  (10) 
{"is_sidechain": [false], "intermolecular_energy": 2.731, "internal_energy": -0.839}

$$$$
EPH_relaxed_0001_pdb2pqr_Repair_401_r2_0001_out
     RDKit          3D

 82 86  0  0  0  0  0  0  0  0999 V2000
    3.0160   17.5390   -1.4770 C   0  0  0  0  0  0  0  0  0  0  0  0
    1.6800   16.9210   -1.8990 C   0  0  2  0  0  0  0  0  0  0  0  0
    0.5370   17.9540   -1.9000 C   0  0  0  0  0  0  0  0  0  0  0  0
    0.8950   19.2690   -1.2010 C   0  0  0  0  0  0  0  0  0  0  0  0
   -0.3290   20.0230   -0.7780 C   0  0  2  0  0  0  0  0  0  0  0  0
   -0.4680   20.1940    0.6380 O   0  0  0  0  0  0  0  0  0  0  0  0
   -1.4740   19.3950   -0.0050 C   0  0  0  0  0  0  0  0  0  0  0  0
   -1.4490   17.9520    0.3910 C   0  0  0  0  0  0  0  0  0  0  0  0
   -2.8190   20.0490   -0.0600 C   0  0  0  0  0  0  0  0  0  0  0  0
    1.3310   15.7580   -0.9770 C   0  0  1  0  0  0  0  0  0  0  0  0
   -0.1630   15.7560   -0.5580 C   0  0  0  0  0  0  0  0  0  0  0  0
   -0.5950   14.2710   -0.4480 C   0  0  0  0  0  0  0  0  0  0  0  0
    0.7320   13.4760   -0.4800 C   0  0  1  0  0  0  0  0  0  0  0  0
    1.2820   13.5550    0.9790 C   0  0  0  0  0  0  0  0  0  0  0  0
    0.6400   11.9980   -0.9830 C   0  0  2  0  0  0  0  0  0  0  0  0
   -0.2320   11.0690   -0.1210 C   0  0  0  0  0  0  0  0  0  0  0  0
    0.4860   10.3550    0.9750 C   0  0  0  0  0  0  0  0  0  0  0  0
    1.8220   10.2320    1.0840 C   0  0  0  0  0  0  0  0  0  0  0  0
    2.7540   10.7610   -0.0140 C   0  0  1  0  0  0  0  0  0  0  0  0
    3.8220    9.6860   -0.3490 C   0  0  0  0  0  0  0  0  0  0  0  0
    4.5840    9.2140    0.8850 C   0  0  0  0  0  0  0  0  0  0  0  0
    3.6290    8.6410    1.9300 C   0  0  2  0  0  0  0  0  0  0  0  0
    3.0480    7.4390    1.4130 O   0  0  0  0  0  0  0  0  0  0  0  0
    2.5030    9.6310    2.3390 C   0  0  0  0  0  0  0  0  0  0  0  0
    3.1070   10.7930    3.1670 C   0  0  0  0  0  0  0  0  0  0  0  0
    1.5300    8.8820    3.2880 C   0  0  0  0  0  0  0  0  0  0  0  0
    2.0400   11.3370   -1.3110 C   0  0  1  0  0  0  0  0  0  0  0  0
    1.7610   10.1830   -2.3220 C   0  0  0  0  0  0  0  0  0  0  0  0
    3.0180   12.3360   -2.0360 C   0  0  0  0  0  0  0  0  0  0  0  0
    2.9770   13.8060   -1.5760 C   0  0  0  0  0  0  0  0  0  0  0  0
    1.5360   14.3250   -1.5300 C   0  0  2  0  0  0  0  0  0  0  0  0
    0.9640   14.2790   -2.9880 C   0  0  0  0  0  0  0  0  0  0  0  0
    3.0765   17.5670   -0.3790 H   0  0  0  0  0  0  0  0  0  0  0  0
    3.8427   16.9318   -1.8744 H   0  0  0  0  0  0  0  0  0  0  0  0
    3.0885   18.5621   -1.8744 H   0  0  0  0  0  0  0  0  0  0  0  0
    1.7953   16.5561   -2.9303 H   0  0  0  0  0  0  0  0  0  0  0  0
    0.2711   18.1768   -2.9439 H   0  0  0  0  0  0  0  0  0  0  0  0
   -0.2987   17.5093   -1.3398 H   0  0  0  0  0  0  0  0  0  0  0  0
    1.5016   19.0459   -0.3109 H   0  0  0  0  0  0  0  0  0  0  0  0
    1.4541   19.8944   -1.9125 H   0  0  0  0  0  0  0  0  0  0  0  0
   -0.3027   20.6264   -1.6973 H   0  0  0  0  0  0  0  0  0  0  0  0
   -1.4476   17.8728    1.4881 H   0  0  0  0  0  0  0  0  0  0  0  0
   -2.3385   17.4457   -0.0120 H   0  0  0  0  0  0  0  0  0  0  0  0
   -0.5425   17.4768   -0.0120 H   0  0  0  0  0  0  0  0  0  0  0  0
   -3.1828   20.2259    0.9629 H   0  0  0  0  0  0  0  0  0  0  0  0
   -2.7386   21.0086   -0.5917 H   0  0  0  0  0  0  0  0  0  0  0  0
   -3.5241   19.3932   -0.5917 H   0  0  0  0  0  0  0  0  0  0  0  0
    2.0418   15.9508   -0.1600 H   0  0  0  0  0  0  0  0  0  0  0  0
   -0.2848   16.2588    0.4128 H   0  0  0  0  0  0  0  0  0  0  0  0
   -0.7800   16.2933   -1.2933 H   0  0  0  0  0  0  0  0  0  0  0  0
   -1.1327   14.0916    0.4947 H   0  0  0  0  0  0  0  0  0  0  0  0
   -1.2791   13.9742   -1.2567 H   0  0  0  0  0  0  0  0  0  0  0  0
    0.4518   13.4358    1.6908 H   0  0  0  0  0  0  0  0  0  0  0  0
    2.0185   12.7534    1.1371 H   0  0  0  0  0  0  0  0  0  0  0  0
    1.7631   14.5315    1.1371 H   0  0  0  0  0  0  0  0  0  0  0  0
    0.1065   12.1064   -1.9388 H   0  0  0  0  0  0  0  0  0  0  0  0
   -1.0285   11.6762    0.3339 H   0  0  0  0  0  0  0  0  0  0  0  0
   -0.6057   10.2875   -0.7990 H   0  0  0  0  0  0  0  0  0  0  0  0
   -0.1283    9.8899    1.7601 H   0  0  0  0  0  0  0  0  0  0  0  0
    3.2417   11.6536    0.4048 H   0  0  0  0  0  0  0  0  0  0  0  0
    3.3198    8.8204   -0.8058 H   0  0  0  0  0  0  0  0  0  0  0  0
    4.5497   10.1414   -1.0368 H   0  0  0  0  0  0  0  0  0  0  0  0
    5.3024    8.4355    0.5886 H   0  0  0  0  0  0  0  0  0  0  0  0
    5.1093   10.0750    1.3240 H   0  0  0  0  0  0  0  0  0  0  0  0
    4.2157    8.4405    2.8386 H   0  0  0  0  0  0  0  0  0  0  0  0
    2.5860    7.6660    0.5890 H   0  0  0  0  0  0  0  0  0  0  0  0
    2.9943   10.5762    4.2395 H   0  0  0  0  0  0  0  0  0  0  0  0
    4.1747   10.8996    2.9247 H   0  0  0  0  0  0  0  0  0  0  0  0
    2.5808   11.7281    2.9247 H   0  0  0  0  0  0  0  0  0  0  0  0
    1.8027    9.0919    4.3328 H   0  0  0  0  0  0  0  0  0  0  0  0
    0.5010    9.2233    3.1019 H   0  0  0  0  0  0  0  0  0  0  0  0
    1.5967    7.7999    3.1019 H   0  0  0  0  0  0  0  0  0  0  0  0
    1.5374    9.2581   -1.7701 H   0  0  0  0  0  0  0  0  0  0  0  0
    0.9014   10.4495   -2.9545 H   0  0  0  0  0  0  0  0  0  0  0  0
    2.6474   10.0274   -2.9545 H   0  0  0  0  0  0  0  0  0  0  0  0
    4.0432   11.9680   -1.8828 H   0  0  0  0  0  0  0  0  0  0  0  0
    2.6860   12.3534   -3.0846 H   0  0  0  0  0  0  0  0  0  0  0  0
    3.4191   13.8814   -0.5716 H   0  0  0  0  0  0  0  0  0  0  0  0
    3.5468   14.4146   -2.2935 H   0  0  0  0  0  0  0  0  0  0  0  0
   -0.1318   14.1909   -2.9494 H   0  0  0  0  0  0  0  0  0  0  0  0
    1.2391   15.2022   -3.5191 H   0  0  0  0  0  0  0  0  0  0  0  0
    1.3831   13.4117   -3.5191 H   0  0  0  0  0  0  0  0  0  0  0  0
  1  2  1  0
  2  3  1  0
  3  4  1  0
  4  5  1  0
  5  6  1  0
  6  7  1  0
  7  8  1  0
  7  9  1  0
  2 10  1  0
 10 11  1  0
 11 12  1  0
 12 13  1  0
 13 14  1  1
 13 15  1  0
 15 16  1  0
 16 17  1  0
 17 18  2  0
 18 19  1  0
 19 20  1  0
 20 21  1  0
 21 22  1  0
 22 23  1  0
 22 24  1  0
 24 25  1  0
 24 26  1  0
 19 27  1  0
 27 28  1  6
 27 29  1  0
 29 30  1  0
 30 31  1  0
 31 32  1  6
  7  5  1  0
 31 10  1  0
 31 13  1  0
 27 15  1  0
 24 18  1  0
  1 33  1  0
  1 34  1  0
  1 35  1  0
  2 36  1  6
  3 37  1  0
  3 38  1  0
  4 39  1  0
  4 40  1  0
  5 41  1  6
  8 42  1  0
  8 43  1  0
  8 44  1  0
  9 45  1  0
  9 46  1  0
  9 47  1  0
 10 48  1  1
 11 49  1  0
 11 50  1  0
 12 51  1  0
 12 52  1  0
 14 53  1  0
 14 54  1  0
 14 55  1  0
 15 56  1  6
 16 57  1  0
 16 58  1  0
 17 59  1  0
 19 60  1  1
 20 61  1  0
 20 62  1  0
 21 63  1  0
 21 64  1  0
 22 65  1  1
 23 66  1  0
 25 67  1  0
 25 68  1  0
 25 69  1  0
 26 70  1  0
 26 71  1  0
 26 72  1  0
 28 73  1  0
 28 74  1  0
 28 75  1  0
 29 76  1  0
 29 77  1  0
 30 78  1  0
 30 79  1  0
 32 80  1  0
 32 81  1  0
 32 82  1  0
M  END
>  <meeko>  (11) 
{"is_sidechain": [false], "intermolecular_energy": 2.731, "internal_energy": -0.839}

$$$$
EPH_relaxed_0001_pdb2pqr_Repair_401_r2_0001_out
     RDKit          3D

 82 86  0  0  0  0  0  0  0  0999 V2000
    1.2260   13.7670   -5.2820 C   0  0  0  0  0  0  0  0  0  0  0  0
    0.4090   14.4270   -4.1670 C   0  0  2  0  0  0  0  0  0  0  0  0
    0.4280   15.9650   -4.2660 C   0  0  0  0  0  0  0  0  0  0  0  0
    1.4960   16.6250   -3.3880 C   0  0  0  0  0  0  0  0  0  0  0  0
    0.9220   17.7310   -2.5550 C   0  0  2  0  0  0  0  0  0  0  0  0
    1.5780   18.9960   -2.7070 O   0  0  0  0  0  0  0  0  0  0  0  0
    1.6690   18.3880   -1.4090 C   0  0  0  0  0  0  0  0  0  0  0  0
    3.0530   17.9600   -1.0320 C   0  0  0  0  0  0  0  0  0  0  0  0
    0.8790   19.0980   -0.3540 C   0  0  0  0  0  0  0  0  0  0  0  0
    0.9340   13.9850   -2.8070 C   0  0  1  0  0  0  0  0  0  0  0  0
    0.9220   15.1310   -1.7610 C   0  0  0  0  0  0  0  0  0  0  0  0
    0.5940   14.4840   -0.3910 C   0  0  0  0  0  0  0  0  0  0  0  0
    0.7550   12.9640   -0.6290 C   0  0  1  0  0  0  0  0  0  0  0  0
    2.2910   12.7030   -0.5270 C   0  0  0  0  0  0  0  0  0  0  0  0
   -0.0540   12.0250    0.3230 C   0  0  2  0  0  0  0  0  0  0  0  0
    0.3210   12.1250    1.8120 C   0  0  0  0  0  0  0  0  0  0  0  0
    1.3950   11.1900    2.2630 C   0  0  0  0  0  0  0  0  0  0  0  0
    1.8330   10.1150    1.5810 C   0  0  0  0  0  0  0  0  0  0  0  0
    1.1670    9.6910    0.2660 C   0  0  1  0  0  0  0  0  0  0  0  0
    0.9140    8.1610    0.2830 C   0  0  0  0  0  0  0  0  0  0  0  0
    2.1790    7.3620    0.5800 C   0  0  0  0  0  0  0  0  0  0  0  0
    2.7800    7.7710    1.9230 C   0  0  2  0  0  0  0  0  0  0  0  0
    1.8830    7.3790    2.9670 O   0  0  0  0  0  0  0  0  0  0  0  0
    3.0690    9.2950    2.0260 C   0  0  0  0  0  0  0  0  0  0  0  0
    4.2550    9.6630    1.1020 C   0  0  0  0  0  0  0  0  0  0  0  0
    3.5380    9.5940    3.4750 C   0  0  0  0  0  0  0  0  0  0  0  0
   -0.1230   10.5190   -0.1560 C   0  0  1  0  0  0  0  0  0  0  0  0
   -1.3920    9.8990    0.5050 C   0  0  0  0  0  0  0  0  0  0  0  0
   -0.3270   10.3950   -1.7120 C   0  0  0  0  0  0  0  0  0  0  0  0
    0.4040   11.4250   -2.5930 C   0  0  0  0  0  0  0  0  0  0  0  0
    0.1670   12.8500   -2.0830 C   0  0  2  0  0  0  0  0  0  0  0  0
   -1.3670   13.1490   -2.1950 C   0  0  0  0  0  0  0  0  0  0  0  0
    2.0088   13.1346   -4.8378 H   0  0  0  0  0  0  0  0  0  0  0  0
    0.5636   13.1476   -5.9045 H   0  0  0  0  0  0  0  0  0  0  0  0
    1.6923   14.5449   -5.9045 H   0  0  0  0  0  0  0  0  0  0  0  0
   -0.6353   14.1023   -4.2850 H   0  0  0  0  0  0  0  0  0  0  0  0
    0.6184   16.2434   -5.3130 H   0  0  0  0  0  0  0  0  0  0  0  0
   -0.5487   16.3225   -3.9079 H   0  0  0  0  0  0  0  0  0  0  0  0
    1.9295   15.8648   -2.7216 H   0  0  0  0  0  0  0  0  0  0  0  0
    2.2644   17.0552   -4.0472 H   0  0  0  0  0  0  0  0  0  0  0  0
   -0.0852   17.2944   -2.6255 H   0  0  0  0  0  0  0  0  0  0  0  0
    3.1425   17.9323    0.0640 H   0  0  0  0  0  0  0  0  0  0  0  0
    3.2514   16.9585   -1.4415 H   0  0  0  0  0  0  0  0  0  0  0  0
    3.7821   18.6746   -1.4415 H   0  0  0  0  0  0  0  0  0  0  0  0
    1.2291   18.7834    0.6402 H   0  0  0  0  0  0  0  0  0  0  0  0
    1.0141   20.1842   -0.4635 H   0  0  0  0  0  0  0  0  0  0  0  0
   -0.1866   18.8482   -0.4635 H   0  0  0  0  0  0  0  0  0  0  0  0
    1.9347   13.6352   -3.1006 H   0  0  0  0  0  0  0  0  0  0  0  0
    1.9070   15.6193   -1.7230 H   0  0  0  0  0  0  0  0  0  0  0  0
    0.1778   15.8972   -2.0238 H   0  0  0  0  0  0  0  0  0  0  0  0
    1.2956   14.8327    0.3811 H   0  0  0  0  0  0  0  0  0  0  0  0
   -0.4136   14.7463   -0.0362 H   0  0  0  0  0  0  0  0  0  0  0  0
    2.5849   12.6531    0.5318 H   0  0  0  0  0  0  0  0  0  0  0  0
    2.5347   11.7506   -1.0205 H   0  0  0  0  0  0  0  0  0  0  0  0
    2.8356   13.5215   -1.0205 H   0  0  0  0  0  0  0  0  0  0  0  0
   -1.0731   12.4314    0.2439 H   0  0  0  0  0  0  0  0  0  0  0  0
    0.6601   13.1527    2.0089 H   0  0  0  0  0  0  0  0  0  0  0  0
   -0.5825   11.8444    2.3732 H   0  0  0  0  0  0  0  0  0  0  0  0
    1.8680   11.3972    3.2343 H   0  0  0  0  0  0  0  0  0  0  0  0
    1.8818    9.9415   -0.5317 H   0  0  0  0  0  0  0  0  0  0  0  0
    0.1651    7.9360    1.0567 H   0  0  0  0  0  0  0  0  0  0  0  0
    0.5624    7.8697   -0.7178 H   0  0  0  0  0  0  0  0  0  0  0  0
    1.9300    6.2909    0.6083 H   0  0  0  0  0  0  0  0  0  0  0  0
    2.9161    7.5647   -0.2109 H   0  0  0  0  0  0  0  0  0  0  0  0
    3.7499    7.2612    2.0203 H   0  0  0  0  0  0  0  0  0  0  0  0
    1.7680    8.1430    3.5580 H   0  0  0  0  0  0  0  0  0  0  0  0
    5.1272    9.9336    1.7151 H   0  0  0  0  0  0  0  0  0  0  0  0
    4.5065    8.8006    0.4671 H   0  0  0  0  0  0  0  0  0  0  0  0
    3.9741   10.5162    0.4671 H   0  0  0  0  0  0  0  0  0  0  0  0
    2.8324    9.1442    4.1890 H   0  0  0  0  0  0  0  0  0  0  0  0
    4.5398    9.1675    3.6315 H   0  0  0  0  0  0  0  0  0  0  0  0
    3.5742   10.6822    3.6315 H   0  0  0  0  0  0  0  0  0  0  0  0
   -1.2954    9.9462    1.5997 H   0  0  0  0  0  0  0  0  0  0  0  0
   -2.2822   10.4637    0.1908 H   0  0  0  0  0  0  0  0  0  0  0  0
   -1.4936    8.8497    0.1908 H   0  0  0  0  0  0  0  0  0  0  0  0
    0.0174    9.3949   -2.0140 H   0  0  0  0  0  0  0  0  0  0  0  0
   -1.3980   10.5836   -1.8775 H   0  0  0  0  0  0  0  0  0  0  0  0
    1.4830   11.2116   -2.5760 H   0  0  0  0  0  0  0  0  0  0  0  0
    0.0125   11.3500   -3.6182 H   0  0  0  0  0  0  0  0  0  0  0  0
   -1.7987   13.2332   -1.1868 H   0  0  0  0  0  0  0  0  0  0  0  0
   -1.5178   14.0934   -2.7384 H   0  0  0  0  0  0  0  0  0  0  0  0
   -1.8614   12.3303   -2.7384 H   0  0  0  0  0  0  0  0  0  0  0  0
  1  2  1  0
  2  3  1  0
  3  4  1  0
  4  5  1  0
  5  6  1  0
  6  7  1  0
  7  8  1  0
  7  9  1  0
  2 10  1  0
 10 11  1  0
 11 12  1  0
 12 13  1  0
 13 14  1  6
 13 15  1  0
 15 16  1  0
 16 17  1  0
 17 18  2  0
 18 19  1  0
 19 20  1  0
 20 21  1  0
 21 22  1  0
 22 23  1  0
 22 24  1  0
 24 25  1  0
 24 26  1  0
 19 27  1  0
 27 28  1  1
 27 29  1  0
 29 30  1  0
 30 31  1  0
 31 32  1  1
  7  5  1  0
 31 10  1  0
 31 13  1  0
 27 15  1  0
 24 18  1  0
  1 33  1  0
  1 34  1  0
  1 35  1  0
  2 36  1  6
  3 37  1  0
  3 38  1  0
  4 39  1  0
  4 40  1  0
  5 41  1  1
  8 42  1  0
  8 43  1  0
  8 44  1  0
  9 45  1  0
  9 46  1  0
  9 47  1  0
 10 48  1  6
 11 49  1  0
 11 50  1  0
 12 51  1  0
 12 52  1  0
 14 53  1  0
 14 54  1  0
 14 55  1  0
 15 56  1  1
 16 57  1  0
 16 58  1  0
 17 59  1  0
 19 60  1  6
 20 61  1  0
 20 62  1  0
 21 63  1  0
 21 64  1  0
 22 65  1  1
 23 66  1  0
 25 67  1  0
 25 68  1  0
 25 69  1  0
 26 70  1  0
 26 71  1  0
 26 72  1  0
 28 73  1  0
 28 74  1  0
 28 75  1  0
 29 76  1  0
 29 77  1  0
 30 78  1  0
 30 79  1  0
 32 80  1  0
 32 81  1  0
 32 82  1  0
M  END
>  <meeko>  (12) 
{"is_sidechain": [false], "intermolecular_energy": 2.731, "internal_energy": -0.839}

$$$$
EPH_relaxed_0001_pdb2pqr_Repair_401_r2_0001_out
     RDKit          3D

 82 86  0  0  0  0  0  0  0  0999 V2000
   -0.2800   15.1430   -4.4100 C   0  0  0  0  0  0  0  0  0  0  0  0
    1.0260   14.3450   -4.4450 C   0  0  2  0  0  0  0  0  0  0  0  0
    0.9160   13.0880   -5.3310 C   0  0  0  0  0  0  0  0  0  0  0  0
    1.7730   11.9150   -4.8450 C   0  0  0  0  0  0  0  0  0  0  0  0
    3.2030   12.0610   -5.2700 C   0  0  2  0  0  0  0  0  0  0  0  0
    3.8190   10.8480   -5.7230 O   0  0  0  0  0  0  0  0  0  0  0  0
    4.3650   11.4280   -4.5270 C   0  0  0  0  0  0  0  0  0  0  0  0
    4.1480   10.6030   -3.2970 C   0  0  0  0  0  0  0  0  0  0  0  0
    5.7320   12.0100   -4.7080 C   0  0  0  0  0  0  0  0  0  0  0  0
    1.4320   13.9500   -3.0290 C   0  0  1  0  0  0  0  0  0  0  0  0
    1.3960   15.1470   -2.0420 C   0  0  0  0  0  0  0  0  0  0  0  0
    0.9410   14.5840   -0.6720 C   0  0  0  0  0  0  0  0  0  0  0  0
    1.0500   13.0480   -0.8250 C   0  0  1  0  0  0  0  0  0  0  0  0
    2.5610   12.7290   -0.5970 C   0  0  0  0  0  0  0  0  0  0  0  0
    0.1320   12.1930    0.1070 C   0  0  2  0  0  0  0  0  0  0  0  0
    0.4040   12.3520    1.6140 C   0  0  0  0  0  0  0  0  0  0  0  0
    1.3980   11.3970    2.1860 C   0  0  0  0  0  0  0  0  0  0  0  0
    1.8350   10.2720    1.5900 C   0  0  0  0  0  0  0  0  0  0  0  0
    1.2470    9.8110    0.2500 C   0  0  1  0  0  0  0  0  0  0  0  0
    0.9240    8.2950    0.3210 C   0  0  0  0  0  0  0  0  0  0  0  0
    2.1270    7.4600    0.7480 C   0  0  0  0  0  0  0  0  0  0  0  0
    2.6470    7.9100    2.1110 C   0  0  2  0  0  0  0  0  0  0  0  0
    1.6610    7.6090    3.1030 O   0  0  0  0  0  0  0  0  0  0  0  0
    2.9970    9.4240    2.1640 C   0  0  0  0  0  0  0  0  0  0  0  0
    4.2630    9.6950    1.3140 C   0  0  0  0  0  0  0  0  0  0  0  0
    3.3740    9.7760    3.6280 C   0  0  0  0  0  0  0  0  0  0  0  0
    0.0300   10.6690   -0.3040 C   0  0  1  0  0  0  0  0  0  0  0  0
   -1.3110   10.1370    0.2890 C   0  0  0  0  0  0  0  0  0  0  0  0
   -0.0670   10.4760   -1.8640 C   0  0  0  0  0  0  0  0  0  0  0  0
    0.7720   11.4290   -2.7360 C   0  0  0  0  0  0  0  0  0  0  0  0
    0.5640   12.8860   -2.3120 C   0  0  2  0  0  0  0  0  0  0  0  0
   -0.9430   13.2430   -2.5510 C   0  0  0  0  0  0  0  0  0  0  0  0
   -0.5726   15.3218   -3.3648 H   0  0  0  0  0  0  0  0  0  0  0  0
   -0.1346   16.1067   -4.9200 H   0  0  0  0  0  0  0  0  0  0  0  0
   -1.0712   14.5739   -4.9200 H   0  0  0  0  0  0  0  0  0  0  0  0
    1.7974   14.9931   -4.8864 H   0  0  0  0  0  0  0  0  0  0  0  0
   -0.1357   12.7661   -5.3480 H   0  0  0  0  0  0  0  0  0  0  0  0
    1.2864   13.3648   -6.3291 H   0  0  0  0  0  0  0  0  0  0  0  0
    1.7299   11.8728   -3.7467 H   0  0  0  0  0  0  0  0  0  0  0  0
    1.3750   10.9913   -5.2904 H   0  0  0  0  0  0  0  0  0  0  0  0
    3.0206   13.0893   -5.6156 H   0  0  0  0  0  0  0  0  0  0  0  0
    4.3116   11.2251   -2.4047 H   0  0  0  0  0  0  0  0  0  0  0  0
    3.1179   10.2173   -3.2912 H   0  0  0  0  0  0  0  0  0  0  0  0
    4.8551    9.7604   -3.2912 H   0  0  0  0  0  0  0  0  0  0  0  0
    6.1823   12.2017   -3.7229 H   0  0  0  0  0  0  0  0  0  0  0  0
    6.3610   11.3016   -5.2671 H   0  0  0  0  0  0  0  0  0  0  0  0
    5.6574   12.9544   -5.2671 H   0  0  0  0  0  0  0  0  0  0  0  0
    2.4347   13.5447   -3.2301 H   0  0  0  0  0  0  0  0  0  0  0  0
    2.3966   15.5953   -1.9538 H   0  0  0  0  0  0  0  0  0  0  0  0
    0.7082   15.9294   -2.3953 H   0  0  0  0  0  0  0  0  0  0  0  0
    1.5999   14.9417    0.1329 H   0  0  0  0  0  0  0  0  0  0  0  0
   -0.0769   14.9054   -0.4064 H   0  0  0  0  0  0  0  0  0  0  0  0
    2.7677   12.6854    0.4825 H   0  0  0  0  0  0  0  0  0  0  0  0
    2.8045   11.7597   -1.0564 H   0  0  0  0  0  0  0  0  0  0  0  0
    3.1755   13.5172   -1.0564 H   0  0  0  0  0  0  0  0  0  0  0  0
   -0.8594   12.6367   -0.0668 H   0  0  0  0  0  0  0  0  0  0  0  0
    0.7751   13.3730    1.7867 H   0  0  0  0  0  0  0  0  0  0  0  0
   -0.5493   12.1387    2.1197 H   0  0  0  0  0  0  0  0  0  0  0  0
    1.8084   11.6325    3.1790 H   0  0  0  0  0  0  0  0  0  0  0  0
    2.0277    9.9913   -0.5037 H   0  0  0  0  0  0  0  0  0  0  0  0
    0.1123    8.1411    1.0472 H   0  0  0  0  0  0  0  0  0  0  0  0
    0.6320    7.9682   -0.6879 H   0  0  0  0  0  0  0  0  0  0  0  0
    1.8287    6.4029    0.8075 H   0  0  0  0  0  0  0  0  0  0  0  0
    2.9277    7.5923    0.0055 H   0  0  0  0  0  0  0  0  0  0  0  0
    3.5829    7.3650    2.3033 H   0  0  0  0  0  0  0  0  0  0  0  0
    1.4990    8.4210    3.6130 H   0  0  0  0  0  0  0  0  0  0  0  0
    5.1193    9.8783    1.9797 H   0  0  0  0  0  0  0  0  0  0  0  0
    4.4724    8.8213    0.6793 H   0  0  0  0  0  0  0  0  0  0  0  0
    4.0964   10.5778    0.6793 H   0  0  0  0  0  0  0  0  0  0  0  0
    2.7481    9.1916    4.3184 H   0  0  0  0  0  0  0  0  0  0  0  0
    4.4335    9.5364    3.8015 H   0  0  0  0  0  0  0  0  0  0  0  0
    3.2076   10.8494    3.8015 H   0  0  0  0  0  0  0  0  0  0  0  0
   -1.2597   10.1573    1.3876 H   0  0  0  0  0  0  0  0  0  0  0  0
   -2.1407   10.7741   -0.0512 H   0  0  0  0  0  0  0  0  0  0  0  0
   -1.4783    9.1044   -0.0512 H   0  0  0  0  0  0  0  0  0  0  0  0
    0.2521    9.4484   -2.0925 H   0  0  0  0  0  0  0  0  0  0  0  0
   -1.1135   10.7012   -2.1170 H   0  0  0  0  0  0  0  0  0  0  0  0
    1.8361   11.1715   -2.6292 H   0  0  0  0  0  0  0  0  0  0  0  0
    0.4525   11.3193   -3.7829 H   0  0  0  0  0  0  0  0  0  0  0  0
   -1.4495   13.3630   -1.5820 H   0  0  0  0  0  0  0  0  0  0  0  0
   -1.0116   14.1823   -3.1194 H   0  0  0  0  0  0  0  0  0  0  0  0
   -1.4257   12.4343   -3.1194 H   0  0  0  0  0  0  0  0  0  0  0  0
  1  2  1  0
  2  3  1  0
  3  4  1  0
  4  5  1  0
  5  6  1  0
  6  7  1  0
  7  8  1  0
  7  9  1  0
  2 10  1  0
 10 11  1  0
 11 12  1  0
 12 13  1  0
 13 14  1  6
 13 15  1  0
 15 16  1  0
 16 17  1  0
 17 18  2  0
 18 19  1  0
 19 20  1  0
 20 21  1  0
 21 22  1  0
 22 23  1  0
 22 24  1  0
 24 25  1  0
 24 26  1  0
 19 27  1  0
 27 28  1  1
 27 29  1  0
 29 30  1  0
 30 31  1  0
 31 32  1  1
  7  5  1  0
 31 10  1  0
 31 13  1  0
 27 15  1  0
 24 18  1  0
  1 33  1  0
  1 34  1  0
  1 35  1  0
  2 36  1  6
  3 37  1  0
  3 38  1  0
  4 39  1  0
  4 40  1  0
  5 41  1  6
  8 42  1  0
  8 43  1  0
  8 44  1  0
  9 45  1  0
  9 46  1  0
  9 47  1  0
 10 48  1  6
 11 49  1  0
 11 50  1  0
 12 51  1  0
 12 52  1  0
 14 53  1  0
 14 54  1  0
 14 55  1  0
 15 56  1  1
 16 57  1  0
 16 58  1  0
 17 59  1  0
 19 60  1  6
 20 61  1  0
 20 62  1  0
 21 63  1  0
 21 64  1  0
 22 65  1  1
 23 66  1  0
 25 67  1  0
 25 68  1  0
 25 69  1  0
 26 70  1  0
 26 71  1  0
 26 72  1  0
 28 73  1  0
 28 74  1  0
 28 75  1  0
 29 76  1  0
 29 77  1  0
 30 78  1  0
 30 79  1  0
 32 80  1  0
 32 81  1  0
 32 82  1  0
M  END
>  <meeko>  (13) 
{"is_sidechain": [false], "intermolecular_energy": 2.731, "internal_energy": -0.839}

$$$$
EPH_relaxed_0001_pdb2pqr_Repair_401_r2_0001_out
     RDKit          3D

 82 86  0  0  0  0  0  0  0  0999 V2000
    1.5670    8.8500    0.4950 C   0  0  0  0  0  0  0  0  0  0  0  0
    3.0080    9.3410    0.3310 C   0  0  2  0  0  0  0  0  0  0  0  0
    3.6870    9.6130    1.6890 C   0  0  0  0  0  0  0  0  0  0  0  0
    2.7270    9.5480    2.8810 C   0  0  0  0  0  0  0  0  0  0  0  0
    1.9590   10.8250    3.0430 C   0  0  2  0  0  0  0  0  0  0  0  0
    2.7600   11.9690    3.3670 O   0  0  0  0  0  0  0  0  0  0  0  0
    1.8160   11.5520    4.3670 C   0  0  0  0  0  0  0  0  0  0  0  0
    2.4480   11.0270    5.6180 C   0  0  0  0  0  0  0  0  0  0  0  0
    0.6690   12.4970    4.5440 C   0  0  0  0  0  0  0  0  0  0  0  0
    3.0330   10.6020   -0.5250 C   0  0  1  0  0  0  0  0  0  0  0  0
    3.4590   10.3200   -1.9900 C   0  0  0  0  0  0  0  0  0  0  0  0
    2.6540   11.2970   -2.8860 C   0  0  0  0  0  0  0  0  0  0  0  0
    2.0490   12.3220   -1.8990 C   0  0  1  0  0  0  0  0  0  0  0  0
    3.2020   13.3350   -1.6140 C   0  0  0  0  0  0  0  0  0  0  0  0
    0.7470   13.0480   -2.3690 C   0  0  2  0  0  0  0  0  0  0  0  0
    0.9030   13.9190   -3.6280 C   0  0  0  0  0  0  0  0  0  0  0  0
    1.2710   15.3440   -3.3760 C   0  0  0  0  0  0  0  0  0  0  0  0
    1.1910   15.9740   -2.1900 C   0  0  0  0  0  0  0  0  0  0  0  0
    0.5970   15.2710   -0.9630 C   0  0  1  0  0  0  0  0  0  0  0  0
   -0.4020   16.2220   -0.2530 C   0  0  0  0  0  0  0  0  0  0  0  0
    0.2200   17.5720    0.0920 C   0  0  0  0  0  0  0  0  0  0  0  0
    0.7460   18.2670   -1.1620 C   0  0  2  0  0  0  0  0  0  0  0  0
   -0.3630   18.6120   -1.9970 O   0  0  0  0  0  0  0  0  0  0  0  0
    1.7550   17.3990   -1.9650 C   0  0  0  0  0  0  0  0  0  0  0  0
    3.0810   17.2770   -1.1750 C   0  0  0  0  0  0  0  0  0  0  0  0
    2.0990   18.1570   -3.2760 C   0  0  0  0  0  0  0  0  0  0  0  0
   -0.0130   13.8260   -1.2190 C   0  0  1  0  0  0  0  0  0  0  0  0
   -1.5000   13.9500   -1.6720 C   0  0  0  0  0  0  0  0  0  0  0  0
   -0.0270   13.0260    0.1370 C   0  0  0  0  0  0  0  0  0  0  0  0
    1.2460   12.2320    0.4880 C   0  0  0  0  0  0  0  0  0  0  0  0
    1.7000   11.3720   -0.6960 C   0  0  2  0  0  0  0  0  0  0  0  0
    0.5680   10.3290   -0.9910 C   0  0  0  0  0  0  0  0  0  0  0  0
    1.3271    8.7682    1.5654 H   0  0  0  0  0  0  0  0  0  0  0  0
    0.8797    9.5647    0.0187 H   0  0  0  0  0  0  0  0  0  0  0  0
    1.4590    7.8644    0.0187 H   0  0  0  0  0  0  0  0  0  0  0  0
    3.5753    8.5414   -0.1677 H   0  0  0  0  0  0  0  0  0  0  0  0
    4.4776    8.8630    1.8385 H   0  0  0  0  0  0  0  0  0  0  0  0
    4.0834   10.6384    1.6508 H   0  0  0  0  0  0  0  0  0  0  0  0
    2.0173    8.7226    2.7229 H   0  0  0  0  0  0  0  0  0  0  0  0
    3.3215    9.3868    3.7924 H   0  0  0  0  0  0  0  0  0  0  0  0
    1.2204   10.5035    2.2940 H   0  0  0  0  0  0  0  0  0  0  0  0
    1.9360   11.4523    6.4938 H   0  0  0  0  0  0  0  0  0  0  0  0
    2.3623    9.9306    5.6398 H   0  0  0  0  0  0  0  0  0  0  0  0
    3.5101   11.3123    5.6398 H   0  0  0  0  0  0  0  0  0  0  0  0
    0.4827   12.6505    5.6172 H   0  0  0  0  0  0  0  0  0  0  0  0
    0.9118   13.4607    4.0725 H   0  0  0  0  0  0  0  0  0  0  0  0
   -0.2304   12.0743    4.0725 H   0  0  0  0  0  0  0  0  0  0  0  0
    3.7443   11.2063    0.0571 H   0  0  0  0  0  0  0  0  0  0  0  0
    4.5380   10.4964   -2.1114 H   0  0  0  0  0  0  0  0  0  0  0  0
    3.2576    9.2743   -2.2656 H   0  0  0  0  0  0  0  0  0  0  0  0
    3.3163   11.7972   -3.6080 H   0  0  0  0  0  0  0  0  0  0  0  0
    1.8828   10.7817   -3.4774 H   0  0  0  0  0  0  0  0  0  0  0  0
    3.3306   13.4480   -0.5274 H   0  0  0  0  0  0  0  0  0  0  0  0
    4.1367   12.9607   -2.0569 H   0  0  0  0  0  0  0  0  0  0  0  0
    2.9512   14.3102   -2.0569 H   0  0  0  0  0  0  0  0  0  0  0  0
    0.1029   12.2070   -2.6655 H   0  0  0  0  0  0  0  0  0  0  0  0
    1.6874   13.4713   -4.2560 H   0  0  0  0  0  0  0  0  0  0  0  0
   -0.0866   13.9405   -4.1078 H   0  0  0  0  0  0  0  0  0  0  0  0
    1.6386   15.9281   -4.2326 H   0  0  0  0  0  0  0  0  0  0  0  0
    1.4453   15.0563   -0.2964 H   0  0  0  0  0  0  0  0  0  0  0  0
   -1.2624   16.3896   -0.9176 H   0  0  0  0  0  0  0  0  0  0  0  0
   -0.7060   15.7436    0.6897 H   0  0  0  0  0  0  0  0  0  0  0  0
   -0.5422   18.2094    0.5640 H   0  0  0  0  0  0  0  0  0  0  0  0
    1.0618   17.4051    0.7802 H   0  0  0  0  0  0  0  0  0  0  0  0
    1.2929   19.1645   -0.8375 H   0  0  0  0  0  0  0  0  0  0  0  0
   -0.5710   19.5480   -1.8380 H   0  0  0  0  0  0  0  0  0  0  0  0
    2.8681   17.2966   -0.0960 H   0  0  0  0  0  0  0  0  0  0  0  0
    3.5762   16.3295   -1.4339 H   0  0  0  0  0  0  0  0  0  0  0  0
    3.7408   18.1182   -1.4339 H   0  0  0  0  0  0  0  0  0  0  0  0
    2.5420   19.1332   -3.0296 H   0  0  0  0  0  0  0  0  0  0  0  0
    2.8172   17.5662   -3.8635 H   0  0  0  0  0  0  0  0  0  0  0  0
    1.1815   18.3085   -3.8635 H   0  0  0  0  0  0  0  0  0  0  0  0
   -2.1499   14.0042   -0.7861 H   0  0  0  0  0  0  0  0  0  0  0  0
   -1.6249   14.8617   -2.2747 H   0  0  0  0  0  0  0  0  0  0  0  0
   -1.7742   13.0716   -2.2747 H   0  0  0  0  0  0  0  0  0  0  0  0
   -0.2029   13.7483    0.9478 H   0  0  0  0  0  0  0  0  0  0  0  0
   -0.8150   12.2681    0.0161 H   0  0  0  0  0  0  0  0  0  0  0  0
    2.0490   12.9368    0.7496 H   0  0  0  0  0  0  0  0  0  0  0  0
    1.0231   11.5696    1.3375 H   0  0  0  0  0  0  0  0  0  0  0  0
    0.1596    9.9527   -0.0415 H   0  0  0  0  0  0  0  0  0  0  0  0
   -0.2336   10.8116   -1.5693 H   0  0  0  0  0  0  0  0  0  0  0  0
    0.9835    9.4906   -1.5693 H   0  0  0  0  0  0  0  0  0  0  0  0
  1  2  1  0
  2  3  1  0
  3  4  1  0
  4  5  1  0
  5  6  1  0
  6  7  1  0
  7  8  1  0
  7  9  1  0
  2 10  1  0
 10 11  1  0
 11 12  1  0
 12 13  1  0
 13 14  1  1
 13 15  1  0
 15 16  1  0
 16 17  1  0
 17 18  2  0
 18 19  1  0
 19 20  1  0
 20 21  1  0
 21 22  1  0
 22 23  1  0
 22 24  1  0
 24 25  1  0
 24 26  1  0
 19 27  1  0
 27 28  1  6
 27 29  1  0
 29 30  1  0
 30 31  1  0
 31 32  1  6
  7  5  1  0
 31 10  1  0
 31 13  1  0
 27 15  1  0
 24 18  1  0
  1 33  1  0
  1 34  1  0
  1 35  1  0
  2 36  1  6
  3 37  1  0
  3 38  1  0
  4 39  1  0
  4 40  1  0
  5 41  1  6
  8 42  1  0
  8 43  1  0
  8 44  1  0
  9 45  1  0
  9 46  1  0
  9 47  1  0
 10 48  1  1
 11 49  1  0
 11 50  1  0
 12 51  1  0
 12 52  1  0
 14 53  1  0
 14 54  1  0
 14 55  1  0
 15 56  1  6
 16 57  1  0
 16 58  1  0
 17 59  1  0
 19 60  1  1
 20 61  1  0
 20 62  1  0
 21 63  1  0
 21 64  1  0
 22 65  1  1
 23 66  1  0
 25 67  1  0
 25 68  1  0
 25 69  1  0
 26 70  1  0
 26 71  1  0
 26 72  1  0
 28 73  1  0
 28 74  1  0
 28 75  1  0
 29 76  1  0
 29 77  1  0
 30 78  1  0
 30 79  1  0
 32 80  1  0
 32 81  1  0
 32 82  1  0
M  END
>  <meeko>  (14) 
{"is_sidechain": [false], "intermolecular_energy": 2.731, "internal_energy": -0.839}

$$$$
EPH_relaxed_0001_pdb2pqr_Repair_401_r2_0001_out
     RDKit          3D

 82 86  0  0  0  0  0  0  0  0999 V2000
    0.7890   13.3090   -5.8850 C   0  0  0  0  0  0  0  0  0  0  0  0
    1.9400   13.0540   -4.9080 C   0  0  2  0  0  0  0  0  0  0  0  0
    2.6460   11.7110   -5.1810 C   0  0  0  0  0  0  0  0  0  0  0  0
    4.0420   11.8630   -5.7910 C   0  0  0  0  0  0  0  0  0  0  0  0
    5.0020   10.8520   -5.2390 C   0  0  2  0  0  0  0  0  0  0  0  0
    4.7380   10.4540   -3.8870 O   0  0  0  0  0  0  0  0  0  0  0  0
    5.9740   11.1510   -4.1130 C   0  0  0  0  0  0  0  0  0  0  0  0
    6.0360   12.5020   -3.4730 C   0  0  0  0  0  0  0  0  0  0  0  0
    7.1890   10.2870   -3.9690 C   0  0  0  0  0  0  0  0  0  0  0  0
    1.4220   13.0880   -3.4750 C   0  0  1  0  0  0  0  0  0  0  0  0
   -0.0440   13.5870   -3.3810 C   0  0  0  0  0  0  0  0  0  0  0  0
   -0.7120   12.8010   -2.2230 C   0  0  0  0  0  0  0  0  0  0  0  0
    0.4660   12.1270   -1.4800 C   0  0  1  0  0  0  0  0  0  0  0  0
    1.0480   13.2420   -0.5560 C   0  0  0  0  0  0  0  0  0  0  0  0
    0.1230   10.8310   -0.6760 C   0  0  2  0  0  0  0  0  0  0  0  0
   -0.8740   11.0240    0.4800 C   0  0  0  0  0  0  0  0  0  0  0  0
   -0.2610   11.3460    1.8030 C   0  0  0  0  0  0  0  0  0  0  0  0
    1.0380   11.1970    2.1210 C   0  0  0  0  0  0  0  0  0  0  0  0
    2.0240   10.5650    1.1290 C   0  0  1  0  0  0  0  0  0  0  0  0
    2.8940    9.5120    1.8650 C   0  0  0  0  0  0  0  0  0  0  0  0
    3.5910   10.0850    3.0950 C   0  0  0  0  0  0  0  0  0  0  0  0
    2.5740   10.6520    4.0830 C   0  0  2  0  0  0  0  0  0  0  0  0
    1.7950    9.5740    4.6110 O   0  0  0  0  0  0  0  0  0  0  0  0
    1.6340   11.7160    3.4520 C   0  0  0  0  0  0  0  0  0  0  0  0
    2.4360   13.0080    3.1550 C   0  0  0  0  0  0  0  0  0  0  0  0
    0.5690   12.1020    4.5140 C   0  0  0  0  0  0  0  0  0  0  0  0
    1.3900   10.0010   -0.2150 C   0  0  1  0  0  0  0  0  0  0  0  0
    0.9070    8.5340   -0.0010 C   0  0  0  0  0  0  0  0  0  0  0  0
    2.5050    9.9440   -1.3250 C   0  0  0  0  0  0  0  0  0  0  0  0
    2.7130   11.2180   -2.1660 C   0  0  0  0  0  0  0  0  0  0  0  0
    1.3790   11.7460   -2.7020 C   0  0  2  0  0  0  0  0  0  0  0  0
    0.7800   10.6540   -3.6530 C   0  0  0  0  0  0  0  0  0  0  0  0
   -0.1327   13.5132   -5.3204 H   0  0  0  0  0  0  0  0  0  0  0  0
    1.0307   14.1754   -6.5182 H   0  0  0  0  0  0  0  0  0  0  0  0
    0.6421   12.4216   -6.5182 H   0  0  0  0  0  0  0  0  0  0  0  0
    2.6819   13.8529   -5.0544 H   0  0  0  0  0  0  0  0  0  0  0  0
    2.7402   11.1682   -4.2289 H   0  0  0  0  0  0  0  0  0  0  0  0
    2.0318   11.1680   -5.9144 H   0  0  0  0  0  0  0  0  0  0  0  0
    3.9713   11.7295   -6.8806 H   0  0  0  0  0  0  0  0  0  0  0  0
    4.4183   12.8657   -5.5400 H   0  0  0  0  0  0  0  0  0  0  0  0
    5.1408   10.4035   -6.2338 H   0  0  0  0  0  0  0  0  0  0  0  0
    6.0309   12.3899   -2.3787 H   0  0  0  0  0  0  0  0  0  0  0  0
    6.9586   13.0135   -3.7849 H   0  0  0  0  0  0  0  0  0  0  0  0
    5.1642   13.0958   -3.7849 H   0  0  0  0  0  0  0  0  0  0  0  0
    7.4052   10.1333   -2.9015 H   0  0  0  0  0  0  0  0  0  0  0  0
    7.0066    9.3147   -4.4499 H   0  0  0  0  0  0  0  0  0  0  0  0
    8.0476   10.7785   -4.4499 H   0  0  0  0  0  0  0  0  0  0  0  0
    2.1697   13.7578   -3.0252 H   0  0  0  0  0  0  0  0  0  0  0  0
   -0.0637   14.6658   -3.1671 H   0  0  0  0  0  0  0  0  0  0  0  0
   -0.5780   13.4231   -4.3286 H   0  0  0  0  0  0  0  0  0  0  0  0
   -1.2547   13.4835   -1.5525 H   0  0  0  0  0  0  0  0  0  0  0  0
   -1.4501   12.0703   -2.5854 H   0  0  0  0  0  0  0  0  0  0  0  0
    0.9006   12.9596    0.4969 H   0  0  0  0  0  0  0  0  0  0  0  0
    2.1230   13.3605   -0.7568 H   0  0  0  0  0  0  0  0  0  0  0  0
    0.5306   14.1917   -0.7568 H   0  0  0  0  0  0  0  0  0  0  0  0
   -0.4039   10.2211   -1.4246 H   0  0  0  0  0  0  0  0  0  0  0  0
   -1.5523   11.8469    0.2102 H   0  0  0  0  0  0  0  0  0  0  0  0
   -1.3834   10.0575    0.6075 H   0  0  0  0  0  0  0  0  0  0  0  0
   -0.9283   11.7385    2.5844 H   0  0  0  0  0  0  0  0  0  0  0  0
    2.6589   11.3864    0.7655 H   0  0  0  0  0  0  0  0  0  0  0  0
    2.2479    8.6800    2.1815 H   0  0  0  0  0  0  0  0  0  0  0  0
    3.6739    9.1759    1.1658 H   0  0  0  0  0  0  0  0  0  0  0  0
    4.1656    9.2869    3.5878 H   0  0  0  0  0  0  0  0  0  0  0  0
    4.2594   10.8974    2.7736 H   0  0  0  0  0  0  0  0  0  0  0  0
    3.1360   11.1633    4.8784 H   0  0  0  0  0  0  0  0  0  0  0  0
    0.9330    9.9370    4.8770 H   0  0  0  0  0  0  0  0  0  0  0  0
    2.7306   13.4826    4.1026 H   0  0  0  0  0  0  0  0  0  0  0  0
    3.3365   12.7556    2.5758 H   0  0  0  0  0  0  0  0  0  0  0  0
    1.8103   13.7030    2.5758 H   0  0  0  0  0  0  0  0  0  0  0  0
    0.9844   11.9515    5.5214 H   0  0  0  0  0  0  0  0  0  0  0  0
    0.2901   13.1584    4.3865 H   0  0  0  0  0  0  0  0  0  0  0  0
   -0.3220   11.4696    4.3865 H   0  0  0  0  0  0  0  0  0  0  0  0
    0.8379    8.3242    1.0766 H   0  0  0  0  0  0  0  0  0  0  0  0
   -0.0819    8.4023   -0.4643 H   0  0  0  0  0  0  0  0  0  0  0  0
    1.6243    7.8405   -0.4643 H   0  0  0  0  0  0  0  0  0  0  0  0
    3.4587    9.7143   -0.8273 H   0  0  0  0  0  0  0  0  0  0  0  0
    2.1622    9.1804   -2.0388 H   0  0  0  0  0  0  0  0  0  0  0  0
    3.1797   11.9913   -1.5381 H   0  0  0  0  0  0  0  0  0  0  0  0
    3.3611   10.9720   -3.0201 H   0  0  0  0  0  0  0  0  0  0  0  0
    0.3372    9.8467   -3.0512 H   0  0  0  0  0  0  0  0  0  0  0  0
    0.0037   11.1063   -4.2877 H   0  0  0  0  0  0  0  0  0  0  0  0
    1.5786   10.2424   -4.2877 H   0  0  0  0  0  0  0  0  0  0  0  0
  1  2  1  0
  2  3  1  0
  3  4  1  0
  4  5  1  0
  5  6  1  0
  6  7  1  0
  7  8  1  0
  7  9  1  0
  2 10  1  0
 10 11  1  0
 11 12  1  0
 12 13  1  0
 13 14  1  1
 13 15  1  0
 15 16  1  0
 16 17  1  0
 17 18  2  0
 18 19  1  0
 19 20  1  0
 20 21  1  0
 21 22  1  0
 22 23  1  0
 22 24  1  0
 24 25  1  0
 24 26  1  0
 19 27  1  0
 27 28  1  1
 27 29  1  0
 29 30  1  0
 30 31  1  0
 31 32  1  6
  7  5  1  0
 31 10  1  0
 31 13  1  0
 27 15  1  0
 24 18  1  0
  1 33  1  0
  1 34  1  0
  1 35  1  0
  2 36  1  1
  3 37  1  0
  3 38  1  0
  4 39  1  0
  4 40  1  0
  5 41  1  6
  8 42  1  0
  8 43  1  0
  8 44  1  0
  9 45  1  0
  9 46  1  0
  9 47  1  0
 10 48  1  1
 11 49  1  0
 11 50  1  0
 12 51  1  0
 12 52  1  0
 14 53  1  0
 14 54  1  0
 14 55  1  0
 15 56  1  6
 16 57  1  0
 16 58  1  0
 17 59  1  0
 19 60  1  6
 20 61  1  0
 20 62  1  0
 21 63  1  0
 21 64  1  0
 22 65  1  1
 23 66  1  0
 25 67  1  0
 25 68  1  0
 25 69  1  0
 26 70  1  0
 26 71  1  0
 26 72  1  0
 28 73  1  0
 28 74  1  0
 28 75  1  0
 29 76  1  0
 29 77  1  0
 30 78  1  0
 30 79  1  0
 32 80  1  0
 32 81  1  0
 32 82  1  0
M  END
>  <meeko>  (15) 
{"is_sidechain": [false], "intermolecular_energy": 2.731, "internal_energy": -0.839}

$$$$
EPH_relaxed_0001_pdb2pqr_Repair_401_r2_0001_out
     RDKit          3D

 82 86  0  0  0  0  0  0  0  0999 V2000
   -1.1720   16.2070   -5.5560 C   0  0  0  0  0  0  0  0  0  0  0  0
    0.0130   15.5070   -6.2280 C   0  0  2  0  0  0  0  0  0  0  0  0
   -0.2950   15.1170   -7.6880 C   0  0  0  0  0  0  0  0  0  0  0  0
    0.1660   16.1580   -8.7120 C   0  0  0  0  0  0  0  0  0  0  0  0
    1.5930   15.9430   -9.1170 C   0  0  2  0  0  0  0  0  0  0  0  0
    2.0180   16.7150  -10.2480 O   0  0  0  0  0  0  0  0  0  0  0  0
    2.0030   15.2890  -10.4230 C   0  0  0  0  0  0  0  0  0  0  0  0
    0.9840   14.8070  -11.4080 C   0  0  0  0  0  0  0  0  0  0  0  0
    3.3670   14.6800  -10.5210 C   0  0  0  0  0  0  0  0  0  0  0  0
    0.4050   14.2690   -5.4300 C   0  0  1  0  0  0  0  0  0  0  0  0
    1.4390   13.3820   -6.1730 C   0  0  0  0  0  0  0  0  0  0  0  0
    2.3690   12.7770   -5.0900 C   0  0  0  0  0  0  0  0  0  0  0  0
    1.6460   13.0610   -3.7520 C   0  0  1  0  0  0  0  0  0  0  0  0
    0.5670   11.9390   -3.6330 C   0  0  0  0  0  0  0  0  0  0  0  0
    2.5510   13.1300   -2.4790 C   0  0  2  0  0  0  0  0  0  0  0  0
    3.2920   11.8260   -2.1340 C   0  0  0  0  0  0  0  0  0  0  0  0
    2.5610   10.8990   -1.2210 C   0  0  0  0  0  0  0  0  0  0  0  0
    1.4890   11.2210   -0.4730 C   0  0  0  0  0  0  0  0  0  0  0  0
    0.9660   12.6630   -0.4270 C   0  0  1  0  0  0  0  0  0  0  0  0
    0.6950   13.0680    1.0460 C   0  0  0  0  0  0  0  0  0  0  0  0
   -0.2290   12.0880    1.7620 C   0  0  0  0  0  0  0  0  0  0  0  0
    0.3530   10.6770    1.7450 C   0  0  2  0  0  0  0  0  0  0  0  0
    1.5410   10.6600    2.5420 O   0  0  0  0  0  0  0  0  0  0  0  0
    0.6750   10.1650    0.3140 C   0  0  0  0  0  0  0  0  0  0  0  0
   -0.6440    9.8970   -0.4530 C   0  0  0  0  0  0  0  0  0  0  0  0
    1.3860    8.7910    0.4480 C   0  0  0  0  0  0  0  0  0  0  0  0
    1.8350   13.7410   -1.2070 C   0  0  1  0  0  0  0  0  0  0  0  0
    2.9630   14.2870   -0.2800 C   0  0  0  0  0  0  0  0  0  0  0  0
    0.9220   14.9720   -1.5680 C   0  0  0  0  0  0  0  0  0  0  0  0
    0.1460   14.8960   -2.8970 C   0  0  0  0  0  0  0  0  0  0  0  0
    1.0710   14.4940   -4.0500 C   0  0  2  0  0  0  0  0  0  0  0  0
    2.1540   15.6150   -4.2080 C   0  0  0  0  0  0  0  0  0  0  0  0
   -1.0639   16.1431   -4.4632 H   0  0  0  0  0  0  0  0  0  0  0  0
   -1.1948   17.2636   -5.8611 H   0  0  0  0  0  0  0  0  0  0  0  0
   -2.1084   15.7170   -5.8611 H   0  0  0  0  0  0  0  0  0  0  0  0
    0.8514   16.2188   -6.2463 H   0  0  0  0  0  0  0  0  0  0  0  0
    0.2112   14.1654   -7.9077 H   0  0  0  0  0  0  0  0  0  0  0  0
   -1.3887   15.0400   -7.7770 H   0  0  0  0  0  0  0  0  0  0  0  0
   -0.4726   16.0869   -9.6049 H   0  0  0  0  0  0  0  0  0  0  0  0
    0.0870   17.1527   -8.2491 H   0  0  0  0  0  0  0  0  0  0  0  0
    1.8845   15.7533   -8.0734 H   0  0  0  0  0  0  0  0  0  0  0  0
    0.1175   14.3972  -10.8683 H   0  0  0  0  0  0  0  0  0  0  0  0
    0.6588   15.6467  -12.0397 H   0  0  0  0  0  0  0  0  0  0  0  0
    1.4269   14.0229  -12.0397 H   0  0  0  0  0  0  0  0  0  0  0  0
    3.7631   14.5032   -9.5101 H   0  0  0  0  0  0  0  0  0  0  0  0
    3.3039   13.7246  -11.0624 H   0  0  0  0  0  0  0  0  0  0  0  0
    4.0363   15.3648  -11.0624 H   0  0  0  0  0  0  0  0  0  0  0  0
   -0.5872   13.8127   -5.2984 H   0  0  0  0  0  0  0  0  0  0  0  0
    0.9246   12.5795   -6.7220 H   0  0  0  0  0  0  0  0  0  0  0  0
    2.0135   13.9716   -6.9026 H   0  0  0  0  0  0  0  0  0  0  0  0
    2.4909   11.6946   -5.2434 H   0  0  0  0  0  0  0  0  0  0  0  0
    3.3796   13.2105   -5.1184 H   0  0  0  0  0  0  0  0  0  0  0  0
    0.3684   11.7325   -2.5710 H   0  0  0  0  0  0  0  0  0  0  0  0
   -0.3612   12.2695   -4.1221 H   0  0  0  0  0  0  0  0  0  0  0  0
    0.9335   11.0244   -4.1221 H   0  0  0  0  0  0  0  0  0  0  0  0
    3.3297   13.8456   -2.7817 H   0  0  0  0  0  0  0  0  0  0  0  0
    3.4919   11.2900   -3.0736 H   0  0  0  0  0  0  0  0  0  0  0  0
    4.2028   12.1272   -1.5958 H   0  0  0  0  0  0  0  0  0  0  0  0
    2.9294    9.8647   -1.1535 H   0  0  0  0  0  0  0  0  0  0  0  0
    0.0233   12.6634   -0.9938 H   0  0  0  0  0  0  0  0  0  0  0  0
    1.6540   13.1052    1.5835 H   0  0  0  0  0  0  0  0  0  0  0  0
    0.1977   14.0491    1.0362 H   0  0  0  0  0  0  0  0  0  0  0  0
   -0.3579   12.4116    2.8054 H   0  0  0  0  0  0  0  0  0  0  0  0
   -1.1976   12.0743    1.2409 H   0  0  0  0  0  0  0  0  0  0  0  0
   -0.4101    9.9992    2.1553 H   0  0  0  0  0  0  0  0  0  0  0  0
    2.1610   10.0330    2.1320 H   0  0  0  0  0  0  0  0  0  0  0  0
   -1.4594    9.7313    0.2665 H   0  0  0  0  0  0  0  0  0  0  0  0
   -0.8834   10.7648   -1.0851 H   0  0  0  0  0  0  0  0  0  0  0  0
   -0.5258    9.0045   -1.0851 H   0  0  0  0  0  0  0  0  0  0  0  0
    1.5128    8.5461    1.5129 H   0  0  0  0  0  0  0  0  0  0  0  0
    0.7768    8.0141   -0.0370 H   0  0  0  0  0  0  0  0  0  0  0  0
    2.3721    8.8396   -0.0370 H   0  0  0  0  0  0  0  0  0  0  0  0
    2.6732   14.1467    0.7718 H   0  0  0  0  0  0  0  0  0  0  0  0
    3.8972   13.7414   -0.4788 H   0  0  0  0  0  0  0  0  0  0  0  0
    3.1146   15.3582   -0.4788 H   0  0  0  0  0  0  0  0  0  0  0  0
    0.1858   15.0887   -0.7591 H   0  0  0  0  0  0  0  0  0  0  0  0
    1.6144   15.8184   -1.6872 H   0  0  0  0  0  0  0  0  0  0  0  0
   -0.6567   14.1498   -2.8028 H   0  0  0  0  0  0  0  0  0  0  0  0
   -0.2747   15.8888   -3.1147 H   0  0  0  0  0  0  0  0  0  0  0  0
    2.4801   15.9526   -3.2132 H   0  0  0  0  0  0  0  0  0  0  0  0
    3.0171   15.2157   -4.7609 H   0  0  0  0  0  0  0  0  0  0  0  0
    1.7252   16.4638   -4.7609 H   0  0  0  0  0  0  0  0  0  0  0  0
  1  2  1  0
  2  3  1  0
  3  4  1  0
  4  5  1  0
  5  6  1  0
  6  7  1  0
  7  8  1  0
  7  9  1  0
  2 10  1  0
 10 11  1  0
 11 12  1  0
 12 13  1  0
 13 14  1  1
 13 15  1  0
 15 16  1  0
 16 17  1  0
 17 18  2  0
 18 19  1  0
 19 20  1  0
 20 21  1  0
 21 22  1  0
 22 23  1  0
 22 24  1  0
 24 25  1  0
 24 26  1  0
 19 27  1  0
 27 28  1  1
 27 29  1  0
 29 30  1  0
 30 31  1  0
 31 32  1  6
  7  5  1  0
 31 10  1  0
 31 13  1  0
 27 15  1  0
 24 18  1  0
  1 33  1  0
  1 34  1  0
  1 35  1  0
  2 36  1  6
  3 37  1  0
  3 38  1  0
  4 39  1  0
  4 40  1  0
  5 41  1  1
  8 42  1  0
  8 43  1  0
  8 44  1  0
  9 45  1  0
  9 46  1  0
  9 47  1  0
 10 48  1  1
 11 49  1  0
 11 50  1  0
 12 51  1  0
 12 52  1  0
 14 53  1  0
 14 54  1  0
 14 55  1  0
 15 56  1  6
 16 57  1  0
 16 58  1  0
 17 59  1  0
 19 60  1  6
 20 61  1  0
 20 62  1  0
 21 63  1  0
 21 64  1  0
 22 65  1  1
 23 66  1  0
 25 67  1  0
 25 68  1  0
 25 69  1  0
 26 70  1  0
 26 71  1  0
 26 72  1  0
 28 73  1  0
 28 74  1  0
 28 75  1  0
 29 76  1  0
 29 77  1  0
 30 78  1  0
 30 79  1  0
 32 80  1  0
 32 81  1  0
 32 82  1  0
M  END
>  <meeko>  (16) 
{"is_sidechain": [false], "intermolecular_energy": 2.731, "internal_energy": -0.839}

$$$$
EPH_relaxed_0001_pdb2pqr_Repair_401_r2_0001_out
     RDKit          3D

 82 86  0  0  0  0  0  0  0  0999 V2000
   -3.6970    7.1520   -3.4390 C   0  0  0  0  0  0  0  0  0  0  0  0
   -3.7480    7.2540   -1.9120 C   0  0  2  0  0  0  0  0  0  0  0  0
   -5.1730    7.0400   -1.3630 C   0  0  0  0  0  0  0  0  0  0  0  0
   -6.2770    7.3570   -2.3760 C   0  0  0  0  0  0  0  0  0  0  0  0
   -7.6060    7.5400   -1.7070 C   0  0  2  0  0  0  0  0  0  0  0  0
   -8.1510    6.3500   -1.1240 O   0  0  0  0  0  0  0  0  0  0  0  0
   -8.8910    6.9170   -2.2170 C   0  0  0  0  0  0  0  0  0  0  0  0
   -8.9110    6.0620   -3.4460 C   0  0  0  0  0  0  0  0  0  0  0  0
  -10.1950    7.5300   -1.8100 C   0  0  0  0  0  0  0  0  0  0  0  0
   -3.2150    8.6100   -1.4640 C   0  0  1  0  0  0  0  0  0  0  0  0
   -3.9100    9.1290   -0.1770 C   0  0  0  0  0  0  0  0  0  0  0  0
   -2.8350    9.8970    0.6330 C   0  0  0  0  0  0  0  0  0  0  0  0
   -1.6590   10.0810   -0.3550 C   0  0  1  0  0  0  0  0  0  0  0  0
   -2.0580   11.3100   -1.2310 C   0  0  0  0  0  0  0  0  0  0  0  0
   -0.2430   10.2620    0.2820 C   0  0  2  0  0  0  0  0  0  0  0  0
   -0.0780   11.5140    1.1610 C   0  0  0  0  0  0  0  0  0  0  0  0
    0.3960   12.7360    0.4470 C   0  0  0  0  0  0  0  0  0  0  0  0
    0.9480   12.7610   -0.7800 C   0  0  0  0  0  0  0  0  0  0  0  0
    1.2340   11.4600   -1.5410 C   0  0  1  0  0  0  0  0  0  0  0  0
    2.6660   11.5120   -2.1360 C   0  0  0  0  0  0  0  0  0  0  0  0
    2.8990   12.7520   -2.9930 C   0  0  0  0  0  0  0  0  0  0  0  0
    2.6610   14.0260   -2.1850 C   0  0  2  0  0  0  0  0  0  0  0  0
    3.6680   14.1240   -1.1730 O   0  0  0  0  0  0  0  0  0  0  0  0
    1.2530   14.0810   -1.5290 C   0  0  0  0  0  0  0  0  0  0  0  0
    0.1760   14.2790   -2.6240 C   0  0  0  0  0  0  0  0  0  0  0  0
    1.1950   15.3460   -0.6300 C   0  0  0  0  0  0  0  0  0  0  0  0
    0.9530   10.1140   -0.7440 C   0  0  1  0  0  0  0  0  0  0  0  0
    2.2090    9.7180    0.0910 C   0  0  0  0  0  0  0  0  0  0  0  0
    0.7180    8.9460   -1.7730 C   0  0  0  0  0  0  0  0  0  0  0  0
   -0.7250    8.7420   -2.2740 C   0  0  0  0  0  0  0  0  0  0  0  0
   -1.7110    8.6990   -1.1030 C   0  0  2  0  0  0  0  0  0  0  0  0
   -1.3480    7.4590   -0.2170 C   0  0  0  0  0  0  0  0  0  0  0  0
   -3.2223    6.2025   -3.7274 H   0  0  0  0  0  0  0  0  0  0  0  0
   -4.7194    7.1884   -3.8433 H   0  0  0  0  0  0  0  0  0  0  0  0
   -3.1127    7.9918   -3.8433 H   0  0  0  0  0  0  0  0  0  0  0  0
   -3.1140    6.4524   -1.5051 H   0  0  0  0  0  0  0  0  0  0  0  0
   -5.2733    5.9879   -1.0579 H   0  0  0  0  0  0  0  0  0  0  0  0
   -5.3006    7.7353   -0.5203 H   0  0  0  0  0  0  0  0  0  0  0  0
   -6.0160    8.2826   -2.9100 H   0  0  0  0  0  0  0  0  0  0  0  0
   -6.3572    6.5097   -3.0729 H   0  0  0  0  0  0  0  0  0  0  0  0
   -7.3480    8.5709   -1.4229 H   0  0  0  0  0  0  0  0  0  0  0  0
   -8.9358    5.0016   -3.1546 H   0  0  0  0  0  0  0  0  0  0  0  0
   -9.8038    6.2991   -4.0432 H   0  0  0  0  0  0  0  0  0  0  0  0
   -8.0080    6.2571   -4.0432 H   0  0  0  0  0  0  0  0  0  0  0  0
  -10.2592    7.5602   -0.7123 H   0  0  0  0  0  0  0  0  0  0  0  0
  -10.2598    8.5529   -2.2093 H   0  0  0  0  0  0  0  0  0  0  0  0
  -11.0240    6.9273   -2.2093 H   0  0  0  0  0  0  0  0  0  0  0  0
   -3.4196    9.1976   -2.3711 H   0  0  0  0  0  0  0  0  0  0  0  0
   -4.7393    9.8023   -0.4396 H   0  0  0  0  0  0  0  0  0  0  0  0
   -4.3270    8.2971    0.4096 H   0  0  0  0  0  0  0  0  0  0  0  0
   -3.2211   10.8727    0.9631 H   0  0  0  0  0  0  0  0  0  0  0  0
   -2.5344    9.3576    1.5433 H   0  0  0  0  0  0  0  0  0  0  0  0
   -2.3314   12.1522   -0.5783 H   0  0  0  0  0  0  0  0  0  0  0  0
   -1.2076   11.5992   -1.8660 H   0  0  0  0  0  0  0  0  0  0  0  0
   -2.9161   11.0446   -1.8660 H   0  0  0  0  0  0  0  0  0  0  0  0
   -0.1821    9.4050    0.9689 H   0  0  0  0  0  0  0  0  0  0  0  0
   -1.0540   11.7422    1.6142 H   0  0  0  0  0  0  0  0  0  0  0  0
    0.7026   11.2690    1.8963 H   0  0  0  0  0  0  0  0  0  0  0  0
    0.2846   13.6982    0.9682 H   0  0  0  0  0  0  0  0  0  0  0  0
    0.4936   11.4142   -2.3532 H   0  0  0  0  0  0  0  0  0  0  0  0
    3.3915   11.5135   -1.3092 H   0  0  0  0  0  0  0  0  0  0  0  0
    2.7908   10.6310   -2.7828 H   0  0  0  0  0  0  0  0  0  0  0  0
    3.9361   12.7466   -3.3597 H   0  0  0  0  0  0  0  0  0  0  0  0
    2.1930   12.7339   -3.8364 H   0  0  0  0  0  0  0  0  0  0  0  0
    2.7149   14.8748   -2.8826 H   0  0  0  0  0  0  0  0  0  0  0  0
    3.2550   13.8900   -0.3240 H   0  0  0  0  0  0  0  0  0  0  0  0
   -0.8002   14.4585   -2.1499 H   0  0  0  0  0  0  0  0  0  0  0  0
    0.4440   15.1429   -3.2499 H   0  0  0  0  0  0  0  0  0  0  0  0
    0.1192   13.3762   -3.2499 H   0  0  0  0  0  0  0  0  0  0  0  0
    1.2088   15.0449    0.4279 H   0  0  0  0  0  0  0  0  0  0  0  0
    2.0648   15.9857   -0.8406 H   0  0  0  0  0  0  0  0  0  0  0  0
    0.2704   15.9034   -0.8406 H   0  0  0  0  0  0  0  0  0  0  0  0
    1.9747    9.7919    1.1632 H   0  0  0  0  0  0  0  0  0  0  0  0
    2.4991    8.6848   -0.1506 H   0  0  0  0  0  0  0  0  0  0  0  0
    3.0392   10.3980   -0.1506 H   0  0  0  0  0  0  0  0  0  0  0  0
    1.3504    9.1436   -2.6511 H   0  0  0  0  0  0  0  0  0  0  0  0
    0.9656    8.0250   -1.2249 H   0  0  0  0  0  0  0  0  0  0  0  0
   -0.9951    9.5736   -2.9415 H   0  0  0  0  0  0  0  0  0  0  0  0
   -0.7773    7.7839   -2.8119 H   0  0  0  0  0  0  0  0  0  0  0  0
   -1.4278    7.7317    0.8457 H   0  0  0  0  0  0  0  0  0  0  0  0
   -2.0426    6.6350   -0.4373 H   0  0  0  0  0  0  0  0  0  0  0  0
   -0.3187    7.1397   -0.4373 H   0  0  0  0  0  0  0  0  0  0  0  0
  1  2  1  0
  2  3  1  0
  3  4  1  0
  4  5  1  0
  5  6  1  0
  6  7  1  0
  7  8  1  0
  7  9  1  0
  2 10  1  0
 10 11  1  0
 11 12  1  0
 12 13  1  0
 13 14  1  6
 13 15  1  0
 15 16  1  0
 16 17  1  0
 17 18  2  0
 18 19  1  0
 19 20  1  0
 20 21  1  0
 21 22  1  0
 22 23  1  0
 22 24  1  0
 24 25  1  0
 24 26  1  0
 19 27  1  0
 27 28  1  1
 27 29  1  0
 29 30  1  0
 30 31  1  0
 31 32  1  1
  7  5  1  0
 31 10  1  0
 31 13  1  0
 27 15  1  0
 24 18  1  0
  1 33  1  0
  1 34  1  0
  1 35  1  0
  2 36  1  1
  3 37  1  0
  3 38  1  0
  4 39  1  0
  4 40  1  0
  5 41  1  1
  8 42  1  0
  8 43  1  0
  8 44  1  0
  9 45  1  0
  9 46  1  0
  9 47  1  0
 10 48  1  6
 11 49  1  0
 11 50  1  0
 12 51  1  0
 12 52  1  0
 14 53  1  0
 14 54  1  0
 14 55  1  0
 15 56  1  1
 16 57  1  0
 16 58  1  0
 17 59  1  0
 19 60  1  6
 20 61  1  0
 20 62  1  0
 21 63  1  0
 21 64  1  0
 22 65  1  6
 23 66  1  0
 25 67  1  0
 25 68  1  0
 25 69  1  0
 26 70  1  0
 26 71  1  0
 26 72  1  0
 28 73  1  0
 28 74  1  0
 28 75  1  0
 29 76  1  0
 29 77  1  0
 30 78  1  0
 30 79  1  0
 32 80  1  0
 32 81  1  0
 32 82  1  0
M  END
>  <meeko>  (17) 
{"is_sidechain": [false], "intermolecular_energy": 2.731, "internal_energy": -0.839}

$$$$
EPH_relaxed_0001_pdb2pqr_Repair_401_r2_0001_out
     RDKit          3D

 82 86  0  0  0  0  0  0  0  0999 V2000
   -0.0940   10.3630   -3.4370 C   0  0  0  0  0  0  0  0  0  0  0  0
    0.9030   10.1520   -2.2940 C   0  0  2  0  0  0  0  0  0  0  0  0
    0.5200    8.9540   -1.4020 C   0  0  0  0  0  0  0  0  0  0  0  0
   -0.6060    9.2590   -0.4110 C   0  0  0  0  0  0  0  0  0  0  0  0
   -1.9570    9.0410   -1.0230 C   0  0  2  0  0  0  0  0  0  0  0  0
   -2.7500   10.2280   -1.1610 O   0  0  0  0  0  0  0  0  0  0  0  0
   -3.2580    9.2260   -0.2650 C   0  0  0  0  0  0  0  0  0  0  0  0
   -3.2720    9.6450    1.1720 C   0  0  0  0  0  0  0  0  0  0  0  0
   -4.4850    8.5330   -0.7700 C   0  0  0  0  0  0  0  0  0  0  0  0
    1.0010   11.4180   -1.4500 C   0  0  1  0  0  0  0  0  0  0  0  0
    2.0750   11.3110   -0.3350 C   0  0  0  0  0  0  0  0  0  0  0  0
    2.7000   12.7210   -0.1790 C   0  0  0  0  0  0  0  0  0  0  0  0
    1.7500   13.6580   -0.9620 C   0  0  1  0  0  0  0  0  0  0  0  0
    0.5660   13.9370    0.0160 C   0  0  0  0  0  0  0  0  0  0  0  0
    2.3780   14.9840   -1.5020 C   0  0  2  0  0  0  0  0  0  0  0  0
    2.9030   15.9450   -0.4210 C   0  0  0  0  0  0  0  0  0  0  0  0
    1.9140   16.9460    0.0780 C   0  0  0  0  0  0  0  0  0  0  0  0
    0.7480   17.2580   -0.5190 C   0  0  0  0  0  0  0  0  0  0  0  0
    0.3690   16.6480   -1.8740 C   0  0  1  0  0  0  0  0  0  0  0  0
   -0.1560   17.7630   -2.8150 C   0  0  0  0  0  0  0  0  0  0  0  0
   -1.2980   18.5620   -2.1950 C   0  0  0  0  0  0  0  0  0  0  0  0
   -0.8650   19.2010   -0.8780 C   0  0  2  0  0  0  0  0  0  0  0  0
    0.1280   20.1940   -1.1530 O   0  0  0  0  0  0  0  0  0  0  0  0
   -0.3080   18.1740    0.1470 C   0  0  0  0  0  0  0  0  0  0  0  0
   -1.4620   17.2850    0.6720 C   0  0  0  0  0  0  0  0  0  0  0  0
    0.2230   18.9640    1.3730 C   0  0  0  0  0  0  0  0  0  0  0  0
    1.4800   15.7420   -2.5620 C   0  0  1  0  0  0  0  0  0  0  0  0
    2.4420   16.6300   -3.4070 C   0  0  0  0  0  0  0  0  0  0  0  0
    0.7840   14.7540   -3.5720 C   0  0  0  0  0  0  0  0  0  0  0  0
    0.2930   13.4100   -3.0020 C   0  0  0  0  0  0  0  0  0  0  0  0
    1.3900   12.7290   -2.1790 C   0  0  2  0  0  0  0  0  0  0  0  0
    2.5860   12.4160   -3.1410 C   0  0  0  0  0  0  0  0  0  0  0  0
   -1.0900   10.5738   -3.0205 H   0  0  0  0  0  0  0  0  0  0  0  0
    0.2319   11.2121   -4.0558 H   0  0  0  0  0  0  0  0  0  0  0  0
   -0.1400    9.4547   -4.0558 H   0  0  0  0  0  0  0  0  0  0  0  0
    1.8808    9.9282   -2.7455 H   0  0  0  0  0  0  0  0  0  0  0  0
    0.1965    8.1272   -2.0513 H   0  0  0  0  0  0  0  0  0  0  0  0
    1.4099    8.6983   -0.8082 H   0  0  0  0  0  0  0  0  0  0  0  0
   -0.5000    8.5997    0.4631 H   0  0  0  0  0  0  0  0  0  0  0  0
   -0.5285   10.3166   -0.1186 H   0  0  0  0  0  0  0  0  0  0  0  0
   -1.5720    8.2132   -1.6366 H   0  0  0  0  0  0  0  0  0  0  0  0
   -3.2422    8.7526    1.8144 H   0  0  0  0  0  0  0  0  0  0  0  0
   -2.3944   10.2751    1.3788 H   0  0  0  0  0  0  0  0  0  0  0  0
   -4.1897   10.2152    1.3788 H   0  0  0  0  0  0  0  0  0  0  0  0
   -5.0902    8.1912    0.0826 H   0  0  0  0  0  0  0  0  0  0  0  0
   -5.0749    9.2313   -1.3818 H   0  0  0  0  0  0  0  0  0  0  0  0
   -4.1915    7.6672   -1.3818 H   0  0  0  0  0  0  0  0  0  0  0  0
   -0.0363   11.4809   -1.0894 H   0  0  0  0  0  0  0  0  0  0  0  0
    1.6093   10.9964    0.6106 H   0  0  0  0  0  0  0  0  0  0  0  0
    2.8413   10.5660   -0.5951 H   0  0  0  0  0  0  0  0  0  0  0  0
    2.7445   13.0109    0.8812 H   0  0  0  0  0  0  0  0  0  0  0  0
    3.7324   12.7637   -0.5564 H   0  0  0  0  0  0  0  0  0  0  0  0
    0.9204   13.8535    1.0540 H   0  0  0  0  0  0  0  0  0  0  0  0
    0.1776   14.9513   -0.1584 H   0  0  0  0  0  0  0  0  0  0  0  0
   -0.2344   13.2029   -0.1584 H   0  0  0  0  0  0  0  0  0  0  0  0
    3.2679   14.6221   -2.0379 H   0  0  0  0  0  0  0  0  0  0  0  0
    3.2381   15.3421    0.4359 H   0  0  0  0  0  0  0  0  0  0  0  0
    3.7093   16.5242   -0.8947 H   0  0  0  0  0  0  0  0  0  0  0  0
    2.1584   17.4731    1.0121 H   0  0  0  0  0  0  0  0  0  0  0  0
   -0.4338   15.9248   -1.6678 H   0  0  0  0  0  0  0  0  0  0  0  0
    0.6719   18.4503   -3.0435 H   0  0  0  0  0  0  0  0  0  0  0  0
   -0.5424   17.2784   -3.7238 H   0  0  0  0  0  0  0  0  0  0  0  0
   -1.6054   19.3530   -2.8949 H   0  0  0  0  0  0  0  0  0  0  0  0
   -2.1362   17.8785   -1.9946 H   0  0  0  0  0  0  0  0  0  0  0  0
   -1.7584   19.6490   -0.4184 H   0  0  0  0  0  0  0  0  0  0  0  0
    0.9230   19.9640   -0.6430 H   0  0  0  0  0  0  0  0  0  0  0  0
   -1.4567   17.2891    1.7720 H   0  0  0  0  0  0  0  0  0  0  0  0
   -2.4227   17.6787    0.3085 H   0  0  0  0  0  0  0  0  0  0  0  0
   -1.3264   16.2557    0.3085 H   0  0  0  0  0  0  0  0  0  0  0  0
   -0.1085   18.4708    2.2986 H   0  0  0  0  0  0  0  0  0  0  0  0
    1.3223   18.9895    1.3446 H   0  0  0  0  0  0  0  0  0  0  0  0
   -0.1685   19.9916    1.3446 H   0  0  0  0  0  0  0  0  0  0  0  0
    3.0816   17.2204   -2.7345 H   0  0  0  0  0  0  0  0  0  0  0  0
    3.0709   15.9883   -4.0415 H   0  0  0  0  0  0  0  0  0  0  0  0
    1.8526   17.3082   -4.0415 H   0  0  0  0  0  0  0  0  0  0  0  0
   -0.0873   15.2729   -3.9981 H   0  0  0  0  0  0  0  0  0  0  0  0
    1.5648   14.4897   -4.3003 H   0  0  0  0  0  0  0  0  0  0  0  0
   -0.5804   13.5901   -2.3580 H   0  0  0  0  0  0  0  0  0  0  0  0
    0.0243   12.7510   -3.8408 H   0  0  0  0  0  0  0  0  0  0  0  0
    3.4821   12.1815   -2.5477 H   0  0  0  0  0  0  0  0  0  0  0  0
    2.3305   11.5545   -3.7754 H   0  0  0  0  0  0  0  0  0  0  0  0
    2.7853   13.2922   -3.7754 H   0  0  0  0  0  0  0  0  0  0  0  0
  1  2  1  0
  2  3  1  0
  3  4  1  0
  4  5  1  0
  5  6  1  0
  6  7  1  0
  7  8  1  0
  7  9  1  0
  2 10  1  0
 10 11  1  0
 11 12  1  0
 12 13  1  0
 13 14  1  1
 13 15  1  0
 15 16  1  0
 16 17  1  0
 17 18  2  0
 18 19  1  0
 19 20  1  0
 20 21  1  0
 21 22  1  0
 22 23  1  0
 22 24  1  0
 24 25  1  0
 24 26  1  0
 19 27  1  0
 27 28  1  6
 27 29  1  0
 29 30  1  0
 30 31  1  0
 31 32  1  6
  7  5  1  0
 31 10  1  0
 31 13  1  0
 27 15  1  0
 24 18  1  0
  1 33  1  0
  1 34  1  0
  1 35  1  0
  2 36  1  6
  3 37  1  0
  3 38  1  0
  4 39  1  0
  4 40  1  0
  5 41  1  6
  8 42  1  0
  8 43  1  0
  8 44  1  0
  9 45  1  0
  9 46  1  0
  9 47  1  0
 10 48  1  1
 11 49  1  0
 11 50  1  0
 12 51  1  0
 12 52  1  0
 14 53  1  0
 14 54  1  0
 14 55  1  0
 15 56  1  6
 16 57  1  0
 16 58  1  0
 17 59  1  0
 19 60  1  1
 20 61  1  0
 20 62  1  0
 21 63  1  0
 21 64  1  0
 22 65  1  1
 23 66  1  0
 25 67  1  0
 25 68  1  0
 25 69  1  0
 26 70  1  0
 26 71  1  0
 26 72  1  0
 28 73  1  0
 28 74  1  0
 28 75  1  0
 29 76  1  0
 29 77  1  0
 30 78  1  0
 30 79  1  0
 32 80  1  0
 32 81  1  0
 32 82  1  0
M  END
>  <meeko>  (18) 
{"is_sidechain": [false], "intermolecular_energy": 2.731, "internal_energy": -0.839}

$$$$
