EPH_relaxed_0001_pdb2pqr_Repair_334_r2_0001_out
     RDKit          3D

 82 86  0  0  0  0  0  0  0  0999 V2000
    4.6130   18.1260   -0.7700 C   0  0  0  0  0  0  0  0  0  0  0  0
    3.2250   18.6340   -0.3720 C   0  0  2  0  0  0  0  0  0  0  0  0
    3.1820   19.1240    1.0890 C   0  0  0  0  0  0  0  0  0  0  0  0
    4.3960   18.6950    1.9180 C   0  0  0  0  0  0  0  0  0  0  0  0
    4.3240   19.2200    3.3200 C   0  0  2  0  0  0  0  0  0  0  0  0
    5.3250   20.1920    3.6470 O   0  0  0  0  0  0  0  0  0  0  0  0
    5.3870   18.9520    4.3690 C   0  0  0  0  0  0  0  0  0  0  0  0
    6.5980   18.1280    4.0610 C   0  0  0  0  0  0  0  0  0  0  0  0
    5.0130   19.0750    5.8130 C   0  0  0  0  0  0  0  0  0  0  0  0
    2.1890   17.5350   -0.5830 C   0  0  1  0  0  0  0  0  0  0  0  0
    0.9090   18.0500   -1.2930 C   0  0  0  0  0  0  0  0  0  0  0  0
    0.4060   16.8970   -2.2000 C   0  0  0  0  0  0  0  0  0  0  0  0
    1.2090   15.6580   -1.7370 C   0  0  1  0  0  0  0  0  0  0  0  0
    0.4640   15.1500   -0.4640 C   0  0  0  0  0  0  0  0  0  0  0  0
    1.3910   14.5200   -2.7930 C   0  0  2  0  0  0  0  0  0  0  0  0
    0.0870   13.8560   -3.2690 C   0  0  0  0  0  0  0  0  0  0  0  0
   -0.3500   12.6680   -2.4770 C   0  0  0  0  0  0  0  0  0  0  0  0
    0.4160   11.9820   -1.6090 C   0  0  0  0  0  0  0  0  0  0  0  0
    1.9000   12.3260   -1.4250 C   0  0  1  0  0  0  0  0  0  0  0  0
    2.7400   11.0220   -1.4440 C   0  0  0  0  0  0  0  0  0  0  0  0
    2.2490    9.9950   -0.4280 C   0  0  0  0  0  0  0  0  0  0  0  0
    0.7870    9.6350   -0.6790 C   0  0  2  0  0  0  0  0  0  0  0  0
    0.6900    8.9440   -1.9280 O   0  0  0  0  0  0  0  0  0  0  0  0
   -0.1550   10.8720   -0.6920 C   0  0  0  0  0  0  0  0  0  0  0  0
   -0.2830   11.4430    0.7410 C   0  0  0  0  0  0  0  0  0  0  0  0
   -1.5740   10.3870   -1.0950 C   0  0  0  0  0  0  0  0  0  0  0  0
    2.4790   13.4400   -2.4000 C   0  0  1  0  0  0  0  0  0  0  0  0
    2.9570   12.7840   -3.7320 C   0  0  0  0  0  0  0  0  0  0  0  0
    3.7540   14.0870   -1.7410 C   0  0  0  0  0  0  0  0  0  0  0  0
    3.5180   15.2850   -0.8010 C   0  0  0  0  0  0  0  0  0  0  0  0
    2.6050   16.3250   -1.4570 C   0  0  2  0  0  0  0  0  0  0  0  0
    3.3380   16.8710   -2.7290 C   0  0  0  0  0  0  0  0  0  0  0  0
    5.1987   17.9116    0.1361 H   0  0  0  0  0  0  0  0  0  0  0  0
    4.5102   17.2072   -1.3660 H   0  0  0  0  0  0  0  0  0  0  0  0
    5.1276   18.8941   -1.3660 H   0  0  0  0  0  0  0  0  0  0  0  0
    2.9912   19.4948   -1.0157 H   0  0  0  0  0  0  0  0  0  0  0  0
    3.1347   20.2230    1.0855 H   0  0  0  0  0  0  0  0  0  0  0  0
    2.2966   18.6673    1.5554 H   0  0  0  0  0  0  0  0  0  0  0  0
    4.4351   17.5962    1.9505 H   0  0  0  0  0  0  0  0  0  0  0  0
    5.2983   19.1079    1.4434 H   0  0  0  0  0  0  0  0  0  0  0  0
    3.2300   19.1056    3.3320 H   0  0  0  0  0  0  0  0  0  0  0  0
    7.0711   17.8061    5.0004 H   0  0  0  0  0  0  0  0  0  0  0  0
    6.3012   17.2436    3.4781 H   0  0  0  0  0  0  0  0  0  0  0  0
    7.3117   18.7287    3.4781 H   0  0  0  0  0  0  0  0  0  0  0  0
    5.8719   18.7925    6.4396 H   0  0  0  0  0  0  0  0  0  0  0  0
    4.7267   20.1146    6.0304 H   0  0  0  0  0  0  0  0  0  0  0  0
    4.1655   18.4082    6.0304 H   0  0  0  0  0  0  0  0  0  0  0  0
    2.0440   17.2144    0.4592 H   0  0  0  0  0  0  0  0  0  0  0  0
    0.1413   18.3091   -0.5490 H   0  0  0  0  0  0  0  0  0  0  0  0
    1.1212   18.9534   -1.8837 H   0  0  0  0  0  0  0  0  0  0  0  0
   -0.6730   16.7351   -2.0599 H   0  0  0  0  0  0  0  0  0  0  0  0
    0.5514   17.1130   -3.2687 H   0  0  0  0  0  0  0  0  0  0  0  0
    0.9881   15.5074    0.4347 H   0  0  0  0  0  0  0  0  0  0  0  0
   -0.5667   15.5343   -0.4645 H   0  0  0  0  0  0  0  0  0  0  0  0
    0.4453   14.0502   -0.4645 H   0  0  0  0  0  0  0  0  0  0  0  0
    1.7825   15.0666   -3.6636 H   0  0  0  0  0  0  0  0  0  0  0  0
   -0.7140   14.6085   -3.2230 H   0  0  0  0  0  0  0  0  0  0  0  0
    0.2870   13.4870   -4.2858 H   0  0  0  0  0  0  0  0  0  0  0  0
   -1.3859   12.3245   -2.6148 H   0  0  0  0  0  0  0  0  0  0  0  0
    1.9812   12.8073   -0.4392 H   0  0  0  0  0  0  0  0  0  0  0  0
    2.6814   10.5794   -2.4493 H   0  0  0  0  0  0  0  0  0  0  0  0
    3.7740   11.2869   -1.1780 H   0  0  0  0  0  0  0  0  0  0  0  0
    2.8628    9.0858   -0.5098 H   0  0  0  0  0  0  0  0  0  0  0  0
    2.3359   10.4284    0.5793 H   0  0  0  0  0  0  0  0  0  0  0  0
    0.4567    8.9975    0.1544 H   0  0  0  0  0  0  0  0  0  0  0  0
    0.9880    8.0300   -1.7820 H   0  0  0  0  0  0  0  0  0  0  0  0
   -0.1033   10.6414    1.4725 H   0  0  0  0  0  0  0  0  0  0  0  0
    0.4581   12.2432    0.8844 H   0  0  0  0  0  0  0  0  0  0  0  0
   -1.2947   11.8502    0.8844 H   0  0  0  0  0  0  0  0  0  0  0  0
   -2.1638   10.1854   -0.1886 H   0  0  0  0  0  0  0  0  0  0  0  0
   -2.0722   11.1659   -1.6909 H   0  0  0  0  0  0  0  0  0  0  0  0
   -1.4912    9.4661   -1.6909 H   0  0  0  0  0  0  0  0  0  0  0  0
    3.5909   11.9140   -3.5054 H   0  0  0  0  0  0  0  0  0  0  0  0
    2.0827   12.4588   -4.3149 H   0  0  0  0  0  0  0  0  0  0  0  0
    3.5345   13.5166   -4.3149 H   0  0  0  0  0  0  0  0  0  0  0  0
    4.2624   13.3033   -1.1601 H   0  0  0  0  0  0  0  0  0  0  0  0
    4.3386   14.4908   -2.5808 H   0  0  0  0  0  0  0  0  0  0  0  0
    3.0475   14.9272    0.1267 H   0  0  0  0  0  0  0  0  0  0  0  0
    4.4877   15.7568   -0.5839 H   0  0  0  0  0  0  0  0  0  0  0  0
    4.1850   17.5019   -2.4216 H   0  0  0  0  0  0  0  0  0  0  0  0
    3.7084   16.0270   -3.3294 H   0  0  0  0  0  0  0  0  0  0  0  0
    2.6354   17.4675   -3.3294 H   0  0  0  0  0  0  0  0  0  0  0  0
  1  2  1  0
  2  3  1  0
  3  4  1  0
  4  5  1  0
  5  6  1  0
  6  7  1  0
  7  8  1  0
  7  9  1  0
  2 10  1  0
 10 11  1  0
 11 12  1  0
 12 13  1  0
 13 14  1  1
 13 15  1  0
 15 16  1  0
 16 17  1  0
 17 18  2  0
 18 19  1  0
 19 20  1  0
 20 21  1  0
 21 22  1  0
 22 23  1  0
 22 24  1  0
 24 25  1  0
 24 26  1  0
 19 27  1  0
 27 28  1  6
 27 29  1  0
 29 30  1  0
 30 31  1  0
 31 32  1  6
  7  5  1  0
 31 10  1  0
 31 13  1  0
 27 15  1  0
 24 18  1  0
  1 33  1  0
  1 34  1  0
  1 35  1  0
  2 36  1  6
  3 37  1  0
  3 38  1  0
  4 39  1  0
  4 40  1  0
  5 41  1  1
  8 42  1  0
  8 43  1  0
  8 44  1  0
  9 45  1  0
  9 46  1  0
  9 47  1  0
 10 48  1  1
 11 49  1  0
 11 50  1  0
 12 51  1  0
 12 52  1  0
 14 53  1  0
 14 54  1  0
 14 55  1  0
 15 56  1  6
 16 57  1  0
 16 58  1  0
 17 59  1  0
 19 60  1  1
 20 61  1  0
 20 62  1  0
 21 63  1  0
 21 64  1  0
 22 65  1  1
 23 66  1  0
 25 67  1  0
 25 68  1  0
 25 69  1  0
 26 70  1  0
 26 71  1  0
 26 72  1  0
 28 73  1  0
 28 74  1  0
 28 75  1  0
 29 76  1  0
 29 77  1  0
 30 78  1  0
 30 79  1  0
 32 80  1  0
 32 81  1  0
 32 82  1  0
M  END
>  <meeko>  (1) 
{"is_sidechain": [false], "intermolecular_energy": 2.731, "internal_energy": -0.839}

$$$$
EPH_relaxed_0001_pdb2pqr_Repair_334_r2_0001_out
     RDKit          3D

 82 86  0  0  0  0  0  0  0  0999 V2000
    4.2060   18.3490    0.0850 C   0  0  0  0  0  0  0  0  0  0  0  0
    3.0240   18.8290   -0.7620 C   0  0  2  0  0  0  0  0  0  0  0  0
    2.2940   20.0240   -0.1170 C   0  0  0  0  0  0  0  0  0  0  0  0
    1.1710   19.6150    0.8400 C   0  0  0  0  0  0  0  0  0  0  0  0
   -0.1520   20.1780    0.4150 C   0  0  2  0  0  0  0  0  0  0  0  0
   -1.1530   20.1930    1.4410 O   0  0  0  0  0  0  0  0  0  0  0  0
   -1.4180   19.3500    0.3080 C   0  0  0  0  0  0  0  0  0  0  0  0
   -1.4240   17.8870    0.6260 C   0  0  0  0  0  0  0  0  0  0  0  0
   -2.5270   19.8460   -0.5670 C   0  0  0  0  0  0  0  0  0  0  0  0
    2.0470   17.6810   -0.9870 C   0  0  1  0  0  0  0  0  0  0  0  0
    0.8410   18.0880   -1.8760 C   0  0  0  0  0  0  0  0  0  0  0  0
    0.4730   16.8450   -2.7270 C   0  0  0  0  0  0  0  0  0  0  0  0
    1.2490   15.6790   -2.0700 C   0  0  1  0  0  0  0  0  0  0  0  0
    0.3780   15.2570   -0.8460 C   0  0  0  0  0  0  0  0  0  0  0  0
    1.5770   14.4610   -2.9930 C   0  0  2  0  0  0  0  0  0  0  0  0
    0.3510   13.7150   -3.5490 C   0  0  0  0  0  0  0  0  0  0  0  0
   -0.1430   12.5850   -2.7070 C   0  0  0  0  0  0  0  0  0  0  0  0
    0.5380   12.0030   -1.7020 C   0  0  0  0  0  0  0  0  0  0  0  0
    1.9820   12.4120   -1.3880 C   0  0  1  0  0  0  0  0  0  0  0  0
    2.8510   11.1410   -1.1980 C   0  0  0  0  0  0  0  0  0  0  0  0
    2.2750   10.1890   -0.1550 C   0  0  0  0  0  0  0  0  0  0  0  0
    0.8600    9.7590   -0.5320 C   0  0  2  0  0  0  0  0  0  0  0  0
    0.9210    8.9590   -1.7170 O   0  0  0  0  0  0  0  0  0  0  0  0
   -0.1050   10.9560   -0.7590 C   0  0  0  0  0  0  0  0  0  0  0  0
   -0.4080   11.6440    0.5950 C   0  0  0  0  0  0  0  0  0  0  0  0
   -1.4570   10.3900   -1.2710 C   0  0  0  0  0  0  0  0  0  0  0  0
    2.6400   13.4570   -2.3880 C   0  0  1  0  0  0  0  0  0  0  0  0
    3.2810   12.7070   -3.5960 C   0  0  0  0  0  0  0  0  0  0  0  0
    3.8160   14.2020   -1.6540 C   0  0  0  0  0  0  0  0  0  0  0  0
    3.4460   15.4670   -0.8560 C   0  0  0  0  0  0  0  0  0  0  0  0
    2.5870   16.4150   -1.6980 C   0  0  2  0  0  0  0  0  0  0  0  0
    3.4460   16.8750   -2.9260 C   0  0  0  0  0  0  0  0  0  0  0  0
    3.9575   18.4499    1.1518 H   0  0  0  0  0  0  0  0  0  0  0  0
    4.4168   17.2940   -0.1442 H   0  0  0  0  0  0  0  0  0  0  0  0
    5.0927   18.9583   -0.1442 H   0  0  0  0  0  0  0  0  0  0  0  0
    3.4255   19.1707   -1.7274 H   0  0  0  0  0  0  0  0  0  0  0  0
    3.0297   20.6184    0.4446 H   0  0  0  0  0  0  0  0  0  0  0  0
    1.8285   20.5954   -0.9336 H   0  0  0  0  0  0  0  0  0  0  0  0
    1.1016   18.5174    0.8598 H   0  0  0  0  0  0  0  0  0  0  0  0
    1.4086   20.0129    1.8376 H   0  0  0  0  0  0  0  0  0  0  0  0
    0.3401   20.8670   -0.2873 H   0  0  0  0  0  0  0  0  0  0  0  0
   -1.4246   17.7490    1.7173 H   0  0  0  0  0  0  0  0  0  0  0  0
   -2.3241   17.4222    0.1972 H   0  0  0  0  0  0  0  0  0  0  0  0
   -0.5278   17.4149    0.1972 H   0  0  0  0  0  0  0  0  0  0  0  0
   -3.3519   20.2149    0.0602 H   0  0  0  0  0  0  0  0  0  0  0  0
   -2.1553   20.6636   -1.2021 H   0  0  0  0  0  0  0  0  0  0  0  0
   -2.8886   19.0239   -1.2021 H   0  0  0  0  0  0  0  0  0  0  0  0
    1.7954   17.4468    0.0579 H   0  0  0  0  0  0  0  0  0  0  0  0
   -0.0117   18.3819   -1.2463 H   0  0  0  0  0  0  0  0  0  0  0  0
    1.0945   18.9449   -2.5175 H   0  0  0  0  0  0  0  0  0  0  0  0
   -0.6105   16.6582   -2.6933 H   0  0  0  0  0  0  0  0  0  0  0  0
    0.7330   16.9739   -3.7880 H   0  0  0  0  0  0  0  0  0  0  0  0
    0.9054   15.5125    0.0849 H   0  0  0  0  0  0  0  0  0  0  0  0
   -0.5843   15.7888   -0.8800 H   0  0  0  0  0  0  0  0  0  0  0  0
    0.1989   14.1722   -0.8800 H   0  0  0  0  0  0  0  0  0  0  0  0
    2.0516   14.9431   -3.8604 H   0  0  0  0  0  0  0  0  0  0  0  0
   -0.4681   14.4410   -3.6583 H   0  0  0  0  0  0  0  0  0  0  0  0
    0.6725   13.2676   -4.5011 H   0  0  0  0  0  0  0  0  0  0  0  0
   -1.1480   12.1953   -2.9264 H   0  0  0  0  0  0  0  0  0  0  0  0
    1.9390   12.9789   -0.4463 H   0  0  0  0  0  0  0  0  0  0  0  0
    2.9169   10.6119   -2.1601 H   0  0  0  0  0  0  0  0  0  0  0  0
    3.8415   11.4636   -0.8446 H   0  0  0  0  0  0  0  0  0  0  0  0
    2.9163    9.2978   -0.0878 H   0  0  0  0  0  0  0  0  0  0  0  0
    2.2377   10.7096    0.8133 H   0  0  0  0  0  0  0  0  0  0  0  0
    0.4540    9.1854    0.3142 H   0  0  0  0  0  0  0  0  0  0  0  0
    0.4230    9.4230   -2.4110 H   0  0  0  0  0  0  0  0  0  0  0  0
   -0.1143   10.9771    1.4190 H   0  0  0  0  0  0  0  0  0  0  0  0
    0.1595   12.5838    0.6639 H   0  0  0  0  0  0  0  0  0  0  0  0
   -1.4844   11.8598    0.6639 H   0  0  0  0  0  0  0  0  0  0  0  0
   -2.0918   10.1243   -0.4128 H   0  0  0  0  0  0  0  0  0  0  0  0
   -1.9654   11.1508   -1.8815 H   0  0  0  0  0  0  0  0  0  0  0  0
   -1.2717    9.4939   -1.8815 H   0  0  0  0  0  0  0  0  0  0  0  0
    3.9536   11.9201   -3.2240 H   0  0  0  0  0  0  0  0  0  0  0  0
    2.4880   12.2525   -4.2080 H   0  0  0  0  0  0  0  0  0  0  0  0
    3.8535   13.4195   -4.2080 H   0  0  0  0  0  0  0  0  0  0  0  0
    4.2757   13.4892   -0.9535 H   0  0  0  0  0  0  0  0  0  0  0  0
    4.4806   14.5525   -2.4574 H   0  0  0  0  0  0  0  0  0  0  0  0
    2.8832   15.1738    0.0425 H   0  0  0  0  0  0  0  0  0  0  0  0
    4.3731   15.9889   -0.5765 H   0  0  0  0  0  0  0  0  0  0  0  0
    4.3631   17.3661   -2.5686 H   0  0  0  0  0  0  0  0  0  0  0  0
    3.7128   15.9991   -3.5355 H   0  0  0  0  0  0  0  0  0  0  0  0
    2.8648   17.5826   -3.5355 H   0  0  0  0  0  0  0  0  0  0  0  0
  1  2  1  0
  2  3  1  0
  3  4  1  0
  4  5  1  0
  5  6  1  0
  6  7  1  0
  7  8  1  0
  7  9  1  0
  2 10  1  0
 10 11  1  0
 11 12  1  0
 12 13  1  0
 13 14  1  1
 13 15  1  0
 15 16  1  0
 16 17  1  0
 17 18  2  0
 18 19  1  0
 19 20  1  0
 20 21  1  0
 21 22  1  0
 22 23  1  0
 22 24  1  0
 24 25  1  0
 24 26  1  0
 19 27  1  0
 27 28  1  6
 27 29  1  0
 29 30  1  0
 30 31  1  0
 31 32  1  6
  7  5  1  0
 31 10  1  0
 31 13  1  0
 27 15  1  0
 24 18  1  0
  1 33  1  0
  1 34  1  0
  1 35  1  0
  2 36  1  6
  3 37  1  0
  3 38  1  0
  4 39  1  0
  4 40  1  0
  5 41  1  6
  8 42  1  0
  8 43  1  0
  8 44  1  0
  9 45  1  0
  9 46  1  0
  9 47  1  0
 10 48  1  1
 11 49  1  0
 11 50  1  0
 12 51  1  0
 12 52  1  0
 14 53  1  0
 14 54  1  0
 14 55  1  0
 15 56  1  6
 16 57  1  0
 16 58  1  0
 17 59  1  0
 19 60  1  1
 20 61  1  0
 20 62  1  0
 21 63  1  0
 21 64  1  0
 22 65  1  1
 23 66  1  0
 25 67  1  0
 25 68  1  0
 25 69  1  0
 26 70  1  0
 26 71  1  0
 26 72  1  0
 28 73  1  0
 28 74  1  0
 28 75  1  0
 29 76  1  0
 29 77  1  0
 30 78  1  0
 30 79  1  0
 32 80  1  0
 32 81  1  0
 32 82  1  0
M  END
>  <meeko>  (2) 
{"is_sidechain": [false], "intermolecular_energy": 2.731, "internal_energy": -0.839}

$$$$
EPH_relaxed_0001_pdb2pqr_Repair_334_r2_0001_out
     RDKit          3D

 82 86  0  0  0  0  0  0  0  0999 V2000
   -0.9350    8.9990   -2.1040 C   0  0  0  0  0  0  0  0  0  0  0  0
   -1.3140    9.2750   -0.6460 C   0  0  2  0  0  0  0  0  0  0  0  0
   -2.8420    9.2980   -0.4380 C   0  0  0  0  0  0  0  0  0  0  0  0
   -3.5850    8.2060   -1.2120 C   0  0  0  0  0  0  0  0  0  0  0  0
   -5.0340    8.1460   -0.8320 C   0  0  2  0  0  0  0  0  0  0  0  0
   -5.5010    6.8430   -0.4570 O   0  0  0  0  0  0  0  0  0  0  0  0
   -6.0820    7.4080   -1.6440 C   0  0  0  0  0  0  0  0  0  0  0  0
   -5.7250    6.6810   -2.9020 C   0  0  0  0  0  0  0  0  0  0  0  0
   -7.5180    7.8000   -1.4840 C   0  0  0  0  0  0  0  0  0  0  0  0
   -0.7060   10.5960   -0.1920 C   0  0  1  0  0  0  0  0  0  0  0  0
    0.1770   10.4430    1.0750 C   0  0  0  0  0  0  0  0  0  0  0  0
    1.3450   11.4520    0.9310 C   0  0  0  0  0  0  0  0  0  0  0  0
    0.9220   12.3750   -0.2360 C   0  0  1  0  0  0  0  0  0  0  0  0
   -0.0570   13.4080    0.4050 C   0  0  0  0  0  0  0  0  0  0  0  0
    2.0800   13.0820   -1.0130 C   0  0  2  0  0  0  0  0  0  0  0  0
    2.9320   14.0500   -0.1740 C   0  0  0  0  0  0  0  0  0  0  0  0
    2.4580   15.4660   -0.1570 C   0  0  0  0  0  0  0  0  0  0  0  0
    1.5640   16.0010   -1.0080 C   0  0  0  0  0  0  0  0  0  0  0  0
    1.0040   15.1840   -2.1800 C   0  0  1  0  0  0  0  0  0  0  0  0
    1.0460   16.0390   -3.4740 C   0  0  0  0  0  0  0  0  0  0  0  0
    0.3420   17.3820   -3.3110 C   0  0  0  0  0  0  0  0  0  0  0  0
    0.9650   18.1900   -2.1750 C   0  0  2  0  0  0  0  0  0  0  0  0
    2.2990   18.5530   -2.5440 O   0  0  0  0  0  0  0  0  0  0  0  0
    0.9870   17.4260   -0.8210 C   0  0  0  0  0  0  0  0  0  0  0  0
   -0.4560   17.2980   -0.2720 C   0  0  0  0  0  0  0  0  0  0  0  0
    1.7650   18.2940    0.2040 C   0  0  0  0  0  0  0  0  0  0  0  0
    1.6350   13.7400   -2.3820 C   0  0  1  0  0  0  0  0  0  0  0  0
    2.9160   13.8370   -3.2660 C   0  0  0  0  0  0  0  0  0  0  0  0
    0.6160   12.8390   -3.1750 C   0  0  0  0  0  0  0  0  0  0  0  0
   -0.4290   12.0730   -2.3420 C   0  0  0  0  0  0  0  0  0  0  0  0
    0.2370   11.3230   -1.1830 C   0  0  2  0  0  0  0  0  0  0  0  0
    1.2110   10.2610   -1.7970 C   0  0  0  0  0  0  0  0  0  0  0  0
   -0.0462    8.3517   -2.1356 H   0  0  0  0  0  0  0  0  0  0  0  0
   -1.7720    8.4975   -2.6118 H   0  0  0  0  0  0  0  0  0  0  0  0
   -0.7146    9.9496   -2.6118 H   0  0  0  0  0  0  0  0  0  0  0  0
   -0.9105    8.4523   -0.0375 H   0  0  0  0  0  0  0  0  0  0  0  0
   -3.0485    9.1653    0.6343 H   0  0  0  0  0  0  0  0  0  0  0  0
   -3.2037   10.2646   -0.8187 H   0  0  0  0  0  0  0  0  0  0  0  0
   -3.5072    8.4164   -2.2889 H   0  0  0  0  0  0  0  0  0  0  0  0
   -3.1253    7.2375   -0.9657 H   0  0  0  0  0  0  0  0  0  0  0  0
   -4.9963    9.1706   -0.4334 H   0  0  0  0  0  0  0  0  0  0  0  0
   -5.2532    5.7201   -2.6489 H   0  0  0  0  0  0  0  0  0  0  0  0
   -6.6359    6.4983   -3.4910 H   0  0  0  0  0  0  0  0  0  0  0  0
   -5.0235    7.2901   -3.4910 H   0  0  0  0  0  0  0  0  0  0  0  0
   -7.7628    7.8668   -0.4137 H   0  0  0  0  0  0  0  0  0  0  0  0
   -7.6866    8.7770   -1.9604 H   0  0  0  0  0  0  0  0  0  0  0  0
   -8.1597    7.0442   -1.9604 H   0  0  0  0  0  0  0  0  0  0  0  0
   -1.6256   11.1823   -0.0487 H   0  0  0  0  0  0  0  0  0  0  0  0
   -0.4111   10.6706    1.9763 H   0  0  0  0  0  0  0  0  0  0  0  0
    0.5538    9.4141    1.1718 H   0  0  0  0  0  0  0  0  0  0  0  0
    1.4740   12.0314    1.8571 H   0  0  0  0  0  0  0  0  0  0  0  0
    2.3064   10.9526    0.7404 H   0  0  0  0  0  0  0  0  0  0  0  0
    0.0060   13.3415    1.5012 H   0  0  0  0  0  0  0  0  0  0  0  0
    0.2184   14.4230    0.0828 H   0  0  0  0  0  0  0  0  0  0  0  0
   -1.0854   13.1874    0.0828 H   0  0  0  0  0  0  0  0  0  0  0  0
    2.7436   12.2415   -1.2645 H   0  0  0  0  0  0  0  0  0  0  0  0
    2.9424   13.6825    0.8628 H   0  0  0  0  0  0  0  0  0  0  0  0
    3.9258   14.0673   -0.6451 H   0  0  0  0  0  0  0  0  0  0  0  0
    2.8751   16.1274    0.6167 H   0  0  0  0  0  0  0  0  0  0  0  0
   -0.0394   14.9532   -1.9190 H   0  0  0  0  0  0  0  0  0  0  0  0
    2.0971   16.2221   -3.7416 H   0  0  0  0  0  0  0  0  0  0  0  0
    0.5193   15.4794   -4.2610 H   0  0  0  0  0  0  0  0  0  0  0  0
    0.4305   17.9510   -4.2482 H   0  0  0  0  0  0  0  0  0  0  0  0
   -0.7157   17.1974   -3.0717 H   0  0  0  0  0  0  0  0  0  0  0  0
    0.3390   19.0816   -2.0227 H   0  0  0  0  0  0  0  0  0  0  0  0
    2.8510   17.7560   -2.4720 H   0  0  0  0  0  0  0  0  0  0  0  0
   -0.4314   17.3002    0.8277 H   0  0  0  0  0  0  0  0  0  0  0  0
   -1.0599   18.1461   -0.6270 H   0  0  0  0  0  0  0  0  0  0  0  0
   -0.9012   16.3568   -0.6270 H   0  0  0  0  0  0  0  0  0  0  0  0
    1.4917   17.9891    1.2249 H   0  0  0  0  0  0  0  0  0  0  0  0
    2.8461   18.1546    0.0567 H   0  0  0  0  0  0  0  0  0  0  0  0
    1.5085   19.3535    0.0567 H   0  0  0  0  0  0  0  0  0  0  0  0
    3.8034   13.9042   -2.6195 H   0  0  0  0  0  0  0  0  0  0  0  0
    2.9919   12.9420   -3.9010 H   0  0  0  0  0  0  0  0  0  0  0  0
    2.8563   14.7332   -3.9010 H   0  0  0  0  0  0  0  0  0  0  0  0
    0.0714   13.4897   -3.8750 H   0  0  0  0  0  0  0  0  0  0  0  0
    1.2305   12.0609   -3.6514 H   0  0  0  0  0  0  0  0  0  0  0  0
   -1.1596   12.7878   -1.9356 H   0  0  0  0  0  0  0  0  0  0  0  0
   -0.9286   11.3406   -2.9931 H   0  0  0  0  0  0  0  0  0  0  0  0
    1.7138    9.7128   -0.9866 H   0  0  0  0  0  0  0  0  0  0  0  0
    0.6397    9.5551   -2.4178 H   0  0  0  0  0  0  0  0  0  0  0  0
    1.9635   10.7693   -2.4178 H   0  0  0  0  0  0  0  0  0  0  0  0
  1  2  1  0
  2  3  1  0
  3  4  1  0
  4  5  1  0
  5  6  1  0
  6  7  1  0
  7  8  1  0
  7  9  1  0
  2 10  1  0
 10 11  1  0
 11 12  1  0
 12 13  1  0
 13 14  1  1
 13 15  1  0
 15 16  1  0
 16 17  1  0
 17 18  2  0
 18 19  1  0
 19 20  1  0
 20 21  1  0
 21 22  1  0
 22 23  1  0
 22 24  1  0
 24 25  1  0
 24 26  1  0
 19 27  1  0
 27 28  1  6
 27 29  1  0
 29 30  1  0
 30 31  1  0
 31 32  1  6
  7  5  1  0
 31 10  1  0
 31 13  1  0
 27 15  1  0
 24 18  1  0
  1 33  1  0
  1 34  1  0
  1 35  1  0
  2 36  1  1
  3 37  1  0
  3 38  1  0
  4 39  1  0
  4 40  1  0
  5 41  1  1
  8 42  1  0
  8 43  1  0
  8 44  1  0
  9 45  1  0
  9 46  1  0
  9 47  1  0
 10 48  1  1
 11 49  1  0
 11 50  1  0
 12 51  1  0
 12 52  1  0
 14 53  1  0
 14 54  1  0
 14 55  1  0
 15 56  1  6
 16 57  1  0
 16 58  1  0
 17 59  1  0
 19 60  1  1
 20 61  1  0
 20 62  1  0
 21 63  1  0
 21 64  1  0
 22 65  1  1
 23 66  1  0
 25 67  1  0
 25 68  1  0
 25 69  1  0
 26 70  1  0
 26 71  1  0
 26 72  1  0
 28 73  1  0
 28 74  1  0
 28 75  1  0
 29 76  1  0
 29 77  1  0
 30 78  1  0
 30 79  1  0
 32 80  1  0
 32 81  1  0
 32 82  1  0
M  END
>  <meeko>  (3) 
{"is_sidechain": [false], "intermolecular_energy": 2.731, "internal_energy": -0.839}

$$$$
EPH_relaxed_0001_pdb2pqr_Repair_334_r2_0001_out
     RDKit          3D

 82 86  0  0  0  0  0  0  0  0999 V2000
    0.7070   18.2940   -0.1160 C   0  0  0  0  0  0  0  0  0  0  0  0
    1.7200   17.2340   -0.5570 C   0  0  2  0  0  0  0  0  0  0  0  0
    2.7570   17.7980   -1.5480 C   0  0  0  0  0  0  0  0  0  0  0  0
    4.0390   18.3010   -0.8790 C   0  0  0  0  0  0  0  0  0  0  0  0
    3.8880   18.3910    0.6100 C   0  0  2  0  0  0  0  0  0  0  0  0
    3.6710   19.7160    1.1110 O   0  0  0  0  0  0  0  0  0  0  0  0
    4.8950   19.0790    1.5120 C   0  0  0  0  0  0  0  0  0  0  0  0
    6.1270   19.7240    0.9590 C   0  0  0  0  0  0  0  0  0  0  0  0
    4.9310   18.7030    2.9610 C   0  0  0  0  0  0  0  0  0  0  0  0
    0.9930   16.0490   -1.1820 C   0  0  1  0  0  0  0  0  0  0  0  0
    0.5490   16.3230   -2.6430 C   0  0  0  0  0  0  0  0  0  0  0  0
    0.6750   14.9810   -3.4080 C   0  0  0  0  0  0  0  0  0  0  0  0
    0.8640   13.9170   -2.3020 C   0  0  1  0  0  0  0  0  0  0  0  0
   -0.5770   13.6260   -1.7740 C   0  0  0  0  0  0  0  0  0  0  0  0
    1.5990   12.6040   -2.7240 C   0  0  2  0  0  0  0  0  0  0  0  0
    0.8830   11.7720   -3.8030 C   0  0  0  0  0  0  0  0  0  0  0  0
   -0.0660   10.7420   -3.2880 C   0  0  0  0  0  0  0  0  0  0  0  0
   -0.1250   10.2970   -2.0190 C   0  0  0  0  0  0  0  0  0  0  0  0
    0.8900   10.7690   -0.9710 C   0  0  1  0  0  0  0  0  0  0  0  0
    1.4190    9.5470   -0.1750 C   0  0  0  0  0  0  0  0  0  0  0  0
    0.2950    8.7150    0.4350 C   0  0  0  0  0  0  0  0  0  0  0  0
   -0.6610    8.2150   -0.6450 C   0  0  2  0  0  0  0  0  0  0  0  0
    0.0330    7.2820   -1.4790 O   0  0  0  0  0  0  0  0  0  0  0  0
   -1.2500    9.3580   -1.5180 C   0  0  0  0  0  0  0  0  0  0  0  0
   -2.2440   10.1970   -0.6760 C   0  0  0  0  0  0  0  0  0  0  0  0
   -2.0850    8.7090   -2.6550 C   0  0  0  0  0  0  0  0  0  0  0  0
    2.0610   11.7000   -1.5090 C   0  0  1  0  0  0  0  0  0  0  0  0
    3.2410   10.8230   -2.0300 C   0  0  0  0  0  0  0  0  0  0  0  0
    2.6330   12.5500   -0.3140 C   0  0  0  0  0  0  0  0  0  0  0  0
    1.9380   13.8940   -0.0220 C   0  0  0  0  0  0  0  0  0  0  0  0
    1.7770   14.7180   -1.3040 C   0  0  2  0  0  0  0  0  0  0  0  0
    3.2110   15.0440   -1.8450 C   0  0  0  0  0  0  0  0  0  0  0  0
    0.6708   18.3319    0.9828 H   0  0  0  0  0  0  0  0  0  0  0  0
    1.0105   19.2764   -0.5070 H   0  0  0  0  0  0  0  0  0  0  0  0
   -0.2881   18.0353   -0.5070 H   0  0  0  0  0  0  0  0  0  0  0  0
    2.2658   16.9049    0.3395 H   0  0  0  0  0  0  0  0  0  0  0  0
    3.0256   17.0030   -2.2592 H   0  0  0  0  0  0  0  0  0  0  0  0
    2.2915   18.6638   -2.0416 H   0  0  0  0  0  0  0  0  0  0  0  0
    4.8594   17.6066   -1.1129 H   0  0  0  0  0  0  0  0  0  0  0  0
    4.2543   19.3088   -1.2637 H   0  0  0  0  0  0  0  0  0  0  0  0
    3.4243   17.3942    0.6470 H   0  0  0  0  0  0  0  0  0  0  0  0
    6.7684   20.0598    1.7872 H   0  0  0  0  0  0  0  0  0  0  0  0
    6.6757   18.9975    0.3417 H   0  0  0  0  0  0  0  0  0  0  0  0
    5.8425   20.5889    0.3417 H   0  0  0  0  0  0  0  0  0  0  0  0
    4.8442   19.6099    3.5774 H   0  0  0  0  0  0  0  0  0  0  0  0
    4.0936   18.0258    3.1850 H   0  0  0  0  0  0  0  0  0  0  0  0
    5.8817   18.1970    3.1850 H   0  0  0  0  0  0  0  0  0  0  0  0
    0.1700   15.9367   -0.4609 H   0  0  0  0  0  0  0  0  0  0  0  0
   -0.4934   16.6737   -2.6626 H   0  0  0  0  0  0  0  0  0  0  0  0
    1.1731   17.1015   -3.1060 H   0  0  0  0  0  0  0  0  0  0  0  0
   -0.2364   14.7787   -3.9897 H   0  0  0  0  0  0  0  0  0  0  0  0
    1.5076   14.9875   -4.1269 H   0  0  0  0  0  0  0  0  0  0  0  0
   -0.5716   13.6271   -0.6740 H   0  0  0  0  0  0  0  0  0  0  0  0
   -1.2649   14.4034   -2.1381 H   0  0  0  0  0  0  0  0  0  0  0  0
   -0.9093   12.6426   -2.1381 H   0  0  0  0  0  0  0  0  0  0  0  0
    2.5123   12.9889   -3.2013 H   0  0  0  0  0  0  0  0  0  0  0  0
    0.3184   12.4631   -4.4462 H   0  0  0  0  0  0  0  0  0  0  0  0
    1.6718   11.2201   -4.3351 H   0  0  0  0  0  0  0  0  0  0  0  0
   -0.7779   10.3096   -4.0065 H   0  0  0  0  0  0  0  0  0  0  0  0
    0.3402   11.4435   -0.2980 H   0  0  0  0  0  0  0  0  0  0  0  0
    2.0012    8.9082   -0.8554 H   0  0  0  0  0  0  0  0  0  0  0  0
    2.0377    9.9287    0.6506 H   0  0  0  0  0  0  0  0  0  0  0  0
    0.7300    7.8511    0.9588 H   0  0  0  0  0  0  0  0  0  0  0  0
   -0.2682    9.3468    1.1375 H   0  0  0  0  0  0  0  0  0  0  0  0
   -1.5119    7.7375   -0.1371 H   0  0  0  0  0  0  0  0  0  0  0  0
   -0.5860    6.9880   -2.1690 H   0  0  0  0  0  0  0  0  0  0  0  0
   -2.0486   10.0320    0.3939 H   0  0  0  0  0  0  0  0  0  0  0  0
   -2.1152   11.2636   -0.9121 H   0  0  0  0  0  0  0  0  0  0  0  0
   -3.2739    9.8910   -0.9121 H   0  0  0  0  0  0  0  0  0  0  0  0
   -2.8817    8.0897   -2.2172 H   0  0  0  0  0  0  0  0  0  0  0  0
   -2.5336    9.4979   -3.2766 H   0  0  0  0  0  0  0  0  0  0  0  0
   -1.4312    8.0796   -3.2766 H   0  0  0  0  0  0  0  0  0  0  0  0
    3.7964   10.4102   -1.1749 H   0  0  0  0  0  0  0  0  0  0  0  0
    2.8436    9.9993   -2.6412 H   0  0  0  0  0  0  0  0  0  0  0  0
    3.9151   11.4410   -2.6412 H   0  0  0  0  0  0  0  0  0  0  0  0
    2.5633   11.9349    0.5952 H   0  0  0  0  0  0  0  0  0  0  0  0
    3.6576   12.8150   -0.6139 H   0  0  0  0  0  0  0  0  0  0  0  0
    0.9444   13.6994    0.4079 H   0  0  0  0  0  0  0  0  0  0  0  0
    2.5587   14.4635    0.6854 H   0  0  0  0  0  0  0  0  0  0  0  0
    3.8957   15.1997   -0.9983 H   0  0  0  0  0  0  0  0  0  0  0  0
    3.5711   14.2048   -2.4583 H   0  0  0  0  0  0  0  0  0  0  0  0
    3.1729   15.9564   -2.4583 H   0  0  0  0  0  0  0  0  0  0  0  0
  1  2  1  0
  2  3  1  0
  3  4  1  0
  4  5  1  0
  5  6  1  0
  6  7  1  0
  7  8  1  0
  7  9  1  0
  2 10  1  0
 10 11  1  0
 11 12  1  0
 12 13  1  0
 13 14  1  1
 13 15  1  0
 15 16  1  0
 16 17  1  0
 17 18  2  0
 18 19  1  0
 19 20  1  0
 20 21  1  0
 21 22  1  0
 22 23  1  0
 22 24  1  0
 24 25  1  0
 24 26  1  0
 19 27  1  0
 27 28  1  6
 27 29  1  0
 29 30  1  0
 30 31  1  0
 31 32  1  6
  7  5  1  0
 31 10  1  0
 31 13  1  0
 27 15  1  0
 24 18  1  0
  1 33  1  0
  1 34  1  0
  1 35  1  0
  2 36  1  1
  3 37  1  0
  3 38  1  0
  4 39  1  0
  4 40  1  0
  5 41  1  1
  8 42  1  0
  8 43  1  0
  8 44  1  0
  9 45  1  0
  9 46  1  0
  9 47  1  0
 10 48  1  1
 11 49  1  0
 11 50  1  0
 12 51  1  0
 12 52  1  0
 14 53  1  0
 14 54  1  0
 14 55  1  0
 15 56  1  6
 16 57  1  0
 16 58  1  0
 17 59  1  0
 19 60  1  1
 20 61  1  0
 20 62  1  0
 21 63  1  0
 21 64  1  0
 22 65  1  1
 23 66  1  0
 25 67  1  0
 25 68  1  0
 25 69  1  0
 26 70  1  0
 26 71  1  0
 26 72  1  0
 28 73  1  0
 28 74  1  0
 28 75  1  0
 29 76  1  0
 29 77  1  0
 30 78  1  0
 30 79  1  0
 32 80  1  0
 32 81  1  0
 32 82  1  0
M  END
>  <meeko>  (4) 
{"is_sidechain": [false], "intermolecular_energy": 2.731, "internal_energy": -0.839}

$$$$
EPH_relaxed_0001_pdb2pqr_Repair_334_r2_0001_out
     RDKit          3D

 82 86  0  0  0  0  0  0  0  0999 V2000
    3.0020   17.1000    0.1270 C   0  0  0  0  0  0  0  0  0  0  0  0
    2.3860   17.3370   -1.2550 C   0  0  2  0  0  0  0  0  0  0  0  0
    1.5970   18.6610   -1.3200 C   0  0  0  0  0  0  0  0  0  0  0  0
    1.0560   19.1220    0.0350 C   0  0  0  0  0  0  0  0  0  0  0  0
   -0.2020   19.9230   -0.1140 C   0  0  2  0  0  0  0  0  0  0  0  0
   -0.8890   20.1930    1.1150 O   0  0  0  0  0  0  0  0  0  0  0  0
   -1.5860   19.3680    0.1680 C   0  0  0  0  0  0  0  0  0  0  0  0
   -1.7820   17.9550    0.6200 C   0  0  0  0  0  0  0  0  0  0  0  0
   -2.7670   20.0380   -0.4610 C   0  0  0  0  0  0  0  0  0  0  0  0
    1.4770   16.1710   -1.6250 C   0  0  1  0  0  0  0  0  0  0  0  0
    0.7230   16.4020   -2.9620 C   0  0  0  0  0  0  0  0  0  0  0  0
    0.6020   15.0190   -3.6530 C   0  0  0  0  0  0  0  0  0  0  0  0
    0.9880   14.0000   -2.5550 C   0  0  1  0  0  0  0  0  0  0  0  0
   -0.3050   13.8250   -1.6980 C   0  0  0  0  0  0  0  0  0  0  0  0
    1.5410   12.6250   -3.0530 C   0  0  2  0  0  0  0  0  0  0  0  0
    0.5560   11.7890   -3.8890 C   0  0  0  0  0  0  0  0  0  0  0  0
   -0.3000   10.8450   -3.1100 C   0  0  0  0  0  0  0  0  0  0  0  0
   -0.0870   10.4660   -1.8360 C   0  0  0  0  0  0  0  0  0  0  0  0
    1.1640   10.9240   -1.0770 C   0  0  1  0  0  0  0  0  0  0  0  0
    1.8010    9.7110   -0.3490 C   0  0  0  0  0  0  0  0  0  0  0  0
    0.8080    8.9800    0.5490 C   0  0  0  0  0  0  0  0  0  0  0  0
   -0.3950    8.4900   -0.2530 C   0  0  2  0  0  0  0  0  0  0  0  0
    0.0410    7.4760   -1.1640 O   0  0  0  0  0  0  0  0  0  0  0  0
   -1.1120    9.6240   -1.0370 C   0  0  0  0  0  0  0  0  0  0  0  0
   -1.8430   10.5620   -0.0440 C   0  0  0  0  0  0  0  0  0  0  0  0
   -2.2170    8.9740   -1.9130 C   0  0  0  0  0  0  0  0  0  0  0  0
    2.2240   11.7540   -1.9220 C   0  0  1  0  0  0  0  0  0  0  0  0
    3.2080   10.7820   -2.6430 C   0  0  0  0  0  0  0  0  0  0  0  0
    3.0970   12.6230   -0.9420 C   0  0  0  0  0  0  0  0  0  0  0  0
    2.5550   14.0200   -0.5820 C   0  0  0  0  0  0  0  0  0  0  0  0
    2.1450   14.7900   -1.8410 C   0  0  2  0  0  0  0  0  0  0  0  0
    3.4300   15.0000   -2.7130 C   0  0  0  0  0  0  0  0  0  0  0  0
    2.2760   17.3793    0.9048 H   0  0  0  0  0  0  0  0  0  0  0  0
    3.2637   16.0370    0.2344 H   0  0  0  0  0  0  0  0  0  0  0  0
    3.9087   17.7135    0.2344 H   0  0  0  0  0  0  0  0  0  0  0  0
    3.2121   17.4090   -1.9778 H   0  0  0  0  0  0  0  0  0  0  0  0
    2.2633   19.4434   -1.7123 H   0  0  0  0  0  0  0  0  0  0  0  0
    0.7274   18.4853   -1.9703 H   0  0  0  0  0  0  0  0  0  0  0  0
    0.8443   18.2376    0.6540 H   0  0  0  0  0  0  0  0  0  0  0  0
    1.8158   19.7615    0.5081 H   0  0  0  0  0  0  0  0  0  0  0  0
    0.2153   20.4612   -0.9778 H   0  0  0  0  0  0  0  0  0  0  0  0
   -1.7870   17.9191    1.7194 H   0  0  0  0  0  0  0  0  0  0  0  0
   -2.7412   17.5770    0.2364 H   0  0  0  0  0  0  0  0  0  0  0  0
   -0.9619   17.3302    0.2364 H   0  0  0  0  0  0  0  0  0  0  0  0
   -3.4355   20.4173    0.3259 H   0  0  0  0  0  0  0  0  0  0  0  0
   -2.4236   20.8758   -1.0856 H   0  0  0  0  0  0  0  0  0  0  0  0
   -3.3100   19.3134   -1.0856 H   0  0  0  0  0  0  0  0  0  0  0  0
    0.8375   16.1445   -0.7304 H   0  0  0  0  0  0  0  0  0  0  0  0
   -0.2770   16.8162   -2.7661 H   0  0  0  0  0  0  0  0  0  0  0  0
    1.2625   17.1166   -3.6010 H   0  0  0  0  0  0  0  0  0  0  0  0
   -0.4279   14.8462   -3.9986 H   0  0  0  0  0  0  0  0  0  0  0  0
    1.2451   14.9387   -4.5418 H   0  0  0  0  0  0  0  0  0  0  0  0
   -0.0445   13.8603   -0.6299 H   0  0  0  0  0  0  0  0  0  0  0  0
   -1.0113   14.6357   -1.9301 H   0  0  0  0  0  0  0  0  0  0  0  0
   -0.7703   12.8557   -1.9301 H   0  0  0  0  0  0  0  0  0  0  0  0
    2.3380   12.9287   -3.7476 H   0  0  0  0  0  0  0  0  0  0  0  0
   -0.1062   12.4825   -4.4281 H   0  0  0  0  0  0  0  0  0  0  0  0
    1.1729   11.1644   -4.5518 H   0  0  0  0  0  0  0  0  0  0  0  0
   -1.1787   10.4239   -3.6204 H   0  0  0  0  0  0  0  0  0  0  0  0
    0.8179   11.6629   -0.3393 H   0  0  0  0  0  0  0  0  0  0  0  0
    2.1793    9.0058   -1.1037 H   0  0  0  0  0  0  0  0  0  0  0  0
    2.6107   10.0929    0.2902 H   0  0  0  0  0  0  0  0  0  0  0  0
    1.3086    8.1163    1.0109 H   0  0  0  0  0  0  0  0  0  0  0  0
    0.4539    9.6781    1.3218 H   0  0  0  0  0  0  0  0  0  0  0  0
   -1.1291    8.0920    0.4630 H   0  0  0  0  0  0  0  0  0  0  0  0
   -0.6660    6.8120   -1.2260 H   0  0  0  0  0  0  0  0  0  0  0  0
   -1.6074   10.2597    0.9871 H   0  0  0  0  0  0  0  0  0  0  0  0
   -1.5119   11.5982   -0.2070 H   0  0  0  0  0  0  0  0  0  0  0  0
   -2.9287   10.4941   -0.2070 H   0  0  0  0  0  0  0  0  0  0  0  0
   -2.9823    8.5238   -1.2636 H   0  0  0  0  0  0  0  0  0  0  0  0
   -2.6812    9.7430   -2.5480 H   0  0  0  0  0  0  0  0  0  0  0  0
   -1.7704    8.1947   -2.5480 H   0  0  0  0  0  0  0  0  0  0  0  0
    3.7804   10.2166   -1.8928 H   0  0  0  0  0  0  0  0  0  0  0  0
    2.6376   10.0830   -3.2723 H   0  0  0  0  0  0  0  0  0  0  0  0
    3.9000   11.3609   -3.2723 H   0  0  0  0  0  0  0  0  0  0  0  0
    3.2081   12.0575   -0.0050 H   0  0  0  0  0  0  0  0  0  0  0  0
    4.0369   12.8093   -1.4822 H   0  0  0  0  0  0  0  0  0  0  0  0
    1.6783   13.9081    0.0729 H   0  0  0  0  0  0  0  0  0  0  0  0
    3.3490   14.5830   -0.0695 H   0  0  0  0  0  0  0  0  0  0  0  0
    4.3002   15.1422   -2.0553 H   0  0  0  0  0  0  0  0  0  0  0  0
    3.5908   14.1162   -3.3479 H   0  0  0  0  0  0  0  0  0  0  0  0
    3.3010   15.8890   -3.3479 H   0  0  0  0  0  0  0  0  0  0  0  0
  1  2  1  0
  2  3  1  0
  3  4  1  0
  4  5  1  0
  5  6  1  0
  6  7  1  0
  7  8  1  0
  7  9  1  0
  2 10  1  0
 10 11  1  0
 11 12  1  0
 12 13  1  0
 13 14  1  1
 13 15  1  0
 15 16  1  0
 16 17  1  0
 17 18  2  0
 18 19  1  0
 19 20  1  0
 20 21  1  0
 21 22  1  0
 22 23  1  0
 22 24  1  0
 24 25  1  0
 24 26  1  0
 19 27  1  0
 27 28  1  6
 27 29  1  0
 29 30  1  0
 30 31  1  0
 31 32  1  6
  7  5  1  0
 31 10  1  0
 31 13  1  0
 27 15  1  0
 24 18  1  0
  1 33  1  0
  1 34  1  0
  1 35  1  0
  2 36  1  6
  3 37  1  0
  3 38  1  0
  4 39  1  0
  4 40  1  0
  5 41  1  6
  8 42  1  0
  8 43  1  0
  8 44  1  0
  9 45  1  0
  9 46  1  0
  9 47  1  0
 10 48  1  1
 11 49  1  0
 11 50  1  0
 12 51  1  0
 12 52  1  0
 14 53  1  0
 14 54  1  0
 14 55  1  0
 15 56  1  6
 16 57  1  0
 16 58  1  0
 17 59  1  0
 19 60  1  1
 20 61  1  0
 20 62  1  0
 21 63  1  0
 21 64  1  0
 22 65  1  1
 23 66  1  0
 25 67  1  0
 25 68  1  0
 25 69  1  0
 26 70  1  0
 26 71  1  0
 26 72  1  0
 28 73  1  0
 28 74  1  0
 28 75  1  0
 29 76  1  0
 29 77  1  0
 30 78  1  0
 30 79  1  0
 32 80  1  0
 32 81  1  0
 32 82  1  0
M  END
>  <meeko>  (5) 
{"is_sidechain": [false], "intermolecular_energy": 2.731, "internal_energy": -0.839}

$$$$
EPH_relaxed_0001_pdb2pqr_Repair_334_r2_0001_out
     RDKit          3D

 82 86  0  0  0  0  0  0  0  0999 V2000
   -0.6260    7.8750   -0.5900 C   0  0  0  0  0  0  0  0  0  0  0  0
   -1.0630    9.2340   -0.0360 C   0  0  2  0  0  0  0  0  0  0  0  0
   -2.3220    9.7720   -0.7460 C   0  0  0  0  0  0  0  0  0  0  0  0
   -3.6340    9.2940   -0.1180 C   0  0  0  0  0  0  0  0  0  0  0  0
   -4.0100    7.9230   -0.5950 C   0  0  2  0  0  0  0  0  0  0  0  0
   -4.1010    7.7890   -2.0190 O   0  0  0  0  0  0  0  0  0  0  0  0
   -5.3230    7.6080   -1.2850 C   0  0  0  0  0  0  0  0  0  0  0  0
   -6.3470    8.6710   -1.5370 C   0  0  0  0  0  0  0  0  0  0  0  0
   -5.8170    6.1950   -1.2740 C   0  0  0  0  0  0  0  0  0  0  0  0
    0.0760   10.2390   -0.1640 C   0  0  1  0  0  0  0  0  0  0  0  0
    1.4730    9.5630   -0.1480 C   0  0  0  0  0  0  0  0  0  0  0  0
    2.3780   10.3850   -1.1020 C   0  0  0  0  0  0  0  0  0  0  0  0
    1.5810   11.6830   -1.3730 C   0  0  1  0  0  0  0  0  0  0  0  0
    1.8550   12.5880   -0.1300 C   0  0  0  0  0  0  0  0  0  0  0  0
    1.9050   12.4260   -2.7100 C   0  0  2  0  0  0  0  0  0  0  0  0
    3.3490   12.9420   -2.8360 C   0  0  0  0  0  0  0  0  0  0  0  0
    3.5760   14.3310   -2.3370 C   0  0  0  0  0  0  0  0  0  0  0  0
    2.6140   15.2340   -2.0720 C   0  0  0  0  0  0  0  0  0  0  0  0
    1.1410   14.9240   -2.3650 C   0  0  1  0  0  0  0  0  0  0  0  0
    0.4920   16.1310   -3.0910 C   0  0  0  0  0  0  0  0  0  0  0  0
    0.6720   17.4390   -2.3270 C   0  0  0  0  0  0  0  0  0  0  0  0
    2.1520   17.7420   -2.1050 C   0  0  2  0  0  0  0  0  0  0  0  0
    2.7620   18.0080   -3.3720 O   0  0  0  0  0  0  0  0  0  0  0  0
    2.9130   16.5920   -1.3890 C   0  0  0  0  0  0  0  0  0  0  0  0
    2.4550   16.5050    0.0870 C   0  0  0  0  0  0  0  0  0  0  0  0
    4.4190   16.9640   -1.3550 C   0  0  0  0  0  0  0  0  0  0  0  0
    0.8550   13.5440   -3.1010 C   0  0  1  0  0  0  0  0  0  0  0  0
    0.9600   13.7330   -4.6450 C   0  0  0  0  0  0  0  0  0  0  0  0
   -0.6270   13.1020   -2.8070 C   0  0  0  0  0  0  0  0  0  0  0  0
   -0.8640   12.2680   -1.5330 C   0  0  0  0  0  0  0  0  0  0  0  0
    0.1240   11.1000   -1.4510 C   0  0  2  0  0  0  0  0  0  0  0  0
   -0.1420   10.1610   -2.6760 C   0  0  0  0  0  0  0  0  0  0  0  0
   -0.4065    7.1924    0.2442 H   0  0  0  0  0  0  0  0  0  0  0  0
   -1.4338    7.4532   -1.2061 H   0  0  0  0  0  0  0  0  0  0  0  0
    0.2762    8.0031   -1.2061 H   0  0  0  0  0  0  0  0  0  0  0  0
   -1.3162    9.0928    1.0251 H   0  0  0  0  0  0  0  0  0  0  0  0
   -2.2991   10.8711   -0.7083 H   0  0  0  0  0  0  0  0  0  0  0  0
   -2.2995    9.3870   -1.7762 H   0  0  0  0  0  0  0  0  0  0  0  0
   -3.5184    9.2717    0.9757 H   0  0  0  0  0  0  0  0  0  0  0  0
   -4.4309    9.9913   -0.4160 H   0  0  0  0  0  0  0  0  0  0  0  0
   -3.4966    7.4592    0.2602 H   0  0  0  0  0  0  0  0  0  0  0  0
   -6.7188    9.0570   -0.5764 H   0  0  0  0  0  0  0  0  0  0  0  0
   -5.8904    9.4916   -2.1099 H   0  0  0  0  0  0  0  0  0  0  0  0
   -7.1840    8.2453   -2.1099 H   0  0  0  0  0  0  0  0  0  0  0  0
   -5.9355    5.8561   -0.2342 H   0  0  0  0  0  0  0  0  0  0  0  0
   -6.7871    6.1417   -1.7898 H   0  0  0  0  0  0  0  0  0  0  0  0
   -5.0914    5.5489   -1.7898 H   0  0  0  0  0  0  0  0  0  0  0  0
   -0.1413   10.8759    0.7061 H   0  0  0  0  0  0  0  0  0  0  0  0
    1.8876    9.5741    0.8708 H   0  0  0  0  0  0  0  0  0  0  0  0
    1.4080    8.5136   -0.4714 H   0  0  0  0  0  0  0  0  0  0  0  0
    3.3413   10.6136   -0.6226 H   0  0  0  0  0  0  0  0  0  0  0  0
    2.6137    9.8390   -2.0274 H   0  0  0  0  0  0  0  0  0  0  0  0
    1.6801   12.0105    0.7897 H   0  0  0  0  0  0  0  0  0  0  0  0
    2.8985   12.9352   -0.1521 H   0  0  0  0  0  0  0  0  0  0  0  0
    1.1793   13.4557   -0.1521 H   0  0  0  0  0  0  0  0  0  0  0  0
    1.8087   11.6231   -3.4558 H   0  0  0  0  0  0  0  0  0  0  0  0
    4.0027   12.2651   -2.2663 H   0  0  0  0  0  0  0  0  0  0  0  0
    3.5707   12.9657   -3.9132 H   0  0  0  0  0  0  0  0  0  0  0  0
    4.6180   14.6425   -2.1720 H   0  0  0  0  0  0  0  0  0  0  0  0
    0.6619   14.7752   -1.3861 H   0  0  0  0  0  0  0  0  0  0  0  0
    0.9546   16.2358   -4.0835 H   0  0  0  0  0  0  0  0  0  0  0  0
   -0.5876   15.9342   -3.1663 H   0  0  0  0  0  0  0  0  0  0  0  0
    0.2194   18.2585   -2.9046 H   0  0  0  0  0  0  0  0  0  0  0  0
    0.1823   17.3433   -1.3467 H   0  0  0  0  0  0  0  0  0  0  0  0
    2.2140   18.6176   -1.4421 H   0  0  0  0  0  0  0  0  0  0  0  0
    3.0600   18.9330   -3.3670 H   0  0  0  0  0  0  0  0  0  0  0  0
    3.3181   16.6689    0.7490 H   0  0  0  0  0  0  0  0  0  0  0  0
    1.6931   17.2745    0.2805 H   0  0  0  0  0  0  0  0  0  0  0  0
    2.0283   15.5097    0.2805 H   0  0  0  0  0  0  0  0  0  0  0  0
    4.7528   17.0465   -0.3101 H   0  0  0  0  0  0  0  0  0  0  0  0
    5.0013   16.1827   -1.8654 H   0  0  0  0  0  0  0  0  0  0  0  0
    4.5705   17.9266   -1.8654 H   0  0  0  0  0  0  0  0  0  0  0  0
    1.4835   14.6753   -4.8643 H   0  0  0  0  0  0  0  0  0  0  0  0
    1.5204   12.8924   -5.0800 H   0  0  0  0  0  0  0  0  0  0  0  0
   -0.0498   13.7647   -5.0800 H   0  0  0  0  0  0  0  0  0  0  0  0
   -1.2363   14.0142   -2.7256 H   0  0  0  0  0  0  0  0  0  0  0  0
   -0.8998   12.4379   -3.6404 H   0  0  0  0  0  0  0  0  0  0  0  0
   -0.7332   12.9126   -0.6513 H   0  0  0  0  0  0  0  0  0  0  0  0
   -1.8858   11.8618   -1.5645 H   0  0  0  0  0  0  0  0  0  0  0  0
   -0.4254    9.1607   -2.3165 H   0  0  0  0  0  0  0  0  0  0  0  0
   -0.9579   10.5762   -3.2859 H   0  0  0  0  0  0  0  0  0  0  0  0
    0.7704   10.0866   -3.2859 H   0  0  0  0  0  0  0  0  0  0  0  0
  1  2  1  0
  2  3  1  0
  3  4  1  0
  4  5  1  0
  5  6  1  0
  6  7  1  0
  7  8  1  0
  7  9  1  0
  2 10  1  0
 10 11  1  0
 11 12  1  0
 12 13  1  0
 13 14  1  1
 13 15  1  0
 15 16  1  0
 16 17  1  0
 17 18  2  0
 18 19  1  0
 19 20  1  0
 20 21  1  0
 21 22  1  0
 22 23  1  0
 22 24  1  0
 24 25  1  0
 24 26  1  0
 19 27  1  0
 27 28  1  6
 27 29  1  0
 29 30  1  0
 30 31  1  0
 31 32  1  6
  7  5  1  0
 31 10  1  0
 31 13  1  0
 27 15  1  0
 24 18  1  0
  1 33  1  0
  1 34  1  0
  1 35  1  0
  2 36  1  1
  3 37  1  0
  3 38  1  0
  4 39  1  0
  4 40  1  0
  5 41  1  1
  8 42  1  0
  8 43  1  0
  8 44  1  0
  9 45  1  0
  9 46  1  0
  9 47  1  0
 10 48  1  1
 11 49  1  0
 11 50  1  0
 12 51  1  0
 12 52  1  0
 14 53  1  0
 14 54  1  0
 14 55  1  0
 15 56  1  6
 16 57  1  0
 16 58  1  0
 17 59  1  0
 19 60  1  1
 20 61  1  0
 20 62  1  0
 21 63  1  0
 21 64  1  0
 22 65  1  1
 23 66  1  0
 25 67  1  0
 25 68  1  0
 25 69  1  0
 26 70  1  0
 26 71  1  0
 26 72  1  0
 28 73  1  0
 28 74  1  0
 28 75  1  0
 29 76  1  0
 29 77  1  0
 30 78  1  0
 30 79  1  0
 32 80  1  0
 32 81  1  0
 32 82  1  0
M  END
>  <meeko>  (6) 
{"is_sidechain": [false], "intermolecular_energy": 2.731, "internal_energy": -0.839}

$$$$
EPH_relaxed_0001_pdb2pqr_Repair_334_r2_0001_out
     RDKit          3D

 82 86  0  0  0  0  0  0  0  0999 V2000
    1.5870   17.7800   -2.8000 C   0  0  0  0  0  0  0  0  0  0  0  0
    2.6750   17.0830   -1.9790 C   0  0  2  0  0  0  0  0  0  0  0  0
    4.0850   17.6030   -2.3220 C   0  0  0  0  0  0  0  0  0  0  0  0
    4.8720   18.0970   -1.1050 C   0  0  0  0  0  0  0  0  0  0  0  0
    3.9620   18.5190    0.0090 C   0  0  2  0  0  0  0  0  0  0  0  0
    3.5250   19.8830   -0.0590 O   0  0  0  0  0  0  0  0  0  0  0  0
    4.3500   19.5370    1.0660 C   0  0  0  0  0  0  0  0  0  0  0  0
    5.6940   20.1940    1.0600 C   0  0  0  0  0  0  0  0  0  0  0  0
    3.6170   19.5280    2.3710 C   0  0  0  0  0  0  0  0  0  0  0  0
    2.6080   15.5760   -2.2000 C   0  0  1  0  0  0  0  0  0  0  0  0
    3.9900   14.9610   -2.5450 C   0  0  0  0  0  0  0  0  0  0  0  0
    4.0260   13.5510   -1.9000 C   0  0  0  0  0  0  0  0  0  0  0  0
    2.5600   13.2700   -1.4950 C   0  0  1  0  0  0  0  0  0  0  0  0
    1.8660   12.7900   -2.8080 C   0  0  0  0  0  0  0  0  0  0  0  0
    2.3490   12.2550   -0.3250 C   0  0  2  0  0  0  0  0  0  0  0  0
    2.8490   10.8270   -0.6030 C   0  0  0  0  0  0  0  0  0  0  0  0
    1.8440    9.9050   -1.2100 C   0  0  0  0  0  0  0  0  0  0  0  0
    0.5160   10.1200   -1.2600 C   0  0  0  0  0  0  0  0  0  0  0  0
   -0.1100   11.3440   -0.5790 C   0  0  1  0  0  0  0  0  0  0  0  0
   -1.3570   10.9040    0.2310 C   0  0  0  0  0  0  0  0  0  0  0  0
   -2.3620   10.1290   -0.6160 C   0  0  0  0  0  0  0  0  0  0  0  0
   -1.7180    8.8880   -1.2280 C   0  0  2  0  0  0  0  0  0  0  0  0
   -1.3900    7.9740   -0.1770 O   0  0  0  0  0  0  0  0  0  0  0  0
   -0.4450    9.2060   -2.0610 C   0  0  0  0  0  0  0  0  0  0  0  0
   -0.8450    9.9450   -3.3620 C   0  0  0  0  0  0  0  0  0  0  0  0
    0.1860    7.8580   -2.5030 C   0  0  0  0  0  0  0  0  0  0  0  0
    0.8830   12.2480    0.2710 C   0  0  1  0  0  0  0  0  0  0  0  0
    0.9950   11.6930    1.7240 C   0  0  0  0  0  0  0  0  0  0  0  0
    0.2800   13.6970    0.3940 C   0  0  0  0  0  0  0  0  0  0  0  0
    0.6230   14.6900   -0.7330 C   0  0  0  0  0  0  0  0  0  0  0  0
    2.1290   14.7030   -1.0130 C   0  0  2  0  0  0  0  0  0  0  0  0
    2.8520   15.2040    0.2840 C   0  0  0  0  0  0  0  0  0  0  0  0
    0.8581   18.2470   -2.1213 H   0  0  0  0  0  0  0  0  0  0  0  0
    2.0451   18.5532   -3.4343 H   0  0  0  0  0  0  0  0  0  0  0  0
    1.0761   17.0407   -3.4343 H   0  0  0  0  0  0  0  0  0  0  0  0
    2.4874   17.3125   -0.9197 H   0  0  0  0  0  0  0  0  0  0  0  0
    4.6512   16.7862   -2.7934 H   0  0  0  0  0  0  0  0  0  0  0  0
    3.9552   18.4654   -2.9924 H   0  0  0  0  0  0  0  0  0  0  0  0
    5.5215   17.2847   -0.7466 H   0  0  0  0  0  0  0  0  0  0  0  0
    5.4664   18.9702   -1.4120 H   0  0  0  0  0  0  0  0  0  0  0  0
    3.5402   17.5056    0.0802 H   0  0  0  0  0  0  0  0  0  0  0  0
    6.0271   20.3569    2.0956 H   0  0  0  0  0  0  0  0  0  0  0  0
    6.4160   19.5472    0.5400 H   0  0  0  0  0  0  0  0  0  0  0  0
    5.6271   21.1610    0.5400 H   0  0  0  0  0  0  0  0  0  0  0  0
    4.3416   19.5369    3.1986 H   0  0  0  0  0  0  0  0  0  0  0  0
    2.9743   20.4183    2.4367 H   0  0  0  0  0  0  0  0  0  0  0  0
    2.9964   18.6222    2.4367 H   0  0  0  0  0  0  0  0  0  0  0  0
    1.8688   15.5422   -3.0139 H   0  0  0  0  0  0  0  0  0  0  0  0
    4.1076   14.8817   -3.6358 H   0  0  0  0  0  0  0  0  0  0  0  0
    4.8083   15.5902   -2.1648 H   0  0  0  0  0  0  0  0  0  0  0  0
    4.3794   12.8018   -2.6237 H   0  0  0  0  0  0  0  0  0  0  0  0
    4.7126   13.5020   -1.0420 H   0  0  0  0  0  0  0  0  0  0  0  0
    0.9854   12.1809   -2.5558 H   0  0  0  0  0  0  0  0  0  0  0  0
    1.5508   13.6641   -3.3968 H   0  0  0  0  0  0  0  0  0  0  0  0
    2.5726   12.1867   -3.3968 H   0  0  0  0  0  0  0  0  0  0  0  0
    3.0096   12.6564    0.4577 H   0  0  0  0  0  0  0  0  0  0  0  0
    3.7059   10.8948   -1.2894 H   0  0  0  0  0  0  0  0  0  0  0  0
    3.1020   10.3975    0.3776 H   0  0  0  0  0  0  0  0  0  0  0  0
    2.2202    8.9714   -1.6537 H   0  0  0  0  0  0  0  0  0  0  0  0
   -0.4126   12.0223   -1.3904 H   0  0  0  0  0  0  0  0  0  0  0  0
   -1.0290   10.2634    1.0629 H   0  0  0  0  0  0  0  0  0  0  0  0
   -1.8576   11.8140    0.5934 H   0  0  0  0  0  0  0  0  0  0  0  0
   -3.2057    9.8207    0.0189 H   0  0  0  0  0  0  0  0  0  0  0  0
   -2.7112   10.7809   -1.4303 H   0  0  0  0  0  0  0  0  0  0  0  0
   -2.4461    8.4474   -1.9249 H   0  0  0  0  0  0  0  0  0  0  0  0
   -0.4270    8.0050   -0.0500 H   0  0  0  0  0  0  0  0  0  0  0  0
   -1.3544   10.8861   -3.1073 H   0  0  0  0  0  0  0  0  0  0  0  0
    0.0575   10.1644   -3.9514 H   0  0  0  0  0  0  0  0  0  0  0  0
   -1.5222    9.3094   -3.9514 H   0  0  0  0  0  0  0  0  0  0  0  0
    0.4602    7.2723   -1.6132 H   0  0  0  0  0  0  0  0  0  0  0  0
   -0.5410    7.2926   -3.1045 H   0  0  0  0  0  0  0  0  0  0  0  0
    1.0859    8.0541   -3.1045 H   0  0  0  0  0  0  0  0  0  0  0  0
    0.8302   12.5097    2.4422 H   0  0  0  0  0  0  0  0  0  0  0  0
    0.2365   10.9112    1.8774 H   0  0  0  0  0  0  0  0  0  0  0  0
    1.9973   11.2666    1.8774 H   0  0  0  0  0  0  0  0  0  0  0  0
   -0.8151   13.5998    0.4300 H   0  0  0  0  0  0  0  0  0  0  0  0
    0.7351   14.1222    1.3007 H   0  0  0  0  0  0  0  0  0  0  0  0
    0.0894   14.3939   -1.6482 H   0  0  0  0  0  0  0  0  0  0  0  0
    0.3163   15.6981   -0.4175 H   0  0  0  0  0  0  0  0  0  0  0  0
    2.3157   14.8324    1.1696 H   0  0  0  0  0  0  0  0  0  0  0  0
    3.8855   14.8274    0.2964 H   0  0  0  0  0  0  0  0  0  0  0  0
    2.8624   16.3039    0.2964 H   0  0  0  0  0  0  0  0  0  0  0  0
  1  2  1  0
  2  3  1  0
  3  4  1  0
  4  5  1  0
  5  6  1  0
  6  7  1  0
  7  8  1  0
  7  9  1  0
  2 10  1  0
 10 11  1  0
 11 12  1  0
 12 13  1  0
 13 14  1  6
 13 15  1  0
 15 16  1  0
 16 17  1  0
 17 18  2  0
 18 19  1  0
 19 20  1  0
 20 21  1  0
 21 22  1  0
 22 23  1  0
 22 24  1  0
 24 25  1  0
 24 26  1  0
 19 27  1  0
 27 28  1  1
 27 29  1  0
 29 30  1  0
 30 31  1  0
 31 32  1  1
  7  5  1  0
 31 10  1  0
 31 13  1  0
 27 15  1  0
 24 18  1  0
  1 33  1  0
  1 34  1  0
  1 35  1  0
  2 36  1  1
  3 37  1  0
  3 38  1  0
  4 39  1  0
  4 40  1  0
  5 41  1  1
  8 42  1  0
  8 43  1  0
  8 44  1  0
  9 45  1  0
  9 46  1  0
  9 47  1  0
 10 48  1  6
 11 49  1  0
 11 50  1  0
 12 51  1  0
 12 52  1  0
 14 53  1  0
 14 54  1  0
 14 55  1  0
 15 56  1  1
 16 57  1  0
 16 58  1  0
 17 59  1  0
 19 60  1  6
 20 61  1  0
 20 62  1  0
 21 63  1  0
 21 64  1  0
 22 65  1  6
 23 66  1  0
 25 67  1  0
 25 68  1  0
 25 69  1  0
 26 70  1  0
 26 71  1  0
 26 72  1  0
 28 73  1  0
 28 74  1  0
 28 75  1  0
 29 76  1  0
 29 77  1  0
 30 78  1  0
 30 79  1  0
 32 80  1  0
 32 81  1  0
 32 82  1  0
M  END
>  <meeko>  (7) 
{"is_sidechain": [false], "intermolecular_energy": 2.731, "internal_energy": -0.839}

$$$$
EPH_relaxed_0001_pdb2pqr_Repair_334_r2_0001_out
     RDKit          3D

 82 86  0  0  0  0  0  0  0  0999 V2000
    3.8270   18.0120   -1.2310 C   0  0  0  0  0  0  0  0  0  0  0  0
    2.8480   17.5750   -2.3240 C   0  0  2  0  0  0  0  0  0  0  0  0
    1.4200   18.0980   -2.0680 C   0  0  0  0  0  0  0  0  0  0  0  0
    1.2740   18.8690   -0.7530 C   0  0  0  0  0  0  0  0  0  0  0  0
    0.0250   19.6970   -0.7310 C   0  0  2  0  0  0  0  0  0  0  0  0
   -0.3420   20.1940    0.5620 O   0  0  0  0  0  0  0  0  0  0  0  0
   -1.2550   19.2630   -0.0410 C   0  0  0  0  0  0  0  0  0  0  0  0
   -1.3490   17.9530    0.6760 C   0  0  0  0  0  0  0  0  0  0  0  0
   -2.5470   19.8810   -0.4750 C   0  0  0  0  0  0  0  0  0  0  0  0
    2.8340   16.0550   -2.4320 C   0  0  1  0  0  0  0  0  0  0  0  0
    4.2580   15.4520   -2.5600 C   0  0  0  0  0  0  0  0  0  0  0  0
    4.2400   14.0970   -1.8060 C   0  0  0  0  0  0  0  0  0  0  0  0
    2.7410   13.8090   -1.5570 C   0  0  1  0  0  0  0  0  0  0  0  0
    2.2190   13.2120   -2.9020 C   0  0  0  0  0  0  0  0  0  0  0  0
    2.4070   12.8810   -0.3450 C   0  0  2  0  0  0  0  0  0  0  0  0
    2.9620   11.4490   -0.4470 C   0  0  0  0  0  0  0  0  0  0  0  0
    2.0540   10.4580   -1.0960 C   0  0  0  0  0  0  0  0  0  0  0  0
    0.7380   10.6320   -1.3200 C   0  0  0  0  0  0  0  0  0  0  0  0
    0.0130   11.8880   -0.8180 C   0  0  1  0  0  0  0  0  0  0  0  0
   -1.3150   11.4780   -0.1290 C   0  0  0  0  0  0  0  0  0  0  0  0
   -2.1970   10.6150   -1.0260 C   0  0  0  0  0  0  0  0  0  0  0  0
   -1.4620    9.3480   -1.4570 C   0  0  2  0  0  0  0  0  0  0  0  0
   -1.2470    8.5250   -0.3060 O   0  0  0  0  0  0  0  0  0  0  0  0
   -0.1030    9.6360   -2.1550 C   0  0  0  0  0  0  0  0  0  0  0  0
   -0.3560   10.2610   -3.5490 C   0  0  0  0  0  0  0  0  0  0  0  0
    0.6000    8.2750   -2.4110 C   0  0  0  0  0  0  0  0  0  0  0  0
    0.8800   12.8800    0.0710 C   0  0  1  0  0  0  0  0  0  0  0  0
    0.8260   12.4410    1.5660 C   0  0  0  0  0  0  0  0  0  0  0  0
    0.2420   14.3180    0.0070 C   0  0  0  0  0  0  0  0  0  0  0  0
    0.7020   15.2310   -1.1460 C   0  0  0  0  0  0  0  0  0  0  0  0
    2.2300   15.2630   -1.2450 C   0  0  2  0  0  0  0  0  0  0  0  0
    2.7820   15.8800    0.0850 C   0  0  0  0  0  0  0  0  0  0  0  0
    3.3854   17.8149   -0.2430 H   0  0  0  0  0  0  0  0  0  0  0  0
    4.7656   17.4474   -1.3323 H   0  0  0  0  0  0  0  0  0  0  0  0
    4.0334   19.0877   -1.3323 H   0  0  0  0  0  0  0  0  0  0  0  0
    3.1946   18.0120   -3.2721 H   0  0  0  0  0  0  0  0  0  0  0  0
    1.1414   18.7669   -2.8956 H   0  0  0  0  0  0  0  0  0  0  0  0
    0.7627   17.2186   -2.0001 H   0  0  0  0  0  0  0  0  0  0  0  0
    1.2401   18.1507    0.0794 H   0  0  0  0  0  0  0  0  0  0  0  0
    2.1356   19.5458   -0.6551 H   0  0  0  0  0  0  0  0  0  0  0  0
    0.2264   20.0689   -1.7464 H   0  0  0  0  0  0  0  0  0  0  0  0
   -1.3365   18.1277    1.7620 H   0  0  0  0  0  0  0  0  0  0  0  0
   -2.2857   17.4484    0.3966 H   0  0  0  0  0  0  0  0  0  0  0  0
   -0.4940   17.3199    0.3966 H   0  0  0  0  0  0  0  0  0  0  0  0
   -3.1349   20.1622    0.4112 H   0  0  0  0  0  0  0  0  0  0  0  0
   -2.3403   20.7778   -1.0776 H   0  0  0  0  0  0  0  0  0  0  0  0
   -3.1155   19.1573   -1.0776 H   0  0  0  0  0  0  0  0  0  0  0  0
    2.1996   15.9396   -3.3232 H   0  0  0  0  0  0  0  0  0  0  0  0
    4.5080   15.2927   -3.6193 H   0  0  0  0  0  0  0  0  0  0  0  0
    5.0133   16.1298   -2.1358 H   0  0  0  0  0  0  0  0  0  0  0  0
    4.6908   13.3043   -2.4211 H   0  0  0  0  0  0  0  0  0  0  0  0
    4.8189   14.1320   -0.8713 H   0  0  0  0  0  0  0  0  0  0  0  0
    1.5084   12.3993   -2.6911 H   0  0  0  0  0  0  0  0  0  0  0  0
    1.7143   13.9993   -3.4812 H   0  0  0  0  0  0  0  0  0  0  0  0
    3.0666   12.8169   -3.4812 H   0  0  0  0  0  0  0  0  0  0  0  0
    2.9609   13.3592    0.4763 H   0  0  0  0  0  0  0  0  0  0  0  0
    3.8951   11.4867   -1.0284 H   0  0  0  0  0  0  0  0  0  0  0  0
    3.1012   11.1022    0.5876 H   0  0  0  0  0  0  0  0  0  0  0  0
    2.4978    9.5046   -1.4186 H   0  0  0  0  0  0  0  0  0  0  0  0
   -0.2007   12.4935   -1.7111 H   0  0  0  0  0  0  0  0  0  0  0  0
   -1.0785   10.9112    0.7836 H   0  0  0  0  0  0  0  0  0  0  0  0
   -1.8710   12.3992    0.0995 H   0  0  0  0  0  0  0  0  0  0  0  0
   -3.1060   10.3338   -0.4741 H   0  0  0  0  0  0  0  0  0  0  0  0
   -2.4565   11.1935   -1.9249 H   0  0  0  0  0  0  0  0  0  0  0  0
   -2.0934    8.8363   -2.1983 H   0  0  0  0  0  0  0  0  0  0  0  0
   -1.6900    7.6750   -0.4660 H   0  0  0  0  0  0  0  0  0  0  0  0
   -0.7662   11.2744   -3.4275 H   0  0  0  0  0  0  0  0  0  0  0  0
    0.5918   10.3133   -4.1049 H   0  0  0  0  0  0  0  0  0  0  0  0
   -1.0733    9.6393   -4.1049 H   0  0  0  0  0  0  0  0  0  0  0  0
    0.8444    7.8018   -1.4485 H   0  0  0  0  0  0  0  0  0  0  0  0
   -0.0712    7.6174   -2.9829 H   0  0  0  0  0  0  0  0  0  0  0  0
    1.5247    8.4418   -2.9829 H   0  0  0  0  0  0  0  0  0  0  0  0
    0.9347   13.3248    2.2118 H   0  0  0  0  0  0  0  0  0  0  0  0
   -0.1388   11.9539    1.7705 H   0  0  0  0  0  0  0  0  0  0  0  0
    1.6440   11.7346    1.7705 H   0  0  0  0  0  0  0  0  0  0  0  0
   -0.8476   14.1951   -0.0801 H   0  0  0  0  0  0  0  0  0  0  0  0
    0.5768   14.8228    0.9252 H   0  0  0  0  0  0  0  0  0  0  0  0
    0.2882   14.8518   -2.0920 H   0  0  0  0  0  0  0  0  0  0  0  0
    0.3422   16.2518   -0.9495 H   0  0  0  0  0  0  0  0  0  0  0  0
    2.3241   15.3682    0.9443 H   0  0  0  0  0  0  0  0  0  0  0  0
    3.8741   15.7537    0.1223 H   0  0  0  0  0  0  0  0  0  0  0  0
    2.5354   16.9513    0.1223 H   0  0  0  0  0  0  0  0  0  0  0  0
  1  2  1  0
  2  3  1  0
  3  4  1  0
  4  5  1  0
  5  6  1  0
  6  7  1  0
  7  8  1  0
  7  9  1  0
  2 10  1  0
 10 11  1  0
 11 12  1  0
 12 13  1  0
 13 14  1  6
 13 15  1  0
 15 16  1  0
 16 17  1  0
 17 18  2  0
 18 19  1  0
 19 20  1  0
 20 21  1  0
 21 22  1  0
 22 23  1  0
 22 24  1  0
 24 25  1  0
 24 26  1  0
 19 27  1  0
 27 28  1  1
 27 29  1  0
 29 30  1  0
 30 31  1  0
 31 32  1  1
  7  5  1  0
 31 10  1  0
 31 13  1  0
 27 15  1  0
 24 18  1  0
  1 33  1  0
  1 34  1  0
  1 35  1  0
  2 36  1  6
  3 37  1  0
  3 38  1  0
  4 39  1  0
  4 40  1  0
  5 41  1  6
  8 42  1  0
  8 43  1  0
  8 44  1  0
  9 45  1  0
  9 46  1  0
  9 47  1  0
 10 48  1  6
 11 49  1  0
 11 50  1  0
 12 51  1  0
 12 52  1  0
 14 53  1  0
 14 54  1  0
 14 55  1  0
 15 56  1  1
 16 57  1  0
 16 58  1  0
 17 59  1  0
 19 60  1  6
 20 61  1  0
 20 62  1  0
 21 63  1  0
 21 64  1  0
 22 65  1  6
 23 66  1  0
 25 67  1  0
 25 68  1  0
 25 69  1  0
 26 70  1  0
 26 71  1  0
 26 72  1  0
 28 73  1  0
 28 74  1  0
 28 75  1  0
 29 76  1  0
 29 77  1  0
 30 78  1  0
 30 79  1  0
 32 80  1  0
 32 81  1  0
 32 82  1  0
M  END
>  <meeko>  (8) 
{"is_sidechain": [false], "intermolecular_energy": 2.731, "internal_energy": -0.839}

$$$$
EPH_relaxed_0001_pdb2pqr_Repair_334_r2_0001_out
     RDKit          3D

 82 86  0  0  0  0  0  0  0  0999 V2000
   -2.5490    7.5610   -3.0610 C   0  0  0  0  0  0  0  0  0  0  0  0
   -2.8730    7.8580   -1.5940 C   0  0  2  0  0  0  0  0  0  0  0  0
   -4.3900    7.8370   -1.3180 C   0  0  0  0  0  0  0  0  0  0  0  0
   -5.1100    6.6330   -1.9310 C   0  0  0  0  0  0  0  0  0  0  0  0
   -6.3160    7.0500   -2.7170 C   0  0  2  0  0  0  0  0  0  0  0  0
   -6.8910    8.3000   -2.3150 O   0  0  0  0  0  0  0  0  0  0  0  0
   -7.7110    7.1360   -2.1270 C   0  0  0  0  0  0  0  0  0  0  0  0
   -7.9740    6.8010   -0.6930 C   0  0  0  0  0  0  0  0  0  0  0  0
   -8.8850    7.0700   -3.0540 C   0  0  0  0  0  0  0  0  0  0  0  0
   -2.2900    9.2090   -1.1960 C   0  0  1  0  0  0  0  0  0  0  0  0
   -2.8110    9.7040    0.1790 C   0  0  0  0  0  0  0  0  0  0  0  0
   -1.6410   10.4640    0.8540 C   0  0  0  0  0  0  0  0  0  0  0  0
   -0.6060   10.6700   -0.2760 C   0  0  1  0  0  0  0  0  0  0  0  0
   -1.1200   11.9110   -1.0710 C   0  0  0  0  0  0  0  0  0  0  0  0
    0.8810   10.8470    0.1720 C   0  0  2  0  0  0  0  0  0  0  0  0
    1.1570   12.0860    1.0430 C   0  0  0  0  0  0  0  0  0  0  0  0
    1.5290   13.3220    0.2940 C   0  0  0  0  0  0  0  0  0  0  0  0
    1.9150   13.3690   -0.9940 C   0  0  0  0  0  0  0  0  0  0  0  0
    2.1030   12.0830   -1.8080 C   0  0  1  0  0  0  0  0  0  0  0  0
    3.4440   12.1520   -2.5850 C   0  0  0  0  0  0  0  0  0  0  0  0
    3.5590   13.4070   -3.4440 C   0  0  0  0  0  0  0  0  0  0  0  0
    3.4250   14.6660   -2.5900 C   0  0  2  0  0  0  0  0  0  0  0  0
    4.5560   14.7530   -1.7170 O   0  0  0  0  0  0  0  0  0  0  0  0
    2.1160   14.7040   -1.7540 C   0  0  0  0  0  0  0  0  0  0  0  0
    0.9040   14.9140   -2.6950 C   0  0  0  0  0  0  0  0  0  0  0  0
    2.1720   15.9530   -0.8340 C   0  0  0  0  0  0  0  0  0  0  0  0
    1.9330   10.7230   -1.0040 C   0  0  1  0  0  0  0  0  0  0  0  0
    3.2890   10.3190   -0.3480 C   0  0  0  0  0  0  0  0  0  0  0  0
    1.5680    9.5710   -2.0130 C   0  0  0  0  0  0  0  0  0  0  0  0
    0.0720    9.3670   -2.3240 C   0  0  0  0  0  0  0  0  0  0  0  0
   -0.7520    9.3000   -1.0350 C   0  0  2  0  0  0  0  0  0  0  0  0
   -0.2720    8.0480   -0.2250 C   0  0  0  0  0  0  0  0  0  0  0  0
   -1.7391    6.8186   -3.1146 H   0  0  0  0  0  0  0  0  0  0  0  0
   -3.4445    7.1635   -3.5611 H   0  0  0  0  0  0  0  0  0  0  0  0
   -2.2307    8.4876   -3.5611 H   0  0  0  0  0  0  0  0  0  0  0  0
   -2.4162    7.0624   -0.9870 H   0  0  0  0  0  0  0  0  0  0  0  0
   -4.5447    7.8168   -0.2291 H   0  0  0  0  0  0  0  0  0  0  0  0
   -4.8145    8.7378   -1.7854 H   0  0  0  0  0  0  0  0  0  0  0  0
   -4.4145    6.1038   -2.5990 H   0  0  0  0  0  0  0  0  0  0  0  0
   -5.4437    5.9792   -1.1117 H   0  0  0  0  0  0  0  0  0  0  0  0
   -5.9257    6.5579   -3.6201 H   0  0  0  0  0  0  0  0  0  0  0  0
   -7.4246    7.5009   -0.0462 H   0  0  0  0  0  0  0  0  0  0  0  0
   -9.0519    6.8825   -0.4891 H   0  0  0  0  0  0  0  0  0  0  0  0
   -7.6390    5.7733   -0.4891 H   0  0  0  0  0  0  0  0  0  0  0  0
   -9.8135    7.0178   -2.4666 H   0  0  0  0  0  0  0  0  0  0  0  0
   -8.9024    7.9686   -3.6882 H   0  0  0  0  0  0  0  0  0  0  0  0
   -8.8016    6.1751   -3.6882 H   0  0  0  0  0  0  0  0  0  0  0  0
   -2.6146    9.8102   -2.0580 H   0  0  0  0  0  0  0  0  0  0  0  0
   -3.6692   10.3776    0.0386 H   0  0  0  0  0  0  0  0  0  0  0  0
   -3.1451    8.8607    0.8013 H   0  0  0  0  0  0  0  0  0  0  0  0
   -1.9831   11.4322    1.2485 H   0  0  0  0  0  0  0  0  0  0  0  0
   -1.2220    9.9112    1.7077 H   0  0  0  0  0  0  0  0  0  0  0  0
   -1.4429   12.6905   -0.3653 H   0  0  0  0  0  0  0  0  0  0  0  0
   -0.3099   12.3022   -1.7040 H   0  0  0  0  0  0  0  0  0  0  0  0
   -1.9695   11.6148   -1.7040 H   0  0  0  0  0  0  0  0  0  0  0  0
    1.0331    9.9781    0.8292 H   0  0  0  0  0  0  0  0  0  0  0  0
    0.2487   12.3016    1.6248 H   0  0  0  0  0  0  0  0  0  0  0  0
    2.0287   11.8329    1.6644 H   0  0  0  0  0  0  0  0  0  0  0  0
    1.4838   14.2752    0.8412 H   0  0  0  0  0  0  0  0  0  0  0  0
    1.2629   12.0470   -2.5172 H   0  0  0  0  0  0  0  0  0  0  0  0
    4.2719   12.1435   -1.8607 H   0  0  0  0  0  0  0  0  0  0  0  0
    3.4850   11.2825   -3.2575 H   0  0  0  0  0  0  0  0  0  0  0  0
    4.5391   13.4131   -3.9433 H   0  0  0  0  0  0  0  0  0  0  0  0
    2.7489   13.3991   -4.1880 H   0  0  0  0  0  0  0  0  0  0  0  0
    3.3839   15.5258   -3.2749 H   0  0  0  0  0  0  0  0  0  0  0  0
    4.3710   14.1980   -0.9410 H   0  0  0  0  0  0  0  0  0  0  0  0
   -0.0038   15.0713   -2.0941 H   0  0  0  0  0  0  0  0  0  0  0  0
    1.0808   15.7949   -3.3296 H   0  0  0  0  0  0  0  0  0  0  0  0
    0.7742   14.0250   -3.3296 H   0  0  0  0  0  0  0  0  0  0  0  0
    2.1577   15.6340    0.2186 H   0  0  0  0  0  0  0  0  0  0  0  0
    3.0962   16.5148   -1.0343 H   0  0  0  0  0  0  0  0  0  0  0  0
    1.3018   16.5953   -1.0343 H   0  0  0  0  0  0  0  0  0  0  0  0
    3.1897   10.3486    0.7471 H   0  0  0  0  0  0  0  0  0  0  0  0
    3.5604    9.3010   -0.6642 H   0  0  0  0  0  0  0  0  0  0  0  0
    4.0733   11.0225   -0.6642 H   0  0  0  0  0  0  0  0  0  0  0  0
    2.0789    9.7865   -2.9630 H   0  0  0  0  0  0  0  0  0  0  0  0
    1.8880    8.6425   -1.5175 H   0  0  0  0  0  0  0  0  0  0  0  0
   -0.2860   10.2076   -2.9366 H   0  0  0  0  0  0  0  0  0  0  0  0
   -0.0471    8.4172   -2.8660 H   0  0  0  0  0  0  0  0  0  0  0  0
   -0.3516    8.2557    0.8523 H   0  0  0  0  0  0  0  0  0  0  0  0
   -0.9023    7.1831   -0.4793 H   0  0  0  0  0  0  0  0  0  0  0  0
    0.7750    7.8261   -0.4793 H   0  0  0  0  0  0  0  0  0  0  0  0
  1  2  1  0
  2  3  1  0
  3  4  1  0
  4  5  1  0
  5  6  1  0
  6  7  1  0
  7  8  1  0
  7  9  1  0
  2 10  1  0
 10 11  1  0
 11 12  1  0
 12 13  1  0
 13 14  1  6
 13 15  1  0
 15 16  1  0
 16 17  1  0
 17 18  2  0
 18 19  1  0
 19 20  1  0
 20 21  1  0
 21 22  1  0
 22 23  1  0
 22 24  1  0
 24 25  1  0
 24 26  1  0
 19 27  1  0
 27 28  1  1
 27 29  1  0
 29 30  1  0
 30 31  1  0
 31 32  1  1
  7  5  1  0
 31 10  1  0
 31 13  1  0
 27 15  1  0
 24 18  1  0
  1 33  1  0
  1 34  1  0
  1 35  1  0
  2 36  1  1
  3 37  1  0
  3 38  1  0
  4 39  1  0
  4 40  1  0
  5 41  1  6
  8 42  1  0
  8 43  1  0
  8 44  1  0
  9 45  1  0
  9 46  1  0
  9 47  1  0
 10 48  1  6
 11 49  1  0
 11 50  1  0
 12 51  1  0
 12 52  1  0
 14 53  1  0
 14 54  1  0
 14 55  1  0
 15 56  1  1
 16 57  1  0
 16 58  1  0
 17 59  1  0
 19 60  1  6
 20 61  1  0
 20 62  1  0
 21 63  1  0
 21 64  1  0
 22 65  1  6
 23 66  1  0
 25 67  1  0
 25 68  1  0
 25 69  1  0
 26 70  1  0
 26 71  1  0
 26 72  1  0
 28 73  1  0
 28 74  1  0
 28 75  1  0
 29 76  1  0
 29 77  1  0
 30 78  1  0
 30 79  1  0
 32 80  1  0
 32 81  1  0
 32 82  1  0
M  END
>  <meeko>  (9) 
{"is_sidechain": [false], "intermolecular_energy": 2.731, "internal_energy": -0.839}

$$$$
EPH_relaxed_0001_pdb2pqr_Repair_334_r2_0001_out
     RDKit          3D

 82 86  0  0  0  0  0  0  0  0999 V2000
    2.2530   19.3440    0.1170 C   0  0  0  0  0  0  0  0  0  0  0  0
    2.9150   17.9960   -0.1800 C   0  0  2  0  0  0  0  0  0  0  0  0
    3.7290   18.0250   -1.4890 C   0  0  0  0  0  0  0  0  0  0  0  0
    5.2250   17.7640   -1.2890 C   0  0  0  0  0  0  0  0  0  0  0  0
    5.9970   17.9620   -2.5580 C   0  0  2  0  0  0  0  0  0  0  0  0
    5.2420   17.7450   -3.7580 O   0  0  0  0  0  0  0  0  0  0  0  0
    6.3290   16.8370   -3.5200 C   0  0  0  0  0  0  0  0  0  0  0  0
    5.8980   15.4290   -3.2530 C   0  0  0  0  0  0  0  0  0  0  0  0
    7.4810   17.0160   -4.4600 C   0  0  0  0  0  0  0  0  0  0  0  0
    1.8560   16.9010   -0.2490 C   0  0  1  0  0  0  0  0  0  0  0  0
    0.4580   17.4470   -0.6410 C   0  0  0  0  0  0  0  0  0  0  0  0
   -0.2240   16.3530   -1.5030 C   0  0  0  0  0  0  0  0  0  0  0  0
    0.6550   15.0960   -1.3030 C   0  0  1  0  0  0  0  0  0  0  0  0
    0.1880   14.4920    0.0580 C   0  0  0  0  0  0  0  0  0  0  0  0
    0.6130   14.0340   -2.4500 C   0  0  2  0  0  0  0  0  0  0  0  0
   -0.7630   13.3890   -2.6920 C   0  0  0  0  0  0  0  0  0  0  0  0
   -1.0290   12.1440   -1.9110 C   0  0  0  0  0  0  0  0  0  0  0  0
   -0.1010   11.4100   -1.2700 C   0  0  0  0  0  0  0  0  0  0  0  0
    1.3890   11.7590   -1.3730 C   0  0  1  0  0  0  0  0  0  0  0  0
    2.2050   10.4700   -1.6560 C   0  0  0  0  0  0  0  0  0  0  0  0
    1.9330    9.3700   -0.6340 C   0  0  0  0  0  0  0  0  0  0  0  0
    0.4500    9.0100   -0.6030 C   0  0  2  0  0  0  0  0  0  0  0  0
    0.0960    8.4040   -1.8500 O   0  0  0  0  0  0  0  0  0  0  0  0
   -0.4720   10.2320   -0.3350 C   0  0  0  0  0  0  0  0  0  0  0  0
   -0.3010   10.7020    1.1300 C   0  0  0  0  0  0  0  0  0  0  0  0
   -1.9450    9.7590   -0.4700 C   0  0  0  0  0  0  0  0  0  0  0  0
    1.7570   12.9440   -2.3670 C   0  0  1  0  0  0  0  0  0  0  0  0
    1.9480   12.3870   -3.8110 C   0  0  0  0  0  0  0  0  0  0  0  0
    3.1410   13.5610   -1.9420 C   0  0  0  0  0  0  0  0  0  0  0  0
    3.1070   14.6880   -0.8920 C   0  0  0  0  0  0  0  0  0  0  0  0
    2.0800   15.7590   -1.2710 C   0  0  2  0  0  0  0  0  0  0  0  0
    2.5350   16.4000   -2.6270 C   0  0  0  0  0  0  0  0  0  0  0  0
    2.1831   19.4863    1.2055 H   0  0  0  0  0  0  0  0  0  0  0  0
    2.8563   20.1531   -0.3206 H   0  0  0  0  0  0  0  0  0  0  0  0
    1.2439   19.3613   -0.3206 H   0  0  0  0  0  0  0  0  0  0  0  0
    3.6165   17.7837    0.6402 H   0  0  0  0  0  0  0  0  0  0  0  0
    3.3290   17.2540   -2.1639 H   0  0  0  0  0  0  0  0  0  0  0  0
    3.6321   19.0384   -1.9057 H   0  0  0  0  0  0  0  0  0  0  0  0
    5.6090   18.4575   -0.5263 H   0  0  0  0  0  0  0  0  0  0  0  0
    5.3510   16.7186   -0.9707 H   0  0  0  0  0  0  0  0  0  0  0  0
    6.6190   18.7370   -2.0863 H   0  0  0  0  0  0  0  0  0  0  0  0
    5.8466   15.2610   -2.1671 H   0  0  0  0  0  0  0  0  0  0  0  0
    4.9065   15.2584   -3.6978 H   0  0  0  0  0  0  0  0  0  0  0  0
    6.6241   14.7327   -3.6978 H   0  0  0  0  0  0  0  0  0  0  0  0
    8.4063   17.1598   -3.8828 H   0  0  0  0  0  0  0  0  0  0  0  0
    7.5793   16.1224   -5.0938 H   0  0  0  0  0  0  0  0  0  0  0  0
    7.3035   17.8973   -5.0938 H   0  0  0  0  0  0  0  0  0  0  0  0
    1.9294   16.5079    0.7757 H   0  0  0  0  0  0  0  0  0  0  0  0
   -0.1384   17.6443    0.2620 H   0  0  0  0  0  0  0  0  0  0  0  0
    0.5449   18.3916   -1.1980 H   0  0  0  0  0  0  0  0  0  0  0  0
   -1.2510   16.1683   -1.1550 H   0  0  0  0  0  0  0  0  0  0  0  0
   -0.3026   16.6436   -2.5610 H   0  0  0  0  0  0  0  0  0  0  0  0
    0.6315   15.0656    0.8852 H   0  0  0  0  0  0  0  0  0  0  0  0
   -0.9089   14.5417    0.1241 H   0  0  0  0  0  0  0  0  0  0  0  0
    0.5122   13.4429    0.1241 H   0  0  0  0  0  0  0  0  0  0  0  0
    0.8180   14.6430   -3.3428 H   0  0  0  0  0  0  0  0  0  0  0  0
   -1.5354   14.1268   -2.4293 H   0  0  0  0  0  0  0  0  0  0  0  0
   -0.7790   13.0935   -3.7514 H   0  0  0  0  0  0  0  0  0  0  0  0
   -2.0716   11.7978   -1.8550 H   0  0  0  0  0  0  0  0  0  0  0  0
    1.6721   12.1728   -0.3939 H   0  0  0  0  0  0  0  0  0  0  0  0
    1.9388   10.0963   -2.6557 H   0  0  0  0  0  0  0  0  0  0  0  0
    3.2721   10.7292   -1.5920 H   0  0  0  0  0  0  0  0  0  0  0  0
    2.5150    8.4763   -0.9033 H   0  0  0  0  0  0  0  0  0  0  0  0
    2.2271    9.7345    0.3613 H   0  0  0  0  0  0  0  0  0  0  0  0
    0.2976    8.3131    0.2343 H   0  0  0  0  0  0  0  0  0  0  0  0
   -0.4610    9.0360   -2.3360 H   0  0  0  0  0  0  0  0  0  0  0  0
   -0.5961    9.8910    1.8121 H   0  0  0  0  0  0  0  0  0  0  0  0
    0.7513   10.9674    1.3095 H   0  0  0  0  0  0  0  0  0  0  0  0
   -0.9367   11.5816    1.3095 H   0  0  0  0  0  0  0  0  0  0  0  0
   -2.3786    9.6198    0.5313 H   0  0  0  0  0  0  0  0  0  0  0  0
   -2.5245   10.5162   -1.0185 H   0  0  0  0  0  0  0  0  0  0  0  0
   -1.9753    8.8060   -1.0185 H   0  0  0  0  0  0  0  0  0  0  0  0
    2.3044   11.3476   -3.7589 H   0  0  0  0  0  0  0  0  0  0  0  0
    0.9876   12.4189   -4.3463 H   0  0  0  0  0  0  0  0  0  0  0  0
    2.6867   13.0016   -4.3463 H   0  0  0  0  0  0  0  0  0  0  0  0
    3.7577   12.7460   -1.5353 H   0  0  0  0  0  0  0  0  0  0  0  0
    3.5390   14.0298   -2.8541 H   0  0  0  0  0  0  0  0  0  0  0  0
    2.8379   14.2612    0.0855 H   0  0  0  0  0  0  0  0  0  0  0  0
    4.1015   15.1558   -0.8470 H   0  0  0  0  0  0  0  0  0  0  0  0
    3.1608   17.2816   -2.4241 H   0  0  0  0  0  0  0  0  0  0  0  0
    3.1142   15.6643   -3.2043 H   0  0  0  0  0  0  0  0  0  0  0  0
    1.6494   16.7040   -3.2043 H   0  0  0  0  0  0  0  0  0  0  0  0
  1  2  1  0
  2  3  1  0
  3  4  1  0
  4  5  1  0
  5  6  1  0
  6  7  1  0
  7  8  1  0
  7  9  1  0
  2 10  1  0
 10 11  1  0
 11 12  1  0
 12 13  1  0
 13 14  1  1
 13 15  1  0
 15 16  1  0
 16 17  1  0
 17 18  2  0
 18 19  1  0
 19 20  1  0
 20 21  1  0
 21 22  1  0
 22 23  1  0
 22 24  1  0
 24 25  1  0
 24 26  1  0
 19 27  1  0
 27 28  1  6
 27 29  1  0
 29 30  1  0
 30 31  1  0
 31 32  1  6
  7  5  1  0
 31 10  1  0
 31 13  1  0
 27 15  1  0
 24 18  1  0
  1 33  1  0
  1 34  1  0
  1 35  1  0
  2 36  1  1
  3 37  1  0
  3 38  1  0
  4 39  1  0
  4 40  1  0
  5 41  1  6
  8 42  1  0
  8 43  1  0
  8 44  1  0
  9 45  1  0
  9 46  1  0
  9 47  1  0
 10 48  1  1
 11 49  1  0
 11 50  1  0
 12 51  1  0
 12 52  1  0
 14 53  1  0
 14 54  1  0
 14 55  1  0
 15 56  1  6
 16 57  1  0
 16 58  1  0
 17 59  1  0
 19 60  1  1
 20 61  1  0
 20 62  1  0
 21 63  1  0
 21 64  1  0
 22 65  1  1
 23 66  1  0
 25 67  1  0
 25 68  1  0
 25 69  1  0
 26 70  1  0
 26 71  1  0
 26 72  1  0
 28 73  1  0
 28 74  1  0
 28 75  1  0
 29 76  1  0
 29 77  1  0
 30 78  1  0
 30 79  1  0
 32 80  1  0
 32 81  1  0
 32 82  1  0
M  END
>  <meeko>  (10) 
{"is_sidechain": [false], "intermolecular_energy": 2.731, "internal_energy": -0.839}

$$$$
EPH_relaxed_0001_pdb2pqr_Repair_334_r2_0001_out
     RDKit          3D

 82 86  0  0  0  0  0  0  0  0999 V2000
    0.3030   10.0290    1.3900 C   0  0  0  0  0  0  0  0  0  0  0  0
    0.5310   10.3510   -0.0900 C   0  0  2  0  0  0  0  0  0  0  0  0
    1.0140    9.1210   -0.8840 C   0  0  0  0  0  0  0  0  0  0  0  0
    0.0390    8.6730   -1.9760 C   0  0  0  0  0  0  0  0  0  0  0  0
   -1.2730    8.2300   -1.4010 C   0  0  2  0  0  0  0  0  0  0  0  0
   -2.4060    8.4560   -2.2490 O   0  0  0  0  0  0  0  0  0  0  0  0
   -2.3830    9.1900   -1.0140 C   0  0  0  0  0  0  0  0  0  0  0  0
   -2.2320   10.6690   -1.1870 C   0  0  0  0  0  0  0  0  0  0  0  0
   -3.4090    8.7350   -0.0230 C   0  0  0  0  0  0  0  0  0  0  0  0
    1.5390   11.4870   -0.2250 C   0  0  1  0  0  0  0  0  0  0  0  0
    2.8160   11.0640   -0.9980 C   0  0  0  0  0  0  0  0  0  0  0  0
    3.2760   12.3000   -1.8130 C   0  0  0  0  0  0  0  0  0  0  0  0
    2.4570   13.4760   -1.2330 C   0  0  1  0  0  0  0  0  0  0  0  0
    3.2160   13.8920    0.0660 C   0  0  0  0  0  0  0  0  0  0  0  0
    2.2300   14.6960   -2.1840 C   0  0  2  0  0  0  0  0  0  0  0  0
    3.5110   15.4270   -2.6250 C   0  0  0  0  0  0  0  0  0  0  0  0
    3.9380   16.5530   -1.7430 C   0  0  0  0  0  0  0  0  0  0  0  0
    3.1750   17.1460   -0.8060 C   0  0  0  0  0  0  0  0  0  0  0  0
    1.7020   16.7540   -0.6260 C   0  0  1  0  0  0  0  0  0  0  0  0
    0.8350   18.0350   -0.5190 C   0  0  0  0  0  0  0  0  0  0  0  0
    1.3240   18.9840    0.5710 C   0  0  0  0  0  0  0  0  0  0  0  0
    2.7730   19.3960    0.3260 C   0  0  2  0  0  0  0  0  0  0  0  0
    2.8300   20.1930   -0.8610 O   0  0  0  0  0  0  0  0  0  0  0  0
    3.7400   18.1870    0.1910 C   0  0  0  0  0  0  0  0  0  0  0  0
    3.9090   17.5000    1.5690 C   0  0  0  0  0  0  0  0  0  0  0  0
    5.1400   18.7360   -0.1940 C   0  0  0  0  0  0  0  0  0  0  0  0
    1.1280   15.7140   -1.6820 C   0  0  1  0  0  0  0  0  0  0  0  0
    0.6100   16.4690   -2.9440 C   0  0  0  0  0  0  0  0  0  0  0  0
   -0.1200   14.9840   -1.0580 C   0  0  0  0  0  0  0  0  0  0  0  0
    0.1590   13.7170   -0.2270 C   0  0  0  0  0  0  0  0  0  0  0  0
    1.0810   12.7570   -0.9850 C   0  0  2  0  0  0  0  0  0  0  0  0
    0.3350   12.3040   -2.2860 C   0  0  0  0  0  0  0  0  0  0  0  0
    0.8275   10.7698    2.0114 H   0  0  0  0  0  0  0  0  0  0  0  0
   -0.7741   10.0620    1.6107 H   0  0  0  0  0  0  0  0  0  0  0  0
    0.6919    9.0240    1.6107 H   0  0  0  0  0  0  0  0  0  0  0  0
   -0.4358   10.6590   -0.5147 H   0  0  0  0  0  0  0  0  0  0  0  0
    1.9757    9.3685   -1.3571 H   0  0  0  0  0  0  0  0  0  0  0  0
    1.1004    8.2897   -0.1688 H   0  0  0  0  0  0  0  0  0  0  0  0
   -0.1385    9.5142   -2.6623 H   0  0  0  0  0  0  0  0  0  0  0  0
    0.4867    7.8193   -2.5059 H   0  0  0  0  0  0  0  0  0  0  0  0
   -0.7838    7.4090   -0.8564 H   0  0  0  0  0  0  0  0  0  0  0  0
   -2.1828   11.1506   -0.1992 H   0  0  0  0  0  0  0  0  0  0  0  0
   -1.3076   10.8805   -1.7445 H   0  0  0  0  0  0  0  0  0  0  0  0
   -3.0946   11.0629   -1.7445 H   0  0  0  0  0  0  0  0  0  0  0  0
   -3.0328    8.9018    0.9971 H   0  0  0  0  0  0  0  0  0  0  0  0
   -4.3381    9.3055   -0.1690 H   0  0  0  0  0  0  0  0  0  0  0  0
   -3.6099    7.6634   -0.1690 H   0  0  0  0  0  0  0  0  0  0  0  0
    1.6969   11.7208    0.8382 H   0  0  0  0  0  0  0  0  0  0  0  0
    3.6034   10.7615   -0.2919 H   0  0  0  0  0  0  0  0  0  0  0  0
    2.6122   10.2088   -1.6591 H   0  0  0  0  0  0  0  0  0  0  0  0
    4.3539   12.4741   -1.6793 H   0  0  0  0  0  0  0  0  0  0  0  0
    3.1139   12.1714   -2.8934 H   0  0  0  0  0  0  0  0  0  0  0  0
    2.6375   13.5749    0.9462 H   0  0  0  0  0  0  0  0  0  0  0  0
    4.2044   13.4095    0.0836 H   0  0  0  0  0  0  0  0  0  0  0  0
    3.3410   14.9847    0.0836 H   0  0  0  0  0  0  0  0  0  0  0  0
    1.8318   14.2166   -3.0904 H   0  0  0  0  0  0  0  0  0  0  0  0
    4.3283   14.6914   -2.6569 H   0  0  0  0  0  0  0  0  0  0  0  0
    3.2839   15.8758   -3.6033 H   0  0  0  0  0  0  0  0  0  0  0  0
    4.9635   16.9303   -1.8695 H   0  0  0  0  0  0  0  0  0  0  0  0
    1.6499   16.1890    0.3164 H   0  0  0  0  0  0  0  0  0  0  0  0
    0.8641   18.5619   -1.4842 H   0  0  0  0  0  0  0  0  0  0  0  0
   -0.1874   17.7249   -0.2572 H   0  0  0  0  0  0  0  0  0  0  0  0
    0.6902   19.8830    0.5765 H   0  0  0  0  0  0  0  0  0  0  0  0
    1.2653   18.4660    1.5396 H   0  0  0  0  0  0  0  0  0  0  0  0
    3.1071   19.9668    1.2049 H   0  0  0  0  0  0  0  0  0  0  0  0
    1.9710   20.6380   -0.9590 H   0  0  0  0  0  0  0  0  0  0  0  0
    3.7286   18.2333    2.3689 H   0  0  0  0  0  0  0  0  0  0  0  0
    3.1871   16.6749    1.6584 H   0  0  0  0  0  0  0  0  0  0  0  0
    4.9313   17.1040    1.6584 H   0  0  0  0  0  0  0  0  0  0  0  0
    5.7102   18.9596    0.7197 H   0  0  0  0  0  0  0  0  0  0  0  0
    5.6789   17.9826   -0.7873 H   0  0  0  0  0  0  0  0  0  0  0  0
    5.0231   19.6549   -0.7873 H   0  0  0  0  0  0  0  0  0  0  0  0
    0.0133   17.3387   -2.6318 H   0  0  0  0  0  0  0  0  0  0  0  0
    1.4662   16.8086   -3.5453 H   0  0  0  0  0  0  0  0  0  0  0  0
   -0.0150   15.7923   -3.5453 H   0  0  0  0  0  0  0  0  0  0  0  0
   -0.6340   15.7040   -0.4043 H   0  0  0  0  0  0  0  0  0  0  0  0
   -0.7112   14.6387   -1.9190 H   0  0  0  0  0  0  0  0  0  0  0  0
    0.6397   14.0058    0.7193 H   0  0  0  0  0  0  0  0  0  0  0  0
   -0.7961   13.2069   -0.0333 H   0  0  0  0  0  0  0  0  0  0  0  0
   -0.5758   11.7510   -2.0127 H   0  0  0  0  0  0  0  0  0  0  0  0
    0.0623   13.1892   -2.8794 H   0  0  0  0  0  0  0  0  0  0  0  0
    0.9946   11.6538   -2.8794 H   0  0  0  0  0  0  0  0  0  0  0  0
  1  2  1  0
  2  3  1  0
  3  4  1  0
  4  5  1  0
  5  6  1  0
  6  7  1  0
  7  8  1  0
  7  9  1  0
  2 10  1  0
 10 11  1  0
 11 12  1  0
 12 13  1  0
 13 14  1  1
 13 15  1  0
 15 16  1  0
 16 17  1  0
 17 18  2  0
 18 19  1  0
 19 20  1  0
 20 21  1  0
 21 22  1  0
 22 23  1  0
 22 24  1  0
 24 25  1  0
 24 26  1  0
 19 27  1  0
 27 28  1  6
 27 29  1  0
 29 30  1  0
 30 31  1  0
 31 32  1  6
  7  5  1  0
 31 10  1  0
 31 13  1  0
 27 15  1  0
 24 18  1  0
  1 33  1  0
  1 34  1  0
  1 35  1  0
  2 36  1  6
  3 37  1  0
  3 38  1  0
  4 39  1  0
  4 40  1  0
  5 41  1  1
  8 42  1  0
  8 43  1  0
  8 44  1  0
  9 45  1  0
  9 46  1  0
  9 47  1  0
 10 48  1  1
 11 49  1  0
 11 50  1  0
 12 51  1  0
 12 52  1  0
 14 53  1  0
 14 54  1  0
 14 55  1  0
 15 56  1  6
 16 57  1  0
 16 58  1  0
 17 59  1  0
 19 60  1  1
 20 61  1  0
 20 62  1  0
 21 63  1  0
 21 64  1  0
 22 65  1  1
 23 66  1  0
 25 67  1  0
 25 68  1  0
 25 69  1  0
 26 70  1  0
 26 71  1  0
 26 72  1  0
 28 73  1  0
 28 74  1  0
 28 75  1  0
 29 76  1  0
 29 77  1  0
 30 78  1  0
 30 79  1  0
 32 80  1  0
 32 81  1  0
 32 82  1  0
M  END
>  <meeko>  (11) 
{"is_sidechain": [false], "intermolecular_energy": 2.731, "internal_energy": -0.839}

$$$$
EPH_relaxed_0001_pdb2pqr_Repair_334_r2_0001_out
     RDKit          3D

 82 86  0  0  0  0  0  0  0  0999 V2000
    0.4750    8.9350   -2.4070 C   0  0  0  0  0  0  0  0  0  0  0  0
    1.2380   10.0780   -3.0840 C   0  0  2  0  0  0  0  0  0  0  0  0
    2.7280   10.0940   -2.6900 C   0  0  0  0  0  0  0  0  0  0  0  0
    3.6590   10.5390   -3.8210 C   0  0  0  0  0  0  0  0  0  0  0  0
    5.0450   10.8160   -3.3220 C   0  0  2  0  0  0  0  0  0  0  0  0
    5.6180   12.0430   -3.7930 O   0  0  0  0  0  0  0  0  0  0  0  0
    6.2690   10.8350   -4.2190 C   0  0  0  0  0  0  0  0  0  0  0  0
    6.1640   10.5720   -5.6880 C   0  0  0  0  0  0  0  0  0  0  0  0
    7.6150   10.6250   -3.5970 C   0  0  0  0  0  0  0  0  0  0  0  0
    0.5920   11.4130   -2.7330 C   0  0  1  0  0  0  0  0  0  0  0  0
   -0.6710   11.2510   -1.8460 C   0  0  0  0  0  0  0  0  0  0  0  0
   -0.7000   12.4660   -0.8830 C   0  0  0  0  0  0  0  0  0  0  0  0
    0.3460   13.4470   -1.4620 C   0  0  1  0  0  0  0  0  0  0  0  0
   -0.3960   14.1870   -2.6190 C   0  0  0  0  0  0  0  0  0  0  0  0
    0.9840   14.4530   -0.4490 C   0  0  2  0  0  0  0  0  0  0  0  0
   -0.0040   15.4360    0.2040 C   0  0  0  0  0  0  0  0  0  0  0  0
   -0.1950   16.7260   -0.5240 C   0  0  0  0  0  0  0  0  0  0  0  0
    0.6060   17.2010   -1.4960 C   0  0  0  0  0  0  0  0  0  0  0  0
    1.8930   16.4650   -1.8870 C   0  0  1  0  0  0  0  0  0  0  0  0
    3.0600   17.4820   -1.9940 C   0  0  0  0  0  0  0  0  0  0  0  0
    2.7410   18.6390   -2.9360 C   0  0  0  0  0  0  0  0  0  0  0  0
    1.4880   19.3830   -2.4810 C   0  0  2  0  0  0  0  0  0  0  0  0
    1.7620   20.0300   -1.2350 O   0  0  0  0  0  0  0  0  0  0  0  0
    0.2480   18.4580   -2.3280 C   0  0  0  0  0  0  0  0  0  0  0  0
   -0.2320   17.9950   -3.7260 C   0  0  0  0  0  0  0  0  0  0  0  0
   -0.9080   19.3040   -1.7300 C   0  0  0  0  0  0  0  0  0  0  0  0
    2.2660   15.2010   -0.9980 C   0  0  1  0  0  0  0  0  0  0  0  0
    3.0870   15.6500    0.2480 C   0  0  0  0  0  0  0  0  0  0  0  0
    3.2040   14.2470   -1.8280 C   0  0  0  0  0  0  0  0  0  0  0  0
    2.5150   13.1960   -2.7190 C   0  0  0  0  0  0  0  0  0  0  0  0
    1.4460   12.4290   -1.9340 C   0  0  2  0  0  0  0  0  0  0  0  0
    2.1650   11.6570   -0.7760 C   0  0  0  0  0  0  0  0  0  0  0  0
    0.5468    9.0426   -1.3146 H   0  0  0  0  0  0  0  0  0  0  0  0
   -0.5818    8.9695   -2.7101 H   0  0  0  0  0  0  0  0  0  0  0  0
    0.9122    7.9722   -2.7101 H   0  0  0  0  0  0  0  0  0  0  0  0
    1.1855    9.9138   -4.1704 H   0  0  0  0  0  0  0  0  0  0  0  0
    2.8559   10.7842   -1.8431 H   0  0  0  0  0  0  0  0  0  0  0  0
    3.0040    9.0603   -2.4344 H   0  0  0  0  0  0  0  0  0  0  0  0
    3.7054    9.7428   -4.5785 H   0  0  0  0  0  0  0  0  0  0  0  0
    3.2570   11.4687   -4.2501 H   0  0  0  0  0  0  0  0  0  0  0  0
    4.8321   10.2990   -2.3747 H   0  0  0  0  0  0  0  0  0  0  0  0
    5.7607    9.5618   -5.8517 H   0  0  0  0  0  0  0  0  0  0  0  0
    5.4929   11.3134   -6.1462 H   0  0  0  0  0  0  0  0  0  0  0  0
    7.1612   10.6474   -6.1462 H   0  0  0  0  0  0  0  0  0  0  0  0
    7.5190   10.6400   -2.5013 H   0  0  0  0  0  0  0  0  0  0  0  0
    8.0189    9.6530   -3.9164 H   0  0  0  0  0  0  0  0  0  0  0  0
    8.2958   11.4278   -3.9164 H   0  0  0  0  0  0  0  0  0  0  0  0
    0.4014   11.7966   -3.7462 H   0  0  0  0  0  0  0  0  0  0  0  0
   -1.5752   11.2424   -2.4723 H   0  0  0  0  0  0  0  0  0  0  0  0
   -0.6421   10.3042   -1.2867 H   0  0  0  0  0  0  0  0  0  0  0  0
   -1.6987   12.9268   -0.8690 H   0  0  0  0  0  0  0  0  0  0  0  0
   -0.4751   12.1810    0.1554 H   0  0  0  0  0  0  0  0  0  0  0  0
   -1.1145   14.9036   -2.1946 H   0  0  0  0  0  0  0  0  0  0  0  0
    0.3361   14.7254   -3.2389 H   0  0  0  0  0  0  0  0  0  0  0  0
   -0.9324   13.4535   -3.2389 H   0  0  0  0  0  0  0  0  0  0  0  0
    1.3240   13.7895    0.3598 H   0  0  0  0  0  0  0  0  0  0  0  0
   -0.9821   14.9378    0.2753 H   0  0  0  0  0  0  0  0  0  0  0  0
    0.4286   15.6987    1.1806 H   0  0  0  0  0  0  0  0  0  0  0  0
   -1.0633   17.3396   -0.2422 H   0  0  0  0  0  0  0  0  0  0  0  0
    1.6983   16.0153   -2.8718 H   0  0  0  0  0  0  0  0  0  0  0  0
    3.2667   17.8886   -0.9930 H   0  0  0  0  0  0  0  0  0  0  0  0
    3.9318   16.9493   -2.4016 H   0  0  0  0  0  0  0  0  0  0  0  0
    3.5903   19.3380   -2.9482 H   0  0  0  0  0  0  0  0  0  0  0  0
    2.5625   18.2333   -3.9427 H   0  0  0  0  0  0  0  0  0  0  0  0
    1.2383   20.1161   -3.2622 H   0  0  0  0  0  0  0  0  0  0  0  0
    2.7280   20.1150   -1.1530 H   0  0  0  0  0  0  0  0  0  0  0  0
   -1.0193   17.2356   -3.6104 H   0  0  0  0  0  0  0  0  0  0  0  0
   -0.6323   18.8567   -4.2802 H   0  0  0  0  0  0  0  0  0  0  0  0
    0.6148   17.5639   -4.2802 H   0  0  0  0  0  0  0  0  0  0  0  0
   -0.8586   19.2679   -0.6317 H   0  0  0  0  0  0  0  0  0  0  0  0
   -0.8118   20.3466   -2.0673 H   0  0  0  0  0  0  0  0  0  0  0  0
   -1.8727   18.8970   -2.0673 H   0  0  0  0  0  0  0  0  0  0  0  0
    2.5526   15.3577    1.1640 H   0  0  0  0  0  0  0  0  0  0  0  0
    4.0749   15.1666    0.2298 H   0  0  0  0  0  0  0  0  0  0  0  0
    3.2130   16.7426    0.2298 H   0  0  0  0  0  0  0  0  0  0  0  0
    3.8274   14.8776   -2.4790 H   0  0  0  0  0  0  0  0  0  0  0  0
    3.7602   13.6667   -1.0771 H   0  0  0  0  0  0  0  0  0  0  0  0
    2.0407   13.7027   -3.5724 H   0  0  0  0  0  0  0  0  0  0  0  0
    3.2739   12.4810   -3.0696 H   0  0  0  0  0  0  0  0  0  0  0  0
    1.8108   12.0373    0.1935 H   0  0  0  0  0  0  0  0  0  0  0  0
    1.9373   10.5837   -0.8542 H   0  0  0  0  0  0  0  0  0  0  0  0
    3.2518   11.8079   -0.8542 H   0  0  0  0  0  0  0  0  0  0  0  0
  1  2  1  0
  2  3  1  0
  3  4  1  0
  4  5  1  0
  5  6  1  0
  6  7  1  0
  7  8  1  0
  7  9  1  0
  2 10  1  0
 10 11  1  0
 11 12  1  0
 12 13  1  0
 13 14  1  6
 13 15  1  0
 15 16  1  0
 16 17  1  0
 17 18  2  0
 18 19  1  0
 19 20  1  0
 20 21  1  0
 21 22  1  0
 22 23  1  0
 22 24  1  0
 24 25  1  0
 24 26  1  0
 19 27  1  0
 27 28  1  1
 27 29  1  0
 29 30  1  0
 30 31  1  0
 31 32  1  1
  7  5  1  0
 31 10  1  0
 31 13  1  0
 27 15  1  0
 24 18  1  0
  1 33  1  0
  1 34  1  0
  1 35  1  0
  2 36  1  6
  3 37  1  0
  3 38  1  0
  4 39  1  0
  4 40  1  0
  5 41  1  1
  8 42  1  0
  8 43  1  0
  8 44  1  0
  9 45  1  0
  9 46  1  0
  9 47  1  0
 10 48  1  6
 11 49  1  0
 11 50  1  0
 12 51  1  0
 12 52  1  0
 14 53  1  0
 14 54  1  0
 14 55  1  0
 15 56  1  1
 16 57  1  0
 16 58  1  0
 17 59  1  0
 19 60  1  6
 20 61  1  0
 20 62  1  0
 21 63  1  0
 21 64  1  0
 22 65  1  6
 23 66  1  0
 25 67  1  0
 25 68  1  0
 25 69  1  0
 26 70  1  0
 26 71  1  0
 26 72  1  0
 28 73  1  0
 28 74  1  0
 28 75  1  0
 29 76  1  0
 29 77  1  0
 30 78  1  0
 30 79  1  0
 32 80  1  0
 32 81  1  0
 32 82  1  0
M  END
>  <meeko>  (12) 
{"is_sidechain": [false], "intermolecular_energy": 2.731, "internal_energy": -0.839}

$$$$
EPH_relaxed_0001_pdb2pqr_Repair_334_r2_0001_out
     RDKit          3D

 82 86  0  0  0  0  0  0  0  0999 V2000
    4.2080   17.0400    0.8470 C   0  0  0  0  0  0  0  0  0  0  0  0
    3.9030   16.3880   -0.5040 C   0  0  2  0  0  0  0  0  0  0  0  0
    3.7820   17.4280   -1.6360 C   0  0  0  0  0  0  0  0  0  0  0  0
    3.3260   18.8090   -1.1580 C   0  0  0  0  0  0  0  0  0  0  0  0
    1.8370   18.8760   -0.9970 C   0  0  2  0  0  0  0  0  0  0  0  0
    1.2830   20.1940   -1.0970 O   0  0  0  0  0  0  0  0  0  0  0  0
    1.1520   19.5460    0.1790 C   0  0  0  0  0  0  0  0  0  0  0  0
    1.9390   20.1940    1.2750 C   0  0  0  0  0  0  0  0  0  0  0  0
   -0.2520   19.1480    0.5110 C   0  0  0  0  0  0  0  0  0  0  0  0
    2.6210   15.5690   -0.4100 C   0  0  1  0  0  0  0  0  0  0  0  0
    1.3470   16.4560   -0.3760 C   0  0  0  0  0  0  0  0  0  0  0  0
    0.2430   15.6810   -1.1400 C   0  0  0  0  0  0  0  0  0  0  0  0
    0.8080   14.2500   -1.2970 C   0  0  1  0  0  0  0  0  0  0  0  0
    0.5250   13.5550    0.0720 C   0  0  0  0  0  0  0  0  0  0  0  0
    0.2500   13.4140   -2.4950 C   0  0  2  0  0  0  0  0  0  0  0  0
   -1.2600   13.1230   -2.4400 C   0  0  0  0  0  0  0  0  0  0  0  0
   -1.6410   11.8580   -1.7450 C   0  0  0  0  0  0  0  0  0  0  0  0
   -0.8020   10.8510   -1.4380 C   0  0  0  0  0  0  0  0  0  0  0  0
    0.6660   10.8860   -1.8820 C   0  0  1  0  0  0  0  0  0  0  0  0
    1.0560    9.5130   -2.4900 C   0  0  0  0  0  0  0  0  0  0  0  0
    0.7580    8.3500   -1.5470 C   0  0  0  0  0  0  0  0  0  0  0  0
   -0.7210    8.3150   -1.1750 C   0  0  2  0  0  0  0  0  0  0  0  0
   -1.4840    8.0010   -2.3440 O   0  0  0  0  0  0  0  0  0  0  0  0
   -1.2310    9.6490   -0.5610 C   0  0  0  0  0  0  0  0  0  0  0  0
   -0.6240    9.8370    0.8520 C   0  0  0  0  0  0  0  0  0  0  0  0
   -2.7660    9.5280   -0.3620 C   0  0  0  0  0  0  0  0  0  0  0  0
    1.0800   12.1050   -2.8140 C   0  0  1  0  0  0  0  0  0  0  0  0
    0.7990   11.7530   -4.3070 C   0  0  0  0  0  0  0  0  0  0  0  0
    2.6330   12.3370   -2.6970 C   0  0  0  0  0  0  0  0  0  0  0  0
    3.1130   13.2680   -1.5670 C   0  0  0  0  0  0  0  0  0  0  0  0
    2.3220   14.5800   -1.5630 C   0  0  2  0  0  0  0  0  0  0  0  0
    2.6040   15.3120   -2.9190 C   0  0  0  0  0  0  0  0  0  0  0  0
    3.8932   16.3671    1.6583 H   0  0  0  0  0  0  0  0  0  0  0  0
    5.2885   17.2301    0.9268 H   0  0  0  0  0  0  0  0  0  0  0  0
    3.6614   17.9913    0.9268 H   0  0  0  0  0  0  0  0  0  0  0  0
    4.7476   15.7278   -0.7504 H   0  0  0  0  0  0  0  0  0  0  0  0
    4.7659   17.5343   -2.1163 H   0  0  0  0  0  0  0  0  0  0  0  0
    3.0131   17.0586   -2.3305 H   0  0  0  0  0  0  0  0  0  0  0  0
    3.7995   19.0251   -0.1889 H   0  0  0  0  0  0  0  0  0  0  0  0
    3.6228   19.5494   -1.9154 H   0  0  0  0  0  0  0  0  0  0  0  0
    1.7197   17.8802   -1.4493 H   0  0  0  0  0  0  0  0  0  0  0  0
    1.5456   19.8700    2.2498 H   0  0  0  0  0  0  0  0  0  0  0  0
    2.9958   19.9007    1.1903 H   0  0  0  0  0  0  0  0  0  0  0  0
    1.8540   21.2874    1.1903 H   0  0  0  0  0  0  0  0  0  0  0  0
   -0.3746   19.1132    1.6036 H   0  0  0  0  0  0  0  0  0  0  0  0
   -0.9516   19.8832    0.0867 H   0  0  0  0  0  0  0  0  0  0  0  0
   -0.4617   18.1550    0.0867 H   0  0  0  0  0  0  0  0  0  0  0  0
    2.8249   15.0137    0.5174 H   0  0  0  0  0  0  0  0  0  0  0  0
    1.0356   16.6322    0.6642 H   0  0  0  0  0  0  0  0  0  0  0  0
    1.5350   17.4358   -0.8394 H   0  0  0  0  0  0  0  0  0  0  0  0
   -0.6928   15.6677   -0.5620 H   0  0  0  0  0  0  0  0  0  0  0  0
    0.0033   16.1434   -2.1089 H   0  0  0  0  0  0  0  0  0  0  0  0
    0.8015   14.2340    0.8920 H   0  0  0  0  0  0  0  0  0  0  0  0
   -0.5448   13.3093    0.1443 H   0  0  0  0  0  0  0  0  0  0  0  0
    1.1189   12.6319    0.1443 H   0  0  0  0  0  0  0  0  0  0  0  0
    0.3917   14.0968   -3.3457 H   0  0  0  0  0  0  0  0  0  0  0  0
   -1.7483   13.9585   -1.9169 H   0  0  0  0  0  0  0  0  0  0  0  0
   -1.5855   13.0063   -3.4842 H   0  0  0  0  0  0  0  0  0  0  0  0
   -2.6966   11.7386   -1.4596 H   0  0  0  0  0  0  0  0  0  0  0  0
    1.2543   11.0722   -0.9714 H   0  0  0  0  0  0  0  0  0  0  0  0
    0.4895    9.3660   -3.4214 H   0  0  0  0  0  0  0  0  0  0  0  0
    2.1405    9.5248   -2.6737 H   0  0  0  0  0  0  0  0  0  0  0  0
    1.0268    7.4060   -2.0435 H   0  0  0  0  0  0  0  0  0  0  0  0
    1.3481    8.4829   -0.6282 H   0  0  0  0  0  0  0  0  0  0  0  0
   -0.8470    7.5448   -0.3998 H   0  0  0  0  0  0  0  0  0  0  0  0
   -2.2170    8.6380   -2.3970 H   0  0  0  0  0  0  0  0  0  0  0  0
   -1.3839    9.6017    1.6118 H   0  0  0  0  0  0  0  0  0  0  0  0
    0.2371    9.1635    0.9737 H   0  0  0  0  0  0  0  0  0  0  0  0
   -0.2943   10.8793    0.9737 H   0  0  0  0  0  0  0  0  0  0  0  0
   -2.9960    9.5099    0.7135 H   0  0  0  0  0  0  0  0  0  0  0  0
   -3.2654   10.3896   -0.8293 H   0  0  0  0  0  0  0  0  0  0  0  0
   -3.1242    8.5988   -0.8293 H   0  0  0  0  0  0  0  0  0  0  0  0
    0.1135   10.8943   -4.3585 H   0  0  0  0  0  0  0  0  0  0  0  0
    0.3407   12.6186   -4.8078 H   0  0  0  0  0  0  0  0  0  0  0  0
    1.7446   11.4979   -4.8078 H   0  0  0  0  0  0  0  0  0  0  0  0
    3.1054   11.3556   -2.5429 H   0  0  0  0  0  0  0  0  0  0  0  0
    2.9193   12.8450   -3.6297 H   0  0  0  0  0  0  0  0  0  0  0  0
    2.9744   12.7615   -0.6004 H   0  0  0  0  0  0  0  0  0  0  0  0
    4.1755   13.5000   -1.7318 H   0  0  0  0  0  0  0  0  0  0  0  0
    2.9927   16.3210   -2.7171 H   0  0  0  0  0  0  0  0  0  0  0  0
    3.3467   14.7416   -3.4960 H   0  0  0  0  0  0  0  0  0  0  0  0
    1.6705   15.3874   -3.4960 H   0  0  0  0  0  0  0  0  0  0  0  0
  1  2  1  0
  2  3  1  0
  3  4  1  0
  4  5  1  0
  5  6  1  0
  6  7  1  0
  7  8  1  0
  7  9  1  0
  2 10  1  0
 10 11  1  0
 11 12  1  0
 12 13  1  0
 13 14  1  1
 13 15  1  0
 15 16  1  0
 16 17  1  0
 17 18  2  0
 18 19  1  0
 19 20  1  0
 20 21  1  0
 21 22  1  0
 22 23  1  0
 22 24  1  0
 24 25  1  0
 24 26  1  0
 19 27  1  0
 27 28  1  6
 27 29  1  0
 29 30  1  0
 30 31  1  0
 31 32  1  6
  7  5  1  0
 31 10  1  0
 31 13  1  0
 27 15  1  0
 24 18  1  0
  1 33  1  0
  1 34  1  0
  1 35  1  0
  2 36  1  6
  3 37  1  0
  3 38  1  0
  4 39  1  0
  4 40  1  0
  5 41  1  6
  8 42  1  0
  8 43  1  0
  8 44  1  0
  9 45  1  0
  9 46  1  0
  9 47  1  0
 10 48  1  1
 11 49  1  0
 11 50  1  0
 12 51  1  0
 12 52  1  0
 14 53  1  0
 14 54  1  0
 14 55  1  0
 15 56  1  6
 16 57  1  0
 16 58  1  0
 17 59  1  0
 19 60  1  1
 20 61  1  0
 20 62  1  0
 21 63  1  0
 21 64  1  0
 22 65  1  1
 23 66  1  0
 25 67  1  0
 25 68  1  0
 25 69  1  0
 26 70  1  0
 26 71  1  0
 26 72  1  0
 28 73  1  0
 28 74  1  0
 28 75  1  0
 29 76  1  0
 29 77  1  0
 30 78  1  0
 30 79  1  0
 32 80  1  0
 32 81  1  0
 32 82  1  0
M  END
>  <meeko>  (13) 
{"is_sidechain": [false], "intermolecular_energy": 2.731, "internal_energy": -0.839}

$$$$
EPH_relaxed_0001_pdb2pqr_Repair_334_r2_0001_out
     RDKit          3D

 82 86  0  0  0  0  0  0  0  0999 V2000
    0.8550    8.9010   -0.2270 C   0  0  0  0  0  0  0  0  0  0  0  0
   -0.1740    9.6580   -1.0710 C   0  0  2  0  0  0  0  0  0  0  0  0
   -0.8650    8.7450   -2.1030 C   0  0  0  0  0  0  0  0  0  0  0  0
   -2.3380    8.4690   -1.7930 C   0  0  0  0  0  0  0  0  0  0  0  0
   -2.8530    7.2840   -2.5530 C   0  0  2  0  0  0  0  0  0  0  0  0
   -3.8670    7.5880   -3.5200 O   0  0  0  0  0  0  0  0  0  0  0  0
   -4.2690    6.7550   -2.4200 C   0  0  0  0  0  0  0  0  0  0  0  0
   -5.2580    7.3980   -1.5000 C   0  0  0  0  0  0  0  0  0  0  0  0
   -4.5410    5.3350   -2.8080 C   0  0  0  0  0  0  0  0  0  0  0  0
    0.4960   10.8310   -1.7780 C   0  0  1  0  0  0  0  0  0  0  0  0
    0.1530   10.8910   -3.2900 C   0  0  0  0  0  0  0  0  0  0  0  0
    0.0770   12.3910   -3.6720 C   0  0  0  0  0  0  0  0  0  0  0  0
    0.6980   13.1330   -2.4660 C   0  0  1  0  0  0  0  0  0  0  0  0
    2.2400   13.0270   -2.6800 C   0  0  0  0  0  0  0  0  0  0  0  0
    0.2440   14.6150   -2.2570 C   0  0  2  0  0  0  0  0  0  0  0  0
    0.6070   15.5750   -3.4030 C   0  0  0  0  0  0  0  0  0  0  0  0
    1.9290   16.2560   -3.2710 C   0  0  0  0  0  0  0  0  0  0  0  0
    2.6630   16.3260   -2.1450 C   0  0  0  0  0  0  0  0  0  0  0  0
    2.1300   15.7640   -0.8210 C   0  0  1  0  0  0  0  0  0  0  0  0
    2.3670   16.7960    0.3130 C   0  0  0  0  0  0  0  0  0  0  0  0
    3.8250   17.2340    0.4100 C   0  0  0  0  0  0  0  0  0  0  0  0
    4.3010   17.8410   -0.9080 C   0  0  2  0  0  0  0  0  0  0  0  0
    3.5970   19.0670   -1.1320 O   0  0  0  0  0  0  0  0  0  0  0  0
    4.1030   16.8950   -2.1250 C   0  0  0  0  0  0  0  0  0  0  0  0
    5.0930   15.7080   -2.0270 C   0  0  0  0  0  0  0  0  0  0  0  0
    4.4910   17.6790   -3.4070 C   0  0  0  0  0  0  0  0  0  0  0  0
    0.6370   15.2210   -0.8490 C   0  0  1  0  0  0  0  0  0  0  0  0
   -0.3600   16.3880   -0.5740 C   0  0  0  0  0  0  0  0  0  0  0  0
    0.4430   14.1870    0.3220 C   0  0  0  0  0  0  0  0  0  0  0  0
    0.7960   12.7180    0.0180 C   0  0  0  0  0  0  0  0  0  0  0  0
    0.1390   12.2560   -1.2870 C   0  0  2  0  0  0  0  0  0  0  0  0
   -1.4140   12.3300   -1.0930 C   0  0  0  0  0  0  0  0  0  0  0  0
    0.6409    9.0585    0.8404 H   0  0  0  0  0  0  0  0  0  0  0  0
    0.7995    7.8269   -0.4575 H   0  0  0  0  0  0  0  0  0  0  0  0
    1.8639    9.2738   -0.4575 H   0  0  0  0  0  0  0  0  0  0  0  0
   -0.9520   10.0303   -0.3883 H   0  0  0  0  0  0  0  0  0  0  0  0
   -0.8024    9.2270   -3.0898 H   0  0  0  0  0  0  0  0  0  0  0  0
   -0.3441    7.7766   -2.0745 H   0  0  0  0  0  0  0  0  0  0  0  0
   -2.4451    8.2752   -0.7155 H   0  0  0  0  0  0  0  0  0  0  0  0
   -2.9226    9.3503   -2.0956 H   0  0  0  0  0  0  0  0  0  0  0  0
   -1.8723    6.7895   -2.4927 H   0  0  0  0  0  0  0  0  0  0  0  0
   -4.9657    7.2080   -0.4567 H   0  0  0  0  0  0  0  0  0  0  0  0
   -5.2782    8.4824   -1.6834 H   0  0  0  0  0  0  0  0  0  0  0  0
   -6.2573    6.9764   -1.6834 H   0  0  0  0  0  0  0  0  0  0  0  0
   -4.6582    4.7232   -1.9014 H   0  0  0  0  0  0  0  0  0  0  0  0
   -5.4644    5.2882   -3.4039 H   0  0  0  0  0  0  0  0  0  0  0  0
   -3.7002    4.9502   -3.4039 H   0  0  0  0  0  0  0  0  0  0  0  0
    1.5484   10.6074   -1.5491 H   0  0  0  0  0  0  0  0  0  0  0  0
    0.9372   10.3900   -3.8765 H   0  0  0  0  0  0  0  0  0  0  0  0
   -0.7990   10.3813   -3.4996 H   0  0  0  0  0  0  0  0  0  0  0  0
    0.6535   12.5881   -4.5879 H   0  0  0  0  0  0  0  0  0  0  0  0
   -0.9533   12.7174   -3.8769 H   0  0  0  0  0  0  0  0  0  0  0  0
    2.7442   12.9923   -1.7030 H   0  0  0  0  0  0  0  0  0  0  0  0
    2.4698   12.1109   -3.2439 H   0  0  0  0  0  0  0  0  0  0  0  0
    2.5930   13.9030   -3.2439 H   0  0  0  0  0  0  0  0  0  0  0  0
   -0.8527   14.5309   -2.2729 H   0  0  0  0  0  0  0  0  0  0  0  0
    0.6139   14.9985   -4.3398 H   0  0  0  0  0  0  0  0  0  0  0  0
   -0.1495   16.3733   -3.3819 H   0  0  0  0  0  0  0  0  0  0  0  0
    2.3375   16.7414   -4.1696 H   0  0  0  0  0  0  0  0  0  0  0  0
    2.7113   14.8514   -0.6227 H   0  0  0  0  0  0  0  0  0  0  0  0
    1.7448   17.6821    0.1191 H   0  0  0  0  0  0  0  0  0  0  0  0
    2.0992   16.3137    1.2647 H   0  0  0  0  0  0  0  0  0  0  0  0
    3.9232   17.9844    1.2083 H   0  0  0  0  0  0  0  0  0  0  0  0
    4.4427   16.3517    0.6337 H   0  0  0  0  0  0  0  0  0  0  0  0
    5.3835   18.0150   -0.8190 H   0  0  0  0  0  0  0  0  0  0  0  0
    3.4720   19.1630   -2.0910 H   0  0  0  0  0  0  0  0  0  0  0  0
    5.2853   15.4774   -0.9688 H   0  0  0  0  0  0  0  0  0  0  0  0
    4.6587   14.8265   -2.5213 H   0  0  0  0  0  0  0  0  0  0  0  0
    6.0381   15.9770   -2.5213 H   0  0  0  0  0  0  0  0  0  0  0  0
    4.9626   18.6320   -3.1253 H   0  0  0  0  0  0  0  0  0  0  0  0
    5.1976   17.0820   -4.0021 H   0  0  0  0  0  0  0  0  0  0  0  0
    3.5877   17.8787   -4.0021 H   0  0  0  0  0  0  0  0  0  0  0  0
   -0.4756   16.5233    0.5115 H   0  0  0  0  0  0  0  0  0  0  0  0
    0.0290   17.3153   -1.0198 H   0  0  0  0  0  0  0  0  0  0  0  0
   -1.3367   16.1485   -1.0198 H   0  0  0  0  0  0  0  0  0  0  0  0
    1.0735   14.5137    1.1621 H   0  0  0  0  0  0  0  0  0  0  0  0
   -0.6373   14.1863    0.5291 H   0  0  0  0  0  0  0  0  0  0  0  0
    1.8878   12.6219   -0.0749 H   0  0  0  0  0  0  0  0  0  0  0  0
    0.4233   12.0898    0.8405 H   0  0  0  0  0  0  0  0  0  0  0  0
   -1.6492   12.3412   -0.0185 H   0  0  0  0  0  0  0  0  0  0  0  0
   -1.7988   13.2475   -1.5622 H   0  0  0  0  0  0  0  0  0  0  0  0
   -1.8843   11.4532   -1.5622 H   0  0  0  0  0  0  0  0  0  0  0  0
  1  2  1  0
  2  3  1  0
  3  4  1  0
  4  5  1  0
  5  6  1  0
  6  7  1  0
  7  8  1  0
  7  9  1  0
  2 10  1  0
 10 11  1  0
 11 12  1  0
 12 13  1  0
 13 14  1  6
 13 15  1  0
 15 16  1  0
 16 17  1  0
 17 18  2  0
 18 19  1  0
 19 20  1  0
 20 21  1  0
 21 22  1  0
 22 23  1  0
 22 24  1  0
 24 25  1  0
 24 26  1  0
 19 27  1  0
 27 28  1  1
 27 29  1  0
 29 30  1  0
 30 31  1  0
 31 32  1  1
  7  5  1  0
 31 10  1  0
 31 13  1  0
 27 15  1  0
 24 18  1  0
  1 33  1  0
  1 34  1  0
  1 35  1  0
  2 36  1  1
  3 37  1  0
  3 38  1  0
  4 39  1  0
  4 40  1  0
  5 41  1  6
  8 42  1  0
  8 43  1  0
  8 44  1  0
  9 45  1  0
  9 46  1  0
  9 47  1  0
 10 48  1  6
 11 49  1  0
 11 50  1  0
 12 51  1  0
 12 52  1  0
 14 53  1  0
 14 54  1  0
 14 55  1  0
 15 56  1  1
 16 57  1  0
 16 58  1  0
 17 59  1  0
 19 60  1  1
 20 61  1  0
 20 62  1  0
 21 63  1  0
 21 64  1  0
 22 65  1  1
 23 66  1  0
 25 67  1  0
 25 68  1  0
 25 69  1  0
 26 70  1  0
 26 71  1  0
 26 72  1  0
 28 73  1  0
 28 74  1  0
 28 75  1  0
 29 76  1  0
 29 77  1  0
 30 78  1  0
 30 79  1  0
 32 80  1  0
 32 81  1  0
 32 82  1  0
M  END
>  <meeko>  (14) 
{"is_sidechain": [false], "intermolecular_energy": 2.731, "internal_energy": -0.839}

$$$$
EPH_relaxed_0001_pdb2pqr_Repair_334_r2_0001_out
     RDKit          3D

 82 86  0  0  0  0  0  0  0  0999 V2000
   -0.2670   10.3670   -2.2090 C   0  0  0  0  0  0  0  0  0  0  0  0
    0.6780   10.2470   -1.0100 C   0  0  2  0  0  0  0  0  0  0  0  0
   -0.0860   10.1680    0.3270 C   0  0  0  0  0  0  0  0  0  0  0  0
    0.7000   10.7200    1.5190 C   0  0  0  0  0  0  0  0  0  0  0  0
   -0.0610   11.7950    2.2340 C   0  0  2  0  0  0  0  0  0  0  0  0
    0.5470   13.0920    2.1850 O   0  0  0  0  0  0  0  0  0  0  0  0
    0.4460   12.4880    3.4850 C   0  0  0  0  0  0  0  0  0  0  0  0
    1.7660   12.1310    4.0940 C   0  0  0  0  0  0  0  0  0  0  0  0
   -0.5460   13.1560    4.3850 C   0  0  0  0  0  0  0  0  0  0  0  0
    1.6430   11.4270   -0.9890 C   0  0  1  0  0  0  0  0  0  0  0  0
    2.9650   11.1320   -1.7470 C   0  0  0  0  0  0  0  0  0  0  0  0
    3.4040   12.4610   -2.4130 C   0  0  0  0  0  0  0  0  0  0  0  0
    2.5160   13.5410   -1.7530 C   0  0  1  0  0  0  0  0  0  0  0  0
    3.2080   13.8500   -0.3880 C   0  0  0  0  0  0  0  0  0  0  0  0
    2.2760   14.8420   -2.5860 C   0  0  2  0  0  0  0  0  0  0  0  0
    3.5410   15.6610   -2.8970 C   0  0  0  0  0  0  0  0  0  0  0  0
    3.8880   16.7060   -1.8900 C   0  0  0  0  0  0  0  0  0  0  0  0
    3.0660   17.1720   -0.9310 C   0  0  0  0  0  0  0  0  0  0  0  0
    1.6060   16.7100   -0.8520 C   0  0  1  0  0  0  0  0  0  0  0  0
    0.6830   17.9410   -0.6540 C   0  0  0  0  0  0  0  0  0  0  0  0
    1.0910   18.7910    0.5460 C   0  0  0  0  0  0  0  0  0  0  0  0
    2.5310   19.2790    0.4030 C   0  0  2  0  0  0  0  0  0  0  0  0
    2.6000   20.1940   -0.6950 O   0  0  0  0  0  0  0  0  0  0  0  0
    3.5510   18.1270    0.1880 C   0  0  0  0  0  0  0  0  0  0  0  0
    3.6960   17.3090    1.4960 C   0  0  0  0  0  0  0  0  0  0  0  0
    4.9410   18.7630   -0.0820 C   0  0  0  0  0  0  0  0  0  0  0  0
    1.1140   15.7620   -2.0300 C   0  0  1  0  0  0  0  0  0  0  0  0
    0.6140   16.6220   -3.2310 C   0  0  0  0  0  0  0  0  0  0  0  0
   -0.1250   14.9270   -1.5350 C   0  0  0  0  0  0  0  0  0  0  0  0
    0.1740   13.5930   -0.8240 C   0  0  0  0  0  0  0  0  0  0  0  0
    1.1620   12.7500   -1.6360 C   0  0  2  0  0  0  0  0  0  0  0  0
    0.4850   12.4050   -3.0060 C   0  0  0  0  0  0  0  0  0  0  0  0
   -1.2988   10.4980   -1.8510 H   0  0  0  0  0  0  0  0  0  0  0  0
    0.0226   11.2356   -2.8187 H   0  0  0  0  0  0  0  0  0  0  0  0
   -0.2036    9.4536   -2.8187 H   0  0  0  0  0  0  0  0  0  0  0  0
    1.2399    9.3083   -1.1247 H   0  0  0  0  0  0  0  0  0  0  0  0
   -1.0179   10.7441    0.2289 H   0  0  0  0  0  0  0  0  0  0  0  0
   -0.2702    9.1026    0.5293 H   0  0  0  0  0  0  0  0  0  0  0  0
    0.9040    9.8993    2.2225 H   0  0  0  0  0  0  0  0  0  0  0  0
    1.6362   11.1561    1.1404 H   0  0  0  0  0  0  0  0  0  0  0  0
   -1.0184   11.3078    1.9972 H   0  0  0  0  0  0  0  0  0  0  0  0
    1.6820   12.1537    5.1906 H   0  0  0  0  0  0  0  0  0  0  0  0
    2.0585   11.1215    3.7695 H   0  0  0  0  0  0  0  0  0  0  0  0
    2.5275   12.8555    3.7695 H   0  0  0  0  0  0  0  0  0  0  0  0
   -0.2718   12.9713    5.4341 H   0  0  0  0  0  0  0  0  0  0  0  0
   -0.5460   14.2388    4.1911 H   0  0  0  0  0  0  0  0  0  0  0  0
   -1.5493   12.7488    4.1911 H   0  0  0  0  0  0  0  0  0  0  0  0
    1.7514   11.5572    0.0979 H   0  0  0  0  0  0  0  0  0  0  0  0
    3.7369   10.7880   -1.0428 H   0  0  0  0  0  0  0  0  0  0  0  0
    2.8217   10.3417   -2.4986 H   0  0  0  0  0  0  0  0  0  0  0  0
    4.4679   12.6604   -2.2172 H   0  0  0  0  0  0  0  0  0  0  0  0
    3.2881   12.4373   -3.5066 H   0  0  0  0  0  0  0  0  0  0  0  0
    2.5426   13.5529    0.4360 H   0  0  0  0  0  0  0  0  0  0  0  0
    4.1507   13.2873   -0.3191 H   0  0  0  0  0  0  0  0  0  0  0  0
    3.4183   14.9275   -0.3191 H   0  0  0  0  0  0  0  0  0  0  0  0
    1.9337   14.4434   -3.5524 H   0  0  0  0  0  0  0  0  0  0  0  0
    4.3884   14.9633   -2.9685 H   0  0  0  0  0  0  0  0  0  0  0  0
    3.3324   16.1987   -3.8337 H   0  0  0  0  0  0  0  0  0  0  0  0
    4.9013   17.1317   -1.9350 H   0  0  0  0  0  0  0  0  0  0  0  0
    1.5429   16.0510    0.0265 H   0  0  0  0  0  0  0  0  0  0  0  0
    0.7275   18.5644   -1.5592 H   0  0  0  0  0  0  0  0  0  0  0  0
   -0.3353   17.5686   -0.4688 H   0  0  0  0  0  0  0  0  0  0  0  0
    0.4211   19.6607    0.6159 H   0  0  0  0  0  0  0  0  0  0  0  0
    1.0169   18.1754    1.4546 H   0  0  0  0  0  0  0  0  0  0  0  0
    2.8081   19.7695    1.3478 H   0  0  0  0  0  0  0  0  0  0  0  0
    2.2140   19.7530   -1.4700 H   0  0  0  0  0  0  0  0  0  0  0  0
    3.5775   17.9774    2.3615 H   0  0  0  0  0  0  0  0  0  0  0  0
    2.9224   16.5277    1.5275 H   0  0  0  0  0  0  0  0  0  0  0  0
    4.6911   16.8412    1.5275 H   0  0  0  0  0  0  0  0  0  0  0  0
    5.4334   18.9883    0.8755 H   0  0  0  0  0  0  0  0  0  0  0  0
    5.5610   18.0590   -0.6564 H   0  0  0  0  0  0  0  0  0  0  0  0
    4.8136   19.6924   -0.6564 H   0  0  0  0  0  0  0  0  0  0  0  0
    0.0950   17.5147   -2.8518 H   0  0  0  0  0  0  0  0  0  0  0  0
    1.4736   16.9304   -3.8442 H   0  0  0  0  0  0  0  0  0  0  0  0
   -0.0793   16.0275   -3.8442 H   0  0  0  0  0  0  0  0  0  0  0  0
   -0.6924   15.5573   -0.8345 H   0  0  0  0  0  0  0  0  0  0  0  0
   -0.6685   14.6493   -2.4502 H   0  0  0  0  0  0  0  0  0  0  0  0
    0.6069   13.8015    0.1655 H   0  0  0  0  0  0  0  0  0  0  0  0
   -0.7661   13.0310   -0.7216 H   0  0  0  0  0  0  0  0  0  0  0  0
   -0.4815   11.9125   -2.8236 H   0  0  0  0  0  0  0  0  0  0  0  0
    0.3228   13.3304   -3.5782 H   0  0  0  0  0  0  0  0  0  0  0  0
    1.1384   11.7299   -3.5782 H   0  0  0  0  0  0  0  0  0  0  0  0
  1  2  1  0
  2  3  1  0
  3  4  1  0
  4  5  1  0
  5  6  1  0
  6  7  1  0
  7  8  1  0
  7  9  1  0
  2 10  1  0
 10 11  1  0
 11 12  1  0
 12 13  1  0
 13 14  1  1
 13 15  1  0
 15 16  1  0
 16 17  1  0
 17 18  2  0
 18 19  1  0
 19 20  1  0
 20 21  1  0
 21 22  1  0
 22 23  1  0
 22 24  1  0
 24 25  1  0
 24 26  1  0
 19 27  1  0
 27 28  1  6
 27 29  1  0
 29 30  1  0
 30 31  1  0
 31 32  1  6
  7  5  1  0
 31 10  1  0
 31 13  1  0
 27 15  1  0
 24 18  1  0
  1 33  1  0
  1 34  1  0
  1 35  1  0
  2 36  1  6
  3 37  1  0
  3 38  1  0
  4 39  1  0
  4 40  1  0
  5 41  1  1
  8 42  1  0
  8 43  1  0
  8 44  1  0
  9 45  1  0
  9 46  1  0
  9 47  1  0
 10 48  1  1
 11 49  1  0
 11 50  1  0
 12 51  1  0
 12 52  1  0
 14 53  1  0
 14 54  1  0
 14 55  1  0
 15 56  1  6
 16 57  1  0
 16 58  1  0
 17 59  1  0
 19 60  1  1
 20 61  1  0
 20 62  1  0
 21 63  1  0
 21 64  1  0
 22 65  1  1
 23 66  1  0
 25 67  1  0
 25 68  1  0
 25 69  1  0
 26 70  1  0
 26 71  1  0
 26 72  1  0
 28 73  1  0
 28 74  1  0
 28 75  1  0
 29 76  1  0
 29 77  1  0
 30 78  1  0
 30 79  1  0
 32 80  1  0
 32 81  1  0
 32 82  1  0
M  END
>  <meeko>  (15) 
{"is_sidechain": [false], "intermolecular_energy": 2.731, "internal_energy": -0.839}

$$$$
EPH_relaxed_0001_pdb2pqr_Repair_334_r2_0001_out
     RDKit          3D

 82 86  0  0  0  0  0  0  0  0999 V2000
   -5.1830    5.8570   -1.6040 C   0  0  0  0  0  0  0  0  0  0  0  0
   -5.4410    7.3540   -1.7940 C   0  0  2  0  0  0  0  0  0  0  0  0
   -5.1800    8.1570   -0.5030 C   0  0  0  0  0  0  0  0  0  0  0  0
   -4.1370    9.2650   -0.6680 C   0  0  0  0  0  0  0  0  0  0  0  0
   -2.7710    8.7070   -0.9310 C   0  0  2  0  0  0  0  0  0  0  0  0
   -1.8030    8.9850    0.0900 O   0  0  0  0  0  0  0  0  0  0  0  0
   -1.5510    9.5690   -1.1990 C   0  0  0  0  0  0  0  0  0  0  0  0
   -1.6410   11.0630   -1.2190 C   0  0  0  0  0  0  0  0  0  0  0  0
   -0.3890    8.9600   -1.9190 C   0  0  0  0  0  0  0  0  0  0  0  0
   -6.8720    7.5800   -2.2670 C   0  0  1  0  0  0  0  0  0  0  0  0
   -7.1690    6.8890   -3.6240 C   0  0  0  0  0  0  0  0  0  0  0  0
   -8.6430    6.4130   -3.5720 C   0  0  0  0  0  0  0  0  0  0  0  0
   -9.2400    7.1280   -2.3370 C   0  0  1  0  0  0  0  0  0  0  0  0
   -9.5900    8.5650   -2.8360 C   0  0  0  0  0  0  0  0  0  0  0  0
  -10.4690    6.4350   -1.6640 C   0  0  2  0  0  0  0  0  0  0  0  0
  -11.7170    6.3100   -2.5560 C   0  0  0  0  0  0  0  0  0  0  0  0
  -12.6740    7.4530   -2.4770 C   0  0  0  0  0  0  0  0  0  0  0  0
  -12.6860    8.3980   -1.5190 C   0  0  0  0  0  0  0  0  0  0  0  0
  -11.7300    8.3190   -0.3220 C   0  0  1  0  0  0  0  0  0  0  0  0
  -12.5160    8.5910    0.9880 C   0  0  0  0  0  0  0  0  0  0  0  0
  -13.2880    9.9060    0.9440 C   0  0  0  0  0  0  0  0  0  0  0  0
  -14.2690    9.9240   -0.2250 C   0  0  2  0  0  0  0  0  0  0  0  0
  -15.2870    8.9460    0.0130 O   0  0  0  0  0  0  0  0  0  0  0  0
  -13.5930    9.6510   -1.5970 C   0  0  0  0  0  0  0  0  0  0  0  0
  -12.7140   10.8630   -1.9940 C   0  0  0  0  0  0  0  0  0  0  0  0
  -14.7110    9.5560   -2.6700 C   0  0  0  0  0  0  0  0  0  0  0  0
  -10.8350    7.0080   -0.2350 C   0  0  1  0  0  0  0  0  0  0  0  0
  -11.6130    5.8810    0.5110 C   0  0  0  0  0  0  0  0  0  0  0  0
   -9.5570    7.3140    0.6310 C   0  0  0  0  0  0  0  0  0  0  0  0
   -8.3340    7.8860   -0.1110 C   0  0  0  0  0  0  0  0  0  0  0  0
   -8.0120    7.0560   -1.3580 C   0  0  2  0  0  0  0  0  0  0  0  0
   -7.6340    5.6110   -0.8850 C   0  0  0  0  0  0  0  0  0  0  0  0
   -5.1431    5.6253   -0.5294 H   0  0  0  0  0  0  0  0  0  0  0  0
   -5.9954    5.2825   -2.0730 H   0  0  0  0  0  0  0  0  0  0  0  0
   -4.2252    5.5876   -2.0730 H   0  0  0  0  0  0  0  0  0  0  0  0
   -4.7361    7.7163   -2.5568 H   0  0  0  0  0  0  0  0  0  0  0  0
   -6.1267    8.6162   -0.1822 H   0  0  0  0  0  0  0  0  0  0  0  0
   -4.7833    7.4502    0.2406 H   0  0  0  0  0  0  0  0  0  0  0  0
   -4.4288    9.9060   -1.5129 H   0  0  0  0  0  0  0  0  0  0  0  0
   -4.0974    9.8404    0.2687 H   0  0  0  0  0  0  0  0  0  0  0  0
   -3.2004    7.8489   -1.4688 H   0  0  0  0  0  0  0  0  0  0  0  0
   -1.6639   11.4428   -0.1869 H   0  0  0  0  0  0  0  0  0  0  0  0
   -0.7661   11.4761   -1.7424 H   0  0  0  0  0  0  0  0  0  0  0  0
   -2.5591   11.3680   -1.7424 H   0  0  0  0  0  0  0  0  0  0  0  0
    0.3377    8.5792   -1.1862 H   0  0  0  0  0  0  0  0  0  0  0  0
   -0.7422    8.1311   -2.5500 H   0  0  0  0  0  0  0  0  0  0  0  0
    0.0917    9.7221   -2.5500 H   0  0  0  0  0  0  0  0  0  0  0  0
   -6.8859    8.6796   -2.2935 H   0  0  0  0  0  0  0  0  0  0  0  0
   -7.0304    7.6019   -4.4502 H   0  0  0  0  0  0  0  0  0  0  0  0
   -6.4870    6.0426   -3.7931 H   0  0  0  0  0  0  0  0  0  0  0  0
   -9.1784    6.7062   -4.4871 H   0  0  0  0  0  0  0  0  0  0  0  0
   -8.7259    5.3184   -3.5011 H   0  0  0  0  0  0  0  0  0  0  0  0
   -9.7507    9.2247   -1.9705 H   0  0  0  0  0  0  0  0  0  0  0  0
   -8.7604    8.9540   -3.4446 H   0  0  0  0  0  0  0  0  0  0  0  0
  -10.5056    8.5290   -3.4446 H   0  0  0  0  0  0  0  0  0  0  0  0
  -10.1060    5.4078   -1.5121 H   0  0  0  0  0  0  0  0  0  0  0  0
  -11.3813    6.2192   -3.5996 H   0  0  0  0  0  0  0  0  0  0  0  0
  -12.2648    5.4285   -2.1913 H   0  0  0  0  0  0  0  0  0  0  0  0
  -13.4337    7.5292   -3.2689 H   0  0  0  0  0  0  0  0  0  0  0  0
  -10.9809    9.1091   -0.4787 H   0  0  0  0  0  0  0  0  0  0  0  0
  -13.2288    7.7688    1.1489 H   0  0  0  0  0  0  0  0  0  0  0  0
  -11.7857    8.6595    1.8077 H   0  0  0  0  0  0  0  0  0  0  0  0
  -13.8461   10.0274    1.8841 H   0  0  0  0  0  0  0  0  0  0  0  0
  -12.5709   10.7298    0.8131 H   0  0  0  0  0  0  0  0  0  0  0  0
  -14.6955   10.9364   -0.2821 H   0  0  0  0  0  0  0  0  0  0  0  0
  -14.8450    8.1150    0.2550 H   0  0  0  0  0  0  0  0  0  0  0  0
  -12.3499   11.3651   -1.0855 H   0  0  0  0  0  0  0  0  0  0  0  0
  -11.8569   10.5150   -2.5892 H   0  0  0  0  0  0  0  0  0  0  0  0
  -13.3110   11.5696   -2.5892 H   0  0  0  0  0  0  0  0  0  0  0  0
  -15.6892    9.4729   -2.1739 H   0  0  0  0  0  0  0  0  0  0  0  0
  -14.6940   10.4588   -3.2982 H   0  0  0  0  0  0  0  0  0  0  0  0
  -14.5419    8.6690   -3.2982 H   0  0  0  0  0  0  0  0  0  0  0  0
  -11.5141    6.0243    1.5971 H   0  0  0  0  0  0  0  0  0  0  0  0
  -12.6760    5.9221    0.2310 H   0  0  0  0  0  0  0  0  0  0  0  0
  -11.1977    4.9016    0.2310 H   0  0  0  0  0  0  0  0  0  0  0  0
   -9.8459    8.0402    1.4050 H   0  0  0  0  0  0  0  0  0  0  0  0
   -9.2290    6.3365    1.0143 H   0  0  0  0  0  0  0  0  0  0  0  0
   -8.5485    8.9216   -0.4135 H   0  0  0  0  0  0  0  0  0  0  0  0
   -7.4669    7.8543    0.5651 H   0  0  0  0  0  0  0  0  0  0  0  0
   -7.6248    5.5757    0.2144 H   0  0  0  0  0  0  0  0  0  0  0  0
   -8.3748    4.8941   -1.2687 H   0  0  0  0  0  0  0  0  0  0  0  0
   -6.6370    5.3487   -1.2687 H   0  0  0  0  0  0  0  0  0  0  0  0
  1  2  1  0
  2  3  1  0
  3  4  1  0
  4  5  1  0
  5  6  1  0
  6  7  1  0
  7  8  1  0
  7  9  1  0
  2 10  1  0
 10 11  1  0
 11 12  1  0
 12 13  1  0
 13 14  1  6
 13 15  1  0
 15 16  1  0
 16 17  1  0
 17 18  2  0
 18 19  1  0
 19 20  1  0
 20 21  1  0
 21 22  1  0
 22 23  1  0
 22 24  1  0
 24 25  1  0
 24 26  1  0
 19 27  1  0
 27 28  1  1
 27 29  1  0
 29 30  1  0
 30 31  1  0
 31 32  1  1
  7  5  1  0
 31 10  1  0
 31 13  1  0
 27 15  1  0
 24 18  1  0
  1 33  1  0
  1 34  1  0
  1 35  1  0
  2 36  1  6
  3 37  1  0
  3 38  1  0
  4 39  1  0
  4 40  1  0
  5 41  1  6
  8 42  1  0
  8 43  1  0
  8 44  1  0
  9 45  1  0
  9 46  1  0
  9 47  1  0
 10 48  1  6
 11 49  1  0
 11 50  1  0
 12 51  1  0
 12 52  1  0
 14 53  1  0
 14 54  1  0
 14 55  1  0
 15 56  1  1
 16 57  1  0
 16 58  1  0
 17 59  1  0
 19 60  1  6
 20 61  1  0
 20 62  1  0
 21 63  1  0
 21 64  1  0
 22 65  1  6
 23 66  1  0
 25 67  1  0
 25 68  1  0
 25 69  1  0
 26 70  1  0
 26 71  1  0
 26 72  1  0
 28 73  1  0
 28 74  1  0
 28 75  1  0
 29 76  1  0
 29 77  1  0
 30 78  1  0
 30 79  1  0
 32 80  1  0
 32 81  1  0
 32 82  1  0
M  END
>  <meeko>  (16) 
{"is_sidechain": [false], "intermolecular_energy": 2.731, "internal_energy": -0.839}

$$$$
EPH_relaxed_0001_pdb2pqr_Repair_334_r2_0001_out
     RDKit          3D

 82 86  0  0  0  0  0  0  0  0999 V2000
    0.2170   10.4430   -3.7550 C   0  0  0  0  0  0  0  0  0  0  0  0
    1.1240   10.2170   -2.5420 C   0  0  2  0  0  0  0  0  0  0  0  0
    0.7130    8.9680   -1.7360 C   0  0  0  0  0  0  0  0  0  0  0  0
   -0.7060    8.4800   -2.0380 C   0  0  0  0  0  0  0  0  0  0  0  0
   -1.5950    8.5810   -0.8350 C   0  0  2  0  0  0  0  0  0  0  0  0
   -2.9770    8.8210   -1.1310 O   0  0  0  0  0  0  0  0  0  0  0  0
   -2.2910    9.8620   -0.4150 C   0  0  0  0  0  0  0  0  0  0  0  0
   -2.1290   11.1300   -1.1940 C   0  0  0  0  0  0  0  0  0  0  0  0
   -2.7300   10.0040    1.0090 C   0  0  0  0  0  0  0  0  0  0  0  0
    1.1060   11.4470   -1.6430 C   0  0  1  0  0  0  0  0  0  0  0  0
    1.5190   11.1250   -0.1820 C   0  0  0  0  0  0  0  0  0  0  0  0
    2.2970   12.3580    0.3450 C   0  0  0  0  0  0  0  0  0  0  0  0
    2.0220   13.4670   -0.6970 C   0  0  1  0  0  0  0  0  0  0  0  0
    0.6180   14.0340   -0.3190 C   0  0  0  0  0  0  0  0  0  0  0  0
    3.0940   14.6010   -0.7980 C   0  0  2  0  0  0  0  0  0  0  0  0
    3.2760   15.4430    0.4770 C   0  0  0  0  0  0  0  0  0  0  0  0
    2.4100   16.6550    0.5700 C   0  0  0  0  0  0  0  0  0  0  0  0
    1.7300   17.2110   -0.4510 C   0  0  0  0  0  0  0  0  0  0  0  0
    1.8740   16.6700   -1.8790 C   0  0  1  0  0  0  0  0  0  0  0  0
    2.0770   17.8520   -2.8630 C   0  0  0  0  0  0  0  0  0  0  0  0
    0.9810   18.9070   -2.7450 C   0  0  0  0  0  0  0  0  0  0  0  0
    0.9080   19.4620   -1.3250 C   0  0  2  0  0  0  0  0  0  0  0  0
    2.1070   20.1940   -1.0550 O   0  0  0  0  0  0  0  0  0  0  0  0
    0.7140   18.3610   -0.2460 C   0  0  0  0  0  0  0  0  0  0  0  0
   -0.7150   17.7720   -0.3540 C   0  0  0  0  0  0  0  0  0  0  0  0
    0.7990   19.0380    1.1480 C   0  0  0  0  0  0  0  0  0  0  0  0
    2.9500   15.5170   -2.0800 C   0  0  1  0  0  0  0  0  0  0  0  0
    4.3550   16.1410   -2.3420 C   0  0  0  0  0  0  0  0  0  0  0  0
    2.5830   14.6900   -3.3680 C   0  0  0  0  0  0  0  0  0  0  0  0
    1.6120   13.5090   -3.1830 C   0  0  0  0  0  0  0  0  0  0  0  0
    2.0520   12.6160   -2.0180 C   0  0  2  0  0  0  0  0  0  0  0  0
    3.4520   12.0140   -2.3790 C   0  0  0  0  0  0  0  0  0  0  0  0
   -0.7973   10.6957   -3.4124 H   0  0  0  0  0  0  0  0  0  0  0  0
    0.6155   11.2693   -4.3620 H   0  0  0  0  0  0  0  0  0  0  0  0
    0.1812    9.5263   -4.3620 H   0  0  0  0  0  0  0  0  0  0  0  0
    2.1439   10.0471   -2.9175 H   0  0  0  0  0  0  0  0  0  0  0  0
    1.4168    8.1560   -1.9710 H   0  0  0  0  0  0  0  0  0  0  0  0
    0.7366    9.2495   -0.6729 H   0  0  0  0  0  0  0  0  0  0  0  0
   -1.1295    9.0937   -2.8467 H   0  0  0  0  0  0  0  0  0  0  0  0
   -0.6490    7.4222   -2.3344 H   0  0  0  0  0  0  0  0  0  0  0  0
   -0.9676    7.8669   -0.2815 H   0  0  0  0  0  0  0  0  0  0  0  0
   -2.0209   11.9759   -0.4992 H   0  0  0  0  0  0  0  0  0  0  0  0
   -1.2326   11.0591   -1.8276 H   0  0  0  0  0  0  0  0  0  0  0  0
   -3.0144   11.2867   -1.8276 H   0  0  0  0  0  0  0  0  0  0  0  0
   -1.8988    9.7351    1.6775 H   0  0  0  0  0  0  0  0  0  0  0  0
   -3.0305   11.0452    1.1980 H   0  0  0  0  0  0  0  0  0  0  0  0
   -3.5833    9.3360    1.1980 H   0  0  0  0  0  0  0  0  0  0  0  0
    0.0577   11.7544   -1.7720 H   0  0  0  0  0  0  0  0  0  0  0  0
    0.6250   10.9494    0.4344 H   0  0  0  0  0  0  0  0  0  0  0  0
    2.1397   10.2179   -0.1378 H   0  0  0  0  0  0  0  0  0  0  0  0
    1.9263   12.6563    1.3367 H   0  0  0  0  0  0  0  0  0  0  0  0
    3.3714   12.1540    0.4636 H   0  0  0  0  0  0  0  0  0  0  0  0
    0.5211   14.0732    0.7760 H   0  0  0  0  0  0  0  0  0  0  0  0
    0.5080   15.0470   -0.7333 H   0  0  0  0  0  0  0  0  0  0  0  0
   -0.1646   13.3814   -0.7333 H   0  0  0  0  0  0  0  0  0  0  0  0
    4.0280   14.0320   -0.9157 H   0  0  0  0  0  0  0  0  0  0  0  0
    3.0559   14.8009    1.3426 H   0  0  0  0  0  0  0  0  0  0  0  0
    4.3124   15.8108    0.4532 H   0  0  0  0  0  0  0  0  0  0  0  0
    2.3195   17.1347    1.5557 H   0  0  0  0  0  0  0  0  0  0  0  0
    0.9289   16.1544   -2.1045 H   0  0  0  0  0  0  0  0  0  0  0  0
    3.0466   18.3256   -2.6498 H   0  0  0  0  0  0  0  0  0  0  0  0
    2.0405   17.4458   -3.8846 H   0  0  0  0  0  0  0  0  0  0  0  0
    1.1969   19.7298   -3.4424 H   0  0  0  0  0  0  0  0  0  0  0  0
    0.0158   18.4391   -2.9889 H   0  0  0  0  0  0  0  0  0  0  0  0
    0.0234   20.1135   -1.2702 H   0  0  0  0  0  0  0  0  0  0  0  0
    2.1530   20.3400   -0.0950 H   0  0  0  0  0  0  0  0  0  0  0  0
   -1.1200   17.6051    0.6550 H   0  0  0  0  0  0  0  0  0  0  0  0
   -1.3620   18.4768   -0.8968 H   0  0  0  0  0  0  0  0  0  0  0  0
   -0.6775   16.8160   -0.8968 H   0  0  0  0  0  0  0  0  0  0  0  0
    0.7030   18.2737    1.9333 H   0  0  0  0  0  0  0  0  0  0  0  0
    1.7683   19.5482    1.2494 H   0  0  0  0  0  0  0  0  0  0  0  0
   -0.0140   19.7719    1.2494 H   0  0  0  0  0  0  0  0  0  0  0  0
    4.8446   16.3584   -1.3812 H   0  0  0  0  0  0  0  0  0  0  0  0
    4.9703   15.4315   -2.9148 H   0  0  0  0  0  0  0  0  0  0  0  0
    4.2412   17.0732   -2.9148 H   0  0  0  0  0  0  0  0  0  0  0  0
    2.1287   15.3840   -4.0905 H   0  0  0  0  0  0  0  0  0  0  0  0
    3.5291   14.2353   -3.6967 H   0  0  0  0  0  0  0  0  0  0  0  0
    0.6048   13.9000   -2.9765 H   0  0  0  0  0  0  0  0  0  0  0  0
    1.6098   12.9084   -4.1046 H   0  0  0  0  0  0  0  0  0  0  0  0
    3.9994   11.7786   -1.4544 H   0  0  0  0  0  0  0  0  0  0  0  0
    3.3152   11.0952   -2.9681 H   0  0  0  0  0  0  0  0  0  0  0  0
    4.0248   12.7454   -2.9681 H   0  0  0  0  0  0  0  0  0  0  0  0
  1  2  1  0
  2  3  1  0
  3  4  1  0
  4  5  1  0
  5  6  1  0
  6  7  1  0
  7  8  1  0
  7  9  1  0
  2 10  1  0
 10 11  1  0
 11 12  1  0
 12 13  1  0
 13 14  1  1
 13 15  1  0
 15 16  1  0
 16 17  1  0
 17 18  2  0
 18 19  1  0
 19 20  1  0
 20 21  1  0
 21 22  1  0
 22 23  1  0
 22 24  1  0
 24 25  1  0
 24 26  1  0
 19 27  1  0
 27 28  1  6
 27 29  1  0
 29 30  1  0
 30 31  1  0
 31 32  1  6
  7  5  1  0
 31 10  1  0
 31 13  1  0
 27 15  1  0
 24 18  1  0
  1 33  1  0
  1 34  1  0
  1 35  1  0
  2 36  1  6
  3 37  1  0
  3 38  1  0
  4 39  1  0
  4 40  1  0
  5 41  1  1
  8 42  1  0
  8 43  1  0
  8 44  1  0
  9 45  1  0
  9 46  1  0
  9 47  1  0
 10 48  1  1
 11 49  1  0
 11 50  1  0
 12 51  1  0
 12 52  1  0
 14 53  1  0
 14 54  1  0
 14 55  1  0
 15 56  1  6
 16 57  1  0
 16 58  1  0
 17 59  1  0
 19 60  1  6
 20 61  1  0
 20 62  1  0
 21 63  1  0
 21 64  1  0
 22 65  1  6
 23 66  1  0
 25 67  1  0
 25 68  1  0
 25 69  1  0
 26 70  1  0
 26 71  1  0
 26 72  1  0
 28 73  1  0
 28 74  1  0
 28 75  1  0
 29 76  1  0
 29 77  1  0
 30 78  1  0
 30 79  1  0
 32 80  1  0
 32 81  1  0
 32 82  1  0
M  END
>  <meeko>  (17) 
{"is_sidechain": [false], "intermolecular_energy": 2.731, "internal_energy": -0.839}

$$$$
EPH_relaxed_0001_pdb2pqr_Repair_334_r2_0001_out
     RDKit          3D

 82 86  0  0  0  0  0  0  0  0999 V2000
    4.6180   16.8580   -1.5550 C   0  0  0  0  0  0  0  0  0  0  0  0
    4.6870   15.3300   -1.6180 C   0  0  2  0  0  0  0  0  0  0  0  0
    5.0570   14.8220   -3.0260 C   0  0  0  0  0  0  0  0  0  0  0  0
    6.0020   13.6170   -3.0180 C   0  0  0  0  0  0  0  0  0  0  0  0
    5.5950   12.5870   -4.0280 C   0  0  2  0  0  0  0  0  0  0  0  0
    5.1390   11.3480   -3.4690 O   0  0  0  0  0  0  0  0  0  0  0  0
    6.3460   11.2870   -4.2460 C   0  0  0  0  0  0  0  0  0  0  0  0
    7.5660   10.9480   -3.4490 C   0  0  0  0  0  0  0  0  0  0  0  0
    6.1850   10.5790   -5.5550 C   0  0  0  0  0  0  0  0  0  0  0  0
    3.3550   14.7310   -1.1820 C   0  0  1  0  0  0  0  0  0  0  0  0
    2.3380   15.8080   -0.7190 C   0  0  0  0  0  0  0  0  0  0  0  0
    0.9340   15.3140   -1.1520 C   0  0  0  0  0  0  0  0  0  0  0  0
    1.1460   13.8340   -1.5470 C   0  0  1  0  0  0  0  0  0  0  0  0
    1.1420   13.0540   -0.1950 C   0  0  0  0  0  0  0  0  0  0  0  0
    0.1180   13.2360   -2.5620 C   0  0  2  0  0  0  0  0  0  0  0  0
   -1.3390   13.1960   -2.0690 C   0  0  0  0  0  0  0  0  0  0  0  0
   -1.7380   11.9460   -1.3580 C   0  0  0  0  0  0  0  0  0  0  0  0
   -1.0540   10.7860   -1.3720 C   0  0  0  0  0  0  0  0  0  0  0  0
    0.2020   10.6230   -2.2370 C   0  0  1  0  0  0  0  0  0  0  0  0
    0.1310    9.2770   -3.0050 C   0  0  0  0  0  0  0  0  0  0  0  0
   -0.0990    8.0860   -2.0780 C   0  0  0  0  0  0  0  0  0  0  0  0
   -1.3870    8.2590   -1.2780 C   0  0  2  0  0  0  0  0  0  0  0  0
   -2.4990    8.2030   -2.1760 O   0  0  0  0  0  0  0  0  0  0  0  0
   -1.4330    9.5860   -0.4700 C   0  0  0  0  0  0  0  0  0  0  0  0
   -0.4220    9.5180    0.7010 C   0  0  0  0  0  0  0  0  0  0  0  0
   -2.8400    9.7010    0.1780 C   0  0  0  0  0  0  0  0  0  0  0  0
    0.5550   11.8480   -3.1850 C   0  0  1  0  0  0  0  0  0  0  0  0
   -0.2050   11.7090   -4.5390 C   0  0  0  0  0  0  0  0  0  0  0  0
    2.0910   11.8050   -3.5320 C   0  0  0  0  0  0  0  0  0  0  0  0
    3.0440   12.5170   -2.5530 C   0  0  0  0  0  0  0  0  0  0  0  0
    2.5530   13.9340   -2.2420 C   0  0  2  0  0  0  0  0  0  0  0  0
    2.5670   14.7490   -3.5790 C   0  0  0  0  0  0  0  0  0  0  0  0
    4.6034   17.1813   -0.5037 H   0  0  0  0  0  0  0  0  0  0  0  0
    5.4977   17.2858   -2.0580 H   0  0  0  0  0  0  0  0  0  0  0  0
    3.7033   17.2048   -2.0580 H   0  0  0  0  0  0  0  0  0  0  0  0
    5.4830   15.0068   -0.9311 H   0  0  0  0  0  0  0  0  0  0  0  0
    4.1312   14.5336   -3.5454 H   0  0  0  0  0  0  0  0  0  0  0  0
    5.5861   15.6416   -3.5343 H   0  0  0  0  0  0  0  0  0  0  0  0
    7.0206   13.9612   -3.2503 H   0  0  0  0  0  0  0  0  0  0  0  0
    5.9601   13.1548   -2.0207 H   0  0  0  0  0  0  0  0  0  0  0  0
    5.2559   13.3687   -4.7236 H   0  0  0  0  0  0  0  0  0  0  0  0
    7.3327   11.0128   -2.3760 H   0  0  0  0  0  0  0  0  0  0  0  0
    7.8907    9.9256   -3.6925 H   0  0  0  0  0  0  0  0  0  0  0  0
    8.3716   11.6563   -3.6925 H   0  0  0  0  0  0  0  0  0  0  0  0
    5.9445    9.5212   -5.3726 H   0  0  0  0  0  0  0  0  0  0  0  0
    5.3703   11.0469   -6.1272 H   0  0  0  0  0  0  0  0  0  0  0  0
    7.1219   10.6486   -6.1272 H   0  0  0  0  0  0  0  0  0  0  0  0
    3.7078   14.0550   -0.3892 H   0  0  0  0  0  0  0  0  0  0  0  0
    2.3787   15.9221    0.3743 H   0  0  0  0  0  0  0  0  0  0  0  0
    2.5677   16.7861   -1.1669 H   0  0  0  0  0  0  0  0  0  0  0  0
    0.2199   15.3952   -0.3193 H   0  0  0  0  0  0  0  0  0  0  0  0
    0.5180   15.9106   -1.9773 H   0  0  0  0  0  0  0  0  0  0  0  0
    1.1457   13.7691    0.6409 H   0  0  0  0  0  0  0  0  0  0  0  0
    0.2406   12.4262   -0.1365 H   0  0  0  0  0  0  0  0  0  0  0  0
    2.0369   12.4170   -0.1365 H   0  0  0  0  0  0  0  0  0  0  0  0
    0.1369   13.9733   -3.3781 H   0  0  0  0  0  0  0  0  0  0  0  0
   -1.4880   14.0408   -1.3805 H   0  0  0  0  0  0  0  0  0  0  0  0
   -1.9666   13.2462   -2.9710 H   0  0  0  0  0  0  0  0  0  0  0  0
   -2.6693   11.9746   -0.7732 H   0  0  0  0  0  0  0  0  0  0  0  0
    1.0519   10.6102   -1.5388 H   0  0  0  0  0  0  0  0  0  0  0  0
   -0.6968    9.3265   -3.7277 H   0  0  0  0  0  0  0  0  0  0  0  0
    1.0982    9.1275   -3.5073 H   0  0  0  0  0  0  0  0  0  0  0  0
   -0.1701    7.1688   -2.6810 H   0  0  0  0  0  0  0  0  0  0  0  0
    0.7448    8.0196   -1.3754 H   0  0  0  0  0  0  0  0  0  0  0  0
   -1.4301    7.4426   -0.5420 H   0  0  0  0  0  0  0  0  0  0  0  0
   -3.2740    8.5580   -1.7080 H   0  0  0  0  0  0  0  0  0  0  0  0
   -0.9651    9.5545    1.6569 H   0  0  0  0  0  0  0  0  0  0  0  0
    0.1484    8.5795    0.6390 H   0  0  0  0  0  0  0  0  0  0  0  0
    0.2689   10.3717    0.6390 H   0  0  0  0  0  0  0  0  0  0  0  0
   -2.7409    9.6929    1.2735 H   0  0  0  0  0  0  0  0  0  0  0  0
   -3.3146   10.6409   -0.1403 H   0  0  0  0  0  0  0  0  0  0  0  0
   -3.4609    8.8506   -0.1403 H   0  0  0  0  0  0  0  0  0  0  0  0
   -1.2698   11.5142   -4.3435 H   0  0  0  0  0  0  0  0  0  0  0  0
   -0.1023   12.6408   -5.1145 H   0  0  0  0  0  0  0  0  0  0  0  0
    0.2209   10.8738   -5.1145 H   0  0  0  0  0  0  0  0  0  0  0  0
    2.3919   10.7481   -3.5801 H   0  0  0  0  0  0  0  0  0  0  0  0
    2.1878   12.3552   -4.4796 H   0  0  0  0  0  0  0  0  0  0  0  0
    3.0952   11.9406   -1.6175 H   0  0  0  0  0  0  0  0  0  0  0  0
    4.0383   12.5849   -3.0187 H   0  0  0  0  0  0  0  0  0  0  0  0
    2.5855   15.8252   -3.3522 H   0  0  0  0  0  0  0  0  0  0  0  0
    3.4607   14.4817   -4.1620 H   0  0  0  0  0  0  0  0  0  0  0  0
    1.6647   14.5126   -4.1620 H   0  0  0  0  0  0  0  0  0  0  0  0
  1  2  1  0
  2  3  1  0
  3  4  1  0
  4  5  1  0
  5  6  1  0
  6  7  1  0
  7  8  1  0
  7  9  1  0
  2 10  1  0
 10 11  1  0
 11 12  1  0
 12 13  1  0
 13 14  1  1
 13 15  1  0
 15 16  1  0
 16 17  1  0
 17 18  2  0
 18 19  1  0
 19 20  1  0
 20 21  1  0
 21 22  1  0
 22 23  1  0
 22 24  1  0
 24 25  1  0
 24 26  1  0
 19 27  1  0
 27 28  1  6
 27 29  1  0
 29 30  1  0
 30 31  1  0
 31 32  1  6
  7  5  1  0
 31 10  1  0
 31 13  1  0
 27 15  1  0
 24 18  1  0
  1 33  1  0
  1 34  1  0
  1 35  1  0
  2 36  1  1
  3 37  1  0
  3 38  1  0
  4 39  1  0
  4 40  1  0
  5 41  1  6
  8 42  1  0
  8 43  1  0
  8 44  1  0
  9 45  1  0
  9 46  1  0
  9 47  1  0
 10 48  1  1
 11 49  1  0
 11 50  1  0
 12 51  1  0
 12 52  1  0
 14 53  1  0
 14 54  1  0
 14 55  1  0
 15 56  1  6
 16 57  1  0
 16 58  1  0
 17 59  1  0
 19 60  1  1
 20 61  1  0
 20 62  1  0
 21 63  1  0
 21 64  1  0
 22 65  1  1
 23 66  1  0
 25 67  1  0
 25 68  1  0
 25 69  1  0
 26 70  1  0
 26 71  1  0
 26 72  1  0
 28 73  1  0
 28 74  1  0
 28 75  1  0
 29 76  1  0
 29 77  1  0
 30 78  1  0
 30 79  1  0
 32 80  1  0
 32 81  1  0
 32 82  1  0
M  END
>  <meeko>  (18) 
{"is_sidechain": [false], "intermolecular_energy": 2.731, "internal_energy": -0.839}

$$$$
EPH_relaxed_0001_pdb2pqr_Repair_334_r2_0001_out
     RDKit          3D

 82 86  0  0  0  0  0  0  0  0999 V2000
    0.8550    9.2980    0.0830 C   0  0  0  0  0  0  0  0  0  0  0  0
   -0.4050   10.1640    0.1670 C   0  0  2  0  0  0  0  0  0  0  0  0
   -1.2160   10.1390   -1.1440 C   0  0  0  0  0  0  0  0  0  0  0  0
   -0.5130    9.4050   -2.2890 C   0  0  0  0  0  0  0  0  0  0  0  0
   -0.3200   10.2930   -3.4810 C   0  0  2  0  0  0  0  0  0  0  0  0
    0.2470    9.6430   -4.6260 O   0  0  0  0  0  0  0  0  0  0  0  0
    1.0430   10.6780   -4.0260 C   0  0  0  0  0  0  0  0  0  0  0  0
    2.3050   10.1840   -3.3910 C   0  0  0  0  0  0  0  0  0  0  0  0
    1.1550   11.9140   -4.8630 C   0  0  0  0  0  0  0  0  0  0  0  0
   -0.0270   11.5980    0.5180 C   0  0  1  0  0  0  0  0  0  0  0  0
    0.8430   11.6900    1.8000 C   0  0  0  0  0  0  0  0  0  0  0  0
    1.8370   12.8610    1.5830 C   0  0  0  0  0  0  0  0  0  0  0  0
    1.2940   13.6080    0.3430 C   0  0  1  0  0  0  0  0  0  0  0  0
    0.1490   14.5160    0.8910 C   0  0  0  0  0  0  0  0  0  0  0  0
    2.3390   14.4310   -0.4800 C   0  0  2  0  0  0  0  0  0  0  0  0
    3.0070   15.5870    0.2840 C   0  0  0  0  0  0  0  0  0  0  0  0
    2.3100   16.9040    0.1840 C   0  0  0  0  0  0  0  0  0  0  0  0
    1.3590   17.2190   -0.7140 C   0  0  0  0  0  0  0  0  0  0  0  0
    0.9620   16.2330   -1.8200 C   0  0  1  0  0  0  0  0  0  0  0  0
    0.8920   16.9790   -3.1790 C   0  0  0  0  0  0  0  0  0  0  0  0
   -0.0220   18.1990   -3.1300 C   0  0  0  0  0  0  0  0  0  0  0  0
    0.4390   19.1830   -2.0570 C   0  0  2  0  0  0  0  0  0  0  0  0
    1.7040   19.7280   -2.4450 O   0  0  0  0  0  0  0  0  0  0  0  0
    0.5560   18.5420   -0.6470 C   0  0  0  0  0  0  0  0  0  0  0  0
   -0.8580   18.2250   -0.1000 C   0  0  0  0  0  0  0  0  0  0  0  0
    1.1640   19.6020    0.3110 C   0  0  0  0  0  0  0  0  0  0  0  0
    1.8220   14.8990   -1.9000 C   0  0  1  0  0  0  0  0  0  0  0  0
    3.0880   15.1330   -2.7800 C   0  0  0  0  0  0  0  0  0  0  0  0
    0.9770   13.7860   -2.6260 C   0  0  0  0  0  0  0  0  0  0  0  0
    0.0530   12.9270   -1.7410 C   0  0  0  0  0  0  0  0  0  0  0  0
    0.8070   12.3890   -0.5210 C   0  0  2  0  0  0  0  0  0  0  0  0
    1.9520   11.4540   -1.0410 C   0  0  0  0  0  0  0  0  0  0  0  0
    1.2036    9.0584    1.0984 H   0  0  0  0  0  0  0  0  0  0  0  0
    0.6246    8.3666   -0.4549 H   0  0  0  0  0  0  0  0  0  0  0  0
    1.6420    9.8469   -0.4549 H   0  0  0  0  0  0  0  0  0  0  0  0
   -1.0435    9.7431    0.9577 H   0  0  0  0  0  0  0  0  0  0  0  0
   -2.1762    9.6391   -0.9488 H   0  0  0  0  0  0  0  0  0  0  0  0
   -1.3439   11.1840   -1.4627 H   0  0  0  0  0  0  0  0  0  0  0  0
    0.4708    9.0585   -1.9395 H   0  0  0  0  0  0  0  0  0  0  0  0
   -1.1448    8.5570   -2.5918 H   0  0  0  0  0  0  0  0  0  0  0  0
   -1.2009   10.8920   -3.2068 H   0  0  0  0  0  0  0  0  0  0  0  0
    2.2044   10.2234   -2.2963 H   0  0  0  0  0  0  0  0  0  0  0  0
    2.4917    9.1464   -3.7050 H   0  0  0  0  0  0  0  0  0  0  0  0
    3.1464   10.8191   -3.7050 H   0  0  0  0  0  0  0  0  0  0  0  0
    1.2348   12.7943   -4.2082 H   0  0  0  0  0  0  0  0  0  0  0  0
    2.0507   11.8469   -5.4979 H   0  0  0  0  0  0  0  0  0  0  0  0
    0.2618   12.0090   -5.4979 H   0  0  0  0  0  0  0  0  0  0  0  0
   -1.0320   12.0365    0.6065 H   0  0  0  0  0  0  0  0  0  0  0  0
    0.2076   11.8897    2.6755 H   0  0  0  0  0  0  0  0  0  0  0  0
    1.3780   10.7464    1.9829 H   0  0  0  0  0  0  0  0  0  0  0  0
    1.8529   13.5246    2.4601 H   0  0  0  0  0  0  0  0  0  0  0  0
    2.8699   12.5107    1.4401 H   0  0  0  0  0  0  0  0  0  0  0  0
    0.1653   14.5031    1.9908 H   0  0  0  0  0  0  0  0  0  0  0  0
    0.2954   15.5462    0.5342 H   0  0  0  0  0  0  0  0  0  0  0  0
   -0.8207   14.1387    0.5342 H   0  0  0  0  0  0  0  0  0  0  0  0
    3.1341   13.6919   -0.6576 H   0  0  0  0  0  0  0  0  0  0  0  0
    3.0564   15.3083    1.3470 H   0  0  0  0  0  0  0  0  0  0  0  0
    3.9941   15.7288   -0.1804 H   0  0  0  0  0  0  0  0  0  0  0  0
    2.5986   17.6824    0.9057 H   0  0  0  0  0  0  0  0  0  0  0  0
   -0.0358   15.8575   -1.5490 H   0  0  0  0  0  0  0  0  0  0  0  0
    1.9051   17.3082   -3.4531 H   0  0  0  0  0  0  0  0  0  0  0  0
    0.4781   16.2813   -3.9220 H   0  0  0  0  0  0  0  0  0  0  0  0
   -0.0062   18.7003   -4.1090 H   0  0  0  0  0  0  0  0  0  0  0  0
   -1.0411   17.8648   -2.8857 H   0  0  0  0  0  0  0  0  0  0  0  0
   -0.3259   19.9697   -1.9802 H   0  0  0  0  0  0  0  0  0  0  0  0
    2.2240   19.8680   -1.6360 H   0  0  0  0  0  0  0  0  0  0  0  0
   -0.8353   18.2301    0.9998 H   0  0  0  0  0  0  0  0  0  0  0  0
   -1.5679   18.9863   -0.4556 H   0  0  0  0  0  0  0  0  0  0  0  0
   -1.1749   17.2335   -0.4556 H   0  0  0  0  0  0  0  0  0  0  0  0
    0.9892   19.2973    1.3534 H   0  0  0  0  0  0  0  0  0  0  0  0
    2.2458   19.6830    0.1291 H   0  0  0  0  0  0  0  0  0  0  0  0
    0.6877   20.5767    0.1291 H   0  0  0  0  0  0  0  0  0  0  0  0
    3.9611   15.2944   -2.1307 H   0  0  0  0  0  0  0  0  0  0  0  0
    3.2612   14.2517   -3.4150 H   0  0  0  0  0  0  0  0  0  0  0  0
    2.9347   16.0180   -3.4150 H   0  0  0  0  0  0  0  0  0  0  0  0
    0.3482   14.2837   -3.3789 H   0  0  0  0  0  0  0  0  0  0  0  0
    1.7178   13.0835   -3.0355 H   0  0  0  0  0  0  0  0  0  0  0  0
   -0.7920   13.5427   -1.3990 H   0  0  0  0  0  0  0  0  0  0  0  0
   -0.3075   12.0740   -2.3347 H   0  0  0  0  0  0  0  0  0  0  0  0
    2.4865   11.0176   -0.1843 H   0  0  0  0  0  0  0  0  0  0  0  0
    1.5186   10.6484   -1.6518 H   0  0  0  0  0  0  0  0  0  0  0  0
    2.6547   12.0397   -1.6518 H   0  0  0  0  0  0  0  0  0  0  0  0
  1  2  1  0
  2  3  1  0
  3  4  1  0
  4  5  1  0
  5  6  1  0
  6  7  1  0
  7  8  1  0
  7  9  1  0
  2 10  1  0
 10 11  1  0
 11 12  1  0
 12 13  1  0
 13 14  1  1
 13 15  1  0
 15 16  1  0
 16 17  1  0
 17 18  2  0
 18 19  1  0
 19 20  1  0
 20 21  1  0
 21 22  1  0
 22 23  1  0
 22 24  1  0
 24 25  1  0
 24 26  1  0
 19 27  1  0
 27 28  1  6
 27 29  1  0
 29 30  1  0
 30 31  1  0
 31 32  1  6
  7  5  1  0
 31 10  1  0
 31 13  1  0
 27 15  1  0
 24 18  1  0
  1 33  1  0
  1 34  1  0
  1 35  1  0
  2 36  1  1
  3 37  1  0
  3 38  1  0
  4 39  1  0
  4 40  1  0
  5 41  1  6
  8 42  1  0
  8 43  1  0
  8 44  1  0
  9 45  1  0
  9 46  1  0
  9 47  1  0
 10 48  1  1
 11 49  1  0
 11 50  1  0
 12 51  1  0
 12 52  1  0
 14 53  1  0
 14 54  1  0
 14 55  1  0
 15 56  1  6
 16 57  1  0
 16 58  1  0
 17 59  1  0
 19 60  1  1
 20 61  1  0
 20 62  1  0
 21 63  1  0
 21 64  1  0
 22 65  1  1
 23 66  1  0
 25 67  1  0
 25 68  1  0
 25 69  1  0
 26 70  1  0
 26 71  1  0
 26 72  1  0
 28 73  1  0
 28 74  1  0
 28 75  1  0
 29 76  1  0
 29 77  1  0
 30 78  1  0
 30 79  1  0
 32 80  1  0
 32 81  1  0
 32 82  1  0
M  END
>  <meeko>  (19) 
{"is_sidechain": [false], "intermolecular_energy": 2.731, "internal_energy": -0.839}

$$$$
