EPH_relaxed_0001_pdb2pqr_Repair_139_r2_0001_out
     RDKit          3D

 82 86  0  0  0  0  0  0  0  0999 V2000
   -1.7010    8.5940   -1.8850 C   0  0  0  0  0  0  0  0  0  0  0  0
   -2.0740    9.1170   -0.4950 C   0  0  2  0  0  0  0  0  0  0  0  0
   -3.5660    9.4900   -0.3960 C   0  0  0  0  0  0  0  0  0  0  0  0
   -4.4950    8.2810   -0.2560 C   0  0  0  0  0  0  0  0  0  0  0  0
   -5.1950    7.9680   -1.5440 C   0  0  2  0  0  0  0  0  0  0  0  0
   -6.3630    8.7610   -1.7990 O   0  0  0  0  0  0  0  0  0  0  0  0
   -6.5800    7.3520   -1.6150 C   0  0  0  0  0  0  0  0  0  0  0  0
   -7.3470    7.0110   -0.3760 C   0  0  0  0  0  0  0  0  0  0  0  0
   -6.9810    6.6360   -2.8670 C   0  0  0  0  0  0  0  0  0  0  0  0
   -1.2110   10.3230   -0.1450 C   0  0  1  0  0  0  0  0  0  0  0  0
   -0.1760   10.0140    0.9700 C   0  0  0  0  0  0  0  0  0  0  0  0
    1.0950   10.8400    0.6420 C   0  0  0  0  0  0  0  0  0  0  0  0
    0.6400   11.8400   -0.4470 C   0  0  1  0  0  0  0  0  0  0  0  0
   -0.0620   12.9940    0.3350 C   0  0  0  0  0  0  0  0  0  0  0  0
    1.7570   12.3820   -1.3970 C   0  0  2  0  0  0  0  0  0  0  0  0
    2.8640   13.1950   -0.7050 C   0  0  0  0  0  0  0  0  0  0  0  0
    2.6170   14.6650   -0.6170 C   0  0  0  0  0  0  0  0  0  0  0  0
    1.6930   15.3450   -1.3200 C   0  0  0  0  0  0  0  0  0  0  0  0
    0.8420   14.6450   -2.3880 C   0  0  1  0  0  0  0  0  0  0  0  0
    0.8120   15.5100   -3.6750 C   0  0  0  0  0  0  0  0  0  0  0  0
    0.3520   16.9400   -3.4080 C   0  0  0  0  0  0  0  0  0  0  0  0
    1.2570   17.6220   -2.3850 C   0  0  2  0  0  0  0  0  0  0  0  0
    2.5570   17.7900   -2.9590 O   0  0  0  0  0  0  0  0  0  0  0  0
    1.3730   16.8360   -1.0490 C   0  0  0  0  0  0  0  0  0  0  0  0
    0.0300   16.9130   -0.2820 C   0  0  0  0  0  0  0  0  0  0  0  0
    2.4220   17.5570   -0.1610 C   0  0  0  0  0  0  0  0  0  0  0  0
    1.2100   13.1270   -2.6820 C   0  0  1  0  0  0  0  0  0  0  0  0
    2.3390   13.0510   -3.7550 C   0  0  0  0  0  0  0  0  0  0  0  0
   -0.0440   12.4060   -3.3040 C   0  0  0  0  0  0  0  0  0  0  0  0
   -1.0500   11.7860   -2.3150 C   0  0  0  0  0  0  0  0  0  0  0  0
   -0.3340   10.9220   -1.2730 C   0  0  2  0  0  0  0  0  0  0  0  0
    0.3630    9.7400   -2.0290 C   0  0  0  0  0  0  0  0  0  0  0  0
   -1.0651    7.7023   -1.7828 H   0  0  0  0  0  0  0  0  0  0  0  0
   -2.6162    8.3305   -2.4354 H   0  0  0  0  0  0  0  0  0  0  0  0
   -1.1538    9.3735   -2.4354 H   0  0  0  0  0  0  0  0  0  0  0  0
   -1.8886    8.3059    0.2245 H   0  0  0  0  0  0  0  0  0  0  0  0
   -3.7044   10.1378    0.4822 H   0  0  0  0  0  0  0  0  0  0  0  0
   -3.8342    9.9942   -1.3361 H   0  0  0  0  0  0  0  0  0  0  0  0
   -3.8998    7.4073    0.0478 H   0  0  0  0  0  0  0  0  0  0  0  0
   -5.2578    8.5202    0.4996 H   0  0  0  0  0  0  0  0  0  0  0  0
   -4.2424    7.6991   -2.0239 H   0  0  0  0  0  0  0  0  0  0  0  0
   -6.7504    7.2763    0.5092 H   0  0  0  0  0  0  0  0  0  0  0  0
   -8.2921    7.5737   -0.3633 H   0  0  0  0  0  0  0  0  0  0  0  0
   -7.5623    5.9324   -0.3633 H   0  0  0  0  0  0  0  0  0  0  0  0
   -7.5031    5.7039   -2.6051 H   0  0  0  0  0  0  0  0  0  0  0  0
   -7.6509    7.2779   -3.4579 H   0  0  0  0  0  0  0  0  0  0  0  0
   -6.0837    6.4001   -3.4579 H   0  0  0  0  0  0  0  0  0  0  0  0
   -1.9986   11.0368    0.1381 H   0  0  0  0  0  0  0  0  0  0  0  0
   -0.5767   10.3089    1.9511 H   0  0  0  0  0  0  0  0  0  0  0  0
    0.0515    8.9385    1.0107 H   0  0  0  0  0  0  0  0  0  0  0  0
    1.4522   11.3741    1.5348 H   0  0  0  0  0  0  0  0  0  0  0  0
    1.9287   10.2066    0.3047 H   0  0  0  0  0  0  0  0  0  0  0  0
    0.0431   12.8212    1.4162 H   0  0  0  0  0  0  0  0  0  0  0  0
    0.4054   13.9538    0.0699 H   0  0  0  0  0  0  0  0  0  0  0  0
   -1.1293   13.0203    0.0699 H   0  0  0  0  0  0  0  0  0  0  0  0
    2.2394   11.4569   -1.7455 H   0  0  0  0  0  0  0  0  0  0  0  0
    2.9803   12.8083    0.3182 H   0  0  0  0  0  0  0  0  0  0  0  0
    3.7632   13.0747   -1.3270 H   0  0  0  0  0  0  0  0  0  0  0  0
    3.2429   15.2402    0.0811 H   0  0  0  0  0  0  0  0  0  0  0  0
   -0.1712   14.5673   -1.9667 H   0  0  0  0  0  0  0  0  0  0  0  0
    1.8246   15.5395   -4.1037 H   0  0  0  0  0  0  0  0  0  0  0  0
    0.0919   15.0516   -4.3688 H   0  0  0  0  0  0  0  0  0  0  0  0
    0.3798   17.5088   -4.3491 H   0  0  0  0  0  0  0  0  0  0  0  0
   -0.6718   16.9104   -3.0067 H   0  0  0  0  0  0  0  0  0  0  0  0
    0.8030   18.5932   -2.1387 H   0  0  0  0  0  0  0  0  0  0  0  0
    2.7300   18.7450   -3.0200 H   0  0  0  0  0  0  0  0  0  0  0  0
    0.2248   16.9018    0.8005 H   0  0  0  0  0  0  0  0  0  0  0  0
   -0.4930   17.8426   -0.5509 H   0  0  0  0  0  0  0  0  0  0  0  0
   -0.5958   16.0493   -0.5509 H   0  0  0  0  0  0  0  0  0  0  0  0
    2.1808   17.3912    0.8994 H   0  0  0  0  0  0  0  0  0  0  0  0
    3.4231   17.1552   -0.3765 H   0  0  0  0  0  0  0  0  0  0  0  0
    2.4056   18.6356   -0.3765 H   0  0  0  0  0  0  0  0  0  0  0  0
    3.3165   12.9852   -3.2547 H   0  0  0  0  0  0  0  0  0  0  0  0
    2.1881   12.1610   -4.3836 H   0  0  0  0  0  0  0  0  0  0  0  0
    2.3088   13.9532   -4.3836 H   0  0  0  0  0  0  0  0  0  0  0  0
   -0.5866   13.1461   -3.9106 H   0  0  0  0  0  0  0  0  0  0  0  0
    0.3641   11.5560   -3.8705 H   0  0  0  0  0  0  0  0  0  0  0  0
   -1.5932   12.5929   -1.8013 H   0  0  0  0  0  0  0  0  0  0  0  0
   -1.7480   11.1492   -2.8783 H   0  0  0  0  0  0  0  0  0  0  0  0
    0.7803    9.0323   -1.2976 H   0  0  0  0  0  0  0  0  0  0  0  0
   -0.3746    9.2227   -2.6601 H   0  0  0  0  0  0  0  0  0  0  0  0
    1.1727   10.1351   -2.6601 H   0  0  0  0  0  0  0  0  0  0  0  0
  1  2  1  0
  2  3  1  0
  3  4  1  0
  4  5  1  0
  5  6  1  0
  6  7  1  0
  7  8  1  0
  7  9  1  0
  2 10  1  0
 10 11  1  0
 11 12  1  0
 12 13  1  0
 13 14  1  1
 13 15  1  0
 15 16  1  0
 16 17  1  0
 17 18  2  0
 18 19  1  0
 19 20  1  0
 20 21  1  0
 21 22  1  0
 22 23  1  0
 22 24  1  0
 24 25  1  0
 24 26  1  0
 19 27  1  0
 27 28  1  6
 27 29  1  0
 29 30  1  0
 30 31  1  0
 31 32  1  6
  7  5  1  0
 31 10  1  0
 31 13  1  0
 27 15  1  0
 24 18  1  0
  1 33  1  0
  1 34  1  0
  1 35  1  0
  2 36  1  1
  3 37  1  0
  3 38  1  0
  4 39  1  0
  4 40  1  0
  5 41  1  6
  8 42  1  0
  8 43  1  0
  8 44  1  0
  9 45  1  0
  9 46  1  0
  9 47  1  0
 10 48  1  1
 11 49  1  0
 11 50  1  0
 12 51  1  0
 12 52  1  0
 14 53  1  0
 14 54  1  0
 14 55  1  0
 15 56  1  6
 16 57  1  0
 16 58  1  0
 17 59  1  0
 19 60  1  1
 20 61  1  0
 20 62  1  0
 21 63  1  0
 21 64  1  0
 22 65  1  1
 23 66  1  0
 25 67  1  0
 25 68  1  0
 25 69  1  0
 26 70  1  0
 26 71  1  0
 26 72  1  0
 28 73  1  0
 28 74  1  0
 28 75  1  0
 29 76  1  0
 29 77  1  0
 30 78  1  0
 30 79  1  0
 32 80  1  0
 32 81  1  0
 32 82  1  0
M  END
>  <meeko>  (1) 
{"is_sidechain": [false], "intermolecular_energy": 2.731, "internal_energy": -0.839}

$$$$
EPH_relaxed_0001_pdb2pqr_Repair_139_r2_0001_out
     RDKit          3D

 82 86  0  0  0  0  0  0  0  0999 V2000
    2.3430   18.0660   -2.8320 C   0  0  0  0  0  0  0  0  0  0  0  0
    1.1220   17.6330   -2.0150 C   0  0  2  0  0  0  0  0  0  0  0  0
    1.3980   17.6620   -0.4980 C   0  0  0  0  0  0  0  0  0  0  0  0
    1.0870   19.0110    0.1580 C   0  0  0  0  0  0  0  0  0  0  0  0
   -0.3550   19.1160    0.5530 C   0  0  2  0  0  0  0  0  0  0  0  0
   -1.2410   18.2630   -0.1830 O   0  0  0  0  0  0  0  0  0  0  0  0
   -1.4330   19.6760   -0.3560 C   0  0  0  0  0  0  0  0  0  0  0  0
   -1.1140   20.1700   -1.7320 C   0  0  0  0  0  0  0  0  0  0  0  0
   -2.6930   20.1940    0.2640 C   0  0  0  0  0  0  0  0  0  0  0  0
    0.6840   16.2350   -2.4370 C   0  0  1  0  0  0  0  0  0  0  0  0
    0.8350   15.9980   -3.9640 C   0  0  0  0  0  0  0  0  0  0  0  0
    1.2370   14.5120   -4.1480 C   0  0  0  0  0  0  0  0  0  0  0  0
    0.9820   13.8650   -2.7660 C   0  0  1  0  0  0  0  0  0  0  0  0
   -0.5520   13.5770   -2.7340 C   0  0  0  0  0  0  0  0  0  0  0  0
    1.8170   12.5840   -2.4380 C   0  0  2  0  0  0  0  0  0  0  0  0
    1.5650   11.3850   -3.3690 C   0  0  0  0  0  0  0  0  0  0  0  0
    0.4850   10.4530   -2.9280 C   0  0  0  0  0  0  0  0  0  0  0  0
   -0.0580   10.4100   -1.6980 C   0  0  0  0  0  0  0  0  0  0  0  0
    0.4810   11.2970   -0.5680 C   0  0  1  0  0  0  0  0  0  0  0  0
    0.6590   10.4470    0.7180 C   0  0  0  0  0  0  0  0  0  0  0  0
   -0.6170    9.7100    1.1130 C   0  0  0  0  0  0  0  0  0  0  0  0
   -1.0890    8.7950   -0.0140 C   0  0  2  0  0  0  0  0  0  0  0  0
   -0.1340    7.7430   -0.1840 O   0  0  0  0  0  0  0  0  0  0  0  0
   -1.2940    9.5390   -1.3630 C   0  0  0  0  0  0  0  0  0  0  0  0
   -2.5300   10.4670   -1.2630 C   0  0  0  0  0  0  0  0  0  0  0  0
   -1.6330    8.4800   -2.4460 C   0  0  0  0  0  0  0  0  0  0  0  0
    1.7730   12.1540   -0.9160 C   0  0  1  0  0  0  0  0  0  0  0  0
    3.0580   11.3100   -0.6550 C   0  0  0  0  0  0  0  0  0  0  0  0
    1.8480   13.3890    0.0570 C   0  0  0  0  0  0  0  0  0  0  0  0
    1.1020   14.6640   -0.3790 C   0  0  0  0  0  0  0  0  0  0  0  0
    1.4480   15.0350   -1.8250 C   0  0  2  0  0  0  0  0  0  0  0  0
    2.9820   15.3520   -1.8830 C   0  0  0  0  0  0  0  0  0  0  0  0
    3.1567   18.3546   -2.1504 H   0  0  0  0  0  0  0  0  0  0  0  0
    2.6748   17.2307   -3.4662 H   0  0  0  0  0  0  0  0  0  0  0  0
    2.0744   18.9237   -3.4662 H   0  0  0  0  0  0  0  0  0  0  0  0
    0.3158   18.3533   -2.2180 H   0  0  0  0  0  0  0  0  0  0  0  0
    0.7782   16.8908   -0.0173 H   0  0  0  0  0  0  0  0  0  0  0  0
    2.4743   17.4791   -0.3632 H   0  0  0  0  0  0  0  0  0  0  0  0
    1.7118   19.1230    1.0564 H   0  0  0  0  0  0  0  0  0  0  0  0
    1.3011   19.8050   -0.5725 H   0  0  0  0  0  0  0  0  0  0  0  0
   -0.0778   19.3399    1.5937 H   0  0  0  0  0  0  0  0  0  0  0  0
   -0.5185   21.0922   -1.6616 H   0  0  0  0  0  0  0  0  0  0  0  0
   -0.5400   19.4033   -2.2729 H   0  0  0  0  0  0  0  0  0  0  0  0
   -2.0490   20.3777   -2.2729 H   0  0  0  0  0  0  0  0  0  0  0  0
   -2.6043   20.1576    1.3598 H   0  0  0  0  0  0  0  0  0  0  0  0
   -2.8588   21.2333   -0.0561 H   0  0  0  0  0  0  0  0  0  0  0  0
   -3.5418   19.5719   -0.0561 H   0  0  0  0  0  0  0  0  0  0  0  0
   -0.3526   16.2475   -2.0692 H   0  0  0  0  0  0  0  0  0  0  0  0
   -0.1184   16.1986   -4.4746 H   0  0  0  0  0  0  0  0  0  0  0  0
    1.5930   16.6686   -4.3949 H   0  0  0  0  0  0  0  0  0  0  0  0
    0.6165   14.0346   -4.9207 H   0  0  0  0  0  0  0  0  0  0  0  0
    2.2812   14.3997   -4.4750 H   0  0  0  0  0  0  0  0  0  0  0  0
   -0.8914   13.5133   -1.6896 H   0  0  0  0  0  0  0  0  0  0  0  0
   -1.0885   14.3901   -3.2449 H   0  0  0  0  0  0  0  0  0  0  0  0
   -0.7570   12.6247   -3.2449 H   0  0  0  0  0  0  0  0  0  0  0  0
    2.8458   12.9128   -2.6467 H   0  0  0  0  0  0  0  0  0  0  0  0
    1.2933   11.7756   -4.3608 H   0  0  0  0  0  0  0  0  0  0  0  0
    2.4947   10.7970   -3.3676 H   0  0  0  0  0  0  0  0  0  0  0  0
    0.1005    9.7406   -3.6727 H   0  0  0  0  0  0  0  0  0  0  0  0
   -0.2811   12.0723   -0.4004 H   0  0  0  0  0  0  0  0  0  0  0  0
    1.4543    9.7071    0.5444 H   0  0  0  0  0  0  0  0  0  0  0  0
    0.9163   11.1327    1.5387 H   0  0  0  0  0  0  0  0  0  0  0  0
   -0.4201    9.1044    2.0099 H   0  0  0  0  0  0  0  0  0  0  0  0
   -1.4031   10.4523    1.3154 H   0  0  0  0  0  0  0  0  0  0  0  0
   -2.0723    8.3957    0.2753 H   0  0  0  0  0  0  0  0  0  0  0  0
    0.7520    8.1420   -0.1540 H   0  0  0  0  0  0  0  0  0  0  0  0
   -2.7691   10.6465   -0.2044 H   0  0  0  0  0  0  0  0  0  0  0  0
   -2.3101   11.4250   -1.7568 H   0  0  0  0  0  0  0  0  0  0  0  0
   -3.3886    9.9886   -1.7568 H   0  0  0  0  0  0  0  0  0  0  0  0
   -1.9337    7.5407   -1.9589 H   0  0  0  0  0  0  0  0  0  0  0  0
   -2.4582    8.8482   -3.0733 H   0  0  0  0  0  0  0  0  0  0  0  0
   -0.7474    8.3006   -3.0733 H   0  0  0  0  0  0  0  0  0  0  0  0
    3.2151   11.2068    0.4288 H   0  0  0  0  0  0  0  0  0  0  0  0
    2.9396   10.3132   -1.1049 H   0  0  0  0  0  0  0  0  0  0  0  0
    3.9258   11.8146   -1.1049 H   0  0  0  0  0  0  0  0  0  0  0  0
    1.4319   13.0750    1.0257 H   0  0  0  0  0  0  0  0  0  0  0  0
    2.9107   13.6718    0.0811 H   0  0  0  0  0  0  0  0  0  0  0  0
    0.0184   14.4912   -0.3013 H   0  0  0  0  0  0  0  0  0  0  0  0
    1.4082   15.4913    0.2781 H   0  0  0  0  0  0  0  0  0  0  0  0
    3.3784   15.4339   -0.8602 H   0  0  0  0  0  0  0  0  0  0  0  0
    3.5038   14.5427   -2.4148 H   0  0  0  0  0  0  0  0  0  0  0  0
    3.1403   16.3018   -2.4148 H   0  0  0  0  0  0  0  0  0  0  0  0
  1  2  1  0
  2  3  1  0
  3  4  1  0
  4  5  1  0
  5  6  1  0
  6  7  1  0
  7  8  1  0
  7  9  1  0
  2 10  1  0
 10 11  1  0
 11 12  1  0
 12 13  1  0
 13 14  1  1
 13 15  1  0
 15 16  1  0
 16 17  1  0
 17 18  2  0
 18 19  1  0
 19 20  1  0
 20 21  1  0
 21 22  1  0
 22 23  1  0
 22 24  1  0
 24 25  1  0
 24 26  1  0
 19 27  1  0
 27 28  1  1
 27 29  1  0
 29 30  1  0
 30 31  1  0
 31 32  1  1
  7  5  1  0
 31 10  1  0
 31 13  1  0
 27 15  1  0
 24 18  1  0
  1 33  1  0
  1 34  1  0
  1 35  1  0
  2 36  1  1
  3 37  1  0
  3 38  1  0
  4 39  1  0
  4 40  1  0
  5 41  1  1
  8 42  1  0
  8 43  1  0
  8 44  1  0
  9 45  1  0
  9 46  1  0
  9 47  1  0
 10 48  1  6
 11 49  1  0
 11 50  1  0
 12 51  1  0
 12 52  1  0
 14 53  1  0
 14 54  1  0
 14 55  1  0
 15 56  1  6
 16 57  1  0
 16 58  1  0
 17 59  1  0
 19 60  1  1
 20 61  1  0
 20 62  1  0
 21 63  1  0
 21 64  1  0
 22 65  1  1
 23 66  1  0
 25 67  1  0
 25 68  1  0
 25 69  1  0
 26 70  1  0
 26 71  1  0
 26 72  1  0
 28 73  1  0
 28 74  1  0
 28 75  1  0
 29 76  1  0
 29 77  1  0
 30 78  1  0
 30 79  1  0
 32 80  1  0
 32 81  1  0
 32 82  1  0
M  END
>  <meeko>  (2) 
{"is_sidechain": [false], "intermolecular_energy": 2.731, "internal_energy": -0.839}

$$$$
EPH_relaxed_0001_pdb2pqr_Repair_139_r2_0001_out
     RDKit          3D

 82 86  0  0  0  0  0  0  0  0999 V2000
    2.2380   17.9720   -2.5770 C   0  0  0  0  0  0  0  0  0  0  0  0
    0.7150   17.8260   -2.6410 C   0  0  2  0  0  0  0  0  0  0  0  0
    0.0300   18.3000   -1.3440 C   0  0  0  0  0  0  0  0  0  0  0  0
    0.7820   17.9030   -0.0710 C   0  0  0  0  0  0  0  0  0  0  0  0
    1.3340   19.1000    0.6430 C   0  0  2  0  0  0  0  0  0  0  0  0
    2.2440   19.8930   -0.1320 O   0  0  0  0  0  0  0  0  0  0  0  0
    2.7950   19.2460    1.0270 C   0  0  0  0  0  0  0  0  0  0  0  0
    3.7950   18.1780    0.7100 C   0  0  0  0  0  0  0  0  0  0  0  0
    3.1540   20.1910    2.1310 C   0  0  0  0  0  0  0  0  0  0  0  0
    0.3440   16.3750   -2.9260 C   0  0  1  0  0  0  0  0  0  0  0  0
    0.4200   16.0240   -4.4360 C   0  0  0  0  0  0  0  0  0  0  0  0
    0.9060   14.5540   -4.5290 C   0  0  0  0  0  0  0  0  0  0  0  0
    0.7760   14.0080   -3.0880 C   0  0  1  0  0  0  0  0  0  0  0  0
   -0.7320   13.6320   -2.9370 C   0  0  0  0  0  0  0  0  0  0  0  0
    1.7090   12.8100   -2.7160 C   0  0  2  0  0  0  0  0  0  0  0  0
    1.4810   11.5260   -3.5330 C   0  0  0  0  0  0  0  0  0  0  0  0
    0.4920   10.5700   -2.9540 C   0  0  0  0  0  0  0  0  0  0  0  0
    0.0260   10.5950   -1.6910 C   0  0  0  0  0  0  0  0  0  0  0  0
    0.5720   11.6010   -0.6700 C   0  0  1  0  0  0  0  0  0  0  0  0
    0.8800   10.8710    0.6630 C   0  0  0  0  0  0  0  0  0  0  0  0
   -0.3200   10.0930    1.1950 C   0  0  0  0  0  0  0  0  0  0  0  0
   -0.7980    9.0630    0.1750 C   0  0  2  0  0  0  0  0  0  0  0  0
    0.2110    8.0600    0.0250 O   0  0  0  0  0  0  0  0  0  0  0  0
   -1.1290    9.6820   -1.2120 C   0  0  0  0  0  0  0  0  0  0  0  0
   -2.4150   10.5390   -1.1060 C   0  0  0  0  0  0  0  0  0  0  0  0
   -1.4620    8.5190   -2.1860 C   0  0  0  0  0  0  0  0  0  0  0  0
    1.7830   12.5030   -1.1650 C   0  0  1  0  0  0  0  0  0  0  0  0
    3.1330   11.7620   -0.9220 C   0  0  0  0  0  0  0  0  0  0  0  0
    1.8350   13.8160   -0.2980 C   0  0  0  0  0  0  0  0  0  0  0  0
    0.9830   15.0040   -0.7830 C   0  0  0  0  0  0  0  0  0  0  0  0
    1.2190   15.2760   -2.2720 C   0  0  2  0  0  0  0  0  0  0  0  0
    2.7230   15.6790   -2.4520 C   0  0  0  0  0  0  0  0  0  0  0  0
    2.5595   18.0028   -1.5255 H   0  0  0  0  0  0  0  0  0  0  0  0
    2.7100   17.1150   -3.0798 H   0  0  0  0  0  0  0  0  0  0  0  0
    2.5385   18.9031   -3.0798 H   0  0  0  0  0  0  0  0  0  0  0  0
    0.3553   18.4696   -3.4573 H   0  0  0  0  0  0  0  0  0  0  0  0
   -0.0484   19.3968   -1.3734 H   0  0  0  0  0  0  0  0  0  0  0  0
   -0.9540   17.8101   -1.3023 H   0  0  0  0  0  0  0  0  0  0  0  0
    0.0903   17.3744    0.6014 H   0  0  0  0  0  0  0  0  0  0  0  0
    1.6243   17.2563   -0.3579 H   0  0  0  0  0  0  0  0  0  0  0  0
    0.4046   19.2130    1.2205 H   0  0  0  0  0  0  0  0  0  0  0  0
    4.1900   17.7561    1.6459 H   0  0  0  0  0  0  0  0  0  0  0  0
    3.3093   17.3827    0.1256 H   0  0  0  0  0  0  0  0  0  0  0  0
    4.6205   18.6104    0.1256 H   0  0  0  0  0  0  0  0  0  0  0  0
    2.9703   19.7075    3.1018 H   0  0  0  0  0  0  0  0  0  0  0  0
    4.2174   20.4610    2.0512 H   0  0  0  0  0  0  0  0  0  0  0  0
    2.5382   21.0989    2.0512 H   0  0  0  0  0  0  0  0  0  0  0  0
   -0.6684   16.3557   -2.4962 H   0  0  0  0  0  0  0  0  0  0  0  0
   -0.5727   16.1249   -4.8989 H   0  0  0  0  0  0  0  0  0  0  0  0
    1.1063   16.7014   -4.9652 H   0  0  0  0  0  0  0  0  0  0  0  0
    0.2730   13.9788   -5.2207 H   0  0  0  0  0  0  0  0  0  0  0  0
    1.9342   14.4781   -4.9126 H   0  0  0  0  0  0  0  0  0  0  0  0
   -0.9888   13.5680   -1.8693 H   0  0  0  0  0  0  0  0  0  0  0  0
   -1.3521   14.4030   -3.4177 H   0  0  0  0  0  0  0  0  0  0  0  0
   -0.9175   12.6601   -3.4177 H   0  0  0  0  0  0  0  0  0  0  0  0
    2.6999   13.1819   -3.0155 H   0  0  0  0  0  0  0  0  0  0  0  0
    1.1270   11.8175   -4.5328 H   0  0  0  0  0  0  0  0  0  0  0  0
    2.4454   10.9970   -3.5445 H   0  0  0  0  0  0  0  0  0  0  0  0
    0.1114    9.7776   -3.6153 H   0  0  0  0  0  0  0  0  0  0  0  0
   -0.2276   12.3402   -0.5146 H   0  0  0  0  0  0  0  0  0  0  0  0
    1.7100   10.1686    0.4967 H   0  0  0  0  0  0  0  0  0  0  0  0
    1.1400   11.6355    1.4100 H   0  0  0  0  0  0  0  0  0  0  0  0
   -0.0312    9.5750    2.1214 H   0  0  0  0  0  0  0  0  0  0  0  0
   -1.1392   10.8009    1.3895 H   0  0  0  0  0  0  0  0  0  0  0  0
   -1.7345    8.6307    0.5573 H   0  0  0  0  0  0  0  0  0  0  0  0
   -0.0690    7.4640   -0.6900 H   0  0  0  0  0  0  0  0  0  0  0  0
   -2.6603   10.7025   -0.0462 H   0  0  0  0  0  0  0  0  0  0  0  0
   -2.2509   11.5089   -1.5982 H   0  0  0  0  0  0  0  0  0  0  0  0
   -3.2470   10.0141   -1.5982 H   0  0  0  0  0  0  0  0  0  0  0  0
   -1.7196    7.6192   -1.6081 H   0  0  0  0  0  0  0  0  0  0  0  0
   -2.3145    8.8043   -2.8199 H   0  0  0  0  0  0  0  0  0  0  0  0
   -0.5877    8.3098   -2.8199 H   0  0  0  0  0  0  0  0  0  0  0  0
    3.3088   11.6655    0.1596 H   0  0  0  0  0  0  0  0  0  0  0  0
    3.0892   10.7615   -1.3771 H   0  0  0  0  0  0  0  0  0  0  0  0
    3.9535   12.3362   -1.3771 H   0  0  0  0  0  0  0  0  0  0  0  0
    1.4985   13.5579    0.7170 H   0  0  0  0  0  0  0  0  0  0  0  0
    2.8766   14.1633   -0.3647 H   0  0  0  0  0  0  0  0  0  0  0  0
   -0.0806   14.7729   -0.6235 H   0  0  0  0  0  0  0  0  0  0  0  0
    1.2722   15.8991   -0.2127 H   0  0  0  0  0  0  0  0  0  0  0  0
    3.1899   15.8041   -1.4639 H   0  0  0  0  0  0  0  0  0  0  0  0
    3.2498   14.8903   -3.0092 H   0  0  0  0  0  0  0  0  0  0  0  0
    2.7849   16.6254   -3.0092 H   0  0  0  0  0  0  0  0  0  0  0  0
  1  2  1  0
  2  3  1  0
  3  4  1  0
  4  5  1  0
  5  6  1  0
  6  7  1  0
  7  8  1  0
  7  9  1  0
  2 10  1  0
 10 11  1  0
 11 12  1  0
 12 13  1  0
 13 14  1  1
 13 15  1  0
 15 16  1  0
 16 17  1  0
 17 18  2  0
 18 19  1  0
 19 20  1  0
 20 21  1  0
 21 22  1  0
 22 23  1  0
 22 24  1  0
 24 25  1  0
 24 26  1  0
 19 27  1  0
 27 28  1  6
 27 29  1  0
 29 30  1  0
 30 31  1  0
 31 32  1  1
  7  5  1  0
 31 10  1  0
 31 13  1  0
 27 15  1  0
 24 18  1  0
  1 33  1  0
  1 34  1  0
  1 35  1  0
  2 36  1  6
  3 37  1  0
  3 38  1  0
  4 39  1  0
  4 40  1  0
  5 41  1  1
  8 42  1  0
  8 43  1  0
  8 44  1  0
  9 45  1  0
  9 46  1  0
  9 47  1  0
 10 48  1  1
 11 49  1  0
 11 50  1  0
 12 51  1  0
 12 52  1  0
 14 53  1  0
 14 54  1  0
 14 55  1  0
 15 56  1  6
 16 57  1  0
 16 58  1  0
 17 59  1  0
 19 60  1  1
 20 61  1  0
 20 62  1  0
 21 63  1  0
 21 64  1  0
 22 65  1  1
 23 66  1  0
 25 67  1  0
 25 68  1  0
 25 69  1  0
 26 70  1  0
 26 71  1  0
 26 72  1  0
 28 73  1  0
 28 74  1  0
 28 75  1  0
 29 76  1  0
 29 77  1  0
 30 78  1  0
 30 79  1  0
 32 80  1  0
 32 81  1  0
 32 82  1  0
M  END
>  <meeko>  (3) 
{"is_sidechain": [false], "intermolecular_energy": 2.731, "internal_energy": -0.839}

$$$$
EPH_relaxed_0001_pdb2pqr_Repair_139_r2_0001_out
     RDKit          3D

 82 86  0  0  0  0  0  0  0  0999 V2000
   -3.3950    9.3390    0.5210 C   0  0  0  0  0  0  0  0  0  0  0  0
   -2.5590    9.6870   -0.7140 C   0  0  2  0  0  0  0  0  0  0  0  0
   -1.8950    8.4430   -1.3370 C   0  0  0  0  0  0  0  0  0  0  0  0
   -2.8080    7.6730   -2.2960 C   0  0  0  0  0  0  0  0  0  0  0  0
   -4.2470    7.7720   -1.8900 C   0  0  2  0  0  0  0  0  0  0  0  0
   -4.7920    6.5750   -1.3200 O   0  0  0  0  0  0  0  0  0  0  0  0
   -5.3630    6.9990   -2.5690 C   0  0  0  0  0  0  0  0  0  0  0  0
   -5.0860    6.0700   -3.7100 C   0  0  0  0  0  0  0  0  0  0  0  0
   -6.7640    7.5100   -2.4480 C   0  0  0  0  0  0  0  0  0  0  0  0
   -1.4960   10.7170   -0.3480 C   0  0  1  0  0  0  0  0  0  0  0  0
   -0.3910   10.1330    0.5720 C   0  0  0  0  0  0  0  0  0  0  0  0
    0.9370   10.8260    0.1710 C   0  0  0  0  0  0  0  0  0  0  0  0
    0.5040   12.0110   -0.7240 C   0  0  1  0  0  0  0  0  0  0  0  0
    0.0740   13.1310    0.2740 C   0  0  0  0  0  0  0  0  0  0  0  0
    1.5660   12.5260   -1.7490 C   0  0  2  0  0  0  0  0  0  0  0  0
    2.8540   13.0920   -1.1250 C   0  0  0  0  0  0  0  0  0  0  0  0
    2.8320   14.5570   -0.8360 C   0  0  0  0  0  0  0  0  0  0  0  0
    1.9390   15.4370   -1.3240 C   0  0  0  0  0  0  0  0  0  0  0  0
    0.8750   14.9990   -2.3390 C   0  0  1  0  0  0  0  0  0  0  0  0
    0.8170   16.0240   -3.5030 C   0  0  0  0  0  0  0  0  0  0  0  0
    0.6020   17.4530   -3.0130 C   0  0  0  0  0  0  0  0  0  0  0  0
    1.7110   17.8720   -2.0510 C   0  0  2  0  0  0  0  0  0  0  0  0
    2.9440   17.9470   -2.7740 O   0  0  0  0  0  0  0  0  0  0  0  0
    1.8710   16.9080   -0.8430 C   0  0  0  0  0  0  0  0  0  0  0  0
    0.6540   17.0540    0.1040 C   0  0  0  0  0  0  0  0  0  0  0  0
    3.1110   17.3640   -0.0290 C   0  0  0  0  0  0  0  0  0  0  0  0
    0.9830   13.4990   -2.8530 C   0  0  1  0  0  0  0  0  0  0  0  0
    1.9530   13.4220   -4.0710 C   0  0  0  0  0  0  0  0  0  0  0  0
   -0.4260   13.0320   -3.3770 C   0  0  0  0  0  0  0  0  0  0  0  0
   -1.3860   12.4210   -2.3380 C   0  0  0  0  0  0  0  0  0  0  0  0
   -0.6830   11.3420   -1.5090 C   0  0  2  0  0  0  0  0  0  0  0  0
   -0.2580   10.1910   -2.4830 C   0  0  0  0  0  0  0  0  0  0  0  0
   -2.8230    9.5771    1.4299 H   0  0  0  0  0  0  0  0  0  0  0  0
   -4.3264    9.9241    0.5101 H   0  0  0  0  0  0  0  0  0  0  0  0
   -3.6361    8.2658    0.5101 H   0  0  0  0  0  0  0  0  0  0  0  0
   -3.2414   10.1076   -1.4672 H   0  0  0  0  0  0  0  0  0  0  0  0
   -1.0025    8.7671   -1.8923 H   0  0  0  0  0  0  0  0  0  0  0  0
   -1.6498    7.7611   -0.5095 H   0  0  0  0  0  0  0  0  0  0  0  0
   -2.6937    8.0886   -3.3080 H   0  0  0  0  0  0  0  0  0  0  0  0
   -2.5164    6.6127   -2.2702 H   0  0  0  0  0  0  0  0  0  0  0  0
   -4.1297    8.8385   -1.6475 H   0  0  0  0  0  0  0  0  0  0  0  0
   -4.7923    5.0851   -3.3179 H   0  0  0  0  0  0  0  0  0  0  0  0
   -5.9918    5.9646   -4.3252 H   0  0  0  0  0  0  0  0  0  0  0  0
   -4.2704    6.4778   -4.3252 H   0  0  0  0  0  0  0  0  0  0  0  0
   -7.0285    7.6065   -1.3847 H   0  0  0  0  0  0  0  0  0  0  0  0
   -6.8390    8.4934   -2.9352 H   0  0  0  0  0  0  0  0  0  0  0  0
   -7.4545    6.8058   -2.9352 H   0  0  0  0  0  0  0  0  0  0  0  0
   -2.1328   11.4821    0.1201 H   0  0  0  0  0  0  0  0  0  0  0  0
   -0.6251   10.3437    1.6260 H   0  0  0  0  0  0  0  0  0  0  0  0
   -0.3174    9.0415    0.4572 H   0  0  0  0  0  0  0  0  0  0  0  0
    1.4710   11.1873    1.0622 H   0  0  0  0  0  0  0  0  0  0  0  0
    1.6248   10.1415   -0.3471 H   0  0  0  0  0  0  0  0  0  0  0  0
    0.2107   12.7750    1.3058 H   0  0  0  0  0  0  0  0  0  0  0  0
    0.6926   14.0257    0.1098 H   0  0  0  0  0  0  0  0  0  0  0  0
   -0.9844   13.3818    0.1098 H   0  0  0  0  0  0  0  0  0  0  0  0
    1.8646   11.6011   -2.2641 H   0  0  0  0  0  0  0  0  0  0  0  0
    3.0348   12.5615   -0.1785 H   0  0  0  0  0  0  0  0  0  0  0  0
    3.6465   12.9410   -1.8728 H   0  0  0  0  0  0  0  0  0  0  0  0
    3.6121   14.9499   -0.1674 H   0  0  0  0  0  0  0  0  0  0  0  0
   -0.0811   14.9963   -1.7951 H   0  0  0  0  0  0  0  0  0  0  0  0
    1.7652   15.9806   -4.0589 H   0  0  0  0  0  0  0  0  0  0  0  0
   -0.0384   15.7572   -4.1410 H   0  0  0  0  0  0  0  0  0  0  0  0
    0.5989   18.1334   -3.8773 H   0  0  0  0  0  0  0  0  0  0  0  0
   -0.3603   17.5014   -2.4823 H   0  0  0  0  0  0  0  0  0  0  0  0
    1.4341   18.8519   -1.6349 H   0  0  0  0  0  0  0  0  0  0  0  0
    2.8360   18.6140   -3.4720 H   0  0  0  0  0  0  0  0  0  0  0  0
    0.9955   17.0130    1.1489 H   0  0  0  0  0  0  0  0  0  0  0  0
    0.1581   18.0181   -0.0822 H   0  0  0  0  0  0  0  0  0  0  0  0
   -0.0558   16.2346   -0.0822 H   0  0  0  0  0  0  0  0  0  0  0  0
    2.8934   17.2840    1.0463 H   0  0  0  0  0  0  0  0  0  0  0  0
    3.9693   16.7227   -0.2781 H   0  0  0  0  0  0  0  0  0  0  0  0
    3.3493   18.4086   -0.2781 H   0  0  0  0  0  0  0  0  0  0  0  0
    2.9889   13.3398   -3.7102 H   0  0  0  0  0  0  0  0  0  0  0  0
    1.7062   12.5406   -4.6811 H   0  0  0  0  0  0  0  0  0  0  0  0
    1.8484   14.3313   -4.6811 H   0  0  0  0  0  0  0  0  0  0  0  0
   -0.9250   13.9084   -3.8162 H   0  0  0  0  0  0  0  0  0  0  0  0
   -0.2141   12.2186   -4.0865 H   0  0  0  0  0  0  0  0  0  0  0  0
   -1.7421   13.2158   -1.6661 H   0  0  0  0  0  0  0  0  0  0  0  0
   -2.2307   11.9592   -2.8702 H   0  0  0  0  0  0  0  0  0  0  0  0
    0.0648    9.3167   -1.8987 H   0  0  0  0  0  0  0  0  0  0  0  0
   -1.1127    9.9129   -3.1171 H   0  0  0  0  0  0  0  0  0  0  0  0
    0.5723   10.5351   -3.1171 H   0  0  0  0  0  0  0  0  0  0  0  0
  1  2  1  0
  2  3  1  0
  3  4  1  0
  4  5  1  0
  5  6  1  0
  6  7  1  0
  7  8  1  0
  7  9  1  0
  2 10  1  0
 10 11  1  0
 11 12  1  0
 12 13  1  0
 13 14  1  1
 13 15  1  0
 15 16  1  0
 16 17  1  0
 17 18  2  0
 18 19  1  0
 19 20  1  0
 20 21  1  0
 21 22  1  0
 22 23  1  0
 22 24  1  0
 24 25  1  0
 24 26  1  0
 19 27  1  0
 27 28  1  6
 27 29  1  0
 29 30  1  0
 30 31  1  0
 31 32  1  6
  7  5  1  0
 31 10  1  0
 31 13  1  0
 27 15  1  0
 24 18  1  0
  1 33  1  0
  1 34  1  0
  1 35  1  0
  2 36  1  6
  3 37  1  0
  3 38  1  0
  4 39  1  0
  4 40  1  0
  5 41  1  1
  8 42  1  0
  8 43  1  0
  8 44  1  0
  9 45  1  0
  9 46  1  0
  9 47  1  0
 10 48  1  1
 11 49  1  0
 11 50  1  0
 12 51  1  0
 12 52  1  0
 14 53  1  0
 14 54  1  0
 14 55  1  0
 15 56  1  6
 16 57  1  0
 16 58  1  0
 17 59  1  0
 19 60  1  1
 20 61  1  0
 20 62  1  0
 21 63  1  0
 21 64  1  0
 22 65  1  1
 23 66  1  0
 25 67  1  0
 25 68  1  0
 25 69  1  0
 26 70  1  0
 26 71  1  0
 26 72  1  0
 28 73  1  0
 28 74  1  0
 28 75  1  0
 29 76  1  0
 29 77  1  0
 30 78  1  0
 30 79  1  0
 32 80  1  0
 32 81  1  0
 32 82  1  0
M  END
>  <meeko>  (4) 
{"is_sidechain": [false], "intermolecular_energy": 2.731, "internal_energy": -0.839}

$$$$
EPH_relaxed_0001_pdb2pqr_Repair_139_r2_0001_out
     RDKit          3D

 82 86  0  0  0  0  0  0  0  0999 V2000
   -5.2140    5.7920   -1.6990 C   0  0  0  0  0  0  0  0  0  0  0  0
   -5.4770    7.2940   -1.8390 C   0  0  2  0  0  0  0  0  0  0  0  0
   -5.2110    8.0550   -0.5250 C   0  0  0  0  0  0  0  0  0  0  0  0
   -4.2420    9.2300   -0.6790 C   0  0  0  0  0  0  0  0  0  0  0  0
   -2.8340    8.8350   -0.3490 C   0  0  2  0  0  0  0  0  0  0  0  0
   -2.2330    9.5910    0.7100 O   0  0  0  0  0  0  0  0  0  0  0  0
   -1.6350    9.7330   -0.5890 C   0  0  0  0  0  0  0  0  0  0  0  0
   -1.7890   11.0980   -1.1840 C   0  0  0  0  0  0  0  0  0  0  0  0
   -0.2810    9.1040   -0.7020 C   0  0  0  0  0  0  0  0  0  0  0  0
   -6.9110    7.5300   -2.2970 C   0  0  1  0  0  0  0  0  0  0  0  0
   -7.2300    6.8340   -3.6470 C   0  0  0  0  0  0  0  0  0  0  0  0
   -8.7080    6.3720   -3.5740 C   0  0  0  0  0  0  0  0  0  0  0  0
   -9.2840    7.1000   -2.3370 C   0  0  1  0  0  0  0  0  0  0  0  0
   -9.6260    8.5370   -2.8410 C   0  0  0  0  0  0  0  0  0  0  0  0
  -10.5120    6.4230   -1.6460 C   0  0  2  0  0  0  0  0  0  0  0  0
  -11.7710    6.3050   -2.5230 C   0  0  0  0  0  0  0  0  0  0  0  0
  -12.7160    7.4570   -2.4400 C   0  0  0  0  0  0  0  0  0  0  0  0
  -12.7080    8.4080   -1.4870 C   0  0  0  0  0  0  0  0  0  0  0  0
  -11.7390    8.3260   -0.3000 C   0  0  1  0  0  0  0  0  0  0  0  0
  -12.5070    8.6140    1.0160 C   0  0  0  0  0  0  0  0  0  0  0  0
  -13.2670    9.9360    0.9740 C   0  0  0  0  0  0  0  0  0  0  0  0
  -14.2620    9.9560   -0.1840 C   0  0  2  0  0  0  0  0  0  0  0  0
  -15.2850    8.9890    0.0720 O   0  0  0  0  0  0  0  0  0  0  0  0
  -13.6040    9.6690   -1.5620 C   0  0  0  0  0  0  0  0  0  0  0  0
  -12.7180   10.8700   -1.9760 C   0  0  0  0  0  0  0  0  0  0  0  0
  -14.7350    9.5780   -2.6210 C   0  0  0  0  0  0  0  0  0  0  0  0
  -10.8560    7.0080   -0.2170 C   0  0  1  0  0  0  0  0  0  0  0  0
  -11.6350    5.8930    0.5450 C   0  0  0  0  0  0  0  0  0  0  0  0
   -9.5650    7.3070    0.6340 C   0  0  0  0  0  0  0  0  0  0  0  0
   -8.3450    7.8630   -0.1270 C   0  0  0  0  0  0  0  0  0  0  0  0
   -8.0460    7.0230   -1.3720 C   0  0  2  0  0  0  0  0  0  0  0  0
   -7.6760    5.5770   -0.8950 C   0  0  0  0  0  0  0  0  0  0  0  0
   -5.1674    5.5257   -0.6327 H   0  0  0  0  0  0  0  0  0  0  0  0
   -6.0275    5.2307   -2.1819 H   0  0  0  0  0  0  0  0  0  0  0  0
   -4.2582    5.5405   -2.1819 H   0  0  0  0  0  0  0  0  0  0  0  0
   -4.7773    7.6836   -2.5931 H   0  0  0  0  0  0  0  0  0  0  0  0
   -6.1691    8.4423   -0.1480 H   0  0  0  0  0  0  0  0  0  0  0  0
   -4.7434    7.3421    0.1701 H   0  0  0  0  0  0  0  0  0  0  0  0
   -4.2775    9.5874   -1.7187 H   0  0  0  0  0  0  0  0  0  0  0  0
   -4.5489   10.0213    0.0207 H   0  0  0  0  0  0  0  0  0  0  0  0
   -3.0385    7.7891   -0.6217 H   0  0  0  0  0  0  0  0  0  0  0  0
   -1.8729   11.8419   -0.3781 H   0  0  0  0  0  0  0  0  0  0  0  0
   -0.9111   11.3282   -1.8056 H   0  0  0  0  0  0  0  0  0  0  0  0
   -2.6961   11.1268   -1.8056 H   0  0  0  0  0  0  0  0  0  0  0  0
    0.1216    8.9170    0.3045 H   0  0  0  0  0  0  0  0  0  0  0  0
   -0.3633    8.1519   -1.2467 H   0  0  0  0  0  0  0  0  0  0  0  0
    0.3935    9.7810   -1.2467 H   0  0  0  0  0  0  0  0  0  0  0  0
   -6.9146    8.6295   -2.3297 H   0  0  0  0  0  0  0  0  0  0  0  0
   -7.0948    7.5409   -4.4788 H   0  0  0  0  0  0  0  0  0  0  0  0
   -6.5577    5.9807   -3.8199 H   0  0  0  0  0  0  0  0  0  0  0  0
   -9.2516    6.6643   -4.4846 H   0  0  0  0  0  0  0  0  0  0  0  0
   -8.7997    5.2787   -3.4947 H   0  0  0  0  0  0  0  0  0  0  0  0
   -9.7839    9.2004   -1.9779 H   0  0  0  0  0  0  0  0  0  0  0  0
   -8.7938    8.9196   -3.4502 H   0  0  0  0  0  0  0  0  0  0  0  0
  -10.5413    8.5037   -3.4502 H   0  0  0  0  0  0  0  0  0  0  0  0
  -10.1574    5.3932   -1.4920 H   0  0  0  0  0  0  0  0  0  0  0  0
  -11.4479    6.2051   -3.5697 H   0  0  0  0  0  0  0  0  0  0  0  0
  -12.3230    5.4310   -2.1470 H   0  0  0  0  0  0  0  0  0  0  0  0
  -13.4839    7.5358   -3.2236 H   0  0  0  0  0  0  0  0  0  0  0  0
  -10.9834    9.1075   -0.4685 H   0  0  0  0  0  0  0  0  0  0  0  0
  -13.2258    7.7997    1.1899 H   0  0  0  0  0  0  0  0  0  0  0  0
  -11.7662    8.6810    1.8264 H   0  0  0  0  0  0  0  0  0  0  0  0
  -13.8126   10.0679    1.9200 H   0  0  0  0  0  0  0  0  0  0  0  0
  -12.5441   10.7525    0.8303 H   0  0  0  0  0  0  0  0  0  0  0  0
  -14.6806   10.9715   -0.2426 H   0  0  0  0  0  0  0  0  0  0  0  0
  -15.7750    9.2810    0.8590 H   0  0  0  0  0  0  0  0  0  0  0  0
  -12.3437   11.3774   -1.0747 H   0  0  0  0  0  0  0  0  0  0  0  0
  -11.8678   10.5096   -2.5737 H   0  0  0  0  0  0  0  0  0  0  0  0
  -13.3133   11.5760   -2.5737 H   0  0  0  0  0  0  0  0  0  0  0  0
  -15.7075    9.4998   -2.1130 H   0  0  0  0  0  0  0  0  0  0  0  0
  -14.7216   10.4801   -3.2503 H   0  0  0  0  0  0  0  0  0  0  0  0
  -14.5775    8.6896   -3.2503 H   0  0  0  0  0  0  0  0  0  0  0  0
  -11.5279    6.0463    1.6290 H   0  0  0  0  0  0  0  0  0  0  0  0
  -12.6996    5.9374    0.2718 H   0  0  0  0  0  0  0  0  0  0  0  0
  -11.2271    4.9086    0.2718 H   0  0  0  0  0  0  0  0  0  0  0  0
   -9.8381    8.0408    1.4066 H   0  0  0  0  0  0  0  0  0  0  0  0
   -9.2421    6.3292    1.0210 H   0  0  0  0  0  0  0  0  0  0  0  0
   -8.5534    8.8987   -0.4333 H   0  0  0  0  0  0  0  0  0  0  0  0
   -7.4701    7.8269    0.5388 H   0  0  0  0  0  0  0  0  0  0  0  0
   -7.6677    5.5445    0.2045 H   0  0  0  0  0  0  0  0  0  0  0  0
   -8.4204    4.8631   -1.2773 H   0  0  0  0  0  0  0  0  0  0  0  0
   -6.6802    5.3084   -1.2773 H   0  0  0  0  0  0  0  0  0  0  0  0
  1  2  1  0
  2  3  1  0
  3  4  1  0
  4  5  1  0
  5  6  1  0
  6  7  1  0
  7  8  1  0
  7  9  1  0
  2 10  1  0
 10 11  1  0
 11 12  1  0
 12 13  1  0
 13 14  1  6
 13 15  1  0
 15 16  1  0
 16 17  1  0
 17 18  2  0
 18 19  1  0
 19 20  1  0
 20 21  1  0
 21 22  1  0
 22 23  1  0
 22 24  1  0
 24 25  1  0
 24 26  1  0
 19 27  1  0
 27 28  1  1
 27 29  1  0
 29 30  1  0
 30 31  1  0
 31 32  1  1
  7  5  1  0
 31 10  1  0
 31 13  1  0
 27 15  1  0
 24 18  1  0
  1 33  1  0
  1 34  1  0
  1 35  1  0
  2 36  1  6
  3 37  1  0
  3 38  1  0
  4 39  1  0
  4 40  1  0
  5 41  1  1
  8 42  1  0
  8 43  1  0
  8 44  1  0
  9 45  1  0
  9 46  1  0
  9 47  1  0
 10 48  1  6
 11 49  1  0
 11 50  1  0
 12 51  1  0
 12 52  1  0
 14 53  1  0
 14 54  1  0
 14 55  1  0
 15 56  1  1
 16 57  1  0
 16 58  1  0
 17 59  1  0
 19 60  1  6
 20 61  1  0
 20 62  1  0
 21 63  1  0
 21 64  1  0
 22 65  1  6
 23 66  1  0
 25 67  1  0
 25 68  1  0
 25 69  1  0
 26 70  1  0
 26 71  1  0
 26 72  1  0
 28 73  1  0
 28 74  1  0
 28 75  1  0
 29 76  1  0
 29 77  1  0
 30 78  1  0
 30 79  1  0
 32 80  1  0
 32 81  1  0
 32 82  1  0
M  END
>  <meeko>  (5) 
{"is_sidechain": [false], "intermolecular_energy": 2.731, "internal_energy": -0.839}

$$$$
EPH_relaxed_0001_pdb2pqr_Repair_139_r2_0001_out
     RDKit          3D

 82 86  0  0  0  0  0  0  0  0999 V2000
   -0.4080   10.5260   -4.0830 C   0  0  0  0  0  0  0  0  0  0  0  0
    0.8580   10.3730   -3.2360 C   0  0  2  0  0  0  0  0  0  0  0  0
    0.9000    9.0230   -2.4930 C   0  0  0  0  0  0  0  0  0  0  0  0
   -0.4540    8.5910   -1.9240 C   0  0  0  0  0  0  0  0  0  0  0  0
   -0.5910    8.9620   -0.4780 C   0  0  2  0  0  0  0  0  0  0  0  0
   -1.9300    8.9040    0.0300 O   0  0  0  0  0  0  0  0  0  0  0  0
   -1.3180   10.2040    0.0020 C   0  0  0  0  0  0  0  0  0  0  0  0
   -1.9560   11.1560   -0.9620 C   0  0  0  0  0  0  0  0  0  0  0  0
   -0.9910   10.7460    1.3580 C   0  0  0  0  0  0  0  0  0  0  0  0
    0.9570   11.5200   -2.2370 C   0  0  1  0  0  0  0  0  0  0  0  0
    2.0220   11.2660   -1.1380 C   0  0  0  0  0  0  0  0  0  0  0  0
    2.6530   12.6410   -0.7990 C   0  0  0  0  0  0  0  0  0  0  0  0
    1.7130   13.6750   -1.4620 C   0  0  1  0  0  0  0  0  0  0  0  0
    0.5230   13.8330   -0.4630 C   0  0  0  0  0  0  0  0  0  0  0  0
    2.3500   15.0560   -1.8240 C   0  0  2  0  0  0  0  0  0  0  0  0
    2.8720   15.8680   -0.6260 C   0  0  0  0  0  0  0  0  0  0  0  0
    1.8840   16.8020   -0.0090 C   0  0  0  0  0  0  0  0  0  0  0  0
    0.7240   17.1940   -0.5680 C   0  0  0  0  0  0  0  0  0  0  0  0
    0.3510   16.7640   -1.9930 C   0  0  1  0  0  0  0  0  0  0  0  0
   -0.1620   17.9940   -2.7870 C   0  0  0  0  0  0  0  0  0  0  0  0
   -1.3050   18.7130   -2.0760 C   0  0  0  0  0  0  0  0  0  0  0  0
   -0.8780   19.1760   -0.6860 C   0  0  2  0  0  0  0  0  0  0  0  0
    0.1220   20.1910   -0.8250 O   0  0  0  0  0  0  0  0  0  0  0  0
   -0.3320   18.0240    0.2030 C   0  0  0  0  0  0  0  0  0  0  0  0
   -1.4940   17.0800    0.6020 C   0  0  0  0  0  0  0  0  0  0  0  0
    0.1940   18.6470    1.5230 C   0  0  0  0  0  0  0  0  0  0  0  0
    1.4620   15.9480   -2.7830 C   0  0  1  0  0  0  0  0  0  0  0  0
    2.4350   16.9320   -3.5030 C   0  0  0  0  0  0  0  0  0  0  0  0
    0.7690   15.1010   -3.9160 C   0  0  0  0  0  0  0  0  0  0  0  0
    0.2680   13.6980   -3.5260 C   0  0  0  0  0  0  0  0  0  0  0  0
    1.3570   12.9120   -2.7890 C   0  0  2  0  0  0  0  0  0  0  0  0
    2.5580   12.7180   -3.7770 C   0  0  0  0  0  0  0  0  0  0  0  0
   -1.2809   10.6315   -3.4220 H   0  0  0  0  0  0  0  0  0  0  0  0
   -0.3186   11.4199   -4.7178 H   0  0  0  0  0  0  0  0  0  0  0  0
   -0.5342    9.6366   -4.7178 H   0  0  0  0  0  0  0  0  0  0  0  0
    1.7188   10.4003   -3.9203 H   0  0  0  0  0  0  0  0  0  0  0  0
    1.2436    8.2501   -3.1963 H   0  0  0  0  0  0  0  0  0  0  0  0
    1.5825    9.1472   -1.6393 H   0  0  0  0  0  0  0  0  0  0  0  0
   -1.2545    9.0832   -2.4958 H   0  0  0  0  0  0  0  0  0  0  0  0
   -0.5272    7.4965   -2.0059 H   0  0  0  0  0  0  0  0  0  0  0  0
    0.4088    8.5606   -0.2559 H   0  0  0  0  0  0  0  0  0  0  0  0
   -2.4839   11.9437   -0.4044 H   0  0  0  0  0  0  0  0  0  0  0  0
   -1.1803   11.6118   -1.5949 H   0  0  0  0  0  0  0  0  0  0  0  0
   -2.6725   10.6118   -1.5949 H   0  0  0  0  0  0  0  0  0  0  0  0
   -1.3963   10.0742    2.1289 H   0  0  0  0  0  0  0  0  0  0  0  0
    0.1009   10.8172    1.4709 H   0  0  0  0  0  0  0  0  0  0  0  0
   -1.4372   11.7451    1.4709 H   0  0  0  0  0  0  0  0  0  0  0  0
   -0.0828   11.5414   -1.8787 H   0  0  0  0  0  0  0  0  0  0  0  0
    1.5478   10.8361   -0.2434 H   0  0  0  0  0  0  0  0  0  0  0  0
    2.7867   10.5560   -1.4861 H   0  0  0  0  0  0  0  0  0  0  0  0
    2.6914   12.7929    0.2898 H   0  0  0  0  0  0  0  0  0  0  0  0
    3.6883   12.7258   -1.1609 H   0  0  0  0  0  0  0  0  0  0  0  0
    0.9012   13.7828    0.5687 H   0  0  0  0  0  0  0  0  0  0  0  0
    0.0330   14.8041   -0.6270 H   0  0  0  0  0  0  0  0  0  0  0  0
   -0.2034   13.0234   -0.6270 H   0  0  0  0  0  0  0  0  0  0  0  0
    3.2417   14.7611   -2.3966 H   0  0  0  0  0  0  0  0  0  0  0  0
    3.1988   15.1588    0.1487 H   0  0  0  0  0  0  0  0  0  0  0  0
    3.6839   16.4989   -1.0168 H   0  0  0  0  0  0  0  0  0  0  0  0
    2.1244   17.2037    0.9864 H   0  0  0  0  0  0  0  0  0  0  0  0
   -0.4569   16.0250   -1.8868 H   0  0  0  0  0  0  0  0  0  0  0  0
    0.6707   18.7004   -2.9200 H   0  0  0  0  0  0  0  0  0  0  0  0
   -0.5439   17.6327   -3.7532 H   0  0  0  0  0  0  0  0  0  0  0  0
   -1.6047   19.5885   -2.6707 H   0  0  0  0  0  0  0  0  0  0  0  0
   -2.1472   18.0135   -1.9695 H   0  0  0  0  0  0  0  0  0  0  0  0
   -1.7730   19.5661   -0.1793 H   0  0  0  0  0  0  0  0  0  0  0  0
    0.0450   20.5590   -1.7220 H   0  0  0  0  0  0  0  0  0  0  0  0
   -1.5617   17.0250    1.6985 H   0  0  0  0  0  0  0  0  0  0  0  0
   -2.4390   17.4695    0.1954 H   0  0  0  0  0  0  0  0  0  0  0  0
   -1.3063   16.0753    0.1954 H   0  0  0  0  0  0  0  0  0  0  0  0
   -0.2509   18.1201    2.3800 H   0  0  0  0  0  0  0  0  0  0  0  0
    1.2892   18.5519    1.5624 H   0  0  0  0  0  0  0  0  0  0  0  0
   -0.0833   19.7107    1.5624 H   0  0  0  0  0  0  0  0  0  0  0  0
    3.0003   17.5037   -2.7522 H   0  0  0  0  0  0  0  0  0  0  0  0
    3.1341   16.3616   -4.1322 H   0  0  0  0  0  0  0  0  0  0  0  0
    1.8568   17.6246   -4.1322 H   0  0  0  0  0  0  0  0  0  0  0  0
   -0.0968   15.6748   -4.2781 H   0  0  0  0  0  0  0  0  0  0  0  0
    1.5539   14.9279   -4.6669 H   0  0  0  0  0  0  0  0  0  0  0  0
   -0.6094   13.7987   -2.8702 H   0  0  0  0  0  0  0  0  0  0  0  0
    0.0023   13.1529   -4.4437 H   0  0  0  0  0  0  0  0  0  0  0  0
    3.4844   12.5684   -3.2031 H   0  0  0  0  0  0  0  0  0  0  0  0
    2.3730   11.8381   -4.4107 H   0  0  0  0  0  0  0  0  0  0  0  0
    2.6595   13.6114   -4.4107 H   0  0  0  0  0  0  0  0  0  0  0  0
  1  2  1  0
  2  3  1  0
  3  4  1  0
  4  5  1  0
  5  6  1  0
  6  7  1  0
  7  8  1  0
  7  9  1  0
  2 10  1  0
 10 11  1  0
 11 12  1  0
 12 13  1  0
 13 14  1  1
 13 15  1  0
 15 16  1  0
 16 17  1  0
 17 18  2  0
 18 19  1  0
 19 20  1  0
 20 21  1  0
 21 22  1  0
 22 23  1  0
 22 24  1  0
 24 25  1  0
 24 26  1  0
 19 27  1  0
 27 28  1  6
 27 29  1  0
 29 30  1  0
 30 31  1  0
 31 32  1  6
  7  5  1  0
 31 10  1  0
 31 13  1  0
 27 15  1  0
 24 18  1  0
  1 33  1  0
  1 34  1  0
  1 35  1  0
  2 36  1  6
  3 37  1  0
  3 38  1  0
  4 39  1  0
  4 40  1  0
  5 41  1  1
  8 42  1  0
  8 43  1  0
  8 44  1  0
  9 45  1  0
  9 46  1  0
  9 47  1  0
 10 48  1  1
 11 49  1  0
 11 50  1  0
 12 51  1  0
 12 52  1  0
 14 53  1  0
 14 54  1  0
 14 55  1  0
 15 56  1  6
 16 57  1  0
 16 58  1  0
 17 59  1  0
 19 60  1  1
 20 61  1  0
 20 62  1  0
 21 63  1  0
 21 64  1  0
 22 65  1  1
 23 66  1  0
 25 67  1  0
 25 68  1  0
 25 69  1  0
 26 70  1  0
 26 71  1  0
 26 72  1  0
 28 73  1  0
 28 74  1  0
 28 75  1  0
 29 76  1  0
 29 77  1  0
 30 78  1  0
 30 79  1  0
 32 80  1  0
 32 81  1  0
 32 82  1  0
M  END
>  <meeko>  (6) 
{"is_sidechain": [false], "intermolecular_energy": 2.731, "internal_energy": -0.839}

$$$$
EPH_relaxed_0001_pdb2pqr_Repair_139_r2_0001_out
     RDKit          3D

 82 86  0  0  0  0  0  0  0  0999 V2000
    4.3050   17.3900   -0.6080 C   0  0  0  0  0  0  0  0  0  0  0  0
    2.9500   17.9970   -0.2320 C   0  0  2  0  0  0  0  0  0  0  0  0
    2.9980   18.7270    1.1260 C   0  0  0  0  0  0  0  0  0  0  0  0
    4.3790   18.7080    1.7870 C   0  0  0  0  0  0  0  0  0  0  0  0
    4.3500   19.3320    3.1490 C   0  0  2  0  0  0  0  0  0  0  0  0
    5.4580   20.1950    3.4360 O   0  0  0  0  0  0  0  0  0  0  0  0
    5.3550   19.0080    4.2390 C   0  0  0  0  0  0  0  0  0  0  0  0
    6.4590   18.0230    4.0140 C   0  0  0  0  0  0  0  0  0  0  0  0
    4.9770   19.2740    5.6630 C   0  0  0  0  0  0  0  0  0  0  0  0
    1.8840   16.9090   -0.2000 C   0  0  1  0  0  0  0  0  0  0  0  0
    0.4570   17.4630   -0.4550 C   0  0  0  0  0  0  0  0  0  0  0  0
   -0.3110   16.3750   -1.2500 C   0  0  0  0  0  0  0  0  0  0  0  0
    0.5760   15.1130   -1.1380 C   0  0  1  0  0  0  0  0  0  0  0  0
    0.2380   14.5080    0.2610 C   0  0  0  0  0  0  0  0  0  0  0  0
    0.4170   14.0540   -2.2770 C   0  0  2  0  0  0  0  0  0  0  0  0
   -0.9790   13.4170   -2.3860 C   0  0  0  0  0  0  0  0  0  0  0  0
   -1.1760   12.1720   -1.5860 C   0  0  0  0  0  0  0  0  0  0  0  0
   -0.1950   11.4310   -1.0380 C   0  0  0  0  0  0  0  0  0  0  0  0
    1.2810   11.7720   -1.2840 C   0  0  1  0  0  0  0  0  0  0  0  0
    2.0580   10.4790   -1.6460 C   0  0  0  0  0  0  0  0  0  0  0  0
    1.8790    9.3780   -0.6050 C   0  0  0  0  0  0  0  0  0  0  0  0
    0.4030    9.0260   -0.4320 C   0  0  2  0  0  0  0  0  0  0  0  0
   -0.0720    8.4250   -1.6400 O   0  0  0  0  0  0  0  0  0  0  0  0
   -0.4810   10.2530   -0.0740 C   0  0  0  0  0  0  0  0  0  0  0  0
   -0.1670   10.7190    1.3690 C   0  0  0  0  0  0  0  0  0  0  0  0
   -1.9630    9.7880   -0.0670 C   0  0  0  0  0  0  0  0  0  0  0  0
    1.5570   12.9570   -2.3060 C   0  0  1  0  0  0  0  0  0  0  0  0
    1.6060   12.4030   -3.7630 C   0  0  0  0  0  0  0  0  0  0  0  0
    2.9800   13.5650   -2.0150 C   0  0  0  0  0  0  0  0  0  0  0  0
    3.0540   14.6900   -0.9650 C   0  0  0  0  0  0  0  0  0  0  0  0
    2.0010   15.7680   -1.2420 C   0  0  2  0  0  0  0  0  0  0  0  0
    2.3280   16.4090   -2.6330 C   0  0  0  0  0  0  0  0  0  0  0  0
    4.8617   17.1406    0.3073 H   0  0  0  0  0  0  0  0  0  0  0  0
    4.1460   16.4771   -1.2007 H   0  0  0  0  0  0  0  0  0  0  0  0
    4.8804   18.1164   -1.2007 H   0  0  0  0  0  0  0  0  0  0  0  0
    2.6970   18.7429   -0.9998 H   0  0  0  0  0  0  0  0  0  0  0  0
    2.7033   19.7749    0.9675 H   0  0  0  0  0  0  0  0  0  0  0  0
    2.3114   18.1952    1.8011 H   0  0  0  0  0  0  0  0  0  0  0  0
    4.7155   17.6648    1.8799 H   0  0  0  0  0  0  0  0  0  0  0  0
    5.0684   19.2900    1.1577 H   0  0  0  0  0  0  0  0  0  0  0  0
    3.2502   19.3531    3.1418 H   0  0  0  0  0  0  0  0  0  0  0  0
    6.8458   17.6779    4.9842 H   0  0  0  0  0  0  0  0  0  0  0  0
    6.0734   17.1634    3.4462 H   0  0  0  0  0  0  0  0  0  0  0  0
    7.2693   18.5037    3.4462 H   0  0  0  0  0  0  0  0  0  0  0  0
    5.6911   18.7715    6.3319 H   0  0  0  0  0  0  0  0  0  0  0  0
    4.9979   20.3575    5.8517 H   0  0  0  0  0  0  0  0  0  0  0  0
    3.9642   18.8885    5.8517 H   0  0  0  0  0  0  0  0  0  0  0  0
    2.0544   16.5138    0.8123 H   0  0  0  0  0  0  0  0  0  0  0  0
   -0.0489   17.6609    0.5015 H   0  0  0  0  0  0  0  0  0  0  0  0
    0.4952   18.4084   -1.0160 H   0  0  0  0  0  0  0  0  0  0  0  0
   -1.3009   16.1949   -0.8054 H   0  0  0  0  0  0  0  0  0  0  0  0
   -0.4893   16.6689   -2.2949 H   0  0  0  0  0  0  0  0  0  0  0  0
    0.6119   15.1772    1.0499 H   0  0  0  0  0  0  0  0  0  0  0  0
   -0.8521   14.3983    0.3594 H   0  0  0  0  0  0  0  0  0  0  0  0
    0.7161   13.5222    0.3594 H   0  0  0  0  0  0  0  0  0  0  0  0
    0.5381   14.6641   -3.1843 H   0  0  0  0  0  0  0  0  0  0  0  0
   -1.7182   14.1584   -2.0485 H   0  0  0  0  0  0  0  0  0  0  0  0
   -1.0984   13.1239   -3.4395 H   0  0  0  0  0  0  0  0  0  0  0  0
   -2.2104   11.8314   -1.4313 H   0  0  0  0  0  0  0  0  0  0  0  0
    1.6609   12.1820   -0.3366 H   0  0  0  0  0  0  0  0  0  0  0  0
    1.6948   10.1093   -2.6163 H   0  0  0  0  0  0  0  0  0  0  0  0
    3.1279   10.7319   -1.6839 H   0  0  0  0  0  0  0  0  0  0  0  0
    2.4271    8.4817   -0.9309 H   0  0  0  0  0  0  0  0  0  0  0  0
    2.2695    9.7383    0.3582 H   0  0  0  0  0  0  0  0  0  0  0  0
    0.3267    8.3278    0.4146 H   0  0  0  0  0  0  0  0  0  0  0  0
    0.3990    7.5830   -1.7550 H   0  0  0  0  0  0  0  0  0  0  0  0
   -0.6327   10.0279    2.0870 H   0  0  0  0  0  0  0  0  0  0  0  0
    0.9222   10.7282    1.5225 H   0  0  0  0  0  0  0  0  0  0  0  0
   -0.5675   11.7319    1.5225 H   0  0  0  0  0  0  0  0  0  0  0  0
   -2.3084    9.6796    0.9717 H   0  0  0  0  0  0  0  0  0  0  0  0
   -2.5840   10.5345   -0.5839 H   0  0  0  0  0  0  0  0  0  0  0  0
   -2.0462    8.8206   -0.5839 H   0  0  0  0  0  0  0  0  0  0  0  0
    1.7029   11.3076   -3.7357 H   0  0  0  0  0  0  0  0  0  0  0  0
    0.6802   12.6762   -4.2905 H   0  0  0  0  0  0  0  0  0  0  0  0
    2.4695   12.8344   -4.2905 H   0  0  0  0  0  0  0  0  0  0  0  0
    3.6278   12.7454   -1.6706 H   0  0  0  0  0  0  0  0  0  0  0  0
    3.2915   14.0332   -2.9604 H   0  0  0  0  0  0  0  0  0  0  0  0
    2.8778   14.2628    0.0332 H   0  0  0  0  0  0  0  0  0  0  0  0
    4.0510   15.1521   -1.0153 H   0  0  0  0  0  0  0  0  0  0  0  0
    2.8231   17.3796   -2.4821 H   0  0  0  0  0  0  0  0  0  0  0  0
    2.9953   15.7407   -3.1969 H   0  0  0  0  0  0  0  0  0  0  0  0
    1.3952   16.5569   -3.1969 H   0  0  0  0  0  0  0  0  0  0  0  0
  1  2  1  0
  2  3  1  0
  3  4  1  0
  4  5  1  0
  5  6  1  0
  6  7  1  0
  7  8  1  0
  7  9  1  0
  2 10  1  0
 10 11  1  0
 11 12  1  0
 12 13  1  0
 13 14  1  1
 13 15  1  0
 15 16  1  0
 16 17  1  0
 17 18  2  0
 18 19  1  0
 19 20  1  0
 20 21  1  0
 21 22  1  0
 22 23  1  0
 22 24  1  0
 24 25  1  0
 24 26  1  0
 19 27  1  0
 27 28  1  6
 27 29  1  0
 29 30  1  0
 30 31  1  0
 31 32  1  6
  7  5  1  0
 31 10  1  0
 31 13  1  0
 27 15  1  0
 24 18  1  0
  1 33  1  0
  1 34  1  0
  1 35  1  0
  2 36  1  6
  3 37  1  0
  3 38  1  0
  4 39  1  0
  4 40  1  0
  5 41  1  1
  8 42  1  0
  8 43  1  0
  8 44  1  0
  9 45  1  0
  9 46  1  0
  9 47  1  0
 10 48  1  1
 11 49  1  0
 11 50  1  0
 12 51  1  0
 12 52  1  0
 14 53  1  0
 14 54  1  0
 14 55  1  0
 15 56  1  6
 16 57  1  0
 16 58  1  0
 17 59  1  0
 19 60  1  1
 20 61  1  0
 20 62  1  0
 21 63  1  0
 21 64  1  0
 22 65  1  1
 23 66  1  0
 25 67  1  0
 25 68  1  0
 25 69  1  0
 26 70  1  0
 26 71  1  0
 26 72  1  0
 28 73  1  0
 28 74  1  0
 28 75  1  0
 29 76  1  0
 29 77  1  0
 30 78  1  0
 30 79  1  0
 32 80  1  0
 32 81  1  0
 32 82  1  0
M  END
>  <meeko>  (7) 
{"is_sidechain": [false], "intermolecular_energy": 2.731, "internal_energy": -0.839}

$$$$
EPH_relaxed_0001_pdb2pqr_Repair_139_r2_0001_out
     RDKit          3D

 82 86  0  0  0  0  0  0  0  0999 V2000
   -0.2280   15.1390   -7.5330 C   0  0  0  0  0  0  0  0  0  0  0  0
    1.1540   15.0720   -6.8780 C   0  0  2  0  0  0  0  0  0  0  0  0
    2.2920   15.1500   -7.9150 C   0  0  0  0  0  0  0  0  0  0  0  0
    2.3150   16.4600   -8.7070 C   0  0  0  0  0  0  0  0  0  0  0  0
    1.9540   16.2440  -10.1460 C   0  0  2  0  0  0  0  0  0  0  0  0
    1.2680   15.0140  -10.4130 O   0  0  0  0  0  0  0  0  0  0  0  0
    2.5680   15.1570  -11.0080 C   0  0  0  0  0  0  0  0  0  0  0  0
    3.5940   14.2150  -10.4620 C   0  0  0  0  0  0  0  0  0  0  0  0
    2.5360   15.3210  -12.4960 C   0  0  0  0  0  0  0  0  0  0  0  0
    1.2810   13.7910   -6.0610 C   0  0  1  0  0  0  0  0  0  0  0  0
    2.7030   13.1730   -6.1350 C   0  0  0  0  0  0  0  0  0  0  0  0
    2.9890   12.5420   -4.7490 C   0  0  0  0  0  0  0  0  0  0  0  0
    1.6150   12.5220   -4.0380 C   0  0  1  0  0  0  0  0  0  0  0  0
    0.8890   11.2610   -4.6030 C   0  0  0  0  0  0  0  0  0  0  0  0
    1.6460   12.5180   -2.4750 C   0  0  2  0  0  0  0  0  0  0  0  0
    2.3170   11.2890   -1.8380 C   0  0  0  0  0  0  0  0  0  0  0  0
    1.4040   10.1450   -1.5430 C   0  0  0  0  0  0  0  0  0  0  0  0
    0.0600   10.2050   -1.5140 C   0  0  0  0  0  0  0  0  0  0  0  0
   -0.6730   11.5400   -1.6980 C   0  0  1  0  0  0  0  0  0  0  0  0
   -1.7750   11.6790   -0.6150 C   0  0  0  0  0  0  0  0  0  0  0  0
   -2.7280   10.4880   -0.5940 C   0  0  0  0  0  0  0  0  0  0  0  0
   -1.9690    9.1860   -0.3500 C   0  0  2  0  0  0  0  0  0  0  0  0
   -1.4300    9.2080    0.9750 O   0  0  0  0  0  0  0  0  0  0  0  0
   -0.8260    8.9430   -1.3750 C   0  0  0  0  0  0  0  0  0  0  0  0
   -1.4320    8.6200   -2.7640 C   0  0  0  0  0  0  0  0  0  0  0  0
   -0.0520    7.6720   -0.9340 C   0  0  0  0  0  0  0  0  0  0  0  0
    0.2500   12.8300   -1.7980 C   0  0  1  0  0  0  0  0  0  0  0  0
    0.5590   13.3760   -0.3710 C   0  0  0  0  0  0  0  0  0  0  0  0
   -0.5380   13.9680   -2.5480 C   0  0  0  0  0  0  0  0  0  0  0  0
   -0.4320   13.9900   -4.0850 C   0  0  0  0  0  0  0  0  0  0  0  0
    1.0290   13.8930   -4.5360 C   0  0  2  0  0  0  0  0  0  0  0  0
    1.7790   15.1600   -4.0010 C   0  0  0  0  0  0  0  0  0  0  0  0
   -1.0022   15.1765   -6.7525 H   0  0  0  0  0  0  0  0  0  0  0  0
   -0.2939   16.0414   -8.1586 H   0  0  0  0  0  0  0  0  0  0  0  0
   -0.3809   14.2472   -8.1586 H   0  0  0  0  0  0  0  0  0  0  0  0
    1.2492   15.9457   -6.2165 H   0  0  0  0  0  0  0  0  0  0  0  0
    3.2511   15.0471   -7.3863 H   0  0  0  0  0  0  0  0  0  0  0  0
    2.1226   14.3397   -8.6393 H   0  0  0  0  0  0  0  0  0  0  0  0
    1.5938   17.1598   -8.2596 H   0  0  0  0  0  0  0  0  0  0  0  0
    3.3360   16.8673   -8.6669 H   0  0  0  0  0  0  0  0  0  0  0  0
    1.8278   17.3256  -10.3013 H   0  0  0  0  0  0  0  0  0  0  0  0
    3.5667   14.2401   -9.3626 H   0  0  0  0  0  0  0  0  0  0  0  0
    3.3774   13.1945  -10.8110 H   0  0  0  0  0  0  0  0  0  0  0  0
    4.5923   14.5177  -10.8110 H   0  0  0  0  0  0  0  0  0  0  0  0
    2.3308   16.3727  -12.7446 H   0  0  0  0  0  0  0  0  0  0  0  0
    3.5084   15.0274  -12.9182 H   0  0  0  0  0  0  0  0  0  0  0  0
    1.7453   14.6834  -12.9182 H   0  0  0  0  0  0  0  0  0  0  0  0
    0.4897   13.1912   -6.5345 H   0  0  0  0  0  0  0  0  0  0  0  0
    2.7402   12.4009   -6.9176 H   0  0  0  0  0  0  0  0  0  0  0  0
    3.4536   13.9379   -6.3832 H   0  0  0  0  0  0  0  0  0  0  0  0
    3.3831   11.5212   -4.8610 H   0  0  0  0  0  0  0  0  0  0  0  0
    3.7440   13.1061   -4.1817 H   0  0  0  0  0  0  0  0  0  0  0  0
    0.5312   10.6395   -3.7690 H   0  0  0  0  0  0  0  0  0  0  0  0
    0.0337   11.5756   -5.2191 H   0  0  0  0  0  0  0  0  0  0  0  0
    1.5905   10.6793   -5.2191 H   0  0  0  0  0  0  0  0  0  0  0  0
    2.3069   13.3683   -2.2509 H   0  0  0  0  0  0  0  0  0  0  0  0
    3.0970   10.9324   -2.5268 H   0  0  0  0  0  0  0  0  0  0  0  0
    2.7075   11.6251   -0.8661 H   0  0  0  0  0  0  0  0  0  0  0  0
    1.8693    9.1709   -1.3315 H   0  0  0  0  0  0  0  0  0  0  0  0
   -1.1333   11.4990   -2.6962 H   0  0  0  0  0  0  0  0  0  0  0  0
   -1.2927   11.7621    0.3701 H   0  0  0  0  0  0  0  0  0  0  0  0
   -2.3662   12.5755   -0.8533 H   0  0  0  0  0  0  0  0  0  0  0  0
   -3.4652   10.6310    0.2098 H   0  0  0  0  0  0  0  0  0  0  0  0
   -3.2309   10.4235   -1.5702 H   0  0  0  0  0  0  0  0  0  0  0  0
   -2.6835    8.3589   -0.4742 H   0  0  0  0  0  0  0  0  0  0  0  0
   -1.7010    8.3850    1.4160 H   0  0  0  0  0  0  0  0  0  0  0  0
   -2.3958    8.1063   -2.6331 H   0  0  0  0  0  0  0  0  0  0  0  0
   -1.5876    9.5548   -3.3225 H   0  0  0  0  0  0  0  0  0  0  0  0
   -0.7427    7.9696   -3.3225 H   0  0  0  0  0  0  0  0  0  0  0  0
   -0.0224    7.6234    0.1645 H   0  0  0  0  0  0  0  0  0  0  0  0
   -0.5596    6.7788   -1.3270 H   0  0  0  0  0  0  0  0  0  0  0  0
    0.9746    7.7130   -1.3270 H   0  0  0  0  0  0  0  0  0  0  0  0
    0.1641   12.6782    0.3821 H   0  0  0  0  0  0  0  0  0  0  0  0
    1.6471   13.4752   -0.2440 H   0  0  0  0  0  0  0  0  0  0  0  0
    0.0838   14.3599   -0.2440 H   0  0  0  0  0  0  0  0  0  0  0  0
   -1.6019   13.8620   -2.2894 H   0  0  0  0  0  0  0  0  0  0  0  0
   -0.0736   14.9076   -2.2141 H   0  0  0  0  0  0  0  0  0  0  0  0
   -0.9928   13.1379   -4.4965 H   0  0  0  0  0  0  0  0  0  0  0  0
   -0.8497   14.9393   -4.4516 H   0  0  0  0  0  0  0  0  0  0  0  0
    1.7741   15.1518   -2.9010 H   0  0  0  0  0  0  0  0  0  0  0  0
    2.8176   15.1514   -4.3631 H   0  0  0  0  0  0  0  0  0  0  0  0
    1.2719   16.0665   -4.3631 H   0  0  0  0  0  0  0  0  0  0  0  0
  1  2  1  0
  2  3  1  0
  3  4  1  0
  4  5  1  0
  5  6  1  0
  6  7  1  0
  7  8  1  0
  7  9  1  0
  2 10  1  0
 10 11  1  0
 11 12  1  0
 12 13  1  0
 13 14  1  6
 13 15  1  0
 15 16  1  0
 16 17  1  0
 17 18  2  0
 18 19  1  0
 19 20  1  0
 20 21  1  0
 21 22  1  0
 22 23  1  0
 22 24  1  0
 24 25  1  0
 24 26  1  0
 19 27  1  0
 27 28  1  1
 27 29  1  0
 29 30  1  0
 30 31  1  0
 31 32  1  1
  7  5  1  0
 31 10  1  0
 31 13  1  0
 27 15  1  0
 24 18  1  0
  1 33  1  0
  1 34  1  0
  1 35  1  0
  2 36  1  1
  3 37  1  0
  3 38  1  0
  4 39  1  0
  4 40  1  0
  5 41  1  6
  8 42  1  0
  8 43  1  0
  8 44  1  0
  9 45  1  0
  9 46  1  0
  9 47  1  0
 10 48  1  6
 11 49  1  0
 11 50  1  0
 12 51  1  0
 12 52  1  0
 14 53  1  0
 14 54  1  0
 14 55  1  0
 15 56  1  6
 16 57  1  0
 16 58  1  0
 17 59  1  0
 19 60  1  6
 20 61  1  0
 20 62  1  0
 21 63  1  0
 21 64  1  0
 22 65  1  1
 23 66  1  0
 25 67  1  0
 25 68  1  0
 25 69  1  0
 26 70  1  0
 26 71  1  0
 26 72  1  0
 28 73  1  0
 28 74  1  0
 28 75  1  0
 29 76  1  0
 29 77  1  0
 30 78  1  0
 30 79  1  0
 32 80  1  0
 32 81  1  0
 32 82  1  0
M  END
>  <meeko>  (8) 
{"is_sidechain": [false], "intermolecular_energy": 2.731, "internal_energy": -0.839}

$$$$
EPH_relaxed_0001_pdb2pqr_Repair_139_r2_0001_out
     RDKit          3D

 82 86  0  0  0  0  0  0  0  0999 V2000
    3.6270   18.9040   -1.2060 C   0  0  0  0  0  0  0  0  0  0  0  0
    2.0960   18.8640   -1.1950 C   0  0  2  0  0  0  0  0  0  0  0  0
    1.4930   19.9550   -0.2880 C   0  0  0  0  0  0  0  0  0  0  0  0
    1.9250   19.8460    1.1770 C   0  0  0  0  0  0  0  0  0  0  0  0
    3.4170   19.7960    1.3120 C   0  0  2  0  0  0  0  0  0  0  0  0
    3.9280   18.5710    1.8540 O   0  0  0  0  0  0  0  0  0  0  0  0
    4.1340   19.7500    2.6480 C   0  0  0  0  0  0  0  0  0  0  0  0
    3.3790   19.7540    3.9400 C   0  0  0  0  0  0  0  0  0  0  0  0
    5.5630   20.1940    2.7090 C   0  0  0  0  0  0  0  0  0  0  0  0
    1.6150   17.4890   -0.7470 C   0  0  1  0  0  0  0  0  0  0  0  0
    0.3390   17.5600    0.1330 C   0  0  0  0  0  0  0  0  0  0  0  0
   -0.5090   16.3070   -0.2060 C   0  0  0  0  0  0  0  0  0  0  0  0
    0.4470   15.3960   -1.0110 C   0  0  1  0  0  0  0  0  0  0  0  0
    1.3140   14.6730    0.0660 C   0  0  0  0  0  0  0  0  0  0  0  0
   -0.2280   14.3790   -1.9880 C   0  0  2  0  0  0  0  0  0  0  0  0
   -1.1280   13.3280   -1.3150 C   0  0  0  0  0  0  0  0  0  0  0  0
   -0.4440   12.0620   -0.9170 C   0  0  0  0  0  0  0  0  0  0  0  0
    0.7690   11.6620   -1.3420 C   0  0  0  0  0  0  0  0  0  0  0  0
    1.5410   12.4690   -2.3940 C   0  0  1  0  0  0  0  0  0  0  0  0
    2.0990   11.5080   -3.4770 C   0  0  0  0  0  0  0  0  0  0  0  0
    2.9320   10.3770   -2.8820 C   0  0  0  0  0  0  0  0  0  0  0  0
    2.1120    9.5620   -1.8850 C   0  0  2  0  0  0  0  0  0  0  0  0
    1.0740    8.8770   -2.5920 O   0  0  0  0  0  0  0  0  0  0  0  0
    1.4910   10.4260   -0.7520 C   0  0  0  0  0  0  0  0  0  0  0  0
    2.6100   10.9240    0.1960 C   0  0  0  0  0  0  0  0  0  0  0  0
    0.5760    9.5070    0.1020 C   0  0  0  0  0  0  0  0  0  0  0  0
    0.7700   13.7100   -3.0190 C   0  0  1  0  0  0  0  0  0  0  0  0
   -0.0900   13.2460   -4.2340 C   0  0  0  0  0  0  0  0  0  0  0  0
    1.8210   14.7360   -3.5850 C   0  0  0  0  0  0  0  0  0  0  0  0
    2.3610   15.7920   -2.6010 C   0  0  0  0  0  0  0  0  0  0  0  0
    1.2160   16.4800   -1.8520 C   0  0  2  0  0  0  0  0  0  0  0  0
    0.3390   17.2350   -2.9080 C   0  0  0  0  0  0  0  0  0  0  0  0
    4.0010   18.9138   -0.1716 H   0  0  0  0  0  0  0  0  0  0  0  0
    4.0133   18.0156   -1.7272 H   0  0  0  0  0  0  0  0  0  0  0  0
    3.9664   19.8113   -1.7272 H   0  0  0  0  0  0  0  0  0  0  0  0
    1.7526   19.0615   -2.2212 H   0  0  0  0  0  0  0  0  0  0  0  0
    1.8072   20.9373   -0.6705 H   0  0  0  0  0  0  0  0  0  0  0  0
    0.4010   19.8250   -0.3115 H   0  0  0  0  0  0  0  0  0  0  0  0
    1.5463   20.7205    1.7265 H   0  0  0  0  0  0  0  0  0  0  0  0
    1.5117   18.9132    1.5882 H   0  0  0  0  0  0  0  0  0  0  0  0
    3.5427   20.4395    0.4287 H   0  0  0  0  0  0  0  0  0  0  0  0
    4.0894   19.7502    4.7798 H   0  0  0  0  0  0  0  0  0  0  0  0
    2.7511   20.6555    3.9949 H   0  0  0  0  0  0  0  0  0  0  0  0
    2.7415   18.8592    3.9949 H   0  0  0  0  0  0  0  0  0  0  0  0
    5.8725   20.2902    3.7602 H   0  0  0  0  0  0  0  0  0  0  0  0
    6.1995   19.4513    2.2058 H   0  0  0  0  0  0  0  0  0  0  0  0
    5.6665   21.1667    2.2058 H   0  0  0  0  0  0  0  0  0  0  0  0
    2.5185   17.1386   -0.2265 H   0  0  0  0  0  0  0  0  0  0  0  0
    0.6129   17.5550    1.1983 H   0  0  0  0  0  0  0  0  0  0  0  0
   -0.2252   18.4836   -0.0636 H   0  0  0  0  0  0  0  0  0  0  0  0
   -0.8430   15.8036    0.7133 H   0  0  0  0  0  0  0  0  0  0  0  0
   -1.4191   16.5590   -0.7700 H   0  0  0  0  0  0  0  0  0  0  0  0
    0.9679   14.9616    1.0695 H   0  0  0  0  0  0  0  0  0  0  0  0
    1.2174   13.5841   -0.0561 H   0  0  0  0  0  0  0  0  0  0  0  0
    2.3679   14.9636   -0.0561 H   0  0  0  0  0  0  0  0  0  0  0  0
   -0.9035   15.0233   -2.5699 H   0  0  0  0  0  0  0  0  0  0  0  0
   -1.5596   13.7800   -0.4098 H   0  0  0  0  0  0  0  0  0  0  0  0
   -1.8787   13.0442   -2.0673 H   0  0  0  0  0  0  0  0  0  0  0  0
   -0.9761   11.4004   -0.2176 H   0  0  0  0  0  0  0  0  0  0  0  0
    2.3721   12.9506   -1.8579 H   0  0  0  0  0  0  0  0  0  0  0  0
    1.2543   11.0708   -4.0296 H   0  0  0  0  0  0  0  0  0  0  0  0
    2.7549   12.0940   -4.1376 H   0  0  0  0  0  0  0  0  0  0  0  0
    3.2734    9.7164   -3.6926 H   0  0  0  0  0  0  0  0  0  0  0  0
    3.7924   10.8145   -2.3545 H   0  0  0  0  0  0  0  0  0  0  0  0
    2.7961    8.8513   -1.3983 H   0  0  0  0  0  0  0  0  0  0  0  0
    0.2280    9.1190   -2.1790 H   0  0  0  0  0  0  0  0  0  0  0  0
    2.2950   10.7838    1.2406 H   0  0  0  0  0  0  0  0  0  0  0  0
    3.5301   10.3504    0.0104 H   0  0  0  0  0  0  0  0  0  0  0  0
    2.7997   11.9915    0.0104 H   0  0  0  0  0  0  0  0  0  0  0  0
    0.7624    9.6942    1.1698 H   0  0  0  0  0  0  0  0  0  0  0  0
   -0.4778    9.7216   -0.1294 H   0  0  0  0  0  0  0  0  0  0  0  0
    0.7952    8.4542   -0.1294 H   0  0  0  0  0  0  0  0  0  0  0  0
   -1.0035   12.7532   -3.8698 H   0  0  0  0  0  0  0  0  0  0  0  0
   -0.3631   14.1192   -4.8447 H   0  0  0  0  0  0  0  0  0  0  0  0
    0.4898   12.5383   -4.8447 H   0  0  0  0  0  0  0  0  0  0  0  0
    2.6801   14.1599   -3.9594 H   0  0  0  0  0  0  0  0  0  0  0  0
    1.2798   15.3083   -4.3528 H   0  0  0  0  0  0  0  0  0  0  0  0
    3.0229   15.3002   -1.8730 H   0  0  0  0  0  0  0  0  0  0  0  0
    2.9138   16.5528   -3.1717 H   0  0  0  0  0  0  0  0  0  0  0  0
   -0.3960   17.8678   -2.3891 H   0  0  0  0  0  0  0  0  0  0  0  0
    0.9846   17.8643   -3.5382 H   0  0  0  0  0  0  0  0  0  0  0  0
   -0.1873   16.5030   -3.5382 H   0  0  0  0  0  0  0  0  0  0  0  0
  1  2  1  0
  2  3  1  0
  3  4  1  0
  4  5  1  0
  5  6  1  0
  6  7  1  0
  7  8  1  0
  7  9  1  0
  2 10  1  0
 10 11  1  0
 11 12  1  0
 12 13  1  0
 13 14  1  1
 13 15  1  0
 15 16  1  0
 16 17  1  0
 17 18  2  0
 18 19  1  0
 19 20  1  0
 20 21  1  0
 21 22  1  0
 22 23  1  0
 22 24  1  0
 24 25  1  0
 24 26  1  0
 19 27  1  0
 27 28  1  6
 27 29  1  0
 29 30  1  0
 30 31  1  0
 31 32  1  6
  7  5  1  0
 31 10  1  0
 31 13  1  0
 27 15  1  0
 24 18  1  0
  1 33  1  0
  1 34  1  0
  1 35  1  0
  2 36  1  6
  3 37  1  0
  3 38  1  0
  4 39  1  0
  4 40  1  0
  5 41  1  6
  8 42  1  0
  8 43  1  0
  8 44  1  0
  9 45  1  0
  9 46  1  0
  9 47  1  0
 10 48  1  1
 11 49  1  0
 11 50  1  0
 12 51  1  0
 12 52  1  0
 14 53  1  0
 14 54  1  0
 14 55  1  0
 15 56  1  6
 16 57  1  0
 16 58  1  0
 17 59  1  0
 19 60  1  1
 20 61  1  0
 20 62  1  0
 21 63  1  0
 21 64  1  0
 22 65  1  1
 23 66  1  0
 25 67  1  0
 25 68  1  0
 25 69  1  0
 26 70  1  0
 26 71  1  0
 26 72  1  0
 28 73  1  0
 28 74  1  0
 28 75  1  0
 29 76  1  0
 29 77  1  0
 30 78  1  0
 30 79  1  0
 32 80  1  0
 32 81  1  0
 32 82  1  0
M  END
>  <meeko>  (9) 
{"is_sidechain": [false], "intermolecular_energy": 2.731, "internal_energy": -0.839}

$$$$
EPH_relaxed_0001_pdb2pqr_Repair_139_r2_0001_out
     RDKit          3D

 82 86  0  0  0  0  0  0  0  0999 V2000
   -2.0200    7.9240   -1.9190 C   0  0  0  0  0  0  0  0  0  0  0  0
   -2.0100    8.5900   -0.5400 C   0  0  2  0  0  0  0  0  0  0  0  0
   -3.4110    8.6170    0.1020 C   0  0  0  0  0  0  0  0  0  0  0  0
   -4.5530    8.6900   -0.9150 C   0  0  0  0  0  0  0  0  0  0  0  0
   -5.2880    7.3870   -1.0180 C   0  0  2  0  0  0  0  0  0  0  0  0
   -5.4020    6.8690   -2.3500 O   0  0  0  0  0  0  0  0  0  0  0  0
   -6.6320    7.2370   -1.7060 C   0  0  0  0  0  0  0  0  0  0  0  0
   -7.3220    8.4070   -2.3350 C   0  0  0  0  0  0  0  0  0  0  0  0
   -7.4950    6.0700   -1.3420 C   0  0  0  0  0  0  0  0  0  0  0  0
   -1.4610   10.0080   -0.6520 C   0  0  1  0  0  0  0  0  0  0  0  0
   -0.9220   10.5480    0.6990 C   0  0  0  0  0  0  0  0  0  0  0  0
    0.2980   11.4450    0.3670 C   0  0  0  0  0  0  0  0  0  0  0  0
    0.2200   11.6590   -1.1630 C   0  0  1  0  0  0  0  0  0  0  0  0
   -0.8290   12.7990   -1.3550 C   0  0  0  0  0  0  0  0  0  0  0  0
    1.5680   11.9880   -1.8840 C   0  0  2  0  0  0  0  0  0  0  0  0
    2.2410   13.2990   -1.4430 C   0  0  0  0  0  0  0  0  0  0  0  0
    1.8520   14.5100   -2.2260 C   0  0  0  0  0  0  0  0  0  0  0  0
    1.2210   14.5030   -3.4150 C   0  0  0  0  0  0  0  0  0  0  0  0
    0.9210   13.1850   -4.1390 C   0  0  1  0  0  0  0  0  0  0  0  0
    1.3210   13.3120   -5.6330 C   0  0  0  0  0  0  0  0  0  0  0  0
    0.6700   14.5130   -6.3130 C   0  0  0  0  0  0  0  0  0  0  0  0
    1.0400   15.8100   -5.5980 C   0  0  2  0  0  0  0  0  0  0  0  0
    2.4410   16.0470   -5.7680 O   0  0  0  0  0  0  0  0  0  0  0  0
    0.6920   15.7960   -4.0830 C   0  0  0  0  0  0  0  0  0  0  0  0
   -0.8450   15.8430   -3.9020 C   0  0  0  0  0  0  0  0  0  0  0  0
    1.2430   17.1040   -3.4540 C   0  0  0  0  0  0  0  0  0  0  0  0
    1.5050   11.8720   -3.4610 C   0  0  1  0  0  0  0  0  0  0  0  0
    2.9650   11.6250   -3.9480 C   0  0  0  0  0  0  0  0  0  0  0  0
    0.6620   10.6290   -3.9360 C   0  0  0  0  0  0  0  0  0  0  0  0
   -0.5920   10.2840   -3.1110 C   0  0  0  0  0  0  0  0  0  0  0  0
   -0.2690   10.2350   -1.6150 C   0  0  2  0  0  0  0  0  0  0  0  0
    0.7680    9.0830   -1.3870 C   0  0  0  0  0  0  0  0  0  0  0  0
   -2.0364    6.8308   -1.7981 H   0  0  0  0  0  0  0  0  0  0  0  0
   -2.9134    8.2449   -2.4747 H   0  0  0  0  0  0  0  0  0  0  0  0
   -1.1173    8.2179   -2.4747 H   0  0  0  0  0  0  0  0  0  0  0  0
   -1.3595    7.9895    0.1129 H   0  0  0  0  0  0  0  0  0  0  0  0
   -3.5366    7.7024    0.7000 H   0  0  0  0  0  0  0  0  0  0  0  0
   -3.4666    9.5295    0.7137 H   0  0  0  0  0  0  0  0  0  0  0  0
   -5.2589    9.4738   -0.6028 H   0  0  0  0  0  0  0  0  0  0  0  0
   -4.1207    8.9187   -1.9003 H   0  0  0  0  0  0  0  0  0  0  0  0
   -4.9289    7.0781   -0.0252 H   0  0  0  0  0  0  0  0  0  0  0  0
   -7.7124    9.0690   -1.5480 H   0  0  0  0  0  0  0  0  0  0  0  0
   -6.6067    8.9622   -2.9596 H   0  0  0  0  0  0  0  0  0  0  0  0
   -8.1540    8.0497   -2.9596 H   0  0  0  0  0  0  0  0  0  0  0  0
   -7.5565    5.9869   -0.2469 H   0  0  0  0  0  0  0  0  0  0  0  0
   -8.5036    6.2166   -1.7558 H   0  0  0  0  0  0  0  0  0  0  0  0
   -7.0593    5.1486   -1.7558 H   0  0  0  0  0  0  0  0  0  0  0  0
   -2.3554   10.5226   -1.0332 H   0  0  0  0  0  0  0  0  0  0  0  0
   -1.6985   11.1378    1.2081 H   0  0  0  0  0  0  0  0  0  0  0  0
   -0.6355    9.7232    1.3681 H   0  0  0  0  0  0  0  0  0  0  0  0
    0.2292   12.4061    0.8976 H   0  0  0  0  0  0  0  0  0  0  0  0
    1.2491   10.9869    0.6762 H   0  0  0  0  0  0  0  0  0  0  0  0
   -1.1618   13.1606   -0.3709 H   0  0  0  0  0  0  0  0  0  0  0  0
   -0.3713   13.6280   -1.9147 H   0  0  0  0  0  0  0  0  0  0  0  0
   -1.6931   12.4117   -1.9147 H   0  0  0  0  0  0  0  0  0  0  0  0
    2.2270   11.1811   -1.5310 H   0  0  0  0  0  0  0  0  0  0  0  0
    1.9804   13.4772   -0.3893 H   0  0  0  0  0  0  0  0  0  0  0  0
    3.3189   13.1600   -1.6125 H   0  0  0  0  0  0  0  0  0  0  0  0
    2.1023   15.4904   -1.7946 H   0  0  0  0  0  0  0  0  0  0  0  0
   -0.1651   13.0328   -4.0545 H   0  0  0  0  0  0  0  0  0  0  0  0
    2.4138   13.4198   -5.6975 H   0  0  0  0  0  0  0  0  0  0  0  0
    0.9723   12.4059   -6.1502 H   0  0  0  0  0  0  0  0  0  0  0  0
    1.0138   14.5662   -7.3565 H   0  0  0  0  0  0  0  0  0  0  0  0
   -0.4224   14.3895   -6.2744 H   0  0  0  0  0  0  0  0  0  0  0  0
    0.4432   16.6166   -6.0489 H   0  0  0  0  0  0  0  0  0  0  0  0
    2.6150   16.1100   -6.7220 H   0  0  0  0  0  0  0  0  0  0  0  0
   -1.0878   15.8504   -2.8292 H   0  0  0  0  0  0  0  0  0  0  0  0
   -1.2421   16.7537   -4.3741 H   0  0  0  0  0  0  0  0  0  0  0  0
   -1.2970   14.9583   -4.3741 H   0  0  0  0  0  0  0  0  0  0  0  0
    1.2100   17.0257   -2.3573 H   0  0  0  0  0  0  0  0  0  0  0  0
    2.2824   17.2579   -3.7795 H   0  0  0  0  0  0  0  0  0  0  0  0
    0.6270   17.9552   -3.7795 H   0  0  0  0  0  0  0  0  0  0  0  0
    3.6279   11.5129   -3.0774 H   0  0  0  0  0  0  0  0  0  0  0  0
    2.9989   10.7084   -4.5551 H   0  0  0  0  0  0  0  0  0  0  0  0
    3.2985   12.4795   -4.5551 H   0  0  0  0  0  0  0  0  0  0  0  0
    0.3378   10.8220   -4.9693 H   0  0  0  0  0  0  0  0  0  0  0  0
    1.3317    9.7646   -3.8168 H   0  0  0  0  0  0  0  0  0  0  0  0
   -1.3610   11.0504   -3.2880 H   0  0  0  0  0  0  0  0  0  0  0  0
   -0.9553    9.2938   -3.4235 H   0  0  0  0  0  0  0  0  0  0  0  0
    0.9097    8.9256   -0.3076 H   0  0  0  0  0  0  0  0  0  0  0  0
    0.3937    8.1564   -1.8467 H   0  0  0  0  0  0  0  0  0  0  0  0
    1.7287    9.3582   -1.8467 H   0  0  0  0  0  0  0  0  0  0  0  0
  1  2  1  0
  2  3  1  0
  3  4  1  0
  4  5  1  0
  5  6  1  0
  6  7  1  0
  7  8  1  0
  7  9  1  0
  2 10  1  0
 10 11  1  0
 11 12  1  0
 12 13  1  0
 13 14  1  1
 13 15  1  0
 15 16  1  0
 16 17  1  0
 17 18  2  0
 18 19  1  0
 19 20  1  0
 20 21  1  0
 21 22  1  0
 22 23  1  0
 22 24  1  0
 24 25  1  0
 24 26  1  0
 19 27  1  0
 27 28  1  6
 27 29  1  0
 29 30  1  0
 30 31  1  0
 31 32  1  6
  7  5  1  0
 31 10  1  0
 31 13  1  0
 27 15  1  0
 24 18  1  0
  1 33  1  0
  1 34  1  0
  1 35  1  0
  2 36  1  1
  3 37  1  0
  3 38  1  0
  4 39  1  0
  4 40  1  0
  5 41  1  1
  8 42  1  0
  8 43  1  0
  8 44  1  0
  9 45  1  0
  9 46  1  0
  9 47  1  0
 10 48  1  6
 11 49  1  0
 11 50  1  0
 12 51  1  0
 12 52  1  0
 14 53  1  0
 14 54  1  0
 14 55  1  0
 15 56  1  1
 16 57  1  0
 16 58  1  0
 17 59  1  0
 19 60  1  6
 20 61  1  0
 20 62  1  0
 21 63  1  0
 21 64  1  0
 22 65  1  6
 23 66  1  0
 25 67  1  0
 25 68  1  0
 25 69  1  0
 26 70  1  0
 26 71  1  0
 26 72  1  0
 28 73  1  0
 28 74  1  0
 28 75  1  0
 29 76  1  0
 29 77  1  0
 30 78  1  0
 30 79  1  0
 32 80  1  0
 32 81  1  0
 32 82  1  0
M  END
>  <meeko>  (10) 
{"is_sidechain": [false], "intermolecular_energy": 2.731, "internal_energy": -0.839}

$$$$
EPH_relaxed_0001_pdb2pqr_Repair_139_r2_0001_out
     RDKit          3D

 82 86  0  0  0  0  0  0  0  0999 V2000
   -3.7040    7.2360   -3.4380 C   0  0  0  0  0  0  0  0  0  0  0  0
   -3.7160    7.2950   -1.9080 C   0  0  2  0  0  0  0  0  0  0  0  0
   -5.1240    7.0520   -1.3280 C   0  0  0  0  0  0  0  0  0  0  0  0
   -6.2490    7.2180   -2.3530 C   0  0  0  0  0  0  0  0  0  0  0  0
   -7.5720    7.4530   -1.6910 C   0  0  2  0  0  0  0  0  0  0  0  0
   -8.1740    6.2820   -1.1230 O   0  0  0  0  0  0  0  0  0  0  0  0
   -8.8810    6.8920   -2.2140 C   0  0  0  0  0  0  0  0  0  0  0  0
   -8.9310    6.0520   -3.4520 C   0  0  0  0  0  0  0  0  0  0  0  0
  -10.1590    7.5580   -1.8080 C   0  0  0  0  0  0  0  0  0  0  0  0
   -3.1840    8.6430   -1.4360 C   0  0  1  0  0  0  0  0  0  0  0  0
   -3.7990    9.0880   -0.0820 C   0  0  0  0  0  0  0  0  0  0  0  0
   -2.6870    9.8470    0.6860 C   0  0  0  0  0  0  0  0  0  0  0  0
   -1.5880   10.1030   -0.3700 C   0  0  1  0  0  0  0  0  0  0  0  0
   -2.0740   11.3590   -1.1600 C   0  0  0  0  0  0  0  0  0  0  0  0
   -0.1350   10.2920    0.1760 C   0  0  2  0  0  0  0  0  0  0  0  0
    0.0630   11.5090    1.0980 C   0  0  0  0  0  0  0  0  0  0  0  0
    0.4580   12.7730    0.4090 C   0  0  0  0  0  0  0  0  0  0  0  0
    0.9230   12.8650   -0.8500 C   0  0  0  0  0  0  0  0  0  0  0  0
    1.1850   11.6060   -1.6880 C   0  0  1  0  0  0  0  0  0  0  0  0
    2.5700   11.7210   -2.3760 C   0  0  0  0  0  0  0  0  0  0  0  0
    2.7150   13.0030   -3.1900 C   0  0  0  0  0  0  0  0  0  0  0  0
    2.5060   14.2330   -2.3110 C   0  0  2  0  0  0  0  0  0  0  0  0
    3.5780   14.3130   -1.3660 O   0  0  0  0  0  0  0  0  0  0  0  0
    1.1460   14.2240   -1.5580 C   0  0  0  0  0  0  0  0  0  0  0  0
   -0.0090   14.4420   -2.5670 C   0  0  0  0  0  0  0  0  0  0  0  0
    1.1220   15.4470   -0.6010 C   0  0  0  0  0  0  0  0  0  0  0  0
    0.9900   10.2200   -0.9350 C   0  0  1  0  0  0  0  0  0  0  0  0
    2.3100    9.8200   -0.2070 C   0  0  0  0  0  0  0  0  0  0  0  0
    0.7100    9.0930   -1.9980 C   0  0  0  0  0  0  0  0  0  0  0  0
   -0.7590    8.8740   -2.4080 C   0  0  0  0  0  0  0  0  0  0  0  0
   -1.6610    8.7550   -1.1750 C   0  0  2  0  0  0  0  0  0  0  0  0
   -1.2090    7.4870   -0.3730 C   0  0  0  0  0  0  0  0  0  0  0  0
   -3.4946    6.2064   -3.7636 H   0  0  0  0  0  0  0  0  0  0  0  0
   -4.6845    7.5506   -3.8248 H   0  0  0  0  0  0  0  0  0  0  0  0
   -2.9243    7.9086   -3.8248 H   0  0  0  0  0  0  0  0  0  0  0  0
   -3.0643    6.4885   -1.5408 H   0  0  0  0  0  0  0  0  0  0  0  0
   -5.1640    6.0267   -0.9314 H   0  0  0  0  0  0  0  0  0  0  0  0
   -5.2855    7.8104   -0.5478 H   0  0  0  0  0  0  0  0  0  0  0  0
   -6.0172    8.0763   -3.0008 H   0  0  0  0  0  0  0  0  0  0  0  0
   -6.3189    6.2894   -2.9385 H   0  0  0  0  0  0  0  0  0  0  0  0
   -7.2700    8.4687   -1.3957 H   0  0  0  0  0  0  0  0  0  0  0  0
   -8.9942    4.9900   -3.1722 H   0  0  0  0  0  0  0  0  0  0  0  0
   -9.8143    6.3277   -4.0467 H   0  0  0  0  0  0  0  0  0  0  0  0
   -8.0212    6.2210   -4.0467 H   0  0  0  0  0  0  0  0  0  0  0  0
  -10.2226    7.5911   -0.7103 H   0  0  0  0  0  0  0  0  0  0  0  0
  -10.1816    8.5826   -2.2077 H   0  0  0  0  0  0  0  0  0  0  0  0
  -11.0117    6.9896   -2.2077 H   0  0  0  0  0  0  0  0  0  0  0  0
   -3.4649    9.2637   -2.2996 H   0  0  0  0  0  0  0  0  0  0  0  0
   -4.6592    9.7510   -0.2563 H   0  0  0  0  0  0  0  0  0  0  0  0
   -4.1557    8.2212    0.4938 H   0  0  0  0  0  0  0  0  0  0  0  0
   -3.0705   10.7975    1.0854 H   0  0  0  0  0  0  0  0  0  0  0  0
   -2.3118    9.2762    1.5482 H   0  0  0  0  0  0  0  0  0  0  0  0
   -2.3775   12.1433   -0.4510 H   0  0  0  0  0  0  0  0  0  0  0  0
   -1.2558   11.7334   -1.7928 H   0  0  0  0  0  0  0  0  0  0  0  0
   -2.9311   11.0852   -1.7928 H   0  0  0  0  0  0  0  0  0  0  0  0
   -0.0076    9.4073    0.8171 H   0  0  0  0  0  0  0  0  0  0  0  0
   -0.8837   11.6920    1.6275 H   0  0  0  0  0  0  0  0  0  0  0  0
    0.8986   11.2523    1.7658 H   0  0  0  0  0  0  0  0  0  0  0  0
    0.3606   13.7086    0.9792 H   0  0  0  0  0  0  0  0  0  0  0  0
    0.3920   11.5765   -2.4497 H   0  0  0  0  0  0  0  0  0  0  0  0
    3.3508   11.7051   -1.6013 H   0  0  0  0  0  0  0  0  0  0  0  0
    2.6696   10.8727   -3.0692 H   0  0  0  0  0  0  0  0  0  0  0  0
    3.7238   13.0399   -3.6271 H   0  0  0  0  0  0  0  0  0  0  0  0
    1.9524   13.0040   -3.9828 H   0  0  0  0  0  0  0  0  0  0  0  0
    2.4931   15.1119   -2.9723 H   0  0  0  0  0  0  0  0  0  0  0  0
    3.1860   14.3130   -0.4760 H   0  0  0  0  0  0  0  0  0  0  0  0
   -0.9462   14.6189   -2.0189 H   0  0  0  0  0  0  0  0  0  0  0  0
    0.2161   15.3135   -3.1993 H   0  0  0  0  0  0  0  0  0  0  0  0
   -0.1171   13.5484   -3.1993 H   0  0  0  0  0  0  0  0  0  0  0  0
    1.1289   15.0968    0.4417 H   0  0  0  0  0  0  0  0  0  0  0  0
    2.0080   16.0728   -0.7835 H   0  0  0  0  0  0  0  0  0  0  0  0
    0.2121   16.0376   -0.7835 H   0  0  0  0  0  0  0  0  0  0  0  0
    2.1570    9.8664    0.8813 H   0  0  0  0  0  0  0  0  0  0  0  0
    2.5915    8.7962   -0.4944 H   0  0  0  0  0  0  0  0  0  0  0  0
    3.1125   10.5153   -0.4944 H   0  0  0  0  0  0  0  0  0  0  0  0
    1.2752    9.3455   -2.9073 H   0  0  0  0  0  0  0  0  0  0  0  0
    1.0156    8.1554   -1.5106 H   0  0  0  0  0  0  0  0  0  0  0  0
   -1.0934    9.7265   -3.0174 H   0  0  0  0  0  0  0  0  0  0  0  0
   -0.8267    7.9390   -2.9835 H   0  0  0  0  0  0  0  0  0  0  0  0
   -1.2815    7.6903    0.7056 H   0  0  0  0  0  0  0  0  0  0  0  0
   -1.8601    6.6387   -0.6308 H   0  0  0  0  0  0  0  0  0  0  0  0
   -0.1681    7.2419   -0.6308 H   0  0  0  0  0  0  0  0  0  0  0  0
  1  2  1  0
  2  3  1  0
  3  4  1  0
  4  5  1  0
  5  6  1  0
  6  7  1  0
  7  8  1  0
  7  9  1  0
  2 10  1  0
 10 11  1  0
 11 12  1  0
 12 13  1  0
 13 14  1  6
 13 15  1  0
 15 16  1  0
 16 17  1  0
 17 18  2  0
 18 19  1  0
 19 20  1  0
 20 21  1  0
 21 22  1  0
 22 23  1  0
 22 24  1  0
 24 25  1  0
 24 26  1  0
 19 27  1  0
 27 28  1  1
 27 29  1  0
 29 30  1  0
 30 31  1  0
 31 32  1  1
  7  5  1  0
 31 10  1  0
 31 13  1  0
 27 15  1  0
 24 18  1  0
  1 33  1  0
  1 34  1  0
  1 35  1  0
  2 36  1  1
  3 37  1  0
  3 38  1  0
  4 39  1  0
  4 40  1  0
  5 41  1  1
  8 42  1  0
  8 43  1  0
  8 44  1  0
  9 45  1  0
  9 46  1  0
  9 47  1  0
 10 48  1  6
 11 49  1  0
 11 50  1  0
 12 51  1  0
 12 52  1  0
 14 53  1  0
 14 54  1  0
 14 55  1  0
 15 56  1  1
 16 57  1  0
 16 58  1  0
 17 59  1  0
 19 60  1  6
 20 61  1  0
 20 62  1  0
 21 63  1  0
 21 64  1  0
 22 65  1  6
 23 66  1  0
 25 67  1  0
 25 68  1  0
 25 69  1  0
 26 70  1  0
 26 71  1  0
 26 72  1  0
 28 73  1  0
 28 74  1  0
 28 75  1  0
 29 76  1  0
 29 77  1  0
 30 78  1  0
 30 79  1  0
 32 80  1  0
 32 81  1  0
 32 82  1  0
M  END
>  <meeko>  (11) 
{"is_sidechain": [false], "intermolecular_energy": 2.731, "internal_energy": -0.839}

$$$$
EPH_relaxed_0001_pdb2pqr_Repair_139_r2_0001_out
     RDKit          3D

 82 86  0  0  0  0  0  0  0  0999 V2000
    3.4060   18.6010   -2.2730 C   0  0  0  0  0  0  0  0  0  0  0  0
    2.2820   17.6600   -2.7170 C   0  0  2  0  0  0  0  0  0  0  0  0
    0.8860   18.2690   -2.4780 C   0  0  0  0  0  0  0  0  0  0  0  0
    0.9230   19.6870   -1.9020 C   0  0  0  0  0  0  0  0  0  0  0  0
    1.2600   19.6830   -0.4420 C   0  0  2  0  0  0  0  0  0  0  0  0
    0.8710   18.4950    0.2590 O   0  0  0  0  0  0  0  0  0  0  0  0
    0.2150   19.7090    0.6580 C   0  0  0  0  0  0  0  0  0  0  0  0
   -1.2480   19.7420    0.3430 C   0  0  0  0  0  0  0  0  0  0  0  0
    0.6170   20.1940    2.0160 C   0  0  0  0  0  0  0  0  0  0  0  0
    2.4010   16.3270   -1.9870 C   0  0  1  0  0  0  0  0  0  0  0  0
    2.9180   16.4870   -0.5320 C   0  0  0  0  0  0  0  0  0  0  0  0
    2.2040   15.4050    0.3170 C   0  0  0  0  0  0  0  0  0  0  0  0
    1.5620   14.4550   -0.7210 C   0  0  1  0  0  0  0  0  0  0  0  0
    2.7220   13.5130   -1.1740 C   0  0  0  0  0  0  0  0  0  0  0  0
    0.3160   13.6430   -0.2370 C   0  0  2  0  0  0  0  0  0  0  0  0
    0.5820   12.6670    0.9210 C   0  0  0  0  0  0  0  0  0  0  0  0
    0.9720   11.2850    0.5130 C   0  0  0  0  0  0  0  0  0  0  0  0
    0.8300   10.7630   -0.7200 C   0  0  0  0  0  0  0  0  0  0  0  0
    0.1340   11.5560   -1.8350 C   0  0  1  0  0  0  0  0  0  0  0  0
   -0.8830   10.6400   -2.5640 C   0  0  0  0  0  0  0  0  0  0  0  0
   -0.2480    9.3500   -3.0740 C   0  0  0  0  0  0  0  0  0  0  0  0
    0.3820    8.5620   -1.9290 C   0  0  2  0  0  0  0  0  0  0  0  0
   -0.6580    8.1020   -1.0600 O   0  0  0  0  0  0  0  0  0  0  0  0
    1.4180    9.3860   -1.1150 C   0  0  0  0  0  0  0  0  0  0  0  0
    2.6830    9.6260   -1.9740 C   0  0  0  0  0  0  0  0  0  0  0  0
    1.8710    8.5230    0.0940 C   0  0  0  0  0  0  0  0  0  0  0  0
   -0.4980   12.9490   -1.4040 C   0  0  1  0  0  0  0  0  0  0  0  0
   -1.9460   12.7330   -0.8690 C   0  0  0  0  0  0  0  0  0  0  0  0
   -0.6270   13.8700   -2.6740 C   0  0  0  0  0  0  0  0  0  0  0  0
    0.5960   14.7370   -3.0310 C   0  0  0  0  0  0  0  0  0  0  0  0
    1.1050   15.4990   -1.8030 C   0  0  2  0  0  0  0  0  0  0  0  0
   -0.0330   16.4700   -1.3380 C   0  0  0  0  0  0  0  0  0  0  0  0
    3.4446   18.6333   -1.1742 H   0  0  0  0  0  0  0  0  0  0  0  0
    4.3669   18.2341   -2.6630 H   0  0  0  0  0  0  0  0  0  0  0  0
    3.2138   19.6114   -2.6630 H   0  0  0  0  0  0  0  0  0  0  0  0
    2.3917   17.5018   -3.8000 H   0  0  0  0  0  0  0  0  0  0  0  0
    0.3509   18.2983   -3.4386 H   0  0  0  0  0  0  0  0  0  0  0  0
    0.3812   17.6337   -1.7353 H   0  0  0  0  0  0  0  0  0  0  0  0
    1.6827   20.2714   -2.4417 H   0  0  0  0  0  0  0  0  0  0  0  0
   -0.0756   20.1324   -2.0224 H   0  0  0  0  0  0  0  0  0  0  0  0
    2.1560   20.2948   -0.6232 H   0  0  0  0  0  0  0  0  0  0  0  0
   -1.8245   19.7550    1.2797 H   0  0  0  0  0  0  0  0  0  0  0  0
   -1.4770   20.6455   -0.2411 H   0  0  0  0  0  0  0  0  0  0  0  0
   -1.5175   18.8497   -0.2411 H   0  0  0  0  0  0  0  0  0  0  0  0
    0.1151   19.5885    2.7850 H   0  0  0  0  0  0  0  0  0  0  0  0
    1.7071   20.1018    2.1304 H   0  0  0  0  0  0  0  0  0  0  0  0
    0.3242   21.2481    2.1304 H   0  0  0  0  0  0  0  0  0  0  0  0
    3.0880   15.8040   -2.6686 H   0  0  0  0  0  0  0  0  0  0  0  0
    4.0072   16.3373   -0.4983 H   0  0  0  0  0  0  0  0  0  0  0  0
    2.7067   17.4952   -0.1461 H   0  0  0  0  0  0  0  0  0  0  0  0
    2.9276   14.8632    0.9438 H   0  0  0  0  0  0  0  0  0  0  0  0
    1.4605   15.8367    1.0031 H   0  0  0  0  0  0  0  0  0  0  0  0
    3.2280   13.1021   -0.2879 H   0  0  0  0  0  0  0  0  0  0  0  0
    2.3114   12.6894   -1.7766 H   0  0  0  0  0  0  0  0  0  0  0  0
    3.4438   14.0838   -1.7766 H   0  0  0  0  0  0  0  0  0  0  0  0
   -0.3306   14.4293    0.1797 H   0  0  0  0  0  0  0  0  0  0  0  0
    1.3944   13.0820    1.5356 H   0  0  0  0  0  0  0  0  0  0  0  0
   -0.3715   12.5675    1.4604 H   0  0  0  0  0  0  0  0  0  0  0  0
    1.4130   10.6379    1.2855 H   0  0  0  0  0  0  0  0  0  0  0  0
    0.9278   11.8612   -2.5327 H   0  0  0  0  0  0  0  0  0  0  0  0
   -1.6908   10.3823   -1.8632 H   0  0  0  0  0  0  0  0  0  0  0  0
   -1.2640   11.1919   -3.4359 H   0  0  0  0  0  0  0  0  0  0  0  0
   -1.0223    8.7325   -3.5527 H   0  0  0  0  0  0  0  0  0  0  0  0
    0.5396    9.6085   -3.7971 H   0  0  0  0  0  0  0  0  0  0  0  0
    0.9319    7.7185   -2.3718 H   0  0  0  0  0  0  0  0  0  0  0  0
   -0.8740    7.1900   -1.3160 H   0  0  0  0  0  0  0  0  0  0  0  0
    3.5481    9.7901   -1.3148 H   0  0  0  0  0  0  0  0  0  0  0  0
    2.8673    8.7468   -2.6089 H   0  0  0  0  0  0  0  0  0  0  0  0
    2.5325   10.5116   -2.6089 H   0  0  0  0  0  0  0  0  0  0  0  0
    1.6027    9.0341    1.0304 H   0  0  0  0  0  0  0  0  0  0  0  0
    1.3703    7.5444    0.0540 H   0  0  0  0  0  0  0  0  0  0  0  0
    2.9608    8.3792    0.0540 H   0  0  0  0  0  0  0  0  0  0  0  0
   -1.9346   12.7347    0.2309 H   0  0  0  0  0  0  0  0  0  0  0  0
   -2.5952   13.5442   -1.2302 H   0  0  0  0  0  0  0  0  0  0  0  0
   -2.3301   11.7676   -1.2302 H   0  0  0  0  0  0  0  0  0  0  0  0
   -0.8373   13.2202   -3.5363 H   0  0  0  0  0  0  0  0  0  0  0  0
   -1.4259   14.5858   -2.4303 H   0  0  0  0  0  0  0  0  0  0  0  0
    1.3990   14.0878   -3.4101 H   0  0  0  0  0  0  0  0  0  0  0  0
    0.2969   15.4669   -3.7977 H   0  0  0  0  0  0  0  0  0  0  0  0
   -0.0652   16.4975   -0.2388 H   0  0  0  0  0  0  0  0  0  0  0  0
    0.1665   17.4804   -1.7243 H   0  0  0  0  0  0  0  0  0  0  0  0
   -0.9994   16.1139   -1.7243 H   0  0  0  0  0  0  0  0  0  0  0  0
  1  2  1  0
  2  3  1  0
  3  4  1  0
  4  5  1  0
  5  6  1  0
  6  7  1  0
  7  8  1  0
  7  9  1  0
  2 10  1  0
 10 11  1  0
 11 12  1  0
 12 13  1  0
 13 14  1  6
 13 15  1  0
 15 16  1  0
 16 17  1  0
 17 18  2  0
 18 19  1  0
 19 20  1  0
 20 21  1  0
 21 22  1  0
 22 23  1  0
 22 24  1  0
 24 25  1  0
 24 26  1  0
 19 27  1  0
 27 28  1  1
 27 29  1  0
 29 30  1  0
 30 31  1  0
 31 32  1  1
  7  5  1  0
 31 10  1  0
 31 13  1  0
 27 15  1  0
 24 18  1  0
  1 33  1  0
  1 34  1  0
  1 35  1  0
  2 36  1  6
  3 37  1  0
  3 38  1  0
  4 39  1  0
  4 40  1  0
  5 41  1  6
  8 42  1  0
  8 43  1  0
  8 44  1  0
  9 45  1  0
  9 46  1  0
  9 47  1  0
 10 48  1  6
 11 49  1  0
 11 50  1  0
 12 51  1  0
 12 52  1  0
 14 53  1  0
 14 54  1  0
 14 55  1  0
 15 56  1  1
 16 57  1  0
 16 58  1  0
 17 59  1  0
 19 60  1  6
 20 61  1  0
 20 62  1  0
 21 63  1  0
 21 64  1  0
 22 65  1  6
 23 66  1  0
 25 67  1  0
 25 68  1  0
 25 69  1  0
 26 70  1  0
 26 71  1  0
 26 72  1  0
 28 73  1  0
 28 74  1  0
 28 75  1  0
 29 76  1  0
 29 77  1  0
 30 78  1  0
 30 79  1  0
 32 80  1  0
 32 81  1  0
 32 82  1  0
M  END
>  <meeko>  (12) 
{"is_sidechain": [false], "intermolecular_energy": 2.731, "internal_energy": -0.839}

$$$$
EPH_relaxed_0001_pdb2pqr_Repair_139_r2_0001_out
     RDKit          3D

 82 86  0  0  0  0  0  0  0  0999 V2000
    4.1650   10.8570   -4.0820 C   0  0  0  0  0  0  0  0  0  0  0  0
    2.9910   11.1360   -5.0240 C   0  0  2  0  0  0  0  0  0  0  0  0
    3.4620   11.5500   -6.4330 C   0  0  0  0  0  0  0  0  0  0  0  0
    3.0880   12.9860   -6.8090 C   0  0  0  0  0  0  0  0  0  0  0  0
    3.4620   13.3030   -8.2260 C   0  0  2  0  0  0  0  0  0  0  0  0
    4.3440   14.4230   -8.3760 O   0  0  0  0  0  0  0  0  0  0  0  0
    3.0320   14.5690   -8.9420 C   0  0  0  0  0  0  0  0  0  0  0  0
    2.1880   15.6010   -8.2620 C   0  0  0  0  0  0  0  0  0  0  0  0
    3.0180   14.5760  -10.4380 C   0  0  0  0  0  0  0  0  0  0  0  0
    2.0970   12.2210   -4.4340 C   0  0  1  0  0  0  0  0  0  0  0  0
    0.5950   11.8310   -4.4490 C   0  0  0  0  0  0  0  0  0  0  0  0
   -0.0380   12.4380   -3.1710 C   0  0  0  0  0  0  0  0  0  0  0  0
    1.0280   13.4250   -2.6390 C   0  0  1  0  0  0  0  0  0  0  0  0
    0.8420   14.7160   -3.4960 C   0  0  0  0  0  0  0  0  0  0  0  0
    0.9790   13.7360   -1.1080 C   0  0  2  0  0  0  0  0  0  0  0  0
   -0.3130   14.4180   -0.6220 C   0  0  0  0  0  0  0  0  0  0  0  0
   -0.2910   15.9100   -0.6390 C   0  0  0  0  0  0  0  0  0  0  0  0
    0.8100   16.6760   -0.7560 C   0  0  0  0  0  0  0  0  0  0  0  0
    2.2080   16.0440   -0.7880 C   0  0  1  0  0  0  0  0  0  0  0  0
    3.1500   16.8240    0.1670 C   0  0  0  0  0  0  0  0  0  0  0  0
    3.1780   18.3200   -0.1310 C   0  0  0  0  0  0  0  0  0  0  0  0
    1.7790   18.9220   -0.0320 C   0  0  2  0  0  0  0  0  0  0  0  0
    1.3450   18.8600    1.3300 O   0  0  0  0  0  0  0  0  0  0  0  0
    0.7400   18.2110   -0.9440 C   0  0  0  0  0  0  0  0  0  0  0  0
    1.0430   18.5330   -2.4280 C   0  0  0  0  0  0  0  0  0  0  0  0
   -0.6560   18.8220   -0.6440 C   0  0  0  0  0  0  0  0  0  0  0  0
    2.2650   14.4740   -0.5540 C   0  0  1  0  0  0  0  0  0  0  0  0
    2.3320   14.1650    0.9730 C   0  0  0  0  0  0  0  0  0  0  0  0
    3.5940   13.9080   -1.1800 C   0  0  0  0  0  0  0  0  0  0  0  0
    3.5460   13.5070   -2.6670 C   0  0  0  0  0  0  0  0  0  0  0  0
    2.3370   12.6120   -2.9540 C   0  0  2  0  0  0  0  0  0  0  0  0
    2.5070   11.2950   -2.1230 C   0  0  0  0  0  0  0  0  0  0  0  0
    3.8253   10.9377   -3.0389 H   0  0  0  0  0  0  0  0  0  0  0  0
    4.5490    9.8426   -4.2651 H   0  0  0  0  0  0  0  0  0  0  0  0
    4.9643   11.5902   -4.2651 H   0  0  0  0  0  0  0  0  0  0  0  0
    2.4214   10.2007   -5.1280 H   0  0  0  0  0  0  0  0  0  0  0  0
    4.5570   11.4537   -6.4755 H   0  0  0  0  0  0  0  0  0  0  0  0
    2.9546   10.8873   -7.1495 H   0  0  0  0  0  0  0  0  0  0  0  0
    2.0021   13.1146   -6.6895 H   0  0  0  0  0  0  0  0  0  0  0  0
    3.6407   13.6690   -6.1472 H   0  0  0  0  0  0  0  0  0  0  0  0
    3.3997   12.2407   -8.5046 H   0  0  0  0  0  0  0  0  0  0  0  0
    2.2795   15.4891   -7.1715 H   0  0  0  0  0  0  0  0  0  0  0  0
    2.5273   16.6048   -8.5573 H   0  0  0  0  0  0  0  0  0  0  0  0
    1.1368   15.4676   -8.5573 H   0  0  0  0  0  0  0  0  0  0  0  0
    2.0870   15.0415  -10.7938 H   0  0  0  0  0  0  0  0  0  0  0  0
    3.8800   15.1492  -10.8101 H   0  0  0  0  0  0  0  0  0  0  0  0
    3.0767   13.5425  -10.8101 H   0  0  0  0  0  0  0  0  0  0  0  0
    2.3645   13.0599   -5.0933 H   0  0  0  0  0  0  0  0  0  0  0  0
    0.1062   12.2410   -5.3451 H   0  0  0  0  0  0  0  0  0  0  0  0
    0.4711   10.7382   -4.4700 H   0  0  0  0  0  0  0  0  0  0  0  0
   -0.9710   12.9677   -3.4137 H   0  0  0  0  0  0  0  0  0  0  0  0
   -0.3013   11.6689   -2.4300 H   0  0  0  0  0  0  0  0  0  0  0  0
    0.7171   15.5830   -2.8306 H   0  0  0  0  0  0  0  0  0  0  0  0
    1.7279   14.8656   -4.1307 H   0  0  0  0  0  0  0  0  0  0  0  0
   -0.0501   14.6094   -4.1307 H   0  0  0  0  0  0  0  0  0  0  0  0
    0.9724   12.7299   -0.6634 H   0  0  0  0  0  0  0  0  0  0  0  0
   -1.1380   14.0828   -1.2678 H   0  0  0  0  0  0  0  0  0  0  0  0
   -0.4328   14.1273    0.4321 H   0  0  0  0  0  0  0  0  0  0  0  0
   -1.2570   16.4283   -0.5482 H   0  0  0  0  0  0  0  0  0  0  0  0
    2.5626   16.1418   -1.8247 H   0  0  0  0  0  0  0  0  0  0  0  0
    2.8043   16.6769    1.2009 H   0  0  0  0  0  0  0  0  0  0  0  0
    4.1688   16.4357    0.0213 H   0  0  0  0  0  0  0  0  0  0  0  0
    3.8370   18.8193    0.5945 H   0  0  0  0  0  0  0  0  0  0  0  0
    3.5520   18.4672   -1.1550 H   0  0  0  0  0  0  0  0  0  0  0  0
    1.8430   19.9631   -0.3814 H   0  0  0  0  0  0  0  0  0  0  0  0
    0.7280   18.1130    1.4090 H   0  0  0  0  0  0  0  0  0  0  0  0
    1.7959   19.3331   -2.4833 H   0  0  0  0  0  0  0  0  0  0  0  0
    1.4283   17.6318   -2.9275 H   0  0  0  0  0  0  0  0  0  0  0  0
    0.1201   18.8628   -2.9275 H   0  0  0  0  0  0  0  0  0  0  0  0
   -0.8021   18.8859    0.4444 H   0  0  0  0  0  0  0  0  0  0  0  0
   -0.7172   19.8292   -1.0820 H   0  0  0  0  0  0  0  0  0  0  0  0
   -1.4375   18.1836   -1.0820 H   0  0  0  0  0  0  0  0  0  0  0  0
    2.1326   15.0848    1.5423 H   0  0  0  0  0  0  0  0  0  0  0  0
    1.5776   13.4058    1.2269 H   0  0  0  0  0  0  0  0  0  0  0  0
    3.3331   13.7864    1.2269 H   0  0  0  0  0  0  0  0  0  0  0  0
    4.3695   14.6801   -1.0684 H   0  0  0  0  0  0  0  0  0  0  0  0
    3.7928   12.9728   -0.6360 H   0  0  0  0  0  0  0  0  0  0  0  0
    3.4754   14.4158   -3.2828 H   0  0  0  0  0  0  0  0  0  0  0  0
    4.4619   12.9481   -2.9095 H   0  0  0  0  0  0  0  0  0  0  0  0
    2.4764   11.5324   -1.0494 H   0  0  0  0  0  0  0  0  0  0  0  0
    1.6913   10.5989   -2.3681 H   0  0  0  0  0  0  0  0  0  0  0  0
    3.4728   10.8289   -2.3681 H   0  0  0  0  0  0  0  0  0  0  0  0
  1  2  1  0
  2  3  1  0
  3  4  1  0
  4  5  1  0
  5  6  1  0
  6  7  1  0
  7  8  1  0
  7  9  1  0
  2 10  1  0
 10 11  1  0
 11 12  1  0
 12 13  1  0
 13 14  1  6
 13 15  1  0
 15 16  1  0
 16 17  1  0
 17 18  2  0
 18 19  1  0
 19 20  1  0
 20 21  1  0
 21 22  1  0
 22 23  1  0
 22 24  1  0
 24 25  1  0
 24 26  1  0
 19 27  1  0
 27 28  1  1
 27 29  1  0
 29 30  1  0
 30 31  1  0
 31 32  1  1
  7  5  1  0
 31 10  1  0
 31 13  1  0
 27 15  1  0
 24 18  1  0
  1 33  1  0
  1 34  1  0
  1 35  1  0
  2 36  1  6
  3 37  1  0
  3 38  1  0
  4 39  1  0
  4 40  1  0
  5 41  1  6
  8 42  1  0
  8 43  1  0
  8 44  1  0
  9 45  1  0
  9 46  1  0
  9 47  1  0
 10 48  1  6
 11 49  1  0
 11 50  1  0
 12 51  1  0
 12 52  1  0
 14 53  1  0
 14 54  1  0
 14 55  1  0
 15 56  1  1
 16 57  1  0
 16 58  1  0
 17 59  1  0
 19 60  1  6
 20 61  1  0
 20 62  1  0
 21 63  1  0
 21 64  1  0
 22 65  1  6
 23 66  1  0
 25 67  1  0
 25 68  1  0
 25 69  1  0
 26 70  1  0
 26 71  1  0
 26 72  1  0
 28 73  1  0
 28 74  1  0
 28 75  1  0
 29 76  1  0
 29 77  1  0
 30 78  1  0
 30 79  1  0
 32 80  1  0
 32 81  1  0
 32 82  1  0
M  END
>  <meeko>  (13) 
{"is_sidechain": [false], "intermolecular_energy": 2.731, "internal_energy": -0.839}

$$$$
EPH_relaxed_0001_pdb2pqr_Repair_139_r2_0001_out
     RDKit          3D

 82 86  0  0  0  0  0  0  0  0999 V2000
    0.0800   18.3130   -2.0830 C   0  0  0  0  0  0  0  0  0  0  0  0
    1.1000   17.6830   -1.1300 C   0  0  2  0  0  0  0  0  0  0  0  0
    2.4250   18.4710   -1.0940 C   0  0  0  0  0  0  0  0  0  0  0  0
    2.6850   19.1780    0.2380 C   0  0  0  0  0  0  0  0  0  0  0  0
    4.0430   18.8520    0.7830 C   0  0  2  0  0  0  0  0  0  0  0  0
    4.0350   18.0080    1.9420 O   0  0  0  0  0  0  0  0  0  0  0  0
    4.5420   19.3390    2.1310 C   0  0  0  0  0  0  0  0  0  0  0  0
    3.6910   20.1940    3.0160 C   0  0  0  0  0  0  0  0  0  0  0  0
    6.0190   19.3930    2.3690 C   0  0  0  0  0  0  0  0  0  0  0  0
    1.3640   16.2370   -1.5320 C   0  0  1  0  0  0  0  0  0  0  0  0
    2.8150   16.0120   -2.0330 C   0  0  0  0  0  0  0  0  0  0  0  0
    3.2320   14.5920   -1.5710 C   0  0  0  0  0  0  0  0  0  0  0  0
    1.9120   13.9260   -1.1170 C   0  0  1  0  0  0  0  0  0  0  0  0
    1.2360   13.4350   -2.4350 C   0  0  0  0  0  0  0  0  0  0  0  0
    2.0450   12.7710   -0.0720 C   0  0  2  0  0  0  0  0  0  0  0  0
    2.8360   11.5420   -0.5540 C   0  0  0  0  0  0  0  0  0  0  0  0
    2.0220   10.4770   -1.2100 C   0  0  0  0  0  0  0  0  0  0  0  0
    0.6810   10.3700   -1.1530 C   0  0  0  0  0  0  0  0  0  0  0  0
   -0.1490   11.3290   -0.2890 C   0  0  1  0  0  0  0  0  0  0  0  0
   -1.1850   10.5190    0.5340 C   0  0  0  0  0  0  0  0  0  0  0  0
   -2.0540    9.6200   -0.3410 C   0  0  0  0  0  0  0  0  0  0  0  0
   -1.1960    8.6430   -1.1400 C   0  0  2  0  0  0  0  0  0  0  0  0
   -0.5740    7.7270   -0.2330 O   0  0  0  0  0  0  0  0  0  0  0  0
   -0.1090    9.3440   -2.0020 C   0  0  0  0  0  0  0  0  0  0  0  0
   -0.7810   10.0990   -3.1750 C   0  0  0  0  0  0  0  0  0  0  0  0
    0.7750    8.2410   -2.6450 C   0  0  0  0  0  0  0  0  0  0  0  0
    0.6790   12.3490    0.6050 C   0  0  1  0  0  0  0  0  0  0  0  0
    1.0430   11.6860    1.9690 C   0  0  0  0  0  0  0  0  0  0  0  0
   -0.2300   13.5900    0.9440 C   0  0  0  0  0  0  0  0  0  0  0  0
   -0.2260   14.7500   -0.0700 C   0  0  0  0  0  0  0  0  0  0  0  0
    1.2060   15.1540   -0.4360 C   0  0  2  0  0  0  0  0  0  0  0  0
    1.9040   15.6730    0.8670 C   0  0  0  0  0  0  0  0  0  0  0  0
   -0.7133   18.8030   -1.4993 H   0  0  0  0  0  0  0  0  0  0  0  0
    0.5823   19.0584   -2.7171 H   0  0  0  0  0  0  0  0  0  0  0  0
   -0.3616   17.5301   -2.7171 H   0  0  0  0  0  0  0  0  0  0  0  0
    0.6701   17.7141   -0.1180 H   0  0  0  0  0  0  0  0  0  0  0  0
    3.2513   17.7696   -1.2818 H   0  0  0  0  0  0  0  0  0  0  0  0
    2.3546   19.2531   -1.8643 H   0  0  0  0  0  0  0  0  0  0  0  0
    2.6140   20.2649    0.0845 H   0  0  0  0  0  0  0  0  0  0  0  0
    1.9328   18.8322    0.9623 H   0  0  0  0  0  0  0  0  0  0  0  0
    4.4833   18.8900   -0.2243 H   0  0  0  0  0  0  0  0  0  0  0  0
    3.9152   19.9687    4.0691 H   0  0  0  0  0  0  0  0  0  0  0  0
    3.9026   21.2545    2.8148 H   0  0  0  0  0  0  0  0  0  0  0  0
    2.6295   19.9873    2.8148 H   0  0  0  0  0  0  0  0  0  0  0  0
    6.2160   19.4002    3.4512 H   0  0  0  0  0  0  0  0  0  0  0  0
    6.4960   18.5117    1.9153 H   0  0  0  0  0  0  0  0  0  0  0  0
    6.4303   20.3068    1.9153 H   0  0  0  0  0  0  0  0  0  0  0  0
    0.5843   16.1134   -2.2981 H   0  0  0  0  0  0  0  0  0  0  0  0
    2.8517   16.0794   -3.1303 H   0  0  0  0  0  0  0  0  0  0  0  0
    3.4958   16.7752   -1.6279 H   0  0  0  0  0  0  0  0  0  0  0  0
    3.6845   14.0306   -2.4017 H   0  0  0  0  0  0  0  0  0  0  0  0
    3.9835   14.6185   -0.7682 H   0  0  0  0  0  0  0  0  0  0  0  0
    0.3685   12.8049   -2.1894 H   0  0  0  0  0  0  0  0  0  0  0  0
    0.9037   14.3037   -3.0223 H   0  0  0  0  0  0  0  0  0  0  0  0
    1.9593   12.8503   -3.0223 H   0  0  0  0  0  0  0  0  0  0  0  0
    2.6611   13.2339    0.7129 H   0  0  0  0  0  0  0  0  0  0  0  0
    3.5913   11.8857   -1.2761 H   0  0  0  0  0  0  0  0  0  0  0  0
    3.2659   11.0836    0.3488 H   0  0  0  0  0  0  0  0  0  0  0  0
    2.5635    9.7147   -1.7893 H   0  0  0  0  0  0  0  0  0  0  0  0
   -0.6703   11.9972   -0.9902 H   0  0  0  0  0  0  0  0  0  0  0  0
   -0.6462    9.8911    1.2589 H   0  0  0  0  0  0  0  0  0  0  0  0
   -1.8486   11.2385    1.0359 H   0  0  0  0  0  0  0  0  0  0  0  0
   -2.7442    9.0520    0.3001 H   0  0  0  0  0  0  0  0  0  0  0  0
   -2.6152   10.2517   -1.0452 H   0  0  0  0  0  0  0  0  0  0  0  0
   -1.8612    8.1180   -1.8413 H   0  0  0  0  0  0  0  0  0  0  0  0
   -1.2000    7.0000   -0.0750 H   0  0  0  0  0  0  0  0  0  0  0  0
   -1.4625   10.8646   -2.7758 H   0  0  0  0  0  0  0  0  0  0  0  0
   -0.0081   10.5815   -3.7913 H   0  0  0  0  0  0  0  0  0  0  0  0
   -1.3498    9.3872   -3.7913 H   0  0  0  0  0  0  0  0  0  0  0  0
    1.2523    7.6455   -1.8528 H   0  0  0  0  0  0  0  0  0  0  0  0
    0.1486    7.5864   -3.2688 H   0  0  0  0  0  0  0  0  0  0  0  0
    1.5503    8.7098   -3.2688 H   0  0  0  0  0  0  0  0  0  0  0  0
    0.6921   12.3252    2.7926 H   0  0  0  0  0  0  0  0  0  0  0  0
    0.5595   10.7004    2.0382 H   0  0  0  0  0  0  0  0  0  0  0  0
    2.1341   11.5649    2.0382 H   0  0  0  0  0  0  0  0  0  0  0  0
   -1.2654   13.2297    1.0338 H   0  0  0  0  0  0  0  0  0  0  0  0
    0.1919   14.0129    1.8677 H   0  0  0  0  0  0  0  0  0  0  0  0
   -0.7545   14.4332   -0.9812 H   0  0  0  0  0  0  0  0  0  0  0  0
   -0.7289   15.6157    0.3857 H   0  0  0  0  0  0  0  0  0  0  0  0
    1.3752   15.2798    1.7478 H   0  0  0  0  0  0  0  0  0  0  0  0
    2.9494   15.3311    0.8841 H   0  0  0  0  0  0  0  0  0  0  0  0
    1.8775   16.7725    0.8841 H   0  0  0  0  0  0  0  0  0  0  0  0
  1  2  1  0
  2  3  1  0
  3  4  1  0
  4  5  1  0
  5  6  1  0
  6  7  1  0
  7  8  1  0
  7  9  1  0
  2 10  1  0
 10 11  1  0
 11 12  1  0
 12 13  1  0
 13 14  1  6
 13 15  1  0
 15 16  1  0
 16 17  1  0
 17 18  2  0
 18 19  1  0
 19 20  1  0
 20 21  1  0
 21 22  1  0
 22 23  1  0
 22 24  1  0
 24 25  1  0
 24 26  1  0
 19 27  1  0
 27 28  1  1
 27 29  1  0
 29 30  1  0
 30 31  1  0
 31 32  1  1
  7  5  1  0
 31 10  1  0
 31 13  1  0
 27 15  1  0
 24 18  1  0
  1 33  1  0
  1 34  1  0
  1 35  1  0
  2 36  1  1
  3 37  1  0
  3 38  1  0
  4 39  1  0
  4 40  1  0
  5 41  1  6
  8 42  1  0
  8 43  1  0
  8 44  1  0
  9 45  1  0
  9 46  1  0
  9 47  1  0
 10 48  1  6
 11 49  1  0
 11 50  1  0
 12 51  1  0
 12 52  1  0
 14 53  1  0
 14 54  1  0
 14 55  1  0
 15 56  1  1
 16 57  1  0
 16 58  1  0
 17 59  1  0
 19 60  1  6
 20 61  1  0
 20 62  1  0
 21 63  1  0
 21 64  1  0
 22 65  1  6
 23 66  1  0
 25 67  1  0
 25 68  1  0
 25 69  1  0
 26 70  1  0
 26 71  1  0
 26 72  1  0
 28 73  1  0
 28 74  1  0
 28 75  1  0
 29 76  1  0
 29 77  1  0
 30 78  1  0
 30 79  1  0
 32 80  1  0
 32 81  1  0
 32 82  1  0
M  END
>  <meeko>  (14) 
{"is_sidechain": [false], "intermolecular_energy": 2.731, "internal_energy": -0.839}

$$$$
EPH_relaxed_0001_pdb2pqr_Repair_139_r2_0001_out
     RDKit          3D

 82 86  0  0  0  0  0  0  0  0999 V2000
    2.9030   11.4310   -5.4400 C   0  0  0  0  0  0  0  0  0  0  0  0
    1.9320   11.1170   -4.2990 C   0  0  2  0  0  0  0  0  0  0  0  0
    0.8220   10.1400   -4.7340 C   0  0  0  0  0  0  0  0  0  0  0  0
   -0.2640    9.9300   -3.6740 C   0  0  0  0  0  0  0  0  0  0  0  0
    0.2260    9.0830   -2.5390 C   0  0  2  0  0  0  0  0  0  0  0  0
   -0.6600    8.0230   -2.1580 O   0  0  0  0  0  0  0  0  0  0  0  0
   -0.4380    9.0470   -1.1750 C   0  0  0  0  0  0  0  0  0  0  0  0
   -1.6480    9.8740   -0.8740 C   0  0  0  0  0  0  0  0  0  0  0  0
    0.3680    8.5890    0.0010 C   0  0  0  0  0  0  0  0  0  0  0  0
    1.3150   12.4060   -3.7710 C   0  0  1  0  0  0  0  0  0  0  0  0
   -0.2270   12.3130   -3.6220 C   0  0  0  0  0  0  0  0  0  0  0  0
   -0.6080   13.1550   -2.3770 C   0  0  0  0  0  0  0  0  0  0  0  0
    0.6670   13.9670   -2.0510 C   0  0  1  0  0  0  0  0  0  0  0  0
    0.6350   15.1780   -3.0360 C   0  0  0  0  0  0  0  0  0  0  0  0
    0.8280   14.4340   -0.5670 C   0  0  2  0  0  0  0  0  0  0  0  0
   -0.2620   15.3960   -0.0640 C   0  0  0  0  0  0  0  0  0  0  0  0
    0.0290   16.8480   -0.2580 C   0  0  0  0  0  0  0  0  0  0  0  0
    1.2340   17.3710   -0.5500 C   0  0  0  0  0  0  0  0  0  0  0  0
    2.4830   16.4840   -0.6190 C   0  0  1  0  0  0  0  0  0  0  0  0
    3.6420   17.1590    0.1600 C   0  0  0  0  0  0  0  0  0  0  0  0
    3.9120   18.5850   -0.3120 C   0  0  0  0  0  0  0  0  0  0  0  0
    2.6630   19.4510   -0.1740 C   0  0  2  0  0  0  0  0  0  0  0  0
    2.3640   19.6100    1.2160 O   0  0  0  0  0  0  0  0  0  0  0  0
    1.4260   18.8650   -0.9110 C   0  0  0  0  0  0  0  0  0  0  0  0
    1.6340   18.9730   -2.4420 C   0  0  0  0  0  0  0  0  0  0  0  0
    0.2020   19.7590   -0.5750 C   0  0  0  0  0  0  0  0  0  0  0  0
    2.2760   14.9630   -0.2080 C   0  0  1  0  0  0  0  0  0  0  0  0
    2.4380   14.8020    1.3350 C   0  0  0  0  0  0  0  0  0  0  0  0
    3.4110   14.0930   -0.8660 C   0  0  0  0  0  0  0  0  0  0  0  0
    3.1430   13.5610   -2.2870 C   0  0  0  0  0  0  0  0  0  0  0  0
    1.7680   12.8910   -2.3710 C   0  0  2  0  0  0  0  0  0  0  0  0
    1.7780   11.6560   -1.4070 C   0  0  0  0  0  0  0  0  0  0  0  0
    3.8711   11.7441   -5.0219 H   0  0  0  0  0  0  0  0  0  0  0  0
    3.0442   10.5327   -6.0590 H   0  0  0  0  0  0  0  0  0  0  0  0
    2.4915   12.2419   -6.0590 H   0  0  0  0  0  0  0  0  0  0  0  0
    2.5079   10.6273   -3.4999 H   0  0  0  0  0  0  0  0  0  0  0  0
    0.3473   10.5365   -5.6437 H   0  0  0  0  0  0  0  0  0  0  0  0
    1.3006    9.1638   -4.9016 H   0  0  0  0  0  0  0  0  0  0  0  0
   -0.5723   10.9098   -3.2804 H   0  0  0  0  0  0  0  0  0  0  0  0
   -1.1105    9.4117   -4.1482 H   0  0  0  0  0  0  0  0  0  0  0  0
    1.2713    9.2328   -2.8469 H   0  0  0  0  0  0  0  0  0  0  0  0
   -1.7723    9.9589    0.2157 H   0  0  0  0  0  0  0  0  0  0  0  0
   -1.5239   10.8770   -1.3082 H   0  0  0  0  0  0  0  0  0  0  0  0
   -2.5374    9.3940   -1.3082 H   0  0  0  0  0  0  0  0  0  0  0  0
   -0.1428    8.8792    0.9310 H   0  0  0  0  0  0  0  0  0  0  0  0
    0.4757    7.4948   -0.0321 H   0  0  0  0  0  0  0  0  0  0  0  0
    1.3631    9.0565   -0.0321 H   0  0  0  0  0  0  0  0  0  0  0  0
    1.6652   13.1070   -4.5430 H   0  0  0  0  0  0  0  0  0  0  0  0
   -0.7192   12.7182   -4.5184 H   0  0  0  0  0  0  0  0  0  0  0  0
   -0.5501   11.2680   -3.5059 H   0  0  0  0  0  0  0  0  0  0  0  0
   -1.4487   13.8268   -2.6049 H   0  0  0  0  0  0  0  0  0  0  0  0
   -0.9313   12.5287   -1.5325 H   0  0  0  0  0  0  0  0  0  0  0  0
    0.6102   16.1164   -2.4626 H   0  0  0  0  0  0  0  0  0  0  0  0
    1.5340   15.1591   -3.6697 H   0  0  0  0  0  0  0  0  0  0  0  0
   -0.2617   15.1116   -3.6697 H   0  0  0  0  0  0  0  0  0  0  0  0
    0.6817   13.4982   -0.0077 H   0  0  0  0  0  0  0  0  0  0  0  0
   -1.1946   15.1620   -0.5983 H   0  0  0  0  0  0  0  0  0  0  0  0
   -0.3261   15.2413    1.0232 H   0  0  0  0  0  0  0  0  0  0  0  0
   -0.8124   17.5488   -0.1534 H   0  0  0  0  0  0  0  0  0  0  0  0
    2.7443   16.4093   -1.6849 H   0  0  0  0  0  0  0  0  0  0  0  0
    3.3809   17.1847    1.2283 H   0  0  0  0  0  0  0  0  0  0  0  0
    4.5531   16.5696   -0.0201 H   0  0  0  0  0  0  0  0  0  0  0  0
    4.7196   19.0186    0.2960 H   0  0  0  0  0  0  0  0  0  0  0  0
    4.2027   18.5546   -1.3725 H   0  0  0  0  0  0  0  0  0  0  0  0
    2.8796   20.4200   -0.6474 H   0  0  0  0  0  0  0  0  0  0  0  0
    2.9220   20.3300    1.5570 H   0  0  0  0  0  0  0  0  0  0  0  0
    2.5931   19.4710   -2.6475 H   0  0  0  0  0  0  0  0  0  0  0  0
    1.6422   17.9653   -2.8829 H   0  0  0  0  0  0  0  0  0  0  0  0
    0.8145   19.5595   -2.8829 H   0  0  0  0  0  0  0  0  0  0  0  0
    0.0942   19.8378    0.5169 H   0  0  0  0  0  0  0  0  0  0  0  0
    0.3520   20.7616   -1.0019 H   0  0  0  0  0  0  0  0  0  0  0  0
   -0.7074   19.3111   -1.0019 H   0  0  0  0  0  0  0  0  0  0  0  0
    1.7484   15.4873    1.8496 H   0  0  0  0  0  0  0  0  0  0  0  0
    2.2068   13.7655    1.6218 H   0  0  0  0  0  0  0  0  0  0  0  0
    3.4730   15.0396    1.6218 H   0  0  0  0  0  0  0  0  0  0  0  0
    4.3210   14.7096   -0.9076 H   0  0  0  0  0  0  0  0  0  0  0  0
    3.4900   13.1967   -0.2332 H   0  0  0  0  0  0  0  0  0  0  0  0
    3.1788   14.3996   -2.9980 H   0  0  0  0  0  0  0  0  0  0  0  0
    3.9126   12.8146   -2.5332 H   0  0  0  0  0  0  0  0  0  0  0  0
    1.7752   12.0051   -0.3639 H   0  0  0  0  0  0  0  0  0  0  0  0
    0.8848   11.0406   -1.5902 H   0  0  0  0  0  0  0  0  0  0  0  0
    2.6810   11.0552   -1.5902 H   0  0  0  0  0  0  0  0  0  0  0  0
  1  2  1  0
  2  3  1  0
  3  4  1  0
  4  5  1  0
  5  6  1  0
  6  7  1  0
  7  8  1  0
  7  9  1  0
  2 10  1  0
 10 11  1  0
 11 12  1  0
 12 13  1  0
 13 14  1  6
 13 15  1  0
 15 16  1  0
 16 17  1  0
 17 18  2  0
 18 19  1  0
 19 20  1  0
 20 21  1  0
 21 22  1  0
 22 23  1  0
 22 24  1  0
 24 25  1  0
 24 26  1  0
 19 27  1  0
 27 28  1  1
 27 29  1  0
 29 30  1  0
 30 31  1  0
 31 32  1  1
  7  5  1  0
 31 10  1  0
 31 13  1  0
 27 15  1  0
 24 18  1  0
  1 33  1  0
  1 34  1  0
  1 35  1  0
  2 36  1  1
  3 37  1  0
  3 38  1  0
  4 39  1  0
  4 40  1  0
  5 41  1  1
  8 42  1  0
  8 43  1  0
  8 44  1  0
  9 45  1  0
  9 46  1  0
  9 47  1  0
 10 48  1  6
 11 49  1  0
 11 50  1  0
 12 51  1  0
 12 52  1  0
 14 53  1  0
 14 54  1  0
 14 55  1  0
 15 56  1  1
 16 57  1  0
 16 58  1  0
 17 59  1  0
 19 60  1  6
 20 61  1  0
 20 62  1  0
 21 63  1  0
 21 64  1  0
 22 65  1  6
 23 66  1  0
 25 67  1  0
 25 68  1  0
 25 69  1  0
 26 70  1  0
 26 71  1  0
 26 72  1  0
 28 73  1  0
 28 74  1  0
 28 75  1  0
 29 76  1  0
 29 77  1  0
 30 78  1  0
 30 79  1  0
 32 80  1  0
 32 81  1  0
 32 82  1  0
M  END
>  <meeko>  (15) 
{"is_sidechain": [false], "intermolecular_energy": 2.731, "internal_energy": -0.839}

$$$$
EPH_relaxed_0001_pdb2pqr_Repair_139_r2_0001_out
     RDKit          3D

 82 86  0  0  0  0  0  0  0  0999 V2000
   -2.1840    9.8370   -0.2600 C   0  0  0  0  0  0  0  0  0  0  0  0
   -1.0220   10.3210   -1.1330 C   0  0  2  0  0  0  0  0  0  0  0  0
    0.0890    9.2580   -1.2620 C   0  0  0  0  0  0  0  0  0  0  0  0
    0.7470    9.2210   -2.6430 C   0  0  0  0  0  0  0  0  0  0  0  0
    2.2360    9.3670   -2.5520 C   0  0  2  0  0  0  0  0  0  0  0  0
    2.6810   10.5630   -1.8980 O   0  0  0  0  0  0  0  0  0  0  0  0
    3.0190   10.4380   -3.2890 C   0  0  0  0  0  0  0  0  0  0  0  0
    2.3360   11.4340   -4.1730 C   0  0  0  0  0  0  0  0  0  0  0  0
    4.4780   10.2140   -3.5370 C   0  0  0  0  0  0  0  0  0  0  0  0
   -0.4440   11.6100   -0.5610 C   0  0  1  0  0  0  0  0  0  0  0  0
    0.7300   11.3560    0.4210 C   0  0  0  0  0  0  0  0  0  0  0  0
    1.7310   12.5240    0.2330 C   0  0  0  0  0  0  0  0  0  0  0  0
    0.9550   13.5740   -0.5960 C   0  0  1  0  0  0  0  0  0  0  0  0
    0.0710   14.3320    0.4430 C   0  0  0  0  0  0  0  0  0  0  0  0
    1.8200   14.5600   -1.4470 C   0  0  2  0  0  0  0  0  0  0  0  0
    2.7590   15.4710   -0.6360 C   0  0  0  0  0  0  0  0  0  0  0  0
    2.1760   16.7820   -0.2230 C   0  0  0  0  0  0  0  0  0  0  0  0
    1.0560   17.3330   -0.7280 C   0  0  0  0  0  0  0  0  0  0  0  0
    0.3060   16.6700   -1.8900 C   0  0  1  0  0  0  0  0  0  0  0  0
   -0.0460   17.7390   -2.9570 C   0  0  0  0  0  0  0  0  0  0  0  0
   -0.8080   18.9230   -2.3700 C   0  0  0  0  0  0  0  0  0  0  0  0
   -0.0050   19.5920   -1.2570 C   0  0  2  0  0  0  0  0  0  0  0  0
    1.1600   20.1940   -1.8290 O   0  0  0  0  0  0  0  0  0  0  0  0
    0.4150   18.6090   -0.1290 C   0  0  0  0  0  0  0  0  0  0  0  0
   -0.8340   18.1890    0.6860 C   0  0  0  0  0  0  0  0  0  0  0  0
    1.3370   19.3780    0.8560 C   0  0  0  0  0  0  0  0  0  0  0  0
    0.9980   15.3850   -2.5180 C   0  0  1  0  0  0  0  0  0  0  0  0
    2.0120   15.8130   -3.6230 C   0  0  0  0  0  0  0  0  0  0  0  0
   -0.0970   14.5100   -3.2350 C   0  0  0  0  0  0  0  0  0  0  0  0
   -0.8330   13.4710   -2.3680 C   0  0  0  0  0  0  0  0  0  0  0  0
    0.1590   12.6250   -1.5650 C   0  0  2  0  0  0  0  0  0  0  0  0
    1.0480   11.8330   -2.5840 C   0  0  0  0  0  0  0  0  0  0  0  0
   -1.9165    9.9484    0.8012 H   0  0  0  0  0  0  0  0  0  0  0  0
   -3.0803   10.4366   -0.4771 H   0  0  0  0  0  0  0  0  0  0  0  0
   -2.3896    8.7784   -0.4771 H   0  0  0  0  0  0  0  0  0  0  0  0
   -1.4207   10.5072   -2.1412 H   0  0  0  0  0  0  0  0  0  0  0  0
    0.8652    9.4741   -0.5131 H   0  0  0  0  0  0  0  0  0  0  0  0
   -0.3842    8.2775   -1.1048 H   0  0  0  0  0  0  0  0  0  0  0  0
    0.5118    8.2602   -3.1243 H   0  0  0  0  0  0  0  0  0  0  0  0
    0.3553   10.0634   -3.2320 H   0  0  0  0  0  0  0  0  0  0  0  0
    2.3624    8.2764   -2.4838 H   0  0  0  0  0  0  0  0  0  0  0  0
    1.8222   12.1832   -3.5527 H   0  0  0  0  0  0  0  0  0  0  0  0
    3.0826   11.9334   -4.8080 H   0  0  0  0  0  0  0  0  0  0  0  0
    1.6012   10.9175   -4.8080 H   0  0  0  0  0  0  0  0  0  0  0  0
    5.0053   10.1331   -2.5750 H   0  0  0  0  0  0  0  0  0  0  0  0
    4.6142    9.2844   -4.1091 H   0  0  0  0  0  0  0  0  0  0  0  0
    4.8868   11.0599   -4.1091 H   0  0  0  0  0  0  0  0  0  0  0  0
   -1.3503   12.0292   -0.0996 H   0  0  0  0  0  0  0  0  0  0  0  0
    0.3601   11.3372    1.4568 H   0  0  0  0  0  0  0  0  0  0  0  0
    1.2109   10.3875    0.2194 H   0  0  0  0  0  0  0  0  0  0  0  0
    2.0286   12.9407    1.2065 H   0  0  0  0  0  0  0  0  0  0  0  0
    2.6581   12.2026   -0.2641 H   0  0  0  0  0  0  0  0  0  0  0  0
    0.3875   14.0606    1.4610 H   0  0  0  0  0  0  0  0  0  0  0  0
    0.1859   15.4166    0.3002 H   0  0  0  0  0  0  0  0  0  0  0  0
   -0.9834   14.0530    0.3002 H   0  0  0  0  0  0  0  0  0  0  0  0
    2.4758   13.8760   -2.0057 H   0  0  0  0  0  0  0  0  0  0  0  0
    3.0557   14.9292    0.2741 H   0  0  0  0  0  0  0  0  0  0  0  0
    3.6018   15.7090   -1.3016 H   0  0  0  0  0  0  0  0  0  0  0  0
    2.7059   17.3450    0.5595 H   0  0  0  0  0  0  0  0  0  0  0  0
   -0.6174   16.2559   -1.4589 H   0  0  0  0  0  0  0  0  0  0  0  0
    0.8872   18.1085   -3.4071 H   0  0  0  0  0  0  0  0  0  0  0  0
   -0.6956   17.2620   -3.7057 H   0  0  0  0  0  0  0  0  0  0  0  0
   -1.0006   19.6573   -3.1660 H   0  0  0  0  0  0  0  0  0  0  0  0
   -1.7549   18.5560   -1.9474 H   0  0  0  0  0  0  0  0  0  0  0  0
   -0.6539   20.3469   -0.7890 H   0  0  0  0  0  0  0  0  0  0  0  0
    1.0310   21.1580   -1.8130 H   0  0  0  0  0  0  0  0  0  0  0  0
   -0.6125   18.2635    1.7609 H   0  0  0  0  0  0  0  0  0  0  0  0
   -1.6744   18.8540    0.4379 H   0  0  0  0  0  0  0  0  0  0  0  0
   -1.1018   17.1514    0.4379 H   0  0  0  0  0  0  0  0  0  0  0  0
    1.0495   19.1382    1.8903 H   0  0  0  0  0  0  0  0  0  0  0  0
    2.3825   19.0805    0.6877 H   0  0  0  0  0  0  0  0  0  0  0  0
    1.2320   20.4600    0.6877 H   0  0  0  0  0  0  0  0  0  0  0  0
    2.9273   16.1994   -3.1509 H   0  0  0  0  0  0  0  0  0  0  0  0
    2.2612   14.9433   -4.2487 H   0  0  0  0  0  0  0  0  0  0  0  0
    1.5627   16.5982   -4.2487 H   0  0  0  0  0  0  0  0  0  0  0  0
   -0.8528   15.1948   -3.6472 H   0  0  0  0  0  0  0  0  0  0  0  0
    0.4508   13.9220   -3.9861 H   0  0  0  0  0  0  0  0  0  0  0  0
   -1.5052   13.9944   -1.6721 H   0  0  0  0  0  0  0  0  0  0  0  0
   -1.4062   12.8051   -3.0298 H   0  0  0  0  0  0  0  0  0  0  0  0
    1.7595   11.1991   -2.0345 H   0  0  0  0  0  0  0  0  0  0  0  0
    0.4068   11.2014   -3.2164 H   0  0  0  0  0  0  0  0  0  0  0  0
    1.6017   12.5426   -3.2164 H   0  0  0  0  0  0  0  0  0  0  0  0
  1  2  1  0
  2  3  1  0
  3  4  1  0
  4  5  1  0
  5  6  1  0
  6  7  1  0
  7  8  1  0
  7  9  1  0
  2 10  1  0
 10 11  1  0
 11 12  1  0
 12 13  1  0
 13 14  1  1
 13 15  1  0
 15 16  1  0
 16 17  1  0
 17 18  2  0
 18 19  1  0
 19 20  1  0
 20 21  1  0
 21 22  1  0
 22 23  1  0
 22 24  1  0
 24 25  1  0
 24 26  1  0
 19 27  1  0
 27 28  1  6
 27 29  1  0
 29 30  1  0
 30 31  1  0
 31 32  1  6
  7  5  1  0
 31 10  1  0
 31 13  1  0
 27 15  1  0
 24 18  1  0
  1 33  1  0
  1 34  1  0
  1 35  1  0
  2 36  1  6
  3 37  1  0
  3 38  1  0
  4 39  1  0
  4 40  1  0
  5 41  1  1
  8 42  1  0
  8 43  1  0
  8 44  1  0
  9 45  1  0
  9 46  1  0
  9 47  1  0
 10 48  1  1
 11 49  1  0
 11 50  1  0
 12 51  1  0
 12 52  1  0
 14 53  1  0
 14 54  1  0
 14 55  1  0
 15 56  1  6
 16 57  1  0
 16 58  1  0
 17 59  1  0
 19 60  1  1
 20 61  1  0
 20 62  1  0
 21 63  1  0
 21 64  1  0
 22 65  1  1
 23 66  1  0
 25 67  1  0
 25 68  1  0
 25 69  1  0
 26 70  1  0
 26 71  1  0
 26 72  1  0
 28 73  1  0
 28 74  1  0
 28 75  1  0
 29 76  1  0
 29 77  1  0
 30 78  1  0
 30 79  1  0
 32 80  1  0
 32 81  1  0
 32 82  1  0
M  END
>  <meeko>  (16) 
{"is_sidechain": [false], "intermolecular_energy": 2.731, "internal_energy": -0.839}

$$$$
EPH_relaxed_0001_pdb2pqr_Repair_139_r2_0001_out
     RDKit          3D

 82 86  0  0  0  0  0  0  0  0999 V2000
    0.6410   15.6220   -8.0980 C   0  0  0  0  0  0  0  0  0  0  0  0
    1.8510   15.3990   -7.1870 C   0  0  2  0  0  0  0  0  0  0  0  0
    2.6940   14.1850   -7.6270 C   0  0  0  0  0  0  0  0  0  0  0  0
    3.6480   14.4870   -8.7870 C   0  0  0  0  0  0  0  0  0  0  0  0
    3.0340   14.1480  -10.1110 C   0  0  2  0  0  0  0  0  0  0  0  0
    3.6710   14.7600  -11.2400 O   0  0  0  0  0  0  0  0  0  0  0  0
    2.3150   15.1600  -10.9830 C   0  0  0  0  0  0  0  0  0  0  0  0
    2.1710   16.5900  -10.5640 C   0  0  0  0  0  0  0  0  0  0  0  0
    1.3360   14.6610  -12.0000 C   0  0  0  0  0  0  0  0  0  0  0  0
    1.3890   15.2170   -5.7450 C   0  0  1  0  0  0  0  0  0  0  0  0
    0.0850   15.9980   -5.4320 C   0  0  0  0  0  0  0  0  0  0  0  0
   -0.7220   15.1370   -4.4270 C   0  0  0  0  0  0  0  0  0  0  0  0
    0.2790   14.0620   -3.9430 C   0  0  1  0  0  0  0  0  0  0  0  0
    1.1300   14.7730   -2.8440 C   0  0  0  0  0  0  0  0  0  0  0  0
   -0.3410   12.7260   -3.4180 C   0  0  2  0  0  0  0  0  0  0  0  0
   -1.2370   12.8670   -2.1750 C   0  0  0  0  0  0  0  0  0  0  0  0
   -0.5360   12.7280   -0.8650 C   0  0  0  0  0  0  0  0  0  0  0  0
    0.6990   12.2210   -0.6880 C   0  0  0  0  0  0  0  0  0  0  0  0
    1.4830   11.6290   -1.8660 C   0  0  1  0  0  0  0  0  0  0  0  0
    2.0960   10.2670   -1.4480 C   0  0  0  0  0  0  0  0  0  0  0  0
    2.9380   10.3690   -0.1800 C   0  0  0  0  0  0  0  0  0  0  0  0
    2.1070   10.9050    0.9830 C   0  0  2  0  0  0  0  0  0  0  0  0
    1.1080    9.9390    1.3210 O   0  0  0  0  0  0  0  0  0  0  0  0
    1.4320   12.2710    0.6750 C   0  0  0  0  0  0  0  0  0  0  0  0
    2.5090   13.3810    0.6080 C   0  0  0  0  0  0  0  0  0  0  0  0
    0.5130   12.6300    1.8740 C   0  0  0  0  0  0  0  0  0  0  0  0
    0.7030   11.5490   -3.2480 C   0  0  1  0  0  0  0  0  0  0  0  0
   -0.1090   10.2200   -3.3250 C   0  0  0  0  0  0  0  0  0  0  0  0
    1.7470   11.5010   -4.4260 C   0  0  0  0  0  0  0  0  0  0  0  0
    2.2310   12.8540   -4.9810 C   0  0  0  0  0  0  0  0  0  0  0  0
    1.0480   13.7780   -5.2840 C   0  0  2  0  0  0  0  0  0  0  0  0
    0.1850   13.0990   -6.4030 C   0  0  0  0  0  0  0  0  0  0  0  0
   -0.2557   15.7873   -7.4827 H   0  0  0  0  0  0  0  0  0  0  0  0
    0.8174   16.5028   -8.7329 H   0  0  0  0  0  0  0  0  0  0  0  0
    0.4919   14.7362   -8.7329 H   0  0  0  0  0  0  0  0  0  0  0  0
    2.4912   16.2902   -7.2633 H   0  0  0  0  0  0  0  0  0  0  0  0
    3.2895   13.8454   -6.7668 H   0  0  0  0  0  0  0  0  0  0  0  0
    1.9912   13.4160   -7.9801 H   0  0  0  0  0  0  0  0  0  0  0  0
    3.8979   15.5581   -8.7736 H   0  0  0  0  0  0  0  0  0  0  0  0
    4.5500   13.8705   -8.6590 H   0  0  0  0  0  0  0  0  0  0  0  0
    2.7465   13.1498   -9.7491 H   0  0  0  0  0  0  0  0  0  0  0  0
    2.1648   16.6514   -9.4657 H   0  0  0  0  0  0  0  0  0  0  0  0
    3.0148   17.1746  -10.9592 H   0  0  0  0  0  0  0  0  0  0  0  0
    1.2276   16.9947  -10.9592 H   0  0  0  0  0  0  0  0  0  0  0  0
    0.4686   14.2189  -11.4879 H   0  0  0  0  0  0  0  0  0  0  0  0
    1.0022   15.4989  -12.6296 H   0  0  0  0  0  0  0  0  0  0  0  0
    1.8179   13.8986  -12.6296 H   0  0  0  0  0  0  0  0  0  0  0  0
    2.2840   15.5790   -5.2178 H   0  0  0  0  0  0  0  0  0  0  0  0
    0.3260   16.9743   -4.9862 H   0  0  0  0  0  0  0  0  0  0  0  0
   -0.4946   16.1822   -6.3486 H   0  0  0  0  0  0  0  0  0  0  0  0
   -1.0715   15.7502   -3.5833 H   0  0  0  0  0  0  0  0  0  0  0  0
   -1.6204   14.6955   -4.8831 H   0  0  0  0  0  0  0  0  0  0  0  0
    0.7696   14.4719   -1.8493 H   0  0  0  0  0  0  0  0  0  0  0  0
    2.1858   14.4848   -2.9542 H   0  0  0  0  0  0  0  0  0  0  0  0
    1.0341   15.8633   -2.9542 H   0  0  0  0  0  0  0  0  0  0  0  0
   -1.0133   12.4391   -4.2400 H   0  0  0  0  0  0  0  0  0  0  0  0
   -1.7065   13.8613   -2.2055 H   0  0  0  0  0  0  0  0  0  0  0  0
   -1.9580   12.0377   -2.2239 H   0  0  0  0  0  0  0  0  0  0  0  0
   -1.0736   13.0686    0.0322 H   0  0  0  0  0  0  0  0  0  0  0  0
    2.2861   12.3471   -2.0880 H   0  0  0  0  0  0  0  0  0  0  0  0
    1.2790    9.5517   -1.2722 H   0  0  0  0  0  0  0  0  0  0  0  0
    2.7570    9.9345   -2.2619 H   0  0  0  0  0  0  0  0  0  0  0  0
    3.3200    9.3708    0.0801 H   0  0  0  0  0  0  0  0  0  0  0  0
    3.7714   11.0624   -0.3659 H   0  0  0  0  0  0  0  0  0  0  0  0
    2.7924   11.0772    1.8260 H   0  0  0  0  0  0  0  0  0  0  0  0
    1.0630    9.2950    0.5930 H   0  0  0  0  0  0  0  0  0  0  0  0
    2.7953   13.6761    1.6283 H   0  0  0  0  0  0  0  0  0  0  0  0
    3.3931   13.0024    0.0741 H   0  0  0  0  0  0  0  0  0  0  0  0
    2.1039   14.2532    0.0741 H   0  0  0  0  0  0  0  0  0  0  0  0
    1.0419   12.4234    2.8161 H   0  0  0  0  0  0  0  0  0  0  0  0
    0.2498   13.6970    1.8276 H   0  0  0  0  0  0  0  0  0  0  0  0
   -0.4038   12.0239    1.8276 H   0  0  0  0  0  0  0  0  0  0  0  0
   -0.3266    9.8638   -2.3073 H   0  0  0  0  0  0  0  0  0  0  0  0
   -1.0530   10.3976   -3.8610 H   0  0  0  0  0  0  0  0  0  0  0  0
    0.4798    9.4611   -3.8610 H   0  0  0  0  0  0  0  0  0  0  0  0
    2.6306   10.9540   -4.0654 H   0  0  0  0  0  0  0  0  0  0  0  0
    1.2164   11.0206   -5.2613 H   0  0  0  0  0  0  0  0  0  0  0  0
    2.8823   13.3358   -4.2369 H   0  0  0  0  0  0  0  0  0  0  0  0
    2.7820   12.6724   -5.9156 H   0  0  0  0  0  0  0  0  0  0  0  0
   -0.5986   12.4825   -5.9383 H   0  0  0  0  0  0  0  0  0  0  0  0
   -0.2813   13.8749   -7.0279 H   0  0  0  0  0  0  0  0  0  0  0  0
    0.8294   12.4632   -7.0279 H   0  0  0  0  0  0  0  0  0  0  0  0
  1  2  1  0
  2  3  1  0
  3  4  1  0
  4  5  1  0
  5  6  1  0
  6  7  1  0
  7  8  1  0
  7  9  1  0
  2 10  1  0
 10 11  1  0
 11 12  1  0
 12 13  1  0
 13 14  1  1
 13 15  1  0
 15 16  1  0
 16 17  1  0
 17 18  2  0
 18 19  1  0
 19 20  1  0
 20 21  1  0
 21 22  1  0
 22 23  1  0
 22 24  1  0
 24 25  1  0
 24 26  1  0
 19 27  1  0
 27 28  1  1
 27 29  1  0
 29 30  1  0
 30 31  1  0
 31 32  1  6
  7  5  1  0
 31 10  1  0
 31 13  1  0
 27 15  1  0
 24 18  1  0
  1 33  1  0
  1 34  1  0
  1 35  1  0
  2 36  1  1
  3 37  1  0
  3 38  1  0
  4 39  1  0
  4 40  1  0
  5 41  1  6
  8 42  1  0
  8 43  1  0
  8 44  1  0
  9 45  1  0
  9 46  1  0
  9 47  1  0
 10 48  1  1
 11 49  1  0
 11 50  1  0
 12 51  1  0
 12 52  1  0
 14 53  1  0
 14 54  1  0
 14 55  1  0
 15 56  1  6
 16 57  1  0
 16 58  1  0
 17 59  1  0
 19 60  1  6
 20 61  1  0
 20 62  1  0
 21 63  1  0
 21 64  1  0
 22 65  1  1
 23 66  1  0
 25 67  1  0
 25 68  1  0
 25 69  1  0
 26 70  1  0
 26 71  1  0
 26 72  1  0
 28 73  1  0
 28 74  1  0
 28 75  1  0
 29 76  1  0
 29 77  1  0
 30 78  1  0
 30 79  1  0
 32 80  1  0
 32 81  1  0
 32 82  1  0
M  END
>  <meeko>  (17) 
{"is_sidechain": [false], "intermolecular_energy": 2.731, "internal_energy": -0.839}

$$$$
EPH_relaxed_0001_pdb2pqr_Repair_139_r2_0001_out
     RDKit          3D

 82 86  0  0  0  0  0  0  0  0999 V2000
    0.9030   14.8910   -2.6400 C   0  0  0  0  0  0  0  0  0  0  0  0
    1.1950   14.2000   -3.9750 C   0  0  2  0  0  0  0  0  0  0  0  0
    0.5190   14.9190   -5.1600 C   0  0  0  0  0  0  0  0  0  0  0  0
    1.1310   14.5710   -6.5200 C   0  0  0  0  0  0  0  0  0  0  0  0
    0.9100   15.6630   -7.5220 C   0  0  2  0  0  0  0  0  0  0  0  0
    0.5050   15.2110   -8.8210 O   0  0  0  0  0  0  0  0  0  0  0  0
    1.7830   15.8640   -8.7470 C   0  0  0  0  0  0  0  0  0  0  0  0
    2.9440   14.9640   -9.0340 C   0  0  0  0  0  0  0  0  0  0  0  0
    1.8090   17.2130   -9.3940 C   0  0  0  0  0  0  0  0  0  0  0  0
    0.7400   12.7470   -3.9190 C   0  0  1  0  0  0  0  0  0  0  0  0
    1.8700   11.7520   -4.2960 C   0  0  0  0  0  0  0  0  0  0  0  0
    1.6660   10.4890   -3.4200 C   0  0  0  0  0  0  0  0  0  0  0  0
    0.2520   10.6580   -2.8170 C   0  0  1  0  0  0  0  0  0  0  0  0
   -0.7230   10.1890   -3.9420 C   0  0  0  0  0  0  0  0  0  0  0  0
   -0.0190    9.9100   -1.4710 C   0  0  2  0  0  0  0  0  0  0  0  0
    0.0820    8.3770   -1.5440 C   0  0  0  0  0  0  0  0  0  0  0  0
   -1.1920    7.6690   -1.8690 C   0  0  0  0  0  0  0  0  0  0  0  0
   -2.4240    8.2100   -1.8120 C   0  0  0  0  0  0  0  0  0  0  0  0
   -2.6330    9.6390   -1.2950 C   0  0  1  0  0  0  0  0  0  0  0  0
   -3.8150    9.6580   -0.2900 C   0  0  0  0  0  0  0  0  0  0  0  0
   -5.0900    9.0560   -0.8750 C   0  0  0  0  0  0  0  0  0  0  0  0
   -4.8560    7.6160   -1.3240 C   0  0  2  0  0  0  0  0  0  0  0  0
   -4.6030    6.8080   -0.1700 O   0  0  0  0  0  0  0  0  0  0  0  0
   -3.6820    7.4710   -2.3320 C   0  0  0  0  0  0  0  0  0  0  0  0
   -4.0830    8.0920   -3.6920 C   0  0  0  0  0  0  0  0  0  0  0  0
   -3.4620    5.9570   -2.5940 C   0  0  0  0  0  0  0  0  0  0  0  0
   -1.3400   10.3680   -0.7290 C   0  0  1  0  0  0  0  0  0  0  0  0
   -1.1480   10.0180    0.7780 C   0  0  0  0  0  0  0  0  0  0  0  0
   -1.5560   11.9260   -0.7990 C   0  0  0  0  0  0  0  0  0  0  0  0
   -1.1580   12.6240   -2.1140 C   0  0  0  0  0  0  0  0  0  0  0  0
    0.2490   12.2080   -2.5520 C   0  0  2  0  0  0  0  0  0  0  0  0
    1.2550   12.6860   -1.4490 C   0  0  0  0  0  0  0  0  0  0  0  0
    1.1850   14.2236   -1.8123 H   0  0  0  0  0  0  0  0  0  0  0  0
    1.4844   15.8225   -2.5744 H   0  0  0  0  0  0  0  0  0  0  0  0
   -0.1702   15.1233   -2.5744 H   0  0  0  0  0  0  0  0  0  0  0  0
    2.2819   14.2424   -4.1392 H   0  0  0  0  0  0  0  0  0  0  0  0
   -0.5446   14.6386   -5.1756 H   0  0  0  0  0  0  0  0  0  0  0  0
    0.6657   15.9985   -5.0077 H   0  0  0  0  0  0  0  0  0  0  0  0
    2.2127   14.4153   -6.3950 H   0  0  0  0  0  0  0  0  0  0  0  0
    0.6424   13.6588   -6.8930 H   0  0  0  0  0  0  0  0  0  0  0  0
    0.5771   16.3524   -6.7321 H   0  0  0  0  0  0  0  0  0  0  0  0
    3.3856   14.6217   -8.0865 H   0  0  0  0  0  0  0  0  0  0  0  0
    2.5996   14.0946   -9.6132 H   0  0  0  0  0  0  0  0  0  0  0  0
    3.7001   15.5143   -9.6132 H   0  0  0  0  0  0  0  0  0  0  0  0
    1.8240   17.9919   -8.6174 H   0  0  0  0  0  0  0  0  0  0  0  0
    2.7090   17.3021  -10.0201 H   0  0  0  0  0  0  0  0  0  0  0  0
    0.9131   17.3367  -10.0201 H   0  0  0  0  0  0  0  0  0  0  0  0
   -0.0979   12.7887   -4.6305 H   0  0  0  0  0  0  0  0  0  0  0  0
    1.8024   11.4885   -5.3618 H   0  0  0  0  0  0  0  0  0  0  0  0
    2.8611   12.1965   -4.1227 H   0  0  0  0  0  0  0  0  0  0  0  0
    1.7203    9.5777   -4.0336 H   0  0  0  0  0  0  0  0  0  0  0  0
    2.4408   10.3883   -2.6457 H   0  0  0  0  0  0  0  0  0  0  0  0
   -1.6257    9.7548   -3.4874 H   0  0  0  0  0  0  0  0  0  0  0  0
   -1.0046   11.0502   -4.5657 H   0  0  0  0  0  0  0  0  0  0  0  0
   -0.2259    9.4315   -4.5657 H   0  0  0  0  0  0  0  0  0  0  0  0
    0.8265   10.2350   -0.8470 H   0  0  0  0  0  0  0  0  0  0  0  0
    0.8201    8.1214   -2.3185 H   0  0  0  0  0  0  0  0  0  0  0  0
    0.3677    8.0423   -0.5359 H   0  0  0  0  0  0  0  0  0  0  0  0
   -1.1179    6.6169   -2.1813 H   0  0  0  0  0  0  0  0  0  0  0  0
   -2.8820   10.2477   -2.1767 H   0  0  0  0  0  0  0  0  0  0  0  0
   -3.5292    9.0806    0.6016 H   0  0  0  0  0  0  0  0  0  0  0  0
   -4.0252   10.7087   -0.0414 H   0  0  0  0  0  0  0  0  0  0  0  0
   -5.8795    9.0707   -0.1092 H   0  0  0  0  0  0  0  0  0  0  0  0
   -5.3914    9.6522   -1.7489 H   0  0  0  0  0  0  0  0  0  0  0  0
   -5.7630    7.2835   -1.8501 H   0  0  0  0  0  0  0  0  0  0  0  0
   -5.4260    6.7630    0.3440 H   0  0  0  0  0  0  0  0  0  0  0  0
   -4.6723    9.0046   -3.5189 H   0  0  0  0  0  0  0  0  0  0  0  0
   -3.1763    8.3436   -4.2618 H   0  0  0  0  0  0  0  0  0  0  0  0
   -4.6854    7.3692   -4.2618 H   0  0  0  0  0  0  0  0  0  0  0  0
   -3.3849    5.4261   -1.6337 H   0  0  0  0  0  0  0  0  0  0  0  0
   -4.3114    5.5568   -3.1670 H   0  0  0  0  0  0  0  0  0  0  0  0
   -2.5338    5.8151   -3.1670 H   0  0  0  0  0  0  0  0  0  0  0  0
   -1.5850   10.8146    1.3980 H   0  0  0  0  0  0  0  0  0  0  0  0
   -1.6492    9.0642    0.9997 H   0  0  0  0  0  0  0  0  0  0  0  0
   -0.0743    9.9282    0.9997 H   0  0  0  0  0  0  0  0  0  0  0  0
   -2.6249   12.1218   -0.6285 H   0  0  0  0  0  0  0  0  0  0  0  0
   -0.8834   12.3445   -0.0358 H   0  0  0  0  0  0  0  0  0  0  0  0
   -1.8760   12.3470   -2.8999 H   0  0  0  0  0  0  0  0  0  0  0  0
   -1.1668   13.7117   -1.9500 H   0  0  0  0  0  0  0  0  0  0  0  0
    0.8312   12.4846   -0.4541 H   0  0  0  0  0  0  0  0  0  0  0  0
    2.2053   12.1432   -1.5594 H   0  0  0  0  0  0  0  0  0  0  0  0
    1.4344   13.7656   -1.5594 H   0  0  0  0  0  0  0  0  0  0  0  0
  1  2  1  0
  2  3  1  0
  3  4  1  0
  4  5  1  0
  5  6  1  0
  6  7  1  0
  7  8  1  0
  7  9  1  0
  2 10  1  0
 10 11  1  0
 11 12  1  0
 12 13  1  0
 13 14  1  6
 13 15  1  0
 15 16  1  0
 16 17  1  0
 17 18  2  0
 18 19  1  0
 19 20  1  0
 20 21  1  0
 21 22  1  0
 22 23  1  0
 22 24  1  0
 24 25  1  0
 24 26  1  0
 19 27  1  0
 27 28  1  1
 27 29  1  0
 29 30  1  0
 30 31  1  0
 31 32  1  1
  7  5  1  0
 31 10  1  0
 31 13  1  0
 27 15  1  0
 24 18  1  0
  1 33  1  0
  1 34  1  0
  1 35  1  0
  2 36  1  6
  3 37  1  0
  3 38  1  0
  4 39  1  0
  4 40  1  0
  5 41  1  1
  8 42  1  0
  8 43  1  0
  8 44  1  0
  9 45  1  0
  9 46  1  0
  9 47  1  0
 10 48  1  6
 11 49  1  0
 11 50  1  0
 12 51  1  0
 12 52  1  0
 14 53  1  0
 14 54  1  0
 14 55  1  0
 15 56  1  1
 16 57  1  0
 16 58  1  0
 17 59  1  0
 19 60  1  6
 20 61  1  0
 20 62  1  0
 21 63  1  0
 21 64  1  0
 22 65  1  6
 23 66  1  0
 25 67  1  0
 25 68  1  0
 25 69  1  0
 26 70  1  0
 26 71  1  0
 26 72  1  0
 28 73  1  0
 28 74  1  0
 28 75  1  0
 29 76  1  0
 29 77  1  0
 30 78  1  0
 30 79  1  0
 32 80  1  0
 32 81  1  0
 32 82  1  0
M  END
>  <meeko>  (18) 
{"is_sidechain": [false], "intermolecular_energy": 2.731, "internal_energy": -0.839}

$$$$
