EPH_relaxed_0001_pdb2pqr_Repair_67_r2_0001_out
     RDKit          3D

 82 86  0  0  0  0  0  0  0  0999 V2000
   -1.6770    8.5690   -1.8560 C   0  0  0  0  0  0  0  0  0  0  0  0
   -2.0640    9.0970   -0.4720 C   0  0  2  0  0  0  0  0  0  0  0  0
   -3.5590    9.4630   -0.3860 C   0  0  0  0  0  0  0  0  0  0  0  0
   -4.4810    8.2500   -0.2360 C   0  0  0  0  0  0  0  0  0  0  0  0
   -5.1840    7.9250   -1.5190 C   0  0  2  0  0  0  0  0  0  0  0  0
   -6.3460    8.7220   -1.7840 O   0  0  0  0  0  0  0  0  0  0  0  0
   -6.5730    7.3170   -1.5820 C   0  0  0  0  0  0  0  0  0  0  0  0
   -7.3420    6.9980   -0.3380 C   0  0  0  0  0  0  0  0  0  0  0  0
   -6.9790    6.5880   -2.8240 C   0  0  0  0  0  0  0  0  0  0  0  0
   -1.2100   10.3100   -0.1210 C   0  0  1  0  0  0  0  0  0  0  0  0
   -0.1820   10.0130    1.0030 C   0  0  0  0  0  0  0  0  0  0  0  0
    1.0860   10.8440    0.6800 C   0  0  0  0  0  0  0  0  0  0  0  0
    0.6340   11.8350   -0.4180 C   0  0  1  0  0  0  0  0  0  0  0  0
   -0.0790   12.9900    0.3530 C   0  0  0  0  0  0  0  0  0  0  0  0
    1.7560   12.3790   -1.3630 C   0  0  2  0  0  0  0  0  0  0  0  0
    2.8530   13.2020   -0.6660 C   0  0  0  0  0  0  0  0  0  0  0  0
    2.5970   14.6710   -0.5890 C   0  0  0  0  0  0  0  0  0  0  0  0
    1.6740   15.3420   -1.3020 C   0  0  0  0  0  0  0  0  0  0  0  0
    0.8360   14.6310   -2.3730 C   0  0  1  0  0  0  0  0  0  0  0  0
    0.8100   15.4900   -3.6650 C   0  0  0  0  0  0  0  0  0  0  0  0
    0.3410   16.9180   -3.4090 C   0  0  0  0  0  0  0  0  0  0  0  0
    1.2340   17.6110   -2.3830 C   0  0  2  0  0  0  0  0  0  0  0  0
    2.5370   17.7830   -2.9480 O   0  0  0  0  0  0  0  0  0  0  0  0
    1.3440   16.8320   -1.0420 C   0  0  0  0  0  0  0  0  0  0  0  0
   -0.0060   16.9060   -0.2850 C   0  0  0  0  0  0  0  0  0  0  0  0
    2.3820   17.5640   -0.1490 C   0  0  0  0  0  0  0  0  0  0  0  0
    1.2140   13.1140   -2.6550 C   0  0  1  0  0  0  0  0  0  0  0  0
    2.3510   13.0380   -3.7190 C   0  0  0  0  0  0  0  0  0  0  0  0
   -0.0300   12.3820   -3.2830 C   0  0  0  0  0  0  0  0  0  0  0  0
   -1.0410   11.7620   -2.2990 C   0  0  0  0  0  0  0  0  0  0  0  0
   -0.3280   10.9080   -1.2460 C   0  0  2  0  0  0  0  0  0  0  0  0
    0.3810    9.7250   -1.9900 C   0  0  0  0  0  0  0  0  0  0  0  0
   -1.0301    7.6864   -1.7440 H   0  0  0  0  0  0  0  0  0  0  0  0
   -2.5858    8.2897   -2.4092 H   0  0  0  0  0  0  0  0  0  0  0  0
   -1.1370    9.3516   -2.4092 H   0  0  0  0  0  0  0  0  0  0  0  0
   -1.8801    8.2900    0.2525 H   0  0  0  0  0  0  0  0  0  0  0  0
   -3.7062   10.1209    0.4832 H   0  0  0  0  0  0  0  0  0  0  0  0
   -3.8251    9.9543   -1.3335 H   0  0  0  0  0  0  0  0  0  0  0  0
   -3.8799    7.3814    0.0709 H   0  0  0  0  0  0  0  0  0  0  0  0
   -5.2426    8.4901    0.5206 H   0  0  0  0  0  0  0  0  0  0  0  0
   -4.2333    7.6435   -1.9954 H   0  0  0  0  0  0  0  0  0  0  0  0
   -6.7343    7.2501    0.5435 H   0  0  0  0  0  0  0  0  0  0  0  0
   -8.2726    7.5843   -0.3217 H   0  0  0  0  0  0  0  0  0  0  0  0
   -7.5843    5.9251   -0.3217 H   0  0  0  0  0  0  0  0  0  0  0  0
   -7.4973    5.6573   -2.5500 H   0  0  0  0  0  0  0  0  0  0  0  0
   -7.6537    7.2224   -3.4175 H   0  0  0  0  0  0  0  0  0  0  0  0
   -6.0844    6.3484   -3.4175 H   0  0  0  0  0  0  0  0  0  0  0  0
   -2.0036   11.0206    0.1532 H   0  0  0  0  0  0  0  0  0  0  0  0
   -0.5916   10.3109    1.9794 H   0  0  0  0  0  0  0  0  0  0  0  0
    0.0512    8.9391    1.0514 H   0  0  0  0  0  0  0  0  0  0  0  0
    1.4333   11.3852    1.5724 H   0  0  0  0  0  0  0  0  0  0  0  0
    1.9257   10.2134    0.3526 H   0  0  0  0  0  0  0  0  0  0  0  0
    0.0226   12.8254    1.4359 H   0  0  0  0  0  0  0  0  0  0  0  0
    0.3832   13.9510    0.0832 H   0  0  0  0  0  0  0  0  0  0  0  0
   -1.1453   13.0074    0.0832 H   0  0  0  0  0  0  0  0  0  0  0  0
    2.2470   11.4555   -1.7037 H   0  0  0  0  0  0  0  0  0  0  0  0
    2.9625   12.8219    0.3604 H   0  0  0  0  0  0  0  0  0  0  0  0
    3.7584   13.0828   -1.2792 H   0  0  0  0  0  0  0  0  0  0  0  0
    3.2152   15.2539    0.1096 H   0  0  0  0  0  0  0  0  0  0  0  0
   -0.1800   14.5489   -1.9596 H   0  0  0  0  0  0  0  0  0  0  0  0
    1.8253   15.5227   -4.0870 H   0  0  0  0  0  0  0  0  0  0  0  0
    0.0968   15.0243   -4.3610 H   0  0  0  0  0  0  0  0  0  0  0  0
    0.3729   17.4819   -4.3530 H   0  0  0  0  0  0  0  0  0  0  0  0
   -0.6854   16.8846   -3.0148 H   0  0  0  0  0  0  0  0  0  0  0  0
    0.7731   18.5811   -2.1453 H   0  0  0  0  0  0  0  0  0  0  0  0
    2.4310   17.8730   -3.9100 H   0  0  0  0  0  0  0  0  0  0  0  0
    0.1804   16.8958    0.7990 H   0  0  0  0  0  0  0  0  0  0  0  0
   -0.5292   17.8342   -0.5583 H   0  0  0  0  0  0  0  0  0  0  0  0
   -0.6276   16.0406   -0.5583 H   0  0  0  0  0  0  0  0  0  0  0  0
    2.1397   17.3931    0.9103 H   0  0  0  0  0  0  0  0  0  0  0  0
    3.3885   17.1748   -0.3623 H   0  0  0  0  0  0  0  0  0  0  0  0
    2.3533   18.6427   -0.3623 H   0  0  0  0  0  0  0  0  0  0  0  0
    3.3246   12.9729   -3.2112 H   0  0  0  0  0  0  0  0  0  0  0  0
    2.2054   12.1476   -4.3483 H   0  0  0  0  0  0  0  0  0  0  0  0
    2.3252   13.9399   -4.3483 H   0  0  0  0  0  0  0  0  0  0  0  0
   -0.5716   13.1151   -3.8988 H   0  0  0  0  0  0  0  0  0  0  0  0
    0.3880   11.5309   -3.8406 H   0  0  0  0  0  0  0  0  0  0  0  0
   -1.5931   12.5686   -1.7945 H   0  0  0  0  0  0  0  0  0  0  0  0
   -1.7310   11.1182   -2.8642 H   0  0  0  0  0  0  0  0  0  0  0  0
    0.8000    9.0259   -1.2513 H   0  0  0  0  0  0  0  0  0  0  0  0
   -0.3500    9.1977   -2.6205 H   0  0  0  0  0  0  0  0  0  0  0  0
    1.1907   10.1211   -2.6205 H   0  0  0  0  0  0  0  0  0  0  0  0
  1  2  1  0
  2  3  1  0
  3  4  1  0
  4  5  1  0
  5  6  1  0
  6  7  1  0
  7  8  1  0
  7  9  1  0
  2 10  1  0
 10 11  1  0
 11 12  1  0
 12 13  1  0
 13 14  1  1
 13 15  1  0
 15 16  1  0
 16 17  1  0
 17 18  2  0
 18 19  1  0
 19 20  1  0
 20 21  1  0
 21 22  1  0
 22 23  1  0
 22 24  1  0
 24 25  1  0
 24 26  1  0
 19 27  1  0
 27 28  1  6
 27 29  1  0
 29 30  1  0
 30 31  1  0
 31 32  1  6
  7  5  1  0
 31 10  1  0
 31 13  1  0
 27 15  1  0
 24 18  1  0
  1 33  1  0
  1 34  1  0
  1 35  1  0
  2 36  1  1
  3 37  1  0
  3 38  1  0
  4 39  1  0
  4 40  1  0
  5 41  1  6
  8 42  1  0
  8 43  1  0
  8 44  1  0
  9 45  1  0
  9 46  1  0
  9 47  1  0
 10 48  1  1
 11 49  1  0
 11 50  1  0
 12 51  1  0
 12 52  1  0
 14 53  1  0
 14 54  1  0
 14 55  1  0
 15 56  1  6
 16 57  1  0
 16 58  1  0
 17 59  1  0
 19 60  1  1
 20 61  1  0
 20 62  1  0
 21 63  1  0
 21 64  1  0
 22 65  1  1
 23 66  1  0
 25 67  1  0
 25 68  1  0
 25 69  1  0
 26 70  1  0
 26 71  1  0
 26 72  1  0
 28 73  1  0
 28 74  1  0
 28 75  1  0
 29 76  1  0
 29 77  1  0
 30 78  1  0
 30 79  1  0
 32 80  1  0
 32 81  1  0
 32 82  1  0
M  END
>  <meeko>  (1) 
{"is_sidechain": [false], "intermolecular_energy": 2.731, "internal_energy": -0.839}

$$$$
EPH_relaxed_0001_pdb2pqr_Repair_67_r2_0001_out
     RDKit          3D

 82 86  0  0  0  0  0  0  0  0999 V2000
    2.3400   18.0160   -2.6900 C   0  0  0  0  0  0  0  0  0  0  0  0
    1.0380   17.6290   -1.9840 C   0  0  2  0  0  0  0  0  0  0  0  0
    1.1680   17.6930   -0.4490 C   0  0  0  0  0  0  0  0  0  0  0  0
    0.8450   19.0690    0.1400 C   0  0  0  0  0  0  0  0  0  0  0  0
   -0.5960   19.1780    0.5360 C   0  0  2  0  0  0  0  0  0  0  0  0
   -1.4720   18.2600   -0.1320 O   0  0  0  0  0  0  0  0  0  0  0  0
   -1.6880   19.6540   -0.4050 C   0  0  0  0  0  0  0  0  0  0  0  0
   -1.3840   20.0520   -1.8150 C   0  0  0  0  0  0  0  0  0  0  0  0
   -2.9540   20.1940    0.1840 C   0  0  0  0  0  0  0  0  0  0  0  0
    0.6100   16.2310   -2.4130 C   0  0  1  0  0  0  0  0  0  0  0  0
    0.7620   16.0020   -3.9400 C   0  0  0  0  0  0  0  0  0  0  0  0
    1.1750   14.5190   -4.1310 C   0  0  0  0  0  0  0  0  0  0  0  0
    0.9250   13.8640   -2.7530 C   0  0  1  0  0  0  0  0  0  0  0  0
   -0.6070   13.5650   -2.7230 C   0  0  0  0  0  0  0  0  0  0  0  0
    1.7690   12.5880   -2.4310 C   0  0  2  0  0  0  0  0  0  0  0  0
    1.5250   11.3910   -3.3670 C   0  0  0  0  0  0  0  0  0  0  0  0
    0.4520   10.4490   -2.9310 C   0  0  0  0  0  0  0  0  0  0  0  0
   -0.0910   10.3970   -1.7010 C   0  0  0  0  0  0  0  0  0  0  0  0
    0.4420   11.2820   -0.5660 C   0  0  1  0  0  0  0  0  0  0  0  0
    0.6260   10.4270    0.7150 C   0  0  0  0  0  0  0  0  0  0  0  0
   -0.6450    9.6790    1.1060 C   0  0  0  0  0  0  0  0  0  0  0  0
   -1.1110    8.7660   -0.0250 C   0  0  2  0  0  0  0  0  0  0  0  0
   -0.1480    7.7220   -0.2000 O   0  0  0  0  0  0  0  0  0  0  0  0
   -1.3200    9.5150   -1.3700 C   0  0  0  0  0  0  0  0  0  0  0  0
   -2.5630   10.4340   -1.2670 C   0  0  0  0  0  0  0  0  0  0  0  0
   -1.6510    8.4590   -2.4590 C   0  0  0  0  0  0  0  0  0  0  0  0
    1.7280   12.1500   -0.9100 C   0  0  1  0  0  0  0  0  0  0  0  0
    3.0190   11.3140   -0.6530 C   0  0  0  0  0  0  0  0  0  0  0  0
    1.7940   13.3820    0.0690 C   0  0  0  0  0  0  0  0  0  0  0  0
    1.0380   14.6530   -0.3620 C   0  0  0  0  0  0  0  0  0  0  0  0
    1.3820   15.0330   -1.8060 C   0  0  2  0  0  0  0  0  0  0  0  0
    2.9130   15.3610   -1.8620 C   0  0  0  0  0  0  0  0  0  0  0  0
    3.1103   18.2450   -1.9389 H   0  0  0  0  0  0  0  0  0  0  0  0
    2.6785   17.1796   -3.3192 H   0  0  0  0  0  0  0  0  0  0  0  0
    2.1667   18.9015   -3.3192 H   0  0  0  0  0  0  0  0  0  0  0  0
    0.2712   18.3598   -2.2805 H   0  0  0  0  0  0  0  0  0  0  0  0
    0.4774   16.9572   -0.0112 H   0  0  0  0  0  0  0  0  0  0  0  0
    2.2193   17.4786   -0.2065 H   0  0  0  0  0  0  0  0  0  0  0  0
    1.4723   19.2325    1.0287 H   0  0  0  0  0  0  0  0  0  0  0  0
    1.0472   19.8278   -0.6303 H   0  0  0  0  0  0  0  0  0  0  0  0
   -0.3174   19.4799    1.5564 H   0  0  0  0  0  0  0  0  0  0  0  0
   -0.7163   20.9262   -1.8134 H   0  0  0  0  0  0  0  0  0  0  0  0
   -0.8924   19.2160   -2.3341 H   0  0  0  0  0  0  0  0  0  0  0  0
   -2.3199   20.3064   -2.3341 H   0  0  0  0  0  0  0  0  0  0  0  0
   -2.8888   20.1662    1.2817 H   0  0  0  0  0  0  0  0  0  0  0  0
   -3.0993   21.2324   -0.1485 H   0  0  0  0  0  0  0  0  0  0  0  0
   -3.8041   19.5802   -0.1485 H   0  0  0  0  0  0  0  0  0  0  0  0
   -0.4268   16.2351   -2.0457 H   0  0  0  0  0  0  0  0  0  0  0  0
   -0.1931   16.1979   -4.4494 H   0  0  0  0  0  0  0  0  0  0  0  0
    1.5150   16.6801   -4.3681 H   0  0  0  0  0  0  0  0  0  0  0  0
    0.5580   14.0408   -4.9060 H   0  0  0  0  0  0  0  0  0  0  0  0
    2.2200   14.4158   -4.4585 H   0  0  0  0  0  0  0  0  0  0  0  0
   -0.9472   13.4986   -1.6791 H   0  0  0  0  0  0  0  0  0  0  0  0
   -1.1486   14.3744   -3.2344 H   0  0  0  0  0  0  0  0  0  0  0  0
   -0.8045   12.6114   -3.2344 H   0  0  0  0  0  0  0  0  0  0  0  0
    2.7952   12.9255   -2.6385 H   0  0  0  0  0  0  0  0  0  0  0  0
    1.2505   11.7841   -4.3570 H   0  0  0  0  0  0  0  0  0  0  0  0
    2.4588   10.8096   -3.3673 H   0  0  0  0  0  0  0  0  0  0  0  0
    0.0731    9.7369   -3.6789 H   0  0  0  0  0  0  0  0  0  0  0  0
   -0.3255   12.0510   -0.3940 H   0  0  0  0  0  0  0  0  0  0  0  0
    1.4264    9.6936    0.5376 H   0  0  0  0  0  0  0  0  0  0  0  0
    0.8786   11.1102    1.5393 H   0  0  0  0  0  0  0  0  0  0  0  0
   -0.4439    9.0705    2.0001 H   0  0  0  0  0  0  0  0  0  0  0  0
   -1.4362   10.4151    1.3114 H   0  0  0  0  0  0  0  0  0  0  0  0
   -2.0915    8.3584    0.2621 H   0  0  0  0  0  0  0  0  0  0  0  0
   -0.1930    7.1460    0.5820 H   0  0  0  0  0  0  0  0  0  0  0  0
   -2.8017   10.6105   -0.2078 H   0  0  0  0  0  0  0  0  0  0  0  0
   -2.3510   11.3942   -1.7600 H   0  0  0  0  0  0  0  0  0  0  0  0
   -3.4189    9.9498   -1.7600 H   0  0  0  0  0  0  0  0  0  0  0  0
   -1.9467    7.5155   -1.9770 H   0  0  0  0  0  0  0  0  0  0  0  0
   -2.4774    8.8253   -3.0858 H   0  0  0  0  0  0  0  0  0  0  0  0
   -0.7634    8.2880   -3.0858 H   0  0  0  0  0  0  0  0  0  0  0  0
    3.1791   11.2103    0.4303 H   0  0  0  0  0  0  0  0  0  0  0  0
    2.9061   10.3171   -1.1040 H   0  0  0  0  0  0  0  0  0  0  0  0
    3.8825   11.8249   -1.1040 H   0  0  0  0  0  0  0  0  0  0  0  0
    1.3805   13.0608    1.0364 H   0  0  0  0  0  0  0  0  0  0  0  0
    2.8546   13.6727    0.0946 H   0  0  0  0  0  0  0  0  0  0  0  0
   -0.0442   14.4712   -0.2859 H   0  0  0  0  0  0  0  0  0  0  0  0
    1.3371   15.4799    0.2989 H   0  0  0  0  0  0  0  0  0  0  0  0
    3.3075   15.4455   -0.8387 H   0  0  0  0  0  0  0  0  0  0  0  0
    3.4413   14.5557   -2.3933 H   0  0  0  0  0  0  0  0  0  0  0  0
    3.0650   16.3121   -2.3933 H   0  0  0  0  0  0  0  0  0  0  0  0
  1  2  1  0
  2  3  1  0
  3  4  1  0
  4  5  1  0
  5  6  1  0
  6  7  1  0
  7  8  1  0
  7  9  1  0
  2 10  1  0
 10 11  1  0
 11 12  1  0
 12 13  1  0
 13 14  1  1
 13 15  1  0
 15 16  1  0
 16 17  1  0
 17 18  2  0
 18 19  1  0
 19 20  1  0
 20 21  1  0
 21 22  1  0
 22 23  1  0
 22 24  1  0
 24 25  1  0
 24 26  1  0
 19 27  1  0
 27 28  1  1
 27 29  1  0
 29 30  1  0
 30 31  1  0
 31 32  1  1
  7  5  1  0
 31 10  1  0
 31 13  1  0
 27 15  1  0
 24 18  1  0
  1 33  1  0
  1 34  1  0
  1 35  1  0
  2 36  1  6
  3 37  1  0
  3 38  1  0
  4 39  1  0
  4 40  1  0
  5 41  1  1
  8 42  1  0
  8 43  1  0
  8 44  1  0
  9 45  1  0
  9 46  1  0
  9 47  1  0
 10 48  1  6
 11 49  1  0
 11 50  1  0
 12 51  1  0
 12 52  1  0
 14 53  1  0
 14 54  1  0
 14 55  1  0
 15 56  1  6
 16 57  1  0
 16 58  1  0
 17 59  1  0
 19 60  1  1
 20 61  1  0
 20 62  1  0
 21 63  1  0
 21 64  1  0
 22 65  1  1
 23 66  1  0
 25 67  1  0
 25 68  1  0
 25 69  1  0
 26 70  1  0
 26 71  1  0
 26 72  1  0
 28 73  1  0
 28 74  1  0
 28 75  1  0
 29 76  1  0
 29 77  1  0
 30 78  1  0
 30 79  1  0
 32 80  1  0
 32 81  1  0
 32 82  1  0
M  END
>  <meeko>  (2) 
{"is_sidechain": [false], "intermolecular_energy": 2.731, "internal_energy": -0.839}

$$$$
EPH_relaxed_0001_pdb2pqr_Repair_67_r2_0001_out
     RDKit          3D

 82 86  0  0  0  0  0  0  0  0999 V2000
    2.0760   19.5800   -0.5970 C   0  0  0  0  0  0  0  0  0  0  0  0
    2.4410   18.3700    0.2670 C   0  0  2  0  0  0  0  0  0  0  0  0
    3.8870   17.8960    0.0220 C   0  0  0  0  0  0  0  0  0  0  0  0
    4.8590   18.2780    1.1420 C   0  0  0  0  0  0  0  0  0  0  0  0
    4.1440   18.8830    2.3130 C   0  0  2  0  0  0  0  0  0  0  0  0
    4.5970   20.1930    2.6790 O   0  0  0  0  0  0  0  0  0  0  0  0
    4.8100   19.1540    3.6490 C   0  0  0  0  0  0  0  0  0  0  0  0
    6.2510   18.8270    3.8850 C   0  0  0  0  0  0  0  0  0  0  0  0
    3.9460   19.2800    4.8660 C   0  0  0  0  0  0  0  0  0  0  0  0
    1.4660   17.2290    0.0010 C   0  0  1  0  0  0  0  0  0  0  0  0
    0.1740   17.7020   -0.7160 C   0  0  0  0  0  0  0  0  0  0  0  0
   -0.2540   16.5560   -1.6690 C   0  0  0  0  0  0  0  0  0  0  0  0
    0.6020   15.3450   -1.2300 C   0  0  1  0  0  0  0  0  0  0  0  0
   -0.1400   14.7580    0.0120 C   0  0  0  0  0  0  0  0  0  0  0  0
    0.8590   14.2510   -2.3180 C   0  0  2  0  0  0  0  0  0  0  0  0
   -0.4010   13.5400   -2.8400 C   0  0  0  0  0  0  0  0  0  0  0  0
   -0.7920   12.3070   -2.0940 C   0  0  0  0  0  0  0  0  0  0  0  0
   -0.0080   11.6310   -1.2340 C   0  0  0  0  0  0  0  0  0  0  0  0
    1.4530   12.0420   -1.0110 C   0  0  1  0  0  0  0  0  0  0  0  0
    2.3580   10.7830   -1.0550 C   0  0  0  0  0  0  0  0  0  0  0  0
    1.9010    9.7000   -0.0820 C   0  0  0  0  0  0  0  0  0  0  0  0
    0.4640    9.2770   -0.3720 C   0  0  2  0  0  0  0  0  0  0  0  0
    0.4250    8.6220   -1.6440 O   0  0  0  0  0  0  0  0  0  0  0  0
   -0.5380   10.4650   -0.3640 C   0  0  0  0  0  0  0  0  0  0  0  0
   -0.7210   10.9820    1.0840 C   0  0  0  0  0  0  0  0  0  0  0  0
   -1.9240    9.9240   -0.8100 C   0  0  0  0  0  0  0  0  0  0  0  0
    1.9930   13.2140   -1.9380 C   0  0  1  0  0  0  0  0  0  0  0  0
    2.5270   12.6270   -3.2810 C   0  0  0  0  0  0  0  0  0  0  0  0
    3.2220   13.9030   -1.2350 C   0  0  0  0  0  0  0  0  0  0  0  0
    2.9100   15.0560   -0.2620 C   0  0  0  0  0  0  0  0  0  0  0  0
    1.9570   16.0700   -0.9020 C   0  0  2  0  0  0  0  0  0  0  0  0
    2.6850   16.6930   -2.1420 C   0  0  0  0  0  0  0  0  0  0  0  0
    1.8196   20.4301    0.0522 H   0  0  0  0  0  0  0  0  0  0  0  0
    2.9330   19.8490   -1.2320 H   0  0  0  0  0  0  0  0  0  0  0  0
    1.2132   19.3302   -1.2320 H   0  0  0  0  0  0  0  0  0  0  0  0
    2.3706   18.6816    1.3196 H   0  0  0  0  0  0  0  0  0  0  0  0
    3.8815   16.8002   -0.0741 H   0  0  0  0  0  0  0  0  0  0  0  0
    4.2383   18.3962   -0.8925 H   0  0  0  0  0  0  0  0  0  0  0  0
    5.3906   17.3749    1.4764 H   0  0  0  0  0  0  0  0  0  0  0  0
    5.5627   19.0250    0.7460 H   0  0  0  0  0  0  0  0  0  0  0  0
    3.2129   18.3623    2.0447 H   0  0  0  0  0  0  0  0  0  0  0  0
    6.4446   18.7831    4.9669 H   0  0  0  0  0  0  0  0  0  0  0  0
    6.4851   17.8529    3.4308 H   0  0  0  0  0  0  0  0  0  0  0  0
    6.8826   19.6046    3.4308 H   0  0  0  0  0  0  0  0  0  0  0  0
    4.5683   19.1892    5.7685 H   0  0  0  0  0  0  0  0  0  0  0  0
    3.4472   20.2604    4.8616 H   0  0  0  0  0  0  0  0  0  0  0  0
    3.1880   18.4829    4.8616 H   0  0  0  0  0  0  0  0  0  0  0  0
    1.3196   16.8682    1.0298 H   0  0  0  0  0  0  0  0  0  0  0  0
   -0.6185   17.8974    0.0214 H   0  0  0  0  0  0  0  0  0  0  0  0
    0.3502   18.6339   -1.2732 H   0  0  0  0  0  0  0  0  0  0  0  0
   -1.3257   16.3359   -1.5552 H   0  0  0  0  0  0  0  0  0  0  0  0
   -0.1010   16.8139   -2.7273 H   0  0  0  0  0  0  0  0  0  0  0  0
    0.3328   15.1320    0.9321 H   0  0  0  0  0  0  0  0  0  0  0  0
   -1.1950   15.0686   -0.0105 H   0  0  0  0  0  0  0  0  0  0  0  0
   -0.0805   13.6598   -0.0105 H   0  0  0  0  0  0  0  0  0  0  0  0
    1.2379   14.8438   -3.1636 H   0  0  0  0  0  0  0  0  0  0  0  0
   -1.2392   14.2503   -2.7860 H   0  0  0  0  0  0  0  0  0  0  0  0
   -0.1650   13.2146   -3.8639 H   0  0  0  0  0  0  0  0  0  0  0  0
   -1.8072   11.9181   -2.2616 H   0  0  0  0  0  0  0  0  0  0  0  0
    1.4915   12.4945   -0.0091 H   0  0  0  0  0  0  0  0  0  0  0  0
    2.3400   10.3712   -2.0749 H   0  0  0  0  0  0  0  0  0  0  0  0
    3.3723   11.0903   -0.7605 H   0  0  0  0  0  0  0  0  0  0  0  0
    2.5607    8.8254   -0.1812 H   0  0  0  0  0  0  0  0  0  0  0  0
    1.9485   10.1038    0.9401 H   0  0  0  0  0  0  0  0  0  0  0  0
    0.1502    8.5979    0.4344 H   0  0  0  0  0  0  0  0  0  0  0  0
    0.6280    7.6830   -1.4980 H   0  0  0  0  0  0  0  0  0  0  0  0
   -0.4407   10.1902    1.7942 H   0  0  0  0  0  0  0  0  0  0  0  0
   -0.0795   11.8613    1.2432 H   0  0  0  0  0  0  0  0  0  0  0  0
   -1.7728   11.2619    1.2432 H   0  0  0  0  0  0  0  0  0  0  0  0
   -2.5286    9.6880    0.0781 H   0  0  0  0  0  0  0  0  0  0  0  0
   -2.4391   10.6871   -1.4120 H   0  0  0  0  0  0  0  0  0  0  0  0
   -1.7859    9.0138   -1.4120 H   0  0  0  0  0  0  0  0  0  0  0  0
    3.2534   11.8286   -3.0691 H   0  0  0  0  0  0  0  0  0  0  0  0
    1.6877   12.2149   -3.8605 H   0  0  0  0  0  0  0  0  0  0  0  0
    3.0165   13.4236   -3.8605 H   0  0  0  0  0  0  0  0  0  0  0  0
    3.7599   13.1274   -0.6701 H   0  0  0  0  0  0  0  0  0  0  0  0
    3.7988   14.3633   -2.0507 H   0  0  0  0  0  0  0  0  0  0  0  0
    2.4423   14.6451    0.6449 H   0  0  0  0  0  0  0  0  0  0  0  0
    3.8507   15.5681   -0.0115 H   0  0  0  0  0  0  0  0  0  0  0  0
    3.4788   17.3723   -1.7980 H   0  0  0  0  0  0  0  0  0  0  0  0
    3.1276   15.8896   -2.7492 H   0  0  0  0  0  0  0  0  0  0  0  0
    1.9596   17.2544   -2.7492 H   0  0  0  0  0  0  0  0  0  0  0  0
  1  2  1  0
  2  3  1  0
  3  4  1  0
  4  5  1  0
  5  6  1  0
  6  7  1  0
  7  8  1  0
  7  9  1  0
  2 10  1  0
 10 11  1  0
 11 12  1  0
 12 13  1  0
 13 14  1  1
 13 15  1  0
 15 16  1  0
 16 17  1  0
 17 18  2  0
 18 19  1  0
 19 20  1  0
 20 21  1  0
 21 22  1  0
 22 23  1  0
 22 24  1  0
 24 25  1  0
 24 26  1  0
 19 27  1  0
 27 28  1  6
 27 29  1  0
 29 30  1  0
 30 31  1  0
 31 32  1  6
  7  5  1  0
 31 10  1  0
 31 13  1  0
 27 15  1  0
 24 18  1  0
  1 33  1  0
  1 34  1  0
  1 35  1  0
  2 36  1  1
  3 37  1  0
  3 38  1  0
  4 39  1  0
  4 40  1  0
  5 41  1  1
  8 42  1  0
  8 43  1  0
  8 44  1  0
  9 45  1  0
  9 46  1  0
  9 47  1  0
 10 48  1  1
 11 49  1  0
 11 50  1  0
 12 51  1  0
 12 52  1  0
 14 53  1  0
 14 54  1  0
 14 55  1  0
 15 56  1  6
 16 57  1  0
 16 58  1  0
 17 59  1  0
 19 60  1  1
 20 61  1  0
 20 62  1  0
 21 63  1  0
 21 64  1  0
 22 65  1  1
 23 66  1  0
 25 67  1  0
 25 68  1  0
 25 69  1  0
 26 70  1  0
 26 71  1  0
 26 72  1  0
 28 73  1  0
 28 74  1  0
 28 75  1  0
 29 76  1  0
 29 77  1  0
 30 78  1  0
 30 79  1  0
 32 80  1  0
 32 81  1  0
 32 82  1  0
M  END
>  <meeko>  (3) 
{"is_sidechain": [false], "intermolecular_energy": 2.731, "internal_energy": -0.839}

$$$$
EPH_relaxed_0001_pdb2pqr_Repair_67_r2_0001_out
     RDKit          3D

 82 86  0  0  0  0  0  0  0  0999 V2000
    0.4170   18.3920    0.0110 C   0  0  0  0  0  0  0  0  0  0  0  0
    1.5080   17.3470   -0.2400 C   0  0  2  0  0  0  0  0  0  0  0  0
    2.6980   17.9280   -1.0290 C   0  0  0  0  0  0  0  0  0  0  0  0
    3.9270   18.2190   -0.1630 C   0  0  0  0  0  0  0  0  0  0  0  0
    3.5420   18.6720    1.2130 C   0  0  2  0  0  0  0  0  0  0  0  0
    3.8070   20.0550    1.4840 O   0  0  0  0  0  0  0  0  0  0  0  0
    4.5470   19.1030    2.2640 C   0  0  0  0  0  0  0  0  0  0  0  0
    6.0180   19.1000    1.9850 C   0  0  0  0  0  0  0  0  0  0  0  0
    4.1410   19.0570    3.7040 C   0  0  0  0  0  0  0  0  0  0  0  0
    0.9230   16.1530   -0.9840 C   0  0  1  0  0  0  0  0  0  0  0  0
    0.7670   16.4150   -2.5060 C   0  0  0  0  0  0  0  0  0  0  0  0
    1.0460   15.0690   -3.2230 C   0  0  0  0  0  0  0  0  0  0  0  0
    1.0250   14.0130   -2.0920 C   0  0  1  0  0  0  0  0  0  0  0  0
   -0.4880   13.7150   -1.8500 C   0  0  0  0  0  0  0  0  0  0  0  0
    1.8370   12.7030   -2.3550 C   0  0  2  0  0  0  0  0  0  0  0  0
    1.3480   11.8600   -3.5460 C   0  0  0  0  0  0  0  0  0  0  0  0
    0.3230   10.8250   -3.2160 C   0  0  0  0  0  0  0  0  0  0  0  0
    0.0240   10.3880   -1.9790 C   0  0  0  0  0  0  0  0  0  0  0  0
    0.8150   10.8740   -0.7580 C   0  0  1  0  0  0  0  0  0  0  0  0
    1.1880    9.6610    0.1340 C   0  0  0  0  0  0  0  0  0  0  0  0
   -0.0270    8.8240    0.5220 C   0  0  0  0  0  0  0  0  0  0  0  0
   -0.7540    8.3100   -0.7190 C   0  0  2  0  0  0  0  0  0  0  0  0
    0.0930    7.3770   -1.3960 O   0  0  0  0  0  0  0  0  0  0  0  0
   -1.1710    9.4430   -1.6970 C   0  0  0  0  0  0  0  0  0  0  0  0
   -2.3140   10.2790   -1.0690 C   0  0  0  0  0  0  0  0  0  0  0  0
   -1.7660    8.7810   -2.9690 C   0  0  0  0  0  0  0  0  0  0  0  0
    2.0610   11.8100   -1.0680 C   0  0  1  0  0  0  0  0  0  0  0  0
    3.3250   10.9400   -1.3440 C   0  0  0  0  0  0  0  0  0  0  0  0
    2.3860   12.6720    0.2090 C   0  0  0  0  0  0  0  0  0  0  0  0
    1.6400   14.0120    0.3510 C   0  0  0  0  0  0  0  0  0  0  0  0
    1.7240   14.8270   -0.9430 C   0  0  2  0  0  0  0  0  0  0  0  0
    3.2330   15.1610   -1.2010 C   0  0  0  0  0  0  0  0  0  0  0  0
    0.2785   18.5246    1.0942 H   0  0  0  0  0  0  0  0  0  0  0  0
    0.7157   19.3496   -0.4404 H   0  0  0  0  0  0  0  0  0  0  0  0
   -0.5269   18.0524   -0.4404 H   0  0  0  0  0  0  0  0  0  0  0  0
    1.8883   17.0239    0.7403 H   0  0  0  0  0  0  0  0  0  0  0  0
    2.9847   17.2055   -1.8073 H   0  0  0  0  0  0  0  0  0  0  0  0
    2.3665   18.8886   -1.4500 H   0  0  0  0  0  0  0  0  0  0  0  0
    4.5300   17.3027   -0.0808 H   0  0  0  0  0  0  0  0  0  0  0  0
    4.4999   19.0268   -0.6418 H   0  0  0  0  0  0  0  0  0  0  0  0
    2.7070   17.9564    1.2403 H   0  0  0  0  0  0  0  0  0  0  0  0
    6.5715   19.0989    2.9356 H   0  0  0  0  0  0  0  0  0  0  0  0
    6.2798   18.2013    1.4072 H   0  0  0  0  0  0  0  0  0  0  0  0
    6.2834   19.9976    1.4072 H   0  0  0  0  0  0  0  0  0  0  0  0
    5.0329   19.1581    4.3398 H   0  0  0  0  0  0  0  0  0  0  0  0
    3.4447   19.8820    3.9152 H   0  0  0  0  0  0  0  0  0  0  0  0
    3.6470   18.0971    3.9152 H   0  0  0  0  0  0  0  0  0  0  0  0
   -0.0226   16.0386   -0.4337 H   0  0  0  0  0  0  0  0  0  0  0  0
   -0.2542   16.7581   -2.7285 H   0  0  0  0  0  0  0  0  0  0  0  0
    1.4641   17.1952   -2.8457 H   0  0  0  0  0  0  0  0  0  0  0  0
    0.2647   14.8563   -3.9675 H   0  0  0  0  0  0  0  0  0  0  0  0
    2.0010   15.0770   -3.7688 H   0  0  0  0  0  0  0  0  0  0  0  0
   -0.6856   13.6761   -0.7686 H   0  0  0  0  0  0  0  0  0  0  0  0
   -1.0958   14.5107   -2.3054 H   0  0  0  0  0  0  0  0  0  0  0  0
   -0.7487   12.7482   -2.3054 H   0  0  0  0  0  0  0  0  0  0  0  0
    2.8230   13.0918   -2.6493 H   0  0  0  0  0  0  0  0  0  0  0  0
    0.9138   12.5433   -4.2907 H   0  0  0  0  0  0  0  0  0  0  0  0
    2.2281   11.3112   -3.9125 H   0  0  0  0  0  0  0  0  0  0  0  0
   -0.2344   10.3827   -4.0549 H   0  0  0  0  0  0  0  0  0  0  0  0
    0.1420   11.5481   -0.2078 H   0  0  0  0  0  0  0  0  0  0  0  0
    1.8946    9.0226   -0.4166 H   0  0  0  0  0  0  0  0  0  0  0  0
    1.6331   10.0525    1.0606 H   0  0  0  0  0  0  0  0  0  0  0  0
    0.3045    7.9666    1.1261 H   0  0  0  0  0  0  0  0  0  0  0  0
   -0.7191    9.4556    1.0982 H   0  0  0  0  0  0  0  0  0  0  0  0
   -1.6840    7.8291   -0.3815 H   0  0  0  0  0  0  0  0  0  0  0  0
    0.6470    7.8790   -2.0180 H   0  0  0  0  0  0  0  0  0  0  0  0
   -2.2452   10.2287    0.0277 H   0  0  0  0  0  0  0  0  0  0  0  0
   -2.2240   11.3259   -1.3944 H   0  0  0  0  0  0  0  0  0  0  0  0
   -3.2844    9.8760   -1.3944 H   0  0  0  0  0  0  0  0  0  0  0  0
   -2.4745    7.9927   -2.6748 H   0  0  0  0  0  0  0  0  0  0  0  0
   -2.2905    9.5410   -3.5667 H   0  0  0  0  0  0  0  0  0  0  0  0
   -0.9545    8.3403   -3.5667 H   0  0  0  0  0  0  0  0  0  0  0  0
    3.7735   10.6313   -0.3882 H   0  0  0  0  0  0  0  0  0  0  0  0
    3.0374   10.0476   -1.9193 H   0  0  0  0  0  0  0  0  0  0  0  0
    4.0559   11.5273   -1.9193 H   0  0  0  0  0  0  0  0  0  0  0  0
    2.1454   12.0620    1.0922 H   0  0  0  0  0  0  0  0  0  0  0  0
    3.4476   12.9427    0.1108 H   0  0  0  0  0  0  0  0  0  0  0  0
    0.5833   13.8126    0.5825 H   0  0  0  0  0  0  0  0  0  0  0  0
    2.1095   14.5903    1.1604 H   0  0  0  0  0  0  0  0  0  0  0  0
    3.7528   15.2761   -0.2384 H   0  0  0  0  0  0  0  0  0  0  0  0
    3.6969   14.3438   -1.7728 H   0  0  0  0  0  0  0  0  0  0  0  0
    3.3087   16.0976   -1.7728 H   0  0  0  0  0  0  0  0  0  0  0  0
  1  2  1  0
  2  3  1  0
  3  4  1  0
  4  5  1  0
  5  6  1  0
  6  7  1  0
  7  8  1  0
  7  9  1  0
  2 10  1  0
 10 11  1  0
 11 12  1  0
 12 13  1  0
 13 14  1  1
 13 15  1  0
 15 16  1  0
 16 17  1  0
 17 18  2  0
 18 19  1  0
 19 20  1  0
 20 21  1  0
 21 22  1  0
 22 23  1  0
 22 24  1  0
 24 25  1  0
 24 26  1  0
 19 27  1  0
 27 28  1  6
 27 29  1  0
 29 30  1  0
 30 31  1  0
 31 32  1  6
  7  5  1  0
 31 10  1  0
 31 13  1  0
 27 15  1  0
 24 18  1  0
  1 33  1  0
  1 34  1  0
  1 35  1  0
  2 36  1  1
  3 37  1  0
  3 38  1  0
  4 39  1  0
  4 40  1  0
  5 41  1  1
  8 42  1  0
  8 43  1  0
  8 44  1  0
  9 45  1  0
  9 46  1  0
  9 47  1  0
 10 48  1  1
 11 49  1  0
 11 50  1  0
 12 51  1  0
 12 52  1  0
 14 53  1  0
 14 54  1  0
 14 55  1  0
 15 56  1  6
 16 57  1  0
 16 58  1  0
 17 59  1  0
 19 60  1  1
 20 61  1  0
 20 62  1  0
 21 63  1  0
 21 64  1  0
 22 65  1  1
 23 66  1  0
 25 67  1  0
 25 68  1  0
 25 69  1  0
 26 70  1  0
 26 71  1  0
 26 72  1  0
 28 73  1  0
 28 74  1  0
 28 75  1  0
 29 76  1  0
 29 77  1  0
 30 78  1  0
 30 79  1  0
 32 80  1  0
 32 81  1  0
 32 82  1  0
M  END
>  <meeko>  (4) 
{"is_sidechain": [false], "intermolecular_energy": 2.731, "internal_energy": -0.839}

$$$$
EPH_relaxed_0001_pdb2pqr_Repair_67_r2_0001_out
     RDKit          3D

 82 86  0  0  0  0  0  0  0  0999 V2000
    2.2520   17.9490   -2.6000 C   0  0  0  0  0  0  0  0  0  0  0  0
    0.7280   17.8110   -2.6580 C   0  0  2  0  0  0  0  0  0  0  0  0
    0.0520   18.2860   -1.3570 C   0  0  0  0  0  0  0  0  0  0  0  0
    0.8130   17.8900   -0.0880 C   0  0  0  0  0  0  0  0  0  0  0  0
    1.3440   19.0890    0.6370 C   0  0  2  0  0  0  0  0  0  0  0  0
    2.2480   19.8990   -0.1270 O   0  0  0  0  0  0  0  0  0  0  0  0
    2.8000   19.2510    1.0310 C   0  0  0  0  0  0  0  0  0  0  0  0
    3.8160   18.2000    0.7130 C   0  0  0  0  0  0  0  0  0  0  0  0
    3.1400   20.1930    2.1430 C   0  0  0  0  0  0  0  0  0  0  0  0
    0.3480   16.3630   -2.9450 C   0  0  1  0  0  0  0  0  0  0  0  0
    0.4240   16.0130   -4.4550 C   0  0  0  0  0  0  0  0  0  0  0  0
    0.9000   14.5400   -4.5490 C   0  0  0  0  0  0  0  0  0  0  0  0
    0.7640   13.9930   -3.1090 C   0  0  1  0  0  0  0  0  0  0  0  0
   -0.7460   13.6270   -2.9600 C   0  0  0  0  0  0  0  0  0  0  0  0
    1.6890   12.7890   -2.7360 C   0  0  2  0  0  0  0  0  0  0  0  0
    1.4530   11.5080   -3.5550 C   0  0  0  0  0  0  0  0  0  0  0  0
    0.4570   10.5570   -2.9780 C   0  0  0  0  0  0  0  0  0  0  0  0
   -0.0110   10.5840   -1.7160 C   0  0  0  0  0  0  0  0  0  0  0  0
    0.5410   11.5860   -0.6930 C   0  0  1  0  0  0  0  0  0  0  0  0
    0.8410   10.8520    0.6400 C   0  0  0  0  0  0  0  0  0  0  0  0
   -0.3650   10.0820    1.1690 C   0  0  0  0  0  0  0  0  0  0  0  0
   -0.8480    9.0560    0.1470 C   0  0  2  0  0  0  0  0  0  0  0  0
    0.1550    8.0460   -0.0020 O   0  0  0  0  0  0  0  0  0  0  0  0
   -1.1730    9.6780   -1.2400 C   0  0  0  0  0  0  0  0  0  0  0  0
   -2.4520   10.5440   -1.1350 C   0  0  0  0  0  0  0  0  0  0  0  0
   -1.5110    8.5190   -2.2160 C   0  0  0  0  0  0  0  0  0  0  0  0
    1.7590   12.4800   -1.1860 C   0  0  1  0  0  0  0  0  0  0  0  0
    3.1030   11.7290   -0.9410 C   0  0  0  0  0  0  0  0  0  0  0  0
    1.8180   13.7920   -0.3170 C   0  0  0  0  0  0  0  0  0  0  0  0
    0.9750   14.9860   -0.8020 C   0  0  0  0  0  0  0  0  0  0  0  0
    1.2150   15.2580   -2.2910 C   0  0  2  0  0  0  0  0  0  0  0  0
    2.7210   15.6500   -2.4680 C   0  0  0  0  0  0  0  0  0  0  0  0
    2.5778   17.9785   -1.5498 H   0  0  0  0  0  0  0  0  0  0  0  0
    2.7175   17.0893   -3.1043 H   0  0  0  0  0  0  0  0  0  0  0  0
    2.5555   18.8783   -3.1043 H   0  0  0  0  0  0  0  0  0  0  0  0
    0.3677   18.4578   -3.4715 H   0  0  0  0  0  0  0  0  0  0  0  0
   -0.0266   19.3828   -1.3868 H   0  0  0  0  0  0  0  0  0  0  0  0
   -0.9316   17.7960   -1.3082 H   0  0  0  0  0  0  0  0  0  0  0  0
    0.1318   17.3424    0.5799 H   0  0  0  0  0  0  0  0  0  0  0  0
    1.6665   17.2615   -0.3822 H   0  0  0  0  0  0  0  0  0  0  0  0
    0.4096   19.1863    1.2093 H   0  0  0  0  0  0  0  0  0  0  0  0
    4.2182   17.7839    1.6484 H   0  0  0  0  0  0  0  0  0  0  0  0
    3.3427   17.3974    0.1284 H   0  0  0  0  0  0  0  0  0  0  0  0
    4.6342   18.6459    0.1284 H   0  0  0  0  0  0  0  0  0  0  0  0
    2.9617   19.6989    3.1095 H   0  0  0  0  0  0  0  0  0  0  0  0
    4.1989   20.4813    2.0684 H   0  0  0  0  0  0  0  0  0  0  0  0
    2.5093   21.0912    2.0684 H   0  0  0  0  0  0  0  0  0  0  0  0
   -0.6651   16.3498   -2.5168 H   0  0  0  0  0  0  0  0  0  0  0  0
   -0.5673   16.1212   -4.9194 H   0  0  0  0  0  0  0  0  0  0  0  0
    1.1159   16.6862   -4.9823 H   0  0  0  0  0  0  0  0  0  0  0  0
    0.2642   13.9700   -5.2425 H   0  0  0  0  0  0  0  0  0  0  0  0
    1.9283   14.4576   -4.9310 H   0  0  0  0  0  0  0  0  0  0  0  0
   -1.0045   13.5643   -1.8926 H   0  0  0  0  0  0  0  0  0  0  0  0
   -1.3604   14.4022   -3.4412 H   0  0  0  0  0  0  0  0  0  0  0  0
   -0.9373   12.6565   -3.4412 H   0  0  0  0  0  0  0  0  0  0  0  0
    2.6832   13.1547   -3.0323 H   0  0  0  0  0  0  0  0  0  0  0  0
    1.1015   11.8035   -4.5546 H   0  0  0  0  0  0  0  0  0  0  0  0
    2.4139   10.9727   -3.5666 H   0  0  0  0  0  0  0  0  0  0  0  0
    0.0730    9.7672   -3.6404 H   0  0  0  0  0  0  0  0  0  0  0  0
   -0.2528   12.3315   -0.5378 H   0  0  0  0  0  0  0  0  0  0  0  0
    1.6663   10.1439    0.4745 H   0  0  0  0  0  0  0  0  0  0  0  0
    1.1047   11.6139    1.3883 H   0  0  0  0  0  0  0  0  0  0  0  0
   -0.0815    9.5613    2.0956 H   0  0  0  0  0  0  0  0  0  0  0  0
   -1.1797   10.7953    1.3626 H   0  0  0  0  0  0  0  0  0  0  0  0
   -1.7880    8.6297    0.5273 H   0  0  0  0  0  0  0  0  0  0  0  0
   -0.2910    7.2270   -0.2740 H   0  0  0  0  0  0  0  0  0  0  0  0
   -2.6967   10.7097   -0.0754 H   0  0  0  0  0  0  0  0  0  0  0  0
   -2.2805   11.5125   -1.6275 H   0  0  0  0  0  0  0  0  0  0  0  0
   -3.2876   10.0251   -1.6275 H   0  0  0  0  0  0  0  0  0  0  0  0
   -1.7734    7.6193   -1.6400 H   0  0  0  0  0  0  0  0  0  0  0  0
   -2.3618    8.8097   -2.8498 H   0  0  0  0  0  0  0  0  0  0  0  0
   -0.6373    8.3068   -2.8498 H   0  0  0  0  0  0  0  0  0  0  0  0
    3.2768   11.6319    0.1408 H   0  0  0  0  0  0  0  0  0  0  0  0
    3.0521   10.7286   -1.3955 H   0  0  0  0  0  0  0  0  0  0  0  0
    3.9284   12.2967   -1.3955 H   0  0  0  0  0  0  0  0  0  0  0  0
    1.4779   13.5348    0.6970 H   0  0  0  0  0  0  0  0  0  0  0  0
    2.8620   14.1325   -0.3813 H   0  0  0  0  0  0  0  0  0  0  0  0
   -0.0903   14.7620   -0.6442 H   0  0  0  0  0  0  0  0  0  0  0  0
    1.2695   15.8785   -0.2305 H   0  0  0  0  0  0  0  0  0  0  0  0
    3.1870   15.7713   -1.4790 H   0  0  0  0  0  0  0  0  0  0  0  0
    3.2431   14.8578   -3.0247 H   0  0  0  0  0  0  0  0  0  0  0  0
    2.7906   16.5962   -3.0247 H   0  0  0  0  0  0  0  0  0  0  0  0
  1  2  1  0
  2  3  1  0
  3  4  1  0
  4  5  1  0
  5  6  1  0
  6  7  1  0
  7  8  1  0
  7  9  1  0
  2 10  1  0
 10 11  1  0
 11 12  1  0
 12 13  1  0
 13 14  1  1
 13 15  1  0
 15 16  1  0
 16 17  1  0
 17 18  2  0
 18 19  1  0
 19 20  1  0
 20 21  1  0
 21 22  1  0
 22 23  1  0
 22 24  1  0
 24 25  1  0
 24 26  1  0
 19 27  1  0
 27 28  1  6
 27 29  1  0
 29 30  1  0
 30 31  1  0
 31 32  1  1
  7  5  1  0
 31 10  1  0
 31 13  1  0
 27 15  1  0
 24 18  1  0
  1 33  1  0
  1 34  1  0
  1 35  1  0
  2 36  1  6
  3 37  1  0
  3 38  1  0
  4 39  1  0
  4 40  1  0
  5 41  1  1
  8 42  1  0
  8 43  1  0
  8 44  1  0
  9 45  1  0
  9 46  1  0
  9 47  1  0
 10 48  1  1
 11 49  1  0
 11 50  1  0
 12 51  1  0
 12 52  1  0
 14 53  1  0
 14 54  1  0
 14 55  1  0
 15 56  1  6
 16 57  1  0
 16 58  1  0
 17 59  1  0
 19 60  1  1
 20 61  1  0
 20 62  1  0
 21 63  1  0
 21 64  1  0
 22 65  1  1
 23 66  1  0
 25 67  1  0
 25 68  1  0
 25 69  1  0
 26 70  1  0
 26 71  1  0
 26 72  1  0
 28 73  1  0
 28 74  1  0
 28 75  1  0
 29 76  1  0
 29 77  1  0
 30 78  1  0
 30 79  1  0
 32 80  1  0
 32 81  1  0
 32 82  1  0
M  END
>  <meeko>  (5) 
{"is_sidechain": [false], "intermolecular_energy": 2.731, "internal_energy": -0.839}

$$$$
EPH_relaxed_0001_pdb2pqr_Repair_67_r2_0001_out
     RDKit          3D

 82 86  0  0  0  0  0  0  0  0999 V2000
   -3.3750    9.2690    0.5550 C   0  0  0  0  0  0  0  0  0  0  0  0
   -2.5700    9.6530   -0.6900 C   0  0  2  0  0  0  0  0  0  0  0  0
   -1.9050    8.4290   -1.3510 C   0  0  0  0  0  0  0  0  0  0  0  0
   -2.8310    7.6640   -2.3020 C   0  0  0  0  0  0  0  0  0  0  0  0
   -4.2660    7.7710   -1.8830 C   0  0  2  0  0  0  0  0  0  0  0  0
   -4.8150    6.5720   -1.3200 O   0  0  0  0  0  0  0  0  0  0  0  0
   -5.3930    7.0130   -2.5590 C   0  0  0  0  0  0  0  0  0  0  0  0
   -5.1340    6.0950   -3.7120 C   0  0  0  0  0  0  0  0  0  0  0  0
   -6.7890    7.5350   -2.4220 C   0  0  0  0  0  0  0  0  0  0  0  0
   -1.5120   10.6870   -0.3260 C   0  0  1  0  0  0  0  0  0  0  0  0
   -0.4090   10.1130    0.6040 C   0  0  0  0  0  0  0  0  0  0  0  0
    0.9180   10.8070    0.2050 C   0  0  0  0  0  0  0  0  0  0  0  0
    0.4870   11.9850   -0.7000 C   0  0  1  0  0  0  0  0  0  0  0  0
    0.0490   13.1100    0.2890 C   0  0  0  0  0  0  0  0  0  0  0  0
    1.5520   12.4970   -1.7230 C   0  0  2  0  0  0  0  0  0  0  0  0
    2.8350   13.0710   -1.0960 C   0  0  0  0  0  0  0  0  0  0  0  0
    2.8080   14.5370   -0.8170 C   0  0  0  0  0  0  0  0  0  0  0  0
    1.9140   15.4110   -1.3150 C   0  0  0  0  0  0  0  0  0  0  0  0
    0.8570   14.9640   -2.3320 C   0  0  1  0  0  0  0  0  0  0  0  0
    0.8010   15.9810   -3.5020 C   0  0  0  0  0  0  0  0  0  0  0  0
    0.5800   17.4130   -3.0230 C   0  0  0  0  0  0  0  0  0  0  0  0
    1.6830   17.8410   -2.0590 C   0  0  2  0  0  0  0  0  0  0  0  0
    2.9190   17.9150   -2.7760 O   0  0  0  0  0  0  0  0  0  0  0  0
    1.8400   16.8850   -0.8430 C   0  0  0  0  0  0  0  0  0  0  0  0
    0.6180   17.0330    0.0970 C   0  0  0  0  0  0  0  0  0  0  0  0
    3.0750   17.3500   -0.0260 C   0  0  0  0  0  0  0  0  0  0  0  0
    0.9720   13.4610   -2.8360 C   0  0  1  0  0  0  0  0  0  0  0  0
    1.9480   13.3790   -4.0490 C   0  0  0  0  0  0  0  0  0  0  0  0
   -0.4340   12.9870   -3.3640 C   0  0  0  0  0  0  0  0  0  0  0  0
   -1.3970   12.3790   -2.3260 C   0  0  0  0  0  0  0  0  0  0  0  0
   -0.6950   11.3080   -1.4870 C   0  0  2  0  0  0  0  0  0  0  0  0
   -0.2620   10.1520   -2.4510 C   0  0  0  0  0  0  0  0  0  0  0  0
   -2.8068    9.5400    1.4570 H   0  0  0  0  0  0  0  0  0  0  0  0
   -4.3349    9.8062    0.5511 H   0  0  0  0  0  0  0  0  0  0  0  0
   -3.5615    8.1849    0.5511 H   0  0  0  0  0  0  0  0  0  0  0  0
   -3.2728   10.0815   -1.4197 H   0  0  0  0  0  0  0  0  0  0  0  0
   -1.0303    8.7747   -1.9213 H   0  0  0  0  0  0  0  0  0  0  0  0
   -1.6312    7.7358   -0.5420 H   0  0  0  0  0  0  0  0  0  0  0  0
   -2.7234    8.0790   -3.3150 H   0  0  0  0  0  0  0  0  0  0  0  0
   -2.5451    6.6021   -2.2789 H   0  0  0  0  0  0  0  0  0  0  0  0
   -4.1389    8.8343   -1.6317 H   0  0  0  0  0  0  0  0  0  0  0  0
   -4.8536    5.1010   -3.3335 H   0  0  0  0  0  0  0  0  0  0  0  0
   -6.0434    6.0107   -4.3251 H   0  0  0  0  0  0  0  0  0  0  0  0
   -4.3146    6.4985   -4.3251 H   0  0  0  0  0  0  0  0  0  0  0  0
   -7.0421    7.6296   -1.3557 H   0  0  0  0  0  0  0  0  0  0  0  0
   -6.8609    8.5208   -2.9048 H   0  0  0  0  0  0  0  0  0  0  0  0
   -7.4900    6.8383   -2.9048 H   0  0  0  0  0  0  0  0  0  0  0  0
   -2.1541   11.4525    0.1341 H   0  0  0  0  0  0  0  0  0  0  0  0
   -0.6490   10.3304    1.6553 H   0  0  0  0  0  0  0  0  0  0  0  0
   -0.3312    9.0210    0.4972 H   0  0  0  0  0  0  0  0  0  0  0  0
    1.4465   11.1757    1.0965 H   0  0  0  0  0  0  0  0  0  0  0  0
    1.6099   10.1209   -0.3055 H   0  0  0  0  0  0  0  0  0  0  0  0
    0.1845   12.7619    1.3236 H   0  0  0  0  0  0  0  0  0  0  0  0
    0.6638   14.0064    0.1202 H   0  0  0  0  0  0  0  0  0  0  0  0
   -1.0101   13.3547    0.1202 H   0  0  0  0  0  0  0  0  0  0  0  0
    1.8555   11.5698   -2.2310 H   0  0  0  0  0  0  0  0  0  0  0  0
    3.0122   12.5473   -0.1450 H   0  0  0  0  0  0  0  0  0  0  0  0
    3.6316   12.9174   -1.8389 H   0  0  0  0  0  0  0  0  0  0  0  0
    3.5843   14.9367   -0.1479 H   0  0  0  0  0  0  0  0  0  0  0  0
   -0.1017   14.9620   -1.7927 H   0  0  0  0  0  0  0  0  0  0  0  0
    1.7517   15.9365   -4.0536 H   0  0  0  0  0  0  0  0  0  0  0  0
   -0.0514   15.7076   -4.1413 H   0  0  0  0  0  0  0  0  0  0  0  0
    0.5795   18.0874   -3.8920 H   0  0  0  0  0  0  0  0  0  0  0  0
   -0.3850   17.4629   -2.4974 H   0  0  0  0  0  0  0  0  0  0  0  0
    1.4013   18.8229   -1.6509 H   0  0  0  0  0  0  0  0  0  0  0  0
    3.1730   17.0080   -3.0190 H   0  0  0  0  0  0  0  0  0  0  0  0
    0.9536   16.9924    1.1438 H   0  0  0  0  0  0  0  0  0  0  0  0
    0.1243   17.9975   -0.0926 H   0  0  0  0  0  0  0  0  0  0  0  0
   -0.0917   16.2142   -0.0926 H   0  0  0  0  0  0  0  0  0  0  0  0
    2.8559   17.2675    1.0488 H   0  0  0  0  0  0  0  0  0  0  0  0
    3.9387   16.7155   -0.2739 H   0  0  0  0  0  0  0  0  0  0  0  0
    3.3057   18.3966   -0.2739 H   0  0  0  0  0  0  0  0  0  0  0  0
    2.9816   13.2922   -3.6827 H   0  0  0  0  0  0  0  0  0  0  0  0
    1.7003   12.4985   -4.6600 H   0  0  0  0  0  0  0  0  0  0  0  0
    1.8507   14.2885   -4.6600 H   0  0  0  0  0  0  0  0  0  0  0  0
   -0.9334   13.8596   -3.8102 H   0  0  0  0  0  0  0  0  0  0  0  0
   -0.2167   12.1703   -4.0681 H   0  0  0  0  0  0  0  0  0  0  0  0
   -1.7592   13.1767   -1.6609 H   0  0  0  0  0  0  0  0  0  0  0  0
   -2.2372   11.9109   -2.8597 H   0  0  0  0  0  0  0  0  0  0  0  0
    0.0633    9.2836   -1.8593 H   0  0  0  0  0  0  0  0  0  0  0  0
   -1.1137    9.8652   -3.0854 H   0  0  0  0  0  0  0  0  0  0  0  0
    0.5685   10.4953   -3.0854 H   0  0  0  0  0  0  0  0  0  0  0  0
  1  2  1  0
  2  3  1  0
  3  4  1  0
  4  5  1  0
  5  6  1  0
  6  7  1  0
  7  8  1  0
  7  9  1  0
  2 10  1  0
 10 11  1  0
 11 12  1  0
 12 13  1  0
 13 14  1  1
 13 15  1  0
 15 16  1  0
 16 17  1  0
 17 18  2  0
 18 19  1  0
 19 20  1  0
 20 21  1  0
 21 22  1  0
 22 23  1  0
 22 24  1  0
 24 25  1  0
 24 26  1  0
 19 27  1  0
 27 28  1  6
 27 29  1  0
 29 30  1  0
 30 31  1  0
 31 32  1  6
  7  5  1  0
 31 10  1  0
 31 13  1  0
 27 15  1  0
 24 18  1  0
  1 33  1  0
  1 34  1  0
  1 35  1  0
  2 36  1  6
  3 37  1  0
  3 38  1  0
  4 39  1  0
  4 40  1  0
  5 41  1  1
  8 42  1  0
  8 43  1  0
  8 44  1  0
  9 45  1  0
  9 46  1  0
  9 47  1  0
 10 48  1  1
 11 49  1  0
 11 50  1  0
 12 51  1  0
 12 52  1  0
 14 53  1  0
 14 54  1  0
 14 55  1  0
 15 56  1  6
 16 57  1  0
 16 58  1  0
 17 59  1  0
 19 60  1  1
 20 61  1  0
 20 62  1  0
 21 63  1  0
 21 64  1  0
 22 65  1  1
 23 66  1  0
 25 67  1  0
 25 68  1  0
 25 69  1  0
 26 70  1  0
 26 71  1  0
 26 72  1  0
 28 73  1  0
 28 74  1  0
 28 75  1  0
 29 76  1  0
 29 77  1  0
 30 78  1  0
 30 79  1  0
 32 80  1  0
 32 81  1  0
 32 82  1  0
M  END
>  <meeko>  (6) 
{"is_sidechain": [false], "intermolecular_energy": 2.731, "internal_energy": -0.839}

$$$$
EPH_relaxed_0001_pdb2pqr_Repair_67_r2_0001_out
     RDKit          3D

 82 86  0  0  0  0  0  0  0  0999 V2000
    3.7640   17.9690    0.7020 C   0  0  0  0  0  0  0  0  0  0  0  0
    2.6960   18.4300   -0.2940 C   0  0  2  0  0  0  0  0  0  0  0  0
    1.9660   19.7010    0.1840 C   0  0  0  0  0  0  0  0  0  0  0  0
    0.7220   19.4140    1.0300 C   0  0  0  0  0  0  0  0  0  0  0  0
   -0.5000   20.0650    0.4570 C   0  0  2  0  0  0  0  0  0  0  0  0
   -1.5960   20.1920    1.3730 O   0  0  0  0  0  0  0  0  0  0  0  0
   -1.8130   19.3360    0.2400 C   0  0  0  0  0  0  0  0  0  0  0  0
   -1.9690   17.8890    0.5910 C   0  0  0  0  0  0  0  0  0  0  0  0
   -2.7820   19.8890   -0.7580 C   0  0  0  0  0  0  0  0  0  0  0  0
    1.6900   17.3100   -0.5330 C   0  0  1  0  0  0  0  0  0  0  0  0
    0.4910   17.7610   -1.4080 C   0  0  0  0  0  0  0  0  0  0  0  0
    0.0880   16.5420   -2.2770 C   0  0  0  0  0  0  0  0  0  0  0  0
    0.8390   15.3470   -1.6450 C   0  0  1  0  0  0  0  0  0  0  0  0
   -0.0360   14.9240   -0.4230 C   0  0  0  0  0  0  0  0  0  0  0  0
    1.1330   14.1370   -2.5910 C   0  0  2  0  0  0  0  0  0  0  0  0
   -0.1130   13.4290   -3.1520 C   0  0  0  0  0  0  0  0  0  0  0  0
   -0.6290   12.2980   -2.3260 C   0  0  0  0  0  0  0  0  0  0  0  0
    0.0420   11.6820   -1.3350 C   0  0  0  0  0  0  0  0  0  0  0  0
    1.4980   12.0520   -1.0220 C   0  0  1  0  0  0  0  0  0  0  0  0
    2.3370   10.7570   -0.8590 C   0  0  0  0  0  0  0  0  0  0  0  0
    1.7430    9.8010    0.1710 C   0  0  0  0  0  0  0  0  0  0  0  0
    0.3160    9.4110   -0.2050 C   0  0  2  0  0  0  0  0  0  0  0  0
    0.3530    8.6310   -1.4040 O   0  0  0  0  0  0  0  0  0  0  0  0
   -0.6200   10.6350   -0.4060 C   0  0  0  0  0  0  0  0  0  0  0  0
   -0.9000   11.3060    0.9610 C   0  0  0  0  0  0  0  0  0  0  0  0
   -1.9880   10.1100   -0.9200 C   0  0  0  0  0  0  0  0  0  0  0  0
    2.1750   13.0980   -2.0090 C   0  0  1  0  0  0  0  0  0  0  0  0
    2.7910   12.3530   -3.2320 C   0  0  0  0  0  0  0  0  0  0  0  0
    3.3730   13.8020   -1.2680 C   0  0  0  0  0  0  0  0  0  0  0  0
    3.0370   15.0620   -0.4470 C   0  0  0  0  0  0  0  0  0  0  0  0
    2.1970   16.0440   -1.2690 C   0  0  2  0  0  0  0  0  0  0  0  0
    3.0590   16.5040   -2.4930 C   0  0  0  0  0  0  0  0  0  0  0  0
    3.4004   18.1259    1.7282 H   0  0  0  0  0  0  0  0  0  0  0  0
    3.9734   16.9004    0.5466 H   0  0  0  0  0  0  0  0  0  0  0  0
    4.6853   18.5496    0.5466 H   0  0  0  0  0  0  0  0  0  0  0  0
    3.2071   18.6778   -1.2360 H   0  0  0  0  0  0  0  0  0  0  0  0
    2.6662   20.2978    0.7870 H   0  0  0  0  0  0  0  0  0  0  0  0
    1.6271   20.2352   -0.7159 H   0  0  0  0  0  0  0  0  0  0  0  0
    0.5611   18.3266    1.0699 H   0  0  0  0  0  0  0  0  0  0  0  0
    0.8895   19.8249    2.0365 H   0  0  0  0  0  0  0  0  0  0  0  0
    0.1155   20.6898   -0.2069 H   0  0  0  0  0  0  0  0  0  0  0  0
   -1.9811   17.7764    1.6851 H   0  0  0  0  0  0  0  0  0  0  0  0
   -2.9132   17.5100    0.1729 H   0  0  0  0  0  0  0  0  0  0  0  0
   -1.1273   17.3175    0.1729 H   0  0  0  0  0  0  0  0  0  0  0  0
   -3.6199   20.3672   -0.2295 H   0  0  0  0  0  0  0  0  0  0  0  0
   -2.2739   20.6332   -1.3889 H   0  0  0  0  0  0  0  0  0  0  0  0
   -3.1643   19.0730   -1.3889 H   0  0  0  0  0  0  0  0  0  0  0  0
    1.4370   17.0637    0.5088 H   0  0  0  0  0  0  0  0  0  0  0  0
   -0.3509   18.0655   -0.7689 H   0  0  0  0  0  0  0  0  0  0  0  0
    0.7626   18.6218   -2.0367 H   0  0  0  0  0  0  0  0  0  0  0  0
   -0.9995   16.3809   -2.2395 H   0  0  0  0  0  0  0  0  0  0  0  0
    0.3449   16.6825   -3.3373 H   0  0  0  0  0  0  0  0  0  0  0  0
    0.4893   15.1779    0.5095 H   0  0  0  0  0  0  0  0  0  0  0  0
   -0.9978   15.4566   -0.4588 H   0  0  0  0  0  0  0  0  0  0  0  0
   -0.2160   13.8394   -0.4588 H   0  0  0  0  0  0  0  0  0  0  0  0
    1.6136   14.6229   -3.4529 H   0  0  0  0  0  0  0  0  0  0  0  0
   -0.9153   14.1757   -3.2451 H   0  0  0  0  0  0  0  0  0  0  0  0
    0.1931   12.9895   -4.1128 H   0  0  0  0  0  0  0  0  0  0  0  0
   -1.6445   11.9370   -2.5459 H   0  0  0  0  0  0  0  0  0  0  0  0
    1.4745   12.6039   -0.0708 H   0  0  0  0  0  0  0  0  0  0  0  0
    2.3850   10.2433   -1.8305 H   0  0  0  0  0  0  0  0  0  0  0  0
    3.3369   11.0492   -0.5058 H   0  0  0  0  0  0  0  0  0  0  0  0
    2.3631    8.8937    0.2196 H   0  0  0  0  0  0  0  0  0  0  0  0
    1.7228   10.3062    1.1479 H   0  0  0  0  0  0  0  0  0  0  0  0
   -0.1004    8.8323    0.6327 H   0  0  0  0  0  0  0  0  0  0  0  0
    0.7750    7.7820   -1.1900 H   0  0  0  0  0  0  0  0  0  0  0  0
   -0.6137   10.6199    1.7717 H   0  0  0  0  0  0  0  0  0  0  0  0
   -0.3137   12.2333    1.0412 H   0  0  0  0  0  0  0  0  0  0  0  0
   -1.9715   11.5415    1.0412 H   0  0  0  0  0  0  0  0  0  0  0  0
   -2.6315    9.8630   -0.0627 H   0  0  0  0  0  0  0  0  0  0  0  0
   -2.4726   10.8860   -1.5307 H   0  0  0  0  0  0  0  0  0  0  0  0
   -1.8290    9.2090   -1.5307 H   0  0  0  0  0  0  0  0  0  0  0  0
    3.4543   11.5507   -2.8766 H   0  0  0  0  0  0  0  0  0  0  0  0
    1.9845   11.9190   -3.8412 H   0  0  0  0  0  0  0  0  0  0  0  0
    3.3688   13.0636   -3.8412 H   0  0  0  0  0  0  0  0  0  0  0  0
    3.8184   13.0666   -0.5819 H   0  0  0  0  0  0  0  0  0  0  0  0
    4.0426   14.1497   -2.0685 H   0  0  0  0  0  0  0  0  0  0  0  0
    2.4715   14.7673    0.4493 H   0  0  0  0  0  0  0  0  0  0  0  0
    3.9775   15.5569   -0.1633 H   0  0  0  0  0  0  0  0  0  0  0  0
    3.9759   16.9933   -2.1326 H   0  0  0  0  0  0  0  0  0  0  0  0
    3.3261   15.6285   -3.1031 H   0  0  0  0  0  0  0  0  0  0  0  0
    2.4804   17.2133   -3.1031 H   0  0  0  0  0  0  0  0  0  0  0  0
  1  2  1  0
  2  3  1  0
  3  4  1  0
  4  5  1  0
  5  6  1  0
  6  7  1  0
  7  8  1  0
  7  9  1  0
  2 10  1  0
 10 11  1  0
 11 12  1  0
 12 13  1  0
 13 14  1  1
 13 15  1  0
 15 16  1  0
 16 17  1  0
 17 18  2  0
 18 19  1  0
 19 20  1  0
 20 21  1  0
 21 22  1  0
 22 23  1  0
 22 24  1  0
 24 25  1  0
 24 26  1  0
 19 27  1  0
 27 28  1  6
 27 29  1  0
 29 30  1  0
 30 31  1  0
 31 32  1  6
  7  5  1  0
 31 10  1  0
 31 13  1  0
 27 15  1  0
 24 18  1  0
  1 33  1  0
  1 34  1  0
  1 35  1  0
  2 36  1  6
  3 37  1  0
  3 38  1  0
  4 39  1  0
  4 40  1  0
  5 41  1  6
  8 42  1  0
  8 43  1  0
  8 44  1  0
  9 45  1  0
  9 46  1  0
  9 47  1  0
 10 48  1  1
 11 49  1  0
 11 50  1  0
 12 51  1  0
 12 52  1  0
 14 53  1  0
 14 54  1  0
 14 55  1  0
 15 56  1  6
 16 57  1  0
 16 58  1  0
 17 59  1  0
 19 60  1  1
 20 61  1  0
 20 62  1  0
 21 63  1  0
 21 64  1  0
 22 65  1  1
 23 66  1  0
 25 67  1  0
 25 68  1  0
 25 69  1  0
 26 70  1  0
 26 71  1  0
 26 72  1  0
 28 73  1  0
 28 74  1  0
 28 75  1  0
 29 76  1  0
 29 77  1  0
 30 78  1  0
 30 79  1  0
 32 80  1  0
 32 81  1  0
 32 82  1  0
M  END
>  <meeko>  (7) 
{"is_sidechain": [false], "intermolecular_energy": 2.731, "internal_energy": -0.839}

$$$$
EPH_relaxed_0001_pdb2pqr_Repair_67_r2_0001_out
     RDKit          3D

 82 86  0  0  0  0  0  0  0  0999 V2000
   -5.1510    5.8760   -1.8630 C   0  0  0  0  0  0  0  0  0  0  0  0
   -5.4820    7.3710   -1.8440 C   0  0  2  0  0  0  0  0  0  0  0  0
   -5.2600    7.9970   -0.4520 C   0  0  0  0  0  0  0  0  0  0  0  0
   -4.2090    9.1110   -0.4390 C   0  0  0  0  0  0  0  0  0  0  0  0
   -2.8420    8.5870   -0.7590 C   0  0  2  0  0  0  0  0  0  0  0  0
   -1.8320    8.9220    0.2030 O   0  0  0  0  0  0  0  0  0  0  0  0
   -1.6660    9.4790   -1.1120 C   0  0  0  0  0  0  0  0  0  0  0  0
   -1.8040   10.9680   -1.1640 C   0  0  0  0  0  0  0  0  0  0  0  0
   -0.5230    8.8870   -1.8760 C   0  0  0  0  0  0  0  0  0  0  0  0
   -6.9230    7.5910   -2.2900 C   0  0  1  0  0  0  0  0  0  0  0  0
   -7.2470    6.8820   -3.6310 C   0  0  0  0  0  0  0  0  0  0  0  0
   -8.7200    6.4070   -3.5410 C   0  0  0  0  0  0  0  0  0  0  0  0
   -9.2910    7.1390   -2.3040 C   0  0  1  0  0  0  0  0  0  0  0  0
   -9.6520    8.5690   -2.8160 C   0  0  0  0  0  0  0  0  0  0  0  0
  -10.5070    6.4560   -1.5970 C   0  0  2  0  0  0  0  0  0  0  0  0
  -11.7730    6.3200   -2.4610 C   0  0  0  0  0  0  0  0  0  0  0  0
  -12.7280    7.4650   -2.3780 C   0  0  0  0  0  0  0  0  0  0  0  0
  -12.7200    8.4230   -1.4320 C   0  0  0  0  0  0  0  0  0  0  0  0
  -11.7390    8.3590   -0.2550 C   0  0  1  0  0  0  0  0  0  0  0  0
  -12.4970    8.6500    1.0670 C   0  0  0  0  0  0  0  0  0  0  0  0
  -13.2690    9.9650    1.0210 C   0  0  0  0  0  0  0  0  0  0  0  0
  -14.2750    9.9670   -0.1270 C   0  0  2  0  0  0  0  0  0  0  0  0
  -15.2870    8.9930    0.1450 O   0  0  0  0  0  0  0  0  0  0  0  0
  -13.6270    9.6750   -1.5090 C   0  0  0  0  0  0  0  0  0  0  0  0
  -12.7570   10.8810   -1.9410 C   0  0  0  0  0  0  0  0  0  0  0  0
  -14.7680    9.5660   -2.5570 C   0  0  0  0  0  0  0  0  0  0  0  0
  -10.8430    7.0500   -0.1690 C   0  0  1  0  0  0  0  0  0  0  0  0
  -11.6050    5.9330    0.6090 C   0  0  0  0  0  0  0  0  0  0  0  0
   -9.5470    7.3670    0.6670 C   0  0  0  0  0  0  0  0  0  0  0  0
   -8.3400    7.9280   -0.1090 C   0  0  0  0  0  0  0  0  0  0  0  0
   -8.0440    7.0800   -1.3500 C   0  0  2  0  0  0  0  0  0  0  0  0
   -7.6560    5.6420   -0.8650 C   0  0  0  0  0  0  0  0  0  0  0  0
   -5.0690    5.5055   -0.8305 H   0  0  0  0  0  0  0  0  0  0  0  0
   -5.9500    5.3302   -2.3861 H   0  0  0  0  0  0  0  0  0  0  0  0
   -4.1962    5.7185   -2.3861 H   0  0  0  0  0  0  0  0  0  0  0  0
   -4.7962    7.8703   -2.5443 H   0  0  0  0  0  0  0  0  0  0  0  0
   -6.2152    8.4166   -0.1034 H   0  0  0  0  0  0  0  0  0  0  0  0
   -4.8887    7.1968    0.2051 H   0  0  0  0  0  0  0  0  0  0  0  0
   -4.4841    9.8694   -1.1867 H   0  0  0  0  0  0  0  0  0  0  0  0
   -4.1820    9.5452    0.5713 H   0  0  0  0  0  0  0  0  0  0  0  0
   -3.2705    7.7017   -1.2516 H   0  0  0  0  0  0  0  0  0  0  0  0
   -1.8411   11.3688   -0.1403 H   0  0  0  0  0  0  0  0  0  0  0  0
   -0.9418   11.3978   -1.6950 H   0  0  0  0  0  0  0  0  0  0  0  0
   -2.7305   11.2321   -1.6950 H   0  0  0  0  0  0  0  0  0  0  0  0
    0.2270    8.4985   -1.1713 H   0  0  0  0  0  0  0  0  0  0  0  0
   -0.8911    8.0662   -2.5091 H   0  0  0  0  0  0  0  0  0  0  0  0
   -0.0650    9.6612   -2.5091 H   0  0  0  0  0  0  0  0  0  0  0  0
   -6.9384    8.6901   -2.3309 H   0  0  0  0  0  0  0  0  0  0  0  0
   -7.1258    7.5836   -4.4695 H   0  0  0  0  0  0  0  0  0  0  0  0
   -6.5682    6.0338   -3.8035 H   0  0  0  0  0  0  0  0  0  0  0  0
   -9.2746    6.6875   -4.4486 H   0  0  0  0  0  0  0  0  0  0  0  0
   -8.8011    5.3135   -3.4530 H   0  0  0  0  0  0  0  0  0  0  0  0
   -9.8200    9.2346   -1.9565 H   0  0  0  0  0  0  0  0  0  0  0  0
   -8.8243    8.9598   -3.4261 H   0  0  0  0  0  0  0  0  0  0  0  0
  -10.5660    8.5201   -3.4261 H   0  0  0  0  0  0  0  0  0  0  0  0
  -10.1422    5.4303   -1.4391 H   0  0  0  0  0  0  0  0  0  0  0  0
  -11.4589    6.2147   -3.5099 H   0  0  0  0  0  0  0  0  0  0  0  0
  -12.3136    5.4441   -2.0729 H   0  0  0  0  0  0  0  0  0  0  0  0
  -13.5035    7.5313   -3.1553 H   0  0  0  0  0  0  0  0  0  0  0  0
  -10.9925    9.1458   -0.4386 H   0  0  0  0  0  0  0  0  0  0  0  0
  -13.2067    7.8307    1.2543 H   0  0  0  0  0  0  0  0  0  0  0  0
  -11.7495    8.7294    1.8701 H   0  0  0  0  0  0  0  0  0  0  0  0
  -13.8067   10.1002    1.9711 H   0  0  0  0  0  0  0  0  0  0  0  0
  -12.5545   10.7863    0.8632 H   0  0  0  0  0  0  0  0  0  0  0  0
  -14.7035   10.9782   -0.1885 H   0  0  0  0  0  0  0  0  0  0  0  0
  -16.0860    9.4700    0.4290 H   0  0  0  0  0  0  0  0  0  0  0  0
  -12.3817   11.4012   -1.0474 H   0  0  0  0  0  0  0  0  0  0  0  0
  -11.9072   10.5238   -2.5412 H   0  0  0  0  0  0  0  0  0  0  0  0
  -13.3640   11.5747   -2.5412 H   0  0  0  0  0  0  0  0  0  0  0  0
  -15.7340    9.4737   -2.0390 H   0  0  0  0  0  0  0  0  0  0  0  0
  -14.7745   10.4676   -3.1871 H   0  0  0  0  0  0  0  0  0  0  0  0
  -14.6036    8.6795   -3.1871 H   0  0  0  0  0  0  0  0  0  0  0  0
  -11.4926    6.0977    1.6908 H   0  0  0  0  0  0  0  0  0  0  0  0
  -12.6718    5.9630    0.3424 H   0  0  0  0  0  0  0  0  0  0  0  0
  -11.1879    4.9507    0.3424 H   0  0  0  0  0  0  0  0  0  0  0  0
   -9.8195    8.1040    1.4368 H   0  0  0  0  0  0  0  0  0  0  0  0
   -9.2115    6.3950    1.0578 H   0  0  0  0  0  0  0  0  0  0  0  0
   -8.5611    8.9591   -0.4221 H   0  0  0  0  0  0  0  0  0  0  0  0
   -7.4589    7.9061    0.5492 H   0  0  0  0  0  0  0  0  0  0  0  0
   -7.6488    5.6154    0.2347 H   0  0  0  0  0  0  0  0  0  0  0  0
   -8.3905    4.9164   -1.2445 H   0  0  0  0  0  0  0  0  0  0  0  0
   -6.6562    5.3843   -1.2445 H   0  0  0  0  0  0  0  0  0  0  0  0
  1  2  1  0
  2  3  1  0
  3  4  1  0
  4  5  1  0
  5  6  1  0
  6  7  1  0
  7  8  1  0
  7  9  1  0
  2 10  1  0
 10 11  1  0
 11 12  1  0
 12 13  1  0
 13 14  1  6
 13 15  1  0
 15 16  1  0
 16 17  1  0
 17 18  2  0
 18 19  1  0
 19 20  1  0
 20 21  1  0
 21 22  1  0
 22 23  1  0
 22 24  1  0
 24 25  1  0
 24 26  1  0
 19 27  1  0
 27 28  1  1
 27 29  1  0
 29 30  1  0
 30 31  1  0
 31 32  1  1
  7  5  1  0
 31 10  1  0
 31 13  1  0
 27 15  1  0
 24 18  1  0
  1 33  1  0
  1 34  1  0
  1 35  1  0
  2 36  1  6
  3 37  1  0
  3 38  1  0
  4 39  1  0
  4 40  1  0
  5 41  1  6
  8 42  1  0
  8 43  1  0
  8 44  1  0
  9 45  1  0
  9 46  1  0
  9 47  1  0
 10 48  1  6
 11 49  1  0
 11 50  1  0
 12 51  1  0
 12 52  1  0
 14 53  1  0
 14 54  1  0
 14 55  1  0
 15 56  1  1
 16 57  1  0
 16 58  1  0
 17 59  1  0
 19 60  1  6
 20 61  1  0
 20 62  1  0
 21 63  1  0
 21 64  1  0
 22 65  1  6
 23 66  1  0
 25 67  1  0
 25 68  1  0
 25 69  1  0
 26 70  1  0
 26 71  1  0
 26 72  1  0
 28 73  1  0
 28 74  1  0
 28 75  1  0
 29 76  1  0
 29 77  1  0
 30 78  1  0
 30 79  1  0
 32 80  1  0
 32 81  1  0
 32 82  1  0
M  END
>  <meeko>  (8) 
{"is_sidechain": [false], "intermolecular_energy": 2.731, "internal_energy": -0.839}

$$$$
EPH_relaxed_0001_pdb2pqr_Repair_67_r2_0001_out
     RDKit          3D

 82 86  0  0  0  0  0  0  0  0999 V2000
    0.4410    8.8100   -2.3780 C   0  0  0  0  0  0  0  0  0  0  0  0
    1.1820    9.9540   -3.0760 C   0  0  2  0  0  0  0  0  0  0  0  0
    2.6830    9.9740   -2.7230 C   0  0  0  0  0  0  0  0  0  0  0  0
    3.5640   10.5890   -3.8130 C   0  0  0  0  0  0  0  0  0  0  0  0
    4.9600   10.8320   -3.3260 C   0  0  2  0  0  0  0  0  0  0  0  0
    5.5590   12.0430   -3.8060 O   0  0  0  0  0  0  0  0  0  0  0  0
    6.1770   10.8180   -4.2330 C   0  0  0  0  0  0  0  0  0  0  0  0
    6.0530   10.5540   -5.7010 C   0  0  0  0  0  0  0  0  0  0  0  0
    7.5220   10.5760   -3.6220 C   0  0  0  0  0  0  0  0  0  0  0  0
    0.5430   11.2880   -2.7100 C   0  0  1  0  0  0  0  0  0  0  0  0
   -0.8370   11.1200   -2.0200 C   0  0  0  0  0  0  0  0  0  0  0  0
   -0.9560   12.2580   -0.9750 C   0  0  0  0  0  0  0  0  0  0  0  0
    0.1960   13.2300   -1.3230 C   0  0  1  0  0  0  0  0  0  0  0  0
   -0.3490   14.0890   -2.5070 C   0  0  0  0  0  0  0  0  0  0  0  0
    0.7220   14.1250   -0.1540 C   0  0  2  0  0  0  0  0  0  0  0  0
   -0.3100   15.1020    0.4360 C   0  0  0  0  0  0  0  0  0  0  0  0
   -0.3510   16.4500   -0.2040 C   0  0  0  0  0  0  0  0  0  0  0  0
    0.5950   16.9590   -1.0160 C   0  0  0  0  0  0  0  0  0  0  0  0
    1.8970   16.1940   -1.2860 C   0  0  1  0  0  0  0  0  0  0  0  0
    3.1030   17.1590   -1.1500 C   0  0  0  0  0  0  0  0  0  0  0  0
    2.9620   18.3990   -2.0280 C   0  0  0  0  0  0  0  0  0  0  0  0
    1.6850   19.1640   -1.6900 C   0  0  2  0  0  0  0  0  0  0  0  0
    1.8060   19.7020   -0.3700 O   0  0  0  0  0  0  0  0  0  0  0  0
    0.4040   18.2900   -1.7840 C   0  0  0  0  0  0  0  0  0  0  0  0
    0.1070   17.9580   -3.2670 C   0  0  0  0  0  0  0  0  0  0  0  0
   -0.7930   19.1430   -1.2820 C   0  0  0  0  0  0  0  0  0  0  0  0
    2.0950   14.8500   -0.4600 C   0  0  1  0  0  0  0  0  0  0  0  0
    2.7490   15.1650    0.9200 C   0  0  0  0  0  0  0  0  0  0  0  0
    3.1050   13.9180   -1.2290 C   0  0  0  0  0  0  0  0  0  0  0  0
    2.5090   12.9710   -2.2880 C   0  0  0  0  0  0  0  0  0  0  0  0
    1.3130   12.1990   -1.7220 C   0  0  2  0  0  0  0  0  0  0  0  0
    1.8340   11.3080   -0.5430 C   0  0  0  0  0  0  0  0  0  0  0  0
    0.5206    8.9328   -1.2878 H   0  0  0  0  0  0  0  0  0  0  0  0
   -0.6187    8.8260   -2.6724 H   0  0  0  0  0  0  0  0  0  0  0  0
    0.8889    7.8494   -2.6724 H   0  0  0  0  0  0  0  0  0  0  0  0
    1.0998    9.7883   -4.1603 H   0  0  0  0  0  0  0  0  0  0  0  0
    2.8148   10.5575   -1.7999 H   0  0  0  0  0  0  0  0  0  0  0  0
    2.9996    8.9270   -2.6070 H   0  0  0  0  0  0  0  0  0  0  0  0
    3.6005    9.9022   -4.6715 H   0  0  0  0  0  0  0  0  0  0  0  0
    3.1279   11.5570   -4.1007 H   0  0  0  0  0  0  0  0  0  0  0  0
    4.7424   10.3230   -2.3754 H   0  0  0  0  0  0  0  0  0  0  0  0
    5.5902    9.5686   -5.8585 H   0  0  0  0  0  0  0  0  0  0  0  0
    5.4259   11.3315   -6.1617 H   0  0  0  0  0  0  0  0  0  0  0  0
    7.0518   10.5678   -6.1617 H   0  0  0  0  0  0  0  0  0  0  0  0
    7.4348   10.5917   -2.5256 H   0  0  0  0  0  0  0  0  0  0  0  0
    7.9007    9.5953   -3.9457 H   0  0  0  0  0  0  0  0  0  0  0  0
    8.2188   11.3632   -3.9457 H   0  0  0  0  0  0  0  0  0  0  0  0
    0.5107   11.7554   -3.7052 H   0  0  0  0  0  0  0  0  0  0  0  0
   -1.6443   11.2018   -2.7627 H   0  0  0  0  0  0  0  0  0  0  0  0
   -0.9214   10.1335   -1.5408 H   0  0  0  0  0  0  0  0  0  0  0  0
   -1.9294   12.7632   -1.0603 H   0  0  0  0  0  0  0  0  0  0  0  0
   -0.8890   11.8846    0.0575 H   0  0  0  0  0  0  0  0  0  0  0  0
   -0.8984   14.9550   -2.1092 H   0  0  0  0  0  0  0  0  0  0  0  0
    0.4921   14.4398   -3.1230 H   0  0  0  0  0  0  0  0  0  0  0  0
   -1.0247   13.4775   -3.1230 H   0  0  0  0  0  0  0  0  0  0  0  0
    0.9199   13.3866    0.6369 H   0  0  0  0  0  0  0  0  0  0  0  0
   -1.3061   14.6468    0.3336 H   0  0  0  0  0  0  0  0  0  0  0  0
   -0.0074   15.2701    1.4801 H   0  0  0  0  0  0  0  0  0  0  0  0
   -1.2277   17.0806    0.0053 H   0  0  0  0  0  0  0  0  0  0  0  0
    1.8261   15.8295   -2.3214 H   0  0  0  0  0  0  0  0  0  0  0  0
    3.1831   17.4775   -0.1002 H   0  0  0  0  0  0  0  0  0  0  0  0
    4.0025   16.6177   -1.4786 H   0  0  0  0  0  0  0  0  0  0  0  0
    3.8291   19.0560   -1.8651 H   0  0  0  0  0  0  0  0  0  0  0  0
    2.9129   18.0809   -3.0798 H   0  0  0  0  0  0  0  0  0  0  0  0
    1.5725   19.9645   -2.4360 H   0  0  0  0  0  0  0  0  0  0  0  0
    2.7410   19.9280   -0.2280 H   0  0  0  0  0  0  0  0  0  0  0  0
   -0.6256   17.1391   -3.3198 H   0  0  0  0  0  0  0  0  0  0  0  0
   -0.3016   18.8483   -3.7673 H   0  0  0  0  0  0  0  0  0  0  0  0
    1.0372   17.6507   -3.7673 H   0  0  0  0  0  0  0  0  0  0  0  0
   -0.8026   19.1498   -0.1821 H   0  0  0  0  0  0  0  0  0  0  0  0
   -0.6908   20.1731   -1.6542 H   0  0  0  0  0  0  0  0  0  0  0  0
   -1.7333   18.7102   -1.6542 H   0  0  0  0  0  0  0  0  0  0  0  0
    2.0759   14.8408    1.7273 H   0  0  0  0  0  0  0  0  0  0  0  0
    3.7060   14.6290    1.0031 H   0  0  0  0  0  0  0  0  0  0  0  0
    2.9265   16.2474    1.0031 H   0  0  0  0  0  0  0  0  0  0  0  0
    3.8357   14.5657   -1.7355 H   0  0  0  0  0  0  0  0  0  0  0  0
    3.5299   13.2573   -0.4590 H   0  0  0  0  0  0  0  0  0  0  0  0
    2.1781   13.5626   -3.1543 H   0  0  0  0  0  0  0  0  0  0  0  0
    3.2826   12.2488   -2.5879 H   0  0  0  0  0  0  0  0  0  0  0  0
    1.5620   11.7731    0.4160 H   0  0  0  0  0  0  0  0  0  0  0  0
    1.3775   10.3093   -0.6087 H   0  0  0  0  0  0  0  0  0  0  0  0
    2.9282   11.2161   -0.6087 H   0  0  0  0  0  0  0  0  0  0  0  0
  1  2  1  0
  2  3  1  0
  3  4  1  0
  4  5  1  0
  5  6  1  0
  6  7  1  0
  7  8  1  0
  7  9  1  0
  2 10  1  0
 10 11  1  0
 11 12  1  0
 12 13  1  0
 13 14  1  6
 13 15  1  0
 15 16  1  0
 16 17  1  0
 17 18  2  0
 18 19  1  0
 19 20  1  0
 20 21  1  0
 21 22  1  0
 22 23  1  0
 22 24  1  0
 24 25  1  0
 24 26  1  0
 19 27  1  0
 27 28  1  1
 27 29  1  0
 29 30  1  0
 30 31  1  0
 31 32  1  1
  7  5  1  0
 31 10  1  0
 31 13  1  0
 27 15  1  0
 24 18  1  0
  1 33  1  0
  1 34  1  0
  1 35  1  0
  2 36  1  6
  3 37  1  0
  3 38  1  0
  4 39  1  0
  4 40  1  0
  5 41  1  1
  8 42  1  0
  8 43  1  0
  8 44  1  0
  9 45  1  0
  9 46  1  0
  9 47  1  0
 10 48  1  6
 11 49  1  0
 11 50  1  0
 12 51  1  0
 12 52  1  0
 14 53  1  0
 14 54  1  0
 14 55  1  0
 15 56  1  1
 16 57  1  0
 16 58  1  0
 17 59  1  0
 19 60  1  6
 20 61  1  0
 20 62  1  0
 21 63  1  0
 21 64  1  0
 22 65  1  6
 23 66  1  0
 25 67  1  0
 25 68  1  0
 25 69  1  0
 26 70  1  0
 26 71  1  0
 26 72  1  0
 28 73  1  0
 28 74  1  0
 28 75  1  0
 29 76  1  0
 29 77  1  0
 30 78  1  0
 30 79  1  0
 32 80  1  0
 32 81  1  0
 32 82  1  0
M  END
>  <meeko>  (9) 
{"is_sidechain": [false], "intermolecular_energy": 2.731, "internal_energy": -0.839}

$$$$
EPH_relaxed_0001_pdb2pqr_Repair_67_r2_0001_out
     RDKit          3D

 82 86  0  0  0  0  0  0  0  0999 V2000
   -0.3040   10.5230   -4.0080 C   0  0  0  0  0  0  0  0  0  0  0  0
    0.8720   10.3200   -3.0480 C   0  0  2  0  0  0  0  0  0  0  0  0
    0.7630    8.9950   -2.2670 C   0  0  0  0  0  0  0  0  0  0  0  0
   -0.6770    8.5900   -1.9410 C   0  0  0  0  0  0  0  0  0  0  0  0
   -1.0260    8.8840   -0.5130 C   0  0  2  0  0  0  0  0  0  0  0  0
   -2.4310    8.9730   -0.2450 O   0  0  0  0  0  0  0  0  0  0  0  0
   -1.6740   10.1790   -0.0600 C   0  0  0  0  0  0  0  0  0  0  0  0
   -2.0110   11.2650   -1.0330 C   0  0  0  0  0  0  0  0  0  0  0  0
   -1.5310   10.5870    1.3730 C   0  0  0  0  0  0  0  0  0  0  0  0
    0.9560   11.4910   -2.0760 C   0  0  1  0  0  0  0  0  0  0  0  0
    2.0110   11.2660   -0.9590 C   0  0  0  0  0  0  0  0  0  0  0  0
    2.6340   12.6510   -0.6470 C   0  0  0  0  0  0  0  0  0  0  0  0
    1.6990   13.6660   -1.3440 C   0  0  1  0  0  0  0  0  0  0  0  0
    0.4980   13.8450   -0.3630 C   0  0  0  0  0  0  0  0  0  0  0  0
    2.3360   15.0400   -1.7320 C   0  0  2  0  0  0  0  0  0  0  0  0
    2.8430   15.8820   -0.5480 C   0  0  0  0  0  0  0  0  0  0  0  0
    1.8460   16.8270    0.0350 C   0  0  0  0  0  0  0  0  0  0  0  0
    0.6920   17.2030   -0.5460 C   0  0  0  0  0  0  0  0  0  0  0  0
    0.3350   16.7380   -1.9640 C   0  0  1  0  0  0  0  0  0  0  0  0
   -0.1730   17.9470   -2.7930 C   0  0  0  0  0  0  0  0  0  0  0  0
   -1.3250   18.6800   -2.1120 C   0  0  0  0  0  0  0  0  0  0  0  0
   -0.9140   19.1770   -0.7290 C   0  0  2  0  0  0  0  0  0  0  0  0
    0.0850   20.1910   -0.8820 O   0  0  0  0  0  0  0  0  0  0  0  0
   -0.3750   18.0480    0.1930 C   0  0  0  0  0  0  0  0  0  0  0  0
   -1.5390   17.1110    0.6030 C   0  0  0  0  0  0  0  0  0  0  0  0
    0.1350   18.7040    1.5040 C   0  0  0  0  0  0  0  0  0  0  0  0
    1.4570   15.9060   -2.7230 C   0  0  1  0  0  0  0  0  0  0  0  0
    2.4350   16.8750   -3.4550 C   0  0  0  0  0  0  0  0  0  0  0  0
    0.7780   15.0300   -3.8420 C   0  0  0  0  0  0  0  0  0  0  0  0
    0.2760   13.6350   -3.4240 C   0  0  0  0  0  0  0  0  0  0  0  0
    1.3590   12.8700   -2.6570 C   0  0  2  0  0  0  0  0  0  0  0  0
    2.5710   12.6560   -3.6260 C   0  0  0  0  0  0  0  0  0  0  0  0
   -1.2261   10.6822   -3.4297 H   0  0  0  0  0  0  0  0  0  0  0  0
   -0.1125   11.4014   -4.6419 H   0  0  0  0  0  0  0  0  0  0  0  0
   -0.4180    9.6313   -4.6419 H   0  0  0  0  0  0  0  0  0  0  0  0
    1.7890   10.2714   -3.6537 H   0  0  0  0  0  0  0  0  0  0  0  0
    1.2200    8.1972   -2.8709 H   0  0  0  0  0  0  0  0  0  0  0  0
    1.2804    9.1435   -1.3077 H   0  0  0  0  0  0  0  0  0  0  0  0
   -1.3614    9.1476   -2.5973 H   0  0  0  0  0  0  0  0  0  0  0  0
   -0.7729    7.5060   -2.1012 H   0  0  0  0  0  0  0  0  0  0  0  0
   -0.1376    8.3399   -0.1598 H   0  0  0  0  0  0  0  0  0  0  0  0
   -2.2934   12.1751   -0.4834 H   0  0  0  0  0  0  0  0  0  0  0  0
   -1.1359   11.4753   -1.6654 H   0  0  0  0  0  0  0  0  0  0  0  0
   -2.8514   10.9429   -1.6654 H   0  0  0  0  0  0  0  0  0  0  0  0
   -1.8244    9.7499    2.0236 H   0  0  0  0  0  0  0  0  0  0  0  0
   -0.4842   10.8584    1.5743 H   0  0  0  0  0  0  0  0  0  0  0  0
   -2.1794   11.4525    1.5743 H   0  0  0  0  0  0  0  0  0  0  0  0
   -0.0877   11.5186   -1.7298 H   0  0  0  0  0  0  0  0  0  0  0  0
    1.5287   10.8562   -0.0593 H   0  0  0  0  0  0  0  0  0  0  0  0
    2.7812   10.5499   -1.2815 H   0  0  0  0  0  0  0  0  0  0  0  0
    2.6604   12.8292    0.4381 H   0  0  0  0  0  0  0  0  0  0  0  0
    3.6726   12.7301   -1.0005 H   0  0  0  0  0  0  0  0  0  0  0  0
    0.8605   13.7910    0.6741 H   0  0  0  0  0  0  0  0  0  0  0  0
    0.0260   14.8234   -0.5359 H   0  0  0  0  0  0  0  0  0  0  0  0
   -0.2388   13.0468   -0.5359 H   0  0  0  0  0  0  0  0  0  0  0  0
    3.2348   14.7342   -2.2875 H   0  0  0  0  0  0  0  0  0  0  0  0
    3.1632   15.1925    0.2470 H   0  0  0  0  0  0  0  0  0  0  0  0
    3.6577   16.5056   -0.9447 H   0  0  0  0  0  0  0  0  0  0  0  0
    2.0738   17.2523    1.0236 H   0  0  0  0  0  0  0  0  0  0  0  0
   -0.4721   15.9997   -1.8482 H   0  0  0  0  0  0  0  0  0  0  0  0
    0.6592   18.6522   -2.9346 H   0  0  0  0  0  0  0  0  0  0  0  0
   -0.5441   17.5610   -3.7539 H   0  0  0  0  0  0  0  0  0  0  0  0
   -1.6200   19.5404   -2.7307 H   0  0  0  0  0  0  0  0  0  0  0  0
   -2.1670   17.9813   -1.9979 H   0  0  0  0  0  0  0  0  0  0  0  0
   -1.8151   19.5767   -0.2409 H   0  0  0  0  0  0  0  0  0  0  0  0
   -0.3250   21.0430   -0.6550 H   0  0  0  0  0  0  0  0  0  0  0  0
   -1.6007   17.0614    1.7001 H   0  0  0  0  0  0  0  0  0  0  0  0
   -2.4845   17.5029    0.2000 H   0  0  0  0  0  0  0  0  0  0  0  0
   -1.3581   16.1036    0.2000 H   0  0  0  0  0  0  0  0  0  0  0  0
   -0.2822   18.1674    2.3689 H   0  0  0  0  0  0  0  0  0  0  0  0
    1.2334   18.6535    1.5361 H   0  0  0  0  0  0  0  0  0  0  0  0
   -0.1848   19.7560    1.5361 H   0  0  0  0  0  0  0  0  0  0  0  0
    3.0108   17.4455   -2.7114 H   0  0  0  0  0  0  0  0  0  0  0  0
    3.1242   16.2935   -4.0850 H   0  0  0  0  0  0  0  0  0  0  0  0
    1.8599   17.5695   -4.0850 H   0  0  0  0  0  0  0  0  0  0  0  0
   -0.0853   15.5927   -4.2268 H   0  0  0  0  0  0  0  0  0  0  0  0
    1.5715   14.8408   -4.5799 H   0  0  0  0  0  0  0  0  0  0  0  0
   -0.6086   13.7489   -2.7802 H   0  0  0  0  0  0  0  0  0  0  0  0
    0.0213   13.0674   -4.3312 H   0  0  0  0  0  0  0  0  0  0  0  0
    3.4865   12.4944   -3.0380 H   0  0  0  0  0  0  0  0  0  0  0  0
    2.3826   11.7772   -4.2602 H   0  0  0  0  0  0  0  0  0  0  0  0
    2.6950   13.5461   -4.2602 H   0  0  0  0  0  0  0  0  0  0  0  0
  1  2  1  0
  2  3  1  0
  3  4  1  0
  4  5  1  0
  5  6  1  0
  6  7  1  0
  7  8  1  0
  7  9  1  0
  2 10  1  0
 10 11  1  0
 11 12  1  0
 12 13  1  0
 13 14  1  1
 13 15  1  0
 15 16  1  0
 16 17  1  0
 17 18  2  0
 18 19  1  0
 19 20  1  0
 20 21  1  0
 21 22  1  0
 22 23  1  0
 22 24  1  0
 24 25  1  0
 24 26  1  0
 19 27  1  0
 27 28  1  6
 27 29  1  0
 29 30  1  0
 30 31  1  0
 31 32  1  6
  7  5  1  0
 31 10  1  0
 31 13  1  0
 27 15  1  0
 24 18  1  0
  1 33  1  0
  1 34  1  0
  1 35  1  0
  2 36  1  6
  3 37  1  0
  3 38  1  0
  4 39  1  0
  4 40  1  0
  5 41  1  1
  8 42  1  0
  8 43  1  0
  8 44  1  0
  9 45  1  0
  9 46  1  0
  9 47  1  0
 10 48  1  1
 11 49  1  0
 11 50  1  0
 12 51  1  0
 12 52  1  0
 14 53  1  0
 14 54  1  0
 14 55  1  0
 15 56  1  6
 16 57  1  0
 16 58  1  0
 17 59  1  0
 19 60  1  1
 20 61  1  0
 20 62  1  0
 21 63  1  0
 21 64  1  0
 22 65  1  1
 23 66  1  0
 25 67  1  0
 25 68  1  0
 25 69  1  0
 26 70  1  0
 26 71  1  0
 26 72  1  0
 28 73  1  0
 28 74  1  0
 28 75  1  0
 29 76  1  0
 29 77  1  0
 30 78  1  0
 30 79  1  0
 32 80  1  0
 32 81  1  0
 32 82  1  0
M  END
>  <meeko>  (10) 
{"is_sidechain": [false], "intermolecular_energy": 2.731, "internal_energy": -0.839}

$$$$
EPH_relaxed_0001_pdb2pqr_Repair_67_r2_0001_out
     RDKit          3D

 82 86  0  0  0  0  0  0  0  0999 V2000
    0.1550   17.7490   -2.4560 C   0  0  0  0  0  0  0  0  0  0  0  0
   -0.0660   16.8760   -1.2170 C   0  0  2  0  0  0  0  0  0  0  0  0
   -0.0670   17.7030    0.0840 C   0  0  0  0  0  0  0  0  0  0  0  0
    0.5530   19.0950   -0.0720 C   0  0  0  0  0  0  0  0  0  0  0  0
    1.6930   19.3030    0.8780 C   0  0  2  0  0  0  0  0  0  0  0  0
    2.7110   20.1940    0.4050 O   0  0  0  0  0  0  0  0  0  0  0  0
    3.1080   18.8280    0.6040 C   0  0  0  0  0  0  0  0  0  0  0  0
    3.4570   18.1060   -0.6600 C   0  0  0  0  0  0  0  0  0  0  0  0
    4.0340   18.6310    1.7630 C   0  0  0  0  0  0  0  0  0  0  0  0
    1.0060   15.7950   -1.1460 C   0  0  1  0  0  0  0  0  0  0  0  0
    1.1930   15.2320    0.2880 C   0  0  0  0  0  0  0  0  0  0  0  0
    1.5290   13.7260    0.1380 C   0  0  0  0  0  0  0  0  0  0  0  0
    1.8500   13.5460   -1.3640 C   0  0  1  0  0  0  0  0  0  0  0  0
    3.3290   14.0210   -1.5170 C   0  0  0  0  0  0  0  0  0  0  0  0
    1.6410   12.1110   -1.9480 C   0  0  2  0  0  0  0  0  0  0  0  0
    2.5310   11.0190   -1.3300 C   0  0  0  0  0  0  0  0  0  0  0  0
    3.8400   10.8010   -2.0130 C   0  0  0  0  0  0  0  0  0  0  0  0
    4.1670   11.2500   -3.2400 C   0  0  0  0  0  0  0  0  0  0  0  0
    3.1350   11.9750   -4.1130 C   0  0  1  0  0  0  0  0  0  0  0  0
    3.1790   11.4000   -5.5530 C   0  0  0  0  0  0  0  0  0  0  0  0
    4.5810   11.4340   -6.1550 C   0  0  0  0  0  0  0  0  0  0  0  0
    5.5660   10.6530   -5.2880 C   0  0  2  0  0  0  0  0  0  0  0  0
    5.2170    9.2660   -5.3310 O   0  0  0  0  0  0  0  0  0  0  0  0
    5.6010   11.1380   -3.8120 C   0  0  0  0  0  0  0  0  0  0  0  0
    6.2630   12.5370   -3.7390 C   0  0  0  0  0  0  0  0  0  0  0  0
    6.5270   10.1780   -3.0160 C   0  0  0  0  0  0  0  0  0  0  0  0
    1.6590   12.0460   -3.5290 C   0  0  1  0  0  0  0  0  0  0  0  0
    0.8660   10.7650   -3.9310 C   0  0  0  0  0  0  0  0  0  0  0  0
    0.9030   13.2610   -4.1870 C   0  0  0  0  0  0  0  0  0  0  0  0
    1.0530   14.6290   -3.4950 C   0  0  0  0  0  0  0  0  0  0  0  0
    0.7830   14.5150   -1.9910 C   0  0  2  0  0  0  0  0  0  0  0  0
   -0.7050   14.0610   -1.8050 C   0  0  0  0  0  0  0  0  0  0  0  0
    0.4138   18.7712   -2.1429 H   0  0  0  0  0  0  0  0  0  0  0  0
    0.9756   17.3309   -3.0575 H   0  0  0  0  0  0  0  0  0  0  0  0
   -0.7657   17.7718   -3.0575 H   0  0  0  0  0  0  0  0  0  0  0  0
   -1.0582   16.4108   -1.3126 H   0  0  0  0  0  0  0  0  0  0  0  0
   -1.1079   17.8218    0.4194 H   0  0  0  0  0  0  0  0  0  0  0  0
    0.5486   17.1563    0.8135 H   0  0  0  0  0  0  0  0  0  0  0  0
    0.9222   19.2075   -1.1021 H   0  0  0  0  0  0  0  0  0  0  0  0
   -0.2217   19.8429    0.1527 H   0  0  0  0  0  0  0  0  0  0  0  0
    1.0262   19.1746    1.7434 H   0  0  0  0  0  0  0  0  0  0  0  0
    3.9236   17.1407   -0.4140 H   0  0  0  0  0  0  0  0  0  0  0  0
    2.5433   17.9325   -1.2474 H   0  0  0  0  0  0  0  0  0  0  0  0
    4.1606   18.7142   -1.2474 H   0  0  0  0  0  0  0  0  0  0  0  0
    3.4753   18.7499    2.7030 H   0  0  0  0  0  0  0  0  0  0  0  0
    4.4668   17.6207    1.7189 H   0  0  0  0  0  0  0  0  0  0  0  0
    4.8406   19.3777    1.7189 H   0  0  0  0  0  0  0  0  0  0  0  0
    1.8639   16.3609   -1.5382 H   0  0  0  0  0  0  0  0  0  0  0  0
    2.0169   15.7550    0.7957 H   0  0  0  0  0  0  0  0  0  0  0  0
    0.2835   15.3753    0.8899 H   0  0  0  0  0  0  0  0  0  0  0  0
    2.3990   13.4588    0.7558 H   0  0  0  0  0  0  0  0  0  0  0  0
    0.7029   13.0792    0.4686 H   0  0  0  0  0  0  0  0  0  0  0  0
    3.7732   14.1637   -0.5208 H   0  0  0  0  0  0  0  0  0  0  0  0
    3.9027   13.2619   -2.0690 H   0  0  0  0  0  0  0  0  0  0  0  0
    3.3534   14.9722   -2.0690 H   0  0  0  0  0  0  0  0  0  0  0  0
    0.6148   11.8742   -1.6306 H   0  0  0  0  0  0  0  0  0  0  0  0
    2.7349   11.2975   -0.2855 H   0  0  0  0  0  0  0  0  0  0  0  0
    1.9730   10.0768   -1.4340 H   0  0  0  0  0  0  0  0  0  0  0  0
    4.6023   10.2248   -1.4681 H   0  0  0  0  0  0  0  0  0  0  0  0
    3.4367   13.0328   -4.1241 H   0  0  0  0  0  0  0  0  0  0  0  0
    2.8320   10.3565   -5.5266 H   0  0  0  0  0  0  0  0  0  0  0  0
    2.5304   12.0270   -6.1825 H   0  0  0  0  0  0  0  0  0  0  0  0
    4.5524   10.9868   -7.1596 H   0  0  0  0  0  0  0  0  0  0  0  0
    4.9145   12.4808   -6.2095 H   0  0  0  0  0  0  0  0  0  0  0  0
    6.5730   10.8224   -5.6971 H   0  0  0  0  0  0  0  0  0  0  0  0
    5.8580    8.8190   -5.9090 H   0  0  0  0  0  0  0  0  0  0  0  0
    6.3988   12.8239   -2.6858 H   0  0  0  0  0  0  0  0  0  0  0  0
    7.2420   12.5060   -4.2397 H   0  0  0  0  0  0  0  0  0  0  0  0
    5.6183   13.2743   -4.2397 H   0  0  0  0  0  0  0  0  0  0  0  0
    6.3766   10.3339   -1.9375 H   0  0  0  0  0  0  0  0  0  0  0  0
    6.2836    9.1366   -3.2734 H   0  0  0  0  0  0  0  0  0  0  0  0
    7.5765   10.3837   -3.2734 H   0  0  0  0  0  0  0  0  0  0  0  0
    0.5388   10.2364   -3.0235 H   0  0  0  0  0  0  0  0  0  0  0  0
   -0.0138   11.0502   -4.5265 H   0  0  0  0  0  0  0  0  0  0  0  0
    1.5136   10.1047   -4.5265 H   0  0  0  0  0  0  0  0  0  0  0  0
    1.2751   13.3663   -5.2168 H   0  0  0  0  0  0  0  0  0  0  0  0
   -0.1657   13.0131   -4.1063 H   0  0  0  0  0  0  0  0  0  0  0  0
    2.0768   15.0003   -3.6497 H   0  0  0  0  0  0  0  0  0  0  0  0
    0.3212   15.3249   -3.9311 H   0  0  0  0  0  0  0  0  0  0  0  0
   -0.9355   13.9907   -0.7317 H   0  0  0  0  0  0  0  0  0  0  0  0
   -1.3742   14.7958   -2.2764 H   0  0  0  0  0  0  0  0  0  0  0  0
   -0.8500   13.0777   -2.2764 H   0  0  0  0  0  0  0  0  0  0  0  0
  1  2  1  0
  2  3  1  0
  3  4  1  0
  4  5  1  0
  5  6  1  0
  6  7  1  0
  7  8  1  0
  7  9  1  0
  2 10  1  0
 10 11  1  0
 11 12  1  0
 12 13  1  0
 13 14  1  1
 13 15  1  0
 15 16  1  0
 16 17  1  0
 17 18  2  0
 18 19  1  0
 19 20  1  0
 20 21  1  0
 21 22  1  0
 22 23  1  0
 22 24  1  0
 24 25  1  0
 24 26  1  0
 19 27  1  0
 27 28  1  1
 27 29  1  0
 29 30  1  0
 30 31  1  0
 31 32  1  6
  7  5  1  0
 31 10  1  0
 31 13  1  0
 27 15  1  0
 24 18  1  0
  1 33  1  0
  1 34  1  0
  1 35  1  0
  2 36  1  6
  3 37  1  0
  3 38  1  0
  4 39  1  0
  4 40  1  0
  5 41  1  1
  8 42  1  0
  8 43  1  0
  8 44  1  0
  9 45  1  0
  9 46  1  0
  9 47  1  0
 10 48  1  6
 11 49  1  0
 11 50  1  0
 12 51  1  0
 12 52  1  0
 14 53  1  0
 14 54  1  0
 14 55  1  0
 15 56  1  1
 16 57  1  0
 16 58  1  0
 17 59  1  0
 19 60  1  6
 20 61  1  0
 20 62  1  0
 21 63  1  0
 21 64  1  0
 22 65  1  6
 23 66  1  0
 25 67  1  0
 25 68  1  0
 25 69  1  0
 26 70  1  0
 26 71  1  0
 26 72  1  0
 28 73  1  0
 28 74  1  0
 28 75  1  0
 29 76  1  0
 29 77  1  0
 30 78  1  0
 30 79  1  0
 32 80  1  0
 32 81  1  0
 32 82  1  0
M  END
>  <meeko>  (11) 
{"is_sidechain": [false], "intermolecular_energy": 2.731, "internal_energy": -0.839}

$$$$
EPH_relaxed_0001_pdb2pqr_Repair_67_r2_0001_out
     RDKit          3D

 82 86  0  0  0  0  0  0  0  0999 V2000
   -3.6810    7.2010   -3.4390 C   0  0  0  0  0  0  0  0  0  0  0  0
   -3.6880    7.2530   -1.9090 C   0  0  2  0  0  0  0  0  0  0  0  0
   -5.0920    6.9960   -1.3260 C   0  0  0  0  0  0  0  0  0  0  0  0
   -6.2160    7.0970   -2.3610 C   0  0  0  0  0  0  0  0  0  0  0  0
   -7.5350    7.4020   -1.7180 C   0  0  2  0  0  0  0  0  0  0  0  0
   -8.1860    6.2720   -1.1210 O   0  0  0  0  0  0  0  0  0  0  0  0
   -8.8610    6.8760   -2.2370 C   0  0  0  0  0  0  0  0  0  0  0  0
   -8.9320    6.0020   -3.4500 C   0  0  0  0  0  0  0  0  0  0  0  0
  -10.1150    7.6010   -1.8630 C   0  0  0  0  0  0  0  0  0  0  0  0
   -3.1660    8.6040   -1.4330 C   0  0  1  0  0  0  0  0  0  0  0  0
   -3.7950    9.0460   -0.0850 C   0  0  0  0  0  0  0  0  0  0  0  0
   -2.6930    9.8100    0.6940 C   0  0  0  0  0  0  0  0  0  0  0  0
   -1.5850   10.0710   -0.3540 C   0  0  1  0  0  0  0  0  0  0  0  0
   -2.0710   11.3240   -1.1470 C   0  0  0  0  0  0  0  0  0  0  0  0
   -0.1380   10.2660    0.2050 C   0  0  2  0  0  0  0  0  0  0  0  0
    0.0460   11.4840    1.1280 C   0  0  0  0  0  0  0  0  0  0  0  0
    0.4420   12.7490    0.4430 C   0  0  0  0  0  0  0  0  0  0  0  0
    0.9170   12.8430   -0.8130 C   0  0  0  0  0  0  0  0  0  0  0  0
    1.1920   11.5860   -1.6470 C   0  0  1  0  0  0  0  0  0  0  0  0
    2.5830   11.7060   -2.3230 C   0  0  0  0  0  0  0  0  0  0  0  0
    2.7290   12.9890   -3.1360 C   0  0  0  0  0  0  0  0  0  0  0  0
    2.5060   14.2180   -2.2590 C   0  0  2  0  0  0  0  0  0  0  0  0
    3.5700   14.3030   -1.3060 O   0  0  0  0  0  0  0  0  0  0  0  0
    1.1400   14.2040   -1.5180 C   0  0  0  0  0  0  0  0  0  0  0  0
   -0.0070   14.4160   -2.5370 C   0  0  0  0  0  0  0  0  0  0  0  0
    1.1030   15.4260   -0.5620 C   0  0  0  0  0  0  0  0  0  0  0  0
    0.9960   10.1990   -0.8960 C   0  0  1  0  0  0  0  0  0  0  0  0
    2.3110    9.8050   -0.1560 C   0  0  0  0  0  0  0  0  0  0  0  0
    0.7300    9.0700   -1.9610 C   0  0  0  0  0  0  0  0  0  0  0  0
   -0.7340    8.8450   -2.3840 C   0  0  0  0  0  0  0  0  0  0  0  0
   -1.6460    8.7220   -1.1590 C   0  0  2  0  0  0  0  0  0  0  0  0
   -1.1960    7.4570   -0.3530 C   0  0  0  0  0  0  0  0  0  0  0  0
   -3.5410    6.1613   -3.7699 H   0  0  0  0  0  0  0  0  0  0  0  0
   -4.6386    7.5823   -3.8232 H   0  0  0  0  0  0  0  0  0  0  0  0
   -2.8583    7.8220   -3.8232 H   0  0  0  0  0  0  0  0  0  0  0  0
   -3.0282    6.4506   -1.5472 H   0  0  0  0  0  0  0  0  0  0  0  0
   -5.1085    5.9850   -0.8929 H   0  0  0  0  0  0  0  0  0  0  0  0
   -5.2760    7.7776   -0.5742 H   0  0  0  0  0  0  0  0  0  0  0  0
   -5.9731    7.8985   -3.0741 H   0  0  0  0  0  0  0  0  0  0  0  0
   -6.2997    6.1268   -2.8725 H   0  0  0  0  0  0  0  0  0  0  0  0
   -7.1967    8.4137   -1.4498 H   0  0  0  0  0  0  0  0  0  0  0  0
   -9.0174    4.9502   -3.1396 H   0  0  0  0  0  0  0  0  0  0  0  0
   -9.8106    6.2795   -4.0509 H   0  0  0  0  0  0  0  0  0  0  0  0
   -8.0202    6.1340   -4.0509 H   0  0  0  0  0  0  0  0  0  0  0  0
  -10.1979    7.6489   -0.7672 H   0  0  0  0  0  0  0  0  0  0  0  0
  -10.0850    8.6211   -2.2734 H   0  0  0  0  0  0  0  0  0  0  0  0
  -10.9841    7.0660   -2.2734 H   0  0  0  0  0  0  0  0  0  0  0  0
   -3.4417    9.2240   -2.2988 H   0  0  0  0  0  0  0  0  0  0  0  0
   -4.6564    9.7054   -0.2671 H   0  0  0  0  0  0  0  0  0  0  0  0
   -4.1531    8.1775    0.4873 H   0  0  0  0  0  0  0  0  0  0  0  0
   -3.0842   10.7587    1.0902 H   0  0  0  0  0  0  0  0  0  0  0  0
   -2.3231    9.2411    1.5597 H   0  0  0  0  0  0  0  0  0  0  0  0
   -2.3758   12.1098   -0.4401 H   0  0  0  0  0  0  0  0  0  0  0  0
   -1.2525   11.6975   -1.7799 H   0  0  0  0  0  0  0  0  0  0  0  0
   -2.9273   11.0480   -1.7799 H   0  0  0  0  0  0  0  0  0  0  0  0
   -0.0118    9.3822    0.8476 H   0  0  0  0  0  0  0  0  0  0  0  0
   -0.9065   11.6631    1.6483 H   0  0  0  0  0  0  0  0  0  0  0  0
    0.8764   11.2310    1.8036 H   0  0  0  0  0  0  0  0  0  0  0  0
    0.3369   13.6841    1.0127 H   0  0  0  0  0  0  0  0  0  0  0  0
    0.4057   11.5536   -2.4155 H   0  0  0  0  0  0  0  0  0  0  0  0
    3.3572   11.6935   -1.5416 H   0  0  0  0  0  0  0  0  0  0  0  0
    2.6927   10.8578   -3.0147 H   0  0  0  0  0  0  0  0  0  0  0  0
    3.7415   13.0309   -3.5640 H   0  0  0  0  0  0  0  0  0  0  0  0
    1.9736   12.9862   -3.9356 H   0  0  0  0  0  0  0  0  0  0  0  0
    2.4935   15.0968   -2.9205 H   0  0  0  0  0  0  0  0  0  0  0  0
    4.1490   13.5340   -1.4410 H   0  0  0  0  0  0  0  0  0  0  0  0
   -0.9495   14.5902   -1.9972 H   0  0  0  0  0  0  0  0  0  0  0  0
    0.2202   15.2874   -3.1687 H   0  0  0  0  0  0  0  0  0  0  0  0
   -0.1063   13.5210   -3.1687 H   0  0  0  0  0  0  0  0  0  0  0  0
    1.1136   15.0762    0.4808 H   0  0  0  0  0  0  0  0  0  0  0  0
    1.9823   16.0612   -0.7446 H   0  0  0  0  0  0  0  0  0  0  0  0
    0.1869   16.0068   -0.7446 H   0  0  0  0  0  0  0  0  0  0  0  0
    2.1488    9.8536    0.9309 H   0  0  0  0  0  0  0  0  0  0  0  0
    2.5981    8.7814   -0.4385 H   0  0  0  0  0  0  0  0  0  0  0  0
    3.1137   10.5021   -0.4385 H   0  0  0  0  0  0  0  0  0  0  0  0
    1.3023    9.3241   -2.8653 H   0  0  0  0  0  0  0  0  0  0  0  0
    1.0348    8.1339   -1.4703 H   0  0  0  0  0  0  0  0  0  0  0  0
   -1.0666    9.6962   -2.9962 H   0  0  0  0  0  0  0  0  0  0  0  0
   -0.7928    7.9100   -2.9604 H   0  0  0  0  0  0  0  0  0  0  0  0
   -1.2695    7.6637    0.7249 H   0  0  0  0  0  0  0  0  0  0  0  0
   -1.8474    6.6083   -0.6089 H   0  0  0  0  0  0  0  0  0  0  0  0
   -0.1550    7.2104   -0.6089 H   0  0  0  0  0  0  0  0  0  0  0  0
  1  2  1  0
  2  3  1  0
  3  4  1  0
  4  5  1  0
  5  6  1  0
  6  7  1  0
  7  8  1  0
  7  9  1  0
  2 10  1  0
 10 11  1  0
 11 12  1  0
 12 13  1  0
 13 14  1  6
 13 15  1  0
 15 16  1  0
 16 17  1  0
 17 18  2  0
 18 19  1  0
 19 20  1  0
 20 21  1  0
 21 22  1  0
 22 23  1  0
 22 24  1  0
 24 25  1  0
 24 26  1  0
 19 27  1  0
 27 28  1  1
 27 29  1  0
 29 30  1  0
 30 31  1  0
 31 32  1  1
  7  5  1  0
 31 10  1  0
 31 13  1  0
 27 15  1  0
 24 18  1  0
  1 33  1  0
  1 34  1  0
  1 35  1  0
  2 36  1  1
  3 37  1  0
  3 38  1  0
  4 39  1  0
  4 40  1  0
  5 41  1  1
  8 42  1  0
  8 43  1  0
  8 44  1  0
  9 45  1  0
  9 46  1  0
  9 47  1  0
 10 48  1  6
 11 49  1  0
 11 50  1  0
 12 51  1  0
 12 52  1  0
 14 53  1  0
 14 54  1  0
 14 55  1  0
 15 56  1  1
 16 57  1  0
 16 58  1  0
 17 59  1  0
 19 60  1  6
 20 61  1  0
 20 62  1  0
 21 63  1  0
 21 64  1  0
 22 65  1  6
 23 66  1  0
 25 67  1  0
 25 68  1  0
 25 69  1  0
 26 70  1  0
 26 71  1  0
 26 72  1  0
 28 73  1  0
 28 74  1  0
 28 75  1  0
 29 76  1  0
 29 77  1  0
 30 78  1  0
 30 79  1  0
 32 80  1  0
 32 81  1  0
 32 82  1  0
M  END
>  <meeko>  (12) 
{"is_sidechain": [false], "intermolecular_energy": 2.731, "internal_energy": -0.839}

$$$$
EPH_relaxed_0001_pdb2pqr_Repair_67_r2_0001_out
     RDKit          3D

 82 86  0  0  0  0  0  0  0  0999 V2000
   -0.8510   16.3480   -5.8420 C   0  0  0  0  0  0  0  0  0  0  0  0
    0.2380   15.6420   -6.6540 C   0  0  2  0  0  0  0  0  0  0  0  0
   -0.1630   15.4620   -8.1320 C   0  0  0  0  0  0  0  0  0  0  0  0
    0.4700   16.4920   -9.0710 C   0  0  0  0  0  0  0  0  0  0  0  0
    1.8700   16.1120   -9.4480 C   0  0  2  0  0  0  0  0  0  0  0  0
    2.3350   16.6810  -10.6790 O   0  0  0  0  0  0  0  0  0  0  0  0
    2.2080   15.2500  -10.6510 C   0  0  0  0  0  0  0  0  0  0  0  0
    1.1390   14.7170  -11.5530 C   0  0  0  0  0  0  0  0  0  0  0  0
    3.5190   14.5280  -10.6690 C   0  0  0  0  0  0  0  0  0  0  0  0
    0.5540   14.2870   -6.0320 C   0  0  1  0  0  0  0  0  0  0  0  0
    1.8110   13.6220   -6.6530 C   0  0  0  0  0  0  0  0  0  0  0  0
    2.5220   12.8530   -5.5100 C   0  0  0  0  0  0  0  0  0  0  0  0
    1.4890   12.8220   -4.3600 C   0  0  1  0  0  0  0  0  0  0  0  0
    0.5230   11.6490   -4.7190 C   0  0  0  0  0  0  0  0  0  0  0  0
    2.0670   12.6710   -2.9150 C   0  0  2  0  0  0  0  0  0  0  0  0
    2.8310   11.3620   -2.6520 C   0  0  0  0  0  0  0  0  0  0  0  0
    2.0030   10.2330   -2.1350 C   0  0  0  0  0  0  0  0  0  0  0  0
    0.7630   10.3430   -1.6230 C   0  0  0  0  0  0  0  0  0  0  0  0
    0.1070   11.7180   -1.4350 C   0  0  1  0  0  0  0  0  0  0  0  0
   -0.5300   11.7990   -0.0240 C   0  0  0  0  0  0  0  0  0  0  0  0
   -1.4960   10.6500    0.2490 C   0  0  0  0  0  0  0  0  0  0  0  0
   -0.7940    9.3020    0.1100 C   0  0  2  0  0  0  0  0  0  0  0  0
    0.1770    9.1780    1.1540 O   0  0  0  0  0  0  0  0  0  0  0  0
   -0.1050    9.1100   -1.2700 C   0  0  0  0  0  0  0  0  0  0  0  0
   -1.1820    8.9420   -2.3710 C   0  0  0  0  0  0  0  0  0  0  0  0
    0.6840    7.7730   -1.2280 C   0  0  0  0  0  0  0  0  0  0  0  0
    1.0240   12.9730   -1.7640 C   0  0  1  0  0  0  0  0  0  0  0  0
    1.8530   13.3710   -0.5050 C   0  0  0  0  0  0  0  0  0  0  0  0
    0.1050   14.2070   -2.0990 C   0  0  0  0  0  0  0  0  0  0  0  0
   -0.3360   14.3680   -3.5660 C   0  0  0  0  0  0  0  0  0  0  0  0
    0.8620   14.2560   -4.5140 C   0  0  2  0  0  0  0  0  0  0  0  0
    1.8400   15.4360   -4.1910 C   0  0  0  0  0  0  0  0  0  0  0  0
   -0.6503   16.2179   -4.7683 H   0  0  0  0  0  0  0  0  0  0  0  0
   -0.8540   17.4203   -6.0871 H   0  0  0  0  0  0  0  0  0  0  0  0
   -1.8312   15.9131   -6.0871 H   0  0  0  0  0  0  0  0  0  0  0  0
    1.1335   16.2804   -6.6306 H   0  0  0  0  0  0  0  0  0  0  0  0
    0.1487   14.4583   -8.4567 H   0  0  0  0  0  0  0  0  0  0  0  0
   -1.2526   15.6019   -8.1889 H   0  0  0  0  0  0  0  0  0  0  0  0
   -0.1385   16.5628   -9.9847 H   0  0  0  0  0  0  0  0  0  0  0  0
    0.5065   17.4579   -8.5458 H   0  0  0  0  0  0  0  0  0  0  0  0
    2.1627   16.0495   -8.3895 H   0  0  0  0  0  0  0  0  0  0  0  0
    0.3178   14.3076  -10.9463 H   0  0  0  0  0  0  0  0  0  0  0  0
    0.7560   15.5296  -12.1878 H   0  0  0  0  0  0  0  0  0  0  0  0
    1.5575   13.9221  -12.1878 H   0  0  0  0  0  0  0  0  0  0  0  0
    3.8511   14.3451   -9.6364 H   0  0  0  0  0  0  0  0  0  0  0  0
    3.4014   13.5674  -11.1919 H   0  0  0  0  0  0  0  0  0  0  0  0
    4.2680   15.1409  -11.1919 H   0  0  0  0  0  0  0  0  0  0  0  0
   -0.3935   13.7663   -6.2348 H   0  0  0  0  0  0  0  0  0  0  0  0
    1.5155   12.9254   -7.4514 H   0  0  0  0  0  0  0  0  0  0  0  0
    2.4782   14.3760   -7.0960 H   0  0  0  0  0  0  0  0  0  0  0  0
    2.7783   11.8321   -5.8295 H   0  0  0  0  0  0  0  0  0  0  0  0
    3.4663   13.3307   -5.2100 H   0  0  0  0  0  0  0  0  0  0  0  0
    0.1446   11.1895   -3.7940 H   0  0  0  0  0  0  0  0  0  0  0  0
   -0.3214   12.0365   -5.3080 H   0  0  0  0  0  0  0  0  0  0  0  0
    1.0652   10.8946   -5.3080 H   0  0  0  0  0  0  0  0  0  0  0  0
    2.8218   13.4703   -2.8784 H   0  0  0  0  0  0  0  0  0  0  0  0
    3.2906   11.0408   -3.5983 H   0  0  0  0  0  0  0  0  0  0  0  0
    3.5618   11.5898   -1.8620 H   0  0  0  0  0  0  0  0  0  0  0  0
    2.4433    9.2258   -2.1758 H   0  0  0  0  0  0  0  0  0  0  0  0
   -0.6778   11.7888   -2.2026 H   0  0  0  0  0  0  0  0  0  0  0  0
    0.2729   11.7707    0.7274 H   0  0  0  0  0  0  0  0  0  0  0  0
   -1.1027   12.7366    0.0303 H   0  0  0  0  0  0  0  0  0  0  0  0
   -1.8905   10.7466    1.2713 H   0  0  0  0  0  0  0  0  0  0  0  0
   -2.3138   10.6971   -0.4851 H   0  0  0  0  0  0  0  0  0  0  0  0
   -1.5633    8.5196    0.1882 H   0  0  0  0  0  0  0  0  0  0  0  0
   -0.1650    8.5370    1.8000 H   0  0  0  0  0  0  0  0  0  0  0  0
   -2.1651    8.7887   -1.9019 H   0  0  0  0  0  0  0  0  0  0  0  0
   -1.2112    9.8464   -2.9964 H   0  0  0  0  0  0  0  0  0  0  0  0
   -0.9344    8.0716   -2.9964 H   0  0  0  0  0  0  0  0  0  0  0  0
    0.8560    7.4815   -0.1814 H   0  0  0  0  0  0  0  0  0  0  0  0
    0.1039    6.9888   -1.7364 H   0  0  0  0  0  0  0  0  0  0  0  0
    1.6509    7.9017   -1.7364 H   0  0  0  0  0  0  0  0  0  0  0  0
    1.2930   13.1021    0.4028 H   0  0  0  0  0  0  0  0  0  0  0  0
    2.8142   12.8362   -0.5148 H   0  0  0  0  0  0  0  0  0  0  0  0
    2.0367   14.4555   -0.5148 H   0  0  0  0  0  0  0  0  0  0  0  0
   -0.8043   14.1206   -1.4860 H   0  0  0  0  0  0  0  0  0  0  0  0
    0.7230   15.0917   -1.8860 H   0  0  0  0  0  0  0  0  0  0  0  0
   -1.0639   13.5807   -3.8114 H   0  0  0  0  0  0  0  0  0  0  0  0
   -0.7888   15.3629   -3.6890 H   0  0  0  0  0  0  0  0  0  0  0  0
    1.9325   15.5476   -3.1006 H   0  0  0  0  0  0  0  0  0  0  0  0
    2.8287   15.2214   -4.6228 H   0  0  0  0  0  0  0  0  0  0  0  0
    1.4457   16.3677   -4.6228 H   0  0  0  0  0  0  0  0  0  0  0  0
  1  2  1  0
  2  3  1  0
  3  4  1  0
  4  5  1  0
  5  6  1  0
  6  7  1  0
  7  8  1  0
  7  9  1  0
  2 10  1  0
 10 11  1  0
 11 12  1  0
 12 13  1  0
 13 14  1  6
 13 15  1  0
 15 16  1  0
 16 17  1  0
 17 18  2  0
 18 19  1  0
 19 20  1  0
 20 21  1  0
 21 22  1  0
 22 23  1  0
 22 24  1  0
 24 25  1  0
 24 26  1  0
 19 27  1  0
 27 28  1  1
 27 29  1  0
 29 30  1  0
 30 31  1  0
 31 32  1  1
  7  5  1  0
 31 10  1  0
 31 13  1  0
 27 15  1  0
 24 18  1  0
  1 33  1  0
  1 34  1  0
  1 35  1  0
  2 36  1  6
  3 37  1  0
  3 38  1  0
  4 39  1  0
  4 40  1  0
  5 41  1  1
  8 42  1  0
  8 43  1  0
  8 44  1  0
  9 45  1  0
  9 46  1  0
  9 47  1  0
 10 48  1  1
 11 49  1  0
 11 50  1  0
 12 51  1  0
 12 52  1  0
 14 53  1  0
 14 54  1  0
 14 55  1  0
 15 56  1  6
 16 57  1  0
 16 58  1  0
 17 59  1  0
 19 60  1  6
 20 61  1  0
 20 62  1  0
 21 63  1  0
 21 64  1  0
 22 65  1  1
 23 66  1  0
 25 67  1  0
 25 68  1  0
 25 69  1  0
 26 70  1  0
 26 71  1  0
 26 72  1  0
 28 73  1  0
 28 74  1  0
 28 75  1  0
 29 76  1  0
 29 77  1  0
 30 78  1  0
 30 79  1  0
 32 80  1  0
 32 81  1  0
 32 82  1  0
M  END
>  <meeko>  (13) 
{"is_sidechain": [false], "intermolecular_energy": 2.731, "internal_energy": -0.839}

$$$$
EPH_relaxed_0001_pdb2pqr_Repair_67_r2_0001_out
     RDKit          3D

 82 86  0  0  0  0  0  0  0  0999 V2000
   -0.2880   15.1100   -7.5540 C   0  0  0  0  0  0  0  0  0  0  0  0
    1.0990   15.0600   -6.9070 C   0  0  2  0  0  0  0  0  0  0  0  0
    2.2300   15.1330   -7.9520 C   0  0  0  0  0  0  0  0  0  0  0  0
    2.2680   16.4540   -8.7260 C   0  0  0  0  0  0  0  0  0  0  0  0
    1.8650   16.2690  -10.1570 C   0  0  2  0  0  0  0  0  0  0  0  0
    1.2040   15.0280  -10.4380 O   0  0  0  0  0  0  0  0  0  0  0  0
    2.4790   15.2250  -11.0720 C   0  0  0  0  0  0  0  0  0  0  0  0
    3.5490   14.2970  -10.5880 C   0  0  0  0  0  0  0  0  0  0  0  0
    2.3910   15.4300  -12.5520 C   0  0  0  0  0  0  0  0  0  0  0  0
    1.2390   13.7900   -6.0760 C   0  0  1  0  0  0  0  0  0  0  0  0
    2.6720   13.1960   -6.1290 C   0  0  0  0  0  0  0  0  0  0  0  0
    2.9550   12.5830   -4.7330 C   0  0  0  0  0  0  0  0  0  0  0  0
    1.5740   12.5470   -4.0370 C   0  0  1  0  0  0  0  0  0  0  0  0
    0.8760   11.2670   -4.5960 C   0  0  0  0  0  0  0  0  0  0  0  0
    1.5890   12.5590   -2.4730 C   0  0  2  0  0  0  0  0  0  0  0  0
    2.2740   11.3480   -1.8170 C   0  0  0  0  0  0  0  0  0  0  0  0
    1.3780   10.1910   -1.5200 C   0  0  0  0  0  0  0  0  0  0  0  0
    0.0330   10.2280   -1.5050 C   0  0  0  0  0  0  0  0  0  0  0  0
   -0.7210   11.5480   -1.7100 C   0  0  1  0  0  0  0  0  0  0  0  0
   -1.8370   11.6790   -0.6400 C   0  0  0  0  0  0  0  0  0  0  0  0
   -2.7690   10.4720   -0.6170 C   0  0  0  0  0  0  0  0  0  0  0  0
   -1.9900    9.1860   -0.3520 C   0  0  2  0  0  0  0  0  0  0  0  0
   -1.4660    9.2300    0.9780 O   0  0  0  0  0  0  0  0  0  0  0  0
   -0.8330    8.9520   -1.3630 C   0  0  0  0  0  0  0  0  0  0  0  0
   -1.4190    8.6050   -2.7540 C   0  0  0  0  0  0  0  0  0  0  0  0
   -0.0410    7.6990   -0.9000 C   0  0  0  0  0  0  0  0  0  0  0  0
    0.1800   12.8530   -1.8140 C   0  0  1  0  0  0  0  0  0  0  0  0
    0.4650   13.4180   -0.3890 C   0  0  0  0  0  0  0  0  0  0  0  0
   -0.6190   13.9700   -2.5840 C   0  0  0  0  0  0  0  0  0  0  0  0
   -0.4980   13.9780   -4.1200 C   0  0  0  0  0  0  0  0  0  0  0  0
    0.9690   13.9020   -4.5540 C   0  0  2  0  0  0  0  0  0  0  0  0
    1.6920   15.1870   -4.0240 C   0  0  0  0  0  0  0  0  0  0  0  0
   -1.0580   15.1378   -6.7689 H   0  0  0  0  0  0  0  0  0  0  0  0
   -0.3688   16.0116   -8.1789 H   0  0  0  0  0  0  0  0  0  0  0  0
   -0.4335   14.2165   -8.1789 H   0  0  0  0  0  0  0  0  0  0  0  0
    1.1930   15.9422   -6.2568 H   0  0  0  0  0  0  0  0  0  0  0  0
    3.1915   15.0069   -7.4327 H   0  0  0  0  0  0  0  0  0  0  0  0
    2.0419   14.3355   -8.6859 H   0  0  0  0  0  0  0  0  0  0  0  0
    1.5775   17.1660   -8.2503 H   0  0  0  0  0  0  0  0  0  0  0  0
    3.3003   16.8335   -8.7066 H   0  0  0  0  0  0  0  0  0  0  0  0
    1.7042   17.3507  -10.2753 H   0  0  0  0  0  0  0  0  0  0  0  0
    3.5578   14.2894   -9.4881 H   0  0  0  0  0  0  0  0  0  0  0  0
    3.3493   13.2813  -10.9601 H   0  0  0  0  0  0  0  0  0  0  0  0
    4.5263   14.6383  -10.9601 H   0  0  0  0  0  0  0  0  0  0  0  0
    1.9649   16.4226  -12.7600 H   0  0  0  0  0  0  0  0  0  0  0  0
    3.3970   15.3633  -12.9919 H   0  0  0  0  0  0  0  0  0  0  0  0
    1.7464   14.6548  -12.9919 H   0  0  0  0  0  0  0  0  0  0  0  0
    0.4628   13.1725   -6.5516 H   0  0  0  0  0  0  0  0  0  0  0  0
    2.7306   12.4171   -6.9035 H   0  0  0  0  0  0  0  0  0  0  0  0
    3.4117   13.9715   -6.3768 H   0  0  0  0  0  0  0  0  0  0  0  0
    3.3675   11.5679   -4.8307 H   0  0  0  0  0  0  0  0  0  0  0  0
    3.6947   13.1648   -4.1635 H   0  0  0  0  0  0  0  0  0  0  0  0
    0.5343   10.6405   -3.7589 H   0  0  0  0  0  0  0  0  0  0  0  0
    0.0124   11.5594   -5.2114 H   0  0  0  0  0  0  0  0  0  0  0  0
    1.5895   10.6994   -5.2114 H   0  0  0  0  0  0  0  0  0  0  0  0
    2.2330   13.4225   -2.2502 H   0  0  0  0  0  0  0  0  0  0  0  0
    3.0672   10.9984   -2.4941 H   0  0  0  0  0  0  0  0  0  0  0  0
    2.6480   11.7003   -0.8444 H   0  0  0  0  0  0  0  0  0  0  0  0
    1.8579    9.2272   -1.2945 H   0  0  0  0  0  0  0  0  0  0  0  0
   -1.1698   11.4884   -2.7125 H   0  0  0  0  0  0  0  0  0  0  0  0
   -1.3669   11.7806    0.3493 H   0  0  0  0  0  0  0  0  0  0  0  0
   -2.4410   12.5627   -0.8936 H   0  0  0  0  0  0  0  0  0  0  0  0
   -3.5171   10.6099    0.1776 H   0  0  0  0  0  0  0  0  0  0  0  0
   -3.2603   10.3891   -1.5977 H   0  0  0  0  0  0  0  0  0  0  0  0
   -2.6887    8.3454   -0.4752 H   0  0  0  0  0  0  0  0  0  0  0  0
   -1.1290    8.3430    1.1910 H   0  0  0  0  0  0  0  0  0  0  0  0
   -2.3592    8.0483   -2.6273 H   0  0  0  0  0  0  0  0  0  0  0  0
   -1.6146    9.5330   -3.3113 H   0  0  0  0  0  0  0  0  0  0  0  0
   -0.6994    7.9873   -3.3113 H   0  0  0  0  0  0  0  0  0  0  0  0
   -0.0192    7.6645    0.1992 H   0  0  0  0  0  0  0  0  0  0  0  0
   -0.5306    6.7926   -1.2856 H   0  0  0  0  0  0  0  0  0  0  0  0
    0.9878    7.7523   -1.2856 H   0  0  0  0  0  0  0  0  0  0  0  0
    0.1051   12.7046    0.3670 H   0  0  0  0  0  0  0  0  0  0  0  0
    1.5474   13.5695   -0.2643 H   0  0  0  0  0  0  0  0  0  0  0  0
   -0.0564   14.3785   -0.2643 H   0  0  0  0  0  0  0  0  0  0  0  0
   -1.6836   13.8491   -2.3348 H   0  0  0  0  0  0  0  0  0  0  0  0
   -0.1733   14.9205   -2.2555 H   0  0  0  0  0  0  0  0  0  0  0  0
   -1.0395   13.1119   -4.5283 H   0  0  0  0  0  0  0  0  0  0  0  0
   -0.9288   14.9156   -4.5012 H   0  0  0  0  0  0  0  0  0  0  0  0
    1.6892   15.1820   -2.9240 H   0  0  0  0  0  0  0  0  0  0  0  0
    2.7300   15.2002   -4.3879 H   0  0  0  0  0  0  0  0  0  0  0  0
    1.1645   16.0810   -4.3879 H   0  0  0  0  0  0  0  0  0  0  0  0
  1  2  1  0
  2  3  1  0
  3  4  1  0
  4  5  1  0
  5  6  1  0
  6  7  1  0
  7  8  1  0
  7  9  1  0
  2 10  1  0
 10 11  1  0
 11 12  1  0
 12 13  1  0
 13 14  1  1
 13 15  1  0
 15 16  1  0
 16 17  1  0
 17 18  2  0
 18 19  1  0
 19 20  1  0
 20 21  1  0
 21 22  1  0
 22 23  1  0
 22 24  1  0
 24 25  1  0
 24 26  1  0
 19 27  1  0
 27 28  1  1
 27 29  1  0
 29 30  1  0
 30 31  1  0
 31 32  1  1
  7  5  1  0
 31 10  1  0
 31 13  1  0
 27 15  1  0
 24 18  1  0
  1 33  1  0
  1 34  1  0
  1 35  1  0
  2 36  1  1
  3 37  1  0
  3 38  1  0
  4 39  1  0
  4 40  1  0
  5 41  1  6
  8 42  1  0
  8 43  1  0
  8 44  1  0
  9 45  1  0
  9 46  1  0
  9 47  1  0
 10 48  1  6
 11 49  1  0
 11 50  1  0
 12 51  1  0
 12 52  1  0
 14 53  1  0
 14 54  1  0
 14 55  1  0
 15 56  1  6
 16 57  1  0
 16 58  1  0
 17 59  1  0
 19 60  1  6
 20 61  1  0
 20 62  1  0
 21 63  1  0
 21 64  1  0
 22 65  1  1
 23 66  1  0
 25 67  1  0
 25 68  1  0
 25 69  1  0
 26 70  1  0
 26 71  1  0
 26 72  1  0
 28 73  1  0
 28 74  1  0
 28 75  1  0
 29 76  1  0
 29 77  1  0
 30 78  1  0
 30 79  1  0
 32 80  1  0
 32 81  1  0
 32 82  1  0
M  END
>  <meeko>  (14) 
{"is_sidechain": [false], "intermolecular_energy": 2.731, "internal_energy": -0.839}

$$$$
EPH_relaxed_0001_pdb2pqr_Repair_67_r2_0001_out
     RDKit          3D

 82 86  0  0  0  0  0  0  0  0999 V2000
   -2.0680    7.8320   -1.9750 C   0  0  0  0  0  0  0  0  0  0  0  0
   -2.1740    8.5230   -0.6120 C   0  0  2  0  0  0  0  0  0  0  0  0
   -3.6230    8.5510   -0.0860 C   0  0  0  0  0  0  0  0  0  0  0  0
   -4.6790    8.3780   -1.1810 C   0  0  0  0  0  0  0  0  0  0  0  0
   -5.6510    7.2880   -0.8470 C   0  0  2  0  0  0  0  0  0  0  0  0
   -5.9180    6.3750   -1.9190 O   0  0  0  0  0  0  0  0  0  0  0  0
   -7.0270    7.1730   -1.4760 C   0  0  0  0  0  0  0  0  0  0  0  0
   -7.5070    8.1640   -2.4890 C   0  0  0  0  0  0  0  0  0  0  0  0
   -8.0810    6.3930   -0.7530 C   0  0  0  0  0  0  0  0  0  0  0  0
   -1.6260    9.9420   -0.7050 C   0  0  1  0  0  0  0  0  0  0  0  0
   -1.1290   10.4820    0.6620 C   0  0  0  0  0  0  0  0  0  0  0  0
    0.0980   11.3830    0.3680 C   0  0  0  0  0  0  0  0  0  0  0  0
    0.0650   11.5990   -1.1630 C   0  0  1  0  0  0  0  0  0  0  0  0
   -0.9810   12.7360   -1.3850 C   0  0  0  0  0  0  0  0  0  0  0  0
    1.4330   11.9330   -1.8440 C   0  0  2  0  0  0  0  0  0  0  0  0
    2.0880   13.2460   -1.3810 C   0  0  0  0  0  0  0  0  0  0  0  0
    1.7190   14.4560   -2.1730 C   0  0  0  0  0  0  0  0  0  0  0  0
    1.1230   14.4500   -3.3800 C   0  0  0  0  0  0  0  0  0  0  0  0
    0.8480   13.1320   -4.1160 C   0  0  1  0  0  0  0  0  0  0  0  0
    1.2920   13.2630   -5.5960 C   0  0  0  0  0  0  0  0  0  0  0  0
    0.6590   14.4630   -6.2930 C   0  0  0  0  0  0  0  0  0  0  0  0
    1.0030   15.7600   -5.5660 C   0  0  2  0  0  0  0  0  0  0  0  0
    2.4070   16.0020   -5.6940 O   0  0  0  0  0  0  0  0  0  0  0  0
    0.6100   15.7420   -4.0620 C   0  0  0  0  0  0  0  0  0  0  0  0
   -0.9320   15.7840   -3.9260 C   0  0  0  0  0  0  0  0  0  0  0  0
    1.1390   17.0510   -3.4150 C   0  0  0  0  0  0  0  0  0  0  0  0
    1.4160   11.8190   -3.4220 C   0  0  1  0  0  0  0  0  0  0  0  0
    2.8910   11.5780   -3.8670 C   0  0  0  0  0  0  0  0  0  0  0  0
    0.5910   10.5750   -3.9240 C   0  0  0  0  0  0  0  0  0  0  0  0
   -0.6860   10.2250   -3.1370 C   0  0  0  0  0  0  0  0  0  0  0  0
   -0.4060   10.1750   -1.6320 C   0  0  2  0  0  0  0  0  0  0  0  0
    0.6270    9.0250   -1.3760 C   0  0  0  0  0  0  0  0  0  0  0  0
   -1.9027    6.7545   -1.8280 H   0  0  0  0  0  0  0  0  0  0  0  0
   -3.0003    7.9865   -2.5379 H   0  0  0  0  0  0  0  0  0  0  0  0
   -1.2248    8.2588   -2.5379 H   0  0  0  0  0  0  0  0  0  0  0  0
   -1.5751    7.9392    0.1025 H   0  0  0  0  0  0  0  0  0  0  0  0
   -3.7432    7.7370    0.6440 H   0  0  0  0  0  0  0  0  0  0  0  0
   -3.7834    9.5431    0.3612 H   0  0  0  0  0  0  0  0  0  0  0  0
   -5.2296    9.3231   -1.2976 H   0  0  0  0  0  0  0  0  0  0  0  0
   -4.1639    8.1039   -2.1135 H   0  0  0  0  0  0  0  0  0  0  0  0
   -5.3151    7.2769    0.2004 H   0  0  0  0  0  0  0  0  0  0  0  0
   -7.9307    9.0388   -1.9740 H   0  0  0  0  0  0  0  0  0  0  0  0
   -6.6633    8.4824   -3.1189 H   0  0  0  0  0  0  0  0  0  0  0  0
   -8.2799    7.6994   -3.1189 H   0  0  0  0  0  0  0  0  0  0  0  0
   -7.9366    6.4999    0.3322 H   0  0  0  0  0  0  0  0  0  0  0  0
   -9.0746    6.7750   -1.0300 H   0  0  0  0  0  0  0  0  0  0  0  0
   -8.0061    5.3311   -1.0300 H   0  0  0  0  0  0  0  0  0  0  0  0
   -2.5106   10.4538   -1.1118 H   0  0  0  0  0  0  0  0  0  0  0  0
   -1.9221   11.0690    1.1483 H   0  0  0  0  0  0  0  0  0  0  0  0
   -0.8602    9.6571    1.3382 H   0  0  0  0  0  0  0  0  0  0  0  0
    0.0106   12.3431    0.8977 H   0  0  0  0  0  0  0  0  0  0  0  0
    1.0407   10.9272    0.7049 H   0  0  0  0  0  0  0  0  0  0  0  0
   -1.3266   13.1117   -0.4106 H   0  0  0  0  0  0  0  0  0  0  0  0
   -0.5158   13.5569   -1.9504 H   0  0  0  0  0  0  0  0  0  0  0  0
   -1.8378   12.3407   -1.9504 H   0  0  0  0  0  0  0  0  0  0  0  0
    2.0847   11.1279   -1.4738 H   0  0  0  0  0  0  0  0  0  0  0  0
    1.7951   13.4218   -0.3354 H   0  0  0  0  0  0  0  0  0  0  0  0
    3.1710   13.1109   -1.5182 H   0  0  0  0  0  0  0  0  0  0  0  0
    1.9541   15.4363   -1.7329 H   0  0  0  0  0  0  0  0  0  0  0  0
   -0.2398   12.9764   -4.0654 H   0  0  0  0  0  0  0  0  0  0  0  0
    2.3860   13.3738   -5.6274 H   0  0  0  0  0  0  0  0  0  0  0  0
    0.9612   12.3571   -6.1251 H   0  0  0  0  0  0  0  0  0  0  0  0
    1.0341   14.5187   -7.3256 H   0  0  0  0  0  0  0  0  0  0  0  0
   -0.4337   14.3363   -6.2870 H   0  0  0  0  0  0  0  0  0  0  0  0
    0.4174   16.5654   -6.0333 H   0  0  0  0  0  0  0  0  0  0  0  0
    2.8370   15.1490   -5.8760 H   0  0  0  0  0  0  0  0  0  0  0  0
   -1.2061   15.7915   -2.8607 H   0  0  0  0  0  0  0  0  0  0  0  0
   -1.3182   16.6930   -4.4103 H   0  0  0  0  0  0  0  0  0  0  0  0
   -1.3671   14.8974   -4.4103 H   0  0  0  0  0  0  0  0  0  0  0  0
    1.1020   16.9595   -2.3194 H   0  0  0  0  0  0  0  0  0  0  0  0
    2.1776   17.2238   -3.7336 H   0  0  0  0  0  0  0  0  0  0  0  0
    0.5121   17.8969   -3.7336 H   0  0  0  0  0  0  0  0  0  0  0  0
    3.5299   11.4736   -2.9777 H   0  0  0  0  0  0  0  0  0  0  0  0
    2.9470   10.6588   -4.4686 H   0  0  0  0  0  0  0  0  0  0  0  0
    3.2366   12.4316   -4.4686 H   0  0  0  0  0  0  0  0  0  0  0  0
    0.2970   10.7692   -4.9660 H   0  0  0  0  0  0  0  0  0  0  0  0
    1.2592    9.7121   -3.7867 H   0  0  0  0  0  0  0  0  0  0  0  0
   -1.4518   10.9894   -3.3354 H   0  0  0  0  0  0  0  0  0  0  0  0
   -1.0376    9.2345   -3.4615 H   0  0  0  0  0  0  0  0  0  0  0  0
    0.7555    8.8819   -0.2929 H   0  0  0  0  0  0  0  0  0  0  0  0
    0.2572    8.0927   -1.8277 H   0  0  0  0  0  0  0  0  0  0  0  0
    1.5935    9.2930   -1.8277 H   0  0  0  0  0  0  0  0  0  0  0  0
  1  2  1  0
  2  3  1  0
  3  4  1  0
  4  5  1  0
  5  6  1  0
  6  7  1  0
  7  8  1  0
  7  9  1  0
  2 10  1  0
 10 11  1  0
 11 12  1  0
 12 13  1  0
 13 14  1  1
 13 15  1  0
 15 16  1  0
 16 17  1  0
 17 18  2  0
 18 19  1  0
 19 20  1  0
 20 21  1  0
 21 22  1  0
 22 23  1  0
 22 24  1  0
 24 25  1  0
 24 26  1  0
 19 27  1  0
 27 28  1  6
 27 29  1  0
 29 30  1  0
 30 31  1  0
 31 32  1  6
  7  5  1  0
 31 10  1  0
 31 13  1  0
 27 15  1  0
 24 18  1  0
  1 33  1  0
  1 34  1  0
  1 35  1  0
  2 36  1  1
  3 37  1  0
  3 38  1  0
  4 39  1  0
  4 40  1  0
  5 41  1  1
  8 42  1  0
  8 43  1  0
  8 44  1  0
  9 45  1  0
  9 46  1  0
  9 47  1  0
 10 48  1  6
 11 49  1  0
 11 50  1  0
 12 51  1  0
 12 52  1  0
 14 53  1  0
 14 54  1  0
 14 55  1  0
 15 56  1  1
 16 57  1  0
 16 58  1  0
 17 59  1  0
 19 60  1  6
 20 61  1  0
 20 62  1  0
 21 63  1  0
 21 64  1  0
 22 65  1  6
 23 66  1  0
 25 67  1  0
 25 68  1  0
 25 69  1  0
 26 70  1  0
 26 71  1  0
 26 72  1  0
 28 73  1  0
 28 74  1  0
 28 75  1  0
 29 76  1  0
 29 77  1  0
 30 78  1  0
 30 79  1  0
 32 80  1  0
 32 81  1  0
 32 82  1  0
M  END
>  <meeko>  (15) 
{"is_sidechain": [false], "intermolecular_energy": 2.731, "internal_energy": -0.839}

$$$$
EPH_relaxed_0001_pdb2pqr_Repair_67_r2_0001_out
     RDKit          3D

 82 86  0  0  0  0  0  0  0  0999 V2000
    0.2690    9.3200   -2.2670 C   0  0  0  0  0  0  0  0  0  0  0  0
    1.2870   10.3630   -2.7370 C   0  0  2  0  0  0  0  0  0  0  0  0
    2.7110    9.7810   -2.8360 C   0  0  0  0  0  0  0  0  0  0  0  0
    3.6270   10.5530   -3.7900 C   0  0  0  0  0  0  0  0  0  0  0  0
    5.0240   10.6530   -3.2570 C   0  0  2  0  0  0  0  0  0  0  0  0
    5.6690   11.9110   -3.5000 O   0  0  0  0  0  0  0  0  0  0  0  0
    6.2510   10.7660   -4.1430 C   0  0  0  0  0  0  0  0  0  0  0  0
    6.1370   10.7830   -5.6350 C   0  0  0  0  0  0  0  0  0  0  0  0
    7.5790   10.3680   -3.5800 C   0  0  0  0  0  0  0  0  0  0  0  0
    1.2780   11.5600   -1.7930 C   0  0  1  0  0  0  0  0  0  0  0  0
    2.3420   11.4420   -0.6680 C   0  0  0  0  0  0  0  0  0  0  0  0
    2.8570   12.8770   -0.3870 C   0  0  0  0  0  0  0  0  0  0  0  0
    1.8500   13.8010   -1.1110 C   0  0  1  0  0  0  0  0  0  0  0  0
    0.6350   13.9110   -0.1370 C   0  0  0  0  0  0  0  0  0  0  0  0
    2.3830   15.2100   -1.5300 C   0  0  2  0  0  0  0  0  0  0  0  0
    2.8200   16.1160   -0.3650 C   0  0  0  0  0  0  0  0  0  0  0  0
    1.7510   16.9960    0.1930 C   0  0  0  0  0  0  0  0  0  0  0  0
    0.5740   17.2690   -0.4000 C   0  0  0  0  0  0  0  0  0  0  0  0
    0.2600   16.7450   -1.8070 C   0  0  1  0  0  0  0  0  0  0  0  0
   -0.3350   17.8920   -2.6660 C   0  0  0  0  0  0  0  0  0  0  0  0
   -1.5420   18.5510   -2.0060 C   0  0  0  0  0  0  0  0  0  0  0  0
   -1.1760   19.1110   -0.6340 C   0  0  2  0  0  0  0  0  0  0  0  0
   -0.2570   20.1930   -0.8080 O   0  0  0  0  0  0  0  0  0  0  0  0
   -0.5580   18.0470    0.3160 C   0  0  0  0  0  0  0  0  0  0  0  0
   -1.6480   17.0350    0.7450 C   0  0  0  0  0  0  0  0  0  0  0  0
   -0.1040   18.7720    1.6120 C   0  0  0  0  0  0  0  0  0  0  0  0
    1.4450   15.9830   -2.5430 C   0  0  1  0  0  0  0  0  0  0  0  0
    2.3500   17.0060   -3.2950 C   0  0  0  0  0  0  0  0  0  0  0  0
    0.8400   15.0330   -3.6430 C   0  0  0  0  0  0  0  0  0  0  0  0
    0.4430   13.6140   -3.1930 C   0  0  0  0  0  0  0  0  0  0  0  0
    1.5770   12.9510   -2.4050 C   0  0  2  0  0  0  0  0  0  0  0  0
    2.8070   12.8070   -3.3660 C   0  0  0  0  0  0  0  0  0  0  0  0
    0.2476    9.2981   -1.1674 H   0  0  0  0  0  0  0  0  0  0  0  0
   -0.7287    9.5837   -2.6480 H   0  0  0  0  0  0  0  0  0  0  0  0
    0.5568    8.3290   -2.6480 H   0  0  0  0  0  0  0  0  0  0  0  0
    0.9905   10.6833   -3.7467 H   0  0  0  0  0  0  0  0  0  0  0  0
    3.1626    9.7958   -1.8331 H   0  0  0  0  0  0  0  0  0  0  0  0
    2.6143    8.7617   -3.2380 H   0  0  0  0  0  0  0  0  0  0  0  0
    3.6515   10.0334   -4.7592 H   0  0  0  0  0  0  0  0  0  0  0  0
    3.2278   11.5722   -3.8992 H   0  0  0  0  0  0  0  0  0  0  0  0
    4.7777    9.9844   -2.4190 H   0  0  0  0  0  0  0  0  0  0  0  0
    5.0864   10.9397   -5.9207 H   0  0  0  0  0  0  0  0  0  0  0  0
    6.7529   11.5992   -6.0405 H   0  0  0  0  0  0  0  0  0  0  0  0
    6.4879    9.8226   -6.0405 H   0  0  0  0  0  0  0  0  0  0  0  0
    7.5306   10.3825   -2.4812 H   0  0  0  0  0  0  0  0  0  0  0  0
    7.8335    9.3541   -3.9225 H   0  0  0  0  0  0  0  0  0  0  0  0
    8.3492   11.0748   -3.9225 H   0  0  0  0  0  0  0  0  0  0  0  0
    0.2336   11.5164   -1.4505 H   0  0  0  0  0  0  0  0  0  0  0  0
    1.8880   11.0180    0.2398 H   0  0  0  0  0  0  0  0  0  0  0  0
    3.1657   10.7792   -0.9715 H   0  0  0  0  0  0  0  0  0  0  0  0
    2.8649   13.0822    0.6937 H   0  0  0  0  0  0  0  0  0  0  0  0
    3.8884   13.0267   -0.7389 H   0  0  0  0  0  0  0  0  0  0  0  0
    0.9941   13.8785    0.9022 H   0  0  0  0  0  0  0  0  0  0  0  0
    0.1084   14.8605   -0.3135 H   0  0  0  0  0  0  0  0  0  0  0  0
   -0.0536   13.0715   -0.3135 H   0  0  0  0  0  0  0  0  0  0  0  0
    3.3049   14.9602   -2.0757 H   0  0  0  0  0  0  0  0  0  0  0  0
    3.1885   15.4719    0.4470 H   0  0  0  0  0  0  0  0  0  0  0  0
    3.5868   16.7902   -0.7744 H   0  0  0  0  0  0  0  0  0  0  0  0
    1.9414   17.4607    1.1717 H   0  0  0  0  0  0  0  0  0  0  0  0
   -0.4890   15.9502   -1.6757 H   0  0  0  0  0  0  0  0  0  0  0  0
    0.4418   18.6550   -2.8223 H   0  0  0  0  0  0  0  0  0  0  0  0
   -0.6715   17.4561   -3.6182 H   0  0  0  0  0  0  0  0  0  0  0  0
   -1.8989   19.3713   -2.6460 H   0  0  0  0  0  0  0  0  0  0  0  0
   -2.3288   17.7931   -1.8772 H   0  0  0  0  0  0  0  0  0  0  0  0
   -2.1066   19.4538   -0.1580 H   0  0  0  0  0  0  0  0  0  0  0  0
    0.6030   19.8130   -1.0540 H   0  0  0  0  0  0  0  0  0  0  0  0
   -1.6956   16.9908    1.8431 H   0  0  0  0  0  0  0  0  0  0  0  0
   -2.6226   17.3557    0.3484 H   0  0  0  0  0  0  0  0  0  0  0  0
   -1.4004   16.0393    0.3484 H   0  0  0  0  0  0  0  0  0  0  0  0
   -0.4562   18.2096    2.4893 H   0  0  0  0  0  0  0  0  0  0  0  0
    0.9941   18.8333    1.6324 H   0  0  0  0  0  0  0  0  0  0  0  0
   -0.5283   19.7867    1.6324 H   0  0  0  0  0  0  0  0  0  0  0  0
    2.8942   17.6212   -2.5633 H   0  0  0  0  0  0  0  0  0  0  0  0
    3.0698   16.4642   -3.9261 H   0  0  0  0  0  0  0  0  0  0  0  0
    1.7244   17.6544   -3.9261 H   0  0  0  0  0  0  0  0  0  0  0  0
   -0.0615   15.5195   -4.0437 H   0  0  0  0  0  0  0  0  0  0  0  0
    1.6488   14.8875   -4.3742 H   0  0  0  0  0  0  0  0  0  0  0  0
   -0.4506   13.6759   -2.5545 H   0  0  0  0  0  0  0  0  0  0  0  0
    0.2362   13.0076   -4.0872 H   0  0  0  0  0  0  0  0  0  0  0  0
    3.7262   12.6994   -2.7715 H   0  0  0  0  0  0  0  0  0  0  0  0
    2.6745   11.9182   -4.0005 H   0  0  0  0  0  0  0  0  0  0  0  0
    2.8834   13.7023   -4.0005 H   0  0  0  0  0  0  0  0  0  0  0  0
  1  2  1  0
  2  3  1  0
  3  4  1  0
  4  5  1  0
  5  6  1  0
  6  7  1  0
  7  8  1  0
  7  9  1  0
  2 10  1  0
 10 11  1  0
 11 12  1  0
 12 13  1  0
 13 14  1  1
 13 15  1  0
 15 16  1  0
 16 17  1  0
 17 18  2  0
 18 19  1  0
 19 20  1  0
 20 21  1  0
 21 22  1  0
 22 23  1  0
 22 24  1  0
 24 25  1  0
 24 26  1  0
 19 27  1  0
 27 28  1  6
 27 29  1  0
 29 30  1  0
 30 31  1  0
 31 32  1  6
  7  5  1  0
 31 10  1  0
 31 13  1  0
 27 15  1  0
 24 18  1  0
  1 33  1  0
  1 34  1  0
  1 35  1  0
  2 36  1  6
  3 37  1  0
  3 38  1  0
  4 39  1  0
  4 40  1  0
  5 41  1  1
  8 42  1  0
  8 43  1  0
  8 44  1  0
  9 45  1  0
  9 46  1  0
  9 47  1  0
 10 48  1  1
 11 49  1  0
 11 50  1  0
 12 51  1  0
 12 52  1  0
 14 53  1  0
 14 54  1  0
 14 55  1  0
 15 56  1  6
 16 57  1  0
 16 58  1  0
 17 59  1  0
 19 60  1  1
 20 61  1  0
 20 62  1  0
 21 63  1  0
 21 64  1  0
 22 65  1  1
 23 66  1  0
 25 67  1  0
 25 68  1  0
 25 69  1  0
 26 70  1  0
 26 71  1  0
 26 72  1  0
 28 73  1  0
 28 74  1  0
 28 75  1  0
 29 76  1  0
 29 77  1  0
 30 78  1  0
 30 79  1  0
 32 80  1  0
 32 81  1  0
 32 82  1  0
M  END
>  <meeko>  (16) 
{"is_sidechain": [false], "intermolecular_energy": 2.731, "internal_energy": -0.839}

$$$$
EPH_relaxed_0001_pdb2pqr_Repair_67_r2_0001_out
     RDKit          3D

 82 86  0  0  0  0  0  0  0  0999 V2000
    0.4220   18.9430   -2.4650 C   0  0  0  0  0  0  0  0  0  0  0  0
   -0.0450   17.9210   -1.4250 C   0  0  2  0  0  0  0  0  0  0  0  0
    0.4890   18.2430   -0.0150 C   0  0  0  0  0  0  0  0  0  0  0  0
    1.3080   19.5340    0.0530 C   0  0  0  0  0  0  0  0  0  0  0  0
    2.3870   19.4530    1.0910 C   0  0  2  0  0  0  0  0  0  0  0  0
    3.5750   20.1920    0.7800 O   0  0  0  0  0  0  0  0  0  0  0  0
    3.7190   18.7650    0.8610 C   0  0  0  0  0  0  0  0  0  0  0  0
    4.0440   18.1110   -0.4460 C   0  0  0  0  0  0  0  0  0  0  0  0
    4.5020   18.3050    2.0510 C   0  0  0  0  0  0  0  0  0  0  0  0
    0.3920   16.5210   -1.8400 C   0  0  1  0  0  0  0  0  0  0  0  0
    1.7730   16.5110   -2.5470 C   0  0  0  0  0  0  0  0  0  0  0  0
    2.4800   15.1950   -2.1310 C   0  0  0  0  0  0  0  0  0  0  0  0
    1.3660   14.3450   -1.4760 C   0  0  1  0  0  0  0  0  0  0  0  0
    0.5970   13.7020   -2.6720 C   0  0  0  0  0  0  0  0  0  0  0  0
    1.8360   13.2670   -0.4450 C   0  0  2  0  0  0  0  0  0  0  0  0
    2.7400   12.1640   -1.0210 C   0  0  0  0  0  0  0  0  0  0  0  0
    2.0250   10.9570   -1.5330 C   0  0  0  0  0  0  0  0  0  0  0  0
    0.7430   10.6390   -1.2760 C   0  0  0  0  0  0  0  0  0  0  0  0
   -0.1000   11.4860   -0.3130 C   0  0  1  0  0  0  0  0  0  0  0  0
   -0.8600   10.5530    0.6660 C   0  0  0  0  0  0  0  0  0  0  0  0
   -1.6870    9.4940   -0.0560 C   0  0  0  0  0  0  0  0  0  0  0  0
   -0.8040    8.6360   -0.9590 C   0  0  2  0  0  0  0  0  0  0  0  0
    0.0830    7.8670   -0.1400 O   0  0  0  0  0  0  0  0  0  0  0  0
    0.0180    9.4680   -1.9830 C   0  0  0  0  0  0  0  0  0  0  0  0
   -0.9310   10.0590   -3.0540 C   0  0  0  0  0  0  0  0  0  0  0  0
    0.9690    8.4970   -2.7330 C   0  0  0  0  0  0  0  0  0  0  0  0
    0.6690   12.6590    0.4330 C   0  0  1  0  0  0  0  0  0  0  0  0
    1.3290   12.1170    1.7380 C   0  0  0  0  0  0  0  0  0  0  0  0
   -0.3720   13.7510    0.8840 C   0  0  0  0  0  0  0  0  0  0  0  0
   -0.7050   14.8570   -0.1360 C   0  0  0  0  0  0  0  0  0  0  0  0
    0.5730   15.4700   -0.7160 C   0  0  2  0  0  0  0  0  0  0  0  0
    1.3570   16.1440    0.4600 C   0  0  0  0  0  0  0  0  0  0  0  0
    0.8266   19.8285   -1.9529 H   0  0  0  0  0  0  0  0  0  0  0  0
    1.2043   18.4941   -3.0946 H   0  0  0  0  0  0  0  0  0  0  0  0
   -0.4295   19.2407   -3.0946 H   0  0  0  0  0  0  0  0  0  0  0  0
   -1.1430   17.9703   -1.3817 H   0  0  0  0  0  0  0  0  0  0  0  0
   -0.3684   18.3394    0.6674 H   0  0  0  0  0  0  0  0  0  0  0  0
    1.1616   17.4204    0.2695 H   0  0  0  0  0  0  0  0  0  0  0  0
    1.7706   19.7147   -0.9285 H   0  0  0  0  0  0  0  0  0  0  0  0
    0.6301   20.3558    0.3269 H   0  0  0  0  0  0  0  0  0  0  0  0
    1.6399   19.3652    1.8936 H   0  0  0  0  0  0  0  0  0  0  0  0
    4.5265   17.1401   -0.2602 H   0  0  0  0  0  0  0  0  0  0  0  0
    3.1178   17.9565   -1.0190 H   0  0  0  0  0  0  0  0  0  0  0  0
    4.7265   18.7559   -1.0190 H   0  0  0  0  0  0  0  0  0  0  0  0
    3.9829   18.6099    2.9716 H   0  0  0  0  0  0  0  0  0  0  0  0
    4.5943   17.2091    2.0279 H   0  0  0  0  0  0  0  0  0  0  0  0
    5.5042   18.7579    2.0279 H   0  0  0  0  0  0  0  0  0  0  0  0
   -0.4588   16.2449   -2.4803 H   0  0  0  0  0  0  0  0  0  0  0  0
    1.6398   16.5406   -3.6385 H   0  0  0  0  0  0  0  0  0  0  0  0
    2.3705   17.3883   -2.2583 H   0  0  0  0  0  0  0  0  0  0  0  0
    2.8938   14.6813   -3.0112 H   0  0  0  0  0  0  0  0  0  0  0  0
    3.3251   15.3724   -1.4496 H   0  0  0  0  0  0  0  0  0  0  0  0
   -0.1935   13.0411   -2.2868 H   0  0  0  0  0  0  0  0  0  0  0  0
    0.1451   14.4949   -3.2861 H   0  0  0  0  0  0  0  0  0  0  0  0
    1.2973   13.1168   -3.2861 H   0  0  0  0  0  0  0  0  0  0  0  0
    2.4747   13.8514    0.2337 H   0  0  0  0  0  0  0  0  0  0  0  0
    3.3161   12.5962   -1.8525 H   0  0  0  0  0  0  0  0  0  0  0  0
    3.3658   11.8160   -0.1860 H   0  0  0  0  0  0  0  0  0  0  0  0
    2.5950   10.2692   -2.1750 H   0  0  0  0  0  0  0  0  0  0  0  0
   -0.8189   12.0349   -0.9390 H   0  0  0  0  0  0  0  0  0  0  0  0
   -0.1268   10.0476    1.3118 H   0  0  0  0  0  0  0  0  0  0  0  0
   -1.5533   11.1763    1.2499 H   0  0  0  0  0  0  0  0  0  0  0  0
   -2.1753    8.8485    0.6890 H   0  0  0  0  0  0  0  0  0  0  0  0
   -2.4400    9.9998   -0.6783 H   0  0  0  0  0  0  0  0  0  0  0  0
   -1.4675    7.9844   -1.5465 H   0  0  0  0  0  0  0  0  0  0  0  0
   -0.2480    6.9530   -0.1250 H   0  0  0  0  0  0  0  0  0  0  0  0
   -1.7647   10.5782   -2.5587 H   0  0  0  0  0  0  0  0  0  0  0  0
   -0.3765   10.7717   -3.6821 H   0  0  0  0  0  0  0  0  0  0  0  0
   -1.3260    9.2469   -3.6821 H   0  0  0  0  0  0  0  0  0  0  0  0
    1.5442    7.9097   -2.0021 H   0  0  0  0  0  0  0  0  0  0  0  0
    0.3767    7.8182   -3.3642 H   0  0  0  0  0  0  0  0  0  0  0  0
    1.6600    9.0751   -3.3642 H   0  0  0  0  0  0  0  0  0  0  0  0
    0.8135   12.5403    2.6127 H   0  0  0  0  0  0  0  0  0  0  0  0
    1.2495   11.0201    1.7609 H   0  0  0  0  0  0  0  0  0  0  0  0
    2.3895   12.4083    1.7609 H   0  0  0  0  0  0  0  0  0  0  0  0
   -1.3105   13.2337    1.1321 H   0  0  0  0  0  0  0  0  0  0  0  0
    0.1045   14.2717    1.7277 H   0  0  0  0  0  0  0  0  0  0  0  0
   -1.3003   14.4249   -0.9539 H   0  0  0  0  0  0  0  0  0  0  0  0
   -1.2723   15.6479    0.3766 H   0  0  0  0  0  0  0  0  0  0  0  0
    0.9500   15.7941    1.4201 H   0  0  0  0  0  0  0  0  0  0  0  0
    2.4214   15.8746    0.3930 H   0  0  0  0  0  0  0  0  0  0  0  0
    1.2504   17.2368    0.3930 H   0  0  0  0  0  0  0  0  0  0  0  0
  1  2  1  0
  2  3  1  0
  3  4  1  0
  4  5  1  0
  5  6  1  0
  6  7  1  0
  7  8  1  0
  7  9  1  0
  2 10  1  0
 10 11  1  0
 11 12  1  0
 12 13  1  0
 13 14  1  6
 13 15  1  0
 15 16  1  0
 16 17  1  0
 17 18  2  0
 18 19  1  0
 19 20  1  0
 20 21  1  0
 21 22  1  0
 22 23  1  0
 22 24  1  0
 24 25  1  0
 24 26  1  0
 19 27  1  0
 27 28  1  1
 27 29  1  0
 29 30  1  0
 30 31  1  0
 31 32  1  1
  7  5  1  0
 31 10  1  0
 31 13  1  0
 27 15  1  0
 24 18  1  0
  1 33  1  0
  1 34  1  0
  1 35  1  0
  2 36  1  1
  3 37  1  0
  3 38  1  0
  4 39  1  0
  4 40  1  0
  5 41  1  1
  8 42  1  0
  8 43  1  0
  8 44  1  0
  9 45  1  0
  9 46  1  0
  9 47  1  0
 10 48  1  6
 11 49  1  0
 11 50  1  0
 12 51  1  0
 12 52  1  0
 14 53  1  0
 14 54  1  0
 14 55  1  0
 15 56  1  1
 16 57  1  0
 16 58  1  0
 17 59  1  0
 19 60  1  6
 20 61  1  0
 20 62  1  0
 21 63  1  0
 21 64  1  0
 22 65  1  6
 23 66  1  0
 25 67  1  0
 25 68  1  0
 25 69  1  0
 26 70  1  0
 26 71  1  0
 26 72  1  0
 28 73  1  0
 28 74  1  0
 28 75  1  0
 29 76  1  0
 29 77  1  0
 30 78  1  0
 30 79  1  0
 32 80  1  0
 32 81  1  0
 32 82  1  0
M  END
>  <meeko>  (17) 
{"is_sidechain": [false], "intermolecular_energy": 2.731, "internal_energy": -0.839}

$$$$
EPH_relaxed_0001_pdb2pqr_Repair_67_r2_0001_out
     RDKit          3D

 82 86  0  0  0  0  0  0  0  0999 V2000
    2.8060   17.9230   -4.1230 C   0  0  0  0  0  0  0  0  0  0  0  0
    2.0590   17.8730   -2.7870 C   0  0  2  0  0  0  0  0  0  0  0  0
    2.4630   19.0320   -1.8530 C   0  0  0  0  0  0  0  0  0  0  0  0
    1.3030   19.9650   -1.4930 C   0  0  0  0  0  0  0  0  0  0  0  0
    1.2140   20.1940   -0.0150 C   0  0  2  0  0  0  0  0  0  0  0  0
    1.5050   19.0430    0.7880 O   0  0  0  0  0  0  0  0  0  0  0  0
    0.1630   19.5500    0.8700 C   0  0  0  0  0  0  0  0  0  0  0  0
   -0.8710   18.6270    0.3070 C   0  0  0  0  0  0  0  0  0  0  0  0
   -0.1590   20.1940    2.1820 C   0  0  0  0  0  0  0  0  0  0  0  0
    2.3140   16.5370   -2.0990 C   0  0  1  0  0  0  0  0  0  0  0  0
    2.9690   16.6990   -0.7020 C   0  0  0  0  0  0  0  0  0  0  0  0
    2.3960   15.5710    0.1950 C   0  0  0  0  0  0  0  0  0  0  0  0
    1.6960   14.6070   -0.7910 C   0  0  1  0  0  0  0  0  0  0  0  0
    2.8460   13.7290   -1.3790 C   0  0  0  0  0  0  0  0  0  0  0  0
    0.5450   13.7300   -0.2000 C   0  0  2  0  0  0  0  0  0  0  0  0
    0.9730   12.7500    0.9060 C   0  0  0  0  0  0  0  0  0  0  0  0
    1.3830   11.3940    0.4320 C   0  0  0  0  0  0  0  0  0  0  0  0
    1.1390   10.8850   -0.7900 C   0  0  0  0  0  0  0  0  0  0  0  0
    0.2970   11.6610   -1.8120 C   0  0  1  0  0  0  0  0  0  0  0  0
   -0.7460   10.7080   -2.4520 C   0  0  0  0  0  0  0  0  0  0  0  0
   -0.1080    9.4580   -3.0500 C   0  0  0  0  0  0  0  0  0  0  0  0
    0.6720    8.6830   -1.9900 C   0  0  2  0  0  0  0  0  0  0  0  0
   -0.2510    8.1620   -1.0290 O   0  0  0  0  0  0  0  0  0  0  0  0
    1.7460    9.5440   -1.2690 C   0  0  0  0  0  0  0  0  0  0  0  0
    2.9050    9.8580   -2.2480 C   0  0  0  0  0  0  0  0  0  0  0  0
    2.3610    8.6860   -0.1310 C   0  0  0  0  0  0  0  0  0  0  0  0
   -0.3510   13.0150   -1.2910 C   0  0  1  0  0  0  0  0  0  0  0  0
   -1.7260   12.7220   -0.6160 C   0  0  0  0  0  0  0  0  0  0  0  0
   -0.6520   13.9480   -2.5240 C   0  0  0  0  0  0  0  0  0  0  0  0
    0.4870   14.8770   -2.9850 C   0  0  0  0  0  0  0  0  0  0  0  0
    1.0830   15.6440   -1.8010 C   0  0  2  0  0  0  0  0  0  0  0  0
   -0.0450   16.5530   -1.2030 C   0  0  0  0  0  0  0  0  0  0  0  0
    3.8875   17.9954   -3.9359 H   0  0  0  0  0  0  0  0  0  0  0  0
    2.5935   17.0086   -4.6964 H   0  0  0  0  0  0  0  0  0  0  0  0
    2.4735   18.8009   -4.6964 H   0  0  0  0  0  0  0  0  0  0  0  0
    0.9859   17.9811   -3.0030 H   0  0  0  0  0  0  0  0  0  0  0  0
    2.8662   18.6044   -0.9232 H   0  0  0  0  0  0  0  0  0  0  0  0
    3.2062   19.6366   -2.3935 H   0  0  0  0  0  0  0  0  0  0  0  0
    1.4543   20.9320   -1.9951 H   0  0  0  0  0  0  0  0  0  0  0  0
    0.3668   19.4914   -1.8235 H   0  0  0  0  0  0  0  0  0  0  0  0
    1.5394   21.2380   -0.1338 H   0  0  0  0  0  0  0  0  0  0  0  0
   -1.4156   18.1409    1.1299 H   0  0  0  0  0  0  0  0  0  0  0  0
   -1.5769   19.2008   -0.3114 H   0  0  0  0  0  0  0  0  0  0  0  0
   -0.3807   17.8607   -0.3114 H   0  0  0  0  0  0  0  0  0  0  0  0
    0.1687   19.5386    3.0024 H   0  0  0  0  0  0  0  0  0  0  0  0
    0.3621   21.1600    2.2540 H   0  0  0  0  0  0  0  0  0  0  0  0
   -1.2445   20.3567    2.2540 H   0  0  0  0  0  0  0  0  0  0  0  0
    2.9516   16.0587   -2.8571 H   0  0  0  0  0  0  0  0  0  0  0  0
    4.0617   16.6007   -0.7824 H   0  0  0  0  0  0  0  0  0  0  0  0
    2.7520   17.6900   -0.2768 H   0  0  0  0  0  0  0  0  0  0  0  0
    3.2042   15.0554    0.7345 H   0  0  0  0  0  0  0  0  0  0  0  0
    1.7076   15.9564    0.9616 H   0  0  0  0  0  0  0  0  0  0  0  0
    3.4263   13.2859   -0.5563 H   0  0  0  0  0  0  0  0  0  0  0  0
    2.4158   12.9275   -1.9974 H   0  0  0  0  0  0  0  0  0  0  0  0
    3.5058   14.3552   -1.9974 H   0  0  0  0  0  0  0  0  0  0  0  0
   -0.0912   14.4788    0.2946 H   0  0  0  0  0  0  0  0  0  0  0  0
    1.8239   13.1941    1.4433 H   0  0  0  0  0  0  0  0  0  0  0  0
    0.0855   12.5966    1.5375 H   0  0  0  0  0  0  0  0  0  0  0  0
    1.9310   10.7572    1.1421 H   0  0  0  0  0  0  0  0  0  0  0  0
    1.0000   12.0152   -2.5804 H   0  0  0  0  0  0  0  0  0  0  0  0
   -1.4647   10.4010   -1.6779 H   0  0  0  0  0  0  0  0  0  0  0  0
   -1.2395   11.2542   -3.2694 H   0  0  0  0  0  0  0  0  0  0  0  0
   -0.8980    8.8116   -3.4600 H   0  0  0  0  0  0  0  0  0  0  0  0
    0.5886    9.7649   -3.8441 H   0  0  0  0  0  0  0  0  0  0  0  0
    1.2116    7.8732   -2.5029 H   0  0  0  0  0  0  0  0  0  0  0  0
   -0.2660    7.1950   -1.1300 H   0  0  0  0  0  0  0  0  0  0  0  0
    3.8118   10.1037   -1.6759 H   0  0  0  0  0  0  0  0  0  0  0  0
    3.0979    8.9797   -2.8816 H   0  0  0  0  0  0  0  0  0  0  0  0
    2.6282   10.7135   -2.8816 H   0  0  0  0  0  0  0  0  0  0  0  0
    2.0633    9.1013    0.8431 H   0  0  0  0  0  0  0  0  0  0  0  0
    1.9978    7.6511   -0.2148 H   0  0  0  0  0  0  0  0  0  0  0  0
    3.4577    8.6976   -0.2148 H   0  0  0  0  0  0  0  0  0  0  0  0
   -1.6103   12.7467    0.4776 H   0  0  0  0  0  0  0  0  0  0  0  0
   -2.4560   13.4848   -0.9248 H   0  0  0  0  0  0  0  0  0  0  0  0
   -2.0816   11.7279   -0.9248 H   0  0  0  0  0  0  0  0  0  0  0  0
   -0.9190   13.3018   -3.3732 H   0  0  0  0  0  0  0  0  0  0  0  0
   -1.4545   14.6208   -2.1873 H   0  0  0  0  0  0  0  0  0  0  0  0
    1.2761   14.2723   -3.4558 H   0  0  0  0  0  0  0  0  0  0  0  0
    0.0780   15.6033   -3.7028 H   0  0  0  0  0  0  0  0  0  0  0  0
   -0.0008   16.5174   -0.1045 H   0  0  0  0  0  0  0  0  0  0  0  0
    0.1006   17.5891   -1.5424 H   0  0  0  0  0  0  0  0  0  0  0  0
   -1.0265   16.1905   -1.5424 H   0  0  0  0  0  0  0  0  0  0  0  0
  1  2  1  0
  2  3  1  0
  3  4  1  0
  4  5  1  0
  5  6  1  0
  6  7  1  0
  7  8  1  0
  7  9  1  0
  2 10  1  0
 10 11  1  0
 11 12  1  0
 12 13  1  0
 13 14  1  6
 13 15  1  0
 15 16  1  0
 16 17  1  0
 17 18  2  0
 18 19  1  0
 19 20  1  0
 20 21  1  0
 21 22  1  0
 22 23  1  0
 22 24  1  0
 24 25  1  0
 24 26  1  0
 19 27  1  0
 27 28  1  1
 27 29  1  0
 29 30  1  0
 30 31  1  0
 31 32  1  1
  7  5  1  0
 31 10  1  0
 31 13  1  0
 27 15  1  0
 24 18  1  0
  1 33  1  0
  1 34  1  0
  1 35  1  0
  2 36  1  6
  3 37  1  0
  3 38  1  0
  4 39  1  0
  4 40  1  0
  5 41  1  1
  8 42  1  0
  8 43  1  0
  8 44  1  0
  9 45  1  0
  9 46  1  0
  9 47  1  0
 10 48  1  6
 11 49  1  0
 11 50  1  0
 12 51  1  0
 12 52  1  0
 14 53  1  0
 14 54  1  0
 14 55  1  0
 15 56  1  1
 16 57  1  0
 16 58  1  0
 17 59  1  0
 19 60  1  6
 20 61  1  0
 20 62  1  0
 21 63  1  0
 21 64  1  0
 22 65  1  6
 23 66  1  0
 25 67  1  0
 25 68  1  0
 25 69  1  0
 26 70  1  0
 26 71  1  0
 26 72  1  0
 28 73  1  0
 28 74  1  0
 28 75  1  0
 29 76  1  0
 29 77  1  0
 30 78  1  0
 30 79  1  0
 32 80  1  0
 32 81  1  0
 32 82  1  0
M  END
>  <meeko>  (18) 
{"is_sidechain": [false], "intermolecular_energy": 2.731, "internal_energy": -0.839}

$$$$
EPH_relaxed_0001_pdb2pqr_Repair_67_r2_0001_out
     RDKit          3D

 82 86  0  0  0  0  0  0  0  0999 V2000
    0.9150   14.8920   -2.6040 C   0  0  0  0  0  0  0  0  0  0  0  0
    1.1840   14.2190   -3.9530 C   0  0  2  0  0  0  0  0  0  0  0  0
    0.4870   14.9510   -5.1170 C   0  0  0  0  0  0  0  0  0  0  0  0
    1.0630   14.6070   -6.4940 C   0  0  0  0  0  0  0  0  0  0  0  0
    0.8270   15.7060   -7.4840 C   0  0  2  0  0  0  0  0  0  0  0  0
    0.3840   15.2650   -8.7740 O   0  0  0  0  0  0  0  0  0  0  0  0
    1.6700   15.9040   -8.7300 C   0  0  0  0  0  0  0  0  0  0  0  0
    2.8130   14.9940   -9.0520 C   0  0  0  0  0  0  0  0  0  0  0  0
    1.6930   17.2570   -9.3710 C   0  0  0  0  0  0  0  0  0  0  0  0
    0.7310   12.7640   -3.9080 C   0  0  1  0  0  0  0  0  0  0  0  0
    1.8630   11.7740   -4.2920 C   0  0  0  0  0  0  0  0  0  0  0  0
    1.6600   10.5040   -3.4260 C   0  0  0  0  0  0  0  0  0  0  0  0
    0.2450   10.6670   -2.8210 C   0  0  1  0  0  0  0  0  0  0  0  0
   -0.7290   10.2050   -3.9510 C   0  0  0  0  0  0  0  0  0  0  0  0
   -0.0250    9.9090   -1.4810 C   0  0  2  0  0  0  0  0  0  0  0  0
    0.0780    8.3760   -1.5660 C   0  0  0  0  0  0  0  0  0  0  0  0
   -1.1950    7.6690   -1.8960 C   0  0  0  0  0  0  0  0  0  0  0  0
   -2.4270    8.2080   -1.8360 C   0  0  0  0  0  0  0  0  0  0  0  0
   -2.6390    9.6320   -1.3080 C   0  0  1  0  0  0  0  0  0  0  0  0
   -3.8210    9.6420   -0.3040 C   0  0  0  0  0  0  0  0  0  0  0  0
   -5.0950    9.0430   -0.8930 C   0  0  0  0  0  0  0  0  0  0  0  0
   -4.8590    7.6060   -1.3530 C   0  0  2  0  0  0  0  0  0  0  0  0
   -4.6050    6.7910   -0.2050 O   0  0  0  0  0  0  0  0  0  0  0  0
   -3.6840    7.4710   -2.3610 C   0  0  0  0  0  0  0  0  0  0  0  0
   -4.0860    8.1010   -3.7170 C   0  0  0  0  0  0  0  0  0  0  0  0
   -3.4620    5.9590   -2.6350 C   0  0  0  0  0  0  0  0  0  0  0  0
   -1.3470   10.3590   -0.7360 C   0  0  1  0  0  0  0  0  0  0  0  0
   -1.1550    9.9990    0.7680 C   0  0  0  0  0  0  0  0  0  0  0  0
   -1.5650   11.9180   -0.7950 C   0  0  0  0  0  0  0  0  0  0  0  0
   -1.1680   12.6260   -2.1040 C   0  0  0  0  0  0  0  0  0  0  0  0
    0.2400   12.2140   -2.5450 C   0  0  2  0  0  0  0  0  0  0  0  0
    1.2450   12.6860   -1.4390 C   0  0  0  0  0  0  0  0  0  0  0  0
    1.1897   14.2048   -1.7902 H   0  0  0  0  0  0  0  0  0  0  0  0
    1.5150   15.8107   -2.5264 H   0  0  0  0  0  0  0  0  0  0  0  0
   -0.1529   15.1440   -2.5264 H   0  0  0  0  0  0  0  0  0  0  0  0
    2.2678   14.2660   -4.1351 H   0  0  0  0  0  0  0  0  0  0  0  0
   -0.5791   14.6800   -5.1090 H   0  0  0  0  0  0  0  0  0  0  0  0
    0.6475   16.0280   -4.9614 H   0  0  0  0  0  0  0  0  0  0  0  0
    2.1461   14.4420   -6.3962 H   0  0  0  0  0  0  0  0  0  0  0  0
    0.5576   13.7013   -6.8604 H   0  0  0  0  0  0  0  0  0  0  0  0
    0.5215   16.3947   -6.6825 H   0  0  0  0  0  0  0  0  0  0  0  0
    3.2678   14.6319   -8.1181 H   0  0  0  0  0  0  0  0  0  0  0  0
    2.4464   14.1378   -9.6373 H   0  0  0  0  0  0  0  0  0  0  0  0
    3.5652   15.5431   -9.6373 H   0  0  0  0  0  0  0  0  0  0  0  0
    1.7062   18.0322   -8.5907 H   0  0  0  0  0  0  0  0  0  0  0  0
    2.5929   17.3511   -9.9966 H   0  0  0  0  0  0  0  0  0  0  0  0
    0.7968   17.3816   -9.9966 H   0  0  0  0  0  0  0  0  0  0  0  0
   -0.1067   12.8093   -4.6194 H   0  0  0  0  0  0  0  0  0  0  0  0
    1.7968   11.5187   -5.3599 H   0  0  0  0  0  0  0  0  0  0  0  0
    2.8534   12.2187   -4.1146 H   0  0  0  0  0  0  0  0  0  0  0  0
    1.7150    9.5976   -4.0469 H   0  0  0  0  0  0  0  0  0  0  0  0
    2.4350   10.3979   -2.6526 H   0  0  0  0  0  0  0  0  0  0  0  0
   -1.6357    9.7749   -3.5004 H   0  0  0  0  0  0  0  0  0  0  0  0
   -1.0036   11.0688   -4.5742 H   0  0  0  0  0  0  0  0  0  0  0  0
   -0.2338    9.4458   -4.5742 H   0  0  0  0  0  0  0  0  0  0  0  0
    0.8197   10.2309   -0.8543 H   0  0  0  0  0  0  0  0  0  0  0  0
    0.8162    8.1274   -2.3427 H   0  0  0  0  0  0  0  0  0  0  0  0
    0.3645    8.0339   -0.5606 H   0  0  0  0  0  0  0  0  0  0  0  0
   -1.1197    6.6190   -2.2151 H   0  0  0  0  0  0  0  0  0  0  0  0
   -2.8893   10.2467   -2.1852 H   0  0  0  0  0  0  0  0  0  0  0  0
   -3.5347    9.0585    0.5834 H   0  0  0  0  0  0  0  0  0  0  0  0
   -4.0327   10.6907   -0.0483 H   0  0  0  0  0  0  0  0  0  0  0  0
   -5.8844    9.0510   -0.1270 H   0  0  0  0  0  0  0  0  0  0  0  0
   -5.3974    9.6453   -1.7624 H   0  0  0  0  0  0  0  0  0  0  0  0
   -5.7649    7.2753   -1.8821 H   0  0  0  0  0  0  0  0  0  0  0  0
   -3.6490    6.8210   -0.0280 H   0  0  0  0  0  0  0  0  0  0  0  0
   -4.6698    9.0159   -3.5375 H   0  0  0  0  0  0  0  0  0  0  0  0
   -3.1798    8.3505   -4.2884 H   0  0  0  0  0  0  0  0  0  0  0  0
   -4.6940    7.3842   -4.2884 H   0  0  0  0  0  0  0  0  0  0  0  0
   -3.3830    5.4208   -1.6789 H   0  0  0  0  0  0  0  0  0  0  0  0
   -4.3115    5.5620   -3.2101 H   0  0  0  0  0  0  0  0  0  0  0  0
   -2.5342    5.8229   -3.2101 H   0  0  0  0  0  0  0  0  0  0  0  0
   -1.5808   10.7975    1.3934 H   0  0  0  0  0  0  0  0  0  0  0  0
   -1.6668    9.0501    0.9861 H   0  0  0  0  0  0  0  0  0  0  0  0
   -0.0818    9.8954    0.9861 H   0  0  0  0  0  0  0  0  0  0  0  0
   -2.6342   12.1112   -0.6233 H   0  0  0  0  0  0  0  0  0  0  0  0
   -0.8928   12.3317   -0.0289 H   0  0  0  0  0  0  0  0  0  0  0  0
   -1.8858   12.3544   -2.8920 H   0  0  0  0  0  0  0  0  0  0  0  0
   -1.1778   13.7124   -1.9321 H   0  0  0  0  0  0  0  0  0  0  0  0
    0.8177   12.4853   -0.4455 H   0  0  0  0  0  0  0  0  0  0  0  0
    2.1932   12.1390   -1.5476 H   0  0  0  0  0  0  0  0  0  0  0  0
    1.4296   13.7650   -1.5476 H   0  0  0  0  0  0  0  0  0  0  0  0
  1  2  1  0
  2  3  1  0
  3  4  1  0
  4  5  1  0
  5  6  1  0
  6  7  1  0
  7  8  1  0
  7  9  1  0
  2 10  1  0
 10 11  1  0
 11 12  1  0
 12 13  1  0
 13 14  1  6
 13 15  1  0
 15 16  1  0
 16 17  1  0
 17 18  2  0
 18 19  1  0
 19 20  1  0
 20 21  1  0
 21 22  1  0
 22 23  1  0
 22 24  1  0
 24 25  1  0
 24 26  1  0
 19 27  1  0
 27 28  1  1
 27 29  1  0
 29 30  1  0
 30 31  1  0
 31 32  1  1
  7  5  1  0
 31 10  1  0
 31 13  1  0
 27 15  1  0
 24 18  1  0
  1 33  1  0
  1 34  1  0
  1 35  1  0
  2 36  1  6
  3 37  1  0
  3 38  1  0
  4 39  1  0
  4 40  1  0
  5 41  1  1
  8 42  1  0
  8 43  1  0
  8 44  1  0
  9 45  1  0
  9 46  1  0
  9 47  1  0
 10 48  1  6
 11 49  1  0
 11 50  1  0
 12 51  1  0
 12 52  1  0
 14 53  1  0
 14 54  1  0
 14 55  1  0
 15 56  1  1
 16 57  1  0
 16 58  1  0
 17 59  1  0
 19 60  1  6
 20 61  1  0
 20 62  1  0
 21 63  1  0
 21 64  1  0
 22 65  1  6
 23 66  1  0
 25 67  1  0
 25 68  1  0
 25 69  1  0
 26 70  1  0
 26 71  1  0
 26 72  1  0
 28 73  1  0
 28 74  1  0
 28 75  1  0
 29 76  1  0
 29 77  1  0
 30 78  1  0
 30 79  1  0
 32 80  1  0
 32 81  1  0
 32 82  1  0
M  END
>  <meeko>  (19) 
{"is_sidechain": [false], "intermolecular_energy": 2.731, "internal_energy": -0.839}

$$$$
EPH_relaxed_0001_pdb2pqr_Repair_67_r2_0001_out
     RDKit          3D

 82 86  0  0  0  0  0  0  0  0999 V2000
  -14.5730    5.5130    0.3600 C   0  0  0  0  0  0  0  0  0  0  0  0
  -13.9810    6.9200    0.2440 C   0  0  2  0  0  0  0  0  0  0  0  0
  -15.0590    7.9810   -0.0560 C   0  0  0  0  0  0  0  0  0  0  0  0
  -14.5680    9.4210    0.1080 C   0  0  0  0  0  0  0  0  0  0  0  0
  -15.2820   10.3600   -0.8170 C   0  0  2  0  0  0  0  0  0  0  0  0
  -15.1930   10.0160   -2.2050 O   0  0  0  0  0  0  0  0  0  0  0  0
  -14.5710   11.2510   -1.8170 C   0  0  0  0  0  0  0  0  0  0  0  0
  -13.0800   11.2480   -1.9430 C   0  0  0  0  0  0  0  0  0  0  0  0
  -15.2810   12.4680   -2.3230 C   0  0  0  0  0  0  0  0  0  0  0  0
  -12.9090    6.9460   -0.8390 C   0  0  1  0  0  0  0  0  0  0  0  0
  -13.2640    7.9010   -2.0090 C   0  0  0  0  0  0  0  0  0  0  0  0
  -11.9310    8.5210   -2.5010 C   0  0  0  0  0  0  0  0  0  0  0  0
  -10.8310    7.6630   -1.8320 C   0  0  1  0  0  0  0  0  0  0  0  0
  -10.7160    6.3890   -2.7270 C   0  0  0  0  0  0  0  0  0  0  0  0
   -9.4440    8.3540   -1.6290 C   0  0  2  0  0  0  0  0  0  0  0  0
   -8.7300    8.7770   -2.9240 C   0  0  0  0  0  0  0  0  0  0  0  0
   -7.8180    7.7520   -3.5140 C   0  0  0  0  0  0  0  0  0  0  0  0
   -7.3610    6.6550   -2.8820 C   0  0  0  0  0  0  0  0  0  0  0  0
   -7.6820    6.4080   -1.4020 C   0  0  1  0  0  0  0  0  0  0  0  0
   -6.3880    5.9900   -0.6550 C   0  0  0  0  0  0  0  0  0  0  0  0
   -5.6940    4.7990   -1.3090 C   0  0  0  0  0  0  0  0  0  0  0  0
   -5.3390    5.1040   -2.7610 C   0  0  2  0  0  0  0  0  0  0  0  0
   -4.3410    6.1290   -2.7870 O   0  0  0  0  0  0  0  0  0  0  0  0
   -6.5630    5.5460   -3.6110 C   0  0  0  0  0  0  0  0  0  0  0  0
   -7.5050    4.3370   -3.8360 C   0  0  0  0  0  0  0  0  0  0  0  0
   -6.0460    5.9590   -5.0150 C   0  0  0  0  0  0  0  0  0  0  0  0
   -8.4670    7.5730   -0.6590 C   0  0  1  0  0  0  0  0  0  0  0  0
   -7.4580    8.6240   -0.1030 C   0  0  0  0  0  0  0  0  0  0  0  0
   -9.2160    6.9730    0.5890 C   0  0  0  0  0  0  0  0  0  0  0  0
  -10.6310    6.4150    0.3480 C   0  0  0  0  0  0  0  0  0  0  0  0
  -11.4920    7.4180   -0.4260 C   0  0  2  0  0  0  0  0  0  0  0  0
  -11.6440    8.7010    0.4590 C   0  0  0  0  0  0  0  0  0  0  0  0
  -14.6843    5.2484    1.4219 H   0  0  0  0  0  0  0  0  0  0  0  0
  -15.5579    5.4881   -0.1293 H   0  0  0  0  0  0  0  0  0  0  0  0
  -13.9022    4.7915   -0.1293 H   0  0  0  0  0  0  0  0  0  0  0  0
  -13.5326    7.1709    1.2166 H   0  0  0  0  0  0  0  0  0  0  0  0
  -15.3995    7.8463   -1.0933 H   0  0  0  0  0  0  0  0  0  0  0  0
  -15.8681    7.8323    0.6743 H   0  0  0  0  0  0  0  0  0  0  0  0
  -14.7432    9.7412    1.1457 H   0  0  0  0  0  0  0  0  0  0  0  0
  -13.4961    9.4474   -0.1376 H   0  0  0  0  0  0  0  0  0  0  0  0
  -16.0439   10.5710   -0.0522 H   0  0  0  0  0  0  0  0  0  0  0  0
  -12.6273   11.2471   -0.9405 H   0  0  0  0  0  0  0  0  0  0  0  0
  -12.7601   10.3492   -2.4906 H   0  0  0  0  0  0  0  0  0  0  0  0
  -12.7565   12.1455   -2.4906 H   0  0  0  0  0  0  0  0  0  0  0  0
  -15.6315   13.0688   -1.4709 H   0  0  0  0  0  0  0  0  0  0  0  0
  -14.5908   13.0673   -2.9350 H   0  0  0  0  0  0  0  0  0  0  0  0
  -16.1424   12.1621   -2.9350 H   0  0  0  0  0  0  0  0  0  0  0  0
  -12.8880    5.8783   -1.1026 H   0  0  0  0  0  0  0  0  0  0  0  0
  -13.7440    7.3394   -2.8240 H   0  0  0  0  0  0  0  0  0  0  0  0
  -13.9658    8.6823   -1.6818 H   0  0  0  0  0  0  0  0  0  0  0  0
  -11.8565    8.4622   -3.5969 H   0  0  0  0  0  0  0  0  0  0  0  0
  -11.8452    9.5863   -2.2405 H   0  0  0  0  0  0  0  0  0  0  0  0
  -10.6355    5.4977   -2.0874 H   0  0  0  0  0  0  0  0  0  0  0  0
  -11.6102    6.3051   -3.3621 H   0  0  0  0  0  0  0  0  0  0  0  0
   -9.8212    6.4666   -3.3621 H   0  0  0  0  0  0  0  0  0  0  0  0
   -9.7188    9.2898   -1.1204 H   0  0  0  0  0  0  0  0  0  0  0  0
   -9.4989    9.0189   -3.6725 H   0  0  0  0  0  0  0  0  0  0  0  0
   -8.0927    9.6321   -2.6546 H   0  0  0  0  0  0  0  0  0  0  0  0
   -7.4921    7.9067   -4.5532 H   0  0  0  0  0  0  0  0  0  0  0  0
   -8.4083    5.5821   -1.3815 H   0  0  0  0  0  0  0  0  0  0  0  0
   -5.6934    6.8429   -0.6485 H   0  0  0  0  0  0  0  0  0  0  0  0
   -6.6726    5.6920    0.3649 H   0  0  0  0  0  0  0  0  0  0  0  0
   -4.7725    4.5700   -0.7537 H   0  0  0  0  0  0  0  0  0  0  0  0
   -6.3795    3.9389   -1.2886 H   0  0  0  0  0  0  0  0  0  0  0  0
   -4.9638    4.1729   -3.2107 H   0  0  0  0  0  0  0  0  0  0  0  0
   -3.5660    5.7960   -2.3030 H   0  0  0  0  0  0  0  0  0  0  0  0
   -7.8206    3.9320   -2.8632 H   0  0  0  0  0  0  0  0  0  0  0  0
   -8.3902    4.6623   -4.4023 H   0  0  0  0  0  0  0  0  0  0  0  0
   -6.9732    3.5582   -4.4023 H   0  0  0  0  0  0  0  0  0  0  0  0
   -5.1909    6.6421   -4.9045 H   0  0  0  0  0  0  0  0  0  0  0  0
   -5.7298    5.0621   -5.5677 H   0  0  0  0  0  0  0  0  0  0  0  0
   -6.8509    6.4655   -5.5677 H   0  0  0  0  0  0  0  0  0  0  0  0
   -7.4768    8.6044    0.9967 H   0  0  0  0  0  0  0  0  0  0  0  0
   -6.4448    8.3825   -0.4567 H   0  0  0  0  0  0  0  0  0  0  0  0
   -7.7406    9.6265   -0.4567 H   0  0  0  0  0  0  0  0  0  0  0  0
   -8.5983    6.1537    0.9855 H   0  0  0  0  0  0  0  0  0  0  0  0
   -9.3543    7.8206    1.2763 H   0  0  0  0  0  0  0  0  0  0  0  0
  -10.5563    5.4828   -0.2312 H   0  0  0  0  0  0  0  0  0  0  0  0
  -11.1040    6.2260    1.3230 H   0  0  0  0  0  0  0  0  0  0  0  0
  -11.6106    8.4194    1.5218 H   0  0  0  0  0  0  0  0  0  0  0  0
  -10.8222    9.3981    0.2384 H   0  0  0  0  0  0  0  0  0  0  0  0
  -12.6060    9.1867    0.2384 H   0  0  0  0  0  0  0  0  0  0  0  0
  1  2  1  0
  2  3  1  0
  3  4  1  0
  4  5  1  0
  5  6  1  0
  6  7  1  0
  7  8  1  0
  7  9  1  0
  2 10  1  0
 10 11  1  0
 11 12  1  0
 12 13  1  0
 13 14  1  6
 13 15  1  0
 15 16  1  0
 16 17  1  0
 17 18  2  0
 18 19  1  0
 19 20  1  0
 20 21  1  0
 21 22  1  0
 22 23  1  0
 22 24  1  0
 24 25  1  0
 24 26  1  0
 19 27  1  0
 27 28  1  1
 27 29  1  0
 29 30  1  0
 30 31  1  0
 31 32  1  1
  7  5  1  0
 31 10  1  0
 31 13  1  0
 27 15  1  0
 24 18  1  0
  1 33  1  0
  1 34  1  0
  1 35  1  0
  2 36  1  1
  3 37  1  0
  3 38  1  0
  4 39  1  0
  4 40  1  0
  5 41  1  1
  8 42  1  0
  8 43  1  0
  8 44  1  0
  9 45  1  0
  9 46  1  0
  9 47  1  0
 10 48  1  6
 11 49  1  0
 11 50  1  0
 12 51  1  0
 12 52  1  0
 14 53  1  0
 14 54  1  0
 14 55  1  0
 15 56  1  1
 16 57  1  0
 16 58  1  0
 17 59  1  0
 19 60  1  6
 20 61  1  0
 20 62  1  0
 21 63  1  0
 21 64  1  0
 22 65  1  6
 23 66  1  0
 25 67  1  0
 25 68  1  0
 25 69  1  0
 26 70  1  0
 26 71  1  0
 26 72  1  0
 28 73  1  0
 28 74  1  0
 28 75  1  0
 29 76  1  0
 29 77  1  0
 30 78  1  0
 30 79  1  0
 32 80  1  0
 32 81  1  0
 32 82  1  0
M  END
>  <meeko>  (20) 
{"is_sidechain": [false], "intermolecular_energy": 2.731, "internal_energy": -0.839}

$$$$
