EPH_relaxed_0001_pdb2pqr_Repair_131_r2_0001_out
     RDKit          3D

 82 86  0  0  0  0  0  0  0  0999 V2000
   -1.2820    8.3920   -1.3540 C   0  0  0  0  0  0  0  0  0  0  0  0
   -1.9320    9.2670   -0.2790 C   0  0  2  0  0  0  0  0  0  0  0  0
   -3.3430    9.7370   -0.6860 C   0  0  0  0  0  0  0  0  0  0  0  0
   -4.4310    8.6840   -0.4590 C   0  0  0  0  0  0  0  0  0  0  0  0
   -4.9080    8.0930   -1.7510 C   0  0  2  0  0  0  0  0  0  0  0  0
   -5.9570    8.8280   -2.3950 O   0  0  0  0  0  0  0  0  0  0  0  0
   -6.2950    7.5070   -1.9410 C   0  0  0  0  0  0  0  0  0  0  0  0
   -7.2920    7.4820   -0.8250 C   0  0  0  0  0  0  0  0  0  0  0  0
   -6.5110    6.5250   -3.0510 C   0  0  0  0  0  0  0  0  0  0  0  0
   -1.0460   10.4720    0.0150 C   0  0  1  0  0  0  0  0  0  0  0  0
    0.0740   10.1550    1.0410 C   0  0  0  0  0  0  0  0  0  0  0  0
    1.3130   10.9880    0.6230 C   0  0  0  0  0  0  0  0  0  0  0  0
    0.7710   11.9970   -0.4160 C   0  0  1  0  0  0  0  0  0  0  0  0
    0.1310   13.1410    0.4320 C   0  0  0  0  0  0  0  0  0  0  0  0
    1.8090   12.5530   -1.4450 C   0  0  2  0  0  0  0  0  0  0  0  0
    2.9660   13.3620   -0.8330 C   0  0  0  0  0  0  0  0  0  0  0  0
    2.7230   14.8300   -0.7110 C   0  0  0  0  0  0  0  0  0  0  0  0
    1.7440   15.5150   -1.3310 C   0  0  0  0  0  0  0  0  0  0  0  0
    0.8140   14.8240   -2.3360 C   0  0  1  0  0  0  0  0  0  0  0  0
    0.6800   15.7030   -3.6070 C   0  0  0  0  0  0  0  0  0  0  0  0
    0.2390   17.1280   -3.2890 C   0  0  0  0  0  0  0  0  0  0  0  0
    1.2210   17.8020   -2.3340 C   0  0  2  0  0  0  0  0  0  0  0  0
    2.4710   17.9800   -3.0070 O   0  0  0  0  0  0  0  0  0  0  0  0
    1.4430   17.0020   -1.0200 C   0  0  0  0  0  0  0  0  0  0  0  0
    0.1650   17.0670   -0.1480 C   0  0  0  0  0  0  0  0  0  0  0  0
    2.5580   17.7160   -0.2090 C   0  0  0  0  0  0  0  0  0  0  0  0
    1.1600   13.3100   -2.6740 C   0  0  1  0  0  0  0  0  0  0  0  0
    2.2010   13.2490   -3.8340 C   0  0  0  0  0  0  0  0  0  0  0  0
   -0.1370   12.5920   -3.2030 C   0  0  0  0  0  0  0  0  0  0  0  0
   -1.0610   11.9590   -2.1450 C   0  0  0  0  0  0  0  0  0  0  0  0
   -0.2630   11.0860   -1.1720 C   0  0  2  0  0  0  0  0  0  0  0  0
    0.3750    9.9130   -1.9930 C   0  0  0  0  0  0  0  0  0  0  0  0
   -0.6921    7.5979   -0.8731 H   0  0  0  0  0  0  0  0  0  0  0  0
   -2.0644    7.9391   -1.9807 H   0  0  0  0  0  0  0  0  0  0  0  0
   -0.6225    9.0103   -1.9807 H   0  0  0  0  0  0  0  0  0  0  0  0
   -2.0384    8.6530    0.6275 H   0  0  0  0  0  0  0  0  0  0  0  0
   -3.5954   10.6302   -0.0957 H   0  0  0  0  0  0  0  0  0  0  0  0
   -3.3146    9.9426   -1.7662 H   0  0  0  0  0  0  0  0  0  0  0  0
   -4.0233    7.8803    0.1717 H   0  0  0  0  0  0  0  0  0  0  0  0
   -5.2857    9.1738    0.0305 H   0  0  0  0  0  0  0  0  0  0  0  0
   -3.9043    7.6991   -1.9686 H   0  0  0  0  0  0  0  0  0  0  0  0
   -6.7632    7.4953    0.1395 H   0  0  0  0  0  0  0  0  0  0  0  0
   -7.9453    8.3640   -0.8971 H   0  0  0  0  0  0  0  0  0  0  0  0
   -7.9003    6.5683   -0.8971 H   0  0  0  0  0  0  0  0  0  0  0  0
   -6.7290    5.5339   -2.6265 H   0  0  0  0  0  0  0  0  0  0  0  0
   -7.3585    6.8529   -3.6709 H   0  0  0  0  0  0  0  0  0  0  0  0
   -5.6041    6.4670   -3.6709 H   0  0  0  0  0  0  0  0  0  0  0  0
   -1.8104   11.1800    0.3676 H   0  0  0  0  0  0  0  0  0  0  0  0
   -0.2488   10.4384    2.0537 H   0  0  0  0  0  0  0  0  0  0  0  0
    0.3065    9.0799    1.0520 H   0  0  0  0  0  0  0  0  0  0  0  0
    1.7380   11.5142    1.4905 H   0  0  0  0  0  0  0  0  0  0  0  0
    2.1194   10.3609    0.2148 H   0  0  0  0  0  0  0  0  0  0  0  0
    0.2557   12.9181    1.5019 H   0  0  0  0  0  0  0  0  0  0  0  0
    0.6270   14.0940    0.1958 H   0  0  0  0  0  0  0  0  0  0  0  0
   -0.9406   13.2170    0.1958 H   0  0  0  0  0  0  0  0  0  0  0  0
    2.2653   11.6337   -1.8408 H   0  0  0  0  0  0  0  0  0  0  0  0
    3.1629   12.9652    0.1739 H   0  0  0  0  0  0  0  0  0  0  0  0
    3.8144   13.2504   -1.5242 H   0  0  0  0  0  0  0  0  0  0  0  0
    3.4014   15.4001   -0.0593 H   0  0  0  0  0  0  0  0  0  0  0  0
   -0.1626   14.7384   -1.8371 H   0  0  0  0  0  0  0  0  0  0  0  0
    1.6554   15.7407   -4.1141 H   0  0  0  0  0  0  0  0  0  0  0  0
   -0.0916   15.2496   -4.2466 H   0  0  0  0  0  0  0  0  0  0  0  0
    0.1903   17.7068   -4.2231 H   0  0  0  0  0  0  0  0  0  0  0  0
   -0.7496   17.0908   -2.8080 H   0  0  0  0  0  0  0  0  0  0  0  0
    0.7868   18.7697   -2.0425 H   0  0  0  0  0  0  0  0  0  0  0  0
    2.4120   18.8000   -3.5250 H   0  0  0  0  0  0  0  0  0  0  0  0
    0.4456   17.0527    0.9155 H   0  0  0  0  0  0  0  0  0  0  0  0
   -0.3836   17.9942   -0.3700 H   0  0  0  0  0  0  0  0  0  0  0  0
   -0.4749   16.2002   -0.3700 H   0  0  0  0  0  0  0  0  0  0  0  0
    2.3651   17.5925    0.8669 H   0  0  0  0  0  0  0  0  0  0  0  0
    3.5337   17.2743   -0.4597 H   0  0  0  0  0  0  0  0  0  0  0  0
    2.5651   18.7870   -0.4597 H   0  0  0  0  0  0  0  0  0  0  0  0
    3.2157   13.1895   -3.4133 H   0  0  0  0  0  0  0  0  0  0  0  0
    2.0082   12.3606   -4.4534 H   0  0  0  0  0  0  0  0  0  0  0  0
    2.1133   14.1538   -4.4534 H   0  0  0  0  0  0  0  0  0  0  0  0
   -0.7270   13.3367   -3.7574 H   0  0  0  0  0  0  0  0  0  0  0  0
    0.2273   11.7490   -3.8085 H   0  0  0  0  0  0  0  0  0  0  0  0
   -1.5637   12.7588   -1.5815 H   0  0  0  0  0  0  0  0  0  0  0  0
   -1.8002   11.3265   -2.6583 H   0  0  0  0  0  0  0  0  0  0  0  0
    0.7838    9.1614   -1.3016 H   0  0  0  0  0  0  0  0  0  0  0  0
   -0.3945    9.4481   -2.6268 H   0  0  0  0  0  0  0  0  0  0  0  0
    1.1835   10.3063   -2.6268 H   0  0  0  0  0  0  0  0  0  0  0  0
  1  2  1  0
  2  3  1  0
  3  4  1  0
  4  5  1  0
  5  6  1  0
  6  7  1  0
  7  8  1  0
  7  9  1  0
  2 10  1  0
 10 11  1  0
 11 12  1  0
 12 13  1  0
 13 14  1  1
 13 15  1  0
 15 16  1  0
 16 17  1  0
 17 18  2  0
 18 19  1  0
 19 20  1  0
 20 21  1  0
 21 22  1  0
 22 23  1  0
 22 24  1  0
 24 25  1  0
 24 26  1  0
 19 27  1  0
 27 28  1  6
 27 29  1  0
 29 30  1  0
 30 31  1  0
 31 32  1  6
  7  5  1  0
 31 10  1  0
 31 13  1  0
 27 15  1  0
 24 18  1  0
  1 33  1  0
  1 34  1  0
  1 35  1  0
  2 36  1  1
  3 37  1  0
  3 38  1  0
  4 39  1  0
  4 40  1  0
  5 41  1  6
  8 42  1  0
  8 43  1  0
  8 44  1  0
  9 45  1  0
  9 46  1  0
  9 47  1  0
 10 48  1  1
 11 49  1  0
 11 50  1  0
 12 51  1  0
 12 52  1  0
 14 53  1  0
 14 54  1  0
 14 55  1  0
 15 56  1  6
 16 57  1  0
 16 58  1  0
 17 59  1  0
 19 60  1  1
 20 61  1  0
 20 62  1  0
 21 63  1  0
 21 64  1  0
 22 65  1  1
 23 66  1  0
 25 67  1  0
 25 68  1  0
 25 69  1  0
 26 70  1  0
 26 71  1  0
 26 72  1  0
 28 73  1  0
 28 74  1  0
 28 75  1  0
 29 76  1  0
 29 77  1  0
 30 78  1  0
 30 79  1  0
 32 80  1  0
 32 81  1  0
 32 82  1  0
M  END
>  <meeko>  (1) 
{"is_sidechain": [false], "intermolecular_energy": 2.731, "internal_energy": -0.839}

$$$$
EPH_relaxed_0001_pdb2pqr_Repair_131_r2_0001_out
     RDKit          3D

 82 86  0  0  0  0  0  0  0  0999 V2000
    1.9700   18.1750   -2.6290 C   0  0  0  0  0  0  0  0  0  0  0  0
    0.4580   17.9440   -2.6820 C   0  0  2  0  0  0  0  0  0  0  0  0
   -0.2470   18.4080   -1.3920 C   0  0  0  0  0  0  0  0  0  0  0  0
    0.4630   17.9640   -0.1090 C   0  0  0  0  0  0  0  0  0  0  0  0
    0.9860   19.1330    0.6680 C   0  0  2  0  0  0  0  0  0  0  0  0
    1.8520   20.0040   -0.0700 O   0  0  0  0  0  0  0  0  0  0  0  0
    2.4480   19.3070    1.0360 C   0  0  0  0  0  0  0  0  0  0  0  0
    3.4780   18.2980    0.6360 C   0  0  0  0  0  0  0  0  0  0  0  0
    2.7940   20.1940    2.1910 C   0  0  0  0  0  0  0  0  0  0  0  0
    0.1650   16.4690   -2.9340 C   0  0  1  0  0  0  0  0  0  0  0  0
    0.2490   16.0920   -4.4370 C   0  0  0  0  0  0  0  0  0  0  0  0
    0.8140   14.6500   -4.5050 C   0  0  0  0  0  0  0  0  0  0  0  0
    0.7250   14.1270   -3.0520 C   0  0  1  0  0  0  0  0  0  0  0  0
   -0.7580   13.6720   -2.8800 C   0  0  0  0  0  0  0  0  0  0  0  0
    1.7260   12.9900   -2.6650 C   0  0  2  0  0  0  0  0  0  0  0  0
    1.5630   11.6790   -3.4530 C   0  0  0  0  0  0  0  0  0  0  0  0
    0.6320   10.6820   -2.8460 C   0  0  0  0  0  0  0  0  0  0  0  0
    0.1760   10.7070   -1.5810 C   0  0  0  0  0  0  0  0  0  0  0  0
    0.6730   11.7630   -0.5850 C   0  0  1  0  0  0  0  0  0  0  0  0
    1.0310   11.0780    0.7600 C   0  0  0  0  0  0  0  0  0  0  0  0
   -0.1200   10.2470    1.3180 C   0  0  0  0  0  0  0  0  0  0  0  0
   -0.5480    9.1710    0.3230 C   0  0  2  0  0  0  0  0  0  0  0  0
    0.5140    8.2220    0.1850 O   0  0  0  0  0  0  0  0  0  0  0  0
   -0.9230    9.7420   -1.0730 C   0  0  0  0  0  0  0  0  0  0  0  0
   -2.2530   10.5290   -0.9730 C   0  0  0  0  0  0  0  0  0  0  0  0
   -1.1990    8.5430   -2.0200 C   0  0  0  0  0  0  0  0  0  0  0  0
    1.8290   12.7200   -1.1090 C   0  0  1  0  0  0  0  0  0  0  0  0
    3.2200   12.0590   -0.8630 C   0  0  0  0  0  0  0  0  0  0  0  0
    1.8150   14.0510   -0.2680 C   0  0  0  0  0  0  0  0  0  0  0  0
    0.8950   15.1800   -0.7700 C   0  0  0  0  0  0  0  0  0  0  0  0
    1.1050   15.4340   -2.2660 C   0  0  2  0  0  0  0  0  0  0  0  0
    2.5820   15.9150   -2.4670 C   0  0  0  0  0  0  0  0  0  0  0  0
    2.2967   18.2249   -1.5798 H   0  0  0  0  0  0  0  0  0  0  0  0
    2.4856   17.3452   -3.1345 H   0  0  0  0  0  0  0  0  0  0  0  0
    2.2144   19.1209   -3.1345 H   0  0  0  0  0  0  0  0  0  0  0  0
    0.0609   18.5488   -3.5106 H   0  0  0  0  0  0  0  0  0  0  0  0
   -0.2965   19.5069   -1.3992 H   0  0  0  0  0  0  0  0  0  0  0  0
   -1.2440   17.9433   -1.3853 H   0  0  0  0  0  0  0  0  0  0  0  0
   -0.2495   17.4088    0.5188 H   0  0  0  0  0  0  0  0  0  0  0  0
    1.3168   17.3305   -0.3914 H   0  0  0  0  0  0  0  0  0  0  0  0
    0.0642   19.1768    1.2666 H   0  0  0  0  0  0  0  0  0  0  0  0
    3.9284   17.8567    1.5373 H   0  0  0  0  0  0  0  0  0  0  0  0
    3.0029   17.5062    0.0383 H   0  0  0  0  0  0  0  0  0  0  0  0
    4.2599   18.7893    0.0383 H   0  0  0  0  0  0  0  0  0  0  0  0
    2.5879   19.6657    3.1336 H   0  0  0  0  0  0  0  0  0  0  0  0
    3.8609   20.4577    2.1441 H   0  0  0  0  0  0  0  0  0  0  0  0
    2.1874   21.1104    2.1441 H   0  0  0  0  0  0  0  0  0  0  0  0
   -0.8414   16.4024   -2.4949 H   0  0  0  0  0  0  0  0  0  0  0  0
   -0.7512   16.1289   -4.8934 H   0  0  0  0  0  0  0  0  0  0  0  0
    0.8932   16.7951   -4.9853 H   0  0  0  0  0  0  0  0  0  0  0  0
    0.2084   14.0271   -5.1797 H   0  0  0  0  0  0  0  0  0  0  0  0
    1.8418   14.6228   -4.8959 H   0  0  0  0  0  0  0  0  0  0  0  0
   -0.9971   13.5986   -1.8088 H   0  0  0  0  0  0  0  0  0  0  0  0
   -1.4245   14.4070   -3.3550 H   0  0  0  0  0  0  0  0  0  0  0  0
   -0.8976   12.6897   -3.3550 H   0  0  0  0  0  0  0  0  0  0  0  0
    2.6923   13.4094   -2.9819 H   0  0  0  0  0  0  0  0  0  0  0  0
    1.1862   11.9296   -4.4556 H   0  0  0  0  0  0  0  0  0  0  0  0
    2.5549   11.2035   -3.4615 H   0  0  0  0  0  0  0  0  0  0  0  0
    0.2900    9.8569   -3.4880 H   0  0  0  0  0  0  0  0  0  0  0  0
   -0.1648   12.4603   -0.4373 H   0  0  0  0  0  0  0  0  0  0  0  0
    1.8969   10.4187    0.6004 H   0  0  0  0  0  0  0  0  0  0  0  0
    1.2546   11.8707    1.4892 H   0  0  0  0  0  0  0  0  0  0  0  0
    0.2037    9.7651    2.2524 H   0  0  0  0  0  0  0  0  0  0  0  0
   -0.9755   10.9127    1.5051 H   0  0  0  0  0  0  0  0  0  0  0  0
   -1.4563    8.6956    0.7217 H   0  0  0  0  0  0  0  0  0  0  0  0
    0.3550    7.5070    0.8250 H   0  0  0  0  0  0  0  0  0  0  0  0
   -2.5103   10.6812    0.0856 H   0  0  0  0  0  0  0  0  0  0  0  0
   -2.1393   11.5053   -1.4668 H   0  0  0  0  0  0  0  0  0  0  0  0
   -3.0541    9.9594   -1.4668 H   0  0  0  0  0  0  0  0  0  0  0  0
   -1.4061    7.6434   -1.4218 H   0  0  0  0  0  0  0  0  0  0  0  0
   -2.0685    8.7695   -2.6546 H   0  0  0  0  0  0  0  0  0  0  0  0
   -0.3180    8.3666   -2.6546 H   0  0  0  0  0  0  0  0  0  0  0  0
    3.3993   11.9738    0.2189 H   0  0  0  0  0  0  0  0  0  0  0  0
    3.2354   11.0573   -1.3172 H   0  0  0  0  0  0  0  0  0  0  0  0
    4.0064   12.6797   -1.3172 H   0  0  0  0  0  0  0  0  0  0  0  0
    1.5004   13.7953    0.7546 H   0  0  0  0  0  0  0  0  0  0  0  0
    2.8354   14.4536   -0.3492 H   0  0  0  0  0  0  0  0  0  0  0  0
   -0.1530   14.8938   -0.5972 H   0  0  0  0  0  0  0  0  0  0  0  0
    1.1382   16.1012   -0.2203 H   0  0  0  0  0  0  0  0  0  0  0  0
    3.0543   16.0688   -1.4855 H   0  0  0  0  0  0  0  0  0  0  0  0
    3.1426   15.1530   -3.0283 H   0  0  0  0  0  0  0  0  0  0  0  0
    2.5864   16.8610   -3.0283 H   0  0  0  0  0  0  0  0  0  0  0  0
  1  2  1  0
  2  3  1  0
  3  4  1  0
  4  5  1  0
  5  6  1  0
  6  7  1  0
  7  8  1  0
  7  9  1  0
  2 10  1  0
 10 11  1  0
 11 12  1  0
 12 13  1  0
 13 14  1  1
 13 15  1  0
 15 16  1  0
 16 17  1  0
 17 18  2  0
 18 19  1  0
 19 20  1  0
 20 21  1  0
 21 22  1  0
 22 23  1  0
 22 24  1  0
 24 25  1  0
 24 26  1  0
 19 27  1  0
 27 28  1  6
 27 29  1  0
 29 30  1  0
 30 31  1  0
 31 32  1  1
  7  5  1  0
 31 10  1  0
 31 13  1  0
 27 15  1  0
 24 18  1  0
  1 33  1  0
  1 34  1  0
  1 35  1  0
  2 36  1  6
  3 37  1  0
  3 38  1  0
  4 39  1  0
  4 40  1  0
  5 41  1  1
  8 42  1  0
  8 43  1  0
  8 44  1  0
  9 45  1  0
  9 46  1  0
  9 47  1  0
 10 48  1  1
 11 49  1  0
 11 50  1  0
 12 51  1  0
 12 52  1  0
 14 53  1  0
 14 54  1  0
 14 55  1  0
 15 56  1  6
 16 57  1  0
 16 58  1  0
 17 59  1  0
 19 60  1  1
 20 61  1  0
 20 62  1  0
 21 63  1  0
 21 64  1  0
 22 65  1  1
 23 66  1  0
 25 67  1  0
 25 68  1  0
 25 69  1  0
 26 70  1  0
 26 71  1  0
 26 72  1  0
 28 73  1  0
 28 74  1  0
 28 75  1  0
 29 76  1  0
 29 77  1  0
 30 78  1  0
 30 79  1  0
 32 80  1  0
 32 81  1  0
 32 82  1  0
M  END
>  <meeko>  (2) 
{"is_sidechain": [false], "intermolecular_energy": 2.731, "internal_energy": -0.839}

$$$$
EPH_relaxed_0001_pdb2pqr_Repair_131_r2_0001_out
     RDKit          3D

 82 86  0  0  0  0  0  0  0  0999 V2000
    2.0060   18.1340   -2.9360 C   0  0  0  0  0  0  0  0  0  0  0  0
    0.8010   17.6520   -2.1230 C   0  0  2  0  0  0  0  0  0  0  0  0
    1.0500   17.7450   -0.6040 C   0  0  0  0  0  0  0  0  0  0  0  0
    1.1410   19.1820   -0.0830 C   0  0  0  0  0  0  0  0  0  0  0  0
   -0.1690   19.9000   -0.2060 C   0  0  2  0  0  0  0  0  0  0  0  0
   -0.8110   20.1940    1.0410 O   0  0  0  0  0  0  0  0  0  0  0  0
   -1.5010   19.2820    0.1730 C   0  0  0  0  0  0  0  0  0  0  0  0
   -1.5910   17.8850    0.7040 C   0  0  0  0  0  0  0  0  0  0  0  0
   -2.7500   19.8490   -0.4270 C   0  0  0  0  0  0  0  0  0  0  0  0
    0.4550   16.2180   -2.5070 C   0  0  1  0  0  0  0  0  0  0  0  0
    0.6090   15.9540   -4.0290 C   0  0  0  0  0  0  0  0  0  0  0  0
    1.1090   14.4940   -4.1800 C   0  0  0  0  0  0  0  0  0  0  0  0
    0.9090   13.8660   -2.7810 C   0  0  1  0  0  0  0  0  0  0  0  0
   -0.6020   13.4770   -2.7280 C   0  0  0  0  0  0  0  0  0  0  0  0
    1.8300   12.6530   -2.4290 C   0  0  2  0  0  0  0  0  0  0  0  0
    1.6520   11.4160   -3.3280 C   0  0  0  0  0  0  0  0  0  0  0  0
    0.6410   10.4250   -2.8550 C   0  0  0  0  0  0  0  0  0  0  0  0
    0.1110   10.3770   -1.6180 C   0  0  0  0  0  0  0  0  0  0  0  0
    0.5980   11.3260   -0.5160 C   0  0  1  0  0  0  0  0  0  0  0  0
    0.8430   10.5220    0.7890 C   0  0  0  0  0  0  0  0  0  0  0  0
   -0.3780    9.7110    1.2130 C   0  0  0  0  0  0  0  0  0  0  0  0
   -0.7970    8.7390    0.1140 C   0  0  2  0  0  0  0  0  0  0  0  0
    0.2260    7.7490   -0.0400 O   0  0  0  0  0  0  0  0  0  0  0  0
   -1.0610    9.4340   -1.2510 C   0  0  0  0  0  0  0  0  0  0  0  0
   -2.3560   10.2790   -1.1630 C   0  0  0  0  0  0  0  0  0  0  0  0
   -1.3360    8.3270   -2.3050 C   0  0  0  0  0  0  0  0  0  0  0  0
    1.8270   12.2590   -0.8970 C   0  0  1  0  0  0  0  0  0  0  0  0
    3.1680   11.5090   -0.6270 C   0  0  0  0  0  0  0  0  0  0  0  0
    1.8260   13.5200    0.0450 C   0  0  0  0  0  0  0  0  0  0  0  0
    0.9920   14.7310   -0.4160 C   0  0  0  0  0  0  0  0  0  0  0  0
    1.3020   15.0880   -1.8730 C   0  0  2  0  0  0  0  0  0  0  0  0
    2.8100   15.5050   -1.9530 C   0  0  0  0  0  0  0  0  0  0  0  0
    2.8057   18.4539   -2.2518 H   0  0  0  0  0  0  0  0  0  0  0  0
    2.3725   17.3133   -3.5701 H   0  0  0  0  0  0  0  0  0  0  0  0
    1.7054   18.9811   -3.5701 H   0  0  0  0  0  0  0  0  0  0  0  0
   -0.0442   18.3149   -2.3600 H   0  0  0  0  0  0  0  0  0  0  0  0
    0.2229   17.2388   -0.0847 H   0  0  0  0  0  0  0  0  0  0  0  0
    2.0221   17.2692   -0.4074 H   0  0  0  0  0  0  0  0  0  0  0  0
    1.4370   19.1592    0.9762 H   0  0  0  0  0  0  0  0  0  0  0  0
    1.8852   19.7200   -0.6886 H   0  0  0  0  0  0  0  0  0  0  0  0
    0.1732   20.4155   -1.1155 H   0  0  0  0  0  0  0  0  0  0  0  0
   -1.5894   17.9099    1.8037 H   0  0  0  0  0  0  0  0  0  0  0  0
   -2.5212   17.4171    0.3492 H   0  0  0  0  0  0  0  0  0  0  0  0
   -0.7286   17.3016    0.3492 H   0  0  0  0  0  0  0  0  0  0  0  0
   -3.4343   20.1597    0.3762 H   0  0  0  0  0  0  0  0  0  0  0  0
   -2.4954   20.7198   -1.0490 H   0  0  0  0  0  0  0  0  0  0  0  0
   -3.2379   19.0841   -1.0490 H   0  0  0  0  0  0  0  0  0  0  0  0
   -0.5773   16.1699   -2.1300 H   0  0  0  0  0  0  0  0  0  0  0  0
   -0.3599   16.0771   -4.5350 H   0  0  0  0  0  0  0  0  0  0  0  0
    1.3161   16.6633   -4.4839 H   0  0  0  0  0  0  0  0  0  0  0  0
    0.5163   13.9568   -4.9351 H   0  0  0  0  0  0  0  0  0  0  0  0
    2.1560   14.4442   -4.5136 H   0  0  0  0  0  0  0  0  0  0  0  0
   -0.9228   13.3944   -1.6791 H   0  0  0  0  0  0  0  0  0  0  0  0
   -1.1979   14.2510   -3.2338 H   0  0  0  0  0  0  0  0  0  0  0  0
   -0.7500   12.5115   -3.2338 H   0  0  0  0  0  0  0  0  0  0  0  0
    2.8325   13.0454   -2.6550 H   0  0  0  0  0  0  0  0  0  0  0  0
    1.3473   11.7624   -4.3266 H   0  0  0  0  0  0  0  0  0  0  0  0
    2.6191   10.8920   -3.3200 H   0  0  0  0  0  0  0  0  0  0  0  0
    0.2999    9.6697   -3.5783 H   0  0  0  0  0  0  0  0  0  0  0  0
   -0.2131   12.0527   -0.3606 H   0  0  0  0  0  0  0  0  0  0  0  0
    1.6850    9.8331    0.6262 H   0  0  0  0  0  0  0  0  0  0  0  0
    1.0601   11.2434    1.5905 H   0  0  0  0  0  0  0  0  0  0  0  0
   -0.1341    9.1423    2.1225 H   0  0  0  0  0  0  0  0  0  0  0  0
   -1.2104   10.4043    1.4039 H   0  0  0  0  0  0  0  0  0  0  0  0
   -1.7491    8.2825    0.4225 H   0  0  0  0  0  0  0  0  0  0  0  0
   -0.2110    6.8830   -0.1090 H   0  0  0  0  0  0  0  0  0  0  0  0
   -2.6132   10.4468   -0.1068 H   0  0  0  0  0  0  0  0  0  0  0  0
   -2.1965   11.2473   -1.6599 H   0  0  0  0  0  0  0  0  0  0  0  0
   -3.1781    9.7430   -1.6599 H   0  0  0  0  0  0  0  0  0  0  0  0
   -1.5706    7.3826   -1.7921 H   0  0  0  0  0  0  0  0  0  0  0  0
   -2.1877    8.6237   -2.9347 H   0  0  0  0  0  0  0  0  0  0  0  0
   -0.4444    8.1906   -2.9347 H   0  0  0  0  0  0  0  0  0  0  0  0
    3.3265   11.4203    0.4579 H   0  0  0  0  0  0  0  0  0  0  0  0
    3.1231   10.5050   -1.0743 H   0  0  0  0  0  0  0  0  0  0  0  0
    3.9999   12.0728   -1.0743 H   0  0  0  0  0  0  0  0  0  0  0  0
    1.4392   13.2031    1.0248 H   0  0  0  0  0  0  0  0  0  0  0  0
    2.8674   13.8741    0.0531 H   0  0  0  0  0  0  0  0  0  0  0  0
   -0.0768   14.4874   -0.3249 H   0  0  0  0  0  0  0  0  0  0  0  0
    1.2460   15.5933    0.2179 H   0  0  0  0  0  0  0  0  0  0  0  0
    3.2140   15.6167   -0.9360 H   0  0  0  0  0  0  0  0  0  0  0  0
    3.3768   14.7299   -2.4896 H   0  0  0  0  0  0  0  0  0  0  0  0
    2.8980   16.4612   -2.4896 H   0  0  0  0  0  0  0  0  0  0  0  0
  1  2  1  0
  2  3  1  0
  3  4  1  0
  4  5  1  0
  5  6  1  0
  6  7  1  0
  7  8  1  0
  7  9  1  0
  2 10  1  0
 10 11  1  0
 11 12  1  0
 12 13  1  0
 13 14  1  1
 13 15  1  0
 15 16  1  0
 16 17  1  0
 17 18  2  0
 18 19  1  0
 19 20  1  0
 20 21  1  0
 21 22  1  0
 22 23  1  0
 22 24  1  0
 24 25  1  0
 24 26  1  0
 19 27  1  0
 27 28  1  1
 27 29  1  0
 29 30  1  0
 30 31  1  0
 31 32  1  1
  7  5  1  0
 31 10  1  0
 31 13  1  0
 27 15  1  0
 24 18  1  0
  1 33  1  0
  1 34  1  0
  1 35  1  0
  2 36  1  1
  3 37  1  0
  3 38  1  0
  4 39  1  0
  4 40  1  0
  5 41  1  6
  8 42  1  0
  8 43  1  0
  8 44  1  0
  9 45  1  0
  9 46  1  0
  9 47  1  0
 10 48  1  1
 11 49  1  0
 11 50  1  0
 12 51  1  0
 12 52  1  0
 14 53  1  0
 14 54  1  0
 14 55  1  0
 15 56  1  6
 16 57  1  0
 16 58  1  0
 17 59  1  0
 19 60  1  1
 20 61  1  0
 20 62  1  0
 21 63  1  0
 21 64  1  0
 22 65  1  1
 23 66  1  0
 25 67  1  0
 25 68  1  0
 25 69  1  0
 26 70  1  0
 26 71  1  0
 26 72  1  0
 28 73  1  0
 28 74  1  0
 28 75  1  0
 29 76  1  0
 29 77  1  0
 30 78  1  0
 30 79  1  0
 32 80  1  0
 32 81  1  0
 32 82  1  0
M  END
>  <meeko>  (3) 
{"is_sidechain": [false], "intermolecular_energy": 2.731, "internal_energy": -0.839}

$$$$
EPH_relaxed_0001_pdb2pqr_Repair_131_r2_0001_out
     RDKit          3D

 82 86  0  0  0  0  0  0  0  0999 V2000
    3.6590   17.7300    0.4410 C   0  0  0  0  0  0  0  0  0  0  0  0
    2.7100   18.0260   -0.7240 C   0  0  2  0  0  0  0  0  0  0  0  0
    2.0360   19.4060   -0.5880 C   0  0  0  0  0  0  0  0  0  0  0  0
    1.2430   19.5770    0.7110 C   0  0  0  0  0  0  0  0  0  0  0  0
   -0.1150   20.1600    0.4580 C   0  0  2  0  0  0  0  0  0  0  0  0
   -0.9750   20.1940    1.6050 O   0  0  0  0  0  0  0  0  0  0  0  0
   -1.3970   19.3520    0.5200 C   0  0  0  0  0  0  0  0  0  0  0  0
   -1.3840   17.8910    0.8420 C   0  0  0  0  0  0  0  0  0  0  0  0
   -2.6020   19.8650   -0.2070 C   0  0  0  0  0  0  0  0  0  0  0  0
    1.6500   16.9350   -0.8220 C   0  0  1  0  0  0  0  0  0  0  0  0
    0.3860   17.3980   -1.5950 C   0  0  0  0  0  0  0  0  0  0  0  0
   -0.1390   16.1640   -2.3730 C   0  0  0  0  0  0  0  0  0  0  0  0
    0.6310   14.9660   -1.7700 C   0  0  1  0  0  0  0  0  0  0  0  0
   -0.1340   14.6190   -0.4540 C   0  0  0  0  0  0  0  0  0  0  0  0
    0.7920   13.7130   -2.6910 C   0  0  2  0  0  0  0  0  0  0  0  0
   -0.5250   13.0320   -3.1020 C   0  0  0  0  0  0  0  0  0  0  0  0
   -0.9950   11.9490   -2.1880 C   0  0  0  0  0  0  0  0  0  0  0  0
   -0.2510   11.3460   -1.2430 C   0  0  0  0  0  0  0  0  0  0  0  0
    1.2400   11.6730   -1.0850 C   0  0  1  0  0  0  0  0  0  0  0  0
    2.0480   10.3560   -0.9530 C   0  0  0  0  0  0  0  0  0  0  0  0
    1.5270    9.4590    0.1660 C   0  0  0  0  0  0  0  0  0  0  0  0
    0.0580    9.1080   -0.0570 C   0  0  2  0  0  0  0  0  0  0  0  0
   -0.0480    8.2850   -1.2220 O   0  0  0  0  0  0  0  0  0  0  0  0
   -0.8530   10.3570   -0.2140 C   0  0  0  0  0  0  0  0  0  0  0  0
   -0.9770   11.0860    1.1460 C   0  0  0  0  0  0  0  0  0  0  0  0
   -2.2810    9.8640   -0.5730 C   0  0  0  0  0  0  0  0  0  0  0  0
    1.8520   12.6580   -2.1720 C   0  0  1  0  0  0  0  0  0  0  0  0
    2.3220   11.8480   -3.4200 C   0  0  0  0  0  0  0  0  0  0  0  0
    3.1380   13.3450   -1.5780 C   0  0  0  0  0  0  0  0  0  0  0  0
    2.9250   14.6440   -0.7780 C   0  0  0  0  0  0  0  0  0  0  0  0
    2.0410   15.6260   -1.5530 C   0  0  2  0  0  0  0  0  0  0  0  0
    2.7950   16.0110   -2.8710 C   0  0  0  0  0  0  0  0  0  0  0  0
    3.1331   17.8940    1.3931 H   0  0  0  0  0  0  0  0  0  0  0  0
    3.9953   16.6843    0.3833 H   0  0  0  0  0  0  0  0  0  0  0  0
    4.5302   18.3991    0.3833 H   0  0  0  0  0  0  0  0  0  0  0  0
    3.3118   18.0424   -1.6446 H   0  0  0  0  0  0  0  0  0  0  0  0
    2.8175   20.1794   -0.6225 H   0  0  0  0  0  0  0  0  0  0  0  0
    1.3192   19.4974   -1.4173 H   0  0  0  0  0  0  0  0  0  0  0  0
    1.1254   18.5934    1.1892 H   0  0  0  0  0  0  0  0  0  0  0  0
    1.7972   20.2681    1.3631 H   0  0  0  0  0  0  0  0  0  0  0  0
    0.2928   20.8390   -0.3054 H   0  0  0  0  0  0  0  0  0  0  0  0
   -1.3828   17.7561    1.9337 H   0  0  0  0  0  0  0  0  0  0  0  0
   -2.2779   17.4133    0.4145 H   0  0  0  0  0  0  0  0  0  0  0  0
   -0.4817   17.4293    0.4145 H   0  0  0  0  0  0  0  0  0  0  0  0
   -3.3601   20.1877    0.5218 H   0  0  0  0  0  0  0  0  0  0  0  0
   -2.3136   20.7184   -0.8383 H   0  0  0  0  0  0  0  0  0  0  0  0
   -3.0172   19.0656   -0.8383 H   0  0  0  0  0  0  0  0  0  0  0  0
    1.4923   16.7351    0.2481 H   0  0  0  0  0  0  0  0  0  0  0  0
   -0.3793   17.7553   -0.8903 H   0  0  0  0  0  0  0  0  0  0  0  0
    0.6227   18.2255   -2.2799 H   0  0  0  0  0  0  0  0  0  0  0  0
   -1.2223   16.0436   -2.2248 H   0  0  0  0  0  0  0  0  0  0  0  0
    0.0177   16.2572   -3.4578 H   0  0  0  0  0  0  0  0  0  0  0  0
    0.4824   14.8986    0.4131 H   0  0  0  0  0  0  0  0  0  0  0  0
   -1.0827   15.1749   -0.4239 H   0  0  0  0  0  0  0  0  0  0  0  0
   -0.3407   13.5390   -0.4239 H   0  0  0  0  0  0  0  0  0  0  0  0
    1.2027   14.1496   -3.6133 H   0  0  0  0  0  0  0  0  0  0  0  0
   -1.3077   13.8037   -3.1453 H   0  0  0  0  0  0  0  0  0  0  0  0
   -0.3286   12.5490   -4.0706 H   0  0  0  0  0  0  0  0  0  0  0  0
   -2.0377   11.6159   -2.2964 H   0  0  0  0  0  0  0  0  0  0  0  0
    1.3266   12.2581   -0.1575 H   0  0  0  0  0  0  0  0  0  0  0  0
    1.9843    9.8065   -1.9038 H   0  0  0  0  0  0  0  0  0  0  0  0
    3.0864   10.6246   -0.7092 H   0  0  0  0  0  0  0  0  0  0  0  0
    2.1192    8.5323    0.1900 H   0  0  0  0  0  0  0  0  0  0  0  0
    1.6187    9.9982    1.1204 H   0  0  0  0  0  0  0  0  0  0  0  0
   -0.2933    8.5746    0.8386 H   0  0  0  0  0  0  0  0  0  0  0  0
    0.5420    8.6570   -1.9000 H   0  0  0  0  0  0  0  0  0  0  0  0
   -0.8536   10.3605    1.9635 H   0  0  0  0  0  0  0  0  0  0  0  0
   -0.1973   11.8584    1.2204 H   0  0  0  0  0  0  0  0  0  0  0  0
   -1.9682   11.5572    1.2204 H   0  0  0  0  0  0  0  0  0  0  0  0
   -2.8448    9.6693    0.3512 H   0  0  0  0  0  0  0  0  0  0  0  0
   -2.7980   10.6357   -1.1623 H   0  0  0  0  0  0  0  0  0  0  0  0
   -2.2118    8.9377   -1.1623 H   0  0  0  0  0  0  0  0  0  0  0  0
    2.8488   10.9402   -3.0908 H   0  0  0  0  0  0  0  0  0  0  0  0
    1.4475   11.5656   -4.0245 H   0  0  0  0  0  0  0  0  0  0  0  0
    3.0011   12.4671   -4.0245 H   0  0  0  0  0  0  0  0  0  0  0  0
    3.6248   12.6190   -0.9102 H   0  0  0  0  0  0  0  0  0  0  0  0
    3.7364   13.6404   -2.4525 H   0  0  0  0  0  0  0  0  0  0  0  0
    2.4403   14.4018    0.1793 H   0  0  0  0  0  0  0  0  0  0  0  0
    3.9043   15.1144   -0.6054 H   0  0  0  0  0  0  0  0  0  0  0  0
    3.7486   16.4979   -2.6190 H   0  0  0  0  0  0  0  0  0  0  0  0
    2.9914   15.1028   -3.4598 H   0  0  0  0  0  0  0  0  0  0  0  0
    2.1745   16.7026   -3.4598 H   0  0  0  0  0  0  0  0  0  0  0  0
  1  2  1  0
  2  3  1  0
  3  4  1  0
  4  5  1  0
  5  6  1  0
  6  7  1  0
  7  8  1  0
  7  9  1  0
  2 10  1  0
 10 11  1  0
 11 12  1  0
 12 13  1  0
 13 14  1  1
 13 15  1  0
 15 16  1  0
 16 17  1  0
 17 18  2  0
 18 19  1  0
 19 20  1  0
 20 21  1  0
 21 22  1  0
 22 23  1  0
 22 24  1  0
 24 25  1  0
 24 26  1  0
 19 27  1  0
 27 28  1  6
 27 29  1  0
 29 30  1  0
 30 31  1  0
 31 32  1  6
  7  5  1  0
 31 10  1  0
 31 13  1  0
 27 15  1  0
 24 18  1  0
  1 33  1  0
  1 34  1  0
  1 35  1  0
  2 36  1  6
  3 37  1  0
  3 38  1  0
  4 39  1  0
  4 40  1  0
  5 41  1  6
  8 42  1  0
  8 43  1  0
  8 44  1  0
  9 45  1  0
  9 46  1  0
  9 47  1  0
 10 48  1  1
 11 49  1  0
 11 50  1  0
 12 51  1  0
 12 52  1  0
 14 53  1  0
 14 54  1  0
 14 55  1  0
 15 56  1  6
 16 57  1  0
 16 58  1  0
 17 59  1  0
 19 60  1  1
 20 61  1  0
 20 62  1  0
 21 63  1  0
 21 64  1  0
 22 65  1  1
 23 66  1  0
 25 67  1  0
 25 68  1  0
 25 69  1  0
 26 70  1  0
 26 71  1  0
 26 72  1  0
 28 73  1  0
 28 74  1  0
 28 75  1  0
 29 76  1  0
 29 77  1  0
 30 78  1  0
 30 79  1  0
 32 80  1  0
 32 81  1  0
 32 82  1  0
M  END
>  <meeko>  (4) 
{"is_sidechain": [false], "intermolecular_energy": 2.731, "internal_energy": -0.839}

$$$$
EPH_relaxed_0001_pdb2pqr_Repair_131_r2_0001_out
     RDKit          3D

 82 86  0  0  0  0  0  0  0  0999 V2000
   -5.2060    5.8860   -1.7820 C   0  0  0  0  0  0  0  0  0  0  0  0
   -5.4900    7.3820   -1.9430 C   0  0  2  0  0  0  0  0  0  0  0  0
   -5.2090    8.1690   -0.6480 C   0  0  0  0  0  0  0  0  0  0  0  0
   -4.2220    9.3240   -0.8320 C   0  0  0  0  0  0  0  0  0  0  0  0
   -2.8340    8.9390   -0.4180 C   0  0  2  0  0  0  0  0  0  0  0  0
   -2.2940    9.7130    0.6610 O   0  0  0  0  0  0  0  0  0  0  0  0
   -1.6250    9.8370   -0.6050 C   0  0  0  0  0  0  0  0  0  0  0  0
   -1.7490   11.1910   -1.2290 C   0  0  0  0  0  0  0  0  0  0  0  0
   -0.2660    9.2100   -0.6330 C   0  0  0  0  0  0  0  0  0  0  0  0
   -6.9360    7.5920   -2.3780 C   0  0  1  0  0  0  0  0  0  0  0  0
   -7.2690    6.8750   -3.7140 C   0  0  0  0  0  0  0  0  0  0  0  0
   -8.7380    6.3930   -3.6090 C   0  0  0  0  0  0  0  0  0  0  0  0
   -9.3020    7.1280   -2.3700 C   0  0  1  0  0  0  0  0  0  0  0  0
   -9.6750    8.5540   -2.8840 C   0  0  0  0  0  0  0  0  0  0  0  0
  -10.5080    6.4410   -1.6490 C   0  0  2  0  0  0  0  0  0  0  0  0
  -11.7810    6.2950   -2.5020 C   0  0  0  0  0  0  0  0  0  0  0  0
  -12.7410    7.4350   -2.4150 C   0  0  0  0  0  0  0  0  0  0  0  0
  -12.7300    8.3970   -1.4730 C   0  0  0  0  0  0  0  0  0  0  0  0
  -11.7380    8.3430   -0.3040 C   0  0  1  0  0  0  0  0  0  0  0  0
  -12.4870    8.6360    1.0230 C   0  0  0  0  0  0  0  0  0  0  0  0
  -13.2660    9.9460    0.9790 C   0  0  0  0  0  0  0  0  0  0  0  0
  -14.2820    9.9390   -0.1610 C   0  0  2  0  0  0  0  0  0  0  0  0
  -15.2870    8.9610    0.1240 O   0  0  0  0  0  0  0  0  0  0  0  0
  -13.6450    9.6440   -1.5470 C   0  0  0  0  0  0  0  0  0  0  0  0
  -12.7840   10.8530   -1.9920 C   0  0  0  0  0  0  0  0  0  0  0  0
  -14.7930    9.5250   -2.5850 C   0  0  0  0  0  0  0  0  0  0  0  0
  -10.8350    7.0390   -0.2210 C   0  0  1  0  0  0  0  0  0  0  0  0
  -11.5840    5.9220    0.5680 C   0  0  0  0  0  0  0  0  0  0  0  0
   -9.5330    7.3660    0.6030 C   0  0  0  0  0  0  0  0  0  0  0  0
   -8.3360    7.9300   -0.1860 C   0  0  0  0  0  0  0  0  0  0  0  0
   -8.0460    7.0790   -1.4260 C   0  0  2  0  0  0  0  0  0  0  0  0
   -7.6470    5.6450   -0.9390 C   0  0  0  0  0  0  0  0  0  0  0  0
   -5.1583    5.6349   -0.7121 H   0  0  0  0  0  0  0  0  0  0  0  0
   -6.0102    5.3067   -2.2591 H   0  0  0  0  0  0  0  0  0  0  0  0
   -4.2454    5.6417   -2.2591 H   0  0  0  0  0  0  0  0  0  0  0  0
   -4.8094    7.7672   -2.7166 H   0  0  0  0  0  0  0  0  0  0  0  0
   -6.1599    8.5803   -0.2783 H   0  0  0  0  0  0  0  0  0  0  0  0
   -4.7515    7.4653    0.0630 H   0  0  0  0  0  0  0  0  0  0  0  0
   -4.2094    9.6165   -1.8923 H   0  0  0  0  0  0  0  0  0  0  0  0
   -4.5499   10.1596   -0.1961 H   0  0  0  0  0  0  0  0  0  0  0  0
   -3.0211    7.8885   -0.6853 H   0  0  0  0  0  0  0  0  0  0  0  0
   -1.8188   11.9536   -0.4394 H   0  0  0  0  0  0  0  0  0  0  0  0
   -0.8653   11.3894   -1.8532 H   0  0  0  0  0  0  0  0  0  0  0  0
   -2.6541   11.2256   -1.8532 H   0  0  0  0  0  0  0  0  0  0  0  0
    0.0845    9.0483    0.3971 H   0  0  0  0  0  0  0  0  0  0  0  0
   -0.3182    8.2449   -1.1583 H   0  0  0  0  0  0  0  0  0  0  0  0
    0.4343    9.8760   -1.1583 H   0  0  0  0  0  0  0  0  0  0  0  0
   -6.9569    8.6908   -2.4241 H   0  0  0  0  0  0  0  0  0  0  0  0
   -7.1589    7.5737   -4.5565 H   0  0  0  0  0  0  0  0  0  0  0  0
   -6.5875    6.0294   -3.8888 H   0  0  0  0  0  0  0  0  0  0  0  0
   -9.3020    6.6665   -4.5129 H   0  0  0  0  0  0  0  0  0  0  0  0
   -8.8127    5.2995   -3.5153 H   0  0  0  0  0  0  0  0  0  0  0  0
   -9.8490    9.2193   -2.0255 H   0  0  0  0  0  0  0  0  0  0  0  0
   -8.8505    8.9510   -3.4944 H   0  0  0  0  0  0  0  0  0  0  0  0
  -10.5883    8.4965   -3.4944 H   0  0  0  0  0  0  0  0  0  0  0  0
  -10.1362    5.4181   -1.4895 H   0  0  0  0  0  0  0  0  0  0  0  0
  -11.4753    6.1875   -3.5532 H   0  0  0  0  0  0  0  0  0  0  0  0
  -12.3136    5.4177   -2.1062 H   0  0  0  0  0  0  0  0  0  0  0  0
  -13.5236    7.4941   -3.1857 H   0  0  0  0  0  0  0  0  0  0  0  0
  -10.9965    9.1324   -0.4963 H   0  0  0  0  0  0  0  0  0  0  0  0
  -13.1909    7.8138    1.2193 H   0  0  0  0  0  0  0  0  0  0  0  0
  -11.7330    8.7230    1.8192 H   0  0  0  0  0  0  0  0  0  0  0  0
  -13.7964   10.0816    1.9331 H   0  0  0  0  0  0  0  0  0  0  0  0
  -12.5571   10.7705    0.8124 H   0  0  0  0  0  0  0  0  0  0  0  0
  -14.7153   10.9481   -0.2233 H   0  0  0  0  0  0  0  0  0  0  0  0
  -15.3990    8.4140   -0.6720 H   0  0  0  0  0  0  0  0  0  0  0  0
  -12.4075   11.3817   -1.1039 H   0  0  0  0  0  0  0  0  0  0  0  0
  -11.9351   10.4968   -2.5940 H   0  0  0  0  0  0  0  0  0  0  0  0
  -13.3982   11.5388   -2.5940 H   0  0  0  0  0  0  0  0  0  0  0  0
  -15.7540    9.4254   -2.0591 H   0  0  0  0  0  0  0  0  0  0  0  0
  -14.8119   10.4260   -3.2157 H   0  0  0  0  0  0  0  0  0  0  0  0
  -14.6267    8.6393   -3.2157 H   0  0  0  0  0  0  0  0  0  0  0  0
  -11.4679    6.0952    1.6481 H   0  0  0  0  0  0  0  0  0  0  0  0
  -12.6522    5.9416    0.3063 H   0  0  0  0  0  0  0  0  0  0  0  0
  -11.1603    4.9412    0.3063 H   0  0  0  0  0  0  0  0  0  0  0  0
   -9.8025    8.1047    1.3722 H   0  0  0  0  0  0  0  0  0  0  0  0
   -9.1892    6.3975    0.9950 H   0  0  0  0  0  0  0  0  0  0  0  0
   -8.5654    8.9586   -0.5012 H   0  0  0  0  0  0  0  0  0  0  0  0
   -7.4491    7.9151    0.4645 H   0  0  0  0  0  0  0  0  0  0  0  0
   -7.6400    5.6200    0.1607 H   0  0  0  0  0  0  0  0  0  0  0  0
   -8.3756    4.9132   -1.3178 H   0  0  0  0  0  0  0  0  0  0  0  0
   -6.6451    5.3947   -1.3178 H   0  0  0  0  0  0  0  0  0  0  0  0
  1  2  1  0
  2  3  1  0
  3  4  1  0
  4  5  1  0
  5  6  1  0
  6  7  1  0
  7  8  1  0
  7  9  1  0
  2 10  1  0
 10 11  1  0
 11 12  1  0
 12 13  1  0
 13 14  1  6
 13 15  1  0
 15 16  1  0
 16 17  1  0
 17 18  2  0
 18 19  1  0
 19 20  1  0
 20 21  1  0
 21 22  1  0
 22 23  1  0
 22 24  1  0
 24 25  1  0
 24 26  1  0
 19 27  1  0
 27 28  1  1
 27 29  1  0
 29 30  1  0
 30 31  1  0
 31 32  1  1
  7  5  1  0
 31 10  1  0
 31 13  1  0
 27 15  1  0
 24 18  1  0
  1 33  1  0
  1 34  1  0
  1 35  1  0
  2 36  1  6
  3 37  1  0
  3 38  1  0
  4 39  1  0
  4 40  1  0
  5 41  1  1
  8 42  1  0
  8 43  1  0
  8 44  1  0
  9 45  1  0
  9 46  1  0
  9 47  1  0
 10 48  1  6
 11 49  1  0
 11 50  1  0
 12 51  1  0
 12 52  1  0
 14 53  1  0
 14 54  1  0
 14 55  1  0
 15 56  1  1
 16 57  1  0
 16 58  1  0
 17 59  1  0
 19 60  1  6
 20 61  1  0
 20 62  1  0
 21 63  1  0
 21 64  1  0
 22 65  1  6
 23 66  1  0
 25 67  1  0
 25 68  1  0
 25 69  1  0
 26 70  1  0
 26 71  1  0
 26 72  1  0
 28 73  1  0
 28 74  1  0
 28 75  1  0
 29 76  1  0
 29 77  1  0
 30 78  1  0
 30 79  1  0
 32 80  1  0
 32 81  1  0
 32 82  1  0
M  END
>  <meeko>  (5) 
{"is_sidechain": [false], "intermolecular_energy": 2.731, "internal_energy": -0.839}

$$$$
EPH_relaxed_0001_pdb2pqr_Repair_131_r2_0001_out
     RDKit          3D

 82 86  0  0  0  0  0  0  0  0999 V2000
    3.6510   11.4780   -5.0740 C   0  0  0  0  0  0  0  0  0  0  0  0
    2.1270   11.3300   -5.0880 C   0  0  2  0  0  0  0  0  0  0  0  0
    1.5730   11.1630   -6.5170 C   0  0  0  0  0  0  0  0  0  0  0  0
    2.0550   12.2390   -7.4940 C   0  0  0  0  0  0  0  0  0  0  0  0
    0.9820   13.2430   -7.7860 C   0  0  2  0  0  0  0  0  0  0  0  0
    0.6470   13.3750   -9.1730 O   0  0  0  0  0  0  0  0  0  0  0  0
    1.2280   14.5320   -8.5490 C   0  0  0  0  0  0  0  0  0  0  0  0
    2.5870   14.8850   -9.0670 C   0  0  0  0  0  0  0  0  0  0  0  0
    0.2670   15.6650   -8.3670 C   0  0  0  0  0  0  0  0  0  0  0  0
    1.4820   12.5370   -4.4170 C   0  0  1  0  0  0  0  0  0  0  0  0
   -0.0630   12.4210   -4.3360 C   0  0  0  0  0  0  0  0  0  0  0  0
   -0.4930   13.0900   -3.0060 C   0  0  0  0  0  0  0  0  0  0  0  0
    0.7640   13.8560   -2.5310 C   0  0  1  0  0  0  0  0  0  0  0  0
    0.7560   15.1850   -3.3480 C   0  0  0  0  0  0  0  0  0  0  0  0
    0.8690   14.1240   -0.9940 C   0  0  2  0  0  0  0  0  0  0  0  0
   -0.2450   15.0080   -0.4070 C   0  0  0  0  0  0  0  0  0  0  0  0
    0.0410   16.4730   -0.3980 C   0  0  0  0  0  0  0  0  0  0  0  0
    1.2510   17.0340   -0.5760 C   0  0  0  0  0  0  0  0  0  0  0  0
    2.5090   16.1670   -0.7170 C   0  0  1  0  0  0  0  0  0  0  0  0
    3.6350   16.7370    0.1860 C   0  0  0  0  0  0  0  0  0  0  0  0
    3.9110   18.2130   -0.0860 C   0  0  0  0  0  0  0  0  0  0  0  0
    2.6510   19.0500    0.1210 C   0  0  2  0  0  0  0  0  0  0  0  0
    2.3020   19.0240    1.5090 O   0  0  0  0  0  0  0  0  0  0  0  0
    1.4450   18.5630   -0.7300 C   0  0  0  0  0  0  0  0  0  0  0  0
    1.7040   18.8720   -2.2250 C   0  0  0  0  0  0  0  0  0  0  0  0
    0.2030   19.4010   -0.3230 C   0  0  0  0  0  0  0  0  0  0  0  0
    2.3000   14.6040   -0.5170 C   0  0  1  0  0  0  0  0  0  0  0  0
    2.4090   14.2420    0.9960 C   0  0  0  0  0  0  0  0  0  0  0  0
    3.4640   13.8320   -1.2440 C   0  0  0  0  0  0  0  0  0  0  0  0
    3.2490   13.4920   -2.7310 C   0  0  0  0  0  0  0  0  0  0  0  0
    1.8830   12.8350   -2.9510 C   0  0  2  0  0  0  0  0  0  0  0  0
    1.8680   11.4830   -2.1580 C   0  0  0  0  0  0  0  0  0  0  0  0
    4.0065   11.5125   -4.0336 H   0  0  0  0  0  0  0  0  0  0  0  0
    4.1075   10.6200   -5.5892 H   0  0  0  0  0  0  0  0  0  0  0  0
    3.9338   12.4078   -5.5892 H   0  0  0  0  0  0  0  0  0  0  0  0
    1.8778   10.4162   -4.5287 H   0  0  0  0  0  0  0  0  0  0  0  0
    1.8882   10.1808   -6.8990 H   0  0  0  0  0  0  0  0  0  0  0  0
    0.4790   11.2562   -6.4504 H   0  0  0  0  0  0  0  0  0  0  0  0
    2.9192   12.7585   -7.0543 H   0  0  0  0  0  0  0  0  0  0  0  0
    2.3299   11.7464   -8.4383 H   0  0  0  0  0  0  0  0  0  0  0  0
    0.4947   13.0380   -6.8214 H   0  0  0  0  0  0  0  0  0  0  0  0
    3.2674   15.0617   -8.2209 H   0  0  0  0  0  0  0  0  0  0  0  0
    2.9720   14.0571   -9.6804 H   0  0  0  0  0  0  0  0  0  0  0  0
    2.5204   15.7957   -9.6804 H   0  0  0  0  0  0  0  0  0  0  0  0
    0.1132   15.8464   -7.2930 H   0  0  0  0  0  0  0  0  0  0  0  0
    0.6757   16.5716   -8.8371 H   0  0  0  0  0  0  0  0  0  0  0  0
   -0.6941   15.4097   -8.8371 H   0  0  0  0  0  0  0  0  0  0  0  0
    1.8531   13.3345   -5.0776 H   0  0  0  0  0  0  0  0  0  0  0  0
   -0.5269   12.9395   -5.1880 H   0  0  0  0  0  0  0  0  0  0  0  0
   -0.3822   11.3689   -4.3699 H   0  0  0  0  0  0  0  0  0  0  0  0
   -1.3304   13.7834   -3.1730 H   0  0  0  0  0  0  0  0  0  0  0  0
   -0.8405   12.3568   -2.2632 H   0  0  0  0  0  0  0  0  0  0  0  0
    0.7509   16.0405   -2.6565 H   0  0  0  0  0  0  0  0  0  0  0  0
    1.6539   15.2312   -3.9818 H   0  0  0  0  0  0  0  0  0  0  0  0
   -0.1424   15.2204   -3.9818 H   0  0  0  0  0  0  0  0  0  0  0  0
    0.7091   13.1223   -0.5686 H   0  0  0  0  0  0  0  0  0  0  0  0
   -1.1570   14.8435   -0.9995 H   0  0  0  0  0  0  0  0  0  0  0  0
   -0.3448   14.7112    0.6475 H   0  0  0  0  0  0  0  0  0  0  0  0
   -0.8090   17.1511   -0.2319 H   0  0  0  0  0  0  0  0  0  0  0  0
    2.8074   16.2343   -1.7736 H   0  0  0  0  0  0  0  0  0  0  0  0
    3.3356   16.6221    1.2382 H   0  0  0  0  0  0  0  0  0  0  0  0
    4.5563   16.1782   -0.0355 H   0  0  0  0  0  0  0  0  0  0  0  0
    4.6944   18.5655    0.6010 H   0  0  0  0  0  0  0  0  0  0  0  0
    4.2382   18.3227   -1.1305 H   0  0  0  0  0  0  0  0  0  0  0  0
    2.8773   20.0735   -0.2124 H   0  0  0  0  0  0  0  0  0  0  0  0
    1.7350   19.7940    1.6840 H   0  0  0  0  0  0  0  0  0  0  0  0
    2.4086   19.7126   -2.3090 H   0  0  0  0  0  0  0  0  0  0  0  0
    2.1320   17.9845   -2.7140 H   0  0  0  0  0  0  0  0  0  0  0  0
    0.7554   19.1384   -2.7140 H   0  0  0  0  0  0  0  0  0  0  0  0
    0.1351   19.4468    0.7739 H   0  0  0  0  0  0  0  0  0  0  0  0
    0.2993   20.4195   -0.7273 H   0  0  0  0  0  0  0  0  0  0  0  0
   -0.7054   18.9304   -0.7273 H   0  0  0  0  0  0  0  0  0  0  0  0
    2.1445   15.1203    1.6031 H   0  0  0  0  0  0  0  0  0  0  0  0
    1.7197   13.4162    1.2260 H   0  0  0  0  0  0  0  0  0  0  0  0
    3.4397   13.9341    1.2260 H   0  0  0  0  0  0  0  0  0  0  0  0
    4.3701   14.4515   -1.1719 H   0  0  0  0  0  0  0  0  0  0  0  0
    3.5282   12.8601   -0.7328 H   0  0  0  0  0  0  0  0  0  0  0  0
    3.3028   14.4174   -3.3232 H   0  0  0  0  0  0  0  0  0  0  0  0
    4.0322   12.7870   -3.0465 H   0  0  0  0  0  0  0  0  0  0  0  0
    1.8703   11.6914   -1.0779 H   0  0  0  0  0  0  0  0  0  0  0  0
    0.9635   10.9144   -2.4198 H   0  0  0  0  0  0  0  0  0  0  0  0
    2.7597   10.8945   -2.4198 H   0  0  0  0  0  0  0  0  0  0  0  0
  1  2  1  0
  2  3  1  0
  3  4  1  0
  4  5  1  0
  5  6  1  0
  6  7  1  0
  7  8  1  0
  7  9  1  0
  2 10  1  0
 10 11  1  0
 11 12  1  0
 12 13  1  0
 13 14  1  6
 13 15  1  0
 15 16  1  0
 16 17  1  0
 17 18  2  0
 18 19  1  0
 19 20  1  0
 20 21  1  0
 21 22  1  0
 22 23  1  0
 22 24  1  0
 24 25  1  0
 24 26  1  0
 19 27  1  0
 27 28  1  1
 27 29  1  0
 29 30  1  0
 30 31  1  0
 31 32  1  1
  7  5  1  0
 31 10  1  0
 31 13  1  0
 27 15  1  0
 24 18  1  0
  1 33  1  0
  1 34  1  0
  1 35  1  0
  2 36  1  1
  3 37  1  0
  3 38  1  0
  4 39  1  0
  4 40  1  0
  5 41  1  1
  8 42  1  0
  8 43  1  0
  8 44  1  0
  9 45  1  0
  9 46  1  0
  9 47  1  0
 10 48  1  6
 11 49  1  0
 11 50  1  0
 12 51  1  0
 12 52  1  0
 14 53  1  0
 14 54  1  0
 14 55  1  0
 15 56  1  1
 16 57  1  0
 16 58  1  0
 17 59  1  0
 19 60  1  6
 20 61  1  0
 20 62  1  0
 21 63  1  0
 21 64  1  0
 22 65  1  6
 23 66  1  0
 25 67  1  0
 25 68  1  0
 25 69  1  0
 26 70  1  0
 26 71  1  0
 26 72  1  0
 28 73  1  0
 28 74  1  0
 28 75  1  0
 29 76  1  0
 29 77  1  0
 30 78  1  0
 30 79  1  0
 32 80  1  0
 32 81  1  0
 32 82  1  0
M  END
>  <meeko>  (6) 
{"is_sidechain": [false], "intermolecular_energy": 2.731, "internal_energy": -0.839}

$$$$
EPH_relaxed_0001_pdb2pqr_Repair_131_r2_0001_out
     RDKit          3D

 82 86  0  0  0  0  0  0  0  0999 V2000
   -0.1420   14.9820   -7.3590 C   0  0  0  0  0  0  0  0  0  0  0  0
    0.7680   13.8690   -7.8860 C   0  0  2  0  0  0  0  0  0  0  0  0
    0.2200   13.2360   -9.1810 C   0  0  0  0  0  0  0  0  0  0  0  0
    0.8970   13.7530  -10.4530 C   0  0  0  0  0  0  0  0  0  0  0  0
    1.0060   15.2480  -10.4550 C   0  0  2  0  0  0  0  0  0  0  0  0
    2.0360   15.7720  -11.3040 O   0  0  0  0  0  0  0  0  0  0  0  0
    2.1980   16.0000   -9.8950 C   0  0  0  0  0  0  0  0  0  0  0  0
    3.3630   15.2790   -9.2920 C   0  0  0  0  0  0  0  0  0  0  0  0
    2.0160   17.4300   -9.4910 C   0  0  0  0  0  0  0  0  0  0  0  0
    0.9490   12.7970   -6.8180 C   0  0  1  0  0  0  0  0  0  0  0  0
    2.0120   11.7370   -7.2110 C   0  0  0  0  0  0  0  0  0  0  0  0
    2.7300   11.3160   -5.9030 C   0  0  0  0  0  0  0  0  0  0  0  0
    1.8460   11.8910   -4.7710 C   0  0  1  0  0  0  0  0  0  0  0  0
    0.6820   10.8640   -4.6110 C   0  0  0  0  0  0  0  0  0  0  0  0
    2.5610   12.1700   -3.4090 C   0  0  2  0  0  0  0  0  0  0  0  0
    3.1480   10.9280   -2.7150 C   0  0  0  0  0  0  0  0  0  0  0  0
    2.2270   10.2330   -1.7670 C   0  0  0  0  0  0  0  0  0  0  0  0
    1.0860   10.7440   -1.2690 C   0  0  0  0  0  0  0  0  0  0  0  0
    0.6690   12.1880   -1.5770 C   0  0  1  0  0  0  0  0  0  0  0  0
    0.2210   12.8870   -0.2670 C   0  0  0  0  0  0  0  0  0  0  0  0
   -0.8660   12.1100    0.4690 C   0  0  0  0  0  0  0  0  0  0  0  0
   -0.3930   10.6990    0.8090 C   0  0  2  0  0  0  0  0  0  0  0  0
    0.6650   10.7870    1.7690 O   0  0  0  0  0  0  0  0  0  0  0  0
    0.0930    9.9000   -0.4320 C   0  0  0  0  0  0  0  0  0  0  0  0
   -1.1190    9.5450   -1.3290 C   0  0  0  0  0  0  0  0  0  0  0  0
    0.6740    8.5500    0.0670 C   0  0  0  0  0  0  0  0  0  0  0  0
    1.7170   13.0510   -2.4020 C   0  0  1  0  0  0  0  0  0  0  0  0
    2.7380   13.7190   -1.4310 C   0  0  0  0  0  0  0  0  0  0  0  0
    0.9590   14.2260   -3.1260 C   0  0  0  0  0  0  0  0  0  0  0  0
    0.3780   13.9230   -4.5200 C   0  0  0  0  0  0  0  0  0  0  0  0
    1.4260   13.2610   -5.4190 C   0  0  2  0  0  0  0  0  0  0  0  0
    2.6000   14.2790   -5.6160 C   0  0  0  0  0  0  0  0  0  0  0  0
   -0.1340   14.9722   -6.2591 H   0  0  0  0  0  0  0  0  0  0  0  0
    0.2224   15.9552   -7.7197 H   0  0  0  0  0  0  0  0  0  0  0  0
   -1.1682   14.8182   -7.7197 H   0  0  0  0  0  0  0  0  0  0  0  0
    1.7411   14.3222   -8.1263 H   0  0  0  0  0  0  0  0  0  0  0  0
    0.3696   12.1476   -9.1258 H   0  0  0  0  0  0  0  0  0  0  0  0
   -0.8430   13.5107   -9.2482 H   0  0  0  0  0  0  0  0  0  0  0  0
    1.9068   13.3219  -10.5197 H   0  0  0  0  0  0  0  0  0  0  0  0
    0.2824   13.4530  -11.3146 H   0  0  0  0  0  0  0  0  0  0  0  0
   -0.0763   15.3509  -10.2876 H   0  0  0  0  0  0  0  0  0  0  0  0
    3.2931   15.3222   -8.1951 H   0  0  0  0  0  0  0  0  0  0  0  0
    3.3533   14.2287   -9.6189 H   0  0  0  0  0  0  0  0  0  0  0  0
    4.2986   15.7562   -9.6189 H   0  0  0  0  0  0  0  0  0  0  0  0
    2.0068   17.5026   -8.3934 H   0  0  0  0  0  0  0  0  0  0  0  0
    2.8447   18.0324   -9.8914 H   0  0  0  0  0  0  0  0  0  0  0  0
    1.0628   17.8057   -9.8914 H   0  0  0  0  0  0  0  0  0  0  0  0
   -0.0825   12.4196   -6.7578 H   0  0  0  0  0  0  0  0  0  0  0  0
    1.5250   10.8656   -7.6730 H   0  0  0  0  0  0  0  0  0  0  0  0
    2.7272   12.1466   -7.9395 H   0  0  0  0  0  0  0  0  0  0  0  0
    2.7917   10.2202   -5.8291 H   0  0  0  0  0  0  0  0  0  0  0  0
    3.7638   11.6889   -5.8556 H   0  0  0  0  0  0  0  0  0  0  0  0
    0.4882   10.6930   -3.5418 H   0  0  0  0  0  0  0  0  0  0  0  0
   -0.2256   11.2610   -5.0892 H   0  0  0  0  0  0  0  0  0  0  0  0
    0.9628    9.9140   -5.0892 H   0  0  0  0  0  0  0  0  0  0  0  0
    3.4252   12.7776   -3.7157 H   0  0  0  0  0  0  0  0  0  0  0  0
    3.4396   10.2088   -3.4946 H   0  0  0  0  0  0  0  0  0  0  0  0
    3.9932   11.2880   -2.1099 H   0  0  0  0  0  0  0  0  0  0  0  0
    2.5048    9.2173   -1.4488 H   0  0  0  0  0  0  0  0  0  0  0  0
   -0.1805   12.1183   -2.2724 H   0  0  0  0  0  0  0  0  0  0  0  0
    1.0934   12.9864    0.3957 H   0  0  0  0  0  0  0  0  0  0  0  0
   -0.1957   13.8683   -0.5381 H   0  0  0  0  0  0  0  0  0  0  0  0
   -1.1190   12.6389    1.3997 H   0  0  0  0  0  0  0  0  0  0  0  0
   -1.7483   12.0367   -0.1839 H   0  0  0  0  0  0  0  0  0  0  0  0
   -1.2553   10.1509    1.2165 H   0  0  0  0  0  0  0  0  0  0  0  0
    0.2630   10.9770    2.6340 H   0  0  0  0  0  0  0  0  0  0  0  0
   -1.9822    9.2922   -0.6958 H   0  0  0  0  0  0  0  0  0  0  0  0
   -1.3702   10.4073   -1.9641 H   0  0  0  0  0  0  0  0  0  0  0  0
   -0.8653    8.6834   -1.9641 H   0  0  0  0  0  0  0  0  0  0  0  0
    0.6794    8.5373    1.1669 H   0  0  0  0  0  0  0  0  0  0  0  0
    0.0522    7.7229   -0.3061 H   0  0  0  0  0  0  0  0  0  0  0  0
    1.7021    8.4330   -0.3061 H   0  0  0  0  0  0  0  0  0  0  0  0
    2.4377   13.5225   -0.3912 H   0  0  0  0  0  0  0  0  0  0  0  0
    3.7400   13.3013   -1.6084 H   0  0  0  0  0  0  0  0  0  0  0  0
    2.7566   14.8044   -1.6084 H   0  0  0  0  0  0  0  0  0  0  0  0
    0.1253   14.5336   -2.4777 H   0  0  0  0  0  0  0  0  0  0  0  0
    1.7220   15.0002   -3.2943 H   0  0  0  0  0  0  0  0  0  0  0  0
   -0.4824   13.2462   -4.4118 H   0  0  0  0  0  0  0  0  0  0  0  0
    0.0668   14.8707   -4.9836 H   0  0  0  0  0  0  0  0  0  0  0  0
    2.9734   14.6028   -4.6333 H   0  0  0  0  0  0  0  0  0  0  0  0
    3.4140   13.7960   -6.1765 H   0  0  0  0  0  0  0  0  0  0  0  0
    2.2372   15.1531   -6.1765 H   0  0  0  0  0  0  0  0  0  0  0  0
  1  2  1  0
  2  3  1  0
  3  4  1  0
  4  5  1  0
  5  6  1  0
  6  7  1  0
  7  8  1  0
  7  9  1  0
  2 10  1  0
 10 11  1  0
 11 12  1  0
 12 13  1  0
 13 14  1  1
 13 15  1  0
 15 16  1  0
 16 17  1  0
 17 18  2  0
 18 19  1  0
 19 20  1  0
 20 21  1  0
 21 22  1  0
 22 23  1  0
 22 24  1  0
 24 25  1  0
 24 26  1  0
 19 27  1  0
 27 28  1  1
 27 29  1  0
 29 30  1  0
 30 31  1  0
 31 32  1  6
  7  5  1  0
 31 10  1  0
 31 13  1  0
 27 15  1  0
 24 18  1  0
  1 33  1  0
  1 34  1  0
  1 35  1  0
  2 36  1  6
  3 37  1  0
  3 38  1  0
  4 39  1  0
  4 40  1  0
  5 41  1  6
  8 42  1  0
  8 43  1  0
  8 44  1  0
  9 45  1  0
  9 46  1  0
  9 47  1  0
 10 48  1  1
 11 49  1  0
 11 50  1  0
 12 51  1  0
 12 52  1  0
 14 53  1  0
 14 54  1  0
 14 55  1  0
 15 56  1  6
 16 57  1  0
 16 58  1  0
 17 59  1  0
 19 60  1  6
 20 61  1  0
 20 62  1  0
 21 63  1  0
 21 64  1  0
 22 65  1  1
 23 66  1  0
 25 67  1  0
 25 68  1  0
 25 69  1  0
 26 70  1  0
 26 71  1  0
 26 72  1  0
 28 73  1  0
 28 74  1  0
 28 75  1  0
 29 76  1  0
 29 77  1  0
 30 78  1  0
 30 79  1  0
 32 80  1  0
 32 81  1  0
 32 82  1  0
M  END
>  <meeko>  (7) 
{"is_sidechain": [false], "intermolecular_energy": 2.731, "internal_energy": -0.839}

$$$$
EPH_relaxed_0001_pdb2pqr_Repair_131_r2_0001_out
     RDKit          3D

 82 86  0  0  0  0  0  0  0  0999 V2000
    1.9380   17.3170   -0.3560 C   0  0  0  0  0  0  0  0  0  0  0  0
    1.8810   17.2190   -1.8830 C   0  0  2  0  0  0  0  0  0  0  0  0
    1.1270   18.4070   -2.5140 C   0  0  0  0  0  0  0  0  0  0  0  0
   -0.3970   18.2730   -2.4500 C   0  0  0  0  0  0  0  0  0  0  0  0
   -1.0180   19.3850   -1.6590 C   0  0  2  0  0  0  0  0  0  0  0  0
   -0.2830   19.7730   -0.4910 O   0  0  0  0  0  0  0  0  0  0  0  0
   -1.5820   19.2040   -0.2620 C   0  0  0  0  0  0  0  0  0  0  0  0
   -1.5520   17.8750    0.4260 C   0  0  0  0  0  0  0  0  0  0  0  0
   -2.5930   20.1900    0.2350 C   0  0  0  0  0  0  0  0  0  0  0  0
    1.2230   15.9070   -2.2960 C   0  0  1  0  0  0  0  0  0  0  0  0
    1.1660   15.7260   -3.8360 C   0  0  0  0  0  0  0  0  0  0  0  0
    1.3530   14.2130   -4.1150 C   0  0  0  0  0  0  0  0  0  0  0  0
    1.1790   13.5370   -2.7350 C   0  0  1  0  0  0  0  0  0  0  0  0
   -0.3650   13.4370   -2.5290 C   0  0  0  0  0  0  0  0  0  0  0  0
    1.8760   12.1500   -2.5520 C   0  0  2  0  0  0  0  0  0  0  0  0
    1.3680   11.0360   -3.4840 C   0  0  0  0  0  0  0  0  0  0  0  0
    0.2370   10.2220   -2.9490 C   0  0  0  0  0  0  0  0  0  0  0  0
   -0.1620   10.1880   -1.6630 C   0  0  0  0  0  0  0  0  0  0  0  0
    0.6120   10.9470   -0.5780 C   0  0  1  0  0  0  0  0  0  0  0  0
    0.8270   10.0220    0.6480 C   0  0  0  0  0  0  0  0  0  0  0  0
   -0.4780    9.4280    1.1690 C   0  0  0  0  0  0  0  0  0  0  0  0
   -1.1890    8.6320    0.0780 C   0  0  2  0  0  0  0  0  0  0  0  0
   -0.4010    7.4810   -0.2400 O   0  0  0  0  0  0  0  0  0  0  0  0
   -1.4510    9.4590   -1.2120 C   0  0  0  0  0  0  0  0  0  0  0  0
   -2.5400   10.5250   -0.9340 C   0  0  0  0  0  0  0  0  0  0  0  0
   -2.0440    8.5020   -2.2810 C   0  0  0  0  0  0  0  0  0  0  0  0
    1.9540   11.6560   -1.0510 C   0  0  1  0  0  0  0  0  0  0  0  0
    3.1430   10.6500   -0.9730 C   0  0  0  0  0  0  0  0  0  0  0  0
    2.2960   12.8250   -0.0530 C   0  0  0  0  0  0  0  0  0  0  0  0
    1.6720   14.2010   -0.3550 C   0  0  0  0  0  0  0  0  0  0  0  0
    1.8940   14.5950   -1.8190 C   0  0  2  0  0  0  0  0  0  0  0  0
    3.4380   14.7250   -2.0500 C   0  0  0  0  0  0  0  0  0  0  0  0
    1.4317   16.4464    0.0864 H   0  0  0  0  0  0  0  0  0  0  0  0
    2.9880   17.3359   -0.0287 H   0  0  0  0  0  0  0  0  0  0  0  0
    1.4353   18.2390   -0.0287 H   0  0  0  0  0  0  0  0  0  0  0  0
    2.9159   17.2496   -2.2546 H   0  0  0  0  0  0  0  0  0  0  0  0
    1.4175   19.3248   -1.9818 H   0  0  0  0  0  0  0  0  0  0  0  0
    1.4028   18.4338   -3.5785 H   0  0  0  0  0  0  0  0  0  0  0  0
   -0.8002   18.2949   -3.4732 H   0  0  0  0  0  0  0  0  0  0  0  0
   -0.6373   17.3220   -1.9522 H   0  0  0  0  0  0  0  0  0  0  0  0
   -1.4379   19.8314   -2.5725 H   0  0  0  0  0  0  0  0  0  0  0  0
   -1.5554   18.0260    1.5156 H   0  0  0  0  0  0  0  0  0  0  0  0
   -2.4372   17.2909    0.1340 H   0  0  0  0  0  0  0  0  0  0  0  0
   -0.6414   17.3314    0.1340 H   0  0  0  0  0  0  0  0  0  0  0  0
   -2.5941   20.1911    1.3350 H   0  0  0  0  0  0  0  0  0  0  0  0
   -2.3368   21.1947   -0.1324 H   0  0  0  0  0  0  0  0  0  0  0  0
   -3.5909   19.9087   -0.1324 H   0  0  0  0  0  0  0  0  0  0  0  0
    0.2450   16.0289   -1.8074 H   0  0  0  0  0  0  0  0  0  0  0  0
    0.1932   16.0650   -4.2216 H   0  0  0  0  0  0  0  0  0  0  0  0
    1.9479   16.3191   -4.3328 H   0  0  0  0  0  0  0  0  0  0  0  0
    0.5925   13.8518   -4.8229 H   0  0  0  0  0  0  0  0  0  0  0  0
    2.3302   13.9902   -4.5682 H   0  0  0  0  0  0  0  0  0  0  0  0
   -0.5911   13.4224   -1.4526 H   0  0  0  0  0  0  0  0  0  0  0  0
   -0.8540   14.3054   -2.9946 H   0  0  0  0  0  0  0  0  0  0  0  0
   -0.7379   12.5128   -2.9946 H   0  0  0  0  0  0  0  0  0  0  0  0
    2.9069   12.3611   -2.8725 H   0  0  0  0  0  0  0  0  0  0  0  0
    1.0358   11.5036   -4.4226 H   0  0  0  0  0  0  0  0  0  0  0  0
    2.2097   10.3395   -3.6119 H   0  0  0  0  0  0  0  0  0  0  0  0
   -0.3172    9.5974   -3.6651 H   0  0  0  0  0  0  0  0  0  0  0  0
   -0.0207   11.8010   -0.2943 H   0  0  0  0  0  0  0  0  0  0  0  0
    1.4969    9.1998    0.3561 H   0  0  0  0  0  0  0  0  0  0  0  0
    1.2615   10.6316    1.4540 H   0  0  0  0  0  0  0  0  0  0  0  0
   -0.2573    8.7610    2.0154 H   0  0  0  0  0  0  0  0  0  0  0  0
   -1.1351   10.2503    1.4884 H   0  0  0  0  0  0  0  0  0  0  0  0
   -2.1751    8.3425    0.4701 H   0  0  0  0  0  0  0  0  0  0  0  0
    0.0770    7.2200    0.5650 H   0  0  0  0  0  0  0  0  0  0  0  0
   -2.6648   10.6471    0.1521 H   0  0  0  0  0  0  0  0  0  0  0  0
   -2.2360   11.4843   -1.3783 H   0  0  0  0  0  0  0  0  0  0  0  0
   -3.4925   10.2006   -1.3783 H   0  0  0  0  0  0  0  0  0  0  0  0
   -2.5602    7.6690   -1.7814 H   0  0  0  0  0  0  0  0  0  0  0  0
   -2.7594    9.0526   -2.9095 H   0  0  0  0  0  0  0  0  0  0  0  0
   -1.2325    8.1064   -2.9095 H   0  0  0  0  0  0  0  0  0  0  0  0
    3.3830   10.4470    0.0811 H   0  0  0  0  0  0  0  0  0  0  0  0
    2.8622    9.7111   -1.4726 H   0  0  0  0  0  0  0  0  0  0  0  0
    4.0225   11.0824   -1.4726 H   0  0  0  0  0  0  0  0  0  0  0  0
    1.9571   12.5183    0.9475 H   0  0  0  0  0  0  0  0  0  0  0  0
    3.3818   12.9746   -0.1461 H   0  0  0  0  0  0  0  0  0  0  0  0
    0.5914   14.1579   -0.1539 H   0  0  0  0  0  0  0  0  0  0  0  0
    2.1537   14.9529    0.2873 H   0  0  0  0  0  0  0  0  0  0  0  0
    3.9518   14.7683   -1.0783 H   0  0  0  0  0  0  0  0  0  0  0  0
    3.7985   13.8540   -2.6169 H   0  0  0  0  0  0  0  0  0  0  0  0
    3.6478   15.6440   -2.6169 H   0  0  0  0  0  0  0  0  0  0  0  0
  1  2  1  0
  2  3  1  0
  3  4  1  0
  4  5  1  0
  5  6  1  0
  6  7  1  0
  7  8  1  0
  7  9  1  0
  2 10  1  0
 10 11  1  0
 11 12  1  0
 12 13  1  0
 13 14  1  1
 13 15  1  0
 15 16  1  0
 16 17  1  0
 17 18  2  0
 18 19  1  0
 19 20  1  0
 20 21  1  0
 21 22  1  0
 22 23  1  0
 22 24  1  0
 24 25  1  0
 24 26  1  0
 19 27  1  0
 27 28  1  6
 27 29  1  0
 29 30  1  0
 30 31  1  0
 31 32  1  6
  7  5  1  0
 31 10  1  0
 31 13  1  0
 27 15  1  0
 24 18  1  0
  1 33  1  0
  1 34  1  0
  1 35  1  0
  2 36  1  6
  3 37  1  0
  3 38  1  0
  4 39  1  0
  4 40  1  0
  5 41  1  6
  8 42  1  0
  8 43  1  0
  8 44  1  0
  9 45  1  0
  9 46  1  0
  9 47  1  0
 10 48  1  1
 11 49  1  0
 11 50  1  0
 12 51  1  0
 12 52  1  0
 14 53  1  0
 14 54  1  0
 14 55  1  0
 15 56  1  6
 16 57  1  0
 16 58  1  0
 17 59  1  0
 19 60  1  1
 20 61  1  0
 20 62  1  0
 21 63  1  0
 21 64  1  0
 22 65  1  1
 23 66  1  0
 25 67  1  0
 25 68  1  0
 25 69  1  0
 26 70  1  0
 26 71  1  0
 26 72  1  0
 28 73  1  0
 28 74  1  0
 28 75  1  0
 29 76  1  0
 29 77  1  0
 30 78  1  0
 30 79  1  0
 32 80  1  0
 32 81  1  0
 32 82  1  0
M  END
>  <meeko>  (8) 
{"is_sidechain": [false], "intermolecular_energy": 2.731, "internal_energy": -0.839}

$$$$
EPH_relaxed_0001_pdb2pqr_Repair_131_r2_0001_out
     RDKit          3D

 82 86  0  0  0  0  0  0  0  0999 V2000
   -2.8920    7.7820   -0.4680 C   0  0  0  0  0  0  0  0  0  0  0  0
   -3.2660    9.2360   -0.1690 C   0  0  2  0  0  0  0  0  0  0  0  0
   -4.7790    9.4900   -0.3230 C   0  0  0  0  0  0  0  0  0  0  0  0
   -5.3430    9.0500   -1.6760 C   0  0  0  0  0  0  0  0  0  0  0  0
   -6.5140    8.1280   -1.5150 C   0  0  2  0  0  0  0  0  0  0  0  0
   -6.1990    6.8570   -0.9300 O   0  0  0  0  0  0  0  0  0  0  0  0
   -6.6690    6.8310   -2.2870 C   0  0  0  0  0  0  0  0  0  0  0  0
   -5.6410    6.3850   -3.2790 C   0  0  0  0  0  0  0  0  0  0  0  0
   -8.0400    6.2490   -2.4390 C   0  0  0  0  0  0  0  0  0  0  0  0
   -2.4850   10.1720   -1.0850 C   0  0  1  0  0  0  0  0  0  0  0  0
   -3.0710   11.6090   -1.1100 C   0  0  0  0  0  0  0  0  0  0  0  0
   -1.8710   12.5790   -1.2560 C   0  0  0  0  0  0  0  0  0  0  0  0
   -0.6800   11.6710   -1.6400 C   0  0  1  0  0  0  0  0  0  0  0  0
   -0.8350   11.4330   -3.1750 C   0  0  0  0  0  0  0  0  0  0  0  0
    0.7440   12.2090   -1.2810 C   0  0  2  0  0  0  0  0  0  0  0  0
    1.1430   13.5190   -1.9830 C   0  0  0  0  0  0  0  0  0  0  0  0
    1.8420   13.3540   -3.2910 C   0  0  0  0  0  0  0  0  0  0  0  0
    2.3920   12.2130   -3.7460 C   0  0  0  0  0  0  0  0  0  0  0  0
    2.4260   10.9520   -2.8720 C   0  0  1  0  0  0  0  0  0  0  0  0
    3.8430   10.3230   -2.9270 C   0  0  0  0  0  0  0  0  0  0  0  0
    4.3100   10.0560   -4.3550 C   0  0  0  0  0  0  0  0  0  0  0  0
    4.3180   11.3430   -5.1750 C   0  0  2  0  0  0  0  0  0  0  0  0
    5.3220   12.2170   -4.6520 O   0  0  0  0  0  0  0  0  0  0  0  0
    2.9450   12.0710   -5.1860 C   0  0  0  0  0  0  0  0  0  0  0  0
    1.9270   11.2530   -6.0190 C   0  0  0  0  0  0  0  0  0  0  0  0
    3.1270   13.4230   -5.9280 C   0  0  0  0  0  0  0  0  0  0  0  0
    1.8920   11.1250   -1.3850 C   0  0  1  0  0  0  0  0  0  0  0  0
    3.0480   11.6090   -0.4570 C   0  0  0  0  0  0  0  0  0  0  0  0
    1.4400    9.7200   -0.8350 C   0  0  0  0  0  0  0  0  0  0  0  0
   -0.0140    9.2970   -1.1200 C   0  0  0  0  0  0  0  0  0  0  0  0
   -0.9930   10.4150   -0.7480 C   0  0  2  0  0  0  0  0  0  0  0  0
   -0.8740   10.6600    0.7950 C   0  0  0  0  0  0  0  0  0  0  0  0
   -2.7520    7.2376    0.4775 H   0  0  0  0  0  0  0  0  0  0  0  0
   -3.6975    7.3081   -1.0482 H   0  0  0  0  0  0  0  0  0  0  0  0
   -1.9578    7.7556   -1.0482 H   0  0  0  0  0  0  0  0  0  0  0  0
   -3.0028    9.4365    0.8801 H   0  0  0  0  0  0  0  0  0  0  0  0
   -5.3061    8.9377    0.4690 H   0  0  0  0  0  0  0  0  0  0  0  0
   -4.9312   10.5770   -0.2499 H   0  0  0  0  0  0  0  0  0  0  0  0
   -5.6650    9.9411   -2.2348 H   0  0  0  0  0  0  0  0  0  0  0  0
   -4.5528    8.5094   -2.2176 H   0  0  0  0  0  0  0  0  0  0  0  0
   -7.1931    8.9789   -1.3576 H   0  0  0  0  0  0  0  0  0  0  0  0
   -4.7585    6.0021   -2.7455 H   0  0  0  0  0  0  0  0  0  0  0  0
   -6.0619    5.5886   -3.9103 H   0  0  0  0  0  0  0  0  0  0  0  0
   -5.3470    7.2365   -3.9103 H   0  0  0  0  0  0  0  0  0  0  0  0
   -8.4727    6.0653   -1.4445 H   0  0  0  0  0  0  0  0  0  0  0  0
   -8.6783    6.9538   -2.9921 H   0  0  0  0  0  0  0  0  0  0  0  0
   -7.9764    5.3003   -2.9921 H   0  0  0  0  0  0  0  0  0  0  0  0
   -2.5719    9.6186   -2.0317 H   0  0  0  0  0  0  0  0  0  0  0  0
   -3.7566   11.7237   -1.9625 H   0  0  0  0  0  0  0  0  0  0  0  0
   -3.6396   11.8196   -0.1922 H   0  0  0  0  0  0  0  0  0  0  0  0
   -2.0646   13.3201   -2.0454 H   0  0  0  0  0  0  0  0  0  0  0  0
   -1.6809   13.1490   -0.3346 H   0  0  0  0  0  0  0  0  0  0  0  0
   -1.4279   10.5226   -3.3469 H   0  0  0  0  0  0  0  0  0  0  0  0
   -1.3458   12.2945   -3.6299 H   0  0  0  0  0  0  0  0  0  0  0  0
    0.1595   11.3142   -3.6299 H   0  0  0  0  0  0  0  0  0  0  0  0
    0.6386   12.4611   -0.2155 H   0  0  0  0  0  0  0  0  0  0  0  0
    0.2276   14.1032   -2.1582 H   0  0  0  0  0  0  0  0  0  0  0  0
    1.8616   14.0158   -1.3145 H   0  0  0  0  0  0  0  0  0  0  0  0
    1.9139   14.2404   -3.9384 H   0  0  0  0  0  0  0  0  0  0  0  0
    1.6924   10.2584   -3.3087 H   0  0  0  0  0  0  0  0  0  0  0  0
    4.5534   11.0119   -2.4467 H   0  0  0  0  0  0  0  0  0  0  0  0
    3.7996    9.3564   -2.4038 H   0  0  0  0  0  0  0  0  0  0  0  0
    5.3276    9.6391   -4.3291 H   0  0  0  0  0  0  0  0  0  0  0  0
    3.6151    9.3443   -4.8247 H   0  0  0  0  0  0  0  0  0  0  0  0
    4.5353   11.0681   -6.2177 H   0  0  0  0  0  0  0  0  0  0  0  0
    5.2050   12.2570   -3.6880 H   0  0  0  0  0  0  0  0  0  0  0  0
    1.2513   10.7100   -5.3418 H   0  0  0  0  0  0  0  0  0  0  0  0
    1.3408   11.9342   -6.6534 H   0  0  0  0  0  0  0  0  0  0  0  0
    2.4660   10.5339   -6.6534 H   0  0  0  0  0  0  0  0  0  0  0  0
    3.2361   14.2333   -5.1921 H   0  0  0  0  0  0  0  0  0  0  0  0
    4.0270   13.3769   -6.5587 H   0  0  0  0  0  0  0  0  0  0  0  0
    2.2468   13.6165   -6.5587 H   0  0  0  0  0  0  0  0  0  0  0  0
    2.7505   11.4845    0.5947 H   0  0  0  0  0  0  0  0  0  0  0  0
    3.9513   11.0135   -0.6555 H   0  0  0  0  0  0  0  0  0  0  0  0
    3.2576   12.6704   -0.6555 H   0  0  0  0  0  0  0  0  0  0  0  0
    2.1005    8.9607   -1.2790 H   0  0  0  0  0  0  0  0  0  0  0  0
    1.5056    9.8049    0.2598 H   0  0  0  0  0  0  0  0  0  0  0  0
   -0.1189    9.0683   -2.1908 H   0  0  0  0  0  0  0  0  0  0  0  0
   -0.2469    8.4101   -0.5123 H   0  0  0  0  0  0  0  0  0  0  0  0
   -1.2924    9.7987    1.3364 H   0  0  0  0  0  0  0  0  0  0  0  0
    0.1848   10.7843    1.0659 H   0  0  0  0  0  0  0  0  0  0  0  0
   -1.4309   11.5691    1.0659 H   0  0  0  0  0  0  0  0  0  0  0  0
  1  2  1  0
  2  3  1  0
  3  4  1  0
  4  5  1  0
  5  6  1  0
  6  7  1  0
  7  8  1  0
  7  9  1  0
  2 10  1  0
 10 11  1  0
 11 12  1  0
 12 13  1  0
 13 14  1  6
 13 15  1  0
 15 16  1  0
 16 17  1  0
 17 18  2  0
 18 19  1  0
 19 20  1  0
 20 21  1  0
 21 22  1  0
 22 23  1  0
 22 24  1  0
 24 25  1  0
 24 26  1  0
 19 27  1  0
 27 28  1  1
 27 29  1  0
 29 30  1  0
 30 31  1  0
 31 32  1  1
  7  5  1  0
 31 10  1  0
 31 13  1  0
 27 15  1  0
 24 18  1  0
  1 33  1  0
  1 34  1  0
  1 35  1  0
  2 36  1  1
  3 37  1  0
  3 38  1  0
  4 39  1  0
  4 40  1  0
  5 41  1  1
  8 42  1  0
  8 43  1  0
  8 44  1  0
  9 45  1  0
  9 46  1  0
  9 47  1  0
 10 48  1  6
 11 49  1  0
 11 50  1  0
 12 51  1  0
 12 52  1  0
 14 53  1  0
 14 54  1  0
 14 55  1  0
 15 56  1  1
 16 57  1  0
 16 58  1  0
 17 59  1  0
 19 60  1  6
 20 61  1  0
 20 62  1  0
 21 63  1  0
 21 64  1  0
 22 65  1  6
 23 66  1  0
 25 67  1  0
 25 68  1  0
 25 69  1  0
 26 70  1  0
 26 71  1  0
 26 72  1  0
 28 73  1  0
 28 74  1  0
 28 75  1  0
 29 76  1  0
 29 77  1  0
 30 78  1  0
 30 79  1  0
 32 80  1  0
 32 81  1  0
 32 82  1  0
M  END
>  <meeko>  (9) 
{"is_sidechain": [false], "intermolecular_energy": 2.731, "internal_energy": -0.839}

$$$$
EPH_relaxed_0001_pdb2pqr_Repair_131_r2_0001_out
     RDKit          3D

 82 86  0  0  0  0  0  0  0  0999 V2000
    2.6250   15.9640   -8.2440 C   0  0  0  0  0  0  0  0  0  0  0  0
    2.4000   14.5400   -7.7260 C   0  0  2  0  0  0  0  0  0  0  0  0
    1.4580   13.7320   -8.6410 C   0  0  0  0  0  0  0  0  0  0  0  0
    0.3870   14.5840   -9.3280 C   0  0  0  0  0  0  0  0  0  0  0  0
    0.3070   14.2950  -10.7970 C   0  0  2  0  0  0  0  0  0  0  0  0
    1.2070   13.2780  -11.2560 O   0  0  0  0  0  0  0  0  0  0  0  0
    1.4290   14.6010  -11.7710 C   0  0  0  0  0  0  0  0  0  0  0  0
    2.7110   15.2250  -11.3150 C   0  0  0  0  0  0  0  0  0  0  0  0
    1.0960   14.7460  -13.2230 C   0  0  0  0  0  0  0  0  0  0  0  0
    1.8380   14.5860   -6.3100 C   0  0  1  0  0  0  0  0  0  0  0  0
    0.5150   15.3920   -6.2170 C   0  0  0  0  0  0  0  0  0  0  0  0
   -0.3600   14.6940   -5.1450 C   0  0  0  0  0  0  0  0  0  0  0  0
    0.6050   13.7220   -4.4260 C   0  0  1  0  0  0  0  0  0  0  0  0
    1.3760   14.6090   -3.4000 C   0  0  0  0  0  0  0  0  0  0  0  0
   -0.0500   12.4800   -3.7380 C   0  0  2  0  0  0  0  0  0  0  0  0
   -1.0310   12.8070   -2.5990 C   0  0  0  0  0  0  0  0  0  0  0  0
   -0.4230   12.8880   -1.2380 C   0  0  0  0  0  0  0  0  0  0  0  0
    0.7960   12.4300   -0.8970 C   0  0  0  0  0  0  0  0  0  0  0  0
    1.6610   11.6670   -1.9080 C   0  0  1  0  0  0  0  0  0  0  0  0
    2.2440   10.3960   -1.2360 C   0  0  0  0  0  0  0  0  0  0  0  0
    2.9940   10.7090    0.0550 C   0  0  0  0  0  0  0  0  0  0  0  0
    2.0840   11.4150    1.0570 C   0  0  2  0  0  0  0  0  0  0  0  0
    1.0640   10.5030    1.4750 O   0  0  0  0  0  0  0  0  0  0  0  0
    1.4310   12.7050    0.4880 C   0  0  0  0  0  0  0  0  0  0  0  0
    2.5100   13.8030    0.3170 C   0  0  0  0  0  0  0  0  0  0  0  0
    0.4310   13.2410    1.5470 C   0  0  0  0  0  0  0  0  0  0  0  0
    0.9790   11.3570   -3.3100 C   0  0  1  0  0  0  0  0  0  0  0  0
    0.1760   10.0240   -3.2290 C   0  0  0  0  0  0  0  0  0  0  0  0
    2.1030   11.1330   -4.3900 C   0  0  0  0  0  0  0  0  0  0  0  0
    2.6250   12.3850   -5.1200 C   0  0  0  0  0  0  0  0  0  0  0  0
    1.4660   13.2350   -5.6490 C   0  0  2  0  0  0  0  0  0  0  0  0
    0.6840   12.3770   -6.7010 C   0  0  0  0  0  0  0  0  0  0  0  0
    2.7336   16.6512   -7.3920 H   0  0  0  0  0  0  0  0  0  0  0  0
    3.5386   15.9915   -8.8560 H   0  0  0  0  0  0  0  0  0  0  0  0
    1.7644   16.2718   -8.8560 H   0  0  0  0  0  0  0  0  0  0  0  0
    3.3747   14.0301   -7.7231 H   0  0  0  0  0  0  0  0  0  0  0  0
    2.0638   13.2429   -9.4180 H   0  0  0  0  0  0  0  0  0  0  0  0
    0.9316   13.0081   -8.0016 H   0  0  0  0  0  0  0  0  0  0  0  0
   -0.5889   14.3685   -8.8686 H   0  0  0  0  0  0  0  0  0  0  0  0
    0.6572   15.6427   -9.2009 H   0  0  0  0  0  0  0  0  0  0  0  0
   -0.7669   14.5331  -10.8103 H   0  0  0  0  0  0  0  0  0  0  0  0
    2.7410   15.2396  -10.2155 H   0  0  0  0  0  0  0  0  0  0  0  0
    3.5601   14.6394  -11.6972 H   0  0  0  0  0  0  0  0  0  0  0  0
    2.7740   16.2545  -11.6972 H   0  0  0  0  0  0  0  0  0  0  0  0
    0.0920   15.1832  -13.3270 H   0  0  0  0  0  0  0  0  0  0  0  0
    1.8342   15.4042  -13.7045 H   0  0  0  0  0  0  0  0  0  0  0  0
    1.1171   13.7572  -13.7045 H   0  0  0  0  0  0  0  0  0  0  0  0
    2.6935   15.0384   -5.7870 H   0  0  0  0  0  0  0  0  0  0  0  0
    0.7240   16.4298   -5.9182 H   0  0  0  0  0  0  0  0  0  0  0  0
    0.0008   15.4202   -7.1890 H   0  0  0  0  0  0  0  0  0  0  0  0
   -0.7681   15.4305   -4.4371 H   0  0  0  0  0  0  0  0  0  0  0  0
   -1.2239   14.1745   -5.5853 H   0  0  0  0  0  0  0  0  0  0  0  0
    1.1098   14.3027   -2.3776 H   0  0  0  0  0  0  0  0  0  0  0  0
    2.4588   14.4856   -3.5495 H   0  0  0  0  0  0  0  0  0  0  0  0
    1.1031   15.6641   -3.5495 H   0  0  0  0  0  0  0  0  0  0  0  0
   -0.6627   12.0583   -4.5484 H   0  0  0  0  0  0  0  0  0  0  0  0
   -1.4983   13.7778   -2.8210 H   0  0  0  0  0  0  0  0  0  0  0  0
   -1.7461   11.9719   -2.5639 H   0  0  0  0  0  0  0  0  0  0  0  0
   -1.0220   13.3622   -0.4466 H   0  0  0  0  0  0  0  0  0  0  0  0
    2.4770   12.3502   -2.1861 H   0  0  0  0  0  0  0  0  0  0  0  0
    1.4172    9.7081   -1.0056 H   0  0  0  0  0  0  0  0  0  0  0  0
    2.9612    9.9459   -1.9382 H   0  0  0  0  0  0  0  0  0  0  0  0
    3.3565    9.7695    0.4976 H   0  0  0  0  0  0  0  0  0  0  0  0
    3.8381   11.3734   -0.1815 H   0  0  0  0  0  0  0  0  0  0  0  0
    2.7086   11.7286    1.9064 H   0  0  0  0  0  0  0  0  0  0  0  0
    1.2150   10.3030    2.4140 H   0  0  0  0  0  0  0  0  0  0  0  0
    2.8457   14.1446    1.3073 H   0  0  0  0  0  0  0  0  0  0  0  0
    3.3659   13.3926   -0.2389 H   0  0  0  0  0  0  0  0  0  0  0  0
    2.0847   14.6516   -0.2389 H   0  0  0  0  0  0  0  0  0  0  0  0
    0.8185   13.0333    2.5553 H   0  0  0  0  0  0  0  0  0  0  0  0
    0.3072   14.3264    1.4181 H   0  0  0  0  0  0  0  0  0  0  0  0
   -0.5414   12.7432    1.4181 H   0  0  0  0  0  0  0  0  0  0  0  0
    0.0149    9.7565   -2.1743 H   0  0  0  0  0  0  0  0  0  0  0  0
   -0.7962   10.1507   -3.7278 H   0  0  0  0  0  0  0  0  0  0  0  0
    0.7425    9.2238   -3.7278 H   0  0  0  0  0  0  0  0  0  0  0  0
    2.9591   10.6606   -3.8861 H   0  0  0  0  0  0  0  0  0  0  0  0
    1.6321   10.5195   -5.1722 H   0  0  0  0  0  0  0  0  0  0  0  0
    3.2222   12.9871   -4.4194 H   0  0  0  0  0  0  0  0  0  0  0  0
    3.2407   12.0624   -5.9726 H   0  0  0  0  0  0  0  0  0  0  0  0
    0.0319   11.6615   -6.1787 H   0  0  0  0  0  0  0  0  0  0  0  0
    0.0717   13.0385   -7.3315 H   0  0  0  0  0  0  0  0  0  0  0  0
    1.3993   11.8285   -7.3315 H   0  0  0  0  0  0  0  0  0  0  0  0
  1  2  1  0
  2  3  1  0
  3  4  1  0
  4  5  1  0
  5  6  1  0
  6  7  1  0
  7  8  1  0
  7  9  1  0
  2 10  1  0
 10 11  1  0
 11 12  1  0
 12 13  1  0
 13 14  1  1
 13 15  1  0
 15 16  1  0
 16 17  1  0
 17 18  2  0
 18 19  1  0
 19 20  1  0
 20 21  1  0
 21 22  1  0
 22 23  1  0
 22 24  1  0
 24 25  1  0
 24 26  1  0
 19 27  1  0
 27 28  1  1
 27 29  1  0
 29 30  1  0
 30 31  1  0
 31 32  1  6
  7  5  1  0
 31 10  1  0
 31 13  1  0
 27 15  1  0
 24 18  1  0
  1 33  1  0
  1 34  1  0
  1 35  1  0
  2 36  1  1
  3 37  1  0
  3 38  1  0
  4 39  1  0
  4 40  1  0
  5 41  1  6
  8 42  1  0
  8 43  1  0
  8 44  1  0
  9 45  1  0
  9 46  1  0
  9 47  1  0
 10 48  1  1
 11 49  1  0
 11 50  1  0
 12 51  1  0
 12 52  1  0
 14 53  1  0
 14 54  1  0
 14 55  1  0
 15 56  1  6
 16 57  1  0
 16 58  1  0
 17 59  1  0
 19 60  1  6
 20 61  1  0
 20 62  1  0
 21 63  1  0
 21 64  1  0
 22 65  1  1
 23 66  1  0
 25 67  1  0
 25 68  1  0
 25 69  1  0
 26 70  1  0
 26 71  1  0
 26 72  1  0
 28 73  1  0
 28 74  1  0
 28 75  1  0
 29 76  1  0
 29 77  1  0
 30 78  1  0
 30 79  1  0
 32 80  1  0
 32 81  1  0
 32 82  1  0
M  END
>  <meeko>  (10) 
{"is_sidechain": [false], "intermolecular_energy": 2.731, "internal_energy": -0.839}

$$$$
EPH_relaxed_0001_pdb2pqr_Repair_131_r2_0001_out
     RDKit          3D

 82 86  0  0  0  0  0  0  0  0999 V2000
   -1.0670    8.2980   -0.9830 C   0  0  0  0  0  0  0  0  0  0  0  0
   -1.4540    9.5520   -0.1940 C   0  0  2  0  0  0  0  0  0  0  0  0
   -2.9250    9.5170    0.2670 C   0  0  0  0  0  0  0  0  0  0  0  0
   -3.9300    9.4310   -0.8850 C   0  0  0  0  0  0  0  0  0  0  0  0
   -4.6560    8.1210   -0.8900 C   0  0  2  0  0  0  0  0  0  0  0  0
   -4.7010    7.4670   -2.1650 O   0  0  0  0  0  0  0  0  0  0  0  0
   -5.9630    7.8920   -1.6260 C   0  0  0  0  0  0  0  0  0  0  0  0
   -6.6210    8.9860   -2.4070 C   0  0  0  0  0  0  0  0  0  0  0  0
   -6.8430    6.7630   -1.1880 C   0  0  0  0  0  0  0  0  0  0  0  0
   -1.2030   10.7960   -1.0390 C   0  0  1  0  0  0  0  0  0  0  0  0
   -1.3500   12.1100   -0.2260 C   0  0  0  0  0  0  0  0  0  0  0  0
   -0.3040   13.1050   -0.7920 C   0  0  0  0  0  0  0  0  0  0  0  0
    0.1750   12.4580   -2.1130 C   0  0  1  0  0  0  0  0  0  0  0  0
   -0.9250   12.8230   -3.1590 C   0  0  0  0  0  0  0  0  0  0  0  0
    1.6000   12.8690   -2.6060 C   0  0  2  0  0  0  0  0  0  0  0  0
    1.7710   14.3620   -2.9380 C   0  0  0  0  0  0  0  0  0  0  0  0
    1.4800   14.7380   -4.3530 C   0  0  0  0  0  0  0  0  0  0  0  0
    1.3730   13.8800   -5.3840 C   0  0  0  0  0  0  0  0  0  0  0  0
    1.6490   12.3830   -5.1950 C   0  0  1  0  0  0  0  0  0  0  0  0
    2.5610   11.8750   -6.3420 C   0  0  0  0  0  0  0  0  0  0  0  0
    1.9970   12.1940   -7.7230 C   0  0  0  0  0  0  0  0  0  0  0  0
    1.7910   13.6970   -7.8940 C   0  0  2  0  0  0  0  0  0  0  0  0
    3.0700   14.3400   -7.8980 O   0  0  0  0  0  0  0  0  0  0  0  0
    0.8950   14.3230   -6.7890 C   0  0  0  0  0  0  0  0  0  0  0  0
   -0.5680   13.8500   -6.9760 C   0  0  0  0  0  0  0  0  0  0  0  0
    0.8840   15.8610   -6.9970 C   0  0  0  0  0  0  0  0  0  0  0  0
    2.1760   11.9510   -3.7590 C   0  0  1  0  0  0  0  0  0  0  0  0
    3.7290   12.0840   -3.7010 C   0  0  0  0  0  0  0  0  0  0  0  0
    1.8530   10.4270   -3.5290 C   0  0  0  0  0  0  0  0  0  0  0  0
    0.4740   10.0930   -2.9280 C   0  0  0  0  0  0  0  0  0  0  0  0
    0.1970   10.9450   -1.6860 C   0  0  2  0  0  0  0  0  0  0  0  0
    1.2740   10.5840   -0.6070 C   0  0  0  0  0  0  0  0  0  0  0  0
   -0.8168    7.4871   -0.2831 H   0  0  0  0  0  0  0  0  0  0  0  0
   -1.9113    7.9882   -1.6163 H   0  0  0  0  0  0  0  0  0  0  0  0
   -0.1949    8.5179   -1.6163 H   0  0  0  0  0  0  0  0  0  0  0  0
   -0.8256    9.5821    0.7083 H   0  0  0  0  0  0  0  0  0  0  0  0
   -3.0647    8.6397    0.9157 H   0  0  0  0  0  0  0  0  0  0  0  0
   -3.1194   10.4635    0.7927 H   0  0  0  0  0  0  0  0  0  0  0  0
   -4.6630   10.2444   -0.7801 H   0  0  0  0  0  0  0  0  0  0  0  0
   -3.3757    9.5195   -1.8310 H   0  0  0  0  0  0  0  0  0  0  0  0
   -4.3476    7.9188    0.1463 H   0  0  0  0  0  0  0  0  0  0  0  0
   -7.0612    9.7178   -1.7137 H   0  0  0  0  0  0  0  0  0  0  0  0
   -5.8731    9.4851   -3.0407 H   0  0  0  0  0  0  0  0  0  0  0  0
   -7.4124    8.5592   -3.0407 H   0  0  0  0  0  0  0  0  0  0  0  0
   -6.8720    6.7258   -0.0890 H   0  0  0  0  0  0  0  0  0  0  0  0
   -7.8602    6.9189   -1.5766 H   0  0  0  0  0  0  0  0  0  0  0  0
   -6.4434    5.8146   -1.5766 H   0  0  0  0  0  0  0  0  0  0  0  0
   -1.9639   10.6462   -1.8191 H   0  0  0  0  0  0  0  0  0  0  0  0
   -2.3645   12.5180   -0.3455 H   0  0  0  0  0  0  0  0  0  0  0  0
   -1.1854   11.9314    0.8469 H   0  0  0  0  0  0  0  0  0  0  0  0
   -0.7648   14.0852   -0.9844 H   0  0  0  0  0  0  0  0  0  0  0  0
    0.5243   13.2834   -0.0905 H   0  0  0  0  0  0  0  0  0  0  0  0
   -1.8428   13.1276   -2.6348 H   0  0  0  0  0  0  0  0  0  0  0  0
   -0.5707   13.6518   -3.7896 H   0  0  0  0  0  0  0  0  0  0  0  0
   -1.1365   11.9469   -3.7896 H   0  0  0  0  0  0  0  0  0  0  0  0
    2.2189   12.6890   -1.7146 H   0  0  0  0  0  0  0  0  0  0  0  0
    1.0931   14.9346   -2.2879 H   0  0  0  0  0  0  0  0  0  0  0  0
    2.8347   14.5900   -2.7752 H   0  0  0  0  0  0  0  0  0  0  0  0
    1.3413   15.8071   -4.5714 H   0  0  0  0  0  0  0  0  0  0  0  0
    0.6699   11.8845   -5.2488 H   0  0  0  0  0  0  0  0  0  0  0  0
    3.5476   12.3517   -6.2454 H   0  0  0  0  0  0  0  0  0  0  0  0
    2.6296   10.7807   -6.2541 H   0  0  0  0  0  0  0  0  0  0  0  0
    2.7000   11.8373   -8.4902 H   0  0  0  0  0  0  0  0  0  0  0  0
    1.0242   11.6918   -7.8297 H   0  0  0  0  0  0  0  0  0  0  0  0
    1.2654   13.8512   -8.8479 H   0  0  0  0  0  0  0  0  0  0  0  0
    3.7140   13.7120   -8.2660 H   0  0  0  0  0  0  0  0  0  0  0  0
   -1.0335   13.6995   -5.9908 H   0  0  0  0  0  0  0  0  0  0  0  0
   -1.1311   14.6119   -7.5350 H   0  0  0  0  0  0  0  0  0  0  0  0
   -0.5785   12.9027   -7.5350 H   0  0  0  0  0  0  0  0  0  0  0  0
    0.8804   16.3633   -6.0184 H   0  0  0  0  0  0  0  0  0  0  0  0
    1.7800   16.1613   -7.5600 H   0  0  0  0  0  0  0  0  0  0  0  0
   -0.0162   16.1484   -7.5600 H   0  0  0  0  0  0  0  0  0  0  0  0
    4.0556   12.1120   -2.6510 H   0  0  0  0  0  0  0  0  0  0  0  0
    4.1899   11.2220   -4.2056 H   0  0  0  0  0  0  0  0  0  0  0  0
    4.0367   13.0118   -4.2056 H   0  0  0  0  0  0  0  0  0  0  0  0
    1.9230    9.9211   -4.5033 H   0  0  0  0  0  0  0  0  0  0  0  0
    2.5837   10.0873   -2.7802 H   0  0  0  0  0  0  0  0  0  0  0  0
   -0.3038   10.2900   -3.6804 H   0  0  0  0  0  0  0  0  0  0  0  0
    0.4663    9.0327   -2.6351 H   0  0  0  0  0  0  0  0  0  0  0  0
    0.8488   10.7265    0.3974 H   0  0  0  0  0  0  0  0  0  0  0  0
    1.5792    9.5344   -0.7304 H   0  0  0  0  0  0  0  0  0  0  0  0
    2.1501   11.2376   -0.7304 H   0  0  0  0  0  0  0  0  0  0  0  0
  1  2  1  0
  2  3  1  0
  3  4  1  0
  4  5  1  0
  5  6  1  0
  6  7  1  0
  7  8  1  0
  7  9  1  0
  2 10  1  0
 10 11  1  0
 11 12  1  0
 12 13  1  0
 13 14  1  6
 13 15  1  0
 15 16  1  0
 16 17  1  0
 17 18  2  0
 18 19  1  0
 19 20  1  0
 20 21  1  0
 21 22  1  0
 22 23  1  0
 22 24  1  0
 24 25  1  0
 24 26  1  0
 19 27  1  0
 27 28  1  6
 27 29  1  0
 29 30  1  0
 30 31  1  0
 31 32  1  1
  7  5  1  0
 31 10  1  0
 31 13  1  0
 27 15  1  0
 24 18  1  0
  1 33  1  0
  1 34  1  0
  1 35  1  0
  2 36  1  1
  3 37  1  0
  3 38  1  0
  4 39  1  0
  4 40  1  0
  5 41  1  1
  8 42  1  0
  8 43  1  0
  8 44  1  0
  9 45  1  0
  9 46  1  0
  9 47  1  0
 10 48  1  6
 11 49  1  0
 11 50  1  0
 12 51  1  0
 12 52  1  0
 14 53  1  0
 14 54  1  0
 14 55  1  0
 15 56  1  1
 16 57  1  0
 16 58  1  0
 17 59  1  0
 19 60  1  6
 20 61  1  0
 20 62  1  0
 21 63  1  0
 21 64  1  0
 22 65  1  6
 23 66  1  0
 25 67  1  0
 25 68  1  0
 25 69  1  0
 26 70  1  0
 26 71  1  0
 26 72  1  0
 28 73  1  0
 28 74  1  0
 28 75  1  0
 29 76  1  0
 29 77  1  0
 30 78  1  0
 30 79  1  0
 32 80  1  0
 32 81  1  0
 32 82  1  0
M  END
>  <meeko>  (11) 
{"is_sidechain": [false], "intermolecular_energy": 2.731, "internal_energy": -0.839}

$$$$
EPH_relaxed_0001_pdb2pqr_Repair_131_r2_0001_out
     RDKit          3D

 82 86  0  0  0  0  0  0  0  0999 V2000
    1.2030   10.3110   -4.3200 C   0  0  0  0  0  0  0  0  0  0  0  0
    1.8360   11.5670   -4.9260 C   0  0  2  0  0  0  0  0  0  0  0  0
    3.3720   11.5640   -4.7960 C   0  0  0  0  0  0  0  0  0  0  0  0
    3.9160   10.4110   -3.9480 C   0  0  0  0  0  0  0  0  0  0  0  0
    5.2670   10.7280   -3.3830 C   0  0  2  0  0  0  0  0  0  0  0  0
    5.8150   11.9830   -3.8070 O   0  0  0  0  0  0  0  0  0  0  0  0
    6.5280   10.8070   -4.2230 C   0  0  0  0  0  0  0  0  0  0  0  0
    6.4980   10.5680   -5.7000 C   0  0  0  0  0  0  0  0  0  0  0  0
    7.8520   10.6340   -3.5450 C   0  0  0  0  0  0  0  0  0  0  0  0
    1.2590   12.8120   -4.2620 C   0  0  1  0  0  0  0  0  0  0  0  0
   -0.2900   12.7830   -4.1820 C   0  0  0  0  0  0  0  0  0  0  0  0
   -0.6830   13.4820   -2.8550 C   0  0  0  0  0  0  0  0  0  0  0  0
    0.6140   14.1780   -2.3820 C   0  0  1  0  0  0  0  0  0  0  0  0
    0.6830   15.5020   -3.2050 C   0  0  0  0  0  0  0  0  0  0  0  0
    0.7340   14.4460   -0.8460 C   0  0  2  0  0  0  0  0  0  0  0  0
   -0.3300   15.3940   -0.2650 C   0  0  0  0  0  0  0  0  0  0  0  0
    0.0390   16.8410   -0.2620 C   0  0  0  0  0  0  0  0  0  0  0  0
    1.2790   17.3320   -0.4410 C   0  0  0  0  0  0  0  0  0  0  0  0
    2.4860   16.3950   -0.5760 C   0  0  1  0  0  0  0  0  0  0  0  0
    3.6410   16.9050    0.3240 C   0  0  0  0  0  0  0  0  0  0  0  0
    4.0000   18.3620    0.0470 C   0  0  0  0  0  0  0  0  0  0  0  0
    2.7890   19.2690    0.2480 C   0  0  2  0  0  0  0  0  0  0  0  0
    2.4390   19.2690    1.6360 O   0  0  0  0  0  0  0  0  0  0  0  0
    1.5590   18.8470   -0.6020 C   0  0  0  0  0  0  0  0  0  0  0  0
    1.8370   19.1340   -2.0980 C   0  0  0  0  0  0  0  0  0  0  0  0
    0.3660   19.7560   -0.2000 C   0  0  0  0  0  0  0  0  0  0  0  0
    2.1890   14.8480   -0.3700 C   0  0  1  0  0  0  0  0  0  0  0  0
    2.2760   14.4870    1.1450 C   0  0  0  0  0  0  0  0  0  0  0  0
    3.3080   14.0080   -1.0920 C   0  0  0  0  0  0  0  0  0  0  0  0
    3.0750   13.6730   -2.5770 C   0  0  0  0  0  0  0  0  0  0  0  0
    1.6750   13.0930   -2.7960 C   0  0  2  0  0  0  0  0  0  0  0  0
    1.5830   11.7480   -1.9970 C   0  0  0  0  0  0  0  0  0  0  0  0
    1.2361   10.3768   -3.2225 H   0  0  0  0  0  0  0  0  0  0  0  0
    0.1571   10.2313   -4.6511 H   0  0  0  0  0  0  0  0  0  0  0  0
    1.7611    9.4228   -4.6511 H   0  0  0  0  0  0  0  0  0  0  0  0
    1.5961   11.5733   -5.9995 H   0  0  0  0  0  0  0  0  0  0  0  0
    3.8056   11.4883   -5.8041 H   0  0  0  0  0  0  0  0  0  0  0  0
    3.6532   12.4977   -4.2870 H   0  0  0  0  0  0  0  0  0  0  0  0
    3.2191   10.2185   -3.1190 H   0  0  0  0  0  0  0  0  0  0  0  0
    4.0136    9.5263   -4.5944 H   0  0  0  0  0  0  0  0  0  0  0  0
    5.0312   10.1864   -2.4551 H   0  0  0  0  0  0  0  0  0  0  0  0
    6.3632    9.4938   -5.8950 H   0  0  0  0  0  0  0  0  0  0  0  0
    5.6632   11.1291   -6.1454 H   0  0  0  0  0  0  0  0  0  0  0  0
    7.4455   10.9054   -6.1454 H   0  0  0  0  0  0  0  0  0  0  0  0
    7.7106   10.6525   -2.4543 H   0  0  0  0  0  0  0  0  0  0  0  0
    8.2926    9.6706   -3.8413 H   0  0  0  0  0  0  0  0  0  0  0  0
    8.5253   11.4518   -3.8413 H   0  0  0  0  0  0  0  0  0  0  0  0
    1.6742   13.5846   -4.9259 H   0  0  0  0  0  0  0  0  0  0  0  0
   -0.7235   13.3224   -5.0370 H   0  0  0  0  0  0  0  0  0  0  0  0
   -0.6675   11.7502   -4.2110 H   0  0  0  0  0  0  0  0  0  0  0  0
   -1.4798   14.2207   -3.0264 H   0  0  0  0  0  0  0  0  0  0  0  0
   -1.0719   12.7730   -2.1092 H   0  0  0  0  0  0  0  0  0  0  0  0
    0.7277   16.3593   -2.5173 H   0  0  0  0  0  0  0  0  0  0  0  0
    1.5819   15.4932   -3.8389 H   0  0  0  0  0  0  0  0  0  0  0  0
   -0.2119   15.5867   -3.8389 H   0  0  0  0  0  0  0  0  0  0  0  0
    0.5199   13.4566   -0.4155 H   0  0  0  0  0  0  0  0  0  0  0  0
   -1.2488   15.2787   -0.8588 H   0  0  0  0  0  0  0  0  0  0  0  0
   -0.4491   15.1079    0.7904 H   0  0  0  0  0  0  0  0  0  0  0  0
   -0.7714   17.5669   -0.0997 H   0  0  0  0  0  0  0  0  0  0  0  0
    2.7890   16.4400   -1.6325 H   0  0  0  0  0  0  0  0  0  0  0  0
    3.3354   16.8113    1.3765 H   0  0  0  0  0  0  0  0  0  0  0  0
    4.5295   16.2949    0.1041 H   0  0  0  0  0  0  0  0  0  0  0  0
    4.8006   18.6726    0.7344 H   0  0  0  0  0  0  0  0  0  0  0  0
    4.3349   18.4491   -0.9972 H   0  0  0  0  0  0  0  0  0  0  0  0
    3.0716   20.2768   -0.0905 H   0  0  0  0  0  0  0  0  0  0  0  0
    1.4890   19.0730    1.6990 H   0  0  0  0  0  0  0  0  0  0  0  0
    2.6000   19.9217   -2.1846 H   0  0  0  0  0  0  0  0  0  0  0  0
    2.1994   18.2172   -2.5861 H   0  0  0  0  0  0  0  0  0  0  0  0
    0.9091   19.4670   -2.5861 H   0  0  0  0  0  0  0  0  0  0  0  0
    0.2979   19.8079    0.8967 H   0  0  0  0  0  0  0  0  0  0  0  0
    0.5218   20.7664   -0.6059 H   0  0  0  0  0  0  0  0  0  0  0  0
   -0.5668   19.3376   -0.6059 H   0  0  0  0  0  0  0  0  0  0  0  0
    2.0605   15.3814    1.7480 H   0  0  0  0  0  0  0  0  0  0  0  0
    1.5413   13.7021    1.3777 H   0  0  0  0  0  0  0  0  0  0  0  0
    3.2876   14.1229    1.3777 H   0  0  0  0  0  0  0  0  0  0  0  0
    4.2475   14.5758   -1.0223 H   0  0  0  0  0  0  0  0  0  0  0  0
    3.3172   13.0367   -0.5757 H   0  0  0  0  0  0  0  0  0  0  0  0
    3.1814   14.5909   -3.1737 H   0  0  0  0  0  0  0  0  0  0  0  0
    3.8174   12.9230   -2.8875 H   0  0  0  0  0  0  0  0  0  0  0  0
    1.5976   11.9608   -0.9179 H   0  0  0  0  0  0  0  0  0  0  0  0
    0.6474   11.2308   -2.2561 H   0  0  0  0  0  0  0  0  0  0  0  0
    2.4395   11.1082   -2.2561 H   0  0  0  0  0  0  0  0  0  0  0  0
  1  2  1  0
  2  3  1  0
  3  4  1  0
  4  5  1  0
  5  6  1  0
  6  7  1  0
  7  8  1  0
  7  9  1  0
  2 10  1  0
 10 11  1  0
 11 12  1  0
 12 13  1  0
 13 14  1  6
 13 15  1  0
 15 16  1  0
 16 17  1  0
 17 18  2  0
 18 19  1  0
 19 20  1  0
 20 21  1  0
 21 22  1  0
 22 23  1  0
 22 24  1  0
 24 25  1  0
 24 26  1  0
 19 27  1  0
 27 28  1  1
 27 29  1  0
 29 30  1  0
 30 31  1  0
 31 32  1  1
  7  5  1  0
 31 10  1  0
 31 13  1  0
 27 15  1  0
 24 18  1  0
  1 33  1  0
  1 34  1  0
  1 35  1  0
  2 36  1  6
  3 37  1  0
  3 38  1  0
  4 39  1  0
  4 40  1  0
  5 41  1  1
  8 42  1  0
  8 43  1  0
  8 44  1  0
  9 45  1  0
  9 46  1  0
  9 47  1  0
 10 48  1  6
 11 49  1  0
 11 50  1  0
 12 51  1  0
 12 52  1  0
 14 53  1  0
 14 54  1  0
 14 55  1  0
 15 56  1  1
 16 57  1  0
 16 58  1  0
 17 59  1  0
 19 60  1  6
 20 61  1  0
 20 62  1  0
 21 63  1  0
 21 64  1  0
 22 65  1  6
 23 66  1  0
 25 67  1  0
 25 68  1  0
 25 69  1  0
 26 70  1  0
 26 71  1  0
 26 72  1  0
 28 73  1  0
 28 74  1  0
 28 75  1  0
 29 76  1  0
 29 77  1  0
 30 78  1  0
 30 79  1  0
 32 80  1  0
 32 81  1  0
 32 82  1  0
M  END
>  <meeko>  (12) 
{"is_sidechain": [false], "intermolecular_energy": 2.731, "internal_energy": -0.839}

$$$$
EPH_relaxed_0001_pdb2pqr_Repair_131_r2_0001_out
     RDKit          3D

 82 86  0  0  0  0  0  0  0  0999 V2000
    0.8090   10.4270   -8.0990 C   0  0  0  0  0  0  0  0  0  0  0  0
    1.1090   11.7630   -7.4150 C   0  0  2  0  0  0  0  0  0  0  0  0
    2.1360   12.6010   -8.2040 C   0  0  0  0  0  0  0  0  0  0  0  0
    1.5260   13.3840   -9.3700 C   0  0  0  0  0  0  0  0  0  0  0  0
    2.1310   14.7490   -9.4970 C   0  0  2  0  0  0  0  0  0  0  0  0
    2.4400   15.3860   -8.2510 O   0  0  0  0  0  0  0  0  0  0  0  0
    1.4300   16.0190   -9.0530 C   0  0  0  0  0  0  0  0  0  0  0  0
    0.0620   15.9840   -8.4480 C   0  0  0  0  0  0  0  0  0  0  0  0
    1.8630   17.3220   -9.6500 C   0  0  0  0  0  0  0  0  0  0  0  0
    1.6140   11.5200   -5.9980 C   0  0  1  0  0  0  0  0  0  0  0  0
    3.1570   11.3740   -5.9300 C   0  0  0  0  0  0  0  0  0  0  0  0
    3.6070   12.0040   -4.5870 C   0  0  0  0  0  0  0  0  0  0  0  0
    2.2980   12.1890   -3.7840 C   0  0  1  0  0  0  0  0  0  0  0  0
    2.0020   10.7850   -3.1710 C   0  0  0  0  0  0  0  0  0  0  0  0
    2.3100   13.3060   -2.6900 C   0  0  2  0  0  0  0  0  0  0  0  0
    3.3190   13.0900   -1.5490 C   0  0  0  0  0  0  0  0  0  0  0  0
    2.7990   12.3340   -0.3720 C   0  0  0  0  0  0  0  0  0  0  0  0
    1.5010   12.0940   -0.1080 C   0  0  0  0  0  0  0  0  0  0  0  0
    0.3950   12.6880   -0.9900 C   0  0  1  0  0  0  0  0  0  0  0  0
   -0.7090   13.3050   -0.0910 C   0  0  0  0  0  0  0  0  0  0  0  0
   -1.2500   12.3130    0.9340 C   0  0  0  0  0  0  0  0  0  0  0  0
   -0.1300   11.7890    1.8300 C   0  0  2  0  0  0  0  0  0  0  0  0
    0.3600   12.8680    2.6320 O   0  0  0  0  0  0  0  0  0  0  0  0
    1.0440   11.1540    1.0340 C   0  0  0  0  0  0  0  0  0  0  0  0
    0.5830    9.8150    0.4060 C   0  0  0  0  0  0  0  0  0  0  0  0
    2.1660   10.7950    2.0450 C   0  0  0  0  0  0  0  0  0  0  0  0
    0.8780   13.6820   -2.1320 C   0  0  1  0  0  0  0  0  0  0  0  0
    0.9870   15.1310   -1.5660 C   0  0  0  0  0  0  0  0  0  0  0  0
   -0.2120   13.7300   -3.2670 C   0  0  0  0  0  0  0  0  0  0  0  0
   -0.1000   12.6750   -4.3830 C   0  0  0  0  0  0  0  0  0  0  0  0
    1.3250   12.6170   -4.9420 C   0  0  2  0  0  0  0  0  0  0  0  0
    1.6430   14.0090   -5.5860 C   0  0  0  0  0  0  0  0  0  0  0  0
    0.6356    9.6548   -7.3351 H   0  0  0  0  0  0  0  0  0  0  0  0
   -0.0884   10.5298   -8.7267 H   0  0  0  0  0  0  0  0  0  0  0  0
    1.6642   10.1363   -8.7267 H   0  0  0  0  0  0  0  0  0  0  0  0
    0.1705   12.3359   -7.3817 H   0  0  0  0  0  0  0  0  0  0  0  0
    2.6048   13.3167   -7.5126 H   0  0  0  0  0  0  0  0  0  0  0  0
    2.8625   11.8964   -8.6351 H   0  0  0  0  0  0  0  0  0  0  0  0
    1.7009   12.8282  -10.3030 H   0  0  0  0  0  0  0  0  0  0  0  0
    0.4494   13.5024   -9.1779 H   0  0  0  0  0  0  0  0  0  0  0  0
    2.6228   14.4686  -10.4401 H   0  0  0  0  0  0  0  0  0  0  0  0
    0.1460   15.9861   -7.3512 H   0  0  0  0  0  0  0  0  0  0  0  0
   -0.5058   16.8679   -8.7740 H   0  0  0  0  0  0  0  0  0  0  0  0
   -0.4599   15.0722   -8.7740 H   0  0  0  0  0  0  0  0  0  0  0  0
    2.0994   18.0335   -8.8451 H   0  0  0  0  0  0  0  0  0  0  0  0
    2.7562   17.1617  -10.2717 H   0  0  0  0  0  0  0  0  0  0  0  0
    1.0515   17.7281  -10.2717 H   0  0  0  0  0  0  0  0  0  0  0  0
    1.0508   10.6066   -5.7561 H   0  0  0  0  0  0  0  0  0  0  0  0
    3.4388   10.3112   -5.9631 H   0  0  0  0  0  0  0  0  0  0  0  0
    3.6391   11.8749   -6.7824 H   0  0  0  0  0  0  0  0  0  0  0  0
    4.2971   11.3325   -4.0551 H   0  0  0  0  0  0  0  0  0  0  0  0
    4.1453   12.9524   -4.7311 H   0  0  0  0  0  0  0  0  0  0  0  0
    2.0165   10.8537   -2.0732 H   0  0  0  0  0  0  0  0  0  0  0  0
    1.0116   10.4410   -3.5038 H   0  0  0  0  0  0  0  0  0  0  0  0
    2.7692   10.0704   -3.5038 H   0  0  0  0  0  0  0  0  0  0  0  0
    2.6740   14.1805   -3.2492 H   0  0  0  0  0  0  0  0  0  0  0  0
    4.1784   12.5367   -1.9556 H   0  0  0  0  0  0  0  0  0  0  0  0
    3.5763   14.0926   -1.1768 H   0  0  0  0  0  0  0  0  0  0  0  0
    3.5389   11.9396    0.3400 H   0  0  0  0  0  0  0  0  0  0  0  0
   -0.0192   11.8473   -1.5659 H   0  0  0  0  0  0  0  0  0  0  0  0
   -0.2870   14.1691    0.4430 H   0  0  0  0  0  0  0  0  0  0  0  0
   -1.5442   13.6009   -0.7429 H   0  0  0  0  0  0  0  0  0  0  0  0
   -2.0047   12.8149    1.5573 H   0  0  0  0  0  0  0  0  0  0  0  0
   -1.6975   11.4631    0.3979 H   0  0  0  0  0  0  0  0  0  0  0  0
   -0.5533   10.9892    2.4554 H   0  0  0  0  0  0  0  0  0  0  0  0
   -0.4030   13.2740    3.0770 H   0  0  0  0  0  0  0  0  0  0  0  0
    0.3370    9.1006    1.2054 H   0  0  0  0  0  0  0  0  0  0  0  0
   -0.3069    9.9892   -0.2167 H   0  0  0  0  0  0  0  0  0  0  0  0
    1.3915    9.4045   -0.2167 H   0  0  0  0  0  0  0  0  0  0  0  0
    1.7877   10.9160    3.0708 H   0  0  0  0  0  0  0  0  0  0  0  0
    2.4790    9.7519    1.8903 H   0  0  0  0  0  0  0  0  0  0  0  0
    3.0264   11.4627    1.8903 H   0  0  0  0  0  0  0  0  0  0  0  0
    0.9844   15.0963   -0.4665 H   0  0  0  0  0  0  0  0  0  0  0  0
    1.9224   15.5920   -1.9161 H   0  0  0  0  0  0  0  0  0  0  0  0
    0.1311   15.7268   -1.9161 H   0  0  0  0  0  0  0  0  0  0  0  0
   -1.1952   13.6060   -2.7895 H   0  0  0  0  0  0  0  0  0  0  0  0
   -0.0617   14.6970   -3.7693 H   0  0  0  0  0  0  0  0  0  0  0  0
   -0.3665   11.6892   -3.9742 H   0  0  0  0  0  0  0  0  0  0  0  0
   -0.7852   12.9522   -5.1976 H   0  0  0  0  0  0  0  0  0  0  0  0
    1.8124   14.7505   -4.7914 H   0  0  0  0  0  0  0  0  0  0  0  0
    2.5455   13.9270   -6.2094 H   0  0  0  0  0  0  0  0  0  0  0  0
    0.7944   14.3270   -6.2094 H   0  0  0  0  0  0  0  0  0  0  0  0
  1  2  1  0
  2  3  1  0
  3  4  1  0
  4  5  1  0
  5  6  1  0
  6  7  1  0
  7  8  1  0
  7  9  1  0
  2 10  1  0
 10 11  1  0
 11 12  1  0
 12 13  1  0
 13 14  1  1
 13 15  1  0
 15 16  1  0
 16 17  1  0
 17 18  2  0
 18 19  1  0
 19 20  1  0
 20 21  1  0
 21 22  1  0
 22 23  1  0
 22 24  1  0
 24 25  1  0
 24 26  1  0
 19 27  1  0
 27 28  1  1
 27 29  1  0
 29 30  1  0
 30 31  1  0
 31 32  1  6
  7  5  1  0
 31 10  1  0
 31 13  1  0
 27 15  1  0
 24 18  1  0
  1 33  1  0
  1 34  1  0
  1 35  1  0
  2 36  1  1
  3 37  1  0
  3 38  1  0
  4 39  1  0
  4 40  1  0
  5 41  1  6
  8 42  1  0
  8 43  1  0
  8 44  1  0
  9 45  1  0
  9 46  1  0
  9 47  1  0
 10 48  1  1
 11 49  1  0
 11 50  1  0
 12 51  1  0
 12 52  1  0
 14 53  1  0
 14 54  1  0
 14 55  1  0
 15 56  1  6
 16 57  1  0
 16 58  1  0
 17 59  1  0
 19 60  1  6
 20 61  1  0
 20 62  1  0
 21 63  1  0
 21 64  1  0
 22 65  1  1
 23 66  1  0
 25 67  1  0
 25 68  1  0
 25 69  1  0
 26 70  1  0
 26 71  1  0
 26 72  1  0
 28 73  1  0
 28 74  1  0
 28 75  1  0
 29 76  1  0
 29 77  1  0
 30 78  1  0
 30 79  1  0
 32 80  1  0
 32 81  1  0
 32 82  1  0
M  END
>  <meeko>  (13) 
{"is_sidechain": [false], "intermolecular_energy": 2.731, "internal_energy": -0.839}

$$$$
EPH_relaxed_0001_pdb2pqr_Repair_131_r2_0001_out
     RDKit          3D

 82 86  0  0  0  0  0  0  0  0999 V2000
   -4.7510    7.0050   -3.1510 C   0  0  0  0  0  0  0  0  0  0  0  0
   -4.5750    7.2090   -1.6430 C   0  0  2  0  0  0  0  0  0  0  0  0
   -5.9180    7.1470   -0.8880 C   0  0  0  0  0  0  0  0  0  0  0  0
   -6.8880    6.1010   -1.4440 C   0  0  0  0  0  0  0  0  0  0  0  0
   -8.1120    6.7370   -2.0300 C   0  0  2  0  0  0  0  0  0  0  0  0
   -8.2590    8.1330   -1.7400 O   0  0  0  0  0  0  0  0  0  0  0  0
   -9.2640    7.2630   -1.1950 C   0  0  0  0  0  0  0  0  0  0  0  0
   -9.2480    7.1760    0.2990 C   0  0  0  0  0  0  0  0  0  0  0  0
  -10.6060    7.4130   -1.8400 C   0  0  0  0  0  0  0  0  0  0  0  0
   -3.8880    8.5430   -1.3760 C   0  0  1  0  0  0  0  0  0  0  0  0
   -4.4860    9.2880   -0.1530 C   0  0  0  0  0  0  0  0  0  0  0  0
   -3.3120   10.0280    0.5380 C   0  0  0  0  0  0  0  0  0  0  0  0
   -2.1530    9.9600   -0.4840 C   0  0  1  0  0  0  0  0  0  0  0  0
   -2.4450   11.1090   -1.4990 C   0  0  0  0  0  0  0  0  0  0  0  0
   -0.7070   10.0620    0.1030 C   0  0  2  0  0  0  0  0  0  0  0  0
   -0.3840   11.3860    0.8170 C   0  0  0  0  0  0  0  0  0  0  0  0
    0.1950   12.4540   -0.0510 C   0  0  0  0  0  0  0  0  0  0  0  0
    0.7110   12.2680   -1.2800 C   0  0  0  0  0  0  0  0  0  0  0  0
    0.8350   10.8600   -1.8780 C   0  0  1  0  0  0  0  0  0  0  0  0
    2.2460   10.6830   -2.4980 C   0  0  0  0  0  0  0  0  0  0  0  0
    2.5840   11.7770   -3.5060 C   0  0  0  0  0  0  0  0  0  0  0  0
    2.5070   13.1570   -2.8590 C   0  0  2  0  0  0  0  0  0  0  0  0
    3.5470   13.2680   -1.8830 O   0  0  0  0  0  0  0  0  0  0  0  0
    1.1320   13.4460   -2.1930 C   0  0  0  0  0  0  0  0  0  0  0  0
    0.0510   13.6240   -3.2870 C   0  0  0  0  0  0  0  0  0  0  0  0
    1.2350   14.8090   -1.4580 C   0  0  0  0  0  0  0  0  0  0  0  0
    0.4360    9.6610   -0.9150 C   0  0  1  0  0  0  0  0  0  0  0  0
    1.6670    9.2350   -0.0580 C   0  0  0  0  0  0  0  0  0  0  0  0
    0.0480    8.4080   -1.7870 C   0  0  0  0  0  0  0  0  0  0  0  0
   -1.4220    8.3030   -2.2360 C   0  0  0  0  0  0  0  0  0  0  0  0
   -2.3730    8.5110   -1.0530 C   0  0  2  0  0  0  0  0  0  0  0  0
   -2.1180    7.3570   -0.0250 C   0  0  0  0  0  0  0  0  0  0  0  0
   -5.4600    6.1832   -3.3295 H   0  0  0  0  0  0  0  0  0  0  0  0
   -5.1397    7.9294   -3.6032 H   0  0  0  0  0  0  0  0  0  0  0  0
   -3.7796    6.7560   -3.6032 H   0  0  0  0  0  0  0  0  0  0  0  0
   -3.9479    6.3865   -1.2685 H   0  0  0  0  0  0  0  0  0  0  0  0
   -5.7135    6.9058    0.1656 H   0  0  0  0  0  0  0  0  0  0  0  0
   -6.4000    8.1285   -1.0075 H   0  0  0  0  0  0  0  0  0  0  0  0
   -6.3773    5.5218   -2.2274 H   0  0  0  0  0  0  0  0  0  0  0  0
   -7.2029    5.4501   -0.6150 H   0  0  0  0  0  0  0  0  0  0  0  0
   -8.0777    6.0588   -2.8954 H   0  0  0  0  0  0  0  0  0  0  0  0
   -9.4313    8.1729    0.7263 H   0  0  0  0  0  0  0  0  0  0  0  0
  -10.0338    6.4831    0.6344 H   0  0  0  0  0  0  0  0  0  0  0  0
   -8.2671    6.8080    0.6344 H   0  0  0  0  0  0  0  0  0  0  0  0
  -11.3790    7.4994   -1.0622 H   0  0  0  0  0  0  0  0  0  0  0  0
  -10.6129    8.3175   -2.4659 H   0  0  0  0  0  0  0  0  0  0  0  0
  -10.8125    6.5323   -2.4659 H   0  0  0  0  0  0  0  0  0  0  0  0
   -4.0553    9.0341   -2.3459 H   0  0  0  0  0  0  0  0  0  0  0  0
   -5.2465   10.0104   -0.4843 H   0  0  0  0  0  0  0  0  0  0  0  0
   -4.9715    8.5844    0.5393 H   0  0  0  0  0  0  0  0  0  0  0  0
   -3.5824   11.0730    0.7497 H   0  0  0  0  0  0  0  0  0  0  0  0
   -3.0438    9.5750    1.5038 H   0  0  0  0  0  0  0  0  0  0  0  0
   -2.6797   12.0327   -0.9497 H   0  0  0  0  0  0  0  0  0  0  0  0
   -1.5601   11.2733   -2.1314 H   0  0  0  0  0  0  0  0  0  0  0  0
   -3.3010   10.8309   -2.1314 H   0  0  0  0  0  0  0  0  0  0  0  0
   -0.7180    9.2933    0.8898 H   0  0  0  0  0  0  0  0  0  0  0  0
   -1.3162   11.7722    1.2550 H   0  0  0  0  0  0  0  0  0  0  0  0
    0.3883   11.1486    1.5635 H   0  0  0  0  0  0  0  0  0  0  0  0
    0.2003   13.4792    0.3476 H   0  0  0  0  0  0  0  0  0  0  0  0
    0.0709   10.7956   -2.6666 H   0  0  0  0  0  0  0  0  0  0  0  0
    2.9917   10.7059   -1.6896 H   0  0  0  0  0  0  0  0  0  0  0  0
    2.2574    9.7217   -3.0325 H   0  0  0  0  0  0  0  0  0  0  0  0
    3.6033   11.6139   -3.8861 H   0  0  0  0  0  0  0  0  0  0  0  0
    1.8553   11.7337   -4.3289 H   0  0  0  0  0  0  0  0  0  0  0  0
    2.6314   13.9027   -3.6580 H   0  0  0  0  0  0  0  0  0  0  0  0
    3.4580   12.5180   -1.2720 H   0  0  0  0  0  0  0  0  0  0  0  0
   -0.9281   13.7852   -2.8122 H   0  0  0  0  0  0  0  0  0  0  0  0
    0.3025   14.4928   -3.9130 H   0  0  0  0  0  0  0  0  0  0  0  0
    0.0106   12.7204   -3.9130 H   0  0  0  0  0  0  0  0  0  0  0  0
    1.2223   14.6413   -0.3709 H   0  0  0  0  0  0  0  0  0  0  0  0
    2.1734   15.3082   -1.7411 H   0  0  0  0  0  0  0  0  0  0  0  0
    0.3822   15.4436   -1.7411 H   0  0  0  0  0  0  0  0  0  0  0  0
    1.4178    9.3212    1.0099 H   0  0  0  0  0  0  0  0  0  0  0  0
    1.9321    8.1929   -0.2897 H   0  0  0  0  0  0  0  0  0  0  0  0
    2.5195    9.8904   -0.2897 H   0  0  0  0  0  0  0  0  0  0  0  0
    0.6721    8.4265   -2.6926 H   0  0  0  0  0  0  0  0  0  0  0  0
    0.2119    7.5395   -1.1322 H   0  0  0  0  0  0  0  0  0  0  0  0
   -1.6214    9.0714   -2.9974 H   0  0  0  0  0  0  0  0  0  0  0  0
   -1.5914    7.2979   -2.6496 H   0  0  0  0  0  0  0  0  0  0  0  0
   -2.2052    7.7515    0.9981 H   0  0  0  0  0  0  0  0  0  0  0  0
   -2.8619    6.5608   -0.1756 H   0  0  0  0  0  0  0  0  0  0  0  0
   -1.1079    6.9483   -0.1756 H   0  0  0  0  0  0  0  0  0  0  0  0
  1  2  1  0
  2  3  1  0
  3  4  1  0
  4  5  1  0
  5  6  1  0
  6  7  1  0
  7  8  1  0
  7  9  1  0
  2 10  1  0
 10 11  1  0
 11 12  1  0
 12 13  1  0
 13 14  1  6
 13 15  1  0
 15 16  1  0
 16 17  1  0
 17 18  2  0
 18 19  1  0
 19 20  1  0
 20 21  1  0
 21 22  1  0
 22 23  1  0
 22 24  1  0
 24 25  1  0
 24 26  1  0
 19 27  1  0
 27 28  1  1
 27 29  1  0
 29 30  1  0
 30 31  1  0
 31 32  1  1
  7  5  1  0
 31 10  1  0
 31 13  1  0
 27 15  1  0
 24 18  1  0
  1 33  1  0
  1 34  1  0
  1 35  1  0
  2 36  1  1
  3 37  1  0
  3 38  1  0
  4 39  1  0
  4 40  1  0
  5 41  1  6
  8 42  1  0
  8 43  1  0
  8 44  1  0
  9 45  1  0
  9 46  1  0
  9 47  1  0
 10 48  1  6
 11 49  1  0
 11 50  1  0
 12 51  1  0
 12 52  1  0
 14 53  1  0
 14 54  1  0
 14 55  1  0
 15 56  1  1
 16 57  1  0
 16 58  1  0
 17 59  1  0
 19 60  1  6
 20 61  1  0
 20 62  1  0
 21 63  1  0
 21 64  1  0
 22 65  1  6
 23 66  1  0
 25 67  1  0
 25 68  1  0
 25 69  1  0
 26 70  1  0
 26 71  1  0
 26 72  1  0
 28 73  1  0
 28 74  1  0
 28 75  1  0
 29 76  1  0
 29 77  1  0
 30 78  1  0
 30 79  1  0
 32 80  1  0
 32 81  1  0
 32 82  1  0
M  END
>  <meeko>  (14) 
{"is_sidechain": [false], "intermolecular_energy": 2.731, "internal_energy": -0.839}

$$$$
EPH_relaxed_0001_pdb2pqr_Repair_131_r2_0001_out
     RDKit          3D

 82 86  0  0  0  0  0  0  0  0999 V2000
    2.6590   14.1590   -0.9120 C   0  0  0  0  0  0  0  0  0  0  0  0
    2.0610   12.8260   -1.3710 C   0  0  2  0  0  0  0  0  0  0  0  0
    2.6650   11.6270   -0.6150 C   0  0  0  0  0  0  0  0  0  0  0  0
    1.7610   11.0780    0.4920 C   0  0  0  0  0  0  0  0  0  0  0  0
    0.3120   11.3190    0.1950 C   0  0  2  0  0  0  0  0  0  0  0  0
   -0.6000   10.6160    1.0490 O   0  0  0  0  0  0  0  0  0  0  0  0
   -0.6220   10.2490   -0.3400 C   0  0  0  0  0  0  0  0  0  0  0  0
   -0.1410    8.8580   -0.6100 C   0  0  0  0  0  0  0  0  0  0  0  0
   -1.8640   10.6770   -1.0570 C   0  0  0  0  0  0  0  0  0  0  0  0
    2.2670   12.6540   -2.8720 C   0  0  1  0  0  0  0  0  0  0  0  0
    2.1450   11.1750   -3.3250 C   0  0  0  0  0  0  0  0  0  0  0  0
    1.4990   11.1910   -4.7350 C   0  0  0  0  0  0  0  0  0  0  0  0
    1.5770   12.6700   -5.1820 C   0  0  1  0  0  0  0  0  0  0  0  0
    3.0340   12.8530   -5.7100 C   0  0  0  0  0  0  0  0  0  0  0  0
    0.5190   13.1290   -6.2380 C   0  0  2  0  0  0  0  0  0  0  0  0
    0.6000   12.4130   -7.5970 C   0  0  0  0  0  0  0  0  0  0  0  0
    1.4810   13.0650   -8.6100 C   0  0  0  0  0  0  0  0  0  0  0  0
    1.9540   14.3230   -8.5410 C   0  0  0  0  0  0  0  0  0  0  0  0
    1.5280   15.2640   -7.4070 C   0  0  1  0  0  0  0  0  0  0  0  0
    1.1490   16.6480   -7.9960 C   0  0  0  0  0  0  0  0  0  0  0  0
    2.2590   17.2400   -8.8590 C   0  0  0  0  0  0  0  0  0  0  0  0
    2.6140   16.3020  -10.0100 C   0  0  2  0  0  0  0  0  0  0  0  0
    1.5000   16.2270  -10.9040 O   0  0  0  0  0  0  0  0  0  0  0  0
    3.0040   14.8730   -9.5380 C   0  0  0  0  0  0  0  0  0  0  0  0
    4.3760   14.9170   -8.8220 C   0  0  0  0  0  0  0  0  0  0  0  0
    3.2000   13.9910  -10.8000 C   0  0  0  0  0  0  0  0  0  0  0  0
    0.4200   14.6980   -6.4160 C   0  0  1  0  0  0  0  0  0  0  0  0
   -1.0020   14.9940   -6.9840 C   0  0  0  0  0  0  0  0  0  0  0  0
    0.5190   15.4640   -5.0440 C   0  0  0  0  0  0  0  0  0  0  0  0
    1.4940   14.8920   -3.9980 C   0  0  0  0  0  0  0  0  0  0  0  0
    1.2800   13.3870   -3.8140 C   0  0  2  0  0  0  0  0  0  0  0  0
   -0.1710   13.1730   -3.2630 C   0  0  0  0  0  0  0  0  0  0  0  0
    2.6749   14.1945    0.1873 H   0  0  0  0  0  0  0  0  0  0  0  0
    3.6853   14.2524   -1.2968 H   0  0  0  0  0  0  0  0  0  0  0  0
    2.0463   14.9876   -1.2968 H   0  0  0  0  0  0  0  0  0  0  0  0
    0.9850   12.8501   -1.1435 H   0  0  0  0  0  0  0  0  0  0  0  0
    2.8563   10.8210   -1.3387 H   0  0  0  0  0  0  0  0  0  0  0  0
    3.5858   11.9837   -0.1304 H   0  0  0  0  0  0  0  0  0  0  0  0
    1.9303    9.9952    0.5862 H   0  0  0  0  0  0  0  0  0  0  0  0
    2.0104   11.5990    1.4282 H   0  0  0  0  0  0  0  0  0  0  0  0
    0.5273   12.3448   -0.1388 H   0  0  0  0  0  0  0  0  0  0  0  0
    0.0380    8.3403    0.3439 H   0  0  0  0  0  0  0  0  0  0  0  0
   -0.9025    8.3121   -1.1862 H   0  0  0  0  0  0  0  0  0  0  0  0
    0.7951    8.8991   -1.1862 H   0  0  0  0  0  0  0  0  0  0  0  0
   -2.6380   10.9437   -0.3223 H   0  0  0  0  0  0  0  0  0  0  0  0
   -1.6408   11.5501   -1.6878 H   0  0  0  0  0  0  0  0  0  0  0  0
   -2.2260    9.8518   -1.6878 H   0  0  0  0  0  0  0  0  0  0  0  0
    3.2729   13.0879   -2.9716 H   0  0  0  0  0  0  0  0  0  0  0  0
    3.1405   10.7091   -3.3696 H   0  0  0  0  0  0  0  0  0  0  0  0
    1.5350   10.5942   -2.6175 H   0  0  0  0  0  0  0  0  0  0  0  0
    2.0604   10.5459   -5.4269 H   0  0  0  0  0  0  0  0  0  0  0  0
    0.4666   10.8115   -4.7257 H   0  0  0  0  0  0  0  0  0  0  0  0
    3.7245   12.9397   -4.8581 H   0  0  0  0  0  0  0  0  0  0  0  0
    3.3142   11.9830   -6.3220 H   0  0  0  0  0  0  0  0  0  0  0  0
    3.0903   13.7653   -6.3220 H   0  0  0  0  0  0  0  0  0  0  0  0
   -0.4266   12.7990   -5.7832 H   0  0  0  0  0  0  0  0  0  0  0  0
    0.9782   11.3949   -7.4227 H   0  0  0  0  0  0  0  0  0  0  0  0
   -0.4167   12.4398   -8.0159 H   0  0  0  0  0  0  0  0  0  0  0  0
    1.7680   12.4666   -9.4873 H   0  0  0  0  0  0  0  0  0  0  0  0
    2.4051   15.3659   -6.7510 H   0  0  0  0  0  0  0  0  0  0  0  0
    0.2457   16.5333   -8.6131 H   0  0  0  0  0  0  0  0  0  0  0  0
    0.9790   17.3344   -7.1534 H   0  0  0  0  0  0  0  0  0  0  0  0
    1.9207   18.2025   -9.2702 H   0  0  0  0  0  0  0  0  0  0  0  0
    3.1525   17.3819   -8.2333 H   0  0  0  0  0  0  0  0  0  0  0  0
    3.4992   16.7178  -10.5135 H   0  0  0  0  0  0  0  0  0  0  0  0
    1.8480   16.2490  -11.8110 H   0  0  0  0  0  0  0  0  0  0  0  0
    4.2216   14.9120   -7.7329 H   0  0  0  0  0  0  0  0  0  0  0  0
    4.9694   14.0374   -9.1122 H   0  0  0  0  0  0  0  0  0  0  0  0
    4.9118   15.8328   -9.1122 H   0  0  0  0  0  0  0  0  0  0  0  0
    3.4292   12.9595  -10.4944 H   0  0  0  0  0  0  0  0  0  0  0  0
    2.2781   13.9994  -11.4000 H   0  0  0  0  0  0  0  0  0  0  0  0
    4.0316   14.3891  -11.4000 H   0  0  0  0  0  0  0  0  0  0  0  0
   -1.7061   15.1406   -6.1517 H   0  0  0  0  0  0  0  0  0  0  0  0
   -0.9684   15.9044   -7.6005 H   0  0  0  0  0  0  0  0  0  0  0  0
   -1.3345   14.1458   -7.6005 H   0  0  0  0  0  0  0  0  0  0  0  0
    0.8316   16.4961   -5.2609 H   0  0  0  0  0  0  0  0  0  0  0  0
   -0.4783   15.3702   -4.5894 H   0  0  0  0  0  0  0  0  0  0  0  0
    2.5264   15.0703   -4.3331 H   0  0  0  0  0  0  0  0  0  0  0  0
    1.3094   15.3925   -3.0360 H   0  0  0  0  0  0  0  0  0  0  0  0
   -0.1497   13.1761   -2.1632 H   0  0  0  0  0  0  0  0  0  0  0  0
   -0.8220   13.9848   -3.6195 H   0  0  0  0  0  0  0  0  0  0  0  0
   -0.5599   12.2078   -3.6195 H   0  0  0  0  0  0  0  0  0  0  0  0
  1  2  1  0
  2  3  1  0
  3  4  1  0
  4  5  1  0
  5  6  1  0
  6  7  1  0
  7  8  1  0
  7  9  1  0
  2 10  1  0
 10 11  1  0
 11 12  1  0
 12 13  1  0
 13 14  1  6
 13 15  1  0
 15 16  1  0
 16 17  1  0
 17 18  2  0
 18 19  1  0
 19 20  1  0
 20 21  1  0
 21 22  1  0
 22 23  1  0
 22 24  1  0
 24 25  1  0
 24 26  1  0
 19 27  1  0
 27 28  1  6
 27 29  1  0
 29 30  1  0
 30 31  1  0
 31 32  1  1
  7  5  1  0
 31 10  1  0
 31 13  1  0
 27 15  1  0
 24 18  1  0
  1 33  1  0
  1 34  1  0
  1 35  1  0
  2 36  1  6
  3 37  1  0
  3 38  1  0
  4 39  1  0
  4 40  1  0
  5 41  1  6
  8 42  1  0
  8 43  1  0
  8 44  1  0
  9 45  1  0
  9 46  1  0
  9 47  1  0
 10 48  1  6
 11 49  1  0
 11 50  1  0
 12 51  1  0
 12 52  1  0
 14 53  1  0
 14 54  1  0
 14 55  1  0
 15 56  1  1
 16 57  1  0
 16 58  1  0
 17 59  1  0
 19 60  1  1
 20 61  1  0
 20 62  1  0
 21 63  1  0
 21 64  1  0
 22 65  1  6
 23 66  1  0
 25 67  1  0
 25 68  1  0
 25 69  1  0
 26 70  1  0
 26 71  1  0
 26 72  1  0
 28 73  1  0
 28 74  1  0
 28 75  1  0
 29 76  1  0
 29 77  1  0
 30 78  1  0
 30 79  1  0
 32 80  1  0
 32 81  1  0
 32 82  1  0
M  END
>  <meeko>  (15) 
{"is_sidechain": [false], "intermolecular_energy": 2.731, "internal_energy": -0.839}

$$$$
EPH_relaxed_0001_pdb2pqr_Repair_131_r2_0001_out
     RDKit          3D

 82 86  0  0  0  0  0  0  0  0999 V2000
    1.6000   11.5960   -0.7910 C   0  0  0  0  0  0  0  0  0  0  0  0
    2.2760   12.8260   -1.4030 C   0  0  2  0  0  0  0  0  0  0  0  0
    1.4980   14.1240   -1.1050 C   0  0  0  0  0  0  0  0  0  0  0  0
    2.3990   15.3330   -0.8360 C   0  0  0  0  0  0  0  0  0  0  0  0
    1.6040   16.5360   -0.4260 C   0  0  2  0  0  0  0  0  0  0  0  0
    0.5190   16.8630   -1.3030 O   0  0  0  0  0  0  0  0  0  0  0  0
    1.5780   17.8300   -1.2170 C   0  0  0  0  0  0  0  0  0  0  0  0
    2.3630   17.9880   -2.4820 C   0  0  0  0  0  0  0  0  0  0  0  0
    1.1870   19.0920   -0.5120 C   0  0  0  0  0  0  0  0  0  0  0  0
    2.4240   12.6430   -2.9090 C   0  0  1  0  0  0  0  0  0  0  0  0
    2.2730   11.1620   -3.3480 C   0  0  0  0  0  0  0  0  0  0  0  0
    1.5750   11.1750   -4.7320 C   0  0  0  0  0  0  0  0  0  0  0  0
    1.6470   12.6500   -5.1920 C   0  0  1  0  0  0  0  0  0  0  0  0
    3.0850   12.8180   -5.7750 C   0  0  0  0  0  0  0  0  0  0  0  0
    0.5540   13.1110   -6.2100 C   0  0  2  0  0  0  0  0  0  0  0  0
    0.5770   12.3850   -7.5660 C   0  0  0  0  0  0  0  0  0  0  0  0
    1.4240   13.0240   -8.6160 C   0  0  0  0  0  0  0  0  0  0  0  0
    1.9090   14.2790   -8.5740 C   0  0  0  0  0  0  0  0  0  0  0  0
    1.5340   15.2300   -7.4300 C   0  0  1  0  0  0  0  0  0  0  0  0
    1.1440   16.6140   -8.0130 C   0  0  0  0  0  0  0  0  0  0  0  0
    2.2250   17.1910   -8.9210 C   0  0  0  0  0  0  0  0  0  0  0  0
    2.5290   16.2440  -10.0790 C   0  0  2  0  0  0  0  0  0  0  0  0
    1.3810   16.1720  -10.9290 O   0  0  0  0  0  0  0  0  0  0  0  0
    2.9250   14.8150   -9.6120 C   0  0  0  0  0  0  0  0  0  0  0  0
    4.3240   14.8530   -8.9500 C   0  0  0  0  0  0  0  0  0  0  0  0
    3.0670   13.9230  -10.8750 C   0  0  0  0  0  0  0  0  0  0  0  0
    0.4600   14.6800   -6.3950 C   0  0  1  0  0  0  0  0  0  0  0  0
   -0.9800   14.9830   -6.9100 C   0  0  0  0  0  0  0  0  0  0  0  0
    0.6160   15.4530   -5.0320 C   0  0  0  0  0  0  0  0  0  0  0  0
    1.6260   14.8800   -4.0190 C   0  0  0  0  0  0  0  0  0  0  0  0
    1.4080   13.3770   -3.8190 C   0  0  2  0  0  0  0  0  0  0  0  0
   -0.0230   13.1780   -3.2120 C   0  0  0  0  0  0  0  0  0  0  0  0
    1.6378   11.6647    0.3062 H   0  0  0  0  0  0  0  0  0  0  0  0
    0.5512   11.5524   -1.1198 H   0  0  0  0  0  0  0  0  0  0  0  0
    2.1254   10.6872   -1.1198 H   0  0  0  0  0  0  0  0  0  0  0  0
    3.2695   12.9218   -0.9406 H   0  0  0  0  0  0  0  0  0  0  0  0
    0.8591   14.3526   -1.9708 H   0  0  0  0  0  0  0  0  0  0  0  0
    0.9153   13.9468   -0.1890 H   0  0  0  0  0  0  0  0  0  0  0  0
    3.1041   15.0801   -0.0305 H   0  0  0  0  0  0  0  0  0  0  0  0
    2.9340   15.5759   -1.7659 H   0  0  0  0  0  0  0  0  0  0  0  0
    1.7885   16.3252    0.6377 H   0  0  0  0  0  0  0  0  0  0  0  0
    3.4143   18.1996   -2.2371 H   0  0  0  0  0  0  0  0  0  0  0  0
    2.3029   17.0598   -3.0692 H   0  0  0  0  0  0  0  0  0  0  0  0
    1.9485   18.8207   -3.0692 H   0  0  0  0  0  0  0  0  0  0  0  0
    1.2358   18.9346    0.5756 H   0  0  0  0  0  0  0  0  0  0  0  0
    1.8769   19.9000   -0.7969 H   0  0  0  0  0  0  0  0  0  0  0  0
    0.1611   19.3684   -0.7969 H   0  0  0  0  0  0  0  0  0  0  0  0
    3.4287   13.0687   -3.0480 H   0  0  0  0  0  0  0  0  0  0  0  0
    3.2623   10.6876   -3.4271 H   0  0  0  0  0  0  0  0  0  0  0  0
    1.6853   10.5905   -2.6145 H   0  0  0  0  0  0  0  0  0  0  0  0
    2.1049   10.5211   -5.4402 H   0  0  0  0  0  0  0  0  0  0  0  0
    0.5406   10.8042   -4.6808 H   0  0  0  0  0  0  0  0  0  0  0  0
    3.8076   12.9024   -4.9499 H   0  0  0  0  0  0  0  0  0  0  0  0
    3.3347   11.9429   -6.3930 H   0  0  0  0  0  0  0  0  0  0  0  0
    3.1262   13.7271   -6.3930 H   0  0  0  0  0  0  0  0  0  0  0  0
   -0.3761   12.7921   -5.7169 H   0  0  0  0  0  0  0  0  0  0  0  0
    0.9537   11.3651   -7.3993 H   0  0  0  0  0  0  0  0  0  0  0  0
   -0.4548   12.4164   -7.9460 H   0  0  0  0  0  0  0  0  0  0  0  0
    1.6731   12.4177   -9.4994 H   0  0  0  0  0  0  0  0  0  0  0  0
    2.4362   15.3276   -6.8083 H   0  0  0  0  0  0  0  0  0  0  0  0
    0.2169   16.5032   -8.5946 H   0  0  0  0  0  0  0  0  0  0  0  0
    1.0116   17.3069   -7.1690 H   0  0  0  0  0  0  0  0  0  0  0  0
    1.8793   18.1540   -9.3250 H   0  0  0  0  0  0  0  0  0  0  0  0
    3.1426   17.3283   -8.3302 H   0  0  0  0  0  0  0  0  0  0  0  0
    3.3972   16.6497  -10.6190 H   0  0  0  0  0  0  0  0  0  0  0  0
    1.5110   15.4230  -11.5360 H   0  0  0  0  0  0  0  0  0  0  0  0
    4.2120   14.8500   -7.8557 H   0  0  0  0  0  0  0  0  0  0  0  0
    4.9014   13.9702   -9.2620 H   0  0  0  0  0  0  0  0  0  0  0  0
    4.8526   15.7658   -9.2620 H   0  0  0  0  0  0  0  0  0  0  0  0
    3.2332   12.8793  -10.5700 H   0  0  0  0  0  0  0  0  0  0  0  0
    2.1472   13.9877  -11.4749 H   0  0  0  0  0  0  0  0  0  0  0  0
    3.9212   14.2701  -11.4749 H   0  0  0  0  0  0  0  0  0  0  0  0
   -1.6539   15.1248   -6.0522 H   0  0  0  0  0  0  0  0  0  0  0  0
   -0.9661   15.8979   -7.5206 H   0  0  0  0  0  0  0  0  0  0  0  0
   -1.3360   14.1401   -7.5206 H   0  0  0  0  0  0  0  0  0  0  0  0
    0.9274   16.4816   -5.2667 H   0  0  0  0  0  0  0  0  0  0  0  0
   -0.3641   15.3686   -4.5398 H   0  0  0  0  0  0  0  0  0  0  0  0
    2.6465   15.0491   -4.3932 H   0  0  0  0  0  0  0  0  0  0  0  0
    1.4813   15.3873   -3.0537 H   0  0  0  0  0  0  0  0  0  0  0  0
    0.0401   13.1868   -2.1138 H   0  0  0  0  0  0  0  0  0  0  0  0
   -0.6805   13.9934   -3.5480 H   0  0  0  0  0  0  0  0  0  0  0  0
   -0.4331   12.2142   -3.5480 H   0  0  0  0  0  0  0  0  0  0  0  0
  1  2  1  0
  2  3  1  0
  3  4  1  0
  4  5  1  0
  5  6  1  0
  6  7  1  0
  7  8  1  0
  7  9  1  0
  2 10  1  0
 10 11  1  0
 11 12  1  0
 12 13  1  0
 13 14  1  6
 13 15  1  0
 15 16  1  0
 16 17  1  0
 17 18  2  0
 18 19  1  0
 19 20  1  0
 20 21  1  0
 21 22  1  0
 22 23  1  0
 22 24  1  0
 24 25  1  0
 24 26  1  0
 19 27  1  0
 27 28  1  6
 27 29  1  0
 29 30  1  0
 30 31  1  0
 31 32  1  1
  7  5  1  0
 31 10  1  0
 31 13  1  0
 27 15  1  0
 24 18  1  0
  1 33  1  0
  1 34  1  0
  1 35  1  0
  2 36  1  1
  3 37  1  0
  3 38  1  0
  4 39  1  0
  4 40  1  0
  5 41  1  1
  8 42  1  0
  8 43  1  0
  8 44  1  0
  9 45  1  0
  9 46  1  0
  9 47  1  0
 10 48  1  6
 11 49  1  0
 11 50  1  0
 12 51  1  0
 12 52  1  0
 14 53  1  0
 14 54  1  0
 14 55  1  0
 15 56  1  1
 16 57  1  0
 16 58  1  0
 17 59  1  0
 19 60  1  1
 20 61  1  0
 20 62  1  0
 21 63  1  0
 21 64  1  0
 22 65  1  6
 23 66  1  0
 25 67  1  0
 25 68  1  0
 25 69  1  0
 26 70  1  0
 26 71  1  0
 26 72  1  0
 28 73  1  0
 28 74  1  0
 28 75  1  0
 29 76  1  0
 29 77  1  0
 30 78  1  0
 30 79  1  0
 32 80  1  0
 32 81  1  0
 32 82  1  0
M  END
>  <meeko>  (16) 
{"is_sidechain": [false], "intermolecular_energy": 2.731, "internal_energy": -0.839}

$$$$
EPH_relaxed_0001_pdb2pqr_Repair_131_r2_0001_out
     RDKit          3D

 82 86  0  0  0  0  0  0  0  0999 V2000
    2.9800   18.2120   -3.2440 C   0  0  0  0  0  0  0  0  0  0  0  0
    2.0190   17.8640   -2.1040 C   0  0  2  0  0  0  0  0  0  0  0  0
    2.0830   18.8910   -0.9560 C   0  0  0  0  0  0  0  0  0  0  0  0
    3.4340   18.9250   -0.2350 C   0  0  0  0  0  0  0  0  0  0  0  0
    3.3780   19.7610    1.0070 C   0  0  2  0  0  0  0  0  0  0  0  0
    4.6550   20.1940    1.4950 O   0  0  0  0  0  0  0  0  0  0  0  0
    3.9190   19.3030    2.3490 C   0  0  0  0  0  0  0  0  0  0  0  0
    4.5550   17.9580    2.5160 C   0  0  0  0  0  0  0  0  0  0  0  0
    3.3960   19.9530    3.5910 C   0  0  0  0  0  0  0  0  0  0  0  0
    2.3270   16.4680   -1.5730 C   0  0  1  0  0  0  0  0  0  0  0  0
    3.1010   16.4990   -0.2280 C   0  0  0  0  0  0  0  0  0  0  0  0
    2.6040   15.2870    0.6020 C   0  0  0  0  0  0  0  0  0  0  0  0
    1.8170   14.4190   -0.4080 C   0  0  1  0  0  0  0  0  0  0  0  0
    2.9070   13.6070   -1.1750 C   0  0  0  0  0  0  0  0  0  0  0  0
    0.7170   13.4850    0.1940 C   0  0  2  0  0  0  0  0  0  0  0  0
    1.2360   12.4040    1.1590 C   0  0  0  0  0  0  0  0  0  0  0  0
    1.5980   11.1030    0.5240 C   0  0  0  0  0  0  0  0  0  0  0  0
    1.2460   10.7130   -0.7160 C   0  0  0  0  0  0  0  0  0  0  0  0
    0.3220   11.5790   -1.5820 C   0  0  1  0  0  0  0  0  0  0  0  0
   -0.7770   10.6880   -2.2180 C   0  0  0  0  0  0  0  0  0  0  0  0
   -0.1980    9.5040   -2.9860 C   0  0  0  0  0  0  0  0  0  0  0  0
    0.6670    8.6340   -2.0770 C   0  0  2  0  0  0  0  0  0  0  0  0
   -0.1710    8.0180   -1.0940 O   0  0  0  0  0  0  0  0  0  0  0  0
    1.8040    9.4260   -1.3730 C   0  0  0  0  0  0  0  0  0  0  0  0
    2.8750    9.8370   -2.4140 C   0  0  0  0  0  0  0  0  0  0  0  0
    2.5110    8.4650   -0.3800 C   0  0  0  0  0  0  0  0  0  0  0  0
   -0.2730   12.8740   -0.8790 C   0  0  1  0  0  0  0  0  0  0  0  0
   -1.5850   12.5120   -0.1190 C   0  0  0  0  0  0  0  0  0  0  0  0
   -0.6750   13.9200   -1.9850 C   0  0  0  0  0  0  0  0  0  0  0  0
    0.4230   14.8940   -2.4530 C   0  0  0  0  0  0  0  0  0  0  0  0
    1.1220   15.5460   -1.2560 C   0  0  2  0  0  0  0  0  0  0  0  0
    0.0550   16.3890   -0.4780 C   0  0  0  0  0  0  0  0  0  0  0  0
    3.9362   18.5583   -2.8247 H   0  0  0  0  0  0  0  0  0  0  0  0
    3.1529   17.3194   -3.8632 H   0  0  0  0  0  0  0  0  0  0  0  0
    2.5413   19.0084   -3.8632 H   0  0  0  0  0  0  0  0  0  0  0  0
    0.9979   17.8897   -2.5122 H   0  0  0  0  0  0  0  0  0  0  0  0
    1.8863   19.8900   -1.3723 H   0  0  0  0  0  0  0  0  0  0  0  0
    1.3296   18.5902   -0.2131 H   0  0  0  0  0  0  0  0  0  0  0  0
    3.7179   17.8982    0.0389 H   0  0  0  0  0  0  0  0  0  0  0  0
    4.1748   19.3705   -0.9153 H   0  0  0  0  0  0  0  0  0  0  0  0
    2.4070   20.1827    0.7080 H   0  0  0  0  0  0  0  0  0  0  0  0
    4.6613   17.7332    3.5875 H   0  0  0  0  0  0  0  0  0  0  0  0
    3.9235   17.1924    2.0416 H   0  0  0  0  0  0  0  0  0  0  0  0
    5.5474   17.9602    2.0416 H   0  0  0  0  0  0  0  0  0  0  0  0
    3.8075   19.4416    4.4737 H   0  0  0  0  0  0  0  0  0  0  0  0
    3.6977   21.0107    3.6062 H   0  0  0  0  0  0  0  0  0  0  0  0
    2.2982   19.8846    3.6062 H   0  0  0  0  0  0  0  0  0  0  0  0
    2.8940   16.0663   -2.4257 H   0  0  0  0  0  0  0  0  0  0  0  0
    4.1824   16.4148   -0.4112 H   0  0  0  0  0  0  0  0  0  0  0  0
    2.9247   17.4435    0.3076 H   0  0  0  0  0  0  0  0  0  0  0  0
    3.4541   14.7256    1.0169 H   0  0  0  0  0  0  0  0  0  0  0  0
    1.9863   15.5934    1.4590 H   0  0  0  0  0  0  0  0  0  0  0  0
    3.5718   13.1117   -0.4520 H   0  0  0  0  0  0  0  0  0  0  0  0
    2.4222   12.8482   -1.8068 H   0  0  0  0  0  0  0  0  0  0  0  0
    3.4953   14.2887   -1.8068 H   0  0  0  0  0  0  0  0  0  0  0  0
    0.1292   14.1802    0.8114 H   0  0  0  0  0  0  0  0  0  0  0  0
    2.1320   12.7982    1.6608 H   0  0  0  0  0  0  0  0  0  0  0  0
    0.4056   12.1862    1.8468 H   0  0  0  0  0  0  0  0  0  0  0  0
    2.2035   10.4035    1.1190 H   0  0  0  0  0  0  0  0  0  0  0  0
    0.9575   12.0073   -2.3711 H   0  0  0  0  0  0  0  0  0  0  0  0
   -1.4275   10.3052   -1.4178 H   0  0  0  0  0  0  0  0  0  0  0  0
   -1.3373   11.3082   -2.9332 H   0  0  0  0  0  0  0  0  0  0  0  0
   -1.0230    8.8967   -3.3867 H   0  0  0  0  0  0  0  0  0  0  0  0
    0.4289    9.8889   -3.8038 H   0  0  0  0  0  0  0  0  0  0  0  0
    1.1561    7.8792   -2.7103 H   0  0  0  0  0  0  0  0  0  0  0  0
   -0.1840    7.0630   -1.2760 H   0  0  0  0  0  0  0  0  0  0  0  0
    3.7792   10.1840   -1.8924 H   0  0  0  0  0  0  0  0  0  0  0  0
    3.1250    8.9709   -3.0444 H   0  0  0  0  0  0  0  0  0  0  0  0
    2.4814   10.6480   -3.0444 H   0  0  0  0  0  0  0  0  0  0  0  0
    2.2848    8.7724    0.6517 H   0  0  0  0  0  0  0  0  0  0  0  0
    2.1511    7.4385   -0.5440 H   0  0  0  0  0  0  0  0  0  0  0  0
    3.5980    8.5030   -0.5440 H   0  0  0  0  0  0  0  0  0  0  0  0
   -1.4062   12.5613    0.9652 H   0  0  0  0  0  0  0  0  0  0  0  0
   -2.3762   13.2254   -0.3930 H   0  0  0  0  0  0  0  0  0  0  0  0
   -1.8984   11.4938   -0.3930 H   0  0  0  0  0  0  0  0  0  0  0  0
   -1.0181   13.3575   -2.8658 H   0  0  0  0  0  0  0  0  0  0  0  0
   -1.4411   14.5546   -1.5156 H   0  0  0  0  0  0  0  0  0  0  0  0
    1.1659   14.3409   -3.0464 H   0  0  0  0  0  0  0  0  0  0  0  0
   -0.0434   15.6836   -3.0604 H   0  0  0  0  0  0  0  0  0  0  0  0
    0.2094   16.2670    0.6043 H   0  0  0  0  0  0  0  0  0  0  0  0
    0.1600   17.4507   -0.7460 H   0  0  0  0  0  0  0  0  0  0  0  0
   -0.9536   16.0412   -0.7460 H   0  0  0  0  0  0  0  0  0  0  0  0
  1  2  1  0
  2  3  1  0
  3  4  1  0
  4  5  1  0
  5  6  1  0
  6  7  1  0
  7  8  1  0
  7  9  1  0
  2 10  1  0
 10 11  1  0
 11 12  1  0
 12 13  1  0
 13 14  1  6
 13 15  1  0
 15 16  1  0
 16 17  1  0
 17 18  2  0
 18 19  1  0
 19 20  1  0
 20 21  1  0
 21 22  1  0
 22 23  1  0
 22 24  1  0
 24 25  1  0
 24 26  1  0
 19 27  1  0
 27 28  1  1
 27 29  1  0
 29 30  1  0
 30 31  1  0
 31 32  1  1
  7  5  1  0
 31 10  1  0
 31 13  1  0
 27 15  1  0
 24 18  1  0
  1 33  1  0
  1 34  1  0
  1 35  1  0
  2 36  1  6
  3 37  1  0
  3 38  1  0
  4 39  1  0
  4 40  1  0
  5 41  1  1
  8 42  1  0
  8 43  1  0
  8 44  1  0
  9 45  1  0
  9 46  1  0
  9 47  1  0
 10 48  1  6
 11 49  1  0
 11 50  1  0
 12 51  1  0
 12 52  1  0
 14 53  1  0
 14 54  1  0
 14 55  1  0
 15 56  1  1
 16 57  1  0
 16 58  1  0
 17 59  1  0
 19 60  1  6
 20 61  1  0
 20 62  1  0
 21 63  1  0
 21 64  1  0
 22 65  1  6
 23 66  1  0
 25 67  1  0
 25 68  1  0
 25 69  1  0
 26 70  1  0
 26 71  1  0
 26 72  1  0
 28 73  1  0
 28 74  1  0
 28 75  1  0
 29 76  1  0
 29 77  1  0
 30 78  1  0
 30 79  1  0
 32 80  1  0
 32 81  1  0
 32 82  1  0
M  END
>  <meeko>  (17) 
{"is_sidechain": [false], "intermolecular_energy": 2.731, "internal_energy": -0.839}

$$$$
EPH_relaxed_0001_pdb2pqr_Repair_131_r2_0001_out
     RDKit          3D

 82 86  0  0  0  0  0  0  0  0999 V2000
  -15.0500    6.0620   -0.2410 C   0  0  0  0  0  0  0  0  0  0  0  0
  -13.7790    6.7210    0.3010 C   0  0  2  0  0  0  0  0  0  0  0  0
  -14.0500    8.1330    0.8590 C   0  0  0  0  0  0  0  0  0  0  0  0
  -15.0140    8.9590    0.0040 C   0  0  0  0  0  0  0  0  0  0  0  0
  -14.3690   10.2120   -0.5060 C   0  0  2  0  0  0  0  0  0  0  0  0
  -15.2860   11.2490   -0.8780 O   0  0  0  0  0  0  0  0  0  0  0  0
  -14.4930   10.6930   -1.9390 C   0  0  0  0  0  0  0  0  0  0  0  0
  -15.2840    9.9280   -2.9540 C   0  0  0  0  0  0  0  0  0  0  0  0
  -13.4550   11.6320   -2.4710 C   0  0  0  0  0  0  0  0  0  0  0  0
  -12.7220    6.7890   -0.7950 C   0  0  1  0  0  0  0  0  0  0  0  0
  -13.1170    7.7500   -1.9480 C   0  0  0  0  0  0  0  0  0  0  0  0
  -11.8060    8.4110   -2.4480 C   0  0  0  0  0  0  0  0  0  0  0  0
  -10.6770    7.5740   -1.8030 C   0  0  1  0  0  0  0  0  0  0  0  0
  -10.5390    6.3160   -2.7160 C   0  0  0  0  0  0  0  0  0  0  0  0
   -9.3050    8.2990   -1.6080 C   0  0  2  0  0  0  0  0  0  0  0  0
   -8.6190    8.7570   -2.9070 C   0  0  0  0  0  0  0  0  0  0  0  0
   -7.6880    7.7650   -3.5210 C   0  0  0  0  0  0  0  0  0  0  0  0
   -7.1940    6.6730   -2.9080 C   0  0  0  0  0  0  0  0  0  0  0  0
   -7.4900    6.3980   -1.4280 C   0  0  1  0  0  0  0  0  0  0  0  0
   -6.1760    6.0060   -0.7020 C   0  0  0  0  0  0  0  0  0  0  0  0
   -5.4590    4.8420   -1.3790 C   0  0  0  0  0  0  0  0  0  0  0  0
   -5.1310    5.1750   -2.8320 C   0  0  2  0  0  0  0  0  0  0  0  0
   -4.1600    6.2260   -2.8560 O   0  0  0  0  0  0  0  0  0  0  0  0
   -6.3760    5.5950   -3.6610 C   0  0  0  0  0  0  0  0  0  0  0  0
   -7.2880    4.3640   -3.8900 C   0  0  0  0  0  0  0  0  0  0  0  0
   -5.8870    6.0390   -5.0660 C   0  0  0  0  0  0  0  0  0  0  0  0
   -8.2960    7.5330   -0.6600 C   0  0  1  0  0  0  0  0  0  0  0  0
   -7.3080    8.6030   -0.1030 C   0  0  0  0  0  0  0  0  0  0  0  0
   -9.0140    6.8970    0.5890 C   0  0  0  0  0  0  0  0  0  0  0  0
  -10.4160    6.3040    0.3570 C   0  0  0  0  0  0  0  0  0  0  0  0
  -11.3130    7.2940   -0.3930 C   0  0  2  0  0  0  0  0  0  0  0  0
  -11.4880    8.5610    0.5110 C   0  0  0  0  0  0  0  0  0  0  0  0
  -15.6804    5.7351    0.5991 H   0  0  0  0  0  0  0  0  0  0  0  0
  -15.6049    6.7860   -0.8558 H   0  0  0  0  0  0  0  0  0  0  0  0
  -14.7780    5.1913   -0.8558 H   0  0  0  0  0  0  0  0  0  0  0  0
  -13.4134    6.1014    1.1331 H   0  0  0  0  0  0  0  0  0  0  0  0
  -14.4796    8.0315    1.8666 H   0  0  0  0  0  0  0  0  0  0  0  0
  -13.0879    8.6663    0.8641 H   0  0  0  0  0  0  0  0  0  0  0  0
  -15.3400    8.3516   -0.8532 H   0  0  0  0  0  0  0  0  0  0  0  0
  -15.8700    9.2456    0.6326 H   0  0  0  0  0  0  0  0  0  0  0  0
  -13.4978   10.0573    0.1475 H   0  0  0  0  0  0  0  0  0  0  0  0
  -15.9832    9.2518   -2.4403 H   0  0  0  0  0  0  0  0  0  0  0  0
  -15.8494   10.6307   -3.5838 H   0  0  0  0  0  0  0  0  0  0  0  0
  -14.6006    9.3394   -3.5838 H   0  0  0  0  0  0  0  0  0  0  0  0
  -12.9276   12.1091   -1.6318 H   0  0  0  0  0  0  0  0  0  0  0  0
  -12.7349   11.0723   -3.0860 H   0  0  0  0  0  0  0  0  0  0  0  0
  -13.9400   12.4044   -3.0860 H   0  0  0  0  0  0  0  0  0  0  0  0
  -12.6761    5.7258   -1.0732 H   0  0  0  0  0  0  0  0  0  0  0  0
  -13.5927    7.1868   -2.7644 H   0  0  0  0  0  0  0  0  0  0  0  0
  -13.8348    8.5083   -1.6020 H   0  0  0  0  0  0  0  0  0  0  0  0
  -11.7432    8.3677   -3.5453 H   0  0  0  0  0  0  0  0  0  0  0  0
  -11.7447    9.4749   -2.1753 H   0  0  0  0  0  0  0  0  0  0  0  0
  -10.4404    5.4173   -2.0895 H   0  0  0  0  0  0  0  0  0  0  0  0
  -11.4324    6.2240   -3.3511 H   0  0  0  0  0  0  0  0  0  0  0  0
   -9.6469    6.4199   -3.3511 H   0  0  0  0  0  0  0  0  0  0  0  0
   -9.5975    9.2207   -1.0837 H   0  0  0  0  0  0  0  0  0  0  0  0
   -9.4037    8.9872   -3.6427 H   0  0  0  0  0  0  0  0  0  0  0  0
   -8.0014    9.6256   -2.6348 H   0  0  0  0  0  0  0  0  0  0  0  0
   -7.3795    7.9410   -4.5621 H   0  0  0  0  0  0  0  0  0  0  0  0
   -8.1934    5.5525   -1.4099 H   0  0  0  0  0  0  0  0  0  0  0  0
   -5.5043    6.8771   -0.6936 H   0  0  0  0  0  0  0  0  0  0  0  0
   -6.4396    5.6884    0.3176 H   0  0  0  0  0  0  0  0  0  0  0  0
   -4.5247    4.6310   -0.8382 H   0  0  0  0  0  0  0  0  0  0  0  0
   -6.1205    3.9633   -1.3606 H   0  0  0  0  0  0  0  0  0  0  0  0
   -4.7381    4.2599   -3.2992 H   0  0  0  0  0  0  0  0  0  0  0  0
   -4.4200    6.8820   -2.1870 H   0  0  0  0  0  0  0  0  0  0  0  0
   -7.5951    3.9494   -2.9185 H   0  0  0  0  0  0  0  0  0  0  0  0
   -8.1799    4.6689   -4.4571 H   0  0  0  0  0  0  0  0  0  0  0  0
   -6.7366    3.5996   -4.4571 H   0  0  0  0  0  0  0  0  0  0  0  0
   -5.0767    6.7748   -4.9566 H   0  0  0  0  0  0  0  0  0  0  0  0
   -5.5152    5.1635   -5.6184 H   0  0  0  0  0  0  0  0  0  0  0  0
   -6.7227    6.4933   -5.6184 H   0  0  0  0  0  0  0  0  0  0  0  0
   -7.3270    8.5824    0.9966 H   0  0  0  0  0  0  0  0  0  0  0  0
   -6.2901    8.3814   -0.4564 H   0  0  0  0  0  0  0  0  0  0  0  0
   -7.6099    9.6000   -0.4564 H   0  0  0  0  0  0  0  0  0  0  0  0
   -8.3698    6.0898    0.9677 H   0  0  0  0  0  0  0  0  0  0  0  0
   -9.1670    7.7318    1.2888 H   0  0  0  0  0  0  0  0  0  0  0  0
  -10.3232    5.3821   -0.2359 H   0  0  0  0  0  0  0  0  0  0  0  0
  -10.8719    6.0888    1.3347 H   0  0  0  0  0  0  0  0  0  0  0  0
  -11.4471    8.2647    1.5695 H   0  0  0  0  0  0  0  0  0  0  0  0
  -10.6802    9.2770    0.2992 H   0  0  0  0  0  0  0  0  0  0  0  0
  -12.4596    9.0312    0.2992 H   0  0  0  0  0  0  0  0  0  0  0  0
  1  2  1  0
  2  3  1  0
  3  4  1  0
  4  5  1  0
  5  6  1  0
  6  7  1  0
  7  8  1  0
  7  9  1  0
  2 10  1  0
 10 11  1  0
 11 12  1  0
 12 13  1  0
 13 14  1  6
 13 15  1  0
 15 16  1  0
 16 17  1  0
 17 18  2  0
 18 19  1  0
 19 20  1  0
 20 21  1  0
 21 22  1  0
 22 23  1  0
 22 24  1  0
 24 25  1  0
 24 26  1  0
 19 27  1  0
 27 28  1  1
 27 29  1  0
 29 30  1  0
 30 31  1  0
 31 32  1  1
  7  5  1  0
 31 10  1  0
 31 13  1  0
 27 15  1  0
 24 18  1  0
  1 33  1  0
  1 34  1  0
  1 35  1  0
  2 36  1  1
  3 37  1  0
  3 38  1  0
  4 39  1  0
  4 40  1  0
  5 41  1  1
  8 42  1  0
  8 43  1  0
  8 44  1  0
  9 45  1  0
  9 46  1  0
  9 47  1  0
 10 48  1  6
 11 49  1  0
 11 50  1  0
 12 51  1  0
 12 52  1  0
 14 53  1  0
 14 54  1  0
 14 55  1  0
 15 56  1  1
 16 57  1  0
 16 58  1  0
 17 59  1  0
 19 60  1  6
 20 61  1  0
 20 62  1  0
 21 63  1  0
 21 64  1  0
 22 65  1  6
 23 66  1  0
 25 67  1  0
 25 68  1  0
 25 69  1  0
 26 70  1  0
 26 71  1  0
 26 72  1  0
 28 73  1  0
 28 74  1  0
 28 75  1  0
 29 76  1  0
 29 77  1  0
 30 78  1  0
 30 79  1  0
 32 80  1  0
 32 81  1  0
 32 82  1  0
M  END
>  <meeko>  (18) 
{"is_sidechain": [false], "intermolecular_energy": 2.731, "internal_energy": -0.839}

$$$$
