EPH_relaxed_0001_pdb2pqr_Repair_254_r2_0001_out
     RDKit          3D

 82 86  0  0  0  0  0  0  0  0999 V2000
   -5.1650    5.8370   -1.7020 C   0  0  0  0  0  0  0  0  0  0  0  0
   -5.4610    7.3380   -1.7600 C   0  0  2  0  0  0  0  0  0  0  0  0
   -5.2300    8.0290   -0.4010 C   0  0  0  0  0  0  0  0  0  0  0  0
   -4.1890    9.1500   -0.4500 C   0  0  0  0  0  0  0  0  0  0  0  0
   -2.8280    8.6280   -0.7960 C   0  0  2  0  0  0  0  0  0  0  0  0
   -1.8050    8.9440    0.1580 O   0  0  0  0  0  0  0  0  0  0  0  0
   -1.6540    9.5220   -1.1480 C   0  0  0  0  0  0  0  0  0  0  0  0
   -1.7880   11.0130   -1.1730 C   0  0  0  0  0  0  0  0  0  0  0  0
   -0.5230    8.9410   -1.9380 C   0  0  0  0  0  0  0  0  0  0  0  0
   -6.8950    7.5670   -2.2240 C   0  0  1  0  0  0  0  0  0  0  0  0
   -7.2040    6.8720   -3.5770 C   0  0  0  0  0  0  0  0  0  0  0  0
   -8.6800    6.4020   -3.5110 C   0  0  0  0  0  0  0  0  0  0  0  0
   -9.2650    7.1250   -2.2760 C   0  0  1  0  0  0  0  0  0  0  0  0
   -9.6130    8.5610   -2.7780 C   0  0  0  0  0  0  0  0  0  0  0  0
  -10.4930    6.4400   -1.5910 C   0  0  2  0  0  0  0  0  0  0  0  0
  -11.7470    6.3170   -2.4740 C   0  0  0  0  0  0  0  0  0  0  0  0
  -12.6990    7.4650   -2.3930 C   0  0  0  0  0  0  0  0  0  0  0  0
  -12.7000    8.4140   -1.4380 C   0  0  0  0  0  0  0  0  0  0  0  0
  -11.7360    8.3350   -0.2480 C   0  0  1  0  0  0  0  0  0  0  0  0
  -12.5110    8.6160    1.0660 C   0  0  0  0  0  0  0  0  0  0  0  0
  -13.2780    9.9340    1.0220 C   0  0  0  0  0  0  0  0  0  0  0  0
  -14.2680    9.9510   -0.1400 C   0  0  2  0  0  0  0  0  0  0  0  0
  -15.2870    8.9790    0.1090 O   0  0  0  0  0  0  0  0  0  0  0  0
  -13.6020    9.6700   -1.5160 C   0  0  0  0  0  0  0  0  0  0  0  0
  -12.7210   10.8760   -1.9240 C   0  0  0  0  0  0  0  0  0  0  0  0
  -14.7280    9.5750   -2.5800 C   0  0  0  0  0  0  0  0  0  0  0  0
  -10.8460    7.0210   -0.1620 C   0  0  1  0  0  0  0  0  0  0  0  0
  -11.6230    5.9000    0.5940 C   0  0  0  0  0  0  0  0  0  0  0  0
   -9.5600    7.3250    0.6940 C   0  0  0  0  0  0  0  0  0  0  0  0
   -8.3410    7.8890   -0.0600 C   0  0  0  0  0  0  0  0  0  0  0  0
   -8.0310    7.0520   -1.3050 C   0  0  2  0  0  0  0  0  0  0  0  0
   -7.6560    5.6080   -0.8290 C   0  0  0  0  0  0  0  0  0  0  0  0
   -5.1017    5.5161   -0.6518 H   0  0  0  0  0  0  0  0  0  0  0  0
   -5.9715    5.2845   -2.2063 H   0  0  0  0  0  0  0  0  0  0  0  0
   -4.2091    5.6320   -2.2063 H   0  0  0  0  0  0  0  0  0  0  0  0
   -4.7608    7.7858   -2.4806 H   0  0  0  0  0  0  0  0  0  0  0  0
   -6.1851    8.4566   -0.0620 H   0  0  0  0  0  0  0  0  0  0  0  0
   -4.8452    7.2627    0.2880 H   0  0  0  0  0  0  0  0  0  0  0  0
   -4.4925    9.8853   -1.2098 H   0  0  0  0  0  0  0  0  0  0  0  0
   -4.1357    9.6121    0.5468 H   0  0  0  0  0  0  0  0  0  0  0  0
   -3.2656    7.7525   -1.2981 H   0  0  0  0  0  0  0  0  0  0  0  0
   -1.8224   11.3954   -0.1422 H   0  0  0  0  0  0  0  0  0  0  0  0
   -0.9255   11.4499   -1.6976 H   0  0  0  0  0  0  0  0  0  0  0  0
   -2.7146   11.2891   -1.6976 H   0  0  0  0  0  0  0  0  0  0  0  0
    0.2409    8.5486   -1.2506 H   0  0  0  0  0  0  0  0  0  0  0  0
   -0.8998    8.1248   -2.5720 H   0  0  0  0  0  0  0  0  0  0  0  0
   -0.0790    9.7226   -2.5720 H   0  0  0  0  0  0  0  0  0  0  0  0
   -6.9048    8.6665   -2.2545 H   0  0  0  0  0  0  0  0  0  0  0  0
   -7.0690    7.5813   -4.4068 H   0  0  0  0  0  0  0  0  0  0  0  0
   -6.5262    6.0229   -3.7490 H   0  0  0  0  0  0  0  0  0  0  0  0
   -9.2212    6.6926   -4.4235 H   0  0  0  0  0  0  0  0  0  0  0  0
   -8.7663    5.3081   -3.4335 H   0  0  0  0  0  0  0  0  0  0  0  0
   -9.7733    9.2226   -1.9140 H   0  0  0  0  0  0  0  0  0  0  0  0
   -8.7826    8.9478   -3.3869 H   0  0  0  0  0  0  0  0  0  0  0  0
  -10.5284    8.5248   -3.3869 H   0  0  0  0  0  0  0  0  0  0  0  0
  -10.1343    5.4117   -1.4367 H   0  0  0  0  0  0  0  0  0  0  0  0
  -11.4186    6.2208   -3.5194 H   0  0  0  0  0  0  0  0  0  0  0  0
  -12.2961    5.4393   -2.1024 H   0  0  0  0  0  0  0  0  0  0  0  0
  -13.4638    7.5416   -3.1799 H   0  0  0  0  0  0  0  0  0  0  0  0
  -10.9843    9.1208   -0.4136 H   0  0  0  0  0  0  0  0  0  0  0  0
  -13.2259    7.7974    1.2357 H   0  0  0  0  0  0  0  0  0  0  0  0
  -11.7744    8.6852    1.8800 H   0  0  0  0  0  0  0  0  0  0  0  0
  -13.8285   10.0618    1.9657 H   0  0  0  0  0  0  0  0  0  0  0  0
  -12.5585   10.7542    0.8821 H   0  0  0  0  0  0  0  0  0  0  0  0
  -14.6917   10.9644   -0.1981 H   0  0  0  0  0  0  0  0  0  0  0  0
  -14.9370    8.3440    0.7580 H   0  0  0  0  0  0  0  0  0  0  0  0
  -12.3511   11.3823   -1.0202 H   0  0  0  0  0  0  0  0  0  0  0  0
  -11.8677   10.5215   -2.5208 H   0  0  0  0  0  0  0  0  0  0  0  0
  -13.3182   11.5811   -2.5208 H   0  0  0  0  0  0  0  0  0  0  0  0
  -15.7024    9.4928   -2.0763 H   0  0  0  0  0  0  0  0  0  0  0  0
  -14.7153   10.4774   -3.2089 H   0  0  0  0  0  0  0  0  0  0  0  0
  -14.5643    8.6875   -3.2089 H   0  0  0  0  0  0  0  0  0  0  0  0
  -11.5193    6.0496    1.6788 H   0  0  0  0  0  0  0  0  0  0  0  0
  -12.6871    5.9415    0.3182 H   0  0  0  0  0  0  0  0  0  0  0  0
  -11.2107    4.9182    0.3182 H   0  0  0  0  0  0  0  0  0  0  0  0
   -9.8400    8.0554    1.4674 H   0  0  0  0  0  0  0  0  0  0  0  0
   -9.2332    6.3479    1.0793 H   0  0  0  0  0  0  0  0  0  0  0  0
   -8.5544    8.9238   -0.3661 H   0  0  0  0  0  0  0  0  0  0  0  0
   -7.4690    7.8576    0.6098 H   0  0  0  0  0  0  0  0  0  0  0  0
   -7.6474    5.5750    0.2705 H   0  0  0  0  0  0  0  0  0  0  0  0
   -8.3979    4.8916   -1.2116 H   0  0  0  0  0  0  0  0  0  0  0  0
   -6.6593    5.3431   -1.2116 H   0  0  0  0  0  0  0  0  0  0  0  0
  1  2  1  0
  2  3  1  0
  3  4  1  0
  4  5  1  0
  5  6  1  0
  6  7  1  0
  7  8  1  0
  7  9  1  0
  2 10  1  0
 10 11  1  0
 11 12  1  0
 12 13  1  0
 13 14  1  6
 13 15  1  0
 15 16  1  0
 16 17  1  0
 17 18  2  0
 18 19  1  0
 19 20  1  0
 20 21  1  0
 21 22  1  0
 22 23  1  0
 22 24  1  0
 24 25  1  0
 24 26  1  0
 19 27  1  0
 27 28  1  1
 27 29  1  0
 29 30  1  0
 30 31  1  0
 31 32  1  1
  7  5  1  0
 31 10  1  0
 31 13  1  0
 27 15  1  0
 24 18  1  0
  1 33  1  0
  1 34  1  0
  1 35  1  0
  2 36  1  6
  3 37  1  0
  3 38  1  0
  4 39  1  0
  4 40  1  0
  5 41  1  6
  8 42  1  0
  8 43  1  0
  8 44  1  0
  9 45  1  0
  9 46  1  0
  9 47  1  0
 10 48  1  6
 11 49  1  0
 11 50  1  0
 12 51  1  0
 12 52  1  0
 14 53  1  0
 14 54  1  0
 14 55  1  0
 15 56  1  1
 16 57  1  0
 16 58  1  0
 17 59  1  0
 19 60  1  6
 20 61  1  0
 20 62  1  0
 21 63  1  0
 21 64  1  0
 22 65  1  6
 23 66  1  0
 25 67  1  0
 25 68  1  0
 25 69  1  0
 26 70  1  0
 26 71  1  0
 26 72  1  0
 28 73  1  0
 28 74  1  0
 28 75  1  0
 29 76  1  0
 29 77  1  0
 30 78  1  0
 30 79  1  0
 32 80  1  0
 32 81  1  0
 32 82  1  0
M  END
>  <meeko>  (1) 
{"is_sidechain": [false], "intermolecular_energy": 2.731, "internal_energy": -0.839}

$$$$
EPH_relaxed_0001_pdb2pqr_Repair_254_r2_0001_out
     RDKit          3D

 82 86  0  0  0  0  0  0  0  0999 V2000
   -5.0090    8.5580   -0.4990 C   0  0  0  0  0  0  0  0  0  0  0  0
   -5.3460    7.4630   -1.5150 C   0  0  2  0  0  0  0  0  0  0  0  0
   -4.3420    7.4260   -2.6840 C   0  0  0  0  0  0  0  0  0  0  0  0
   -2.9060    7.1150   -2.2540 C   0  0  0  0  0  0  0  0  0  0  0  0
   -1.9540    8.1900   -2.6830 C   0  0  2  0  0  0  0  0  0  0  0  0
   -0.5900    7.9690   -2.3010 O   0  0  0  0  0  0  0  0  0  0  0  0
   -1.2360    9.1090   -1.7120 C   0  0  0  0  0  0  0  0  0  0  0  0
   -1.4420    8.9960   -0.2340 C   0  0  0  0  0  0  0  0  0  0  0  0
   -0.7210   10.4210   -2.2160 C   0  0  0  0  0  0  0  0  0  0  0  0
   -6.7600    7.6650   -2.0480 C   0  0  1  0  0  0  0  0  0  0  0  0
   -6.9860    6.9760   -3.4200 C   0  0  0  0  0  0  0  0  0  0  0  0
   -8.4520    6.4740   -3.4320 C   0  0  0  0  0  0  0  0  0  0  0  0
   -9.1140    7.1730   -2.2210 C   0  0  1  0  0  0  0  0  0  0  0  0
   -9.4680    8.6060   -2.7290 C   0  0  0  0  0  0  0  0  0  0  0  0
  -10.3590    6.4560   -1.6050 C   0  0  2  0  0  0  0  0  0  0  0  0
  -11.5650    6.3140   -2.5500 C   0  0  0  0  0  0  0  0  0  0  0  0
  -12.5440    7.4400   -2.5080 C   0  0  0  0  0  0  0  0  0  0  0  0
  -12.6140    8.3800   -1.5470 C   0  0  0  0  0  0  0  0  0  0  0  0
  -11.7080    8.3110   -0.3100 C   0  0  1  0  0  0  0  0  0  0  0  0
  -12.5540    8.5630    0.9660 C   0  0  0  0  0  0  0  0  0  0  0  0
  -13.3460    9.8650    0.8940 C   0  0  0  0  0  0  0  0  0  0  0  0
  -14.2770    9.8720   -0.3150 C   0  0  2  0  0  0  0  0  0  0  0  0
  -15.2870    8.8750   -0.1260 O   0  0  0  0  0  0  0  0  0  0  0  0
  -13.5380    9.6180   -1.6590 C   0  0  0  0  0  0  0  0  0  0  0  0
  -12.6640   10.8460   -2.0130 C   0  0  0  0  0  0  0  0  0  0  0  0
  -14.6070    9.5080   -2.7790 C   0  0  0  0  0  0  0  0  0  0  0  0
  -10.7950    7.0160   -0.1910 C   0  0  1  0  0  0  0  0  0  0  0  0
  -11.5850    5.8720    0.5170 C   0  0  0  0  0  0  0  0  0  0  0  0
   -9.5610    7.3400    0.7310 C   0  0  0  0  0  0  0  0  0  0  0  0
   -8.3180    7.9360    0.0440 C   0  0  0  0  0  0  0  0  0  0  0  0
   -7.9280    7.1180   -1.1900 C   0  0  2  0  0  0  0  0  0  0  0  0
   -7.5460    5.6770   -0.7080 C   0  0  0  0  0  0  0  0  0  0  0  0
   -5.1307    8.1625    0.5202 H   0  0  0  0  0  0  0  0  0  0  0  0
   -3.9687    8.8848   -0.6437 H   0  0  0  0  0  0  0  0  0  0  0  0
   -5.6855    9.4132   -0.6437 H   0  0  0  0  0  0  0  0  0  0  0  0
   -5.2802    6.4967   -0.9935 H   0  0  0  0  0  0  0  0  0  0  0  0
   -4.6664    6.6525   -3.3957 H   0  0  0  0  0  0  0  0  0  0  0  0
   -4.3326    8.4311   -3.1309 H   0  0  0  0  0  0  0  0  0  0  0  0
   -2.8733    7.0264   -1.1581 H   0  0  0  0  0  0  0  0  0  0  0  0
   -2.6001    6.1741   -2.7348 H   0  0  0  0  0  0  0  0  0  0  0  0
   -2.5509    8.3911   -3.5848 H   0  0  0  0  0  0  0  0  0  0  0  0
   -0.5945    9.4609    0.2909 H   0  0  0  0  0  0  0  0  0  0  0  0
   -2.3734    9.5095    0.0467 H   0  0  0  0  0  0  0  0  0  0  0  0
   -1.5095    7.9346    0.0467 H   0  0  0  0  0  0  0  0  0  0  0  0
   -0.4673   11.0674   -1.3629 H   0  0  0  0  0  0  0  0  0  0  0  0
    0.1774   10.2517   -2.8277 H   0  0  0  0  0  0  0  0  0  0  0  0
   -1.4947   10.9080   -2.8277 H   0  0  0  0  0  0  0  0  0  0  0  0
   -6.7929    8.7643   -2.0709 H   0  0  0  0  0  0  0  0  0  0  0  0
   -6.8253    7.6956   -4.2363 H   0  0  0  0  0  0  0  0  0  0  0  0
   -6.2821    6.1431   -3.5644 H   0  0  0  0  0  0  0  0  0  0  0  0
   -8.9532    6.7615   -4.3680 H   0  0  0  0  0  0  0  0  0  0  0  0
   -8.5180    5.3778   -3.3682 H   0  0  0  0  0  0  0  0  0  0  0  0
   -9.6321    9.2702   -1.8677 H   0  0  0  0  0  0  0  0  0  0  0  0
   -8.6387    8.9942   -3.3386 H   0  0  0  0  0  0  0  0  0  0  0  0
  -10.3826    8.5634   -3.3386 H   0  0  0  0  0  0  0  0  0  0  0  0
   -9.9860    5.4340   -1.4426 H   0  0  0  0  0  0  0  0  0  0  0  0
  -11.1833    6.2337   -3.5785 H   0  0  0  0  0  0  0  0  0  0  0  0
  -12.1127    5.4218   -2.2124 H   0  0  0  0  0  0  0  0  0  0  0  0
  -13.2696    7.5073   -3.3320 H   0  0  0  0  0  0  0  0  0  0  0  0
  -10.9664    9.1144   -0.4308 H   0  0  0  0  0  0  0  0  0  0  0  0
  -13.2587    7.7279    1.0927 H   0  0  0  0  0  0  0  0  0  0  0  0
  -11.8610    8.6399    1.8168 H   0  0  0  0  0  0  0  0  0  0  0  0
  -13.9452    9.9728    1.8102 H   0  0  0  0  0  0  0  0  0  0  0  0
  -12.6380   10.7012    0.7962 H   0  0  0  0  0  0  0  0  0  0  0  0
  -14.7188   10.8770   -0.3845 H   0  0  0  0  0  0  0  0  0  0  0  0
  -15.2400    8.2620   -0.8790 H   0  0  0  0  0  0  0  0  0  0  0  0
  -12.3195   11.3300   -1.0872 H   0  0  0  0  0  0  0  0  0  0  0  0
  -11.7940   10.5194   -2.6016 H   0  0  0  0  0  0  0  0  0  0  0  0
  -13.2575   11.5610   -2.6016 H   0  0  0  0  0  0  0  0  0  0  0  0
  -15.6039    9.4054   -2.3255 H   0  0  0  0  0  0  0  0  0  0  0  0
  -14.5793   10.4137   -3.4026 H   0  0  0  0  0  0  0  0  0  0  0  0
  -14.3954    8.6269   -3.4026 H   0  0  0  0  0  0  0  0  0  0  0  0
  -11.5032    5.9904    1.6075 H   0  0  0  0  0  0  0  0  0  0  0  0
  -12.6434    5.9199    0.2213 H   0  0  0  0  0  0  0  0  0  0  0  0
  -11.1653    4.8991    0.2213 H   0  0  0  0  0  0  0  0  0  0  0  0
   -9.8955    8.0578    1.4945 H   0  0  0  0  0  0  0  0  0  0  0  0
   -9.2330    6.3668    1.1252 H   0  0  0  0  0  0  0  0  0  0  0  0
   -8.5377    8.9689   -0.2638 H   0  0  0  0  0  0  0  0  0  0  0  0
   -7.4803    7.9162    0.7567 H   0  0  0  0  0  0  0  0  0  0  0  0
   -7.5384    5.6482    0.3916 H   0  0  0  0  0  0  0  0  0  0  0  0
   -8.2839    4.9554   -1.0886 H   0  0  0  0  0  0  0  0  0  0  0  0
   -6.5476    5.4157   -1.0886 H   0  0  0  0  0  0  0  0  0  0  0  0
  1  2  1  0
  2  3  1  0
  3  4  1  0
  4  5  1  0
  5  6  1  0
  6  7  1  0
  7  8  1  0
  7  9  1  0
  2 10  1  0
 10 11  1  0
 11 12  1  0
 12 13  1  0
 13 14  1  6
 13 15  1  0
 15 16  1  0
 16 17  1  0
 17 18  2  0
 18 19  1  0
 19 20  1  0
 20 21  1  0
 21 22  1  0
 22 23  1  0
 22 24  1  0
 24 25  1  0
 24 26  1  0
 19 27  1  0
 27 28  1  1
 27 29  1  0
 29 30  1  0
 30 31  1  0
 31 32  1  1
  7  5  1  0
 31 10  1  0
 31 13  1  0
 27 15  1  0
 24 18  1  0
  1 33  1  0
  1 34  1  0
  1 35  1  0
  2 36  1  1
  3 37  1  0
  3 38  1  0
  4 39  1  0
  4 40  1  0
  5 41  1  6
  8 42  1  0
  8 43  1  0
  8 44  1  0
  9 45  1  0
  9 46  1  0
  9 47  1  0
 10 48  1  6
 11 49  1  0
 11 50  1  0
 12 51  1  0
 12 52  1  0
 14 53  1  0
 14 54  1  0
 14 55  1  0
 15 56  1  1
 16 57  1  0
 16 58  1  0
 17 59  1  0
 19 60  1  6
 20 61  1  0
 20 62  1  0
 21 63  1  0
 21 64  1  0
 22 65  1  6
 23 66  1  0
 25 67  1  0
 25 68  1  0
 25 69  1  0
 26 70  1  0
 26 71  1  0
 26 72  1  0
 28 73  1  0
 28 74  1  0
 28 75  1  0
 29 76  1  0
 29 77  1  0
 30 78  1  0
 30 79  1  0
 32 80  1  0
 32 81  1  0
 32 82  1  0
M  END
>  <meeko>  (2) 
{"is_sidechain": [false], "intermolecular_energy": 2.731, "internal_energy": -0.839}

$$$$
EPH_relaxed_0001_pdb2pqr_Repair_254_r2_0001_out
     RDKit          3D

 82 86  0  0  0  0  0  0  0  0999 V2000
   -2.5070    7.8200   -0.0900 C   0  0  0  0  0  0  0  0  0  0  0  0
   -3.1320    9.2180   -0.1050 C   0  0  2  0  0  0  0  0  0  0  0  0
   -4.6110    9.1880   -0.5380 C   0  0  0  0  0  0  0  0  0  0  0  0
   -5.2270    7.7860   -0.5290 C   0  0  0  0  0  0  0  0  0  0  0  0
   -5.9280    7.4800   -1.8180 C   0  0  2  0  0  0  0  0  0  0  0  0
   -6.8810    8.4680   -2.2310 O   0  0  0  0  0  0  0  0  0  0  0  0
   -7.4100    7.1700   -1.9120 C   0  0  0  0  0  0  0  0  0  0  0  0
   -8.2810    7.1500   -0.6950 C   0  0  0  0  0  0  0  0  0  0  0  0
   -7.9090    6.4140   -3.1030 C   0  0  0  0  0  0  0  0  0  0  0  0
   -2.3370   10.1320   -1.0290 C   0  0  1  0  0  0  0  0  0  0  0  0
   -2.9490   11.5550   -1.1330 C   0  0  0  0  0  0  0  0  0  0  0  0
   -1.7630   12.5430   -1.2740 C   0  0  0  0  0  0  0  0  0  0  0  0
   -0.5410   11.6450   -1.5800 C   0  0  1  0  0  0  0  0  0  0  0  0
   -0.6370   11.3440   -3.1090 C   0  0  0  0  0  0  0  0  0  0  0  0
    0.8580   12.2250   -1.1930 C   0  0  2  0  0  0  0  0  0  0  0  0
    1.2560   13.5150   -1.9320 C   0  0  0  0  0  0  0  0  0  0  0  0
    2.0060   13.3130   -3.2070 C   0  0  0  0  0  0  0  0  0  0  0  0
    2.5930   12.1660   -3.5960 C   0  0  0  0  0  0  0  0  0  0  0  0
    2.6200   10.9420   -2.6720 C   0  0  1  0  0  0  0  0  0  0  0  0
    4.0490   10.3400   -2.6520 C   0  0  0  0  0  0  0  0  0  0  0  0
    4.5720   10.0270   -4.0510 C   0  0  0  0  0  0  0  0  0  0  0  0
    4.5850   11.2810   -4.9210 C   0  0  2  0  0  0  0  0  0  0  0  0
    5.5530   12.1950   -4.3990 O   0  0  0  0  0  0  0  0  0  0  0  0
    3.2000   11.9800   -5.0090 C   0  0  0  0  0  0  0  0  0  0  0  0
    2.2290   11.1090   -5.8440 C   0  0  0  0  0  0  0  0  0  0  0  0
    3.3820   13.3050   -5.7980 C   0  0  0  0  0  0  0  0  0  0  0  0
    2.0290   11.1620   -1.2130 C   0  0  1  0  0  0  0  0  0  0  0  0
    3.1410   11.7060   -0.2660 C   0  0  0  0  0  0  0  0  0  0  0  0
    1.5850    9.7710   -0.6240 C   0  0  0  0  0  0  0  0  0  0  0  0
    0.1510    9.3070   -0.9420 C   0  0  0  0  0  0  0  0  0  0  0  0
   -0.8620   10.4190   -0.6500 C   0  0  2  0  0  0  0  0  0  0  0  0
   -0.8040   10.7270    0.8850 C   0  0  0  0  0  0  0  0  0  0  0  0
   -2.3615    7.4946    0.9506 H   0  0  0  0  0  0  0  0  0  0  0  0
   -3.1752    7.1141   -0.6049 H   0  0  0  0  0  0  0  0  0  0  0  0
   -1.5353    7.8472   -0.6049 H   0  0  0  0  0  0  0  0  0  0  0  0
   -3.0973    9.6075    0.9232 H   0  0  0  0  0  0  0  0  0  0  0  0
   -5.1871    9.8248    0.1495 H   0  0  0  0  0  0  0  0  0  0  0  0
   -4.6493    9.5492   -1.5763 H   0  0  0  0  0  0  0  0  0  0  0  0
   -4.4277    7.0464   -0.3737 H   0  0  0  0  0  0  0  0  0  0  0  0
   -5.9679    7.7423    0.2829 H   0  0  0  0  0  0  0  0  0  0  0  0
   -5.0396    6.9586   -2.2039 H   0  0  0  0  0  0  0  0  0  0  0  0
   -7.6513    7.1645    0.2068 H   0  0  0  0  0  0  0  0  0  0  0  0
   -8.9365    8.0333   -0.6987 H   0  0  0  0  0  0  0  0  0  0  0  0
   -8.8953    6.2375   -0.6987 H   0  0  0  0  0  0  0  0  0  0  0  0
   -8.4860    5.5398   -2.7670 H   0  0  0  0  0  0  0  0  0  0  0  0
   -8.5535    7.0680   -3.7088 H   0  0  0  0  0  0  0  0  0  0  0  0
   -7.0543    6.0784   -3.7088 H   0  0  0  0  0  0  0  0  0  0  0  0
   -2.3792    9.5394   -1.9548 H   0  0  0  0  0  0  0  0  0  0  0  0
   -3.6045   11.6219   -2.0138 H   0  0  0  0  0  0  0  0  0  0  0  0
   -3.5552   11.7899   -0.2457 H   0  0  0  0  0  0  0  0  0  0  0  0
   -1.9419   13.2493   -2.0981 H   0  0  0  0  0  0  0  0  0  0  0  0
   -1.6173   13.1515   -0.3693 H   0  0  0  0  0  0  0  0  0  0  0  0
   -0.9682   10.3057   -3.2582 H   0  0  0  0  0  0  0  0  0  0  0  0
   -1.3609   12.0300   -3.5730 H   0  0  0  0  0  0  0  0  0  0  0  0
    0.3504   11.4842   -3.5730 H   0  0  0  0  0  0  0  0  0  0  0  0
    0.7105   12.5158   -0.1424 H   0  0  0  0  0  0  0  0  0  0  0  0
    0.3361   14.0721   -2.1632 H   0  0  0  0  0  0  0  0  0  0  0  0
    1.9391   14.0535   -1.2587 H   0  0  0  0  0  0  0  0  0  0  0  0
    2.0856   14.1747   -3.8861 H   0  0  0  0  0  0  0  0  0  0  0  0
    1.9162   10.2168   -3.1064 H   0  0  0  0  0  0  0  0  0  0  0  0
    4.7287   11.0612   -2.1747 H   0  0  0  0  0  0  0  0  0  0  0  0
    4.0048    9.3938   -2.0927 H   0  0  0  0  0  0  0  0  0  0  0  0
    5.5958    9.6324   -3.9728 H   0  0  0  0  0  0  0  0  0  0  0  0
    3.9080    9.2835   -4.5161 H   0  0  0  0  0  0  0  0  0  0  0  0
    4.8445   10.9697   -5.9436 H   0  0  0  0  0  0  0  0  0  0  0  0
    5.9670   12.6490   -5.1530 H   0  0  0  0  0  0  0  0  0  0  0  0
    1.5829   10.5294   -5.1682 H   0  0  0  0  0  0  0  0  0  0  0  0
    1.6075   11.7580   -6.4784 H   0  0  0  0  0  0  0  0  0  0  0  0
    2.8070   10.4209   -6.4784 H   0  0  0  0  0  0  0  0  0  0  0  0
    3.4967   14.1399   -5.0911 H   0  0  0  0  0  0  0  0  0  0  0  0
    4.2789   13.2346   -6.4309 H   0  0  0  0  0  0  0  0  0  0  0  0
    2.4993   13.4791   -6.4309 H   0  0  0  0  0  0  0  0  0  0  0  0
    2.8366   11.5571    0.7805 H   0  0  0  0  0  0  0  0  0  0  0  0
    4.0803   11.1657   -0.4551 H   0  0  0  0  0  0  0  0  0  0  0  0
    3.2909   12.7792   -0.4551 H   0  0  0  0  0  0  0  0  0  0  0  0
    2.2755    9.0088   -1.0143 H   0  0  0  0  0  0  0  0  0  0  0  0
    1.6098    9.9002    0.4681 H   0  0  0  0  0  0  0  0  0  0  0  0
    0.0887    9.0335   -2.0056 H   0  0  0  0  0  0  0  0  0  0  0  0
   -0.0864    8.4404   -0.3074 H   0  0  0  0  0  0  0  0  0  0  0  0
   -0.9785    9.8005    1.4517 H   0  0  0  0  0  0  0  0  0  0  0  0
    0.1862   11.1322    1.1405 H   0  0  0  0  0  0  0  0  0  0  0  0
   -1.5790   11.4646    1.1405 H   0  0  0  0  0  0  0  0  0  0  0  0
  1  2  1  0
  2  3  1  0
  3  4  1  0
  4  5  1  0
  5  6  1  0
  6  7  1  0
  7  8  1  0
  7  9  1  0
  2 10  1  0
 10 11  1  0
 11 12  1  0
 12 13  1  0
 13 14  1  6
 13 15  1  0
 15 16  1  0
 16 17  1  0
 17 18  2  0
 18 19  1  0
 19 20  1  0
 20 21  1  0
 21 22  1  0
 22 23  1  0
 22 24  1  0
 24 25  1  0
 24 26  1  0
 19 27  1  0
 27 28  1  1
 27 29  1  0
 29 30  1  0
 30 31  1  0
 31 32  1  1
  7  5  1  0
 31 10  1  0
 31 13  1  0
 27 15  1  0
 24 18  1  0
  1 33  1  0
  1 34  1  0
  1 35  1  0
  2 36  1  1
  3 37  1  0
  3 38  1  0
  4 39  1  0
  4 40  1  0
  5 41  1  6
  8 42  1  0
  8 43  1  0
  8 44  1  0
  9 45  1  0
  9 46  1  0
  9 47  1  0
 10 48  1  6
 11 49  1  0
 11 50  1  0
 12 51  1  0
 12 52  1  0
 14 53  1  0
 14 54  1  0
 14 55  1  0
 15 56  1  1
 16 57  1  0
 16 58  1  0
 17 59  1  0
 19 60  1  6
 20 61  1  0
 20 62  1  0
 21 63  1  0
 21 64  1  0
 22 65  1  6
 23 66  1  0
 25 67  1  0
 25 68  1  0
 25 69  1  0
 26 70  1  0
 26 71  1  0
 26 72  1  0
 28 73  1  0
 28 74  1  0
 28 75  1  0
 29 76  1  0
 29 77  1  0
 30 78  1  0
 30 79  1  0
 32 80  1  0
 32 81  1  0
 32 82  1  0
M  END
>  <meeko>  (3) 
{"is_sidechain": [false], "intermolecular_energy": 2.731, "internal_energy": -0.839}

$$$$
EPH_relaxed_0001_pdb2pqr_Repair_254_r2_0001_out
     RDKit          3D

 82 86  0  0  0  0  0  0  0  0999 V2000
   -4.6230    6.9650   -2.7960 C   0  0  0  0  0  0  0  0  0  0  0  0
   -5.0570    7.6530   -1.4990 C   0  0  2  0  0  0  0  0  0  0  0  0
   -6.5330    8.0960   -1.5410 C   0  0  0  0  0  0  0  0  0  0  0  0
   -7.5260    6.9300   -1.5230 C   0  0  0  0  0  0  0  0  0  0  0  0
   -8.3730    6.9430   -0.2860 C   0  0  2  0  0  0  0  0  0  0  0  0
   -9.3740    5.9180   -0.2360 O   0  0  0  0  0  0  0  0  0  0  0  0
   -9.8550    7.2710   -0.2910 C   0  0  0  0  0  0  0  0  0  0  0  0
  -10.5750    7.6100   -1.5590 C   0  0  0  0  0  0  0  0  0  0  0  0
  -10.4880    7.7380    0.9820 C   0  0  0  0  0  0  0  0  0  0  0  0
   -4.1600    8.8540   -1.2230 C   0  0  1  0  0  0  0  0  0  0  0  0
   -4.5980    9.6500    0.0350 C   0  0  0  0  0  0  0  0  0  0  0  0
   -3.3020   10.1760    0.7040 C   0  0  0  0  0  0  0  0  0  0  0  0
   -2.1980    9.9550   -0.3560 C   0  0  1  0  0  0  0  0  0  0  0  0
   -2.3330   11.1630   -1.3340 C   0  0  0  0  0  0  0  0  0  0  0  0
   -0.7380    9.8120    0.1860 C   0  0  2  0  0  0  0  0  0  0  0  0
   -0.1900   11.0480    0.9190 C   0  0  0  0  0  0  0  0  0  0  0  0
    0.5260   12.0350    0.0570 C   0  0  0  0  0  0  0  0  0  0  0  0
    0.9710   11.8040   -1.1920 C   0  0  0  0  0  0  0  0  0  0  0  0
    0.8540   10.4120   -1.8250 C   0  0  1  0  0  0  0  0  0  0  0  0
    2.2010   10.0320   -2.4940 C   0  0  0  0  0  0  0  0  0  0  0  0
    2.6790   11.0860   -3.4880 C   0  0  0  0  0  0  0  0  0  0  0  0
    2.8390   12.4430   -2.8080 C   0  0  2  0  0  0  0  0  0  0  0  0
    3.9120   12.3620   -1.8640 O   0  0  0  0  0  0  0  0  0  0  0  0
    1.5470   12.9260   -2.0910 C   0  0  0  0  0  0  0  0  0  0  0  0
    0.4770   13.3030   -3.1450 C   0  0  0  0  0  0  0  0  0  0  0  0
    1.8850   14.2360   -1.3280 C   0  0  0  0  0  0  0  0  0  0  0  0
    0.2970    9.2640   -0.8770 C   0  0  1  0  0  0  0  0  0  0  0  0
    1.4690    8.6260   -0.0700 C   0  0  0  0  0  0  0  0  0  0  0  0
   -0.3090    8.1130   -1.7650 C   0  0  0  0  0  0  0  0  0  0  0  0
   -1.7890    8.2530   -2.1680 C   0  0  0  0  0  0  0  0  0  0  0  0
   -2.6610    8.5750   -0.9510 C   0  0  2  0  0  0  0  0  0  0  0  0
   -2.5620    7.3670    0.0420 C   0  0  0  0  0  0  0  0  0  0  0  0
   -4.0503    6.0571   -2.5556 H   0  0  0  0  0  0  0  0  0  0  0  0
   -5.5131    6.6926   -3.3821 H   0  0  0  0  0  0  0  0  0  0  0  0
   -3.9938    7.6510   -3.3821 H   0  0  0  0  0  0  0  0  0  0  0  0
   -4.9568    6.9189   -0.6859 H   0  0  0  0  0  0  0  0  0  0  0  0
   -6.7295    8.7331   -0.6661 H   0  0  0  0  0  0  0  0  0  0  0  0
   -6.6816    8.6304   -2.4909 H   0  0  0  0  0  0  0  0  0  0  0  0
   -8.1803    7.0052   -2.4040 H   0  0  0  0  0  0  0  0  0  0  0  0
   -6.9531    5.9910   -1.5369 H   0  0  0  0  0  0  0  0  0  0  0  0
   -7.5344    7.3266    0.3137 H   0  0  0  0  0  0  0  0  0  0  0  0
  -11.5461    8.0672   -1.3183 H   0  0  0  0  0  0  0  0  0  0  0  0
   -9.9714    8.3185   -2.1452 H   0  0  0  0  0  0  0  0  0  0  0  0
  -10.7366    6.6934   -2.1452 H   0  0  0  0  0  0  0  0  0  0  0  0
   -9.9332    7.3287    1.8391 H   0  0  0  0  0  0  0  0  0  0  0  0
  -10.4649    8.8371    1.0213 H   0  0  0  0  0  0  0  0  0  0  0  0
  -11.5313    7.3916    1.0213 H   0  0  0  0  0  0  0  0  0  0  0  0
   -4.2748    9.3923   -2.1754 H   0  0  0  0  0  0  0  0  0  0  0  0
   -5.2434   10.4922   -0.2551 H   0  0  0  0  0  0  0  0  0  0  0  0
   -5.1695    9.0134    0.7265 H   0  0  0  0  0  0  0  0  0  0  0  0
   -3.3973   11.2443    0.9485 H   0  0  0  0  0  0  0  0  0  0  0  0
   -3.0815    9.6592    1.6497 H   0  0  0  0  0  0  0  0  0  0  0  0
   -2.4369   12.0930   -0.7558 H   0  0  0  0  0  0  0  0  0  0  0  0
   -1.4360   11.2236   -1.9679 H   0  0  0  0  0  0  0  0  0  0  0  0
   -3.2212   11.0241   -1.9679 H   0  0  0  0  0  0  0  0  0  0  0  0
   -0.8475    9.0334    0.9553 H   0  0  0  0  0  0  0  0  0  0  0  0
   -1.0367   11.5639    1.3954 H   0  0  0  0  0  0  0  0  0  0  0  0
    0.5556   10.6717    1.6349 H   0  0  0  0  0  0  0  0  0  0  0  0
    0.7048   13.0352    0.4784 H   0  0  0  0  0  0  0  0  0  0  0  0
    0.0674   10.4908   -2.5899 H   0  0  0  0  0  0  0  0  0  0  0  0
    2.9636    9.9155   -1.7098 H   0  0  0  0  0  0  0  0  0  0  0  0
    2.0450    9.0956   -3.0498 H   0  0  0  0  0  0  0  0  0  0  0  0
    3.6486   10.7751   -3.9041 H   0  0  0  0  0  0  0  0  0  0  0  0
    1.9299   11.1799   -4.2880 H   0  0  0  0  0  0  0  0  0  0  0  0
    3.0558   13.1818   -3.5936 H   0  0  0  0  0  0  0  0  0  0  0  0
    3.7000   11.6480   -1.2390 H   0  0  0  0  0  0  0  0  0  0  0  0
   -0.4421   13.6268   -2.6348 H   0  0  0  0  0  0  0  0  0  0  0  0
    0.8550   14.1221   -3.7745 H   0  0  0  0  0  0  0  0  0  0  0  0
    0.2581   12.4279   -3.7745 H   0  0  0  0  0  0  0  0  0  0  0  0
    1.8375   14.0519   -0.2445 H   0  0  0  0  0  0  0  0  0  0  0  0
    2.8981   14.5675   -1.5995 H   0  0  0  0  0  0  0  0  0  0  0  0
    1.1588   15.0163   -1.5995 H   0  0  0  0  0  0  0  0  0  0  0  0
    1.2732    8.7326    1.0072 H   0  0  0  0  0  0  0  0  0  0  0  0
    1.5508    7.5589   -0.3240 H   0  0  0  0  0  0  0  0  0  0  0  0
    2.4097    9.1365   -0.3240 H   0  0  0  0  0  0  0  0  0  0  0  0
    0.2841    8.0589   -2.6898 H   0  0  0  0  0  0  0  0  0  0  0  0
   -0.2659    7.2114   -1.1364 H   0  0  0  0  0  0  0  0  0  0  0  0
   -1.8860    9.0640   -2.9048 H   0  0  0  0  0  0  0  0  0  0  0  0
   -2.1268    7.2988   -2.5986 H   0  0  0  0  0  0  0  0  0  0  0  0
   -2.5925    7.7394    1.0766 H   0  0  0  0  0  0  0  0  0  0  0  0
   -3.4071    6.6834   -0.1267 H   0  0  0  0  0  0  0  0  0  0  0  0
   -1.6168    6.8301   -0.1267 H   0  0  0  0  0  0  0  0  0  0  0  0
  1  2  1  0
  2  3  1  0
  3  4  1  0
  4  5  1  0
  5  6  1  0
  6  7  1  0
  7  8  1  0
  7  9  1  0
  2 10  1  0
 10 11  1  0
 11 12  1  0
 12 13  1  0
 13 14  1  6
 13 15  1  0
 15 16  1  0
 16 17  1  0
 17 18  2  0
 18 19  1  0
 19 20  1  0
 20 21  1  0
 21 22  1  0
 22 23  1  0
 22 24  1  0
 24 25  1  0
 24 26  1  0
 19 27  1  0
 27 28  1  1
 27 29  1  0
 29 30  1  0
 30 31  1  0
 31 32  1  1
  7  5  1  0
 31 10  1  0
 31 13  1  0
 27 15  1  0
 24 18  1  0
  1 33  1  0
  1 34  1  0
  1 35  1  0
  2 36  1  1
  3 37  1  0
  3 38  1  0
  4 39  1  0
  4 40  1  0
  5 41  1  1
  8 42  1  0
  8 43  1  0
  8 44  1  0
  9 45  1  0
  9 46  1  0
  9 47  1  0
 10 48  1  6
 11 49  1  0
 11 50  1  0
 12 51  1  0
 12 52  1  0
 14 53  1  0
 14 54  1  0
 14 55  1  0
 15 56  1  1
 16 57  1  0
 16 58  1  0
 17 59  1  0
 19 60  1  6
 20 61  1  0
 20 62  1  0
 21 63  1  0
 21 64  1  0
 22 65  1  6
 23 66  1  0
 25 67  1  0
 25 68  1  0
 25 69  1  0
 26 70  1  0
 26 71  1  0
 26 72  1  0
 28 73  1  0
 28 74  1  0
 28 75  1  0
 29 76  1  0
 29 77  1  0
 30 78  1  0
 30 79  1  0
 32 80  1  0
 32 81  1  0
 32 82  1  0
M  END
>  <meeko>  (4) 
{"is_sidechain": [false], "intermolecular_energy": 2.731, "internal_energy": -0.839}

$$$$
EPH_relaxed_0001_pdb2pqr_Repair_254_r2_0001_out
     RDKit          3D

 82 86  0  0  0  0  0  0  0  0999 V2000
  -14.5590    6.1460   -0.2100 C   0  0  0  0  0  0  0  0  0  0  0  0
  -13.3830    7.0000    0.2720 C   0  0  2  0  0  0  0  0  0  0  0  0
  -13.8260    8.4180    0.6840 C   0  0  0  0  0  0  0  0  0  0  0  0
  -14.7930    9.0730   -0.3050 C   0  0  0  0  0  0  0  0  0  0  0  0
  -14.2540   10.3680   -0.8330 C   0  0  2  0  0  0  0  0  0  0  0  0
  -15.2510   11.3510   -1.1400 O   0  0  0  0  0  0  0  0  0  0  0  0
  -14.4870   10.8550   -2.2510 C   0  0  0  0  0  0  0  0  0  0  0  0
  -15.2870   10.0540   -3.2300 C   0  0  0  0  0  0  0  0  0  0  0  0
  -13.5390   11.8600   -2.8280 C   0  0  0  0  0  0  0  0  0  0  0  0
  -12.3200    7.0820   -0.8170 C   0  0  1  0  0  0  0  0  0  0  0  0
  -12.6230    8.1850   -1.8660 C   0  0  0  0  0  0  0  0  0  0  0  0
  -11.2560    8.7730   -2.3040 C   0  0  0  0  0  0  0  0  0  0  0  0
  -10.2090    7.7770   -1.7530 C   0  0  1  0  0  0  0  0  0  0  0  0
  -10.1820    6.6100   -2.7890 C   0  0  0  0  0  0  0  0  0  0  0  0
   -8.7780    8.3520   -1.4930 C   0  0  2  0  0  0  0  0  0  0  0  0
   -8.0490    8.8750   -2.7430 C   0  0  0  0  0  0  0  0  0  0  0  0
   -7.2090    7.8700   -3.4590 C   0  0  0  0  0  0  0  0  0  0  0  0
   -6.8180    6.6810   -2.9620 C   0  0  0  0  0  0  0  0  0  0  0  0
   -7.1430    6.2870   -1.5150 C   0  0  1  0  0  0  0  0  0  0  0  0
   -5.8730    5.7070   -0.8400 C   0  0  0  0  0  0  0  0  0  0  0  0
   -5.2610    4.5570   -1.6340 C   0  0  0  0  0  0  0  0  0  0  0  0
   -4.8980    5.0040   -3.0480 C   0  0  2  0  0  0  0  0  0  0  0  0
   -3.8370    5.9600   -2.9720 O   0  0  0  0  0  0  0  0  0  0  0  0
   -6.0980    5.6160   -3.8240 C   0  0  0  0  0  0  0  0  0  0  0  0
   -7.1160    4.5010   -4.1700 C   0  0  0  0  0  0  0  0  0  0  0  0
   -5.5660    6.1540   -5.1800 C   0  0  0  0  0  0  0  0  0  0  0  0
   -7.8460    7.4060   -0.6330 C   0  0  1  0  0  0  0  0  0  0  0  0
   -6.7680    8.3220    0.0240 C   0  0  0  0  0  0  0  0  0  0  0  0
   -8.6220    6.7160    0.5500 C   0  0  0  0  0  0  0  0  0  0  0  0
  -10.0720    6.2780    0.2680 C   0  0  0  0  0  0  0  0  0  0  0  0
  -10.8730    7.4140   -0.3750 C   0  0  2  0  0  0  0  0  0  0  0  0
  -10.9370    8.5950    0.6530 C   0  0  0  0  0  0  0  0  0  0  0  0
  -15.1048    5.7497    0.6590 H   0  0  0  0  0  0  0  0  0  0  0  0
  -15.2363    6.7641   -0.8176 H   0  0  0  0  0  0  0  0  0  0  0  0
  -14.1808    5.3107   -0.8176 H   0  0  0  0  0  0  0  0  0  0  0  0
  -12.9638    6.5129    1.1647 H   0  0  0  0  0  0  0  0  0  0  0  0
  -14.3213    8.3559    1.6642 H   0  0  0  0  0  0  0  0  0  0  0  0
  -12.9208    9.0425    0.7094 H   0  0  0  0  0  0  0  0  0  0  0  0
  -14.9600    8.3863   -1.1480 H   0  0  0  0  0  0  0  0  0  0  0  0
  -15.7339    9.2839    0.2244 H   0  0  0  0  0  0  0  0  0  0  0  0
  -13.3399   10.2601   -0.2307 H   0  0  0  0  0  0  0  0  0  0  0  0
  -15.9624    9.3778   -2.6854 H   0  0  0  0  0  0  0  0  0  0  0  0
  -15.8788   10.7324   -3.8621 H   0  0  0  0  0  0  0  0  0  0  0  0
  -14.6078    9.4631   -3.8621 H   0  0  0  0  0  0  0  0  0  0  0  0
  -13.0326   12.3969   -2.0123 H   0  0  0  0  0  0  0  0  0  0  0  0
  -12.7906   11.3445   -3.4478 H   0  0  0  0  0  0  0  0  0  0  0  0
  -14.0973   12.5770   -3.4478 H   0  0  0  0  0  0  0  0  0  0  0  0
  -12.3690    6.0520   -1.2001 H   0  0  0  0  0  0  0  0  0  0  0  0
  -13.1439    7.7512   -2.7323 H   0  0  0  0  0  0  0  0  0  0  0  0
  -13.2715    8.9659   -1.4422 H   0  0  0  0  0  0  0  0  0  0  0  0
  -11.1934    8.8354   -3.4004 H   0  0  0  0  0  0  0  0  0  0  0  0
  -11.1003    9.7941   -1.9256 H   0  0  0  0  0  0  0  0  0  0  0  0
  -10.1597    5.6476   -2.2567 H   0  0  0  0  0  0  0  0  0  0  0  0
  -11.0815    6.6592   -3.4202 H   0  0  0  0  0  0  0  0  0  0  0  0
   -9.2857    6.7007   -3.4202 H   0  0  0  0  0  0  0  0  0  0  0  0
   -8.9876    9.2386   -0.8765 H   0  0  0  0  0  0  0  0  0  0  0  0
   -8.8071    9.2479   -3.4474 H   0  0  0  0  0  0  0  0  0  0  0  0
   -7.3566    9.6526   -2.3882 H   0  0  0  0  0  0  0  0  0  0  0  0
   -6.8818    8.1218   -4.4786 H   0  0  0  0  0  0  0  0  0  0  0  0
   -7.9204    5.5112   -1.5777 H   0  0  0  0  0  0  0  0  0  0  0  0
   -5.1255    6.5087   -0.7477 H   0  0  0  0  0  0  0  0  0  0  0  0
   -6.1683    5.3132    0.1437 H   0  0  0  0  0  0  0  0  0  0  0  0
   -4.3519    4.2092   -1.1216 H   0  0  0  0  0  0  0  0  0  0  0  0
   -5.9990    3.7441   -1.7009 H   0  0  0  0  0  0  0  0  0  0  0  0
   -4.5865    4.1090   -3.6065 H   0  0  0  0  0  0  0  0  0  0  0  0
   -3.9080    6.4110   -2.1130 H   0  0  0  0  0  0  0  0  0  0  0  0
   -7.5132    4.0660   -3.2410 H   0  0  0  0  0  0  0  0  0  0  0  0
   -7.9422    4.9282   -4.7573 H   0  0  0  0  0  0  0  0  0  0  0  0
   -6.6156    3.7170   -4.7573 H   0  0  0  0  0  0  0  0  0  0  0  0
   -4.8036    6.9250   -4.9949 H   0  0  0  0  0  0  0  0  0  0  0  0
   -5.1201    5.3275   -5.7529 H   0  0  0  0  0  0  0  0  0  0  0  0
   -6.3974    6.5906   -5.7529 H   0  0  0  0  0  0  0  0  0  0  0  0
   -6.8475    8.2545    1.1190 H   0  0  0  0  0  0  0  0  0  0  0  0
   -5.7666    7.9943   -0.2918 H   0  0  0  0  0  0  0  0  0  0  0  0
   -6.9297    9.3632   -0.2918 H   0  0  0  0  0  0  0  0  0  0  0  0
   -8.0547    5.8201    0.8423 H   0  0  0  0  0  0  0  0  0  0  0  0
   -8.7009    7.4869    1.3307 H   0  0  0  0  0  0  0  0  0  0  0  0
  -10.0610    5.4149   -0.4138 H   0  0  0  0  0  0  0  0  0  0  0  0
  -10.5489    6.0092    1.2221 H   0  0  0  0  0  0  0  0  0  0  0  0
  -10.9152    8.1920    1.6763 H   0  0  0  0  0  0  0  0  0  0  0  0
  -10.0736    9.2596    0.5022 H   0  0  0  0  0  0  0  0  0  0  0  0
  -11.8672    9.1624    0.5022 H   0  0  0  0  0  0  0  0  0  0  0  0
  1  2  1  0
  2  3  1  0
  3  4  1  0
  4  5  1  0
  5  6  1  0
  6  7  1  0
  7  8  1  0
  7  9  1  0
  2 10  1  0
 10 11  1  0
 11 12  1  0
 12 13  1  0
 13 14  1  6
 13 15  1  0
 15 16  1  0
 16 17  1  0
 17 18  2  0
 18 19  1  0
 19 20  1  0
 20 21  1  0
 21 22  1  0
 22 23  1  0
 22 24  1  0
 24 25  1  0
 24 26  1  0
 19 27  1  0
 27 28  1  1
 27 29  1  0
 29 30  1  0
 30 31  1  0
 31 32  1  1
  7  5  1  0
 31 10  1  0
 31 13  1  0
 27 15  1  0
 24 18  1  0
  1 33  1  0
  1 34  1  0
  1 35  1  0
  2 36  1  1
  3 37  1  0
  3 38  1  0
  4 39  1  0
  4 40  1  0
  5 41  1  1
  8 42  1  0
  8 43  1  0
  8 44  1  0
  9 45  1  0
  9 46  1  0
  9 47  1  0
 10 48  1  6
 11 49  1  0
 11 50  1  0
 12 51  1  0
 12 52  1  0
 14 53  1  0
 14 54  1  0
 14 55  1  0
 15 56  1  1
 16 57  1  0
 16 58  1  0
 17 59  1  0
 19 60  1  6
 20 61  1  0
 20 62  1  0
 21 63  1  0
 21 64  1  0
 22 65  1  6
 23 66  1  0
 25 67  1  0
 25 68  1  0
 25 69  1  0
 26 70  1  0
 26 71  1  0
 26 72  1  0
 28 73  1  0
 28 74  1  0
 28 75  1  0
 29 76  1  0
 29 77  1  0
 30 78  1  0
 30 79  1  0
 32 80  1  0
 32 81  1  0
 32 82  1  0
M  END
>  <meeko>  (5) 
{"is_sidechain": [false], "intermolecular_energy": 2.731, "internal_energy": -0.839}

$$$$
EPH_relaxed_0001_pdb2pqr_Repair_254_r2_0001_out
     RDKit          3D

 82 86  0  0  0  0  0  0  0  0999 V2000
  -15.1350    8.9860    0.6560 C   0  0  0  0  0  0  0  0  0  0  0  0
  -14.2400    9.1740   -0.5720 C   0  0  2  0  0  0  0  0  0  0  0  0
  -14.5940    8.1890   -1.7040 C   0  0  0  0  0  0  0  0  0  0  0  0
  -14.6220    8.8330   -3.0930 C   0  0  0  0  0  0  0  0  0  0  0  0
  -15.2870   10.1760   -3.0680 C   0  0  2  0  0  0  0  0  0  0  0  0
  -14.9700   11.0220   -4.1810 O   0  0  0  0  0  0  0  0  0  0  0  0
  -14.5320   11.4800   -2.8910 C   0  0  0  0  0  0  0  0  0  0  0  0
  -13.0440   11.5040   -2.7270 C   0  0  0  0  0  0  0  0  0  0  0  0
  -15.2780   12.6780   -2.3910 C   0  0  0  0  0  0  0  0  0  0  0  0
  -12.7770    9.0110   -0.1780 C   0  0  1  0  0  0  0  0  0  0  0  0
  -12.5760    8.9400    1.3590 C   0  0  0  0  0  0  0  0  0  0  0  0
  -11.4010    7.9610    1.6120 C   0  0  0  0  0  0  0  0  0  0  0  0
  -10.7550    7.7590    0.2220 C   0  0  1  0  0  0  0  0  0  0  0  0
   -9.8370    9.0060    0.0220 C   0  0  0  0  0  0  0  0  0  0  0  0
   -9.9680    6.4240    0.0120 C   0  0  2  0  0  0  0  0  0  0  0  0
   -8.7470    6.2360    0.9280 C   0  0  0  0  0  0  0  0  0  0  0  0
   -7.4560    6.7530    0.3840 C   0  0  0  0  0  0  0  0  0  0  0  0
   -7.2260    7.0870   -0.8990 C   0  0  0  0  0  0  0  0  0  0  0  0
   -8.2960    6.8620   -1.9750 C   0  0  1  0  0  0  0  0  0  0  0  0
   -7.6480    6.1960   -3.2180 C   0  0  0  0  0  0  0  0  0  0  0  0
   -6.4490    6.9790   -3.7430 C   0  0  0  0  0  0  0  0  0  0  0  0
   -5.3820    7.1320   -2.6610 C   0  0  2  0  0  0  0  0  0  0  0  0
   -4.8370    5.8420   -2.3660 O   0  0  0  0  0  0  0  0  0  0  0  0
   -5.9200    7.7830   -1.3570 C   0  0  0  0  0  0  0  0  0  0  0  0
   -6.2300    9.2790   -1.6110 C   0  0  0  0  0  0  0  0  0  0  0  0
   -4.7820    7.7490   -0.3010 C   0  0  0  0  0  0  0  0  0  0  0  0
   -9.6130    6.1120   -1.4980 C   0  0  1  0  0  0  0  0  0  0  0  0
   -9.4120    4.5680   -1.5980 C   0  0  0  0  0  0  0  0  0  0  0  0
  -10.7930    6.4700   -2.4770 C   0  0  0  0  0  0  0  0  0  0  0  0
  -11.6080    7.7350   -2.1490 C   0  0  0  0  0  0  0  0  0  0  0  0
  -12.0420    7.7420   -0.6800 C   0  0  2  0  0  0  0  0  0  0  0  0
  -12.9850    6.5120   -0.4540 C   0  0  0  0  0  0  0  0  0  0  0  0
  -14.5353    9.1120    1.5695 H   0  0  0  0  0  0  0  0  0  0  0  0
  -15.9410    9.7344    0.6404 H   0  0  0  0  0  0  0  0  0  0  0  0
  -15.5717    7.9765    0.6404 H   0  0  0  0  0  0  0  0  0  0  0  0
  -14.4109   10.1912   -0.9542 H   0  0  0  0  0  0  0  0  0  0  0  0
  -13.8455    7.3829   -1.7098 H   0  0  0  0  0  0  0  0  0  0  0  0
  -15.6092    7.8171   -1.5012 H   0  0  0  0  0  0  0  0  0  0  0  0
  -13.5889    8.9534   -3.4510 H   0  0  0  0  0  0  0  0  0  0  0  0
  -15.1976    8.1777   -3.7633 H   0  0  0  0  0  0  0  0  0  0  0  0
  -16.1662    9.7573   -2.5564 H   0  0  0  0  0  0  0  0  0  0  0  0
  -12.7932   11.5080   -1.6560 H   0  0  0  0  0  0  0  0  0  0  0  0
  -12.6083   10.6128   -3.2023 H   0  0  0  0  0  0  0  0  0  0  0  0
  -12.6373   12.4088   -3.2023 H   0  0  0  0  0  0  0  0  0  0  0  0
  -15.2776   12.6774   -1.2910 H   0  0  0  0  0  0  0  0  0  0  0  0
  -14.7898   13.5931   -2.7573 H   0  0  0  0  0  0  0  0  0  0  0  0
  -16.3146   12.6436   -2.7573 H   0  0  0  0  0  0  0  0  0  0  0  0
  -12.3561    9.9057   -0.6600 H   0  0  0  0  0  0  0  0  0  0  0  0
  -12.3308    9.9364    1.7553 H   0  0  0  0  0  0  0  0  0  0  0  0
  -13.4920    8.5957    1.8615 H   0  0  0  0  0  0  0  0  0  0  0  0
  -10.6775    8.3967    2.3168 H   0  0  0  0  0  0  0  0  0  0  0  0
  -11.7367    7.0130    2.0576 H   0  0  0  0  0  0  0  0  0  0  0  0
   -9.5427    9.4058    1.0036 H   0  0  0  0  0  0  0  0  0  0  0  0
   -8.9375    8.7129   -0.5392 H   0  0  0  0  0  0  0  0  0  0  0  0
  -10.3841    9.7778   -0.5392 H   0  0  0  0  0  0  0  0  0  0  0  0
  -10.6988    5.6660    0.3305 H   0  0  0  0  0  0  0  0  0  0  0  0
   -8.9495    6.7568    1.8755 H   0  0  0  0  0  0  0  0  0  0  0  0
   -8.6161    5.1497    1.0416 H   0  0  0  0  0  0  0  0  0  0  0  0
   -6.6225    6.8708    1.0921 H   0  0  0  0  0  0  0  0  0  0  0  0
   -8.6745    7.8601   -2.2405 H   0  0  0  0  0  0  0  0  0  0  0  0
   -7.3153    5.1843   -2.9427 H   0  0  0  0  0  0  0  0  0  0  0  0
   -8.4051    6.1703   -4.0156 H   0  0  0  0  0  0  0  0  0  0  0  0
   -6.0172    6.4437   -4.6015 H   0  0  0  0  0  0  0  0  0  0  0  0
   -6.7885    7.9805   -4.0459 H   0  0  0  0  0  0  0  0  0  0  0  0
   -4.6094    7.8097   -3.0531 H   0  0  0  0  0  0  0  0  0  0  0  0
   -5.4290    5.4120   -1.7260 H   0  0  0  0  0  0  0  0  0  0  0  0
   -6.3379    9.7997   -0.6481 H   0  0  0  0  0  0  0  0  0  0  0  0
   -5.4067    9.7321   -2.1827 H   0  0  0  0  0  0  0  0  0  0  0  0
   -7.1656    9.3677   -2.1827 H   0  0  0  0  0  0  0  0  0  0  0  0
   -5.2182    7.7620    0.7087 H   0  0  0  0  0  0  0  0  0  0  0  0
   -4.1876    6.8327   -0.4318 H   0  0  0  0  0  0  0  0  0  0  0  0
   -4.1340    8.6282   -0.4318 H   0  0  0  0  0  0  0  0  0  0  0  0
   -9.3562    4.1392   -0.5865 H   0  0  0  0  0  0  0  0  0  0  0  0
  -10.2597    4.1222   -2.1390 H   0  0  0  0  0  0  0  0  0  0  0  0
   -8.4784    4.3540   -2.1390 H   0  0  0  0  0  0  0  0  0  0  0  0
  -10.3639    6.6017   -3.4812 H   0  0  0  0  0  0  0  0  0  0  0  0
  -11.5055    5.6369   -2.3857 H   0  0  0  0  0  0  0  0  0  0  0  0
  -10.9891    8.6228   -2.3456 H   0  0  0  0  0  0  0  0  0  0  0  0
  -12.5084    7.7457   -2.7808 H   0  0  0  0  0  0  0  0  0  0  0  0
  -13.1147    6.3428    0.6251 H   0  0  0  0  0  0  0  0  0  0  0  0
  -13.9641    6.7111   -0.9142 H   0  0  0  0  0  0  0  0  0  0  0  0
  -12.5385    5.6182   -0.9142 H   0  0  0  0  0  0  0  0  0  0  0  0
  1  2  1  0
  2  3  1  0
  3  4  1  0
  4  5  1  0
  5  6  1  0
  6  7  1  0
  7  8  1  0
  7  9  1  0
  2 10  1  0
 10 11  1  0
 11 12  1  0
 12 13  1  0
 13 14  1  6
 13 15  1  0
 15 16  1  0
 16 17  1  0
 17 18  2  0
 18 19  1  0
 19 20  1  0
 20 21  1  0
 21 22  1  0
 22 23  1  0
 22 24  1  0
 24 25  1  0
 24 26  1  0
 19 27  1  0
 27 28  1  1
 27 29  1  0
 29 30  1  0
 30 31  1  0
 31 32  1  1
  7  5  1  0
 31 10  1  0
 31 13  1  0
 27 15  1  0
 24 18  1  0
  1 33  1  0
  1 34  1  0
  1 35  1  0
  2 36  1  6
  3 37  1  0
  3 38  1  0
  4 39  1  0
  4 40  1  0
  5 41  1  1
  8 42  1  0
  8 43  1  0
  8 44  1  0
  9 45  1  0
  9 46  1  0
  9 47  1  0
 10 48  1  6
 11 49  1  0
 11 50  1  0
 12 51  1  0
 12 52  1  0
 14 53  1  0
 14 54  1  0
 14 55  1  0
 15 56  1  1
 16 57  1  0
 16 58  1  0
 17 59  1  0
 19 60  1  6
 20 61  1  0
 20 62  1  0
 21 63  1  0
 21 64  1  0
 22 65  1  6
 23 66  1  0
 25 67  1  0
 25 68  1  0
 25 69  1  0
 26 70  1  0
 26 71  1  0
 26 72  1  0
 28 73  1  0
 28 74  1  0
 28 75  1  0
 29 76  1  0
 29 77  1  0
 30 78  1  0
 30 79  1  0
 32 80  1  0
 32 81  1  0
 32 82  1  0
M  END
>  <meeko>  (6) 
{"is_sidechain": [false], "intermolecular_energy": 2.731, "internal_energy": -0.839}

$$$$
EPH_relaxed_0001_pdb2pqr_Repair_254_r2_0001_out
     RDKit          3D

 82 86  0  0  0  0  0  0  0  0999 V2000
    0.3810   14.9500   -6.7240 C   0  0  0  0  0  0  0  0  0  0  0  0
    1.7980   14.4640   -6.4090 C   0  0  2  0  0  0  0  0  0  0  0  0
    2.6480   14.2850   -7.6830 C   0  0  0  0  0  0  0  0  0  0  0  0
    2.8470   15.5790   -8.4770 C   0  0  0  0  0  0  0  0  0  0  0  0
    2.6750   15.3590   -9.9490 C   0  0  2  0  0  0  0  0  0  0  0  0
    2.2030   16.5010  -10.6750 O   0  0  0  0  0  0  0  0  0  0  0  0
    1.3270   15.3630  -10.6440 C   0  0  0  0  0  0  0  0  0  0  0  0
    0.0580   15.5910   -9.8840 C   0  0  0  0  0  0  0  0  0  0  0  0
    1.1990   14.6650  -11.9620 C   0  0  0  0  0  0  0  0  0  0  0  0
    1.7380   13.1520   -5.6350 C   0  0  1  0  0  0  0  0  0  0  0  0
    3.1080   12.4250   -5.5830 C   0  0  0  0  0  0  0  0  0  0  0  0
    3.1930   11.7290   -4.2000 C   0  0  0  0  0  0  0  0  0  0  0  0
    1.7530   11.7960   -3.6410 C   0  0  1  0  0  0  0  0  0  0  0  0
    0.9990   10.6160   -4.3300 C   0  0  0  0  0  0  0  0  0  0  0  0
    1.6130   11.7410   -2.0840 C   0  0  2  0  0  0  0  0  0  0  0  0
    2.1150   10.4420   -1.4300 C   0  0  0  0  0  0  0  0  0  0  0  0
    1.0920    9.3660   -1.2800 C   0  0  0  0  0  0  0  0  0  0  0  0
   -0.2390    9.5320   -1.3900 C   0  0  0  0  0  0  0  0  0  0  0  0
   -0.8450   10.9260   -1.5980 C   0  0  1  0  0  0  0  0  0  0  0  0
   -2.0450   11.1180   -0.6330 C   0  0  0  0  0  0  0  0  0  0  0  0
   -3.0820   10.0060   -0.7610 C   0  0  0  0  0  0  0  0  0  0  0  0
   -2.4540    8.6410   -0.4910 C   0  0  2  0  0  0  0  0  0  0  0  0
   -2.0630    8.5780    0.8840 O   0  0  0  0  0  0  0  0  0  0  0  0
   -1.2280    8.3400   -1.3980 C   0  0  0  0  0  0  0  0  0  0  0  0
   -1.7020    8.1110   -2.8540 C   0  0  0  0  0  0  0  0  0  0  0  0
   -0.6050    6.9980   -0.9270 C   0  0  0  0  0  0  0  0  0  0  0  0
    0.1790   12.1410   -1.5480 C   0  0  1  0  0  0  0  0  0  0  0  0
    0.3700   12.6150   -0.0750 C   0  0  0  0  0  0  0  0  0  0  0  0
   -0.4340   13.3620   -2.3310 C   0  0  0  0  0  0  0  0  0  0  0  0
   -0.1600   13.4230   -3.8460 C   0  0  0  0  0  0  0  0  0  0  0  0
    1.3300   13.2250   -4.1420 C   0  0  2  0  0  0  0  0  0  0  0  0
    2.1110   14.4110   -3.4800 C   0  0  0  0  0  0  0  0  0  0  0  0
   -0.1603   15.1356   -5.7846 H   0  0  0  0  0  0  0  0  0  0  0  0
    0.4339   15.8814   -7.3069 H   0  0  0  0  0  0  0  0  0  0  0  0
   -0.1489   14.1822   -7.3069 H   0  0  0  0  0  0  0  0  0  0  0  0
    2.2830   15.2367   -5.7945 H   0  0  0  0  0  0  0  0  0  0  0  0
    3.6366   13.9019   -7.3899 H   0  0  0  0  0  0  0  0  0  0  0  0
    2.1043   13.5871   -8.3367 H   0  0  0  0  0  0  0  0  0  0  0  0
    2.1091   16.3215   -8.1391 H   0  0  0  0  0  0  0  0  0  0  0  0
    3.8731   15.9342   -8.3014 H   0  0  0  0  0  0  0  0  0  0  0  0
    3.5099   14.6429   -9.9624 H   0  0  0  0  0  0  0  0  0  0  0  0
    0.2654   15.5537   -8.8044 H   0  0  0  0  0  0  0  0  0  0  0  0
   -0.3532   16.5774  -10.1445 H   0  0  0  0  0  0  0  0  0  0  0  0
   -0.6709   14.8094  -10.1445 H   0  0  0  0  0  0  0  0  0  0  0  0
    1.0029   13.5959  -11.7932 H   0  0  0  0  0  0  0  0  0  0  0  0
    0.3666   15.1051  -12.5307 H   0  0  0  0  0  0  0  0  0  0  0  0
    2.1334   14.7811  -12.5307 H   0  0  0  0  0  0  0  0  0  0  0  0
    0.9594   12.6329   -6.2133 H   0  0  0  0  0  0  0  0  0  0  0  0
    3.1710   11.6776   -6.3877 H   0  0  0  0  0  0  0  0  0  0  0  0
    3.9372   13.1348   -5.7195 H   0  0  0  0  0  0  0  0  0  0  0  0
    3.5186   10.6841   -4.3104 H   0  0  0  0  0  0  0  0  0  0  0  0
    3.9223   12.2127   -3.5335 H   0  0  0  0  0  0  0  0  0  0  0  0
    0.5753    9.9530   -3.5613 H   0  0  0  0  0  0  0  0  0  0  0  0
    0.1883   11.0153   -4.9572 H   0  0  0  0  0  0  0  0  0  0  0  0
    1.7019   10.0481   -4.9572 H   0  0  0  0  0  0  0  0  0  0  0  0
    2.3074   12.5286   -1.7562 H   0  0  0  0  0  0  0  0  0  0  0  0
    2.9359   10.0467   -2.0462 H   0  0  0  0  0  0  0  0  0  0  0  0
    2.4213   10.7144   -0.4092 H   0  0  0  0  0  0  0  0  0  0  0  0
    1.4566    8.3515   -1.0610 H   0  0  0  0  0  0  0  0  0  0  0  0
   -1.1962   10.9532   -2.6401 H   0  0  0  0  0  0  0  0  0  0  0  0
   -1.6680   11.1314    0.4003 H   0  0  0  0  0  0  0  0  0  0  0  0
   -2.5372   12.0658   -0.8965 H   0  0  0  0  0  0  0  0  0  0  0  0
   -3.8891   10.1810   -0.0345 H   0  0  0  0  0  0  0  0  0  0  0  0
   -3.4797   10.0130   -1.7866 H   0  0  0  0  0  0  0  0  0  0  0  0
   -3.2107    7.8775   -0.7243 H   0  0  0  0  0  0  0  0  0  0  0  0
   -2.0450    7.6410    1.1420 H   0  0  0  0  0  0  0  0  0  0  0  0
   -2.6924    7.6325   -2.8462 H   0  0  0  0  0  0  0  0  0  0  0  0
   -1.7659    9.0776   -3.3751 H   0  0  0  0  0  0  0  0  0  0  0  0
   -0.9845    7.4602   -3.3751 H   0  0  0  0  0  0  0  0  0  0  0  0
   -0.5903    6.9664    0.1724 H   0  0  0  0  0  0  0  0  0  0  0  0
   -1.2063    6.1602   -1.3099 H   0  0  0  0  0  0  0  0  0  0  0  0
    0.4230    6.9166   -1.3099 H   0  0  0  0  0  0  0  0  0  0  0  0
    0.0487   11.8177    0.6113 H   0  0  0  0  0  0  0  0  0  0  0  0
    1.4311   12.8452    0.1014 H   0  0  0  0  0  0  0  0  0  0  0  0
   -0.2350   13.5166    0.1014 H   0  0  0  0  0  0  0  0  0  0  0  0
   -1.5247   13.3337   -2.1908 H   0  0  0  0  0  0  0  0  0  0  0  0
    0.0612   14.2506   -1.9126 H   0  0  0  0  0  0  0  0  0  0  0  0
   -0.7350   12.6308   -4.3479 H   0  0  0  0  0  0  0  0  0  0  0  0
   -0.4630   14.4130   -4.2177 H   0  0  0  0  0  0  0  0  0  0  0  0
    2.0528   14.3226   -2.3851 H   0  0  0  0  0  0  0  0  0  0  0  0
    3.1644   14.3776   -3.7951 H   0  0  0  0  0  0  0  0  0  0  0  0
    1.6642   15.3655   -3.7951 H   0  0  0  0  0  0  0  0  0  0  0  0
  1  2  1  0
  2  3  1  0
  3  4  1  0
  4  5  1  0
  5  6  1  0
  6  7  1  0
  7  8  1  0
  7  9  1  0
  2 10  1  0
 10 11  1  0
 11 12  1  0
 12 13  1  0
 13 14  1  6
 13 15  1  0
 15 16  1  0
 16 17  1  0
 17 18  2  0
 18 19  1  0
 19 20  1  0
 20 21  1  0
 21 22  1  0
 22 23  1  0
 22 24  1  0
 24 25  1  0
 24 26  1  0
 19 27  1  0
 27 28  1  1
 27 29  1  0
 29 30  1  0
 30 31  1  0
 31 32  1  1
  7  5  1  0
 31 10  1  0
 31 13  1  0
 27 15  1  0
 24 18  1  0
  1 33  1  0
  1 34  1  0
  1 35  1  0
  2 36  1  1
  3 37  1  0
  3 38  1  0
  4 39  1  0
  4 40  1  0
  5 41  1  6
  8 42  1  0
  8 43  1  0
  8 44  1  0
  9 45  1  0
  9 46  1  0
  9 47  1  0
 10 48  1  6
 11 49  1  0
 11 50  1  0
 12 51  1  0
 12 52  1  0
 14 53  1  0
 14 54  1  0
 14 55  1  0
 15 56  1  1
 16 57  1  0
 16 58  1  0
 17 59  1  0
 19 60  1  6
 20 61  1  0
 20 62  1  0
 21 63  1  0
 21 64  1  0
 22 65  1  1
 23 66  1  0
 25 67  1  0
 25 68  1  0
 25 69  1  0
 26 70  1  0
 26 71  1  0
 26 72  1  0
 28 73  1  0
 28 74  1  0
 28 75  1  0
 29 76  1  0
 29 77  1  0
 30 78  1  0
 30 79  1  0
 32 80  1  0
 32 81  1  0
 32 82  1  0
M  END
>  <meeko>  (7) 
{"is_sidechain": [false], "intermolecular_energy": 2.731, "internal_energy": -0.839}

$$$$
EPH_relaxed_0001_pdb2pqr_Repair_254_r2_0001_out
     RDKit          3D

 82 86  0  0  0  0  0  0  0  0999 V2000
   -2.4150   14.5720   -0.8260 C   0  0  0  0  0  0  0  0  0  0  0  0
   -1.7080   14.2600    0.4960 C   0  0  2  0  0  0  0  0  0  0  0  0
   -1.4510   15.5300    1.3320 C   0  0  0  0  0  0  0  0  0  0  0  0
   -1.9990   16.8080    0.6920 C   0  0  0  0  0  0  0  0  0  0  0  0
   -0.9580   17.8850    0.6250 C   0  0  2  0  0  0  0  0  0  0  0  0
   -1.0770   18.8960    1.6340 O   0  0  0  0  0  0  0  0  0  0  0  0
   -1.2690   19.3290    0.2780 C   0  0  0  0  0  0  0  0  0  0  0  0
   -2.6650   19.7750   -0.0270 C   0  0  0  0  0  0  0  0  0  0  0  0
   -0.1630   20.1930   -0.2410 C   0  0  0  0  0  0  0  0  0  0  0  0
   -0.3930   13.5390    0.2250 C   0  0  1  0  0  0  0  0  0  0  0  0
    0.0190   12.5920    1.3830 C   0  0  0  0  0  0  0  0  0  0  0  0
    0.7210   11.3710    0.7340 C   0  0  0  0  0  0  0  0  0  0  0  0
    0.9850   11.8040   -0.7270 C   0  0  1  0  0  0  0  0  0  0  0  0
    2.2800   12.6720   -0.6600 C   0  0  0  0  0  0  0  0  0  0  0  0
    1.1150   10.6520   -1.7760 C   0  0  2  0  0  0  0  0  0  0  0  0
    2.2920    9.6880   -1.5440 C   0  0  0  0  0  0  0  0  0  0  0  0
    3.5690   10.0670   -2.2180 C   0  0  0  0  0  0  0  0  0  0  0  0
    3.6930   10.9750   -3.2040 C   0  0  0  0  0  0  0  0  0  0  0  0
    2.4590   11.6580   -3.8070 C   0  0  1  0  0  0  0  0  0  0  0  0
    2.5610   11.6390   -5.3550 C   0  0  0  0  0  0  0  0  0  0  0  0
    3.8670   12.2420   -5.8620 C   0  0  0  0  0  0  0  0  0  0  0  0
    5.0700   11.5000   -5.2870 C   0  0  2  0  0  0  0  0  0  0  0  0
    5.0870   10.1700   -5.8150 O   0  0  0  0  0  0  0  0  0  0  0  0
    5.0710   11.4450   -3.7330 C   0  0  0  0  0  0  0  0  0  0  0  0
    5.3550   12.8560   -3.1630 C   0  0  0  0  0  0  0  0  0  0  0  0
    6.2580   10.5490   -3.2880 C   0  0  0  0  0  0  0  0  0  0  0  0
    1.0520   11.1360   -3.2810 C   0  0  1  0  0  0  0  0  0  0  0  0
    0.5910    9.9080   -4.1250 C   0  0  0  0  0  0  0  0  0  0  0  0
   -0.0280   12.2590   -3.5040 C   0  0  0  0  0  0  0  0  0  0  0  0
   -0.1930   13.2980   -2.3790 C   0  0  0  0  0  0  0  0  0  0  0  0
   -0.3320   12.6130   -1.0160 C   0  0  2  0  0  0  0  0  0  0  0  0
   -1.6390   11.7500   -1.0450 C   0  0  0  0  0  0  0  0  0  0  0  0
   -3.4034   15.0082   -0.6192 H   0  0  0  0  0  0  0  0  0  0  0  0
   -1.8121   15.2877   -1.4042 H   0  0  0  0  0  0  0  0  0  0  0  0
   -2.5373   13.6443   -1.4042 H   0  0  0  0  0  0  0  0  0  0  0  0
   -2.3744   13.6096    1.0816 H   0  0  0  0  0  0  0  0  0  0  0  0
   -1.9280   15.4015    2.3148 H   0  0  0  0  0  0  0  0  0  0  0  0
   -0.3602   15.6502    1.4080 H   0  0  0  0  0  0  0  0  0  0  0  0
   -2.3400   16.5779   -0.3282 H   0  0  0  0  0  0  0  0  0  0  0  0
   -2.8306   17.1730    1.3127 H   0  0  0  0  0  0  0  0  0  0  0  0
   -0.2153   17.1752    0.2319 H   0  0  0  0  0  0  0  0  0  0  0  0
   -3.2082   19.9486    0.9136 H   0  0  0  0  0  0  0  0  0  0  0  0
   -2.6330   20.7076   -0.6094 H   0  0  0  0  0  0  0  0  0  0  0  0
   -3.1796   18.9965   -0.6094 H   0  0  0  0  0  0  0  0  0  0  0  0
    0.3915   20.6262    0.6045 H   0  0  0  0  0  0  0  0  0  0  0  0
    0.5192   19.5862   -0.8545 H   0  0  0  0  0  0  0  0  0  0  0  0
   -0.5866   21.0018   -0.8545 H   0  0  0  0  0  0  0  0  0  0  0  0
    0.2664   14.4073    0.0793 H   0  0  0  0  0  0  0  0  0  0  0  0
    0.7101   13.1074    2.0662 H   0  0  0  0  0  0  0  0  0  0  0  0
   -0.8582   12.2784    1.9679 H   0  0  0  0  0  0  0  0  0  0  0  0
    1.6666   11.1473    1.2496 H   0  0  0  0  0  0  0  0  0  0  0  0
    0.1106   10.4579    0.7947 H   0  0  0  0  0  0  0  0  0  0  0  0
    2.5473   12.8512    0.3919 H   0  0  0  0  0  0  0  0  0  0  0  0
    3.1029   12.1423   -1.1623 H   0  0  0  0  0  0  0  0  0  0  0  0
    2.1027   13.6344   -1.1623 H   0  0  0  0  0  0  0  0  0  0  0  0
    0.2051   10.0618   -1.5924 H   0  0  0  0  0  0  0  0  0  0  0  0
    2.4811    9.6368   -0.4616 H   0  0  0  0  0  0  0  0  0  0  0  0
    1.9892    8.7265   -1.9843 H   0  0  0  0  0  0  0  0  0  0  0  0
    4.4859    9.5617   -1.8805 H   0  0  0  0  0  0  0  0  0  0  0  0
    2.4782   12.6966   -3.4450 H   0  0  0  0  0  0  0  0  0  0  0  0
    2.4965   10.5965   -5.7000 H   0  0  0  0  0  0  0  0  0  0  0  0
    1.7355   12.2482   -5.7517 H   0  0  0  0  0  0  0  0  0  0  0  0
    3.8929   12.1736   -6.9596 H   0  0  0  0  0  0  0  0  0  0  0  0
    3.9164   13.2929   -5.5407 H   0  0  0  0  0  0  0  0  0  0  0  0
    5.9720   12.0563   -5.5818 H   0  0  0  0  0  0  0  0  0  0  0  0
    4.2940    9.7130   -5.4880 H   0  0  0  0  0  0  0  0  0  0  0  0
    5.3469   12.8158   -2.0638 H   0  0  0  0  0  0  0  0  0  0  0  0
    6.3404   13.2002   -3.5101 H   0  0  0  0  0  0  0  0  0  0  0  0
    4.5795   13.5546   -3.5101 H   0  0  0  0  0  0  0  0  0  0  0  0
    6.3011   10.5165   -2.1893 H   0  0  0  0  0  0  0  0  0  0  0  0
    6.1159    9.5310   -3.6797 H   0  0  0  0  0  0  0  0  0  0  0  0
    7.1981   10.9647   -3.6797 H   0  0  0  0  0  0  0  0  0  0  0  0
    0.2854    9.0939   -3.4513 H   0  0  0  0  0  0  0  0  0  0  0  0
   -0.2596   10.1977   -4.7595 H   0  0  0  0  0  0  0  0  0  0  0  0
    1.4221    9.5664   -4.7595 H   0  0  0  0  0  0  0  0  0  0  0  0
    0.2417   12.8023   -4.4217 H   0  0  0  0  0  0  0  0  0  0  0  0
   -0.9902   11.7278   -3.5482 H   0  0  0  0  0  0  0  0  0  0  0  0
    0.6894   13.9546   -2.3634 H   0  0  0  0  0  0  0  0  0  0  0  0
   -1.1046   13.8825   -2.5724 H   0  0  0  0  0  0  0  0  0  0  0  0
   -1.9609   11.5374   -0.0149 H   0  0  0  0  0  0  0  0  0  0  0  0
   -2.4318   12.3028   -1.5702 H   0  0  0  0  0  0  0  0  0  0  0  0
   -1.4420   10.8038   -1.5702 H   0  0  0  0  0  0  0  0  0  0  0  0
  1  2  1  0
  2  3  1  0
  3  4  1  0
  4  5  1  0
  5  6  1  0
  6  7  1  0
  7  8  1  0
  7  9  1  0
  2 10  1  0
 10 11  1  0
 11 12  1  0
 12 13  1  0
 13 14  1  1
 13 15  1  0
 15 16  1  0
 16 17  1  0
 17 18  2  0
 18 19  1  0
 19 20  1  0
 20 21  1  0
 21 22  1  0
 22 23  1  0
 22 24  1  0
 24 25  1  0
 24 26  1  0
 19 27  1  0
 27 28  1  6
 27 29  1  0
 29 30  1  0
 30 31  1  0
 31 32  1  6
  7  5  1  0
 31 10  1  0
 31 13  1  0
 27 15  1  0
 24 18  1  0
  1 33  1  0
  1 34  1  0
  1 35  1  0
  2 36  1  1
  3 37  1  0
  3 38  1  0
  4 39  1  0
  4 40  1  0
  5 41  1  6
  8 42  1  0
  8 43  1  0
  8 44  1  0
  9 45  1  0
  9 46  1  0
  9 47  1  0
 10 48  1  6
 11 49  1  0
 11 50  1  0
 12 51  1  0
 12 52  1  0
 14 53  1  0
 14 54  1  0
 14 55  1  0
 15 56  1  1
 16 57  1  0
 16 58  1  0
 17 59  1  0
 19 60  1  1
 20 61  1  0
 20 62  1  0
 21 63  1  0
 21 64  1  0
 22 65  1  6
 23 66  1  0
 25 67  1  0
 25 68  1  0
 25 69  1  0
 26 70  1  0
 26 71  1  0
 26 72  1  0
 28 73  1  0
 28 74  1  0
 28 75  1  0
 29 76  1  0
 29 77  1  0
 30 78  1  0
 30 79  1  0
 32 80  1  0
 32 81  1  0
 32 82  1  0
M  END
>  <meeko>  (8) 
{"is_sidechain": [false], "intermolecular_energy": 2.731, "internal_energy": -0.839}

$$$$
EPH_relaxed_0001_pdb2pqr_Repair_254_r2_0001_out
     RDKit          3D

 82 86  0  0  0  0  0  0  0  0999 V2000
  -14.1900    9.7100    0.6390 C   0  0  0  0  0  0  0  0  0  0  0  0
  -13.4580    9.2600   -0.6290 C   0  0  2  0  0  0  0  0  0  0  0  0
  -14.3140    8.3070   -1.4870 C   0  0  0  0  0  0  0  0  0  0  0  0
  -14.5950    8.8340   -2.8970 C   0  0  0  0  0  0  0  0  0  0  0  0
  -15.2870   10.1630   -2.8640 C   0  0  2  0  0  0  0  0  0  0  0  0
  -15.1080   10.9600   -4.0420 O   0  0  0  0  0  0  0  0  0  0  0  0
  -14.5510   11.4890   -2.8280 C   0  0  0  0  0  0  0  0  0  0  0  0
  -13.0560   11.5510   -2.8220 C   0  0  0  0  0  0  0  0  0  0  0  0
  -15.2720   12.6940   -2.3090 C   0  0  0  0  0  0  0  0  0  0  0  0
  -12.1420    8.5850   -0.2570 C   0  0  1  0  0  0  0  0  0  0  0  0
  -12.3160    7.4990    0.8370 C   0  0  0  0  0  0  0  0  0  0  0  0
  -11.2980    6.3740    0.5160 C   0  0  0  0  0  0  0  0  0  0  0  0
  -10.3550    6.9920   -0.5420 C   0  0  1  0  0  0  0  0  0  0  0  0
   -9.3400    7.8490    0.2780 C   0  0  0  0  0  0  0  0  0  0  0  0
   -9.6260    5.9850   -1.4900 C   0  0  2  0  0  0  0  0  0  0  0  0
   -8.6700    5.0040   -0.7890 C   0  0  0  0  0  0  0  0  0  0  0  0
   -7.2580    5.4710   -0.6610 C   0  0  0  0  0  0  0  0  0  0  0  0
   -6.7100    6.4990   -1.3360 C   0  0  0  0  0  0  0  0  0  0  0  0
   -7.5060    7.2490   -2.4120 C   0  0  1  0  0  0  0  0  0  0  0  0
   -6.6250    7.4300   -3.6760 C   0  0  0  0  0  0  0  0  0  0  0  0
   -5.2890    8.0980   -3.3670 C   0  0  0  0  0  0  0  0  0  0  0  0
   -4.5010    7.2930   -2.3370 C   0  0  2  0  0  0  0  0  0  0  0  0
   -4.1230    6.0420   -2.9210 O   0  0  0  0  0  0  0  0  0  0  0  0
   -5.2920    7.0380   -1.0230 C   0  0  0  0  0  0  0  0  0  0  0  0
   -5.4390    8.3650   -0.2390 C   0  0  0  0  0  0  0  0  0  0  0  0
   -4.4410    6.0970   -0.1280 C   0  0  0  0  0  0  0  0  0  0  0  0
   -8.9420    6.6590   -2.7480 C   0  0  1  0  0  0  0  0  0  0  0  0
   -8.8200    5.5480   -3.8360 C   0  0  0  0  0  0  0  0  0  0  0  0
   -9.8320    7.7970   -3.3750 C   0  0  0  0  0  0  0  0  0  0  0  0
  -10.6210    8.6820   -2.3910 C   0  0  0  0  0  0  0  0  0  0  0  0
  -11.3900    7.8270   -1.3800 C   0  0  2  0  0  0  0  0  0  0  0  0
  -12.4340    6.9700   -2.1730 C   0  0  0  0  0  0  0  0  0  0  0  0
  -13.6338    9.3681    1.5243 H   0  0  0  0  0  0  0  0  0  0  0  0
  -14.2606   10.8077    0.6516 H   0  0  0  0  0  0  0  0  0  0  0  0
  -15.2013    9.2774    0.6516 H   0  0  0  0  0  0  0  0  0  0  0  0
  -13.2587   10.1580   -1.2323 H   0  0  0  0  0  0  0  0  0  0  0  0
  -13.7838    7.3472   -1.5741 H   0  0  0  0  0  0  0  0  0  0  0  0
  -15.2859    8.2049   -0.9821 H   0  0  0  0  0  0  0  0  0  0  0  0
  -13.6411    8.9420   -3.4340 H   0  0  0  0  0  0  0  0  0  0  0  0
  -15.2548    8.1162   -3.4063 H   0  0  0  0  0  0  0  0  0  0  0  0
  -16.0974    9.7522   -2.2439 H   0  0  0  0  0  0  0  0  0  0  0  0
  -12.6938   11.5660   -1.7834 H   0  0  0  0  0  0  0  0  0  0  0  0
  -12.6504   10.6689   -3.3391 H   0  0  0  0  0  0  0  0  0  0  0  0
  -12.7248   12.4637   -3.3391 H   0  0  0  0  0  0  0  0  0  0  0  0
  -15.2640   12.6806   -1.2091 H   0  0  0  0  0  0  0  0  0  0  0  0
  -14.7702   13.6045   -2.6683 H   0  0  0  0  0  0  0  0  0  0  0  0
  -16.3116   12.6822   -2.6683 H   0  0  0  0  0  0  0  0  0  0  0  0
  -11.5633    9.4672    0.0542 H   0  0  0  0  0  0  0  0  0  0  0  0
  -12.1094    7.9249    1.8299 H   0  0  0  0  0  0  0  0  0  0  0  0
  -13.3448    7.1098    0.8473 H   0  0  0  0  0  0  0  0  0  0  0  0
  -10.7363    6.0895    1.4180 H   0  0  0  0  0  0  0  0  0  0  0  0
  -11.7884    5.4584    0.1539 H   0  0  0  0  0  0  0  0  0  0  0  0
   -9.5178    7.6989    1.3531 H   0  0  0  0  0  0  0  0  0  0  0  0
   -8.3141    7.5398    0.0293 H   0  0  0  0  0  0  0  0  0  0  0  0
   -9.4729    8.9123    0.0293 H   0  0  0  0  0  0  0  0  0  0  0  0
  -10.4577    5.3725   -1.8683 H   0  0  0  0  0  0  0  0  0  0  0  0
   -9.0585    4.8152    0.2226 H   0  0  0  0  0  0  0  0  0  0  0  0
   -8.6370    4.1058   -1.4232 H   0  0  0  0  0  0  0  0  0  0  0  0
   -6.6105    4.9295    0.0444 H   0  0  0  0  0  0  0  0  0  0  0  0
   -7.7476    8.2323   -1.9822 H   0  0  0  0  0  0  0  0  0  0  0  0
   -6.4311    6.4404   -4.1154 H   0  0  0  0  0  0  0  0  0  0  0  0
   -7.1712    8.0825   -4.3731 H   0  0  0  0  0  0  0  0  0  0  0  0
   -4.7004    8.1711   -4.2934 H   0  0  0  0  0  0  0  0  0  0  0  0
   -5.4844    9.0990   -2.9550 H   0  0  0  0  0  0  0  0  0  0  0  0
   -3.6168    7.8863   -2.0609 H   0  0  0  0  0  0  0  0  0  0  0  0
   -3.1560    6.0430   -3.0170 H   0  0  0  0  0  0  0  0  0  0  0  0
   -5.4160    8.1573    0.8410 H   0  0  0  0  0  0  0  0  0  0  0  0
   -4.6100    9.0391   -0.5005 H   0  0  0  0  0  0  0  0  0  0  0  0
   -6.3954    8.8414   -0.5005 H   0  0  0  0  0  0  0  0  0  0  0  0
   -4.6410    6.3182    0.9308 H   0  0  0  0  0  0  0  0  0  0  0  0
   -4.7057    5.0507   -0.3404 H   0  0  0  0  0  0  0  0  0  0  0  0
   -3.3734    6.2555   -0.3404 H   0  0  0  0  0  0  0  0  0  0  0  0
   -8.7124    4.5678   -3.3486 H   0  0  0  0  0  0  0  0  0  0  0  0
   -9.7236    5.5483   -4.4633 H   0  0  0  0  0  0  0  0  0  0  0  0
   -7.9380    5.7444   -4.4633 H   0  0  0  0  0  0  0  0  0  0  0  0
   -9.1700    8.4548   -3.9572 H   0  0  0  0  0  0  0  0  0  0  0  0
  -10.5961    7.2722   -3.9671 H   0  0  0  0  0  0  0  0  0  0  0  0
   -9.9187    9.3337   -1.8506 H   0  0  0  0  0  0  0  0  0  0  0  0
  -11.3431    9.2838   -2.9623 H   0  0  0  0  0  0  0  0  0  0  0  0
  -13.0842    6.4362   -1.4643 H   0  0  0  0  0  0  0  0  0  0  0  0
  -13.0453    7.6302   -2.8058 H   0  0  0  0  0  0  0  0  0  0  0  0
  -11.9056    6.2417   -2.8058 H   0  0  0  0  0  0  0  0  0  0  0  0
  1  2  1  0
  2  3  1  0
  3  4  1  0
  4  5  1  0
  5  6  1  0
  6  7  1  0
  7  8  1  0
  7  9  1  0
  2 10  1  0
 10 11  1  0
 11 12  1  0
 12 13  1  0
 13 14  1  1
 13 15  1  0
 15 16  1  0
 16 17  1  0
 17 18  2  0
 18 19  1  0
 19 20  1  0
 20 21  1  0
 21 22  1  0
 22 23  1  0
 22 24  1  0
 24 25  1  0
 24 26  1  0
 19 27  1  0
 27 28  1  6
 27 29  1  0
 29 30  1  0
 30 31  1  0
 31 32  1  6
  7  5  1  0
 31 10  1  0
 31 13  1  0
 27 15  1  0
 24 18  1  0
  1 33  1  0
  1 34  1  0
  1 35  1  0
  2 36  1  6
  3 37  1  0
  3 38  1  0
  4 39  1  0
  4 40  1  0
  5 41  1  1
  8 42  1  0
  8 43  1  0
  8 44  1  0
  9 45  1  0
  9 46  1  0
  9 47  1  0
 10 48  1  1
 11 49  1  0
 11 50  1  0
 12 51  1  0
 12 52  1  0
 14 53  1  0
 14 54  1  0
 14 55  1  0
 15 56  1  6
 16 57  1  0
 16 58  1  0
 17 59  1  0
 19 60  1  1
 20 61  1  0
 20 62  1  0
 21 63  1  0
 21 64  1  0
 22 65  1  1
 23 66  1  0
 25 67  1  0
 25 68  1  0
 25 69  1  0
 26 70  1  0
 26 71  1  0
 26 72  1  0
 28 73  1  0
 28 74  1  0
 28 75  1  0
 29 76  1  0
 29 77  1  0
 30 78  1  0
 30 79  1  0
 32 80  1  0
 32 81  1  0
 32 82  1  0
M  END
>  <meeko>  (9) 
{"is_sidechain": [false], "intermolecular_energy": 2.731, "internal_energy": -0.839}

$$$$
EPH_relaxed_0001_pdb2pqr_Repair_254_r2_0001_out
     RDKit          3D

 82 86  0  0  0  0  0  0  0  0999 V2000
    3.3860   14.2170   -7.4760 C   0  0  0  0  0  0  0  0  0  0  0  0
    1.9600   13.7440   -7.1780 C   0  0  2  0  0  0  0  0  0  0  0  0
    1.0300   14.9120   -6.7930 C   0  0  0  0  0  0  0  0  0  0  0  0
    0.6560   15.8150   -7.9720 C   0  0  0  0  0  0  0  0  0  0  0  0
    1.7900   15.9570   -8.9420 C   0  0  2  0  0  0  0  0  0  0  0  0
    1.5550   16.8900  -10.0050 O   0  0  0  0  0  0  0  0  0  0  0  0
    1.7110   15.5150  -10.3920 C   0  0  0  0  0  0  0  0  0  0  0  0
    0.4690   14.8970  -10.9520 C   0  0  0  0  0  0  0  0  0  0  0  0
    2.9850   15.2360  -11.1250 C   0  0  0  0  0  0  0  0  0  0  0  0
    1.9800   12.7050   -6.0630 C   0  0  1  0  0  0  0  0  0  0  0  0
    3.4150   12.2300   -5.7130 C   0  0  0  0  0  0  0  0  0  0  0  0
    3.4400   11.9660   -4.1860 C   0  0  0  0  0  0  0  0  0  0  0  0
    1.9520   11.9740   -3.7650 C   0  0  1  0  0  0  0  0  0  0  0  0
    1.4230   10.5510   -4.1300 C   0  0  0  0  0  0  0  0  0  0  0  0
    1.6580   12.3330   -2.2720 C   0  0  2  0  0  0  0  0  0  0  0  0
    2.2440   11.3560   -1.2380 C   0  0  0  0  0  0  0  0  0  0  0  0
    1.3490   10.2260   -0.8490 C   0  0  0  0  0  0  0  0  0  0  0  0
    0.0270   10.1580   -1.0900 C   0  0  0  0  0  0  0  0  0  0  0  0
   -0.7190   11.3350   -1.7310 C   0  0  1  0  0  0  0  0  0  0  0  0
   -2.0270   11.6100   -0.9430 C   0  0  0  0  0  0  0  0  0  0  0  0
   -2.9020   10.3670   -0.8110 C   0  0  0  0  0  0  0  0  0  0  0  0
   -2.1450    9.2380   -0.1170 C   0  0  2  0  0  0  0  0  0  0  0  0
   -1.8940    9.6170    1.2400 O   0  0  0  0  0  0  0  0  0  0  0  0
   -0.8040    8.8800   -0.8160 C   0  0  0  0  0  0  0  0  0  0  0  0
   -1.0920    8.1880   -2.1710 C   0  0  0  0  0  0  0  0  0  0  0  0
   -0.0740    7.8280    0.0620 C   0  0  0  0  0  0  0  0  0  0  0  0
    0.1380   12.6520   -1.9680 C   0  0  1  0  0  0  0  0  0  0  0  0
    0.1170   13.5400   -0.6870 C   0  0  0  0  0  0  0  0  0  0  0  0
   -0.5340   13.5040   -3.1100 C   0  0  0  0  0  0  0  0  0  0  0  0
   -0.1130   13.1820   -4.5560 C   0  0  0  0  0  0  0  0  0  0  0  0
    1.4120   13.1290   -4.6850 C   0  0  2  0  0  0  0  0  0  0  0  0
    1.9710   14.5530   -4.3450 C   0  0  0  0  0  0  0  0  0  0  0  0
    3.9189   14.3938   -6.5301 H   0  0  0  0  0  0  0  0  0  0  0  0
    3.9144   13.4460   -8.0560 H   0  0  0  0  0  0  0  0  0  0  0  0
    3.3489   15.1509   -8.0560 H   0  0  0  0  0  0  0  0  0  0  0  0
    1.5609   13.2937   -8.0988 H   0  0  0  0  0  0  0  0  0  0  0  0
    0.1052   14.4942   -6.3684 H   0  0  0  0  0  0  0  0  0  0  0  0
    1.5785   15.5355   -6.0716 H   0  0  0  0  0  0  0  0  0  0  0  0
   -0.2081   15.3793   -8.4949 H   0  0  0  0  0  0  0  0  0  0  0  0
    0.4150   16.8130   -7.5771 H   0  0  0  0  0  0  0  0  0  0  0  0
    2.5251   15.7568   -8.1486 H   0  0  0  0  0  0  0  0  0  0  0  0
   -0.1830   14.5726  -10.1276 H   0  0  0  0  0  0  0  0  0  0  0  0
   -0.0617   15.6361  -11.5701 H   0  0  0  0  0  0  0  0  0  0  0  0
    0.7385   14.0279  -11.5701 H   0  0  0  0  0  0  0  0  0  0  0  0
    3.7936   15.0589  -10.4006 H   0  0  0  0  0  0  0  0  0  0  0  0
    2.8569   14.3446  -11.7567 H   0  0  0  0  0  0  0  0  0  0  0  0
    3.2412   16.0993  -11.7567 H   0  0  0  0  0  0  0  0  0  0  0  0
    1.3354   11.9375   -6.5162 H   0  0  0  0  0  0  0  0  0  0  0  0
    3.6521   11.3061   -6.2609 H   0  0  0  0  0  0  0  0  0  0  0  0
    4.1610   12.9878   -5.9946 H   0  0  0  0  0  0  0  0  0  0  0  0
    3.9002   10.9910   -3.9679 H   0  0  0  0  0  0  0  0  0  0  0  0
    4.0317   12.7171   -3.6422 H   0  0  0  0  0  0  0  0  0  0  0  0
    1.2143    9.9896   -3.2074 H   0  0  0  0  0  0  0  0  0  0  0  0
    0.4992   10.6434   -4.7199 H   0  0  0  0  0  0  0  0  0  0  0  0
    2.1829   10.0175   -4.7199 H   0  0  0  0  0  0  0  0  0  0  0  0
    2.2134   13.2737   -2.1432 H   0  0  0  0  0  0  0  0  0  0  0  0
    3.1667   10.9295   -1.6583 H   0  0  0  0  0  0  0  0  0  0  0  0
    2.4072   11.9437   -0.3226 H   0  0  0  0  0  0  0  0  0  0  0  0
    1.8091    9.3778   -0.3210 H   0  0  0  0  0  0  0  0  0  0  0  0
   -0.9603   11.0197   -2.7569 H   0  0  0  0  0  0  0  0  0  0  0  0
   -1.7639   11.9648    0.0644 H   0  0  0  0  0  0  0  0  0  0  0  0
   -2.6007   12.3649   -1.5007 H   0  0  0  0  0  0  0  0  0  0  0  0
   -3.7959   10.6171   -0.2207 H   0  0  0  0  0  0  0  0  0  0  0  0
   -3.1880   10.0305   -1.8185 H   0  0  0  0  0  0  0  0  0  0  0  0
   -2.7754    8.3380   -0.1678 H   0  0  0  0  0  0  0  0  0  0  0  0
   -1.2360    9.0000    1.6010 H   0  0  0  0  0  0  0  0  0  0  0  0
   -1.5089    7.1863   -1.9898 H   0  0  0  0  0  0  0  0  0  0  0  0
   -1.8150    8.7882   -2.7428 H   0  0  0  0  0  0  0  0  0  0  0  0
   -0.1566    8.0980   -2.7428 H   0  0  0  0  0  0  0  0  0  0  0  0
   -0.2360    8.0614    1.1247 H   0  0  0  0  0  0  0  0  0  0  0  0
   -0.4723    6.8266   -0.1583 H   0  0  0  0  0  0  0  0  0  0  0  0
    1.0035    7.8507   -0.1583 H   0  0  0  0  0  0  0  0  0  0  0  0
    0.1322   12.8969    0.2053 H   0  0  0  0  0  0  0  0  0  0  0  0
    0.9999   14.1961   -0.6812 H   0  0  0  0  0  0  0  0  0  0  0  0
   -0.7959   14.1536   -0.6812 H   0  0  0  0  0  0  0  0  0  0  0  0
   -1.6217   13.3561   -3.0393 H   0  0  0  0  0  0  0  0  0  0  0  0
   -0.1968   14.5363   -2.9352 H   0  0  0  0  0  0  0  0  0  0  0  0
   -0.5324   12.2067   -4.8440 H   0  0  0  0  0  0  0  0  0  0  0  0
   -0.4931   13.9753   -5.2164 H   0  0  0  0  0  0  0  0  0  0  0  0
    2.0196   14.6767   -3.2531 H   0  0  0  0  0  0  0  0  0  0  0  0
    2.9789   14.6627   -4.7716 H   0  0  0  0  0  0  0  0  0  0  0  0
    1.3069   15.3191   -4.7716 H   0  0  0  0  0  0  0  0  0  0  0  0
  1  2  1  0
  2  3  1  0
  3  4  1  0
  4  5  1  0
  5  6  1  0
  6  7  1  0
  7  8  1  0
  7  9  1  0
  2 10  1  0
 10 11  1  0
 11 12  1  0
 12 13  1  0
 13 14  1  6
 13 15  1  0
 15 16  1  0
 16 17  1  0
 17 18  2  0
 18 19  1  0
 19 20  1  0
 20 21  1  0
 21 22  1  0
 22 23  1  0
 22 24  1  0
 24 25  1  0
 24 26  1  0
 19 27  1  0
 27 28  1  1
 27 29  1  0
 29 30  1  0
 30 31  1  0
 31 32  1  1
  7  5  1  0
 31 10  1  0
 31 13  1  0
 27 15  1  0
 24 18  1  0
  1 33  1  0
  1 34  1  0
  1 35  1  0
  2 36  1  6
  3 37  1  0
  3 38  1  0
  4 39  1  0
  4 40  1  0
  5 41  1  1
  8 42  1  0
  8 43  1  0
  8 44  1  0
  9 45  1  0
  9 46  1  0
  9 47  1  0
 10 48  1  6
 11 49  1  0
 11 50  1  0
 12 51  1  0
 12 52  1  0
 14 53  1  0
 14 54  1  0
 14 55  1  0
 15 56  1  1
 16 57  1  0
 16 58  1  0
 17 59  1  0
 19 60  1  6
 20 61  1  0
 20 62  1  0
 21 63  1  0
 21 64  1  0
 22 65  1  1
 23 66  1  0
 25 67  1  0
 25 68  1  0
 25 69  1  0
 26 70  1  0
 26 71  1  0
 26 72  1  0
 28 73  1  0
 28 74  1  0
 28 75  1  0
 29 76  1  0
 29 77  1  0
 30 78  1  0
 30 79  1  0
 32 80  1  0
 32 81  1  0
 32 82  1  0
M  END
>  <meeko>  (10) 
{"is_sidechain": [false], "intermolecular_energy": 2.731, "internal_energy": -0.839}

$$$$
EPH_relaxed_0001_pdb2pqr_Repair_254_r2_0001_out
     RDKit          3D

 82 86  0  0  0  0  0  0  0  0999 V2000
  -14.8390    9.2290    1.1100 C   0  0  0  0  0  0  0  0  0  0  0  0
  -14.0530    9.1180   -0.2000 C   0  0  2  0  0  0  0  0  0  0  0  0
  -14.5440    7.9470   -1.0750 C   0  0  0  0  0  0  0  0  0  0  0  0
  -15.2870    8.3910   -2.3370 C   0  0  0  0  0  0  0  0  0  0  0  0
  -15.0520    7.4500   -3.4790 C   0  0  2  0  0  0  0  0  0  0  0  0
  -13.8250    7.6640   -4.1890 O   0  0  0  0  0  0  0  0  0  0  0  0
  -15.0340    7.8850   -4.9330 C   0  0  0  0  0  0  0  0  0  0  0  0
  -15.2560    9.3130   -5.3220 C   0  0  0  0  0  0  0  0  0  0  0  0
  -15.2870    6.8570   -5.9910 C   0  0  0  0  0  0  0  0  0  0  0  0
  -12.5670    8.9590    0.0970 C   0  0  1  0  0  0  0  0  0  0  0  0
  -12.2700    8.8500    1.6170 C   0  0  0  0  0  0  0  0  0  0  0  0
  -11.0740    7.8760    1.7700 C   0  0  0  0  0  0  0  0  0  0  0  0
  -10.5140    7.7170    0.3370 C   0  0  1  0  0  0  0  0  0  0  0  0
   -9.6200    8.9780    0.1140 C   0  0  0  0  0  0  0  0  0  0  0  0
   -9.7310    6.3960    0.0430 C   0  0  2  0  0  0  0  0  0  0  0  0
   -8.4530    6.1950    0.8760 C   0  0  0  0  0  0  0  0  0  0  0  0
   -7.2030    6.7400    0.2670 C   0  0  0  0  0  0  0  0  0  0  0  0
   -7.0570    7.1090   -1.0190 C   0  0  0  0  0  0  0  0  0  0  0  0
   -8.1900    6.9030   -2.0320 C   0  0  1  0  0  0  0  0  0  0  0  0
   -7.6160    6.2760   -3.3300 C   0  0  0  0  0  0  0  0  0  0  0  0
   -6.4570    7.0840   -3.9070 C   0  0  0  0  0  0  0  0  0  0  0  0
   -5.3260    7.2190   -2.8910 C   0  0  2  0  0  0  0  0  0  0  0  0
   -4.7540    5.9270   -2.6650 O   0  0  0  0  0  0  0  0  0  0  0  0
   -5.7880    7.8300   -1.5380 C   0  0  0  0  0  0  0  0  0  0  0  0
   -6.1250    9.3290   -1.7320 C   0  0  0  0  0  0  0  0  0  0  0  0
   -4.5860    7.7790   -0.5570 C   0  0  0  0  0  0  0  0  0  0  0  0
   -9.4680    6.1270   -1.4940 C   0  0  1  0  0  0  0  0  0  0  0  0
   -9.2610    4.5890   -1.6480 C   0  0  0  0  0  0  0  0  0  0  0  0
  -10.7100    6.4990   -2.3880 C   0  0  0  0  0  0  0  0  0  0  0  0
  -11.5130    7.7480   -1.9760 C   0  0  0  0  0  0  0  0  0  0  0  0
  -11.8550    7.7120   -0.4830 C   0  0  2  0  0  0  0  0  0  0  0  0
  -12.7720    6.4660   -0.2330 C   0  0  0  0  0  0  0  0  0  0  0  0
  -14.1489    9.1315    1.9610 H   0  0  0  0  0  0  0  0  0  0  0  0
  -15.3407   10.2069    1.1549 H   0  0  0  0  0  0  0  0  0  0  0  0
  -15.5919    8.4283    1.1549 H   0  0  0  0  0  0  0  0  0  0  0  0
  -14.2215   10.0460   -0.7661 H   0  0  0  0  0  0  0  0  0  0  0  0
  -13.6711    7.3501   -1.3779 H   0  0  0  0  0  0  0  0  0  0  0  0
  -15.2574    7.3698   -0.4685 H   0  0  0  0  0  0  0  0  0  0  0  0
  -16.3651    8.4277   -2.1215 H   0  0  0  0  0  0  0  0  0  0  0  0
  -14.9086    9.3825   -2.6265 H   0  0  0  0  0  0  0  0  0  0  0  0
  -15.5897    6.6452   -2.9563 H   0  0  0  0  0  0  0  0  0  0  0  0
  -15.3518    9.9292   -4.4159 H   0  0  0  0  0  0  0  0  0  0  0  0
  -14.4022    9.6677   -5.9180 H   0  0  0  0  0  0  0  0  0  0  0  0
  -16.1772    9.3917   -5.9180 H   0  0  0  0  0  0  0  0  0  0  0  0
  -15.5242    5.8933   -5.5166 H   0  0  0  0  0  0  0  0  0  0  0  0
  -16.1335    7.1757   -6.6170 H   0  0  0  0  0  0  0  0  0  0  0  0
  -14.3893    6.7465   -6.6170 H   0  0  0  0  0  0  0  0  0  0  0  0
  -12.1841    9.8697   -0.3868 H   0  0  0  0  0  0  0  0  0  0  0  0
  -12.0084    9.8380    2.0237 H   0  0  0  0  0  0  0  0  0  0  0  0
  -13.1501    8.4843    2.1662 H   0  0  0  0  0  0  0  0  0  0  0  0
  -10.3115    8.2997    2.4401 H   0  0  0  0  0  0  0  0  0  0  0  0
  -11.3738    6.9133    2.2097 H   0  0  0  0  0  0  0  0  0  0  0  0
   -9.3245    9.3949    1.0881 H   0  0  0  0  0  0  0  0  0  0  0  0
   -8.7202    8.6942   -0.4516 H   0  0  0  0  0  0  0  0  0  0  0  0
  -10.1856    9.7331   -0.4516 H   0  0  0  0  0  0  0  0  0  0  0  0
  -10.4349    5.6236    0.3863 H   0  0  0  0  0  0  0  0  0  0  0  0
   -8.6001    6.6874    1.8486 H   0  0  0  0  0  0  0  0  0  0  0  0
   -8.3062    5.1074    0.9510 H   0  0  0  0  0  0  0  0  0  0  0  0
   -6.3281    6.8490    0.9248 H   0  0  0  0  0  0  0  0  0  0  0  0
   -8.5920    7.9042   -2.2466 H   0  0  0  0  0  0  0  0  0  0  0  0
   -7.2595    5.2604   -3.1033 H   0  0  0  0  0  0  0  0  0  0  0  0
   -8.4209    6.2644   -4.0796 H   0  0  0  0  0  0  0  0  0  0  0  0
   -6.0755    6.5754   -4.8047 H   0  0  0  0  0  0  0  0  0  0  0  0
   -6.8227    8.0900   -4.1605 H   0  0  0  0  0  0  0  0  0  0  0  0
   -4.5845    7.9140   -3.3120 H   0  0  0  0  0  0  0  0  0  0  0  0
   -4.5110    5.5570   -3.5310 H   0  0  0  0  0  0  0  0  0  0  0  0
   -6.2333    9.8107   -0.7490 H   0  0  0  0  0  0  0  0  0  0  0  0
   -5.3143    9.8175   -2.2924 H   0  0  0  0  0  0  0  0  0  0  0  0
   -7.0668    9.4235   -2.2924 H   0  0  0  0  0  0  0  0  0  0  0  0
   -4.9569    7.7947    0.4785 H   0  0  0  0  0  0  0  0  0  0  0  0
   -4.0128    6.8557   -0.7272 H   0  0  0  0  0  0  0  0  0  0  0  0
   -3.9366    8.6504   -0.7272 H   0  0  0  0  0  0  0  0  0  0  0  0
   -9.1987    4.1259   -0.6522 H   0  0  0  0  0  0  0  0  0  0  0  0
  -10.1093    4.1583   -2.2002 H   0  0  0  0  0  0  0  0  0  0  0  0
   -8.3290    4.3979   -2.2002 H   0  0  0  0  0  0  0  0  0  0  0  0
  -10.3456    6.6608   -3.4132 H   0  0  0  0  0  0  0  0  0  0  0  0
  -11.4088    5.6571   -2.2748 H   0  0  0  0  0  0  0  0  0  0  0  0
  -10.9142    8.6464   -2.1865 H   0  0  0  0  0  0  0  0  0  0  0  0
  -12.4509    7.7673   -2.5504 H   0  0  0  0  0  0  0  0  0  0  0  0
  -12.8885    6.3077    0.8493 H   0  0  0  0  0  0  0  0  0  0  0  0
  -13.7590    6.6402   -0.6864 H   0  0  0  0  0  0  0  0  0  0  0  0
  -12.3122    5.5755   -0.6864 H   0  0  0  0  0  0  0  0  0  0  0  0
  1  2  1  0
  2  3  1  0
  3  4  1  0
  4  5  1  0
  5  6  1  0
  6  7  1  0
  7  8  1  0
  7  9  1  0
  2 10  1  0
 10 11  1  0
 11 12  1  0
 12 13  1  0
 13 14  1  6
 13 15  1  0
 15 16  1  0
 16 17  1  0
 17 18  2  0
 18 19  1  0
 19 20  1  0
 20 21  1  0
 21 22  1  0
 22 23  1  0
 22 24  1  0
 24 25  1  0
 24 26  1  0
 19 27  1  0
 27 28  1  1
 27 29  1  0
 29 30  1  0
 30 31  1  0
 31 32  1  6
  7  5  1  0
 31 10  1  0
 31 13  1  0
 27 15  1  0
 24 18  1  0
  1 33  1  0
  1 34  1  0
  1 35  1  0
  2 36  1  6
  3 37  1  0
  3 38  1  0
  4 39  1  0
  4 40  1  0
  5 41  1  6
  8 42  1  0
  8 43  1  0
  8 44  1  0
  9 45  1  0
  9 46  1  0
  9 47  1  0
 10 48  1  6
 11 49  1  0
 11 50  1  0
 12 51  1  0
 12 52  1  0
 14 53  1  0
 14 54  1  0
 14 55  1  0
 15 56  1  1
 16 57  1  0
 16 58  1  0
 17 59  1  0
 19 60  1  6
 20 61  1  0
 20 62  1  0
 21 63  1  0
 21 64  1  0
 22 65  1  6
 23 66  1  0
 25 67  1  0
 25 68  1  0
 25 69  1  0
 26 70  1  0
 26 71  1  0
 26 72  1  0
 28 73  1  0
 28 74  1  0
 28 75  1  0
 29 76  1  0
 29 77  1  0
 30 78  1  0
 30 79  1  0
 32 80  1  0
 32 81  1  0
 32 82  1  0
M  END
>  <meeko>  (11) 
{"is_sidechain": [false], "intermolecular_energy": 2.731, "internal_energy": -0.839}

$$$$
EPH_relaxed_0001_pdb2pqr_Repair_254_r2_0001_out
     RDKit          3D

 82 86  0  0  0  0  0  0  0  0999 V2000
    1.6180   14.0640   -2.6850 C   0  0  0  0  0  0  0  0  0  0  0  0
    1.5820   13.3570   -4.0430 C   0  0  2  0  0  0  0  0  0  0  0  0
    0.7800   14.1540   -5.0910 C   0  0  0  0  0  0  0  0  0  0  0  0
    1.4330   14.1810   -6.4750 C   0  0  0  0  0  0  0  0  0  0  0  0
    1.0800   15.4260   -7.2310 C   0  0  2  0  0  0  0  0  0  0  0  0
    0.3810   15.2010   -8.4630 O   0  0  0  0  0  0  0  0  0  0  0  0
    1.6870   15.7910   -8.5730 C   0  0  0  0  0  0  0  0  0  0  0  0
    2.6980   14.9110   -9.2370 C   0  0  0  0  0  0  0  0  0  0  0  0
    1.6660   17.2250   -9.0010 C   0  0  0  0  0  0  0  0  0  0  0  0
    0.9910   11.9610   -3.8850 C   0  0  1  0  0  0  0  0  0  0  0  0
    2.0600   10.8430   -4.0140 C   0  0  0  0  0  0  0  0  0  0  0  0
    1.6430    9.7120   -3.0390 C   0  0  0  0  0  0  0  0  0  0  0  0
    0.1930   10.0620   -2.6330 C   0  0  1  0  0  0  0  0  0  0  0  0
   -0.6900    9.5420   -3.8110 C   0  0  0  0  0  0  0  0  0  0  0  0
   -0.2940    9.5010   -1.2560 C   0  0  2  0  0  0  0  0  0  0  0  0
   -0.3280    7.9670   -1.1520 C   0  0  0  0  0  0  0  0  0  0  0  0
   -1.6170    7.3290   -1.5500 C   0  0  0  0  0  0  0  0  0  0  0  0
   -2.7920    7.9680   -1.7010 C   0  0  0  0  0  0  0  0  0  0  0  0
   -2.9260    9.4600   -1.3700 C   0  0  1  0  0  0  0  0  0  0  0  0
   -4.2050    9.6900   -0.5230 C   0  0  0  0  0  0  0  0  0  0  0  0
   -5.4560    9.1260   -1.1890 C   0  0  0  0  0  0  0  0  0  0  0  0
   -5.3080    7.6300   -1.4490 C   0  0  2  0  0  0  0  0  0  0  0  0
   -5.2600    6.9460   -0.1930 O   0  0  0  0  0  0  0  0  0  0  0  0
   -4.0470    7.2750   -2.2860 C   0  0  0  0  0  0  0  0  0  0  0  0
   -4.2360    7.7620   -3.7440 C   0  0  0  0  0  0  0  0  0  0  0  0
   -3.9400    5.7280   -2.3560 C   0  0  0  0  0  0  0  0  0  0  0  0
   -1.6410   10.1460   -0.7340 C   0  0  1  0  0  0  0  0  0  0  0  0
   -1.6510    9.9620    0.8150 C   0  0  0  0  0  0  0  0  0  0  0  0
   -1.7030   11.6970   -0.9970 C   0  0  0  0  0  0  0  0  0  0  0  0
   -1.0990   12.2020   -2.3210 C   0  0  0  0  0  0  0  0  0  0  0  0
    0.3040   11.6270   -2.5380 C   0  0  2  0  0  0  0  0  0  0  0  0
    1.2200   12.1500   -1.3800 C   0  0  0  0  0  0  0  0  0  0  0  0
    1.5799   13.3148   -1.8805 H   0  0  0  0  0  0  0  0  0  0  0  0
    2.5470   14.6468   -2.5996 H   0  0  0  0  0  0  0  0  0  0  0  0
    0.7530   14.7382   -2.5996 H   0  0  0  0  0  0  0  0  0  0  0  0
    2.6175   13.2836   -4.4067 H   0  0  0  0  0  0  0  0  0  0  0  0
   -0.2166   13.6981   -5.1860 H   0  0  0  0  0  0  0  0  0  0  0  0
    0.7334   15.1945   -4.7371 H   0  0  0  0  0  0  0  0  0  0  0  0
    2.5254   14.1349   -6.3546 H   0  0  0  0  0  0  0  0  0  0  0  0
    1.0622   13.3169   -7.0457 H   0  0  0  0  0  0  0  0  0  0  0  0
    0.9679   15.9910   -6.2939 H   0  0  0  0  0  0  0  0  0  0  0  0
    3.2931   14.3930   -8.4705 H   0  0  0  0  0  0  0  0  0  0  0  0
    2.1825   14.1690   -9.8644 H   0  0  0  0  0  0  0  0  0  0  0  0
    3.3619   15.5239   -9.8644 H   0  0  0  0  0  0  0  0  0  0  0  0
    1.6565   17.8729   -8.1121 H   0  0  0  0  0  0  0  0  0  0  0  0
    2.5611   17.4412   -9.6027 H   0  0  0  0  0  0  0  0  0  0  0  0
    0.7650   17.4149   -9.6027 H   0  0  0  0  0  0  0  0  0  0  0  0
    0.2436   11.9847   -4.6918 H   0  0  0  0  0  0  0  0  0  0  0  0
    2.0880   10.4627   -5.0458 H   0  0  0  0  0  0  0  0  0  0  0  0
    3.0626   11.2248   -3.7709 H   0  0  0  0  0  0  0  0  0  0  0  0
    1.6805    8.7336   -3.5404 H   0  0  0  0  0  0  0  0  0  0  0  0
    2.3140    9.6417   -2.1702 H   0  0  0  0  0  0  0  0  0  0  0  0
   -1.5716    9.0228   -3.4070 H   0  0  0  0  0  0  0  0  0  0  0  0
   -1.0160   10.3923   -4.4280 H   0  0  0  0  0  0  0  0  0  0  0  0
   -0.1045    8.8445   -4.4280 H   0  0  0  0  0  0  0  0  0  0  0  0
    0.5029    9.8287   -0.5722 H   0  0  0  0  0  0  0  0  0  0  0  0
    0.4646    7.5648   -1.8002 H   0  0  0  0  0  0  0  0  0  0  0  0
   -0.1883    7.7313   -0.0867 H   0  0  0  0  0  0  0  0  0  0  0  0
   -1.6060    6.2448   -1.7357 H   0  0  0  0  0  0  0  0  0  0  0  0
   -3.0202    9.9789   -2.3353 H   0  0  0  0  0  0  0  0  0  0  0  0
   -4.0742    9.2007    0.4535 H   0  0  0  0  0  0  0  0  0  0  0  0
   -4.3441   10.7759   -0.4159 H   0  0  0  0  0  0  0  0  0  0  0  0
   -6.3209    9.2931   -0.5302 H   0  0  0  0  0  0  0  0  0  0  0  0
   -5.6017    9.6370   -2.1521 H   0  0  0  0  0  0  0  0  0  0  0  0
   -6.1778    7.3110   -2.0420 H   0  0  0  0  0  0  0  0  0  0  0  0
   -5.2840    5.9910   -0.3770 H   0  0  0  0  0  0  0  0  0  0  0  0
   -4.6340    8.7875   -3.7394 H   0  0  0  0  0  0  0  0  0  0  0  0
   -3.2668    7.7472   -4.2641 H   0  0  0  0  0  0  0  0  0  0  0  0
   -4.9414    7.0973   -4.2641 H   0  0  0  0  0  0  0  0  0  0  0  0
   -3.9115    5.3159   -1.3365 H   0  0  0  0  0  0  0  0  0  0  0  0
   -4.8123    5.3239   -2.8906 H   0  0  0  0  0  0  0  0  0  0  0  0
   -3.0203    5.4479   -2.8906 H   0  0  0  0  0  0  0  0  0  0  0  0
   -1.5975   10.9471    1.3016 H   0  0  0  0  0  0  0  0  0  0  0  0
   -2.5781    9.4533    1.1178 H   0  0  0  0  0  0  0  0  0  0  0  0
   -0.7845    9.3559    1.1178 H   0  0  0  0  0  0  0  0  0  0  0  0
   -2.7616   11.9955   -0.9790 H   0  0  0  0  0  0  0  0  0  0  0  0
   -1.0833   12.1476   -0.2077 H   0  0  0  0  0  0  0  0  0  0  0  0
   -1.7476   11.8923   -3.1537 H   0  0  0  0  0  0  0  0  0  0  0  0
   -1.0258   13.2987   -2.2774 H   0  0  0  0  0  0  0  0  0  0  0  0
    0.7686   11.8923   -0.4106 H   0  0  0  0  0  0  0  0  0  0  0  0
    2.2127   11.6825   -1.4581 H   0  0  0  0  0  0  0  0  0  0  0  0
    1.3220   13.2425   -1.4581 H   0  0  0  0  0  0  0  0  0  0  0  0
  1  2  1  0
  2  3  1  0
  3  4  1  0
  4  5  1  0
  5  6  1  0
  6  7  1  0
  7  8  1  0
  7  9  1  0
  2 10  1  0
 10 11  1  0
 11 12  1  0
 12 13  1  0
 13 14  1  6
 13 15  1  0
 15 16  1  0
 16 17  1  0
 17 18  2  0
 18 19  1  0
 19 20  1  0
 20 21  1  0
 21 22  1  0
 22 23  1  0
 22 24  1  0
 24 25  1  0
 24 26  1  0
 19 27  1  0
 27 28  1  1
 27 29  1  0
 29 30  1  0
 30 31  1  0
 31 32  1  1
  7  5  1  0
 31 10  1  0
 31 13  1  0
 27 15  1  0
 24 18  1  0
  1 33  1  0
  1 34  1  0
  1 35  1  0
  2 36  1  6
  3 37  1  0
  3 38  1  0
  4 39  1  0
  4 40  1  0
  5 41  1  1
  8 42  1  0
  8 43  1  0
  8 44  1  0
  9 45  1  0
  9 46  1  0
  9 47  1  0
 10 48  1  6
 11 49  1  0
 11 50  1  0
 12 51  1  0
 12 52  1  0
 14 53  1  0
 14 54  1  0
 14 55  1  0
 15 56  1  1
 16 57  1  0
 16 58  1  0
 17 59  1  0
 19 60  1  6
 20 61  1  0
 20 62  1  0
 21 63  1  0
 21 64  1  0
 22 65  1  6
 23 66  1  0
 25 67  1  0
 25 68  1  0
 25 69  1  0
 26 70  1  0
 26 71  1  0
 26 72  1  0
 28 73  1  0
 28 74  1  0
 28 75  1  0
 29 76  1  0
 29 77  1  0
 30 78  1  0
 30 79  1  0
 32 80  1  0
 32 81  1  0
 32 82  1  0
M  END
>  <meeko>  (12) 
{"is_sidechain": [false], "intermolecular_energy": 2.731, "internal_energy": -0.839}

$$$$
EPH_relaxed_0001_pdb2pqr_Repair_254_r2_0001_out
     RDKit          3D

 82 86  0  0  0  0  0  0  0  0999 V2000
   -1.2460   10.4330    1.5180 C   0  0  0  0  0  0  0  0  0  0  0  0
   -1.9710   10.0730    0.2190 C   0  0  2  0  0  0  0  0  0  0  0  0
   -2.8630    8.8250    0.3790 C   0  0  0  0  0  0  0  0  0  0  0  0
   -4.2020    8.9270   -0.3570 C   0  0  0  0  0  0  0  0  0  0  0  0
   -4.7170    7.5780   -0.7580 C   0  0  2  0  0  0  0  0  0  0  0  0
   -4.8370    7.3790   -2.1730 O   0  0  0  0  0  0  0  0  0  0  0  0
   -6.0640    7.3610   -1.4240 C   0  0  0  0  0  0  0  0  0  0  0  0
   -6.9780    8.5070   -1.7260 C   0  0  0  0  0  0  0  0  0  0  0  0
   -6.6960    6.0070   -1.3350 C   0  0  0  0  0  0  0  0  0  0  0  0
   -0.9580    9.8490   -0.8970 C   0  0  1  0  0  0  0  0  0  0  0  0
   -1.5510    9.0590   -2.0930 C   0  0  0  0  0  0  0  0  0  0  0  0
   -0.8880    9.6230   -3.3760 C   0  0  0  0  0  0  0  0  0  0  0  0
    0.2940   10.4760   -2.8610 C   0  0  1  0  0  0  0  0  0  0  0  0
    1.4340    9.4500   -2.5710 C   0  0  0  0  0  0  0  0  0  0  0  0
    0.7790   11.6270   -3.8020 C   0  0  2  0  0  0  0  0  0  0  0  0
    1.3280   11.1670   -5.1640 C   0  0  0  0  0  0  0  0  0  0  0  0
    2.7950   10.8980   -5.2020 C   0  0  0  0  0  0  0  0  0  0  0  0
    3.6870   11.2880   -4.2720 C   0  0  0  0  0  0  0  0  0  0  0  0
    3.2570   12.1650   -3.0890 C   0  0  1  0  0  0  0  0  0  0  0  0
    4.2690   13.3270   -2.9100 C   0  0  0  0  0  0  0  0  0  0  0  0
    5.7070   12.8350   -2.7800 C   0  0  0  0  0  0  0  0  0  0  0  0
    6.1170   12.0160   -4.0020 C   0  0  2  0  0  0  0  0  0  0  0  0
    6.1600   12.8810   -5.1410 O   0  0  0  0  0  0  0  0  0  0  0  0
    5.1630   10.8230   -4.2870 C   0  0  0  0  0  0  0  0  0  0  0  0
    5.3430    9.7400   -3.1940 C   0  0  0  0  0  0  0  0  0  0  0  0
    5.6060   10.1670   -5.6230 C   0  0  0  0  0  0  0  0  0  0  0  0
    1.7490   12.6670   -3.1090 C   0  0  1  0  0  0  0  0  0  0  0  0
    1.6400   13.9900   -3.9260 C   0  0  0  0  0  0  0  0  0  0  0  0
    1.3030   13.0140   -1.6400 C   0  0  0  0  0  0  0  0  0  0  0  0
    0.7210   11.8610   -0.7990 C   0  0  0  0  0  0  0  0  0  0  0  0
   -0.3610   11.1070   -1.5780 C   0  0  2  0  0  0  0  0  0  0  0  0
   -1.5310   12.1080   -1.8640 C   0  0  0  0  0  0  0  0  0  0  0  0
   -1.8607   10.1278    2.3777 H   0  0  0  0  0  0  0  0  0  0  0  0
   -0.2787    9.9105    1.5550 H   0  0  0  0  0  0  0  0  0  0  0  0
   -1.0776   11.5194    1.5550 H   0  0  0  0  0  0  0  0  0  0  0  0
   -2.6271   10.9175   -0.0387 H   0  0  0  0  0  0  0  0  0  0  0  0
   -2.3164    7.9548   -0.0134 H   0  0  0  0  0  0  0  0  0  0  0  0
   -3.0917    8.7286    1.4506 H   0  0  0  0  0  0  0  0  0  0  0  0
   -4.9374    9.4071    0.3053 H   0  0  0  0  0  0  0  0  0  0  0  0
   -4.0477    9.5209   -1.2699 H   0  0  0  0  0  0  0  0  0  0  0  0
   -4.2427    7.1104    0.1175 H   0  0  0  0  0  0  0  0  0  0  0  0
   -7.3324    8.9514   -0.7842 H   0  0  0  0  0  0  0  0  0  0  0  0
   -6.4345    9.2660   -2.3079 H   0  0  0  0  0  0  0  0  0  0  0  0
   -7.8389    8.1459   -2.3079 H   0  0  0  0  0  0  0  0  0  0  0  0
   -6.8247    5.7312   -0.2779 H   0  0  0  0  0  0  0  0  0  0  0  0
   -7.6777    6.0273   -1.8308 H   0  0  0  0  0  0  0  0  0  0  0  0
   -6.0500    5.2675   -1.8308 H   0  0  0  0  0  0  0  0  0  0  0  0
   -0.1767    9.3187   -0.3328 H   0  0  0  0  0  0  0  0  0  0  0  0
   -1.3238    7.9877   -1.9890 H   0  0  0  0  0  0  0  0  0  0  0  0
   -2.6449    9.1675   -2.1339 H   0  0  0  0  0  0  0  0  0  0  0  0
   -0.5267    8.8060   -4.0178 H   0  0  0  0  0  0  0  0  0  0  0  0
   -1.5911   10.2092   -3.9859 H   0  0  0  0  0  0  0  0  0  0  0  0
    1.5586    9.3379   -1.4838 H   0  0  0  0  0  0  0  0  0  0  0  0
    1.1726    8.4769   -3.0124 H   0  0  0  0  0  0  0  0  0  0  0  0
    2.3742    9.8121   -3.0124 H   0  0  0  0  0  0  0  0  0  0  0  0
   -0.1565   12.1624   -4.0214 H   0  0  0  0  0  0  0  0  0  0  0  0
    0.8053   10.2411   -5.4460 H   0  0  0  0  0  0  0  0  0  0  0  0
    1.1535   12.0010   -5.8598 H   0  0  0  0  0  0  0  0  0  0  0  0
    3.1807   10.3328   -6.0633 H   0  0  0  0  0  0  0  0  0  0  0  0
    3.2783   11.5119   -2.2041 H   0  0  0  0  0  0  0  0  0  0  0  0
    4.2012   13.9915   -3.7840 H   0  0  0  0  0  0  0  0  0  0  0  0
    4.0110   13.8544   -1.9798 H   0  0  0  0  0  0  0  0  0  0  0  0
    6.3771   13.7024   -2.6868 H   0  0  0  0  0  0  0  0  0  0  0  0
    5.7795   12.1949   -1.8883 H   0  0  0  0  0  0  0  0  0  0  0  0
    7.1065   11.5829   -3.7939 H   0  0  0  0  0  0  0  0  0  0  0  0
    7.0430   13.2860   -5.1690 H   0  0  0  0  0  0  0  0  0  0  0  0
    5.2656   10.2055   -2.2003 H   0  0  0  0  0  0  0  0  0  0  0  0
    4.5596    8.9755   -3.3028 H   0  0  0  0  0  0  0  0  0  0  0  0
    6.3316    9.2700   -3.3028 H   0  0  0  0  0  0  0  0  0  0  0  0
    6.2099    9.2727   -5.4098 H   0  0  0  0  0  0  0  0  0  0  0  0
    4.7166    9.8792   -6.2028 H   0  0  0  0  0  0  0  0  0  0  0  0
    6.2053   10.8845   -6.2028 H   0  0  0  0  0  0  0  0  0  0  0  0
    1.5697   14.8430   -3.2350 H   0  0  0  0  0  0  0  0  0  0  0  0
    2.5318   14.1041   -4.5598 H   0  0  0  0  0  0  0  0  0  0  0  0
    0.7416   13.9566   -4.5598 H   0  0  0  0  0  0  0  0  0  0  0  0
    2.1840   13.4021   -1.1078 H   0  0  0  0  0  0  0  0  0  0  0  0
    0.4780   13.7329   -1.7523 H   0  0  0  0  0  0  0  0  0  0  0  0
    1.5294   11.1623   -0.5378 H   0  0  0  0  0  0  0  0  0  0  0  0
    0.2688   12.2834    0.1104 H   0  0  0  0  0  0  0  0  0  0  0  0
   -1.9488   12.4655   -0.9113 H   0  0  0  0  0  0  0  0  0  0  0  0
   -1.1491   12.9633   -2.4408 H   0  0  0  0  0  0  0  0  0  0  0  0
   -2.3169   11.5983   -2.4408 H   0  0  0  0  0  0  0  0  0  0  0  0
  1  2  1  0
  2  3  1  0
  3  4  1  0
  4  5  1  0
  5  6  1  0
  6  7  1  0
  7  8  1  0
  7  9  1  0
  2 10  1  0
 10 11  1  0
 11 12  1  0
 12 13  1  0
 13 14  1  1
 13 15  1  0
 15 16  1  0
 16 17  1  0
 17 18  2  0
 18 19  1  0
 19 20  1  0
 20 21  1  0
 21 22  1  0
 22 23  1  0
 22 24  1  0
 24 25  1  0
 24 26  1  0
 19 27  1  0
 27 28  1  6
 27 29  1  0
 29 30  1  0
 30 31  1  0
 31 32  1  6
  7  5  1  0
 31 10  1  0
 31 13  1  0
 27 15  1  0
 24 18  1  0
  1 33  1  0
  1 34  1  0
  1 35  1  0
  2 36  1  6
  3 37  1  0
  3 38  1  0
  4 39  1  0
  4 40  1  0
  5 41  1  1
  8 42  1  0
  8 43  1  0
  8 44  1  0
  9 45  1  0
  9 46  1  0
  9 47  1  0
 10 48  1  1
 11 49  1  0
 11 50  1  0
 12 51  1  0
 12 52  1  0
 14 53  1  0
 14 54  1  0
 14 55  1  0
 15 56  1  6
 16 57  1  0
 16 58  1  0
 17 59  1  0
 19 60  1  1
 20 61  1  0
 20 62  1  0
 21 63  1  0
 21 64  1  0
 22 65  1  1
 23 66  1  0
 25 67  1  0
 25 68  1  0
 25 69  1  0
 26 70  1  0
 26 71  1  0
 26 72  1  0
 28 73  1  0
 28 74  1  0
 28 75  1  0
 29 76  1  0
 29 77  1  0
 30 78  1  0
 30 79  1  0
 32 80  1  0
 32 81  1  0
 32 82  1  0
M  END
>  <meeko>  (13) 
{"is_sidechain": [false], "intermolecular_energy": 2.731, "internal_energy": -0.839}

$$$$
EPH_relaxed_0001_pdb2pqr_Repair_254_r2_0001_out
     RDKit          3D

 82 86  0  0  0  0  0  0  0  0999 V2000
    1.2400   13.3800   -4.5430 C   0  0  0  0  0  0  0  0  0  0  0  0
    1.4830   12.7900   -3.1510 C   0  0  2  0  0  0  0  0  0  0  0  0
    2.9860   12.6480   -2.8350 C   0  0  0  0  0  0  0  0  0  0  0  0
    3.7630   11.8520   -3.8870 C   0  0  0  0  0  0  0  0  0  0  0  0
    5.2200   11.7620   -3.5480 C   0  0  2  0  0  0  0  0  0  0  0  0
    6.1000   12.3080   -4.5390 O   0  0  0  0  0  0  0  0  0  0  0  0
    6.2040   10.8940   -4.3100 C   0  0  0  0  0  0  0  0  0  0  0  0
    5.7690   10.0550   -5.4710 C   0  0  0  0  0  0  0  0  0  0  0  0
    7.4740   10.4850   -3.6300 C   0  0  0  0  0  0  0  0  0  0  0  0
    0.7960   11.4350   -3.0330 C   0  0  1  0  0  0  0  0  0  0  0  0
    1.8020   10.2690   -2.8420 C   0  0  0  0  0  0  0  0  0  0  0  0
    1.1190    9.2370   -1.9080 C   0  0  0  0  0  0  0  0  0  0  0  0
   -0.3640    9.6750   -1.8620 C   0  0  1  0  0  0  0  0  0  0  0  0
   -0.9930    9.0970   -3.1680 C   0  0  0  0  0  0  0  0  0  0  0  0
   -1.1720    9.2460   -0.5940 C   0  0  2  0  0  0  0  0  0  0  0  0
   -1.3130    7.7270   -0.3930 C   0  0  0  0  0  0  0  0  0  0  0  0
   -2.5170    7.1100   -1.0240 C   0  0  0  0  0  0  0  0  0  0  0  0
   -3.5920    7.7800   -1.4780 C   0  0  0  0  0  0  0  0  0  0  0  0
   -3.7120    9.2980   -1.2900 C   0  0  1  0  0  0  0  0  0  0  0  0
   -5.1320    9.6450   -0.7700 C   0  0  0  0  0  0  0  0  0  0  0  0
   -6.2350    9.0780   -1.6580 C   0  0  0  0  0  0  0  0  0  0  0  0
   -6.1170    7.5610   -1.7740 C   0  0  2  0  0  0  0  0  0  0  0  0
   -6.3850    6.9790   -0.4940 O   0  0  0  0  0  0  0  0  0  0  0  0
   -4.7240    7.0910   -2.2800 C   0  0  0  0  0  0  0  0  0  0  0  0
   -4.5600    7.4670   -3.7740 C   0  0  0  0  0  0  0  0  0  0  0  0
   -4.6910    5.5400   -2.2160 C   0  0  0  0  0  0  0  0  0  0  0  0
   -2.5630    9.9830   -0.4320 C   0  0  1  0  0  0  0  0  0  0  0  0
   -2.9240    9.9240    1.0840 C   0  0  0  0  0  0  0  0  0  0  0  0
   -2.4800   11.5090   -0.8100 C   0  0  0  0  0  0  0  0  0  0  0  0
   -1.5710   11.8820   -1.9970 C   0  0  0  0  0  0  0  0  0  0  0  0
   -0.1890   11.2370   -1.8540 C   0  0  2  0  0  0  0  0  0  0  0  0
    0.4770   11.8160   -0.5600 C   0  0  0  0  0  0  0  0  0  0  0  0
    0.8228   14.3930   -4.4442 H   0  0  0  0  0  0  0  0  0  0  0  0
    2.1918   13.4275   -5.0924 H   0  0  0  0  0  0  0  0  0  0  0  0
    0.5309   12.7434   -5.0924 H   0  0  0  0  0  0  0  0  0  0  0  0
    1.0554   13.4884   -2.4166 H   0  0  0  0  0  0  0  0  0  0  0  0
    3.4236   13.6550   -2.7682 H   0  0  0  0  0  0  0  0  0  0  0  0
    3.0647   12.0929   -1.8886 H   0  0  0  0  0  0  0  0  0  0  0  0
    3.3467   10.8354   -3.9444 H   0  0  0  0  0  0  0  0  0  0  0  0
    3.6664   12.3720   -4.8515 H   0  0  0  0  0  0  0  0  0  0  0  0
    5.0006   11.8611   -2.4747 H   0  0  0  0  0  0  0  0  0  0  0  0
    5.2922    9.1355   -5.1006 H   0  0  0  0  0  0  0  0  0  0  0  0
    5.0502   10.6199   -6.0827 H   0  0  0  0  0  0  0  0  0  0  0  0
    6.6449    9.7931   -6.0827 H   0  0  0  0  0  0  0  0  0  0  0  0
    7.3367   10.5292   -2.5395 H   0  0  0  0  0  0  0  0  0  0  0  0
    7.7338    9.4578   -3.9255 H   0  0  0  0  0  0  0  0  0  0  0  0
    8.2844   11.1676   -3.9255 H   0  0  0  0  0  0  0  0  0  0  0  0
    0.2483   11.4231   -3.9869 H   0  0  0  0  0  0  0  0  0  0  0  0
    2.0340    9.8061   -3.8125 H   0  0  0  0  0  0  0  0  0  0  0  0
    2.7465   10.6295   -2.4085 H   0  0  0  0  0  0  0  0  0  0  0  0
    1.2113    8.2207   -2.3186 H   0  0  0  0  0  0  0  0  0  0  0  0
    1.5777    9.2108   -0.9086 H   0  0  0  0  0  0  0  0  0  0  0  0
   -1.7799    8.3739   -2.9072 H   0  0  0  0  0  0  0  0  0  0  0  0
   -1.4290    9.9162   -3.7587 H   0  0  0  0  0  0  0  0  0  0  0  0
   -0.2135    8.5935   -3.7587 H   0  0  0  0  0  0  0  0  0  0  0  0
   -0.5281    9.5966    0.2260 H   0  0  0  0  0  0  0  0  0  0  0  0
   -0.4210    7.2435   -0.8179 H   0  0  0  0  0  0  0  0  0  0  0  0
   -1.4237    7.5721    0.6904 H   0  0  0  0  0  0  0  0  0  0  0  0
   -2.5262    6.0148   -1.1265 H   0  0  0  0  0  0  0  0  0  0  0  0
   -3.5612    9.7408   -2.2856 H   0  0  0  0  0  0  0  0  0  0  0  0
   -5.2473    9.2317    0.2428 H   0  0  0  0  0  0  0  0  0  0  0  0
   -5.2304   10.7406   -0.7739 H   0  0  0  0  0  0  0  0  0  0  0  0
   -7.2131    9.3306   -1.2226 H   0  0  0  0  0  0  0  0  0  0  0  0
   -6.1362    9.5153   -2.6625 H   0  0  0  0  0  0  0  0  0  0  0  0
   -6.8508    7.2295   -2.5234 H   0  0  0  0  0  0  0  0  0  0  0  0
   -6.2780    7.6760    0.1750 H   0  0  0  0  0  0  0  0  0  0  0  0
   -4.1214    8.4727   -3.8530 H   0  0  0  0  0  0  0  0  0  0  0  0
   -3.8979    6.7386   -4.2649 H   0  0  0  0  0  0  0  0  0  0  0  0
   -5.5443    7.4567   -4.2649 H   0  0  0  0  0  0  0  0  0  0  0  0
   -4.6841    5.2165   -1.1647 H   0  0  0  0  0  0  0  0  0  0  0  0
   -5.5807    5.1333   -2.7190 H   0  0  0  0  0  0  0  0  0  0  0  0
   -3.7848    5.1715   -2.7190 H   0  0  0  0  0  0  0  0  0  0  0  0
   -2.0139   10.0727    1.6837 H   0  0  0  0  0  0  0  0  0  0  0  0
   -3.6512   10.7152    1.3188 H   0  0  0  0  0  0  0  0  0  0  0  0
   -3.3615    8.9424    1.3188 H   0  0  0  0  0  0  0  0  0  0  0  0
   -3.4983   11.8480   -1.0512 H   0  0  0  0  0  0  0  0  0  0  0  0
   -2.0266   11.9981    0.0647 H   0  0  0  0  0  0  0  0  0  0  0  0
   -2.0364   11.5322   -2.9303 H   0  0  0  0  0  0  0  0  0  0  0  0
   -1.4476   12.9749   -2.0140 H   0  0  0  0  0  0  0  0  0  0  0  0
   -0.0137   11.3894    0.3273 H   0  0  0  0  0  0  0  0  0  0  0  0
    1.5455   11.5548   -0.5492 H   0  0  0  0  0  0  0  0  0  0  0  0
    0.3670   12.9104   -0.5492 H   0  0  0  0  0  0  0  0  0  0  0  0
  1  2  1  0
  2  3  1  0
  3  4  1  0
  4  5  1  0
  5  6  1  0
  6  7  1  0
  7  8  1  0
  7  9  1  0
  2 10  1  0
 10 11  1  0
 11 12  1  0
 12 13  1  0
 13 14  1  6
 13 15  1  0
 15 16  1  0
 16 17  1  0
 17 18  2  0
 18 19  1  0
 19 20  1  0
 20 21  1  0
 21 22  1  0
 22 23  1  0
 22 24  1  0
 24 25  1  0
 24 26  1  0
 19 27  1  0
 27 28  1  1
 27 29  1  0
 29 30  1  0
 30 31  1  0
 31 32  1  1
  7  5  1  0
 31 10  1  0
 31 13  1  0
 27 15  1  0
 24 18  1  0
  1 33  1  0
  1 34  1  0
  1 35  1  0
  2 36  1  1
  3 37  1  0
  3 38  1  0
  4 39  1  0
  4 40  1  0
  5 41  1  1
  8 42  1  0
  8 43  1  0
  8 44  1  0
  9 45  1  0
  9 46  1  0
  9 47  1  0
 10 48  1  6
 11 49  1  0
 11 50  1  0
 12 51  1  0
 12 52  1  0
 14 53  1  0
 14 54  1  0
 14 55  1  0
 15 56  1  1
 16 57  1  0
 16 58  1  0
 17 59  1  0
 19 60  1  6
 20 61  1  0
 20 62  1  0
 21 63  1  0
 21 64  1  0
 22 65  1  6
 23 66  1  0
 25 67  1  0
 25 68  1  0
 25 69  1  0
 26 70  1  0
 26 71  1  0
 26 72  1  0
 28 73  1  0
 28 74  1  0
 28 75  1  0
 29 76  1  0
 29 77  1  0
 30 78  1  0
 30 79  1  0
 32 80  1  0
 32 81  1  0
 32 82  1  0
M  END
>  <meeko>  (14) 
{"is_sidechain": [false], "intermolecular_energy": 2.731, "internal_energy": -0.839}

$$$$
EPH_relaxed_0001_pdb2pqr_Repair_254_r2_0001_out
     RDKit          3D

 82 86  0  0  0  0  0  0  0  0999 V2000
  -11.4750    8.8550   -2.6850 C   0  0  0  0  0  0  0  0  0  0  0  0
  -11.1000    7.6080   -1.8790 C   0  0  2  0  0  0  0  0  0  0  0  0
  -12.1910    7.2270   -0.8580 C   0  0  0  0  0  0  0  0  0  0  0  0
  -13.5930    7.6970   -1.2520 C   0  0  0  0  0  0  0  0  0  0  0  0
  -13.8200    9.1330   -0.8860 C   0  0  2  0  0  0  0  0  0  0  0  0
  -15.1890    9.4790   -0.6380 O   0  0  0  0  0  0  0  0  0  0  0  0
  -14.5690   10.1130   -1.7690 C   0  0  0  0  0  0  0  0  0  0  0  0
  -15.1400    9.6970   -3.0880 C   0  0  0  0  0  0  0  0  0  0  0  0
  -14.3250   11.5780   -1.5790 C   0  0  0  0  0  0  0  0  0  0  0  0
   -9.7730    7.8320   -1.1640 C   0  0  1  0  0  0  0  0  0  0  0  0
   -9.8670    7.5790    0.3640 C   0  0  0  0  0  0  0  0  0  0  0  0
   -8.5110    6.9700    0.8020 C   0  0  0  0  0  0  0  0  0  0  0  0
   -7.5730    7.1990   -0.4060 C   0  0  1  0  0  0  0  0  0  0  0  0
   -7.0960    8.6790   -0.2700 C   0  0  0  0  0  0  0  0  0  0  0  0
   -6.3660    6.2130   -0.5400 C   0  0  2  0  0  0  0  0  0  0  0  0
   -5.3560    6.2570    0.6210 C   0  0  0  0  0  0  0  0  0  0  0  0
   -4.2280    7.2180    0.4490 C   0  0  0  0  0  0  0  0  0  0  0  0
   -3.8710    7.8070   -0.7080 C   0  0  0  0  0  0  0  0  0  0  0  0
   -4.5730    7.4470   -2.0240 C   0  0  1  0  0  0  0  0  0  0  0  0
   -3.5100    7.2150   -3.1310 C   0  0  0  0  0  0  0  0  0  0  0  0
   -2.5560    8.3960   -3.2820 C   0  0  0  0  0  0  0  0  0  0  0  0
   -1.8350    8.6860   -1.9690 C   0  0  2  0  0  0  0  0  0  0  0  0
   -0.9660    7.5900   -1.6680 O   0  0  0  0  0  0  0  0  0  0  0  0
   -2.8040    8.9270   -0.7780 C   0  0  0  0  0  0  0  0  0  0  0  0
   -3.5320   10.2810   -0.9640 C   0  0  0  0  0  0  0  0  0  0  0  0
   -1.9510    9.0680    0.5120 C   0  0  0  0  0  0  0  0  0  0  0  0
   -5.6360    6.2690   -1.9430 C   0  0  1  0  0  0  0  0  0  0  0  0
   -4.9230    4.8940   -2.1290 C   0  0  0  0  0  0  0  0  0  0  0  0
   -6.6500    6.4080   -3.1390 C   0  0  0  0  0  0  0  0  0  0  0  0
   -7.8840    7.3000   -2.9040 C   0  0  0  0  0  0  0  0  0  0  0  0
   -8.5780    6.9410   -1.5870 C   0  0  2  0  0  0  0  0  0  0  0  0
   -9.0880    5.4640   -1.7030 C   0  0  0  0  0  0  0  0  0  0  0  0
  -11.7220    9.6763   -1.9961 H   0  0  0  0  0  0  0  0  0  0  0  0
  -10.6261    9.1509   -3.3189 H   0  0  0  0  0  0  0  0  0  0  0  0
  -12.3463    8.6336   -3.3189 H   0  0  0  0  0  0  0  0  0  0  0  0
  -11.0045    6.7718   -2.5873 H   0  0  0  0  0  0  0  0  0  0  0  0
  -12.2069    6.1316   -0.7592 H   0  0  0  0  0  0  0  0  0  0  0  0
  -11.9370    7.7299    0.0868 H   0  0  0  0  0  0  0  0  0  0  0  0
  -13.7148    7.5827   -2.3393 H   0  0  0  0  0  0  0  0  0  0  0  0
  -14.3258    7.0843   -0.7065 H   0  0  0  0  0  0  0  0  0  0  0  0
  -12.8387    9.1863   -0.3918 H   0  0  0  0  0  0  0  0  0  0  0  0
  -16.0188    9.0567   -2.9216 H   0  0  0  0  0  0  0  0  0  0  0  0
  -15.4393   10.5901   -3.6561 H   0  0  0  0  0  0  0  0  0  0  0  0
  -14.3816    9.1383   -3.6561 H   0  0  0  0  0  0  0  0  0  0  0  0
  -14.2869   11.8069   -0.5038 H   0  0  0  0  0  0  0  0  0  0  0  0
  -13.3685   11.8541   -2.0468 H   0  0  0  0  0  0  0  0  0  0  0  0
  -15.1404   12.1492   -2.0468 H   0  0  0  0  0  0  0  0  0  0  0  0
   -9.5839    8.8771   -1.4504 H   0  0  0  0  0  0  0  0  0  0  0  0
  -10.0455    8.5261    0.8942 H   0  0  0  0  0  0  0  0  0  0  0  0
  -10.6993    6.8998    0.6009 H   0  0  0  0  0  0  0  0  0  0  0  0
   -8.1256    7.4825    1.6957 H   0  0  0  0  0  0  0  0  0  0  0  0
   -8.5975    5.9060    1.0675 H   0  0  0  0  0  0  0  0  0  0  0  0
   -7.0117    8.9407    0.7951 H   0  0  0  0  0  0  0  0  0  0  0  0
   -6.1152    8.7942   -0.7546 H   0  0  0  0  0  0  0  0  0  0  0  0
   -7.8249    9.3452   -0.7546 H   0  0  0  0  0  0  0  0  0  0  0  0
   -6.8555    5.2301   -0.4738 H   0  0  0  0  0  0  0  0  0  0  0  0
   -5.9013    6.5333    1.5355 H   0  0  0  0  0  0  0  0  0  0  0  0
   -4.8996    5.2571    0.6650 H   0  0  0  0  0  0  0  0  0  0  0  0
   -3.6378    7.4665    1.3433 H   0  0  0  0  0  0  0  0  0  0  0  0
   -5.1984    8.3142   -2.2823 H   0  0  0  0  0  0  0  0  0  0  0  0
   -2.9248    6.3192   -2.8759 H   0  0  0  0  0  0  0  0  0  0  0  0
   -4.0429    7.0918   -4.0854 H   0  0  0  0  0  0  0  0  0  0  0  0
   -1.8117    8.1607   -4.0570 H   0  0  0  0  0  0  0  0  0  0  0  0
   -3.1393    9.2844   -3.5659 H   0  0  0  0  0  0  0  0  0  0  0  0
   -1.2665    9.6180   -2.1041 H   0  0  0  0  0  0  0  0  0  0  0  0
   -0.1180    7.7560   -2.1130 H   0  0  0  0  0  0  0  0  0  0  0  0
   -3.7634   10.7113    0.0215 H   0  0  0  0  0  0  0  0  0  0  0  0
   -2.8838   10.9721   -1.5228 H   0  0  0  0  0  0  0  0  0  0  0  0
   -4.4659   10.1214   -1.5228 H   0  0  0  0  0  0  0  0  0  0  0  0
   -2.5996    8.9608    1.3940 H   0  0  0  0  0  0  0  0  0  0  0  0
   -1.1781    8.2854    0.5279 H   0  0  0  0  0  0  0  0  0  0  0  0
   -1.4711   10.0577    0.5279 H   0  0  0  0  0  0  0  0  0  0  0  0
   -4.6985    4.4610   -1.1430 H   0  0  0  0  0  0  0  0  0  0  0  0
   -5.5812    4.2123   -2.6876 H   0  0  0  0  0  0  0  0  0  0  0  0
   -3.9866    5.0391   -2.6876 H   0  0  0  0  0  0  0  0  0  0  0  0
   -6.0987    6.8219   -3.9962 H   0  0  0  0  0  0  0  0  0  0  0  0
   -7.0520    5.3960   -3.2943 H   0  0  0  0  0  0  0  0  0  0  0  0
   -7.5655    8.3523   -2.8676 H   0  0  0  0  0  0  0  0  0  0  0  0
   -8.5939    7.1405   -3.7290 H   0  0  0  0  0  0  0  0  0  0  0  0
   -9.2324    5.0458   -0.6959 H   0  0  0  0  0  0  0  0  0  0  0  0
  -10.0438    5.4478   -2.2473 H   0  0  0  0  0  0  0  0  0  0  0  0
   -8.3459    4.8615   -2.2473 H   0  0  0  0  0  0  0  0  0  0  0  0
  1  2  1  0
  2  3  1  0
  3  4  1  0
  4  5  1  0
  5  6  1  0
  6  7  1  0
  7  8  1  0
  7  9  1  0
  2 10  1  0
 10 11  1  0
 11 12  1  0
 12 13  1  0
 13 14  1  6
 13 15  1  0
 15 16  1  0
 16 17  1  0
 17 18  2  0
 18 19  1  0
 19 20  1  0
 20 21  1  0
 21 22  1  0
 22 23  1  0
 22 24  1  0
 24 25  1  0
 24 26  1  0
 19 27  1  0
 27 28  1  6
 27 29  1  0
 29 30  1  0
 30 31  1  0
 31 32  1  6
  7  5  1  0
 31 10  1  0
 31 13  1  0
 27 15  1  0
 24 18  1  0
  1 33  1  0
  1 34  1  0
  1 35  1  0
  2 36  1  6
  3 37  1  0
  3 38  1  0
  4 39  1  0
  4 40  1  0
  5 41  1  1
  8 42  1  0
  8 43  1  0
  8 44  1  0
  9 45  1  0
  9 46  1  0
  9 47  1  0
 10 48  1  1
 11 49  1  0
 11 50  1  0
 12 51  1  0
 12 52  1  0
 14 53  1  0
 14 54  1  0
 14 55  1  0
 15 56  1  6
 16 57  1  0
 16 58  1  0
 17 59  1  0
 19 60  1  6
 20 61  1  0
 20 62  1  0
 21 63  1  0
 21 64  1  0
 22 65  1  6
 23 66  1  0
 25 67  1  0
 25 68  1  0
 25 69  1  0
 26 70  1  0
 26 71  1  0
 26 72  1  0
 28 73  1  0
 28 74  1  0
 28 75  1  0
 29 76  1  0
 29 77  1  0
 30 78  1  0
 30 79  1  0
 32 80  1  0
 32 81  1  0
 32 82  1  0
M  END
>  <meeko>  (15) 
{"is_sidechain": [false], "intermolecular_energy": 2.731, "internal_energy": -0.839}

$$$$
EPH_relaxed_0001_pdb2pqr_Repair_254_r2_0001_out
     RDKit          3D

 82 86  0  0  0  0  0  0  0  0999 V2000
   -4.6870    6.4150    1.2700 C   0  0  0  0  0  0  0  0  0  0  0  0
   -4.9070    7.1380   -0.0620 C   0  0  2  0  0  0  0  0  0  0  0  0
   -5.7520    6.3020   -1.0440 C   0  0  0  0  0  0  0  0  0  0  0  0
   -6.6000    7.1450   -1.9990 C   0  0  0  0  0  0  0  0  0  0  0  0
   -7.9540    7.4380   -1.4270 C   0  0  2  0  0  0  0  0  0  0  0  0
   -8.6620    6.2870   -0.9460 O   0  0  0  0  0  0  0  0  0  0  0  0
   -9.2500    6.9720   -2.0640 C   0  0  0  0  0  0  0  0  0  0  0  0
   -9.2540    6.1750   -3.3310 C   0  0  0  0  0  0  0  0  0  0  0  0
  -10.5140    7.6990   -1.7290 C   0  0  0  0  0  0  0  0  0  0  0  0
   -3.5650    7.4850   -0.6940 C   0  0  1  0  0  0  0  0  0  0  0  0
   -3.4190    6.9230   -2.1330 C   0  0  0  0  0  0  0  0  0  0  0  0
   -2.5910    7.9590   -2.9360 C   0  0  0  0  0  0  0  0  0  0  0  0
   -2.0110    8.9100   -1.8640 C   0  0  1  0  0  0  0  0  0  0  0  0
   -0.7620    8.1630   -1.2990 C   0  0  0  0  0  0  0  0  0  0  0  0
   -1.6520   10.3550   -2.3430 C   0  0  2  0  0  0  0  0  0  0  0  0
   -0.5550   10.4310   -3.4200 C   0  0  0  0  0  0  0  0  0  0  0  0
    0.8390   10.5590   -2.9020 C   0  0  0  0  0  0  0  0  0  0  0  0
    1.1790   10.8950   -1.6440 C   0  0  0  0  0  0  0  0  0  0  0  0
    0.1080   11.2840   -0.6160 C   0  0  1  0  0  0  0  0  0  0  0  0
    0.5500   12.5700    0.1300 C   0  0  0  0  0  0  0  0  0  0  0  0
    1.9360   12.4380    0.7540 C   0  0  0  0  0  0  0  0  0  0  0  0
    2.9820   12.1080   -0.3080 C   0  0  2  0  0  0  0  0  0  0  0  0
    3.1160   13.2300   -1.1870 O   0  0  0  0  0  0  0  0  0  0  0  0
    2.6390   10.8360   -1.1320 C   0  0  0  0  0  0  0  0  0  0  0  0
    2.7900    9.5800   -0.2380 C   0  0  0  0  0  0  0  0  0  0  0  0
    3.6990   10.6970   -2.2590 C   0  0  0  0  0  0  0  0  0  0  0  0
   -1.3800   11.3790   -1.1670 C   0  0  1  0  0  0  0  0  0  0  0  0
   -1.6430   12.8020   -1.7470 C   0  0  0  0  0  0  0  0  0  0  0  0
   -2.3840   11.1940    0.0310 C   0  0  0  0  0  0  0  0  0  0  0  0
   -2.7930    9.7500    0.3790 C   0  0  0  0  0  0  0  0  0  0  0  0
   -3.2300    8.9870   -0.8750 C   0  0  2  0  0  0  0  0  0  0  0  0
   -4.4990    9.7020   -1.4530 C   0  0  0  0  0  0  0  0  0  0  0  0
   -4.8969    7.1049    2.1007 H   0  0  0  0  0  0  0  0  0  0  0  0
   -5.3623    5.5490    1.3330 H   0  0  0  0  0  0  0  0  0  0  0  0
   -3.6438    6.0719    1.3330 H   0  0  0  0  0  0  0  0  0  0  0  0
   -5.4661    8.0609    0.1516 H   0  0  0  0  0  0  0  0  0  0  0  0
   -5.0722    5.6777   -1.6425 H   0  0  0  0  0  0  0  0  0  0  0  0
   -6.4489    5.7034   -0.4390 H   0  0  0  0  0  0  0  0  0  0  0  0
   -6.0812    8.0956   -2.1917 H   0  0  0  0  0  0  0  0  0  0  0  0
   -6.7372    6.5749   -2.9297 H   0  0  0  0  0  0  0  0  0  0  0  0
   -7.6182    8.4245   -1.0747 H   0  0  0  0  0  0  0  0  0  0  0  0
   -9.2594    5.1019   -3.0891 H   0  0  0  0  0  0  0  0  0  0  0  0
  -10.1509    6.4232   -3.9175 H   0  0  0  0  0  0  0  0  0  0  0  0
   -8.3546    6.4142   -3.9175 H   0  0  0  0  0  0  0  0  0  0  0  0
  -10.6225    7.7614   -0.6361 H   0  0  0  0  0  0  0  0  0  0  0  0
  -10.4766    8.7136   -2.1523 H   0  0  0  0  0  0  0  0  0  0  0  0
  -11.3722    7.1565   -2.1523 H   0  0  0  0  0  0  0  0  0  0  0  0
   -2.8903    7.0364    0.0500 H   0  0  0  0  0  0  0  0  0  0  0  0
   -2.8960    5.9555   -2.1106 H   0  0  0  0  0  0  0  0  0  0  0  0
   -4.4038    6.7607   -2.5954 H   0  0  0  0  0  0  0  0  0  0  0  0
   -1.7827    7.4625   -3.4929 H   0  0  0  0  0  0  0  0  0  0  0  0
   -3.1997    8.4921   -3.6812 H   0  0  0  0  0  0  0  0  0  0  0  0
   -0.7908    8.1802   -0.1995 H   0  0  0  0  0  0  0  0  0  0  0  0
   -0.7686    7.1204   -1.6497 H   0  0  0  0  0  0  0  0  0  0  0  0
    0.1534    8.6620   -1.6497 H   0  0  0  0  0  0  0  0  0  0  0  0
   -2.5799   10.6774   -2.8381 H   0  0  0  0  0  0  0  0  0  0  0  0
   -0.6096    9.5147   -4.0261 H   0  0  0  0  0  0  0  0  0  0  0  0
   -0.7528   11.3497   -3.9917 H   0  0  0  0  0  0  0  0  0  0  0  0
    1.6584   10.3618   -3.6089 H   0  0  0  0  0  0  0  0  0  0  0  0
    0.0462   10.4442    0.0918 H   0  0  0  0  0  0  0  0  0  0  0  0
    0.5636   13.4055   -0.5854 H   0  0  0  0  0  0  0  0  0  0  0  0
   -0.1674   12.7462    0.9450 H   0  0  0  0  0  0  0  0  0  0  0  0
    2.2039   13.3874    1.2406 H   0  0  0  0  0  0  0  0  0  0  0  0
    1.9135   11.6217    1.4910 H   0  0  0  0  0  0  0  0  0  0  0  0
    3.9270   11.8971    0.2140 H   0  0  0  0  0  0  0  0  0  0  0  0
    3.7600   13.8400   -0.7900 H   0  0  0  0  0  0  0  0  0  0  0  0
    2.7543    9.8770    0.8206 H   0  0  0  0  0  0  0  0  0  0  0  0
    1.9697    8.8784   -0.4499 H   0  0  0  0  0  0  0  0  0  0  0  0
    3.7532    9.0928   -0.4499 H   0  0  0  0  0  0  0  0  0  0  0  0
    4.6952   10.5664   -1.8113 H   0  0  0  0  0  0  0  0  0  0  0  0
    3.4594    9.8226   -2.8819 H   0  0  0  0  0  0  0  0  0  0  0  0
    3.6930   11.6036   -2.8819 H   0  0  0  0  0  0  0  0  0  0  0  0
   -1.7750   13.5161   -0.9208 H   0  0  0  0  0  0  0  0  0  0  0  0
   -0.7866   13.1102   -2.3647 H   0  0  0  0  0  0  0  0  0  0  0  0
   -2.5530   12.7837   -2.3647 H   0  0  0  0  0  0  0  0  0  0  0  0
   -1.9185   11.6327    0.9259 H   0  0  0  0  0  0  0  0  0  0  0  0
   -3.3129   11.6855   -0.2939 H   0  0  0  0  0  0  0  0  0  0  0  0
   -1.9355    9.2329    0.8344 H   0  0  0  0  0  0  0  0  0  0  0  0
   -3.6389    9.7845    1.0813 H   0  0  0  0  0  0  0  0  0  0  0  0
   -5.1292   10.0571   -0.6243 H   0  0  0  0  0  0  0  0  0  0  0  0
   -4.1884   10.5579   -2.0702 H   0  0  0  0  0  0  0  0  0  0  0  0
   -5.0702    8.9929   -2.0702 H   0  0  0  0  0  0  0  0  0  0  0  0
  1  2  1  0
  2  3  1  0
  3  4  1  0
  4  5  1  0
  5  6  1  0
  6  7  1  0
  7  8  1  0
  7  9  1  0
  2 10  1  0
 10 11  1  0
 11 12  1  0
 12 13  1  0
 13 14  1  1
 13 15  1  0
 15 16  1  0
 16 17  1  0
 17 18  2  0
 18 19  1  0
 19 20  1  0
 20 21  1  0
 21 22  1  0
 22 23  1  0
 22 24  1  0
 24 25  1  0
 24 26  1  0
 19 27  1  0
 27 28  1  6
 27 29  1  0
 29 30  1  0
 30 31  1  0
 31 32  1  6
  7  5  1  0
 31 10  1  0
 31 13  1  0
 27 15  1  0
 24 18  1  0
  1 33  1  0
  1 34  1  0
  1 35  1  0
  2 36  1  1
  3 37  1  0
  3 38  1  0
  4 39  1  0
  4 40  1  0
  5 41  1  1
  8 42  1  0
  8 43  1  0
  8 44  1  0
  9 45  1  0
  9 46  1  0
  9 47  1  0
 10 48  1  1
 11 49  1  0
 11 50  1  0
 12 51  1  0
 12 52  1  0
 14 53  1  0
 14 54  1  0
 14 55  1  0
 15 56  1  6
 16 57  1  0
 16 58  1  0
 17 59  1  0
 19 60  1  1
 20 61  1  0
 20 62  1  0
 21 63  1  0
 21 64  1  0
 22 65  1  1
 23 66  1  0
 25 67  1  0
 25 68  1  0
 25 69  1  0
 26 70  1  0
 26 71  1  0
 26 72  1  0
 28 73  1  0
 28 74  1  0
 28 75  1  0
 29 76  1  0
 29 77  1  0
 30 78  1  0
 30 79  1  0
 32 80  1  0
 32 81  1  0
 32 82  1  0
M  END
>  <meeko>  (16) 
{"is_sidechain": [false], "intermolecular_energy": 2.731, "internal_energy": -0.839}

$$$$
EPH_relaxed_0001_pdb2pqr_Repair_254_r2_0001_out
     RDKit          3D

 82 86  0  0  0  0  0  0  0  0999 V2000
    3.1760   11.9950   -5.6690 C   0  0  0  0  0  0  0  0  0  0  0  0
    1.8140   12.6950   -5.6480 C   0  0  2  0  0  0  0  0  0  0  0  0
    1.9490   14.2300   -5.7120 C   0  0  0  0  0  0  0  0  0  0  0  0
    1.0790   14.8790   -6.7920 C   0  0  0  0  0  0  0  0  0  0  0  0
    1.8100   15.0010   -8.0940 C   0  0  2  0  0  0  0  0  0  0  0  0
    2.3140   16.3130   -8.3770 O   0  0  0  0  0  0  0  0  0  0  0  0
    1.3000   15.8180   -9.2670 C   0  0  0  0  0  0  0  0  0  0  0  0
    0.0070   16.5670   -9.1920 C   0  0  0  0  0  0  0  0  0  0  0  0
    1.8070   15.4950  -10.6380 C   0  0  0  0  0  0  0  0  0  0  0  0
    1.0420   12.2920   -4.3970 C   0  0  1  0  0  0  0  0  0  0  0  0
   -0.0080   11.1830   -4.6740 C   0  0  0  0  0  0  0  0  0  0  0  0
   -0.0540   10.2860   -3.4100 C   0  0  0  0  0  0  0  0  0  0  0  0
    0.7130   11.0890   -2.3330 C   0  0  1  0  0  0  0  0  0  0  0  0
   -0.3230   12.1230   -1.7910 C   0  0  0  0  0  0  0  0  0  0  0  0
    1.3560   10.2550   -1.1780 C   0  0  2  0  0  0  0  0  0  0  0  0
    0.3580    9.4770   -0.3010 C   0  0  0  0  0  0  0  0  0  0  0  0
   -0.1520   10.2150    0.8930 C   0  0  0  0  0  0  0  0  0  0  0  0
    0.3850   11.3360    1.4070 C   0  0  0  0  0  0  0  0  0  0  0  0
    1.6830   11.9230    0.8360 C   0  0  1  0  0  0  0  0  0  0  0  0
    2.6430   12.2860    1.9980 C   0  0  0  0  0  0  0  0  0  0  0  0
    1.9930   13.2040    3.0290 C   0  0  0  0  0  0  0  0  0  0  0  0
    0.7390   12.5620    3.6170 C   0  0  2  0  0  0  0  0  0  0  0  0
    1.1230   11.4160    4.3830 O   0  0  0  0  0  0  0  0  0  0  0  0
   -0.2990   12.1440    2.5380 C   0  0  0  0  0  0  0  0  0  0  0  0
   -0.9380   13.4090    1.9130 C   0  0  0  0  0  0  0  0  0  0  0  0
   -1.4490   11.3830    3.2510 C   0  0  0  0  0  0  0  0  0  0  0  0
    2.3930   11.0620   -0.2960 C   0  0  1  0  0  0  0  0  0  0  0  0
    3.3400   10.0070    0.3540 C   0  0  0  0  0  0  0  0  0  0  0  0
    3.3080   12.0060   -1.1620 C   0  0  0  0  0  0  0  0  0  0  0  0
    2.6430   12.7080   -2.3620 C   0  0  0  0  0  0  0  0  0  0  0  0
    1.8570   11.7080   -3.2160 C   0  0  2  0  0  0  0  0  0  0  0  0
    2.8760   10.6680   -3.7930 C   0  0  0  0  0  0  0  0  0  0  0  0
    3.5147   11.8209   -4.6370 H   0  0  0  0  0  0  0  0  0  0  0  0
    3.0852   11.0318   -6.1925 H   0  0  0  0  0  0  0  0  0  0  0  0
    3.9063   12.6295   -6.1925 H   0  0  0  0  0  0  0  0  0  0  0  0
    1.2631   12.3743   -6.5445 H   0  0  0  0  0  0  0  0  0  0  0  0
    1.6584   14.6453   -4.7358 H   0  0  0  0  0  0  0  0  0  0  0  0
    2.9961   14.4507   -5.9666 H   0  0  0  0  0  0  0  0  0  0  0  0
    0.1807   14.2626   -6.9440 H   0  0  0  0  0  0  0  0  0  0  0  0
    0.8106   15.8907   -6.4536 H   0  0  0  0  0  0  0  0  0  0  0  0
    2.1673   13.9635   -8.0175 H   0  0  0  0  0  0  0  0  0  0  0  0
   -0.2649   16.7245   -8.1378 H   0  0  0  0  0  0  0  0  0  0  0  0
    0.1178   17.5408   -9.6915 H   0  0  0  0  0  0  0  0  0  0  0  0
   -0.7826   15.9864   -9.6915 H   0  0  0  0  0  0  0  0  0  0  0  0
    2.7322   14.9056  -10.5573 H   0  0  0  0  0  0  0  0  0  0  0  0
    1.0481   14.9136  -11.1820 H   0  0  0  0  0  0  0  0  0  0  0  0
    2.0132   16.4285  -11.1820 H   0  0  0  0  0  0  0  0  0  0  0  0
    0.6214   13.2691   -4.1172 H   0  0  0  0  0  0  0  0  0  0  0  0
   -0.9953   11.6328   -4.8556 H   0  0  0  0  0  0  0  0  0  0  0  0
    0.2616   10.5970   -5.5650 H   0  0  0  0  0  0  0  0  0  0  0  0
   -1.0936   10.1102   -3.0963 H   0  0  0  0  0  0  0  0  0  0  0  0
    0.3895    9.2948   -3.5857 H   0  0  0  0  0  0  0  0  0  0  0  0
   -0.3115   12.1115   -0.6911 H   0  0  0  0  0  0  0  0  0  0  0  0
   -0.0594   13.1288   -2.1500 H   0  0  0  0  0  0  0  0  0  0  0  0
   -1.3283   11.8574   -2.1500 H   0  0  0  0  0  0  0  0  0  0  0  0
    1.9284    9.4930   -1.7273 H   0  0  0  0  0  0  0  0  0  0  0  0
   -0.5049    9.2056   -0.9269 H   0  0  0  0  0  0  0  0  0  0  0  0
    0.9089    8.6089    0.0901 H   0  0  0  0  0  0  0  0  0  0  0  0
   -1.0421    9.8073    1.3945 H   0  0  0  0  0  0  0  0  0  0  0  0
    1.3920   12.8353    0.2947 H   0  0  0  0  0  0  0  0  0  0  0  0
    2.9561   11.3584    2.4995 H   0  0  0  0  0  0  0  0  0  0  0  0
    3.5010   12.8227    1.5669 H   0  0  0  0  0  0  0  0  0  0  0  0
    2.7106   13.4006    3.8392 H   0  0  0  0  0  0  0  0  0  0  0  0
    1.7070   14.1430    2.5325 H   0  0  0  0  0  0  0  0  0  0  0  0
    0.2484   13.3167    4.2493 H   0  0  0  0  0  0  0  0  0  0  0  0
    1.9490   11.6360    4.8470 H   0  0  0  0  0  0  0  0  0  0  0  0
   -1.2779   14.0820    2.7140 H   0  0  0  0  0  0  0  0  0  0  0  0
   -0.1933   13.9267    1.2906 H   0  0  0  0  0  0  0  0  0  0  0  0
   -1.7966   13.1167    1.2906 H   0  0  0  0  0  0  0  0  0  0  0  0
   -1.3234   11.4661    4.3406 H   0  0  0  0  0  0  0  0  0  0  0  0
   -2.4149   11.8208    2.9588 H   0  0  0  0  0  0  0  0  0  0  0  0
   -1.4236   10.3228    2.9588 H   0  0  0  0  0  0  0  0  0  0  0  0
    3.2739   10.0806    1.4495 H   0  0  0  0  0  0  0  0  0  0  0  0
    3.0386    8.9982    0.0355 H   0  0  0  0  0  0  0  0  0  0  0  0
    4.3754   10.1981    0.0355 H   0  0  0  0  0  0  0  0  0  0  0  0
    3.7040   12.7875   -0.4968 H   0  0  0  0  0  0  0  0  0  0  0  0
    4.0698   11.3450   -1.6010 H   0  0  0  0  0  0  0  0  0  0  0  0
    1.9555   13.4821   -1.9903 H   0  0  0  0  0  0  0  0  0  0  0  0
    3.4299   13.1585   -2.9848 H   0  0  0  0  0  0  0  0  0  0  0  0
    3.3820   10.1516   -2.9639 H   0  0  0  0  0  0  0  0  0  0  0  0
    2.3393    9.9324   -4.4102 H   0  0  0  0  0  0  0  0  0  0  0  0
    3.6224   11.1895   -4.4102 H   0  0  0  0  0  0  0  0  0  0  0  0
  1  2  1  0
  2  3  1  0
  3  4  1  0
  4  5  1  0
  5  6  1  0
  6  7  1  0
  7  8  1  0
  7  9  1  0
  2 10  1  0
 10 11  1  0
 11 12  1  0
 12 13  1  0
 13 14  1  1
 13 15  1  0
 15 16  1  0
 16 17  1  0
 17 18  2  0
 18 19  1  0
 19 20  1  0
 20 21  1  0
 21 22  1  0
 22 23  1  0
 22 24  1  0
 24 25  1  0
 24 26  1  0
 19 27  1  0
 27 28  1  1
 27 29  1  0
 29 30  1  0
 30 31  1  0
 31 32  1  6
  7  5  1  0
 31 10  1  0
 31 13  1  0
 27 15  1  0
 24 18  1  0
  1 33  1  0
  1 34  1  0
  1 35  1  0
  2 36  1  6
  3 37  1  0
  3 38  1  0
  4 39  1  0
  4 40  1  0
  5 41  1  6
  8 42  1  0
  8 43  1  0
  8 44  1  0
  9 45  1  0
  9 46  1  0
  9 47  1  0
 10 48  1  1
 11 49  1  0
 11 50  1  0
 12 51  1  0
 12 52  1  0
 14 53  1  0
 14 54  1  0
 14 55  1  0
 15 56  1  6
 16 57  1  0
 16 58  1  0
 17 59  1  0
 19 60  1  6
 20 61  1  0
 20 62  1  0
 21 63  1  0
 21 64  1  0
 22 65  1  1
 23 66  1  0
 25 67  1  0
 25 68  1  0
 25 69  1  0
 26 70  1  0
 26 71  1  0
 26 72  1  0
 28 73  1  0
 28 74  1  0
 28 75  1  0
 29 76  1  0
 29 77  1  0
 30 78  1  0
 30 79  1  0
 32 80  1  0
 32 81  1  0
 32 82  1  0
M  END
>  <meeko>  (17) 
{"is_sidechain": [false], "intermolecular_energy": 2.731, "internal_energy": -0.839}

$$$$
