EPH_relaxed_0001_pdb2pqr_Repair_395_r2_0001_out
     RDKit          3D

 82 86  0  0  0  0  0  0  0  0999 V2000
   -1.8320    8.7940   -1.8670 C   0  0  0  0  0  0  0  0  0  0  0  0
   -1.8310    9.0540   -0.3580 C   0  0  2  0  0  0  0  0  0  0  0  0
   -3.2570    9.2260    0.2030 C   0  0  0  0  0  0  0  0  0  0  0  0
   -4.3500    9.1720   -0.8680 C   0  0  0  0  0  0  0  0  0  0  0  0
   -5.0680    7.8560   -0.8610 C   0  0  2  0  0  0  0  0  0  0  0  0
   -5.3270    7.3090   -2.1610 O   0  0  0  0  0  0  0  0  0  0  0  0
   -6.4800    7.6710   -1.3840 C   0  0  0  0  0  0  0  0  0  0  0  0
   -7.2590    8.8170   -1.9490 C   0  0  0  0  0  0  0  0  0  0  0  0
   -7.2740    6.4980   -0.9000 C   0  0  0  0  0  0  0  0  0  0  0  0
   -0.9950   10.2900   -0.0440 C   0  0  1  0  0  0  0  0  0  0  0  0
    0.0820   10.0230    1.0410 C   0  0  0  0  0  0  0  0  0  0  0  0
    1.3160   10.8850    0.6680 C   0  0  0  0  0  0  0  0  0  0  0  0
    0.7970   11.8600   -0.4150 C   0  0  1  0  0  0  0  0  0  0  0  0
    0.0840   12.9990    0.3780 C   0  0  0  0  0  0  0  0  0  0  0  0
    1.8680   12.4270   -1.4030 C   0  0  2  0  0  0  0  0  0  0  0  0
    2.9700   13.2800   -0.7520 C   0  0  0  0  0  0  0  0  0  0  0  0
    2.6790   14.7420   -0.6690 C   0  0  0  0  0  0  0  0  0  0  0  0
    1.7140   15.3880   -1.3490 C   0  0  0  0  0  0  0  0  0  0  0  0
    0.8540   14.6520   -2.3850 C   0  0  1  0  0  0  0  0  0  0  0  0
    0.7580   15.5040   -3.6780 C   0  0  0  0  0  0  0  0  0  0  0  0
    0.2620   16.9210   -3.4090 C   0  0  0  0  0  0  0  0  0  0  0  0
    1.1750   17.6400   -2.4190 C   0  0  2  0  0  0  0  0  0  0  0  0
    2.4520   17.8430   -3.0340 O   0  0  0  0  0  0  0  0  0  0  0  0
    1.3560   16.8700   -1.0810 C   0  0  0  0  0  0  0  0  0  0  0  0
    0.0350   16.9130   -0.2740 C   0  0  0  0  0  0  0  0  0  0  0  0
    2.4090   17.6310   -0.2310 C   0  0  0  0  0  0  0  0  0  0  0  0
    1.2590   13.1430   -2.6770 C   0  0  1  0  0  0  0  0  0  0  0  0
    2.3570   13.0920   -3.7830 C   0  0  0  0  0  0  0  0  0  0  0  0
    0.0110   12.3780   -3.2540 C   0  0  0  0  0  0  0  0  0  0  0  0
   -0.9460   11.7370   -2.2310 C   0  0  0  0  0  0  0  0  0  0  0  0
   -0.1720   10.9050   -1.2030 C   0  0  2  0  0  0  0  0  0  0  0  0
    0.5380    9.7370   -1.9700 C   0  0  0  0  0  0  0  0  0  0  0  0
   -1.8362    7.7097   -2.0522 H   0  0  0  0  0  0  0  0  0  0  0  0
   -2.7284    9.2462   -2.3164 H   0  0  0  0  0  0  0  0  0  0  0  0
   -0.9321    9.2393   -2.3164 H   0  0  0  0  0  0  0  0  0  0  0  0
   -1.3890    8.1724    0.1292 H   0  0  0  0  0  0  0  0  0  0  0  0
   -3.4434    8.4222    0.9304 H   0  0  0  0  0  0  0  0  0  0  0  0
   -3.3042   10.2251    0.6607 H   0  0  0  0  0  0  0  0  0  0  0  0
   -5.0765    9.9756   -0.6769 H   0  0  0  0  0  0  0  0  0  0  0  0
   -3.8733    9.2975   -1.8514 H   0  0  0  0  0  0  0  0  0  0  0  0
   -4.5900    7.5730    0.0884 H   0  0  0  0  0  0  0  0  0  0  0  0
   -7.6700    9.4216   -1.1271 H   0  0  0  0  0  0  0  0  0  0  0  0
   -6.5970    9.4408   -2.5676 H   0  0  0  0  0  0  0  0  0  0  0  0
   -8.0826    8.4310   -2.5676 H   0  0  0  0  0  0  0  0  0  0  0  0
   -7.2805    6.4884    0.1999 H   0  0  0  0  0  0  0  0  0  0  0  0
   -8.3063    6.5753   -1.2721 H   0  0  0  0  0  0  0  0  0  0  0  0
   -6.8187    5.5684   -1.2721 H   0  0  0  0  0  0  0  0  0  0  0  0
   -1.7952   10.9820    0.2575 H   0  0  0  0  0  0  0  0  0  0  0  0
   -0.2979   10.3139    2.0315 H   0  0  0  0  0  0  0  0  0  0  0  0
    0.3440    8.9555    1.0832 H   0  0  0  0  0  0  0  0  0  0  0  0
    1.6828   11.4383    1.5451 H   0  0  0  0  0  0  0  0  0  0  0  0
    2.1589   10.2749    0.3111 H   0  0  0  0  0  0  0  0  0  0  0  0
    0.1961   12.8199    1.4575 H   0  0  0  0  0  0  0  0  0  0  0  0
    0.5379   13.9666    0.1178 H   0  0  0  0  0  0  0  0  0  0  0  0
   -0.9847   13.0135    0.1178 H   0  0  0  0  0  0  0  0  0  0  0  0
    2.3685   11.5141   -1.7580 H   0  0  0  0  0  0  0  0  0  0  0  0
    3.1296   12.9066    0.2703 H   0  0  0  0  0  0  0  0  0  0  0  0
    3.8536   13.1818   -1.3997 H   0  0  0  0  0  0  0  0  0  0  0  0
    3.3070   15.3424    0.0056 H   0  0  0  0  0  0  0  0  0  0  0  0
   -0.1431   14.5469   -1.9324 H   0  0  0  0  0  0  0  0  0  0  0  0
    1.7557   15.5609   -4.1377 H   0  0  0  0  0  0  0  0  0  0  0  0
    0.0319   15.0171   -4.3456 H   0  0  0  0  0  0  0  0  0  0  0  0
    0.2443   17.4819   -4.3551 H   0  0  0  0  0  0  0  0  0  0  0  0
   -0.7480   16.8633   -2.9770 H   0  0  0  0  0  0  0  0  0  0  0  0
    0.6981   18.5985   -2.1665 H   0  0  0  0  0  0  0  0  0  0  0  0
    2.9280   18.5090   -2.5100 H   0  0  0  0  0  0  0  0  0  0  0  0
    0.2624   16.9056    0.8022 H   0  0  0  0  0  0  0  0  0  0  0  0
   -0.5186   17.8296   -0.5255 H   0  0  0  0  0  0  0  0  0  0  0  0
   -0.5771   16.0343   -0.5255 H   0  0  0  0  0  0  0  0  0  0  0  0
    2.1975   17.4781    0.8376 H   0  0  0  0  0  0  0  0  0  0  0  0
    3.4139   17.2491   -0.4642 H   0  0  0  0  0  0  0  0  0  0  0  0
    2.3617   18.7050   -0.4642 H   0  0  0  0  0  0  0  0  0  0  0  0
    3.3500   13.0459   -3.3120 H   0  0  0  0  0  0  0  0  0  0  0  0
    2.2061   12.1999   -4.4086 H   0  0  0  0  0  0  0  0  0  0  0  0
    2.2895   13.9943   -4.4086 H   0  0  0  0  0  0  0  0  0  0  0  0
   -0.5719   13.0950   -3.8508 H   0  0  0  0  0  0  0  0  0  0  0  0
    0.4289   11.5351   -3.8240 H   0  0  0  0  0  0  0  0  0  0  0  0
   -1.4988   12.5315   -1.7083 H   0  0  0  0  0  0  0  0  0  0  0  0
   -1.6406   11.0740   -2.7677 H   0  0  0  0  0  0  0  0  0  0  0  0
    0.9677    9.0301   -1.2450 H   0  0  0  0  0  0  0  0  0  0  0  0
   -0.1952    9.2141   -2.6016 H   0  0  0  0  0  0  0  0  0  0  0  0
    1.3398   10.1471   -2.6016 H   0  0  0  0  0  0  0  0  0  0  0  0
  1  2  1  0
  2  3  1  0
  3  4  1  0
  4  5  1  0
  5  6  1  0
  6  7  1  0
  7  8  1  0
  7  9  1  0
  2 10  1  0
 10 11  1  0
 11 12  1  0
 12 13  1  0
 13 14  1  1
 13 15  1  0
 15 16  1  0
 16 17  1  0
 17 18  2  0
 18 19  1  0
 19 20  1  0
 20 21  1  0
 21 22  1  0
 22 23  1  0
 22 24  1  0
 24 25  1  0
 24 26  1  0
 19 27  1  0
 27 28  1  6
 27 29  1  0
 29 30  1  0
 30 31  1  0
 31 32  1  6
  7  5  1  0
 31 10  1  0
 31 13  1  0
 27 15  1  0
 24 18  1  0
  1 33  1  0
  1 34  1  0
  1 35  1  0
  2 36  1  1
  3 37  1  0
  3 38  1  0
  4 39  1  0
  4 40  1  0
  5 41  1  1
  8 42  1  0
  8 43  1  0
  8 44  1  0
  9 45  1  0
  9 46  1  0
  9 47  1  0
 10 48  1  1
 11 49  1  0
 11 50  1  0
 12 51  1  0
 12 52  1  0
 14 53  1  0
 14 54  1  0
 14 55  1  0
 15 56  1  6
 16 57  1  0
 16 58  1  0
 17 59  1  0
 19 60  1  1
 20 61  1  0
 20 62  1  0
 21 63  1  0
 21 64  1  0
 22 65  1  1
 23 66  1  0
 25 67  1  0
 25 68  1  0
 25 69  1  0
 26 70  1  0
 26 71  1  0
 26 72  1  0
 28 73  1  0
 28 74  1  0
 28 75  1  0
 29 76  1  0
 29 77  1  0
 30 78  1  0
 30 79  1  0
 32 80  1  0
 32 81  1  0
 32 82  1  0
M  END
>  <meeko>  (1) 
{"is_sidechain": [false], "intermolecular_energy": 2.731, "internal_energy": -0.839}

$$$$
EPH_relaxed_0001_pdb2pqr_Repair_395_r2_0001_out
     RDKit          3D

 82 86  0  0  0  0  0  0  0  0999 V2000
   -5.3690    5.9360   -4.5020 C   0  0  0  0  0  0  0  0  0  0  0  0
   -5.4250    6.9440   -3.3500 C   0  0  2  0  0  0  0  0  0  0  0  0
   -4.2450    6.7750   -2.3730 C   0  0  0  0  0  0  0  0  0  0  0  0
   -3.0500    7.6800   -2.6860 C   0  0  0  0  0  0  0  0  0  0  0  0
   -2.3670    8.1490   -1.4380 C   0  0  2  0  0  0  0  0  0  0  0  0
   -2.4540    9.5600   -1.2010 O   0  0  0  0  0  0  0  0  0  0  0  0
   -1.1370    9.0380   -1.4400 C   0  0  0  0  0  0  0  0  0  0  0  0
   -0.5180    9.5090   -2.7190 C   0  0  0  0  0  0  0  0  0  0  0  0
   -0.2570    9.0450   -0.2300 C   0  0  0  0  0  0  0  0  0  0  0  0
   -6.7450    6.8070   -2.6020 C   0  0  1  0  0  0  0  0  0  0  0  0
   -6.6340    5.8830   -1.3600 C   0  0  0  0  0  0  0  0  0  0  0  0
   -7.5820    6.4680   -0.2810 C   0  0  0  0  0  0  0  0  0  0  0  0
   -8.4480    7.5000   -1.0410 C   0  0  1  0  0  0  0  0  0  0  0  0
   -9.5590    6.6550   -1.7400 C   0  0  0  0  0  0  0  0  0  0  0  0
   -9.0560    8.6570   -0.1840 C   0  0  2  0  0  0  0  0  0  0  0  0
  -10.0380    8.2100    0.9130 C   0  0  0  0  0  0  0  0  0  0  0  0
  -11.4710    8.1430    0.4970 C   0  0  0  0  0  0  0  0  0  0  0  0
  -11.9900    8.6980   -0.6140 C   0  0  0  0  0  0  0  0  0  0  0  0
  -11.1260    9.5650   -1.5380 C   0  0  1  0  0  0  0  0  0  0  0  0
  -11.8960   10.8620   -1.9010 C   0  0  0  0  0  0  0  0  0  0  0  0
  -13.2750   10.5780   -2.4880 C   0  0  0  0  0  0  0  0  0  0  0  0
  -14.1250    9.7640   -1.5150 C   0  0  2  0  0  0  0  0  0  0  0  0
  -14.4080   10.5680   -0.3660 O   0  0  0  0  0  0  0  0  0  0  0  0
  -13.4460    8.4380   -1.0710 C   0  0  0  0  0  0  0  0  0  0  0  0
  -13.4130    7.4460   -2.2600 C   0  0  0  0  0  0  0  0  0  0  0  0
  -14.3420    7.7830    0.0150 C   0  0  0  0  0  0  0  0  0  0  0  0
   -9.6460    9.8540   -1.0350 C   0  0  1  0  0  0  0  0  0  0  0  0
   -9.6350   11.1080   -0.1080 C   0  0  0  0  0  0  0  0  0  0  0  0
   -8.7420   10.2100   -2.2740 C   0  0  0  0  0  0  0  0  0  0  0  0
   -8.0730    9.0320   -3.0070 C   0  0  0  0  0  0  0  0  0  0  0  0
   -7.3690    8.0980   -2.0170 C   0  0  2  0  0  0  0  0  0  0  0  0
   -6.2310    8.9150   -1.3150 C   0  0  0  0  0  0  0  0  0  0  0  0
   -5.3123    4.9159   -4.0942 H   0  0  0  0  0  0  0  0  0  0  0  0
   -6.2740    6.0343   -5.1195 H   0  0  0  0  0  0  0  0  0  0  0  0
   -4.4805    6.1339   -5.1195 H   0  0  0  0  0  0  0  0  0  0  0  0
   -5.3495    7.9504   -3.7875 H   0  0  0  0  0  0  0  0  0  0  0  0
   -4.5992    7.0068   -1.3577 H   0  0  0  0  0  0  0  0  0  0  0  0
   -3.8949    5.7367   -2.4695 H   0  0  0  0  0  0  0  0  0  0  0  0
   -2.3284    7.1185   -3.2976 H   0  0  0  0  0  0  0  0  0  0  0  0
   -3.4216    8.5635   -3.2257 H   0  0  0  0  0  0  0  0  0  0  0  0
   -2.5893    7.1980   -0.9318 H   0  0  0  0  0  0  0  0  0  0  0  0
    0.3388   10.1609   -2.4934 H   0  0  0  0  0  0  0  0  0  0  0  0
   -0.1751    8.6413   -3.3017 H   0  0  0  0  0  0  0  0  0  0  0  0
   -1.2628   10.0708   -3.3017 H   0  0  0  0  0  0  0  0  0  0  0  0
   -0.8800    9.0400    0.6765 H   0  0  0  0  0  0  0  0  0  0  0  0
    0.3852    8.1519   -0.2385 H   0  0  0  0  0  0  0  0  0  0  0  0
    0.3709    9.9482   -0.2385 H   0  0  0  0  0  0  0  0  0  0  0  0
   -7.3775    6.4191   -3.4141 H   0  0  0  0  0  0  0  0  0  0  0  0
   -6.9422    4.8597   -1.6204 H   0  0  0  0  0  0  0  0  0  0  0  0
   -5.5981    5.8375   -0.9929 H   0  0  0  0  0  0  0  0  0  0  0  0
   -8.2115    5.6772    0.1529 H   0  0  0  0  0  0  0  0  0  0  0  0
   -7.0316    6.9213    0.5566 H   0  0  0  0  0  0  0  0  0  0  0  0
  -10.1896    6.1754   -0.9769 H   0  0  0  0  0  0  0  0  0  0  0  0
  -10.1789    7.3120   -2.3678 H   0  0  0  0  0  0  0  0  0  0  0  0
   -9.0914    5.8822   -2.3678 H   0  0  0  0  0  0  0  0  0  0  0  0
   -8.1738    9.0464    0.3452 H   0  0  0  0  0  0  0  0  0  0  0  0
   -9.7354    7.2085    1.2527 H   0  0  0  0  0  0  0  0  0  0  0  0
   -9.9849    8.9766    1.7001 H   0  0  0  0  0  0  0  0  0  0  0  0
  -12.1608    7.5934    1.1544 H   0  0  0  0  0  0  0  0  0  0  0  0
  -10.9557    8.9660   -2.4447 H   0  0  0  0  0  0  0  0  0  0  0  0
  -12.0181   11.4664   -0.9901 H   0  0  0  0  0  0  0  0  0  0  0  0
  -11.3110   11.3952   -2.6649 H   0  0  0  0  0  0  0  0  0  0  0  0
  -13.7809   11.5322   -2.6967 H   0  0  0  0  0  0  0  0  0  0  0  0
  -13.1497    9.9985   -3.4145 H   0  0  0  0  0  0  0  0  0  0  0  0
  -15.0498    9.4827   -2.0399 H   0  0  0  0  0  0  0  0  0  0  0  0
  -13.5730   10.6990    0.1150 H   0  0  0  0  0  0  0  0  0  0  0  0
  -13.3787    6.4154   -1.8769 H   0  0  0  0  0  0  0  0  0  0  0  0
  -14.3161    7.5791   -2.8738 H   0  0  0  0  0  0  0  0  0  0  0  0
  -12.5208    7.6389   -2.8738 H   0  0  0  0  0  0  0  0  0  0  0  0
  -13.9680    8.0564    1.0127 H   0  0  0  0  0  0  0  0  0  0  0  0
  -15.3764    8.1394   -0.0992 H   0  0  0  0  0  0  0  0  0  0  0  0
  -14.3163    6.6892   -0.0992 H   0  0  0  0  0  0  0  0  0  0  0  0
   -9.6378   10.7864    0.9439 H   0  0  0  0  0  0  0  0  0  0  0  0
   -8.7316   11.7032   -0.3070 H   0  0  0  0  0  0  0  0  0  0  0  0
  -10.5278   11.7189   -0.3070 H   0  0  0  0  0  0  0  0  0  0  0  0
   -9.3711   10.7415   -3.0032 H   0  0  0  0  0  0  0  0  0  0  0  0
   -7.9112   10.8026   -1.8633 H   0  0  0  0  0  0  0  0  0  0  0  0
   -8.8414    8.4647   -3.5526 H   0  0  0  0  0  0  0  0  0  0  0  0
   -7.3229    9.4335   -3.7042 H   0  0  0  0  0  0  0  0  0  0  0  0
   -6.3421    8.8352   -0.2235 H   0  0  0  0  0  0  0  0  0  0  0  0
   -5.2522    8.5121   -1.6143 H   0  0  0  0  0  0  0  0  0  0  0  0
   -6.2998    9.9713   -1.6143 H   0  0  0  0  0  0  0  0  0  0  0  0
  1  2  1  0
  2  3  1  0
  3  4  1  0
  4  5  1  0
  5  6  1  0
  6  7  1  0
  7  8  1  0
  7  9  1  0
  2 10  1  0
 10 11  1  0
 11 12  1  0
 12 13  1  0
 13 14  1  6
 13 15  1  0
 15 16  1  0
 16 17  1  0
 17 18  2  0
 18 19  1  0
 19 20  1  0
 20 21  1  0
 21 22  1  0
 22 23  1  0
 22 24  1  0
 24 25  1  0
 24 26  1  0
 19 27  1  0
 27 28  1  1
 27 29  1  0
 29 30  1  0
 30 31  1  0
 31 32  1  1
  7  5  1  0
 31 10  1  0
 31 13  1  0
 27 15  1  0
 24 18  1  0
  1 33  1  0
  1 34  1  0
  1 35  1  0
  2 36  1  6
  3 37  1  0
  3 38  1  0
  4 39  1  0
  4 40  1  0
  5 41  1  1
  8 42  1  0
  8 43  1  0
  8 44  1  0
  9 45  1  0
  9 46  1  0
  9 47  1  0
 10 48  1  6
 11 49  1  0
 11 50  1  0
 12 51  1  0
 12 52  1  0
 14 53  1  0
 14 54  1  0
 14 55  1  0
 15 56  1  1
 16 57  1  0
 16 58  1  0
 17 59  1  0
 19 60  1  6
 20 61  1  0
 20 62  1  0
 21 63  1  0
 21 64  1  0
 22 65  1  6
 23 66  1  0
 25 67  1  0
 25 68  1  0
 25 69  1  0
 26 70  1  0
 26 71  1  0
 26 72  1  0
 28 73  1  0
 28 74  1  0
 28 75  1  0
 29 76  1  0
 29 77  1  0
 30 78  1  0
 30 79  1  0
 32 80  1  0
 32 81  1  0
 32 82  1  0
M  END
>  <meeko>  (2) 
{"is_sidechain": [false], "intermolecular_energy": 2.731, "internal_energy": -0.839}

$$$$
EPH_relaxed_0001_pdb2pqr_Repair_395_r2_0001_out
     RDKit          3D

 82 86  0  0  0  0  0  0  0  0999 V2000
    4.2390   17.5680   -0.5910 C   0  0  0  0  0  0  0  0  0  0  0  0
    2.8790   18.1350   -0.1750 C   0  0  2  0  0  0  0  0  0  0  0  0
    2.9330   18.8210    1.2050 C   0  0  0  0  0  0  0  0  0  0  0  0
    4.2790   18.6650    1.9170 C   0  0  0  0  0  0  0  0  0  0  0  0
    4.2400   19.2260    3.3060 C   0  0  2  0  0  0  0  0  0  0  0  0
    5.2580   20.1940    3.5900 O   0  0  0  0  0  0  0  0  0  0  0  0
    5.3190   18.9720    4.3420 C   0  0  0  0  0  0  0  0  0  0  0  0
    6.5140   18.1260    4.0320 C   0  0  0  0  0  0  0  0  0  0  0  0
    4.9750   19.1370    5.7890 C   0  0  0  0  0  0  0  0  0  0  0  0
    1.8340   17.0260   -0.1650 C   0  0  1  0  0  0  0  0  0  0  0  0
    0.4030   17.5500   -0.4620 C   0  0  0  0  0  0  0  0  0  0  0  0
   -0.3210   16.4420   -1.2690 C   0  0  0  0  0  0  0  0  0  0  0  0
    0.5880   15.1980   -1.1250 C   0  0  1  0  0  0  0  0  0  0  0  0
    0.2250   14.5950    0.2680 C   0  0  0  0  0  0  0  0  0  0  0  0
    0.4810   14.1300   -2.2620 C   0  0  2  0  0  0  0  0  0  0  0  0
   -0.8990   13.4630   -2.4040 C   0  0  0  0  0  0  0  0  0  0  0  0
   -1.0920   12.2200   -1.6010 C   0  0  0  0  0  0  0  0  0  0  0  0
   -0.1110   11.5020   -1.0220 C   0  0  0  0  0  0  0  0  0  0  0  0
    1.3630   11.8710   -1.2300 C   0  0  1  0  0  0  0  0  0  0  0  0
    2.1750   10.5920   -1.5630 C   0  0  0  0  0  0  0  0  0  0  0  0
    1.9900    9.4940   -0.5200 C   0  0  0  0  0  0  0  0  0  0  0  0
    0.5180    9.1140   -0.3840 C   0  0  2  0  0  0  0  0  0  0  0  0
    0.0870    8.4960   -1.6000 O   0  0  0  0  0  0  0  0  0  0  0  0
   -0.4000   10.3250   -0.0580 C   0  0  0  0  0  0  0  0  0  0  0  0
   -0.1340   10.8050    1.3900 C   0  0  0  0  0  0  0  0  0  0  0  0
   -1.8710    9.8300   -0.0880 C   0  0  0  0  0  0  0  0  0  0  0  0
    1.6430   13.0560   -2.2530 C   0  0  1  0  0  0  0  0  0  0  0  0
    1.7420   12.4940   -3.7040 C   0  0  0  0  0  0  0  0  0  0  0  0
    3.0460   13.6940   -1.9280 C   0  0  0  0  0  0  0  0  0  0  0  0
    3.0680   14.8270   -0.8840 C   0  0  0  0  0  0  0  0  0  0  0  0
    2.0020   15.8810   -1.1960 C   0  0  2  0  0  0  0  0  0  0  0  0
    2.3530   16.5210   -2.5820 C   0  0  0  0  0  0  0  0  0  0  0  0
    4.8248   17.3238    0.3075 H   0  0  0  0  0  0  0  0  0  0  0  0
    4.0890   16.6574   -1.1897 H   0  0  0  0  0  0  0  0  0  0  0  0
    4.7803   18.3154   -1.1897 H   0  0  0  0  0  0  0  0  0  0  0  0
    2.6005   18.9011   -0.9136 H   0  0  0  0  0  0  0  0  0  0  0  0
    2.7352   19.8943    1.0674 H   0  0  0  0  0  0  0  0  0  0  0  0
    2.1764   18.3326    1.8368 H   0  0  0  0  0  0  0  0  0  0  0  0
    4.5316   17.5958    1.9714 H   0  0  0  0  0  0  0  0  0  0  0  0
    5.0362   19.2205    1.3442 H   0  0  0  0  0  0  0  0  0  0  0  0
    3.1452   19.1249    3.3407 H   0  0  0  0  0  0  0  0  0  0  0  0
    6.9821   17.7946    4.9707 H   0  0  0  0  0  0  0  0  0  0  0  0
    6.2002   17.2478    3.4488 H   0  0  0  0  0  0  0  0  0  0  0  0
    7.2381   18.7138    3.4488 H   0  0  0  0  0  0  0  0  0  0  0  0
    5.7949   18.7437    6.4080 H   0  0  0  0  0  0  0  0  0  0  0  0
    4.8270   20.2041    6.0113 H   0  0  0  0  0  0  0  0  0  0  0  0
    4.0502   18.5845    6.0113 H   0  0  0  0  0  0  0  0  0  0  0  0
    1.9846   16.6404    0.8541 H   0  0  0  0  0  0  0  0  0  0  0  0
   -0.1322   17.7440    0.4792 H   0  0  0  0  0  0  0  0  0  0  0  0
    0.4373   18.4924   -1.0284 H   0  0  0  0  0  0  0  0  0  0  0  0
   -1.3186   16.2448   -0.8495 H   0  0  0  0  0  0  0  0  0  0  0  0
   -0.4769   16.7256   -2.3203 H   0  0  0  0  0  0  0  0  0  0  0  0
    0.6171   15.2464    1.0630 H   0  0  0  0  0  0  0  0  0  0  0  0
   -0.8685   14.5200    0.3614 H   0  0  0  0  0  0  0  0  0  0  0  0
    0.6705   13.5936    0.3614 H   0  0  0  0  0  0  0  0  0  0  0  0
    0.6137   14.7376   -3.1693 H   0  0  0  0  0  0  0  0  0  0  0  0
   -1.6622   14.1912   -2.0919 H   0  0  0  0  0  0  0  0  0  0  0  0
   -0.9837   13.1604   -3.4582 H   0  0  0  0  0  0  0  0  0  0  0  0
   -2.1232   11.8598   -1.4711 H   0  0  0  0  0  0  0  0  0  0  0  0
    1.7087   12.2940   -0.2753 H   0  0  0  0  0  0  0  0  0  0  0  0
    1.8453   10.2094   -2.5402 H   0  0  0  0  0  0  0  0  0  0  0  0
    3.2403   10.8661   -1.5742 H   0  0  0  0  0  0  0  0  0  0  0  0
    2.5642    8.6068   -0.8254 H   0  0  0  0  0  0  0  0  0  0  0  0
    2.3475    9.8678    0.4508 H   0  0  0  0  0  0  0  0  0  0  0  0
    0.4336    8.4199    0.4652 H   0  0  0  0  0  0  0  0  0  0  0  0
    0.7200    8.7440   -2.2960 H   0  0  0  0  0  0  0  0  0  0  0  0
   -0.5411   10.0704    2.1004 H   0  0  0  0  0  0  0  0  0  0  0  0
    0.9496   10.9074    1.5491 H   0  0  0  0  0  0  0  0  0  0  0  0
   -0.6216   11.7781    1.5491 H   0  0  0  0  0  0  0  0  0  0  0  0
   -2.2374    9.7067    0.9418 H   0  0  0  0  0  0  0  0  0  0  0  0
   -2.4954   10.5675   -0.6135 H   0  0  0  0  0  0  0  0  0  0  0  0
   -1.9225    8.8650   -0.6135 H   0  0  0  0  0  0  0  0  0  0  0  0
    1.9327   11.4113   -3.6657 H   0  0  0  0  0  0  0  0  0  0  0  0
    0.7970   12.6813   -4.2350 H   0  0  0  0  0  0  0  0  0  0  0  0
    2.5661   12.9929   -4.2350 H   0  0  0  0  0  0  0  0  0  0  0  0
    3.7003   12.8898   -1.5604 H   0  0  0  0  0  0  0  0  0  0  0  0
    3.3746   14.1617   -2.8678 H   0  0  0  0  0  0  0  0  0  0  0  0
    2.8735   14.4024    0.1119 H   0  0  0  0  0  0  0  0  0  0  0  0
    4.0563   15.3093   -0.9108 H   0  0  0  0  0  0  0  0  0  0  0  0
    2.8764   17.4754   -2.4232 H   0  0  0  0  0  0  0  0  0  0  0  0
    3.0020   15.8366   -3.1481 H   0  0  0  0  0  0  0  0  0  0  0  0
    1.4270   16.7004   -3.1481 H   0  0  0  0  0  0  0  0  0  0  0  0
  1  2  1  0
  2  3  1  0
  3  4  1  0
  4  5  1  0
  5  6  1  0
  6  7  1  0
  7  8  1  0
  7  9  1  0
  2 10  1  0
 10 11  1  0
 11 12  1  0
 12 13  1  0
 13 14  1  1
 13 15  1  0
 15 16  1  0
 16 17  1  0
 17 18  2  0
 18 19  1  0
 19 20  1  0
 20 21  1  0
 21 22  1  0
 22 23  1  0
 22 24  1  0
 24 25  1  0
 24 26  1  0
 19 27  1  0
 27 28  1  6
 27 29  1  0
 29 30  1  0
 30 31  1  0
 31 32  1  6
  7  5  1  0
 31 10  1  0
 31 13  1  0
 27 15  1  0
 24 18  1  0
  1 33  1  0
  1 34  1  0
  1 35  1  0
  2 36  1  6
  3 37  1  0
  3 38  1  0
  4 39  1  0
  4 40  1  0
  5 41  1  1
  8 42  1  0
  8 43  1  0
  8 44  1  0
  9 45  1  0
  9 46  1  0
  9 47  1  0
 10 48  1  1
 11 49  1  0
 11 50  1  0
 12 51  1  0
 12 52  1  0
 14 53  1  0
 14 54  1  0
 14 55  1  0
 15 56  1  6
 16 57  1  0
 16 58  1  0
 17 59  1  0
 19 60  1  1
 20 61  1  0
 20 62  1  0
 21 63  1  0
 21 64  1  0
 22 65  1  1
 23 66  1  0
 25 67  1  0
 25 68  1  0
 25 69  1  0
 26 70  1  0
 26 71  1  0
 26 72  1  0
 28 73  1  0
 28 74  1  0
 28 75  1  0
 29 76  1  0
 29 77  1  0
 30 78  1  0
 30 79  1  0
 32 80  1  0
 32 81  1  0
 32 82  1  0
M  END
>  <meeko>  (3) 
{"is_sidechain": [false], "intermolecular_energy": 2.731, "internal_energy": -0.839}

$$$$
EPH_relaxed_0001_pdb2pqr_Repair_395_r2_0001_out
     RDKit          3D

 82 86  0  0  0  0  0  0  0  0999 V2000
    2.3480   18.0050   -2.6890 C   0  0  0  0  0  0  0  0  0  0  0  0
    1.0570   17.6220   -1.9590 C   0  0  2  0  0  0  0  0  0  0  0  0
    1.2180   17.6800   -0.4260 C   0  0  0  0  0  0  0  0  0  0  0  0
    0.8920   19.0500    0.1750 C   0  0  0  0  0  0  0  0  0  0  0  0
   -0.5520   19.1550    0.5640 C   0  0  2  0  0  0  0  0  0  0  0  0
   -1.4280   18.2620   -0.1360 O   0  0  0  0  0  0  0  0  0  0  0  0
   -1.6350   19.6650   -0.3690 C   0  0  0  0  0  0  0  0  0  0  0  0
   -1.3200   20.1040   -1.7640 C   0  0  0  0  0  0  0  0  0  0  0  0
   -2.9020   20.1940    0.2280 C   0  0  0  0  0  0  0  0  0  0  0  0
    0.6140   16.2270   -2.3840 C   0  0  1  0  0  0  0  0  0  0  0  0
    0.7200   16.0070   -3.9160 C   0  0  0  0  0  0  0  0  0  0  0  0
    1.1240   14.5260   -4.1290 C   0  0  0  0  0  0  0  0  0  0  0  0
    0.9150   13.8620   -2.7480 C   0  0  1  0  0  0  0  0  0  0  0  0
   -0.6150   13.5650   -2.6730 C   0  0  0  0  0  0  0  0  0  0  0  0
    1.7660   12.5830   -2.4600 C   0  0  2  0  0  0  0  0  0  0  0  0
    1.4920   11.3930   -3.3960 C   0  0  0  0  0  0  0  0  0  0  0  0
    0.4320   10.4490   -2.9340 C   0  0  0  0  0  0  0  0  0  0  0  0
   -0.0730   10.3900   -1.6880 C   0  0  0  0  0  0  0  0  0  0  0  0
    0.4950   11.2670   -0.5650 C   0  0  1  0  0  0  0  0  0  0  0  0
    0.7170   10.4030    0.7050 C   0  0  0  0  0  0  0  0  0  0  0  0
   -0.5430    9.6550    1.1300 C   0  0  0  0  0  0  0  0  0  0  0  0
   -1.0440    8.7500    0.0080 C   0  0  2  0  0  0  0  0  0  0  0  0
   -0.0890    7.7050   -0.2030 O   0  0  0  0  0  0  0  0  0  0  0  0
   -1.2940    9.5080   -1.3250 C   0  0  0  0  0  0  0  0  0  0  0  0
   -2.5310   10.4270   -1.1780 C   0  0  0  0  0  0  0  0  0  0  0  0
   -1.6590    8.4590   -2.4100 C   0  0  0  0  0  0  0  0  0  0  0  0
    1.7720   12.1350   -0.9430 C   0  0  1  0  0  0  0  0  0  0  0  0
    3.0680   11.2960   -0.7300 C   0  0  0  0  0  0  0  0  0  0  0  0
    1.8690   13.3600    0.0420 C   0  0  0  0  0  0  0  0  0  0  0  0
    1.1030   14.6360   -0.3570 C   0  0  0  0  0  0  0  0  0  0  0  0
    1.4030   15.0240   -1.8080 C   0  0  2  0  0  0  0  0  0  0  0  0
    2.9320   15.3510   -1.9090 C   0  0  0  0  0  0  0  0  0  0  0  0
    3.1309   18.2373   -1.9520 H   0  0  0  0  0  0  0  0  0  0  0  0
    2.6756   17.1653   -3.3196 H   0  0  0  0  0  0  0  0  0  0  0  0
    2.1647   18.8874   -3.3196 H   0  0  0  0  0  0  0  0  0  0  0  0
    0.2879   18.3572   -2.2383 H   0  0  0  0  0  0  0  0  0  0  0  0
    0.5446   16.9347    0.0225 H   0  0  0  0  0  0  0  0  0  0  0  0
    2.2761   17.4755   -0.2056 H   0  0  0  0  0  0  0  0  0  0  0  0
    1.5142   19.2044    1.0689 H   0  0  0  0  0  0  0  0  0  0  0  0
    1.0988   19.8166   -0.5863 H   0  0  0  0  0  0  0  0  0  0  0  0
   -0.2786   19.4250    1.5947 H   0  0  0  0  0  0  0  0  0  0  0  0
   -0.6790   20.9973   -1.7313 H   0  0  0  0  0  0  0  0  0  0  0  0
   -0.7950   19.2951   -2.2932 H   0  0  0  0  0  0  0  0  0  0  0  0
   -2.2544   20.3423   -2.2932 H   0  0  0  0  0  0  0  0  0  0  0  0
   -2.8307   20.1642    1.3253 H   0  0  0  0  0  0  0  0  0  0  0  0
   -3.0571   21.2320   -0.1013 H   0  0  0  0  0  0  0  0  0  0  0  0
   -3.7491   19.5744   -0.1013 H   0  0  0  0  0  0  0  0  0  0  0  0
   -0.4114   16.2303   -1.9859 H   0  0  0  0  0  0  0  0  0  0  0  0
   -0.2495   16.2077   -4.3953 H   0  0  0  0  0  0  0  0  0  0  0  0
    1.4614   16.6863   -4.3619 H   0  0  0  0  0  0  0  0  0  0  0  0
    0.4828   14.0539   -4.8879 H   0  0  0  0  0  0  0  0  0  0  0  0
    2.1584   14.4234   -4.4889 H   0  0  0  0  0  0  0  0  0  0  0  0
   -0.9256   13.5047   -1.6195 H   0  0  0  0  0  0  0  0  0  0  0  0
   -1.1702   14.3721   -3.1733 H   0  0  0  0  0  0  0  0  0  0  0  0
   -0.8278   12.6088   -3.1733 H   0  0  0  0  0  0  0  0  0  0  0  0
    2.7857   12.9212   -2.6961 H   0  0  0  0  0  0  0  0  0  0  0  0
    1.1877   11.7932   -4.3744 H   0  0  0  0  0  0  0  0  0  0  0  0
    2.4247   10.8107   -3.4288 H   0  0  0  0  0  0  0  0  0  0  0  0
    0.0297    9.7420   -3.6745 H   0  0  0  0  0  0  0  0  0  0  0  0
   -0.2656   12.0360   -0.3648 H   0  0  0  0  0  0  0  0  0  0  0  0
    1.5101    9.6693    0.4984 H   0  0  0  0  0  0  0  0  0  0  0  0
    0.9966   11.0802    1.5255 H   0  0  0  0  0  0  0  0  0  0  0  0
   -0.3162    9.0408    2.0139 H   0  0  0  0  0  0  0  0  0  0  0  0
   -1.3263   10.3909    1.3640 H   0  0  0  0  0  0  0  0  0  0  0  0
   -2.0157    8.3416    0.3225 H   0  0  0  0  0  0  0  0  0  0  0  0
   -0.1690    7.0790    0.5360 H   0  0  0  0  0  0  0  0  0  0  0  0
   -2.7449   10.5859   -0.1108 H   0  0  0  0  0  0  0  0  0  0  0  0
   -2.3279   11.3950   -1.6594 H   0  0  0  0  0  0  0  0  0  0  0  0
   -3.3991    9.9531   -1.6594 H   0  0  0  0  0  0  0  0  0  0  0  0
   -1.9833    7.5268   -1.9244 H   0  0  0  0  0  0  0  0  0  0  0  0
   -2.4744    8.8487   -3.0372 H   0  0  0  0  0  0  0  0  0  0  0  0
   -0.7779    8.2584   -3.0372 H   0  0  0  0  0  0  0  0  0  0  0  0
    3.2539   11.1756    0.3475 H   0  0  0  0  0  0  0  0  0  0  0  0
    2.9443   10.3061   -1.1936 H   0  0  0  0  0  0  0  0  0  0  0  0
    3.9205   11.8140   -1.1936 H   0  0  0  0  0  0  0  0  0  0  0  0
    1.4837   13.0326    1.0189 H   0  0  0  0  0  0  0  0  0  0  0  0
    2.9304   13.6488    0.0377 H   0  0  0  0  0  0  0  0  0  0  0  0
    0.0232   14.4563   -0.2484 H   0  0  0  0  0  0  0  0  0  0  0  0
    1.4244   15.4579    0.2996 H   0  0  0  0  0  0  0  0  0  0  0  0
    3.3552   15.4415   -0.8977 H   0  0  0  0  0  0  0  0  0  0  0  0
    3.4450   14.5422   -2.4501 H   0  0  0  0  0  0  0  0  0  0  0  0
    3.0693   16.2988   -2.4501 H   0  0  0  0  0  0  0  0  0  0  0  0
  1  2  1  0
  2  3  1  0
  3  4  1  0
  4  5  1  0
  5  6  1  0
  6  7  1  0
  7  8  1  0
  7  9  1  0
  2 10  1  0
 10 11  1  0
 11 12  1  0
 12 13  1  0
 13 14  1  1
 13 15  1  0
 15 16  1  0
 16 17  1  0
 17 18  2  0
 18 19  1  0
 19 20  1  0
 20 21  1  0
 21 22  1  0
 22 23  1  0
 22 24  1  0
 24 25  1  0
 24 26  1  0
 19 27  1  0
 27 28  1  6
 27 29  1  0
 29 30  1  0
 30 31  1  0
 31 32  1  1
  7  5  1  0
 31 10  1  0
 31 13  1  0
 27 15  1  0
 24 18  1  0
  1 33  1  0
  1 34  1  0
  1 35  1  0
  2 36  1  6
  3 37  1  0
  3 38  1  0
  4 39  1  0
  4 40  1  0
  5 41  1  1
  8 42  1  0
  8 43  1  0
  8 44  1  0
  9 45  1  0
  9 46  1  0
  9 47  1  0
 10 48  1  1
 11 49  1  0
 11 50  1  0
 12 51  1  0
 12 52  1  0
 14 53  1  0
 14 54  1  0
 14 55  1  0
 15 56  1  6
 16 57  1  0
 16 58  1  0
 17 59  1  0
 19 60  1  1
 20 61  1  0
 20 62  1  0
 21 63  1  0
 21 64  1  0
 22 65  1  1
 23 66  1  0
 25 67  1  0
 25 68  1  0
 25 69  1  0
 26 70  1  0
 26 71  1  0
 26 72  1  0
 28 73  1  0
 28 74  1  0
 28 75  1  0
 29 76  1  0
 29 77  1  0
 30 78  1  0
 30 79  1  0
 32 80  1  0
 32 81  1  0
 32 82  1  0
M  END
>  <meeko>  (4) 
{"is_sidechain": [false], "intermolecular_energy": 2.731, "internal_energy": -0.839}

$$$$
EPH_relaxed_0001_pdb2pqr_Repair_395_r2_0001_out
     RDKit          3D

 82 86  0  0  0  0  0  0  0  0999 V2000
    0.4090   18.3860   -0.0120 C   0  0  0  0  0  0  0  0  0  0  0  0
    1.4980   17.3350   -0.2460 C   0  0  2  0  0  0  0  0  0  0  0  0
    2.7000   17.9080   -1.0250 C   0  0  0  0  0  0  0  0  0  0  0  0
    3.9280   18.1760   -0.1510 C   0  0  0  0  0  0  0  0  0  0  0  0
    3.5420   18.6460    1.2190 C   0  0  2  0  0  0  0  0  0  0  0  0
    3.7960   20.0350    1.4690 O   0  0  0  0  0  0  0  0  0  0  0  0
    4.5460   19.1010    2.2620 C   0  0  0  0  0  0  0  0  0  0  0  0
    6.0160   19.1060    1.9790 C   0  0  0  0  0  0  0  0  0  0  0  0
    4.1430   19.0730    3.7030 C   0  0  0  0  0  0  0  0  0  0  0  0
    0.9170   16.1400   -0.9920 C   0  0  1  0  0  0  0  0  0  0  0  0
    0.7750   16.3980   -2.5160 C   0  0  0  0  0  0  0  0  0  0  0  0
    1.0570   15.0480   -3.2250 C   0  0  0  0  0  0  0  0  0  0  0  0
    1.0220   13.9970   -2.0920 C   0  0  1  0  0  0  0  0  0  0  0  0
   -0.4940   13.7040   -1.8620 C   0  0  0  0  0  0  0  0  0  0  0  0
    1.8320   12.6830   -2.3430 C   0  0  2  0  0  0  0  0  0  0  0  0
    1.3510   11.8380   -3.5350 C   0  0  0  0  0  0  0  0  0  0  0  0
    0.3200   10.8070   -3.2110 C   0  0  0  0  0  0  0  0  0  0  0  0
    0.0080   10.3750   -1.9750 C   0  0  0  0  0  0  0  0  0  0  0  0
    0.7900   10.8630   -0.7490 C   0  0  1  0  0  0  0  0  0  0  0  0
    1.1520    9.6510    0.1500 C   0  0  0  0  0  0  0  0  0  0  0  0
   -0.0690    8.8190    0.5300 C   0  0  0  0  0  0  0  0  0  0  0  0
   -0.7870    8.3040   -0.7150 C   0  0  2  0  0  0  0  0  0  0  0  0
    0.0640    7.3660   -1.3810 O   0  0  0  0  0  0  0  0  0  0  0  0
   -1.1920    9.4350   -1.7010 C   0  0  0  0  0  0  0  0  0  0  0  0
   -2.3370   10.2760   -1.0860 C   0  0  0  0  0  0  0  0  0  0  0  0
   -1.7780    8.7700   -2.9760 C   0  0  0  0  0  0  0  0  0  0  0  0
    2.0420   11.7940   -1.0510 C   0  0  1  0  0  0  0  0  0  0  0  0
    3.3060   10.9190   -1.3130 C   0  0  0  0  0  0  0  0  0  0  0  0
    2.3590   12.6600    0.2260 C   0  0  0  0  0  0  0  0  0  0  0  0
    1.6150   14.0020    0.3570 C   0  0  0  0  0  0  0  0  0  0  0  0
    1.7130   14.8120   -0.9390 C   0  0  2  0  0  0  0  0  0  0  0  0
    3.2250   15.1410   -1.1840 C   0  0  0  0  0  0  0  0  0  0  0  0
    0.2623   18.5276    1.0689 H   0  0  0  0  0  0  0  0  0  0  0  0
    0.7150   19.3389   -0.4684 H   0  0  0  0  0  0  0  0  0  0  0  0
   -0.5325   18.0464   -0.4684 H   0  0  0  0  0  0  0  0  0  0  0  0
    1.8650   17.0145    0.7402 H   0  0  0  0  0  0  0  0  0  0  0  0
    2.9813   17.1885   -1.8081 H   0  0  0  0  0  0  0  0  0  0  0  0
    2.3827   18.8763   -1.4394 H   0  0  0  0  0  0  0  0  0  0  0  0
    4.5092   17.2467   -0.0584 H   0  0  0  0  0  0  0  0  0  0  0  0
    4.5233   18.9674   -0.6298 H   0  0  0  0  0  0  0  0  0  0  0  0
    2.7131   17.9240    1.2586 H   0  0  0  0  0  0  0  0  0  0  0  0
    6.5721   19.1079    2.9281 H   0  0  0  0  0  0  0  0  0  0  0  0
    6.2811   18.2088    1.4005 H   0  0  0  0  0  0  0  0  0  0  0  0
    6.2750   20.0050    1.4005 H   0  0  0  0  0  0  0  0  0  0  0  0
    5.0405   19.1354    4.3360 H   0  0  0  0  0  0  0  0  0  0  0  0
    3.4839   19.9275    3.9161 H   0  0  0  0  0  0  0  0  0  0  0  0
    3.6084   18.1355    3.9161 H   0  0  0  0  0  0  0  0  0  0  0  0
   -0.0338   16.0297   -0.4500 H   0  0  0  0  0  0  0  0  0  0  0  0
   -0.2432   16.7430   -2.7488 H   0  0  0  0  0  0  0  0  0  0  0  0
    1.4764   17.1756   -2.8526 H   0  0  0  0  0  0  0  0  0  0  0  0
    0.2824   14.8348   -3.9763 H   0  0  0  0  0  0  0  0  0  0  0  0
    2.0175   15.0513   -3.7611 H   0  0  0  0  0  0  0  0  0  0  0  0
   -0.7001   13.6642   -0.7822 H   0  0  0  0  0  0  0  0  0  0  0  0
   -1.0955   14.5025   -2.3209 H   0  0  0  0  0  0  0  0  0  0  0  0
   -0.7547   12.7389   -2.3209 H   0  0  0  0  0  0  0  0  0  0  0  0
    2.8220   13.0673   -2.6297 H   0  0  0  0  0  0  0  0  0  0  0  0
    0.9254   12.5202   -4.2856 H   0  0  0  0  0  0  0  0  0  0  0  0
    2.2326   11.2853   -3.8919 H   0  0  0  0  0  0  0  0  0  0  0  0
   -0.2307   10.3634   -4.0535 H   0  0  0  0  0  0  0  0  0  0  0  0
    0.1144   11.5413   -0.2072 H   0  0  0  0  0  0  0  0  0  0  0  0
    1.8612    9.0088   -0.3927 H   0  0  0  0  0  0  0  0  0  0  0  0
    1.5907   10.0438    1.0791 H   0  0  0  0  0  0  0  0  0  0  0  0
    0.2546    7.9622    1.1393 H   0  0  0  0  0  0  0  0  0  0  0  0
   -0.7639    9.4545    1.0985 H   0  0  0  0  0  0  0  0  0  0  0  0
   -1.7220    7.8280   -0.3845 H   0  0  0  0  0  0  0  0  0  0  0  0
   -0.4940    6.8300   -1.9710 H   0  0  0  0  0  0  0  0  0  0  0  0
   -2.2761   10.2313    0.0114 H   0  0  0  0  0  0  0  0  0  0  0  0
   -2.2425   11.3210   -1.4162 H   0  0  0  0  0  0  0  0  0  0  0  0
   -3.3059    9.8733   -1.4162 H   0  0  0  0  0  0  0  0  0  0  0  0
   -2.4794    7.9741   -2.6851 H   0  0  0  0  0  0  0  0  0  0  0  0
   -2.3087    9.5262   -3.5731 H   0  0  0  0  0  0  0  0  0  0  0  0
   -0.9610    8.3386   -3.5731 H   0  0  0  0  0  0  0  0  0  0  0  0
    3.7465   10.6141   -0.3523 H   0  0  0  0  0  0  0  0  0  0  0  0
    3.0204   10.0244   -1.8858 H   0  0  0  0  0  0  0  0  0  0  0  0
    4.0428   11.5013   -1.8858 H   0  0  0  0  0  0  0  0  0  0  0  0
    2.1099   12.0538    1.1094 H   0  0  0  0  0  0  0  0  0  0  0  0
    3.4221   12.9278    0.1356 H   0  0  0  0  0  0  0  0  0  0  0  0
    0.5557   13.8059    0.5796 H   0  0  0  0  0  0  0  0  0  0  0  0
    2.0781   14.5819    1.1689 H   0  0  0  0  0  0  0  0  0  0  0  0
    3.7373   15.2525   -0.2170 H   0  0  0  0  0  0  0  0  0  0  0  0
    3.6906   14.3231   -1.7535 H   0  0  0  0  0  0  0  0  0  0  0  0
    3.3087   16.0784   -1.7535 H   0  0  0  0  0  0  0  0  0  0  0  0
  1  2  1  0
  2  3  1  0
  3  4  1  0
  4  5  1  0
  5  6  1  0
  6  7  1  0
  7  8  1  0
  7  9  1  0
  2 10  1  0
 10 11  1  0
 11 12  1  0
 12 13  1  0
 13 14  1  1
 13 15  1  0
 15 16  1  0
 16 17  1  0
 17 18  2  0
 18 19  1  0
 19 20  1  0
 20 21  1  0
 21 22  1  0
 22 23  1  0
 22 24  1  0
 24 25  1  0
 24 26  1  0
 19 27  1  0
 27 28  1  6
 27 29  1  0
 29 30  1  0
 30 31  1  0
 31 32  1  6
  7  5  1  0
 31 10  1  0
 31 13  1  0
 27 15  1  0
 24 18  1  0
  1 33  1  0
  1 34  1  0
  1 35  1  0
  2 36  1  1
  3 37  1  0
  3 38  1  0
  4 39  1  0
  4 40  1  0
  5 41  1  1
  8 42  1  0
  8 43  1  0
  8 44  1  0
  9 45  1  0
  9 46  1  0
  9 47  1  0
 10 48  1  1
 11 49  1  0
 11 50  1  0
 12 51  1  0
 12 52  1  0
 14 53  1  0
 14 54  1  0
 14 55  1  0
 15 56  1  6
 16 57  1  0
 16 58  1  0
 17 59  1  0
 19 60  1  1
 20 61  1  0
 20 62  1  0
 21 63  1  0
 21 64  1  0
 22 65  1  1
 23 66  1  0
 25 67  1  0
 25 68  1  0
 25 69  1  0
 26 70  1  0
 26 71  1  0
 26 72  1  0
 28 73  1  0
 28 74  1  0
 28 75  1  0
 29 76  1  0
 29 77  1  0
 30 78  1  0
 30 79  1  0
 32 80  1  0
 32 81  1  0
 32 82  1  0
M  END
>  <meeko>  (5) 
{"is_sidechain": [false], "intermolecular_energy": 2.731, "internal_energy": -0.839}

$$$$
EPH_relaxed_0001_pdb2pqr_Repair_395_r2_0001_out
     RDKit          3D

 82 86  0  0  0  0  0  0  0  0999 V2000
  -14.6070    7.6560    0.7240 C   0  0  0  0  0  0  0  0  0  0  0  0
  -13.4610    8.6310    0.4360 C   0  0  2  0  0  0  0  0  0  0  0  0
  -13.9240    9.8420   -0.3980 C   0  0  0  0  0  0  0  0  0  0  0  0
  -15.2570    9.6200   -1.1180 C   0  0  0  0  0  0  0  0  0  0  0  0
  -15.1120    9.7460   -2.6040 C   0  0  2  0  0  0  0  0  0  0  0  0
  -13.8250   10.1980   -3.0440 O   0  0  0  0  0  0  0  0  0  0  0  0
  -14.9310   11.0730   -3.3170 C   0  0  0  0  0  0  0  0  0  0  0  0
  -14.8860   12.3650   -2.5630 C   0  0  0  0  0  0  0  0  0  0  0  0
  -15.2870   11.1600   -4.7690 C   0  0  0  0  0  0  0  0  0  0  0  0
  -12.3300    7.9050   -0.2820 C   0  0  1  0  0  0  0  0  0  0  0  0
  -12.8140    7.1490   -1.5480 C   0  0  0  0  0  0  0  0  0  0  0  0
  -11.6680    7.2390   -2.5890 C   0  0  0  0  0  0  0  0  0  0  0  0
  -10.4490    7.7470   -1.7840 C   0  0  1  0  0  0  0  0  0  0  0  0
   -9.8770    6.4780   -1.0780 C   0  0  0  0  0  0  0  0  0  0  0  0
   -9.3480    8.5000   -2.5990 C   0  0  2  0  0  0  0  0  0  0  0  0
   -8.6480    7.6590   -3.6810 C   0  0  0  0  0  0  0  0  0  0  0  0
   -7.4230    6.9340   -3.2320 C   0  0  0  0  0  0  0  0  0  0  0  0
   -6.7430    7.1760   -2.0960 C   0  0  0  0  0  0  0  0  0  0  0  0
   -7.1390    8.3360   -1.1730 C   0  0  1  0  0  0  0  0  0  0  0  0
   -5.8690    9.1260   -0.7620 C   0  0  0  0  0  0  0  0  0  0  0  0
   -4.7960    8.2320   -0.1480 C   0  0  0  0  0  0  0  0  0  0  0  0
   -4.3870    7.1260   -1.1180 C   0  0  2  0  0  0  0  0  0  0  0  0
   -3.7280    7.7190   -2.2410 O   0  0  0  0  0  0  0  0  0  0  0  0
   -5.5870    6.2680   -1.6090 C   0  0  0  0  0  0  0  0  0  0  0  0
   -6.1130    5.3940   -0.4440 C   0  0  0  0  0  0  0  0  0  0  0  0
   -5.0590    5.2830   -2.6870 C   0  0  0  0  0  0  0  0  0  0  0  0
   -8.3000    9.2810   -1.7060 C   0  0  1  0  0  0  0  0  0  0  0  0
   -7.7010   10.4060   -2.6040 C   0  0  0  0  0  0  0  0  0  0  0  0
   -8.9780   10.0030   -0.4820 C   0  0  0  0  0  0  0  0  0  0  0  0
  -10.1390    9.2610    0.2070 C   0  0  0  0  0  0  0  0  0  0  0  0
  -11.1610    8.7670   -0.8220 C   0  0  2  0  0  0  0  0  0  0  0  0
  -11.7700   10.0230   -1.5330 C   0  0  0  0  0  0  0  0  0  0  0  0
  -14.7328    7.5490    1.8115 H   0  0  0  0  0  0  0  0  0  0  0  0
  -15.5375    8.0435    0.2836 H   0  0  0  0  0  0  0  0  0  0  0  0
  -14.3735    6.6754    0.2836 H   0  0  0  0  0  0  0  0  0  0  0  0
  -13.1021    9.0148    1.4024 H   0  0  0  0  0  0  0  0  0  0  0  0
  -14.0321   10.7058    0.2744 H   0  0  0  0  0  0  0  0  0  0  0  0
  -13.1628   10.0074   -1.1746 H   0  0  0  0  0  0  0  0  0  0  0  0
  -15.6270    8.6118   -0.8802 H   0  0  0  0  0  0  0  0  0  0  0  0
  -15.9639   10.3903   -0.7759 H   0  0  0  0  0  0  0  0  0  0  0  0
  -15.8080    8.9098   -2.7664 H   0  0  0  0  0  0  0  0  0  0  0  0
  -14.8932   12.1594   -1.4824 H   0  0  0  0  0  0  0  0  0  0  0  0
  -13.9683   12.9114   -2.8262 H   0  0  0  0  0  0  0  0  0  0  0  0
  -15.7635   12.9739   -2.8262 H   0  0  0  0  0  0  0  0  0  0  0  0
  -16.3510   11.4200   -4.8707 H   0  0  0  0  0  0  0  0  0  0  0  0
  -14.6725   11.9344   -5.2514 H   0  0  0  0  0  0  0  0  0  0  0  0
  -15.0990   10.1895   -5.2514 H   0  0  0  0  0  0  0  0  0  0  0  0
  -11.9761    7.2607    0.5363 H   0  0  0  0  0  0  0  0  0  0  0  0
  -13.0224    6.0968   -1.3042 H   0  0  0  0  0  0  0  0  0  0  0  0
  -13.7408    7.5916   -1.9419 H   0  0  0  0  0  0  0  0  0  0  0  0
  -11.4609    6.2506   -3.0250 H   0  0  0  0  0  0  0  0  0  0  0  0
  -11.9190    7.9028   -3.4295 H   0  0  0  0  0  0  0  0  0  0  0  0
   -9.9354    6.6076    0.0128 H   0  0  0  0  0  0  0  0  0  0  0  0
  -10.4650    5.5970   -1.3746 H   0  0  0  0  0  0  0  0  0  0  0  0
   -8.8274    6.3351   -1.3746 H   0  0  0  0  0  0  0  0  0  0  0  0
   -9.9327    9.2579   -3.1409 H   0  0  0  0  0  0  0  0  0  0  0  0
   -9.3677    6.9137   -4.0507 H   0  0  0  0  0  0  0  0  0  0  0  0
   -8.3153    8.3703   -4.4513 H   0  0  0  0  0  0  0  0  0  0  0  0
   -7.0438    6.1341   -3.8849 H   0  0  0  0  0  0  0  0  0  0  0  0
   -7.5966    7.8760   -0.2848 H   0  0  0  0  0  0  0  0  0  0  0  0
   -5.4525    9.6135   -1.6558 H   0  0  0  0  0  0  0  0  0  0  0  0
   -6.1660    9.8619   -0.0002 H   0  0  0  0  0  0  0  0  0  0  0  0
   -3.9138    8.8428    0.0943 H   0  0  0  0  0  0  0  0  0  0  0  0
   -5.2040    7.7679    0.7620 H   0  0  0  0  0  0  0  0  0  0  0  0
   -3.7142    6.4441   -0.5773 H   0  0  0  0  0  0  0  0  0  0  0  0
   -2.8420    7.3230   -2.3040 H   0  0  0  0  0  0  0  0  0  0  0  0
   -5.8352    5.8556    0.5151 H   0  0  0  0  0  0  0  0  0  0  0  0
   -7.2083    5.3159   -0.5097 H   0  0  0  0  0  0  0  0  0  0  0  0
   -5.6692    4.3897   -0.5097 H   0  0  0  0  0  0  0  0  0  0  0  0
   -4.5942    4.4158   -2.1951 H   0  0  0  0  0  0  0  0  0  0  0  0
   -5.8960    4.9434   -3.3148 H   0  0  0  0  0  0  0  0  0  0  0  0
   -4.3128    5.7920   -3.3148 H   0  0  0  0  0  0  0  0  0  0  0  0
   -7.2794   11.1978   -1.9674 H   0  0  0  0  0  0  0  0  0  0  0  0
   -6.9077    9.9848   -3.2391 H   0  0  0  0  0  0  0  0  0  0  0  0
   -8.4933   10.8291   -3.2391 H   0  0  0  0  0  0  0  0  0  0  0  0
   -8.1989   10.1772    0.2747 H   0  0  0  0  0  0  0  0  0  0  0  0
   -9.4278   10.9158   -0.8997 H   0  0  0  0  0  0  0  0  0  0  0  0
   -9.7377    8.3981    0.7586 H   0  0  0  0  0  0  0  0  0  0  0  0
  -10.6416    9.9572    0.8945 H   0  0  0  0  0  0  0  0  0  0  0  0
  -12.1179   10.7405   -0.7753 H   0  0  0  0  0  0  0  0  0  0  0  0
  -11.0017   10.4971   -2.1615 H   0  0  0  0  0  0  0  0  0  0  0  0
  -12.6180    9.7134   -2.1615 H   0  0  0  0  0  0  0  0  0  0  0  0
  1  2  1  0
  2  3  1  0
  3  4  1  0
  4  5  1  0
  5  6  1  0
  6  7  1  0
  7  8  1  0
  7  9  1  0
  2 10  1  0
 10 11  1  0
 11 12  1  0
 12 13  1  0
 13 14  1  1
 13 15  1  0
 15 16  1  0
 16 17  1  0
 17 18  2  0
 18 19  1  0
 19 20  1  0
 20 21  1  0
 21 22  1  0
 22 23  1  0
 22 24  1  0
 24 25  1  0
 24 26  1  0
 19 27  1  0
 27 28  1  6
 27 29  1  0
 29 30  1  0
 30 31  1  0
 31 32  1  6
  7  5  1  0
 31 10  1  0
 31 13  1  0
 27 15  1  0
 24 18  1  0
  1 33  1  0
  1 34  1  0
  1 35  1  0
  2 36  1  1
  3 37  1  0
  3 38  1  0
  4 39  1  0
  4 40  1  0
  5 41  1  6
  8 42  1  0
  8 43  1  0
  8 44  1  0
  9 45  1  0
  9 46  1  0
  9 47  1  0
 10 48  1  1
 11 49  1  0
 11 50  1  0
 12 51  1  0
 12 52  1  0
 14 53  1  0
 14 54  1  0
 14 55  1  0
 15 56  1  6
 16 57  1  0
 16 58  1  0
 17 59  1  0
 19 60  1  1
 20 61  1  0
 20 62  1  0
 21 63  1  0
 21 64  1  0
 22 65  1  1
 23 66  1  0
 25 67  1  0
 25 68  1  0
 25 69  1  0
 26 70  1  0
 26 71  1  0
 26 72  1  0
 28 73  1  0
 28 74  1  0
 28 75  1  0
 29 76  1  0
 29 77  1  0
 30 78  1  0
 30 79  1  0
 32 80  1  0
 32 81  1  0
 32 82  1  0
M  END
>  <meeko>  (6) 
{"is_sidechain": [false], "intermolecular_energy": 2.731, "internal_energy": -0.839}

$$$$
EPH_relaxed_0001_pdb2pqr_Repair_395_r2_0001_out
     RDKit          3D

 82 86  0  0  0  0  0  0  0  0999 V2000
    0.4140    8.8750   -2.5450 C   0  0  0  0  0  0  0  0  0  0  0  0
    1.1820   10.0350   -3.1860 C   0  0  2  0  0  0  0  0  0  0  0  0
    2.6740   10.0290   -2.7960 C   0  0  0  0  0  0  0  0  0  0  0  0
    3.5940   10.6120   -3.8720 C   0  0  0  0  0  0  0  0  0  0  0  0
    4.9800   10.8420   -3.3510 C   0  0  2  0  0  0  0  0  0  0  0  0
    5.5950   12.0560   -3.8000 O   0  0  0  0  0  0  0  0  0  0  0  0
    6.2160   10.8350   -4.2300 C   0  0  0  0  0  0  0  0  0  0  0  0
    6.1240   10.5910   -5.7040 C   0  0  0  0  0  0  0  0  0  0  0  0
    7.5460   10.5770   -3.5930 C   0  0  0  0  0  0  0  0  0  0  0  0
    0.5450   11.3620   -2.7910 C   0  0  1  0  0  0  0  0  0  0  0  0
   -0.8310   11.1810   -2.0960 C   0  0  0  0  0  0  0  0  0  0  0  0
   -0.9430   12.2990   -1.0280 C   0  0  0  0  0  0  0  0  0  0  0  0
    0.2070   13.2760   -1.3640 C   0  0  1  0  0  0  0  0  0  0  0  0
   -0.3430   14.1590   -2.5280 C   0  0  0  0  0  0  0  0  0  0  0  0
    0.7400   14.1490   -0.1820 C   0  0  2  0  0  0  0  0  0  0  0  0
   -0.2880   15.1140    0.4330 C   0  0  0  0  0  0  0  0  0  0  0  0
   -0.3310   16.4750   -0.1810 C   0  0  0  0  0  0  0  0  0  0  0  0
    0.6100   16.9990   -0.9880 C   0  0  0  0  0  0  0  0  0  0  0  0
    1.9100   16.2380   -1.2800 C   0  0  1  0  0  0  0  0  0  0  0  0
    3.1170   17.2010   -1.1320 C   0  0  0  0  0  0  0  0  0  0  0  0
    2.9720   18.4570   -1.9860 C   0  0  0  0  0  0  0  0  0  0  0  0
    1.6980   19.2160   -1.6260 C   0  0  2  0  0  0  0  0  0  0  0  0
    1.8260   19.7280   -0.2960 O   0  0  0  0  0  0  0  0  0  0  0  0
    0.4150   18.3450   -1.7290 C   0  0  0  0  0  0  0  0  0  0  0  0
    0.1100   18.0410   -3.2170 C   0  0  0  0  0  0  0  0  0  0  0  0
   -0.7780   19.1880   -1.2050 C   0  0  0  0  0  0  0  0  0  0  0  0
    2.1120   14.8790   -0.4820 C   0  0  1  0  0  0  0  0  0  0  0  0
    2.7750   15.1670    0.9000 C   0  0  0  0  0  0  0  0  0  0  0  0
    3.1170   13.9620   -1.2740 C   0  0  0  0  0  0  0  0  0  0  0  0
    2.5150   13.0360   -2.3470 C   0  0  0  0  0  0  0  0  0  0  0  0
    1.3220   12.2530   -1.7890 C   0  0  2  0  0  0  0  0  0  0  0  0
    1.8490   11.3390   -0.6310 C   0  0  0  0  0  0  0  0  0  0  0  0
    0.4697    8.9592   -1.4496 H   0  0  0  0  0  0  0  0  0  0  0  0
   -0.6385    8.9122   -2.8625 H   0  0  0  0  0  0  0  0  0  0  0  0
    0.8593    7.9206   -2.8625 H   0  0  0  0  0  0  0  0  0  0  0  0
    1.1256    9.9066   -4.2770 H   0  0  0  0  0  0  0  0  0  0  0  0
    2.7951   10.6217   -1.8773 H   0  0  0  0  0  0  0  0  0  0  0  0
    2.9661    8.9774   -2.6588 H   0  0  0  0  0  0  0  0  0  0  0  0
    3.6429    9.9102   -4.7176 H   0  0  0  0  0  0  0  0  0  0  0  0
    3.1811   11.5815   -4.1877 H   0  0  0  0  0  0  0  0  0  0  0  0
    4.7387   10.3209   -2.4128 H   0  0  0  0  0  0  0  0  0  0  0  0
    5.7412    9.5757   -5.8844 H   0  0  0  0  0  0  0  0  0  0  0  0
    5.4412   11.3259   -6.1554 H   0  0  0  0  0  0  0  0  0  0  0  0
    7.1220   10.6921   -6.1554 H   0  0  0  0  0  0  0  0  0  0  0  0
    7.4385   10.5978   -2.4985 H   0  0  0  0  0  0  0  0  0  0  0  0
    7.9173    9.5901   -3.9062 H   0  0  0  0  0  0  0  0  0  0  0  0
    8.2594   11.3535   -3.9062 H   0  0  0  0  0  0  0  0  0  0  0  0
    0.5062   11.8487   -3.7767 H   0  0  0  0  0  0  0  0  0  0  0  0
   -1.6428   11.2775   -2.8320 H   0  0  0  0  0  0  0  0  0  0  0  0
   -0.9131   10.1853   -1.6357 H   0  0  0  0  0  0  0  0  0  0  0  0
   -1.9165   12.8064   -1.0977 H   0  0  0  0  0  0  0  0  0  0  0  0
   -0.8702   11.9058   -0.0033 H   0  0  0  0  0  0  0  0  0  0  0  0
   -0.8810   15.0228   -2.1103 H   0  0  0  0  0  0  0  0  0  0  0  0
    0.4946   14.5131   -3.1469 H   0  0  0  0  0  0  0  0  0  0  0  0
   -1.0301   13.5634   -3.1469 H   0  0  0  0  0  0  0  0  0  0  0  0
    0.9424   13.3958    0.5937 H   0  0  0  0  0  0  0  0  0  0  0  0
   -1.2850   14.6615    0.3271 H   0  0  0  0  0  0  0  0  0  0  0  0
    0.0197   15.2611    1.4788 H   0  0  0  0  0  0  0  0  0  0  0  0
   -1.2059   17.1021    0.0456 H   0  0  0  0  0  0  0  0  0  0  0  0
    1.8333   15.8924   -2.3215 H   0  0  0  0  0  0  0  0  0  0  0  0
    3.2021   17.5000   -0.0768 H   0  0  0  0  0  0  0  0  0  0  0  0
    4.0148   16.6660   -1.4751 H   0  0  0  0  0  0  0  0  0  0  0  0
    3.8406   19.1102   -1.8162 H   0  0  0  0  0  0  0  0  0  0  0  0
    2.9166   18.1587   -3.0433 H   0  0  0  0  0  0  0  0  0  0  0  0
    1.5831   20.0307   -2.3561 H   0  0  0  0  0  0  0  0  0  0  0  0
    1.4140   19.0870    0.3070 H   0  0  0  0  0  0  0  0  0  0  0  0
   -0.6678   17.2658   -3.2809 H   0  0  0  0  0  0  0  0  0  0  0  0
   -0.2434   18.9568   -3.7134 H   0  0  0  0  0  0  0  0  0  0  0  0
    1.0246   17.6845   -3.7134 H   0  0  0  0  0  0  0  0  0  0  0  0
   -0.7739   19.1851   -0.1050 H   0  0  0  0  0  0  0  0  0  0  0  0
   -0.6845   20.2217   -1.5693 H   0  0  0  0  0  0  0  0  0  0  0  0
   -1.7212   18.7547   -1.5693 H   0  0  0  0  0  0  0  0  0  0  0  0
    2.0880   14.8686    1.7056 H   0  0  0  0  0  0  0  0  0  0  0  0
    3.7102   14.5940    0.9846 H   0  0  0  0  0  0  0  0  0  0  0  0
    2.9945   16.2416    0.9846 H   0  0  0  0  0  0  0  0  0  0  0  0
    3.8451   14.6191   -1.7722 H   0  0  0  0  0  0  0  0  0  0  0  0
    3.5460   13.2866   -0.5192 H   0  0  0  0  0  0  0  0  0  0  0  0
    2.1791   13.6442   -3.1998 H   0  0  0  0  0  0  0  0  0  0  0  0
    3.2868   12.3197   -2.6652 H   0  0  0  0  0  0  0  0  0  0  0  0
    1.5894   11.7892    0.3385 H   0  0  0  0  0  0  0  0  0  0  0  0
    1.3857   10.3444   -0.7092 H   0  0  0  0  0  0  0  0  0  0  0  0
    2.9419   11.2416   -0.7092 H   0  0  0  0  0  0  0  0  0  0  0  0
  1  2  1  0
  2  3  1  0
  3  4  1  0
  4  5  1  0
  5  6  1  0
  6  7  1  0
  7  8  1  0
  7  9  1  0
  2 10  1  0
 10 11  1  0
 11 12  1  0
 12 13  1  0
 13 14  1  6
 13 15  1  0
 15 16  1  0
 16 17  1  0
 17 18  2  0
 18 19  1  0
 19 20  1  0
 20 21  1  0
 21 22  1  0
 22 23  1  0
 22 24  1  0
 24 25  1  0
 24 26  1  0
 19 27  1  0
 27 28  1  1
 27 29  1  0
 29 30  1  0
 30 31  1  0
 31 32  1  1
  7  5  1  0
 31 10  1  0
 31 13  1  0
 27 15  1  0
 24 18  1  0
  1 33  1  0
  1 34  1  0
  1 35  1  0
  2 36  1  6
  3 37  1  0
  3 38  1  0
  4 39  1  0
  4 40  1  0
  5 41  1  1
  8 42  1  0
  8 43  1  0
  8 44  1  0
  9 45  1  0
  9 46  1  0
  9 47  1  0
 10 48  1  6
 11 49  1  0
 11 50  1  0
 12 51  1  0
 12 52  1  0
 14 53  1  0
 14 54  1  0
 14 55  1  0
 15 56  1  1
 16 57  1  0
 16 58  1  0
 17 59  1  0
 19 60  1  6
 20 61  1  0
 20 62  1  0
 21 63  1  0
 21 64  1  0
 22 65  1  6
 23 66  1  0
 25 67  1  0
 25 68  1  0
 25 69  1  0
 26 70  1  0
 26 71  1  0
 26 72  1  0
 28 73  1  0
 28 74  1  0
 28 75  1  0
 29 76  1  0
 29 77  1  0
 30 78  1  0
 30 79  1  0
 32 80  1  0
 32 81  1  0
 32 82  1  0
M  END
>  <meeko>  (7) 
{"is_sidechain": [false], "intermolecular_energy": 2.731, "internal_energy": -0.839}

$$$$
EPH_relaxed_0001_pdb2pqr_Repair_395_r2_0001_out
     RDKit          3D

 82 86  0  0  0  0  0  0  0  0999 V2000
   -0.8810   16.3540   -5.8530 C   0  0  0  0  0  0  0  0  0  0  0  0
    0.2250   15.6620   -6.6550 C   0  0  2  0  0  0  0  0  0  0  0  0
   -0.1590   15.4830   -8.1380 C   0  0  0  0  0  0  0  0  0  0  0  0
    0.4900   16.5100   -9.0700 C   0  0  0  0  0  0  0  0  0  0  0  0
    1.8840   16.1120   -9.4490 C   0  0  2  0  0  0  0  0  0  0  0  0
    2.3560   16.6800  -10.6780 O   0  0  0  0  0  0  0  0  0  0  0  0
    2.2100   15.2510  -10.6550 C   0  0  0  0  0  0  0  0  0  0  0  0
    1.1340   14.7350  -11.5580 C   0  0  0  0  0  0  0  0  0  0  0  0
    3.5110   14.5110  -10.6750 C   0  0  0  0  0  0  0  0  0  0  0  0
    0.5490   14.3080   -6.0340 C   0  0  1  0  0  0  0  0  0  0  0  0
    1.8040   13.6470   -6.6640 C   0  0  0  0  0  0  0  0  0  0  0  0
    2.5240   12.8810   -5.5250 C   0  0  0  0  0  0  0  0  0  0  0  0
    1.4990   12.8470   -4.3670 C   0  0  1  0  0  0  0  0  0  0  0  0
    0.5350   11.6710   -4.7200 C   0  0  0  0  0  0  0  0  0  0  0  0
    2.0870   12.7000   -2.9270 C   0  0  2  0  0  0  0  0  0  0  0  0
    2.8570   11.3930   -2.6670 C   0  0  0  0  0  0  0  0  0  0  0  0
    2.0350   10.2620   -2.1440 C   0  0  0  0  0  0  0  0  0  0  0  0
    0.7980   10.3690   -1.6240 C   0  0  0  0  0  0  0  0  0  0  0  0
    0.1400   11.7410   -1.4330 C   0  0  1  0  0  0  0  0  0  0  0  0
   -0.4890   11.8220   -0.0170 C   0  0  0  0  0  0  0  0  0  0  0  0
   -1.4490   10.6700    0.2630 C   0  0  0  0  0  0  0  0  0  0  0  0
   -0.7440    9.3240    0.1200 C   0  0  2  0  0  0  0  0  0  0  0  0
    0.2350    9.2040    1.1570 O   0  0  0  0  0  0  0  0  0  0  0  0
   -0.0630    9.1330   -1.2650 C   0  0  0  0  0  0  0  0  0  0  0  0
   -1.1470    8.9610   -2.3580 C   0  0  0  0  0  0  0  0  0  0  0  0
    0.7300    7.7990   -1.2260 C   0  0  0  0  0  0  0  0  0  0  0  0
    1.0510   13.0000   -1.7690 C   0  0  1  0  0  0  0  0  0  0  0  0
    1.8870   13.4010   -0.5150 C   0  0  0  0  0  0  0  0  0  0  0  0
    0.1260   14.2310   -2.0980 C   0  0  0  0  0  0  0  0  0  0  0  0
   -0.3250   14.3890   -3.5630 C   0  0  0  0  0  0  0  0  0  0  0  0
    0.8670   14.2790   -4.5180 C   0  0  2  0  0  0  0  0  0  0  0  0
    1.8440   15.4630   -4.2030 C   0  0  0  0  0  0  0  0  0  0  0  0
   -0.6854   16.2316   -4.7775 H   0  0  0  0  0  0  0  0  0  0  0  0
   -0.8996   17.4251   -6.1027 H   0  0  0  0  0  0  0  0  0  0  0  0
   -1.8524   15.9023   -6.1027 H   0  0  0  0  0  0  0  0  0  0  0  0
    1.1138   16.3091   -6.6193 H   0  0  0  0  0  0  0  0  0  0  0  0
    0.1522   14.4778   -8.4584 H   0  0  0  0  0  0  0  0  0  0  0  0
   -1.2472   15.6277   -8.2081 H   0  0  0  0  0  0  0  0  0  0  0  0
   -0.1169   16.5960   -9.9834 H   0  0  0  0  0  0  0  0  0  0  0  0
    0.5407   17.4716   -8.5382 H   0  0  0  0  0  0  0  0  0  0  0  0
    2.1761   16.0407   -8.3909 H   0  0  0  0  0  0  0  0  0  0  0  0
    0.3061   14.3380  -10.9522 H   0  0  0  0  0  0  0  0  0  0  0  0
    0.7641   15.5537  -12.1928 H   0  0  0  0  0  0  0  0  0  0  0  0
    1.5409   13.9340  -12.1928 H   0  0  0  0  0  0  0  0  0  0  0  0
    3.8417   14.3229   -9.6429 H   0  0  0  0  0  0  0  0  0  0  0  0
    3.3796   13.5525  -11.1984 H   0  0  0  0  0  0  0  0  0  0  0  0
    4.2677   15.1138  -11.1984 H   0  0  0  0  0  0  0  0  0  0  0  0
   -0.3981   13.7837   -6.2293 H   0  0  0  0  0  0  0  0  0  0  0  0
    1.5055   12.9493   -7.4603 H   0  0  0  0  0  0  0  0  0  0  0  0
    2.4659   14.4026   -7.1123 H   0  0  0  0  0  0  0  0  0  0  0  0
    2.7812   11.8607   -5.8457 H   0  0  0  0  0  0  0  0  0  0  0  0
    3.4685   13.3624   -5.2314 H   0  0  0  0  0  0  0  0  0  0  0  0
    0.1599   11.2134   -3.7927 H   0  0  0  0  0  0  0  0  0  0  0  0
   -0.3117   12.0548   -5.3080 H   0  0  0  0  0  0  0  0  0  0  0  0
    1.0775   10.9161   -5.3080 H   0  0  0  0  0  0  0  0  0  0  0  0
    2.8395   13.5018   -2.8972 H   0  0  0  0  0  0  0  0  0  0  0  0
    3.3121   11.0722   -3.6156 H   0  0  0  0  0  0  0  0  0  0  0  0
    3.5918   11.6238   -1.8817 H   0  0  0  0  0  0  0  0  0  0  0  0
    2.4776    9.2559   -2.1872 H   0  0  0  0  0  0  0  0  0  0  0  0
   -0.6494   11.8079   -2.1961 H   0  0  0  0  0  0  0  0  0  0  0  0
    0.3185   11.7976    0.7295 H   0  0  0  0  0  0  0  0  0  0  0  0
   -1.0645   12.7577    0.0399 H   0  0  0  0  0  0  0  0  0  0  0  0
   -1.8369   10.7659    1.2879 H   0  0  0  0  0  0  0  0  0  0  0  0
   -2.2717   10.7141   -0.4659 H   0  0  0  0  0  0  0  0  0  0  0  0
   -1.5106    8.5396    0.2040 H   0  0  0  0  0  0  0  0  0  0  0  0
    0.0500    9.8940    1.8170 H   0  0  0  0  0  0  0  0  0  0  0  0
   -2.1264    8.8056   -1.8819 H   0  0  0  0  0  0  0  0  0  0  0  0
   -1.1830    9.8647   -2.9842 H   0  0  0  0  0  0  0  0  0  0  0  0
   -0.9015    8.0906   -2.9842 H   0  0  0  0  0  0  0  0  0  0  0  0
    0.9040    7.5063   -0.1800 H   0  0  0  0  0  0  0  0  0  0  0  0
    0.1519    7.0138   -1.7352 H   0  0  0  0  0  0  0  0  0  0  0  0
    1.6960    7.9317   -1.7352 H   0  0  0  0  0  0  0  0  0  0  0  0
    1.3317   13.1346    0.3964 H   0  0  0  0  0  0  0  0  0  0  0  0
    2.8479   12.8658   -0.5285 H   0  0  0  0  0  0  0  0  0  0  0  0
    2.0711   14.4854   -0.5285 H   0  0  0  0  0  0  0  0  0  0  0  0
   -0.7789   14.1422   -1.4789 H   0  0  0  0  0  0  0  0  0  0  0  0
    0.7421   15.1180   -1.8891 H   0  0  0  0  0  0  0  0  0  0  0  0
   -1.0524   13.5994   -3.8028 H   0  0  0  0  0  0  0  0  0  0  0  0
   -0.7814   15.3825   -3.6844 H   0  0  0  0  0  0  0  0  0  0  0  0
    1.9399   15.5792   -3.1134 H   0  0  0  0  0  0  0  0  0  0  0  0
    2.8317   15.2488   -4.6373 H   0  0  0  0  0  0  0  0  0  0  0  0
    1.4462   16.3921   -4.6373 H   0  0  0  0  0  0  0  0  0  0  0  0
  1  2  1  0
  2  3  1  0
  3  4  1  0
  4  5  1  0
  5  6  1  0
  6  7  1  0
  7  8  1  0
  7  9  1  0
  2 10  1  0
 10 11  1  0
 11 12  1  0
 12 13  1  0
 13 14  1  6
 13 15  1  0
 15 16  1  0
 16 17  1  0
 17 18  2  0
 18 19  1  0
 19 20  1  0
 20 21  1  0
 21 22  1  0
 22 23  1  0
 22 24  1  0
 24 25  1  0
 24 26  1  0
 19 27  1  0
 27 28  1  1
 27 29  1  0
 29 30  1  0
 30 31  1  0
 31 32  1  6
  7  5  1  0
 31 10  1  0
 31 13  1  0
 27 15  1  0
 24 18  1  0
  1 33  1  0
  1 34  1  0
  1 35  1  0
  2 36  1  6
  3 37  1  0
  3 38  1  0
  4 39  1  0
  4 40  1  0
  5 41  1  1
  8 42  1  0
  8 43  1  0
  8 44  1  0
  9 45  1  0
  9 46  1  0
  9 47  1  0
 10 48  1  1
 11 49  1  0
 11 50  1  0
 12 51  1  0
 12 52  1  0
 14 53  1  0
 14 54  1  0
 14 55  1  0
 15 56  1  6
 16 57  1  0
 16 58  1  0
 17 59  1  0
 19 60  1  6
 20 61  1  0
 20 62  1  0
 21 63  1  0
 21 64  1  0
 22 65  1  1
 23 66  1  0
 25 67  1  0
 25 68  1  0
 25 69  1  0
 26 70  1  0
 26 71  1  0
 26 72  1  0
 28 73  1  0
 28 74  1  0
 28 75  1  0
 29 76  1  0
 29 77  1  0
 30 78  1  0
 30 79  1  0
 32 80  1  0
 32 81  1  0
 32 82  1  0
M  END
>  <meeko>  (8) 
{"is_sidechain": [false], "intermolecular_energy": 2.731, "internal_energy": -0.839}

$$$$
EPH_relaxed_0001_pdb2pqr_Repair_395_r2_0001_out
     RDKit          3D

 82 86  0  0  0  0  0  0  0  0999 V2000
   -4.1230    7.1660   -3.3230 C   0  0  0  0  0  0  0  0  0  0  0  0
   -4.1110    7.2820   -1.7970 C   0  0  2  0  0  0  0  0  0  0  0  0
   -5.5230    7.1420   -1.1930 C   0  0  0  0  0  0  0  0  0  0  0  0
   -6.6500    7.4080   -2.1940 C   0  0  0  0  0  0  0  0  0  0  0  0
   -7.9110    7.8390   -1.5080 C   0  0  2  0  0  0  0  0  0  0  0  0
   -8.8360    8.5460   -2.3450 O   0  0  0  0  0  0  0  0  0  0  0  0
   -8.2710    9.2910   -1.2530 C   0  0  0  0  0  0  0  0  0  0  0  0
   -7.3670   10.4050   -1.6800 C   0  0  0  0  0  0  0  0  0  0  0  0
   -9.2510    9.6050   -0.1660 C   0  0  0  0  0  0  0  0  0  0  0  0
   -3.4970    8.6140   -1.3810 C   0  0  1  0  0  0  0  0  0  0  0  0
   -4.0760    9.1480   -0.0440 C   0  0  0  0  0  0  0  0  0  0  0  0
   -2.9160    9.8700    0.6890 C   0  0  0  0  0  0  0  0  0  0  0  0
   -1.8100   10.0180   -0.3830 C   0  0  1  0  0  0  0  0  0  0  0  0
   -2.2270   11.2680   -1.2190 C   0  0  0  0  0  0  0  0  0  0  0  0
   -0.3450   10.1420    0.1490 C   0  0  2  0  0  0  0  0  0  0  0  0
   -0.0690   11.3800    1.0200 C   0  0  0  0  0  0  0  0  0  0  0  0
    0.3950   12.5900    0.2800 C   0  0  0  0  0  0  0  0  0  0  0  0
    0.8560   12.6040   -0.9840 C   0  0  0  0  0  0  0  0  0  0  0  0
    1.0370   11.3000   -1.7720 C   0  0  1  0  0  0  0  0  0  0  0  0
    2.4220   11.3050   -2.4700 C   0  0  0  0  0  0  0  0  0  0  0  0
    2.6370   12.5430   -3.3350 C   0  0  0  0  0  0  0  0  0  0  0  0
    2.5070   13.8170   -2.5050 C   0  0  2  0  0  0  0  0  0  0  0  0
    3.5880   13.8710   -1.5700 O   0  0  0  0  0  0  0  0  0  0  0  0
    1.1540   13.9190   -1.7470 C   0  0  0  0  0  0  0  0  0  0  0  0
    0.0070   14.1650   -2.7580 C   0  0  0  0  0  0  0  0  0  0  0  0
    1.2090   15.1770   -0.8390 C   0  0  0  0  0  0  0  0  0  0  0  0
    0.7660    9.9590   -0.9630 C   0  0  1  0  0  0  0  0  0  0  0  0
    2.0650    9.5100   -0.2260 C   0  0  0  0  0  0  0  0  0  0  0  0
    0.4120    8.8090   -1.9790 C   0  0  0  0  0  0  0  0  0  0  0  0
   -1.0700    8.6620   -2.3730 C   0  0  0  0  0  0  0  0  0  0  0  0
   -1.9680    8.6450   -1.1330 C   0  0  2  0  0  0  0  0  0  0  0  0
   -1.5870    7.3860   -0.2820 C   0  0  0  0  0  0  0  0  0  0  0  0
   -4.2323    6.1096   -3.6096 H   0  0  0  0  0  0  0  0  0  0  0  0
   -4.9660    7.7449   -3.7281 H   0  0  0  0  0  0  0  0  0  0  0  0
   -3.1793    7.5601   -3.7281 H   0  0  0  0  0  0  0  0  0  0  0  0
   -3.5010    6.4537   -1.4074 H   0  0  0  0  0  0  0  0  0  0  0  0
   -5.6357    6.1180   -0.8073 H   0  0  0  0  0  0  0  0  0  0  0  0
   -5.6106    7.9008   -0.4015 H   0  0  0  0  0  0  0  0  0  0  0  0
   -6.3319    8.2014   -2.8864 H   0  0  0  0  0  0  0  0  0  0  0  0
   -6.8564    6.4724   -2.7344 H   0  0  0  0  0  0  0  0  0  0  0  0
   -7.8800    6.9599   -0.8475 H   0  0  0  0  0  0  0  0  0  0  0  0
   -6.9591   10.9076   -0.7906 H   0  0  0  0  0  0  0  0  0  0  0  0
   -6.5414    9.9971   -2.2816 H   0  0  0  0  0  0  0  0  0  0  0  0
   -7.9362   11.1290   -2.2816 H   0  0  0  0  0  0  0  0  0  0  0  0
   -8.7738    9.4521    0.8133 H   0  0  0  0  0  0  0  0  0  0  0  0
   -9.5756   10.6521   -0.2562 H   0  0  0  0  0  0  0  0  0  0  0  0
  -10.1237    8.9415   -0.2562 H   0  0  0  0  0  0  0  0  0  0  0  0
   -3.7466    9.2167   -2.2667 H   0  0  0  0  0  0  0  0  0  0  0  0
   -4.8966    9.8534   -0.2414 H   0  0  0  0  0  0  0  0  0  0  0  0
   -4.4796    8.3275    0.5674 H   0  0  0  0  0  0  0  0  0  0  0  0
   -3.2400   10.8567    1.0516 H   0  0  0  0  0  0  0  0  0  0  0  0
   -2.5695    9.3132    1.5721 H   0  0  0  0  0  0  0  0  0  0  0  0
   -2.5008   12.0887   -0.5397 H   0  0  0  0  0  0  0  0  0  0  0  0
   -1.3851   11.5824   -1.8533 H   0  0  0  0  0  0  0  0  0  0  0  0
   -3.0891   11.0140   -1.8533 H   0  0  0  0  0  0  0  0  0  0  0  0
   -0.2662    9.2778    0.8250 H   0  0  0  0  0  0  0  0  0  0  0  0
   -0.9995   11.6395    1.5462 H   0  0  0  0  0  0  0  0  0  0  0  0
    0.7549   11.1007    1.6931 H   0  0  0  0  0  0  0  0  0  0  0  0
    0.3569   13.5516    0.8128 H   0  0  0  0  0  0  0  0  0  0  0  0
    0.2384   11.2876   -2.5283 H   0  0  0  0  0  0  0  0  0  0  0  0
    3.2056   11.2734   -1.6987 H   0  0  0  0  0  0  0  0  0  0  0  0
    2.4668   10.4255   -3.1291 H   0  0  0  0  0  0  0  0  0  0  0  0
    3.6432   12.5027   -3.7776 H   0  0  0  0  0  0  0  0  0  0  0  0
    1.8704   12.5579   -4.1238 H   0  0  0  0  0  0  0  0  0  0  0  0
    2.5414   14.6685   -3.2006 H   0  0  0  0  0  0  0  0  0  0  0  0
    4.1700   13.1120   -1.7490 H   0  0  0  0  0  0  0  0  0  0  0  0
   -0.9266   14.3652   -2.2118 H   0  0  0  0  0  0  0  0  0  0  0  0
    0.2548   15.0304   -3.3902 H   0  0  0  0  0  0  0  0  0  0  0  0
   -0.1219   13.2741   -3.3902 H   0  0  0  0  0  0  0  0  0  0  0  0
    1.1955   14.8681    0.2167 H   0  0  0  0  0  0  0  0  0  0  0  0
    2.1325   15.7379   -1.0451 H   0  0  0  0  0  0  0  0  0  0  0  0
    0.3379   15.8164   -1.0451 H   0  0  0  0  0  0  0  0  0  0  0  0
    1.9072    9.5645    0.8613 H   0  0  0  0  0  0  0  0  0  0  0  0
    2.3086    8.4755   -0.5097 H   0  0  0  0  0  0  0  0  0  0  0  0
    2.8954   10.1732   -0.5097 H   0  0  0  0  0  0  0  0  0  0  0  0
    0.9848    8.9910   -2.9003 H   0  0  0  0  0  0  0  0  0  0  0  0
    0.6647    7.8749   -1.4559 H   0  0  0  0  0  0  0  0  0  0  0  0
   -1.3576    9.5085   -3.0139 H   0  0  0  0  0  0  0  0  0  0  0  0
   -1.1971    7.7110   -2.9110 H   0  0  0  0  0  0  0  0  0  0  0  0
   -1.6610    7.6305    0.7879 H   0  0  0  0  0  0  0  0  0  0  0  0
   -2.2759    6.5616   -0.5182 H   0  0  0  0  0  0  0  0  0  0  0  0
   -0.5566    7.0819   -0.5182 H   0  0  0  0  0  0  0  0  0  0  0  0
  1  2  1  0
  2  3  1  0
  3  4  1  0
  4  5  1  0
  5  6  1  0
  6  7  1  0
  7  8  1  0
  7  9  1  0
  2 10  1  0
 10 11  1  0
 11 12  1  0
 12 13  1  0
 13 14  1  6
 13 15  1  0
 15 16  1  0
 16 17  1  0
 17 18  2  0
 18 19  1  0
 19 20  1  0
 20 21  1  0
 21 22  1  0
 22 23  1  0
 22 24  1  0
 24 25  1  0
 24 26  1  0
 19 27  1  0
 27 28  1  1
 27 29  1  0
 29 30  1  0
 30 31  1  0
 31 32  1  1
  7  5  1  0
 31 10  1  0
 31 13  1  0
 27 15  1  0
 24 18  1  0
  1 33  1  0
  1 34  1  0
  1 35  1  0
  2 36  1  1
  3 37  1  0
  3 38  1  0
  4 39  1  0
  4 40  1  0
  5 41  1  1
  8 42  1  0
  8 43  1  0
  8 44  1  0
  9 45  1  0
  9 46  1  0
  9 47  1  0
 10 48  1  6
 11 49  1  0
 11 50  1  0
 12 51  1  0
 12 52  1  0
 14 53  1  0
 14 54  1  0
 14 55  1  0
 15 56  1  1
 16 57  1  0
 16 58  1  0
 17 59  1  0
 19 60  1  6
 20 61  1  0
 20 62  1  0
 21 63  1  0
 21 64  1  0
 22 65  1  6
 23 66  1  0
 25 67  1  0
 25 68  1  0
 25 69  1  0
 26 70  1  0
 26 71  1  0
 26 72  1  0
 28 73  1  0
 28 74  1  0
 28 75  1  0
 29 76  1  0
 29 77  1  0
 30 78  1  0
 30 79  1  0
 32 80  1  0
 32 81  1  0
 32 82  1  0
M  END
>  <meeko>  (9) 
{"is_sidechain": [false], "intermolecular_energy": 2.731, "internal_energy": -0.839}

$$$$
EPH_relaxed_0001_pdb2pqr_Repair_395_r2_0001_out
     RDKit          3D

 82 86  0  0  0  0  0  0  0  0999 V2000
    0.0790    9.4170   -2.4700 C   0  0  0  0  0  0  0  0  0  0  0  0
    1.2100   10.3820   -2.8360 C   0  0  2  0  0  0  0  0  0  0  0  0
    2.5890    9.6920   -2.8270 C   0  0  0  0  0  0  0  0  0  0  0  0
    3.5650   10.2530   -3.8650 C   0  0  0  0  0  0  0  0  0  0  0  0
    4.9260   10.4780   -3.2800 C   0  0  2  0  0  0  0  0  0  0  0  0
    5.4390   11.8060   -3.4500 O   0  0  0  0  0  0  0  0  0  0  0  0
    6.1600   10.7590   -4.1170 C   0  0  0  0  0  0  0  0  0  0  0  0
    6.0910   10.8280   -5.6110 C   0  0  0  0  0  0  0  0  0  0  0  0
    7.5060   10.4810   -3.5240 C   0  0  0  0  0  0  0  0  0  0  0  0
    1.2140   11.5660   -1.8760 C   0  0  1  0  0  0  0  0  0  0  0  0
    2.2840   11.4260   -0.7600 C   0  0  0  0  0  0  0  0  0  0  0  0
    2.8090   12.8540   -0.4620 C   0  0  0  0  0  0  0  0  0  0  0  0
    1.8030   13.7940   -1.1670 C   0  0  1  0  0  0  0  0  0  0  0  0
    0.5950   13.8980   -0.1840 C   0  0  0  0  0  0  0  0  0  0  0  0
    2.3420   15.2060   -1.5700 C   0  0  2  0  0  0  0  0  0  0  0  0
    2.7910   16.0920   -0.3950 C   0  0  0  0  0  0  0  0  0  0  0  0
    1.7310   16.9710    0.1820 C   0  0  0  0  0  0  0  0  0  0  0  0
    0.5520   17.2590   -0.3990 C   0  0  0  0  0  0  0  0  0  0  0  0
    0.2260   16.7570   -1.8120 C   0  0  1  0  0  0  0  0  0  0  0  0
   -0.3670   17.9190   -2.6510 C   0  0  0  0  0  0  0  0  0  0  0  0
   -1.5670   18.5760   -1.9740 C   0  0  0  0  0  0  0  0  0  0  0  0
   -1.1890   19.1140   -0.5970 C   0  0  2  0  0  0  0  0  0  0  0  0
   -0.2640   20.1940   -0.7620 O   0  0  0  0  0  0  0  0  0  0  0  0
   -0.5700   18.0340    0.3340 C   0  0  0  0  0  0  0  0  0  0  0  0
   -1.6640   17.0220    0.7560 C   0  0  0  0  0  0  0  0  0  0  0  0
   -0.1040   18.7380    1.6380 C   0  0  0  0  0  0  0  0  0  0  0  0
    1.4020   15.9980   -2.5660 C   0  0  1  0  0  0  0  0  0  0  0  0
    2.3080   17.0270   -3.3100 C   0  0  0  0  0  0  0  0  0  0  0  0
    0.7850   15.0670   -3.6750 C   0  0  0  0  0  0  0  0  0  0  0  0
    0.3820   13.6440   -3.2420 C   0  0  0  0  0  0  0  0  0  0  0  0
    1.5180   12.9640   -2.4710 C   0  0  2  0  0  0  0  0  0  0  0  0
    2.7400   12.8260   -3.4410 C   0  0  0  0  0  0  0  0  0  0  0  0
   -0.0033    9.3468   -1.3753 H   0  0  0  0  0  0  0  0  0  0  0  0
   -0.8691    9.7887   -2.8859 H   0  0  0  0  0  0  0  0  0  0  0  0
    0.2968    8.4222   -2.8859 H   0  0  0  0  0  0  0  0  0  0  0  0
    1.0245   10.7348   -3.8613 H   0  0  0  0  0  0  0  0  0  0  0  0
    3.0336    9.8177   -1.8288 H   0  0  0  0  0  0  0  0  0  0  0  0
    2.4212    8.6352   -3.0818 H   0  0  0  0  0  0  0  0  0  0  0  0
    3.6484    9.5397   -4.6982 H   0  0  0  0  0  0  0  0  0  0  0  0
    3.1766   11.2215   -4.2132 H   0  0  0  0  0  0  0  0  0  0  0  0
    4.7274    9.7514   -2.4783 H   0  0  0  0  0  0  0  0  0  0  0  0
    5.3423   11.5767   -5.9093 H   0  0  0  0  0  0  0  0  0  0  0  0
    7.0751   11.1141   -6.0107 H   0  0  0  0  0  0  0  0  0  0  0  0
    5.8049    9.8439   -6.0107 H   0  0  0  0  0  0  0  0  0  0  0  0
    7.4333   10.4960   -2.4265 H   0  0  0  0  0  0  0  0  0  0  0  0
    7.8552    9.4918   -3.8549 H   0  0  0  0  0  0  0  0  0  0  0  0
    8.2186   11.2509   -3.8549 H   0  0  0  0  0  0  0  0  0  0  0  0
    0.1714   11.5243   -1.5277 H   0  0  0  0  0  0  0  0  0  0  0  0
    1.8333   10.9917    0.1446 H   0  0  0  0  0  0  0  0  0  0  0  0
    3.1020   10.7629   -1.0781 H   0  0  0  0  0  0  0  0  0  0  0  0
    2.8245   13.0439    0.6214 H   0  0  0  0  0  0  0  0  0  0  0  0
    3.8391   13.0027   -0.8180 H   0  0  0  0  0  0  0  0  0  0  0  0
    0.9620   13.8664    0.8525 H   0  0  0  0  0  0  0  0  0  0  0  0
    0.0629   14.8453   -0.3559 H   0  0  0  0  0  0  0  0  0  0  0  0
   -0.0912   13.0556   -0.3559 H   0  0  0  0  0  0  0  0  0  0  0  0
    3.2590   14.9597   -2.1253 H   0  0  0  0  0  0  0  0  0  0  0  0
    3.1598   15.4338    0.4055 H   0  0  0  0  0  0  0  0  0  0  0  0
    3.5596   16.7671   -0.7992 H   0  0  0  0  0  0  0  0  0  0  0  0
    1.9308   17.4214    1.1655 H   0  0  0  0  0  0  0  0  0  0  0  0
   -0.5273   15.9652   -1.6872 H   0  0  0  0  0  0  0  0  0  0  0  0
    0.4133   18.6796   -2.8012 H   0  0  0  0  0  0  0  0  0  0  0  0
   -0.7116   17.4986   -3.6073 H   0  0  0  0  0  0  0  0  0  0  0  0
   -1.9230   19.4074   -2.6001 H   0  0  0  0  0  0  0  0  0  0  0  0
   -2.3577   17.8212   -1.8512 H   0  0  0  0  0  0  0  0  0  0  0  0
   -2.1149   19.4544   -0.1103 H   0  0  0  0  0  0  0  0  0  0  0  0
    0.6120   19.8760   -0.4840 H   0  0  0  0  0  0  0  0  0  0  0  0
   -1.7156   16.9743    1.8538 H   0  0  0  0  0  0  0  0  0  0  0  0
   -2.6366   17.3458    0.3570 H   0  0  0  0  0  0  0  0  0  0  0  0
   -1.4168   16.0272    0.3570 H   0  0  0  0  0  0  0  0  0  0  0  0
   -0.4745   18.1782    2.5094 H   0  0  0  0  0  0  0  0  0  0  0  0
    0.9952   18.7714    1.6640 H   0  0  0  0  0  0  0  0  0  0  0  0
   -0.5027   19.7629    1.6640 H   0  0  0  0  0  0  0  0  0  0  0  0
    2.8478   17.6401   -2.5734 H   0  0  0  0  0  0  0  0  0  0  0  0
    3.0316   16.4897   -3.9406 H   0  0  0  0  0  0  0  0  0  0  0  0
    1.6834   17.6768   -3.9406 H   0  0  0  0  0  0  0  0  0  0  0  0
   -0.1159   15.5643   -4.0636 H   0  0  0  0  0  0  0  0  0  0  0  0
    1.5886   14.9267   -4.4129 H   0  0  0  0  0  0  0  0  0  0  0  0
   -0.5068   13.7023   -2.5965 H   0  0  0  0  0  0  0  0  0  0  0  0
    0.1649   13.0511   -4.1428 H   0  0  0  0  0  0  0  0  0  0  0  0
    3.6643   12.7216   -2.8538 H   0  0  0  0  0  0  0  0  0  0  0  0
    2.6062   11.9373   -4.0752 H   0  0  0  0  0  0  0  0  0  0  0  0
    2.8078   13.7222   -4.0752 H   0  0  0  0  0  0  0  0  0  0  0  0
  1  2  1  0
  2  3  1  0
  3  4  1  0
  4  5  1  0
  5  6  1  0
  6  7  1  0
  7  8  1  0
  7  9  1  0
  2 10  1  0
 10 11  1  0
 11 12  1  0
 12 13  1  0
 13 14  1  1
 13 15  1  0
 15 16  1  0
 16 17  1  0
 17 18  2  0
 18 19  1  0
 19 20  1  0
 20 21  1  0
 21 22  1  0
 22 23  1  0
 22 24  1  0
 24 25  1  0
 24 26  1  0
 19 27  1  0
 27 28  1  6
 27 29  1  0
 29 30  1  0
 30 31  1  0
 31 32  1  6
  7  5  1  0
 31 10  1  0
 31 13  1  0
 27 15  1  0
 24 18  1  0
  1 33  1  0
  1 34  1  0
  1 35  1  0
  2 36  1  6
  3 37  1  0
  3 38  1  0
  4 39  1  0
  4 40  1  0
  5 41  1  1
  8 42  1  0
  8 43  1  0
  8 44  1  0
  9 45  1  0
  9 46  1  0
  9 47  1  0
 10 48  1  1
 11 49  1  0
 11 50  1  0
 12 51  1  0
 12 52  1  0
 14 53  1  0
 14 54  1  0
 14 55  1  0
 15 56  1  6
 16 57  1  0
 16 58  1  0
 17 59  1  0
 19 60  1  1
 20 61  1  0
 20 62  1  0
 21 63  1  0
 21 64  1  0
 22 65  1  1
 23 66  1  0
 25 67  1  0
 25 68  1  0
 25 69  1  0
 26 70  1  0
 26 71  1  0
 26 72  1  0
 28 73  1  0
 28 74  1  0
 28 75  1  0
 29 76  1  0
 29 77  1  0
 30 78  1  0
 30 79  1  0
 32 80  1  0
 32 81  1  0
 32 82  1  0
M  END
>  <meeko>  (10) 
{"is_sidechain": [false], "intermolecular_energy": 2.731, "internal_energy": -0.839}

$$$$
EPH_relaxed_0001_pdb2pqr_Repair_395_r2_0001_out
     RDKit          3D

 82 86  0  0  0  0  0  0  0  0999 V2000
    4.6310   15.8150    0.1720 C   0  0  0  0  0  0  0  0  0  0  0  0
    3.4570   16.3680   -0.6410 C   0  0  2  0  0  0  0  0  0  0  0  0
    3.1340   17.8300   -0.2740 C   0  0  0  0  0  0  0  0  0  0  0  0
    2.7910   18.7070   -1.4810 C   0  0  0  0  0  0  0  0  0  0  0  0
    1.3120   18.7870   -1.7070 C   0  0  2  0  0  0  0  0  0  0  0  0
    0.8200   20.1020   -1.9930 O   0  0  0  0  0  0  0  0  0  0  0  0
    0.3600   19.5060   -0.7690 C   0  0  0  0  0  0  0  0  0  0  0  0
    0.8530   20.1940    0.4650 C   0  0  0  0  0  0  0  0  0  0  0  0
   -1.0880   19.1270   -0.7900 C   0  0  0  0  0  0  0  0  0  0  0  0
    2.2250   15.4940   -0.4350 C   0  0  1  0  0  0  0  0  0  0  0  0
    0.9350   16.3250   -0.2040 C   0  0  0  0  0  0  0  0  0  0  0  0
   -0.2260   15.5420   -0.8680 C   0  0  0  0  0  0  0  0  0  0  0  0
    0.3650   14.1440   -1.1650 C   0  0  1  0  0  0  0  0  0  0  0  0
    0.2760   13.3750    0.1910 C   0  0  0  0  0  0  0  0  0  0  0  0
   -0.3050   13.3430   -2.3280 C   0  0  2  0  0  0  0  0  0  0  0  0
   -1.7860   12.9890   -2.1080 C   0  0  0  0  0  0  0  0  0  0  0  0
   -2.0350   11.6780   -1.4380 C   0  0  0  0  0  0  0  0  0  0  0  0
   -1.1300   10.6930   -1.2850 C   0  0  0  0  0  0  0  0  0  0  0  0
    0.2700   10.8080   -1.9000 C   0  0  1  0  0  0  0  0  0  0  0  0
    0.6300    9.4820   -2.6200 C   0  0  0  0  0  0  0  0  0  0  0  0
    0.4910    8.2660   -1.7090 C   0  0  0  0  0  0  0  0  0  0  0  0
   -0.9300    8.1530   -1.1640 C   0  0  2  0  0  0  0  0  0  0  0  0
   -1.8180    7.8630   -2.2480 O   0  0  0  0  0  0  0  0  0  0  0  0
   -1.4070    9.4350   -0.4260 C   0  0  0  0  0  0  0  0  0  0  0  0
   -0.6400    9.5810    0.9120 C   0  0  0  0  0  0  0  0  0  0  0  0
   -2.9010    9.2420   -0.0500 C   0  0  0  0  0  0  0  0  0  0  0  0
    0.5250   12.0850   -2.8110 C   0  0  1  0  0  0  0  0  0  0  0  0
    0.0760   11.7920   -4.2760 C   0  0  0  0  0  0  0  0  0  0  0  0
    2.0710   12.3750   -2.8700 C   0  0  0  0  0  0  0  0  0  0  0  0
    2.6520   13.2710   -1.7590 C   0  0  0  0  0  0  0  0  0  0  0  0
    1.8220   14.5480   -1.5940 C   0  0  2  0  0  0  0  0  0  0  0  0
    1.9120   15.3540   -2.9350 C   0  0  0  0  0  0  0  0  0  0  0  0
    4.4140   15.9172    1.2455 H   0  0  0  0  0  0  0  0  0  0  0  0
    4.7784   14.7528   -0.0728 H   0  0  0  0  0  0  0  0  0  0  0  0
    5.5439   16.3778   -0.0728 H   0  0  0  0  0  0  0  0  0  0  0  0
    3.7512   16.3516   -1.7008 H   0  0  0  0  0  0  0  0  0  0  0  0
    2.2750   17.8337    0.4131 H   0  0  0  0  0  0  0  0  0  0  0  0
    4.0400   18.2538    0.1837 H   0  0  0  0  0  0  0  0  0  0  0  0
    3.1801   19.7210   -1.3067 H   0  0  0  0  0  0  0  0  0  0  0  0
    3.2498   18.2560   -2.3733 H   0  0  0  0  0  0  0  0  0  0  0  0
    1.2996   17.7749   -2.1376 H   0  0  0  0  0  0  0  0  0  0  0  0
    0.4756   19.6674    1.3540 H   0  0  0  0  0  0  0  0  0  0  0  0
    1.9529   20.1870    0.4741 H   0  0  0  0  0  0  0  0  0  0  0  0
    0.4928   21.2333    0.4741 H   0  0  0  0  0  0  0  0  0  0  0  0
   -1.4568   19.0305    0.2418 H   0  0  0  0  0  0  0  0  0  0  0  0
   -1.6631   19.9049   -1.3136 H   0  0  0  0  0  0  0  0  0  0  0  0
   -1.2082   18.1671   -1.3136 H   0  0  0  0  0  0  0  0  0  0  0  0
    2.5595   14.9056    0.4321 H   0  0  0  0  0  0  0  0  0  0  0  0
    0.7466   16.4404    0.8736 H   0  0  0  0  0  0  0  0  0  0  0  0
    1.0309   17.3317   -0.6368 H   0  0  0  0  0  0  0  0  0  0  0  0
   -1.0831   15.4636   -0.1830 H   0  0  0  0  0  0  0  0  0  0  0  0
   -0.5982   16.0388   -1.7761 H   0  0  0  0  0  0  0  0  0  0  0  0
    0.3586   14.0891    1.0236 H   0  0  0  0  0  0  0  0  0  0  0  0
   -0.6889   12.8503    0.2523 H   0  0  0  0  0  0  0  0  0  0  0  0
    1.0955   12.6438    0.2523 H   0  0  0  0  0  0  0  0  0  0  0  0
   -0.2915   14.0700   -3.1534 H   0  0  0  0  0  0  0  0  0  0  0  0
   -2.2359   13.7785   -1.4881 H   0  0  0  0  0  0  0  0  0  0  0  0
   -2.2321   12.9085   -3.1103 H   0  0  0  0  0  0  0  0  0  0  0  0
   -3.0434   11.5021   -1.0353 H   0  0  0  0  0  0  0  0  0  0  0  0
    0.9583   10.9750   -1.0584 H   0  0  0  0  0  0  0  0  0  0  0  0
   -0.0412    9.3553   -3.4823 H   0  0  0  0  0  0  0  0  0  0  0  0
    1.6826    9.5467   -2.9328 H   0  0  0  0  0  0  0  0  0  0  0  0
    0.7303    7.3578   -2.2817 H   0  0  0  0  0  0  0  0  0  0  0  0
    1.1839    8.3803   -0.8624 H   0  0  0  0  0  0  0  0  0  0  0  0
   -0.9343    7.3431   -0.4197 H   0  0  0  0  0  0  0  0  0  0  0  0
   -2.2810    7.0350   -2.0350 H   0  0  0  0  0  0  0  0  0  0  0  0
   -1.3384    9.4481    1.7514 H   0  0  0  0  0  0  0  0  0  0  0  0
    0.1495    8.8170    0.9673 H   0  0  0  0  0  0  0  0  0  0  0  0
   -0.1864   10.5816    0.9673 H   0  0  0  0  0  0  0  0  0  0  0  0
   -3.0047    9.2286    1.0450 H   0  0  0  0  0  0  0  0  0  0  0  0
   -3.4934   10.0711   -0.4643 H   0  0  0  0  0  0  0  0  0  0  0  0
   -3.2633    8.2896   -0.4643 H   0  0  0  0  0  0  0  0  0  0  0  0
   -0.8452   11.1909   -4.2639 H   0  0  0  0  0  0  0  0  0  0  0  0
   -0.1126   12.7414   -4.7985 H   0  0  0  0  0  0  0  0  0  0  0  0
    0.8691   11.2371   -4.7985 H   0  0  0  0  0  0  0  0  0  0  0  0
    2.5931   11.4079   -2.8248 H   0  0  0  0  0  0  0  0  0  0  0  0
    2.2233   12.9375   -3.8030 H   0  0  0  0  0  0  0  0  0  0  0  0
    2.6491   12.7149   -0.8099 H   0  0  0  0  0  0  0  0  0  0  0  0
    3.6782   13.5532   -2.0369 H   0  0  0  0  0  0  0  0  0  0  0  0
    2.0315   16.4245   -2.7121 H   0  0  0  0  0  0  0  0  0  0  0  0
    2.7764   15.0019   -3.5171 H   0  0  0  0  0  0  0  0  0  0  0  0
    0.9912   15.2013   -3.5171 H   0  0  0  0  0  0  0  0  0  0  0  0
  1  2  1  0
  2  3  1  0
  3  4  1  0
  4  5  1  0
  5  6  1  0
  6  7  1  0
  7  8  1  0
  7  9  1  0
  2 10  1  0
 10 11  1  0
 11 12  1  0
 12 13  1  0
 13 14  1  1
 13 15  1  0
 15 16  1  0
 16 17  1  0
 17 18  2  0
 18 19  1  0
 19 20  1  0
 20 21  1  0
 21 22  1  0
 22 23  1  0
 22 24  1  0
 24 25  1  0
 24 26  1  0
 19 27  1  0
 27 28  1  6
 27 29  1  0
 29 30  1  0
 30 31  1  0
 31 32  1  6
  7  5  1  0
 31 10  1  0
 31 13  1  0
 27 15  1  0
 24 18  1  0
  1 33  1  0
  1 34  1  0
  1 35  1  0
  2 36  1  6
  3 37  1  0
  3 38  1  0
  4 39  1  0
  4 40  1  0
  5 41  1  6
  8 42  1  0
  8 43  1  0
  8 44  1  0
  9 45  1  0
  9 46  1  0
  9 47  1  0
 10 48  1  1
 11 49  1  0
 11 50  1  0
 12 51  1  0
 12 52  1  0
 14 53  1  0
 14 54  1  0
 14 55  1  0
 15 56  1  6
 16 57  1  0
 16 58  1  0
 17 59  1  0
 19 60  1  1
 20 61  1  0
 20 62  1  0
 21 63  1  0
 21 64  1  0
 22 65  1  1
 23 66  1  0
 25 67  1  0
 25 68  1  0
 25 69  1  0
 26 70  1  0
 26 71  1  0
 26 72  1  0
 28 73  1  0
 28 74  1  0
 28 75  1  0
 29 76  1  0
 29 77  1  0
 30 78  1  0
 30 79  1  0
 32 80  1  0
 32 81  1  0
 32 82  1  0
M  END
>  <meeko>  (11) 
{"is_sidechain": [false], "intermolecular_energy": 2.731, "internal_energy": -0.839}

$$$$
EPH_relaxed_0001_pdb2pqr_Repair_395_r2_0001_out
     RDKit          3D

 82 86  0  0  0  0  0  0  0  0999 V2000
   -5.2060    6.5140   -0.4850 C   0  0  0  0  0  0  0  0  0  0  0  0
   -5.2670    7.7350   -1.4070 C   0  0  2  0  0  0  0  0  0  0  0  0
   -4.8320    9.0280   -0.6890 C   0  0  0  0  0  0  0  0  0  0  0  0
   -3.4420    8.9410   -0.0530 C   0  0  0  0  0  0  0  0  0  0  0  0
   -2.3550    9.0620   -1.0780 C   0  0  2  0  0  0  0  0  0  0  0  0
   -1.1490    8.3570   -0.7560 O   0  0  0  0  0  0  0  0  0  0  0  0
   -1.0470    9.7890   -0.8280 C   0  0  0  0  0  0  0  0  0  0  0  0
   -0.7570   10.4440    0.4860 C   0  0  0  0  0  0  0  0  0  0  0  0
   -0.2650   10.2790   -2.0060 C   0  0  0  0  0  0  0  0  0  0  0  0
   -6.6770    7.8970   -1.9630 C   0  0  1  0  0  0  0  0  0  0  0  0
   -6.8440    7.2550   -3.3660 C   0  0  0  0  0  0  0  0  0  0  0  0
   -8.2860    6.6890   -3.4310 C   0  0  0  0  0  0  0  0  0  0  0  0
   -9.0030    7.3080   -2.2090 C   0  0  1  0  0  0  0  0  0  0  0  0
   -9.4100    8.7440   -2.6670 C   0  0  0  0  0  0  0  0  0  0  0  0
  -10.2260    6.5120   -1.6490 C   0  0  2  0  0  0  0  0  0  0  0  0
  -11.4050    6.3550   -2.6260 C   0  0  0  0  0  0  0  0  0  0  0  0
  -12.4350    7.4340   -2.5600 C   0  0  0  0  0  0  0  0  0  0  0  0
  -12.5670    8.3300   -1.5640 C   0  0  0  0  0  0  0  0  0  0  0  0
  -11.6840    8.2510   -0.3120 C   0  0  1  0  0  0  0  0  0  0  0  0
  -12.5670    8.4130    0.9540 C   0  0  0  0  0  0  0  0  0  0  0  0
  -13.4150    9.6810    0.9170 C   0  0  0  0  0  0  0  0  0  0  0  0
  -14.3200    9.6950   -0.3120 C   0  0  2  0  0  0  0  0  0  0  0  0
  -15.2870    8.6480   -0.1840 O   0  0  0  0  0  0  0  0  0  0  0  0
  -13.5430    9.5290   -1.6480 C   0  0  0  0  0  0  0  0  0  0  0  0
  -12.7190   10.8090   -1.9330 C   0  0  0  0  0  0  0  0  0  0  0  0
  -14.5830    9.4190   -2.7950 C   0  0  0  0  0  0  0  0  0  0  0  0
  -10.7170    6.9930   -0.2240 C   0  0  1  0  0  0  0  0  0  0  0  0
  -11.4680    5.7880    0.4200 C   0  0  0  0  0  0  0  0  0  0  0  0
   -9.5170    7.3340    0.7380 C   0  0  0  0  0  0  0  0  0  0  0  0
   -8.2880    8.0130    0.1030 C   0  0  0  0  0  0  0  0  0  0  0  0
   -7.8370    7.2630   -1.1550 C   0  0  2  0  0  0  0  0  0  0  0  0
   -7.4000    5.8220   -0.7220 C   0  0  0  0  0  0  0  0  0  0  0  0
   -5.2226    6.8453    0.5638 H   0  0  0  0  0  0  0  0  0  0  0  0
   -6.0728    5.8650   -0.6782 H   0  0  0  0  0  0  0  0  0  0  0  0
   -4.2788    5.9546   -0.6782 H   0  0  0  0  0  0  0  0  0  0  0  0
   -4.5598    7.5619   -2.2316 H   0  0  0  0  0  0  0  0  0  0  0  0
   -4.8276    9.8478   -1.4224 H   0  0  0  0  0  0  0  0  0  0  0  0
   -5.5490    9.1991    0.1275 H   0  0  0  0  0  0  0  0  0  0  0  0
   -3.3335    9.7545    0.6794 H   0  0  0  0  0  0  0  0  0  0  0  0
   -3.3478    7.9584    0.4325 H   0  0  0  0  0  0  0  0  0  0  0  0
   -3.0945    9.1326   -1.8893 H   0  0  0  0  0  0  0  0  0  0  0  0
   -1.0546    9.7719    1.3043 H   0  0  0  0  0  0  0  0  0  0  0  0
    0.3196   10.6572    0.5597 H   0  0  0  0  0  0  0  0  0  0  0  0
   -1.3229   11.3844    0.5597 H   0  0  0  0  0  0  0  0  0  0  0  0
    0.6184   10.8326   -1.6551 H   0  0  0  0  0  0  0  0  0  0  0  0
    0.0576    9.4212   -2.6144 H   0  0  0  0  0  0  0  0  0  0  0  0
   -0.8962   10.9434   -2.6144 H   0  0  0  0  0  0  0  0  0  0  0  0
   -6.7581    8.9938   -1.9420 H   0  0  0  0  0  0  0  0  0  0  0  0
   -6.6993    8.0137   -4.1492 H   0  0  0  0  0  0  0  0  0  0  0  0
   -6.1005    6.4605   -3.5275 H   0  0  0  0  0  0  0  0  0  0  0  0
   -8.7803    6.9918   -4.3658 H   0  0  0  0  0  0  0  0  0  0  0  0
   -8.3039    5.5893   -3.4124 H   0  0  0  0  0  0  0  0  0  0  0  0
   -9.5885    9.3740   -1.7831 H   0  0  0  0  0  0  0  0  0  0  0  0
   -8.6000    9.1798   -3.2703 H   0  0  0  0  0  0  0  0  0  0  0  0
  -10.3282    8.6900   -3.2703 H   0  0  0  0  0  0  0  0  0  0  0  0
   -9.8090    5.5026   -1.5180 H   0  0  0  0  0  0  0  0  0  0  0  0
  -10.9991    6.3344   -3.6482 H   0  0  0  0  0  0  0  0  0  0  0  0
  -11.9182    5.4258   -2.3374 H   0  0  0  0  0  0  0  0  0  0  0  0
  -13.1463    7.5026   -3.3962 H   0  0  0  0  0  0  0  0  0  0  0  0
  -10.9765    9.0901   -0.3846 H   0  0  0  0  0  0  0  0  0  0  0  0
  -13.2361    7.5433    1.0310 H   0  0  0  0  0  0  0  0  0  0  0  0
  -11.8958    8.4852    1.8225 H   0  0  0  0  0  0  0  0  0  0  0  0
  -14.0372    9.7247    1.8230 H   0  0  0  0  0  0  0  0  0  0  0  0
  -12.7441   10.5514    0.8695 H   0  0  0  0  0  0  0  0  0  0  0  0
  -14.8053   10.6813   -0.3529 H   0  0  0  0  0  0  0  0  0  0  0  0
  -15.5860    8.6350    0.7410 H   0  0  0  0  0  0  0  0  0  0  0  0
  -12.4206   11.2725   -0.9811 H   0  0  0  0  0  0  0  0  0  0  0  0
  -11.8204   10.5457   -2.5102 H   0  0  0  0  0  0  0  0  0  0  0  0
  -13.3308   11.5180   -2.5102 H   0  0  0  0  0  0  0  0  0  0  0  0
  -15.5908    9.3124   -2.3672 H   0  0  0  0  0  0  0  0  0  0  0  0
  -14.5421   10.3265   -3.4153 H   0  0  0  0  0  0  0  0  0  0  0  0
  -14.3531    8.5402   -3.4153 H   0  0  0  0  0  0  0  0  0  0  0  0
  -11.4180    5.8682    1.5159 H   0  0  0  0  0  0  0  0  0  0  0  0
  -12.5201    5.7979    0.0992 H   0  0  0  0  0  0  0  0  0  0  0  0
  -10.9957    4.8478    0.0992 H   0  0  0  0  0  0  0  0  0  0  0  0
   -9.8993    8.0042    1.5221 H   0  0  0  0  0  0  0  0  0  0  0  0
   -9.1531    6.3611    1.0998 H   0  0  0  0  0  0  0  0  0  0  0  0
   -8.5479    9.0469   -0.1680 H   0  0  0  0  0  0  0  0  0  0  0  0
   -7.4647    8.0020    0.8325 H   0  0  0  0  0  0  0  0  0  0  0  0
   -7.3809    5.7591    0.3760 H   0  0  0  0  0  0  0  0  0  0  0  0
   -8.1156    5.0870   -1.1190 H   0  0  0  0  0  0  0  0  0  0  0  0
   -6.3967    5.6083   -1.1190 H   0  0  0  0  0  0  0  0  0  0  0  0
  1  2  1  0
  2  3  1  0
  3  4  1  0
  4  5  1  0
  5  6  1  0
  6  7  1  0
  7  8  1  0
  7  9  1  0
  2 10  1  0
 10 11  1  0
 11 12  1  0
 12 13  1  0
 13 14  1  6
 13 15  1  0
 15 16  1  0
 16 17  1  0
 17 18  2  0
 18 19  1  0
 19 20  1  0
 20 21  1  0
 21 22  1  0
 22 23  1  0
 22 24  1  0
 24 25  1  0
 24 26  1  0
 19 27  1  0
 27 28  1  1
 27 29  1  0
 29 30  1  0
 30 31  1  0
 31 32  1  1
  7  5  1  0
 31 10  1  0
 31 13  1  0
 27 15  1  0
 24 18  1  0
  1 33  1  0
  1 34  1  0
  1 35  1  0
  2 36  1  6
  3 37  1  0
  3 38  1  0
  4 39  1  0
  4 40  1  0
  5 41  1  6
  8 42  1  0
  8 43  1  0
  8 44  1  0
  9 45  1  0
  9 46  1  0
  9 47  1  0
 10 48  1  6
 11 49  1  0
 11 50  1  0
 12 51  1  0
 12 52  1  0
 14 53  1  0
 14 54  1  0
 14 55  1  0
 15 56  1  1
 16 57  1  0
 16 58  1  0
 17 59  1  0
 19 60  1  6
 20 61  1  0
 20 62  1  0
 21 63  1  0
 21 64  1  0
 22 65  1  6
 23 66  1  0
 25 67  1  0
 25 68  1  0
 25 69  1  0
 26 70  1  0
 26 71  1  0
 26 72  1  0
 28 73  1  0
 28 74  1  0
 28 75  1  0
 29 76  1  0
 29 77  1  0
 30 78  1  0
 30 79  1  0
 32 80  1  0
 32 81  1  0
 32 82  1  0
M  END
>  <meeko>  (12) 
{"is_sidechain": [false], "intermolecular_energy": 2.731, "internal_energy": -0.839}

$$$$
EPH_relaxed_0001_pdb2pqr_Repair_395_r2_0001_out
     RDKit          3D

 82 86  0  0  0  0  0  0  0  0999 V2000
   -4.7790    7.1170    0.5560 C   0  0  0  0  0  0  0  0  0  0  0  0
   -4.7470    8.3090   -0.4050 C   0  0  2  0  0  0  0  0  0  0  0  0
   -3.7090    9.3680    0.0170 C   0  0  0  0  0  0  0  0  0  0  0  0
   -2.3110    9.1230   -0.5580 C   0  0  0  0  0  0  0  0  0  0  0  0
   -1.6880   10.3900   -1.0610 C   0  0  2  0  0  0  0  0  0  0  0  0
   -0.4910   10.2060   -1.8280 O   0  0  0  0  0  0  0  0  0  0  0  0
   -0.3450   10.9090   -0.5830 C   0  0  0  0  0  0  0  0  0  0  0  0
    0.4570   10.1700    0.4420 C   0  0  0  0  0  0  0  0  0  0  0  0
   -0.0410   12.3660   -0.7460 C   0  0  0  0  0  0  0  0  0  0  0  0
   -6.1300    8.9420   -0.4940 C   0  0  1  0  0  0  0  0  0  0  0  0
   -6.1010   10.3540   -1.1370 C   0  0  0  0  0  0  0  0  0  0  0  0
   -7.4110   10.5010   -1.9530 C   0  0  0  0  0  0  0  0  0  0  0  0
   -8.2940    9.3190   -1.4890 C   0  0  1  0  0  0  0  0  0  0  0  0
   -8.9290    9.7950   -0.1450 C   0  0  0  0  0  0  0  0  0  0  0  0
   -9.3820    8.8310   -2.5010 C   0  0  2  0  0  0  0  0  0  0  0  0
  -10.4580    9.8720   -2.8550 C   0  0  0  0  0  0  0  0  0  0  0  0
  -11.6680    9.8610   -1.9800 C   0  0  0  0  0  0  0  0  0  0  0  0
  -12.0140    8.8720   -1.1350 C   0  0  0  0  0  0  0  0  0  0  0  0
  -11.2020    7.5720   -1.0700 C   0  0  1  0  0  0  0  0  0  0  0  0
  -12.1660    6.3570   -1.0860 C   0  0  0  0  0  0  0  0  0  0  0  0
  -13.2270    6.4380    0.0080 C   0  0  0  0  0  0  0  0  0  0  0  0
  -14.0510    7.7160   -0.1250 C   0  0  2  0  0  0  0  0  0  0  0  0
  -14.8190    7.6450   -1.3310 O   0  0  0  0  0  0  0  0  0  0  0  0
  -13.1850    9.0060   -0.1320 C   0  0  0  0  0  0  0  0  0  0  0  0
  -12.5920    9.2420    1.2790 C   0  0  0  0  0  0  0  0  0  0  0  0
  -14.1240   10.2100   -0.4140 C   0  0  0  0  0  0  0  0  0  0  0  0
  -10.0280    7.4340   -2.1330 C   0  0  1  0  0  0  0  0  0  0  0  0
  -10.5830    6.8360   -3.4630 C   0  0  0  0  0  0  0  0  0  0  0  0
   -8.9650    6.4060   -1.5940 C   0  0  0  0  0  0  0  0  0  0  0  0
   -7.8460    6.9690   -0.6970 C   0  0  0  0  0  0  0  0  0  0  0  0
   -7.1990    8.2010   -1.3360 C   0  0  2  0  0  0  0  0  0  0  0  0
   -6.5320    7.7480   -2.6800 C   0  0  0  0  0  0  0  0  0  0  0  0
   -4.7692    7.4822    1.5936 H   0  0  0  0  0  0  0  0  0  0  0  0
   -5.6932    6.5304    0.3823 H   0  0  0  0  0  0  0  0  0  0  0  0
   -3.8976    6.4822    0.3823 H   0  0  0  0  0  0  0  0  0  0  0  0
   -4.4476    7.9292   -1.3930 H   0  0  0  0  0  0  0  0  0  0  0  0
   -4.0582   10.3528   -0.3267 H   0  0  0  0  0  0  0  0  0  0  0  0
   -3.6204    9.3128    1.1120 H   0  0  0  0  0  0  0  0  0  0  0  0
   -1.6708    8.6994    0.2299 H   0  0  0  0  0  0  0  0  0  0  0  0
   -2.4060    8.4280   -1.4053 H   0  0  0  0  0  0  0  0  0  0  0  0
   -2.6749   10.8678   -1.1485 H   0  0  0  0  0  0  0  0  0  0  0  0
    0.1312   10.4703    1.4488 H   0  0  0  0  0  0  0  0  0  0  0  0
    0.3060    9.0878    0.3153 H   0  0  0  0  0  0  0  0  0  0  0  0
    1.5233   10.4088    0.3153 H   0  0  0  0  0  0  0  0  0  0  0  0
    0.0565   12.8333    0.2450 H   0  0  0  0  0  0  0  0  0  0  0  0
    0.9011   12.4841   -1.3014 H   0  0  0  0  0  0  0  0  0  0  0  0
   -0.8573   12.8510   -1.3014 H   0  0  0  0  0  0  0  0  0  0  0  0
   -6.4097    8.9228    0.5697 H   0  0  0  0  0  0  0  0  0  0  0  0
   -6.0536   11.1256   -0.3545 H   0  0  0  0  0  0  0  0  0  0  0  0
   -5.2183   10.4762   -1.7818 H   0  0  0  0  0  0  0  0  0  0  0  0
   -7.9002   11.4612   -1.7325 H   0  0  0  0  0  0  0  0  0  0  0  0
   -7.2306   10.4863   -3.0380 H   0  0  0  0  0  0  0  0  0  0  0  0
   -8.3636    9.3712    0.6980 H   0  0  0  0  0  0  0  0  0  0  0  0
   -8.8967   10.8933   -0.0929 H   0  0  0  0  0  0  0  0  0  0  0  0
   -9.9742    9.4560   -0.0929 H   0  0  0  0  0  0  0  0  0  0  0  0
   -8.7983    8.6809   -3.4212 H   0  0  0  0  0  0  0  0  0  0  0  0
  -10.0001   10.8700   -2.7894 H   0  0  0  0  0  0  0  0  0  0  0  0
  -10.8102    9.6146   -3.8648 H   0  0  0  0  0  0  0  0  0  0  0  0
  -12.3332   10.7356   -2.0303 H   0  0  0  0  0  0  0  0  0  0  0  0
  -10.6563    7.6021   -0.1154 H   0  0  0  0  0  0  0  0  0  0  0  0
  -12.6693    6.3189   -2.0634 H   0  0  0  0  0  0  0  0  0  0  0  0
  -11.5668    5.4527   -0.9040 H   0  0  0  0  0  0  0  0  0  0  0  0
  -13.8956    5.5684   -0.0738 H   0  0  0  0  0  0  0  0  0  0  0  0
  -12.7233    6.4451    0.9859 H   0  0  0  0  0  0  0  0  0  0  0  0
  -14.7030    7.7818    0.7585 H   0  0  0  0  0  0  0  0  0  0  0  0
  -14.2070    7.7680   -2.0770 H   0  0  0  0  0  0  0  0  0  0  0  0
  -13.3295    8.9485    2.0405 H   0  0  0  0  0  0  0  0  0  0  0  0
  -11.6805    8.6381    1.3994 H   0  0  0  0  0  0  0  0  0  0  0  0
  -12.3447   10.3071    1.3994 H   0  0  0  0  0  0  0  0  0  0  0  0
  -14.4616   10.6428    0.5393 H   0  0  0  0  0  0  0  0  0  0  0  0
  -13.5796   10.9724   -0.9905 H   0  0  0  0  0  0  0  0  0  0  0  0
  -14.9961    9.8677   -0.9905 H   0  0  0  0  0  0  0  0  0  0  0  0
  -11.3148    6.0475   -3.2333 H   0  0  0  0  0  0  0  0  0  0  0  0
  -11.0711    7.6304   -4.0467 H   0  0  0  0  0  0  0  0  0  0  0  0
   -9.7544    6.4085   -4.0467 H   0  0  0  0  0  0  0  0  0  0  0  0
   -9.5045    5.6431   -1.0135 H   0  0  0  0  0  0  0  0  0  0  0  0
   -8.4519    6.0265   -2.4899 H   0  0  0  0  0  0  0  0  0  0  0  0
   -8.2730    7.2510    0.2767 H   0  0  0  0  0  0  0  0  0  0  0  0
   -7.0754    6.1944   -0.5697 H   0  0  0  0  0  0  0  0  0  0  0  0
   -5.6403    7.1424   -2.4609 H   0  0  0  0  0  0  0  0  0  0  0  0
   -7.2484    7.1489   -3.2612 H   0  0  0  0  0  0  0  0  0  0  0  0
   -6.2392    8.6348   -3.2612 H   0  0  0  0  0  0  0  0  0  0  0  0
  1  2  1  0
  2  3  1  0
  3  4  1  0
  4  5  1  0
  5  6  1  0
  6  7  1  0
  7  8  1  0
  7  9  1  0
  2 10  1  0
 10 11  1  0
 11 12  1  0
 12 13  1  0
 13 14  1  1
 13 15  1  0
 15 16  1  0
 16 17  1  0
 17 18  2  0
 18 19  1  0
 19 20  1  0
 20 21  1  0
 21 22  1  0
 22 23  1  0
 22 24  1  0
 24 25  1  0
 24 26  1  0
 19 27  1  0
 27 28  1  6
 27 29  1  0
 29 30  1  0
 30 31  1  0
 31 32  1  6
  7  5  1  0
 31 10  1  0
 31 13  1  0
 27 15  1  0
 24 18  1  0
  1 33  1  0
  1 34  1  0
  1 35  1  0
  2 36  1  6
  3 37  1  0
  3 38  1  0
  4 39  1  0
  4 40  1  0
  5 41  1  6
  8 42  1  0
  8 43  1  0
  8 44  1  0
  9 45  1  0
  9 46  1  0
  9 47  1  0
 10 48  1  1
 11 49  1  0
 11 50  1  0
 12 51  1  0
 12 52  1  0
 14 53  1  0
 14 54  1  0
 14 55  1  0
 15 56  1  6
 16 57  1  0
 16 58  1  0
 17 59  1  0
 19 60  1  1
 20 61  1  0
 20 62  1  0
 21 63  1  0
 21 64  1  0
 22 65  1  1
 23 66  1  0
 25 67  1  0
 25 68  1  0
 25 69  1  0
 26 70  1  0
 26 71  1  0
 26 72  1  0
 28 73  1  0
 28 74  1  0
 28 75  1  0
 29 76  1  0
 29 77  1  0
 30 78  1  0
 30 79  1  0
 32 80  1  0
 32 81  1  0
 32 82  1  0
M  END
>  <meeko>  (13) 
{"is_sidechain": [false], "intermolecular_energy": 2.731, "internal_energy": -0.839}

$$$$
EPH_relaxed_0001_pdb2pqr_Repair_395_r2_0001_out
     RDKit          3D

 82 86  0  0  0  0  0  0  0  0999 V2000
   -1.9220    7.7510   -2.1140 C   0  0  0  0  0  0  0  0  0  0  0  0
   -2.1380    8.4500   -0.7700 C   0  0  2  0  0  0  0  0  0  0  0  0
   -3.6180    8.4370   -0.3390 C   0  0  0  0  0  0  0  0  0  0  0  0
   -4.5920    8.1810   -1.4920 C   0  0  0  0  0  0  0  0  0  0  0  0
   -5.7200    7.2860   -1.0760 C   0  0  2  0  0  0  0  0  0  0  0  0
   -6.4910    6.7510   -2.1600 O   0  0  0  0  0  0  0  0  0  0  0  0
   -7.1830    7.6400   -1.2680 C   0  0  0  0  0  0  0  0  0  0  0  0
   -7.5970    8.9330   -1.8980 C   0  0  0  0  0  0  0  0  0  0  0  0
   -8.2030    6.9590   -0.4090 C   0  0  0  0  0  0  0  0  0  0  0  0
   -1.6290    9.8850   -0.8430 C   0  0  1  0  0  0  0  0  0  0  0  0
   -1.2000   10.4390    0.5420 C   0  0  0  0  0  0  0  0  0  0  0  0
    0.0100   11.3750    0.2940 C   0  0  0  0  0  0  0  0  0  0  0  0
    0.0290   11.5920   -1.2380 C   0  0  1  0  0  0  0  0  0  0  0  0
   -1.0420   12.6970   -1.5000 C   0  0  0  0  0  0  0  0  0  0  0  0
    1.4110   11.9660   -1.8660 C   0  0  2  0  0  0  0  0  0  0  0  0
    2.0100   13.2970   -1.3800 C   0  0  0  0  0  0  0  0  0  0  0  0
    1.6350   14.4970   -2.1860 C   0  0  0  0  0  0  0  0  0  0  0  0
    1.0860   14.4730   -3.4150 C   0  0  0  0  0  0  0  0  0  0  0  0
    0.8770   13.1480   -4.1590 C   0  0  1  0  0  0  0  0  0  0  0  0
    1.3730   13.2930   -5.6220 C   0  0  0  0  0  0  0  0  0  0  0  0
    0.7310   14.4740   -6.3430 C   0  0  0  0  0  0  0  0  0  0  0  0
    1.0090   15.7800   -5.6040 C   0  0  2  0  0  0  0  0  0  0  0  0
    2.4100   16.0630   -5.6790 O   0  0  0  0  0  0  0  0  0  0  0  0
    0.5610   15.7500   -4.1160 C   0  0  0  0  0  0  0  0  0  0  0  0
   -0.9860   15.7470   -4.0390 C   0  0  0  0  0  0  0  0  0  0  0  0
    1.0260   17.0730   -3.4510 C   0  0  0  0  0  0  0  0  0  0  0  0
    1.4570   11.8520   -3.4440 C   0  0  1  0  0  0  0  0  0  0  0  0
    2.9540   11.6550   -3.8330 C   0  0  0  0  0  0  0  0  0  0  0  0
    0.6890   10.5850   -3.9760 C   0  0  0  0  0  0  0  0  0  0  0  0
   -0.6060   10.1970   -3.2380 C   0  0  0  0  0  0  0  0  0  0  0  0
   -0.3830   10.1540   -1.7230 C   0  0  2  0  0  0  0  0  0  0  0  0
    0.6740    9.0350   -1.4270 C   0  0  0  0  0  0  0  0  0  0  0  0
   -1.6013    6.7132   -1.9402 H   0  0  0  0  0  0  0  0  0  0  0  0
   -2.8628    7.7535   -2.6840 H   0  0  0  0  0  0  0  0  0  0  0  0
   -1.1466    8.2838   -2.6840 H   0  0  0  0  0  0  0  0  0  0  0  0
   -1.5693    7.8917   -0.0118 H   0  0  0  0  0  0  0  0  0  0  0  0
   -3.7539    7.6456    0.4128 H   0  0  0  0  0  0  0  0  0  0  0  0
   -3.8460    9.4369    0.0587 H   0  0  0  0  0  0  0  0  0  0  0  0
   -5.0058    9.1427   -1.8294 H   0  0  0  0  0  0  0  0  0  0  0  0
   -4.0403    7.6832   -2.3030 H   0  0  0  0  0  0  0  0  0  0  0  0
   -5.1534    6.9402   -0.1988 H   0  0  0  0  0  0  0  0  0  0  0  0
   -7.8315    9.6655   -1.1116 H   0  0  0  0  0  0  0  0  0  0  0  0
   -6.7765    9.3158   -2.5227 H   0  0  0  0  0  0  0  0  0  0  0  0
   -8.4872    8.7680   -2.5227 H   0  0  0  0  0  0  0  0  0  0  0  0
   -7.9580    7.1226    0.6508 H   0  0  0  0  0  0  0  0  0  0  0  0
   -9.1989    7.3740   -0.6234 H   0  0  0  0  0  0  0  0  0  0  0  0
   -8.2015    5.8801   -0.6234 H   0  0  0  0  0  0  0  0  0  0  0  0
   -2.5123   10.3709   -1.2831 H   0  0  0  0  0  0  0  0  0  0  0  0
   -2.0277   11.0025    0.9975 H   0  0  0  0  0  0  0  0  0  0  0  0
   -0.9332    9.6221    1.2287 H   0  0  0  0  0  0  0  0  0  0  0  0
   -0.1250   12.3316    0.8199 H   0  0  0  0  0  0  0  0  0  0  0  0
    0.9521   10.9459    0.6660 H   0  0  0  0  0  0  0  0  0  0  0  0
   -1.4147   13.0815   -0.5392 H   0  0  0  0  0  0  0  0  0  0  0  0
   -0.5881   13.5191   -2.0727 H   0  0  0  0  0  0  0  0  0  0  0  0
   -1.8779   12.2690   -2.0727 H   0  0  0  0  0  0  0  0  0  0  0  0
    2.0712   11.1804   -1.4698 H   0  0  0  0  0  0  0  0  0  0  0  0
    1.6740   13.4635   -0.3459 H   0  0  0  0  0  0  0  0  0  0  0  0
    3.1008   13.1936   -1.4774 H   0  0  0  0  0  0  0  0  0  0  0  0
    1.8232   15.4837   -1.7377 H   0  0  0  0  0  0  0  0  0  0  0  0
   -0.2068   12.9604   -4.1483 H   0  0  0  0  0  0  0  0  0  0  0  0
    2.4636   13.4365   -5.6120 H   0  0  0  0  0  0  0  0  0  0  0  0
    1.0900   12.3778   -6.1627 H   0  0  0  0  0  0  0  0  0  0  0  0
    1.1427   14.5415   -7.3608 H   0  0  0  0  0  0  0  0  0  0  0  0
   -0.3569   14.3149   -6.3782 H   0  0  0  0  0  0  0  0  0  0  0  0
    0.4176   16.5679   -6.0934 H   0  0  0  0  0  0  0  0  0  0  0  0
    2.8840   15.2160   -5.6290 H   0  0  0  0  0  0  0  0  0  0  0  0
   -1.3007   15.7464   -2.9850 H   0  0  0  0  0  0  0  0  0  0  0  0
   -1.3797   16.6444   -4.5387 H   0  0  0  0  0  0  0  0  0  0  0  0
   -1.3763   14.8481   -4.5387 H   0  0  0  0  0  0  0  0  0  0  0  0
    0.9885   16.9663   -2.3568 H   0  0  0  0  0  0  0  0  0  0  0  0
    2.0569   17.2974   -3.7624 H   0  0  0  0  0  0  0  0  0  0  0  0
    0.3622   17.8930   -3.7624 H   0  0  0  0  0  0  0  0  0  0  0  0
    3.5626   11.5749   -2.9202 H   0  0  0  0  0  0  0  0  0  0  0  0
    3.0606   10.7351   -4.4266 H   0  0  0  0  0  0  0  0  0  0  0  0
    3.2950   12.5160   -4.4266 H   0  0  0  0  0  0  0  0  0  0  0  0
    0.4292   10.7710   -5.0286 H   0  0  0  0  0  0  0  0  0  0  0  0
    1.3767    9.7421   -3.8129 H   0  0  0  0  0  0  0  0  0  0  0  0
   -1.3858   10.9386   -3.4659 H   0  0  0  0  0  0  0  0  0  0  0  0
   -0.9151    9.1966   -3.5752 H   0  0  0  0  0  0  0  0  0  0  0  0
    0.7868    8.9156   -0.3393 H   0  0  0  0  0  0  0  0  0  0  0  0
    0.3356    8.0853   -1.8670 H   0  0  0  0  0  0  0  0  0  0  0  0
    1.6414    9.3188   -1.8670 H   0  0  0  0  0  0  0  0  0  0  0  0
  1  2  1  0
  2  3  1  0
  3  4  1  0
  4  5  1  0
  5  6  1  0
  6  7  1  0
  7  8  1  0
  7  9  1  0
  2 10  1  0
 10 11  1  0
 11 12  1  0
 12 13  1  0
 13 14  1  1
 13 15  1  0
 15 16  1  0
 16 17  1  0
 17 18  2  0
 18 19  1  0
 19 20  1  0
 20 21  1  0
 21 22  1  0
 22 23  1  0
 22 24  1  0
 24 25  1  0
 24 26  1  0
 19 27  1  0
 27 28  1  6
 27 29  1  0
 29 30  1  0
 30 31  1  0
 31 32  1  6
  7  5  1  0
 31 10  1  0
 31 13  1  0
 27 15  1  0
 24 18  1  0
  1 33  1  0
  1 34  1  0
  1 35  1  0
  2 36  1  1
  3 37  1  0
  3 38  1  0
  4 39  1  0
  4 40  1  0
  5 41  1  1
  8 42  1  0
  8 43  1  0
  8 44  1  0
  9 45  1  0
  9 46  1  0
  9 47  1  0
 10 48  1  6
 11 49  1  0
 11 50  1  0
 12 51  1  0
 12 52  1  0
 14 53  1  0
 14 54  1  0
 14 55  1  0
 15 56  1  1
 16 57  1  0
 16 58  1  0
 17 59  1  0
 19 60  1  6
 20 61  1  0
 20 62  1  0
 21 63  1  0
 21 64  1  0
 22 65  1  6
 23 66  1  0
 25 67  1  0
 25 68  1  0
 25 69  1  0
 26 70  1  0
 26 71  1  0
 26 72  1  0
 28 73  1  0
 28 74  1  0
 28 75  1  0
 29 76  1  0
 29 77  1  0
 30 78  1  0
 30 79  1  0
 32 80  1  0
 32 81  1  0
 32 82  1  0
M  END
>  <meeko>  (14) 
{"is_sidechain": [false], "intermolecular_energy": 2.731, "internal_energy": -0.839}

$$$$
EPH_relaxed_0001_pdb2pqr_Repair_395_r2_0001_out
     RDKit          3D

 82 86  0  0  0  0  0  0  0  0999 V2000
    2.8570   11.3810   -5.3720 C   0  0  0  0  0  0  0  0  0  0  0  0
    1.8580   11.0750   -4.2530 C   0  0  2  0  0  0  0  0  0  0  0  0
    0.7390   10.1210   -4.7170 C   0  0  0  0  0  0  0  0  0  0  0  0
   -0.3350    9.8700   -3.6550 C   0  0  0  0  0  0  0  0  0  0  0  0
    0.1910    9.0490   -2.5170 C   0  0  2  0  0  0  0  0  0  0  0  0
   -0.6640    7.9730   -2.1090 O   0  0  0  0  0  0  0  0  0  0  0  0
   -0.4510    9.0150   -1.1430 C   0  0  0  0  0  0  0  0  0  0  0  0
   -1.6760    9.8180   -0.8340 C   0  0  0  0  0  0  0  0  0  0  0  0
    0.3820    8.5920    0.0260 C   0  0  0  0  0  0  0  0  0  0  0  0
    1.2530   12.3720   -3.7280 C   0  0  1  0  0  0  0  0  0  0  0  0
   -0.2880   12.2870   -3.5590 C   0  0  0  0  0  0  0  0  0  0  0  0
   -0.6490   13.1410   -2.3160 C   0  0  0  0  0  0  0  0  0  0  0  0
    0.6340   13.9490   -2.0120 C   0  0  1  0  0  0  0  0  0  0  0  0
    0.5950   15.1520   -3.0060 C   0  0  0  0  0  0  0  0  0  0  0  0
    0.8150   14.4270   -0.5340 C   0  0  2  0  0  0  0  0  0  0  0  0
   -0.2640   15.3980   -0.0250 C   0  0  0  0  0  0  0  0  0  0  0  0
    0.0310   16.8470   -0.2340 C   0  0  0  0  0  0  0  0  0  0  0  0
    1.2340   17.3630   -0.5460 C   0  0  0  0  0  0  0  0  0  0  0  0
    2.4780   16.4690   -0.6230 C   0  0  1  0  0  0  0  0  0  0  0  0
    3.6500   17.1450    0.1370 C   0  0  0  0  0  0  0  0  0  0  0  0
    3.9200   18.5650   -0.3510 C   0  0  0  0  0  0  0  0  0  0  0  0
    2.6770   19.4390   -0.2040 C   0  0  2  0  0  0  0  0  0  0  0  0
    2.3960   19.6100    1.1880 O   0  0  0  0  0  0  0  0  0  0  0  0
    1.4290   18.8530   -0.9210 C   0  0  0  0  0  0  0  0  0  0  0  0
    1.6170   18.9470   -2.4550 C   0  0  0  0  0  0  0  0  0  0  0  0
    0.2130   19.7550   -0.5770 C   0  0  0  0  0  0  0  0  0  0  0  0
    2.2700   14.9520   -0.1970 C   0  0  1  0  0  0  0  0  0  0  0  0
    2.4500   14.8030    1.3450 C   0  0  0  0  0  0  0  0  0  0  0  0
    3.3930   14.0720   -0.8630 C   0  0  0  0  0  0  0  0  0  0  0  0
    3.1040   13.5300   -2.2760 C   0  0  0  0  0  0  0  0  0  0  0  0
    1.7250   12.8660   -2.3370 C   0  0  2  0  0  0  0  0  0  0  0  0
    1.7420   11.6380   -1.3640 C   0  0  0  0  0  0  0  0  0  0  0  0
    3.8211   11.6763   -4.9322 H   0  0  0  0  0  0  0  0  0  0  0  0
    2.9969   10.4845   -5.9939 H   0  0  0  0  0  0  0  0  0  0  0  0
    2.4708   12.2020   -5.9939 H   0  0  0  0  0  0  0  0  0  0  0  0
    2.4091   10.5685   -3.4470 H   0  0  0  0  0  0  0  0  0  0  0  0
    0.2556   10.5577   -5.6034 H   0  0  0  0  0  0  0  0  0  0  0  0
    1.2117    9.1513   -4.9319 H   0  0  0  0  0  0  0  0  0  0  0  0
   -0.6836   10.8377   -3.2650 H   0  0  0  0  0  0  0  0  0  0  0  0
   -1.1593    9.3144   -4.1260 H   0  0  0  0  0  0  0  0  0  0  0  0
    1.2277    9.2193   -2.8430 H   0  0  0  0  0  0  0  0  0  0  0  0
   -1.7970    9.8973    0.2564 H   0  0  0  0  0  0  0  0  0  0  0  0
   -1.5732   10.8245   -1.2657 H   0  0  0  0  0  0  0  0  0  0  0  0
   -2.5580    9.3222   -1.2657 H   0  0  0  0  0  0  0  0  0  0  0  0
   -0.1363    8.8552    0.9599 H   0  0  0  0  0  0  0  0  0  0  0  0
    0.5406    7.5041   -0.0113 H   0  0  0  0  0  0  0  0  0  0  0  0
    1.3539    9.1058   -0.0113 H   0  0  0  0  0  0  0  0  0  0  0  0
    1.5968   13.0651   -4.5099 H   0  0  0  0  0  0  0  0  0  0  0  0
   -0.7898   12.6872   -4.4524 H   0  0  0  0  0  0  0  0  0  0  0  0
   -0.6145   11.2445   -3.4306 H   0  0  0  0  0  0  0  0  0  0  0  0
   -1.4890   13.8154   -2.5388 H   0  0  0  0  0  0  0  0  0  0  0  0
   -0.9648   12.5229   -1.4626 H   0  0  0  0  0  0  0  0  0  0  0  0
    0.5644   16.0946   -2.4398 H   0  0  0  0  0  0  0  0  0  0  0  0
    1.4942   15.1337   -3.6393 H   0  0  0  0  0  0  0  0  0  0  0  0
   -0.3011   15.0755   -3.6393 H   0  0  0  0  0  0  0  0  0  0  0  0
    0.6707   13.4963    0.0343 H   0  0  0  0  0  0  0  0  0  0  0  0
   -1.2044   15.1642   -0.5456 H   0  0  0  0  0  0  0  0  0  0  0  0
   -0.3149   15.2521    1.0641 H   0  0  0  0  0  0  0  0  0  0  0  0
   -0.8060   17.5522   -0.1235 H   0  0  0  0  0  0  0  0  0  0  0  0
    2.7249   16.3844   -1.6916 H   0  0  0  0  0  0  0  0  0  0  0  0
    3.4019   17.1811    1.2080 H   0  0  0  0  0  0  0  0  0  0  0  0
    4.5563   16.5497   -0.0480 H   0  0  0  0  0  0  0  0  0  0  0  0
    4.7379   18.9999    0.2422 H   0  0  0  0  0  0  0  0  0  0  0  0
    4.1958   18.5237   -1.4151 H   0  0  0  0  0  0  0  0  0  0  0  0
    2.8924   20.4036   -0.6869 H   0  0  0  0  0  0  0  0  0  0  0  0
    1.8360   20.4000    1.2800 H   0  0  0  0  0  0  0  0  0  0  0  0
    2.5805   19.4288   -2.6775 H   0  0  0  0  0  0  0  0  0  0  0  0
    1.6037   17.9362   -2.8887 H   0  0  0  0  0  0  0  0  0  0  0  0
    0.8004   19.5428   -2.8887 H   0  0  0  0  0  0  0  0  0  0  0  0
    0.1104   19.8311    0.5156 H   0  0  0  0  0  0  0  0  0  0  0  0
    0.3686   20.7578   -1.0014 H   0  0  0  0  0  0  0  0  0  0  0  0
   -0.7015   19.3151   -1.0014 H   0  0  0  0  0  0  0  0  0  0  0  0
    1.7024   15.4218    1.8629 H   0  0  0  0  0  0  0  0  0  0  0  0
    2.3146   13.7492    1.6298 H   0  0  0  0  0  0  0  0  0  0  0  0
    3.4600   15.1329    1.6298 H   0  0  0  0  0  0  0  0  0  0  0  0
    4.3048   14.6845   -0.9215 H   0  0  0  0  0  0  0  0  0  0  0  0
    3.4769   13.1804   -0.2242 H   0  0  0  0  0  0  0  0  0  0  0  0
    3.1345   14.3628   -2.9940 H   0  0  0  0  0  0  0  0  0  0  0  0
    3.8668   12.7779   -2.5260 H   0  0  0  0  0  0  0  0  0  0  0  0
    1.7371   11.9946   -0.3234 H   0  0  0  0  0  0  0  0  0  0  0  0
    0.8524   11.0162   -1.5427 H   0  0  0  0  0  0  0  0  0  0  0  0
    2.6485   11.0411   -1.5427 H   0  0  0  0  0  0  0  0  0  0  0  0
  1  2  1  0
  2  3  1  0
  3  4  1  0
  4  5  1  0
  5  6  1  0
  6  7  1  0
  7  8  1  0
  7  9  1  0
  2 10  1  0
 10 11  1  0
 11 12  1  0
 12 13  1  0
 13 14  1  6
 13 15  1  0
 15 16  1  0
 16 17  1  0
 17 18  2  0
 18 19  1  0
 19 20  1  0
 20 21  1  0
 21 22  1  0
 22 23  1  0
 22 24  1  0
 24 25  1  0
 24 26  1  0
 19 27  1  0
 27 28  1  1
 27 29  1  0
 29 30  1  0
 30 31  1  0
 31 32  1  1
  7  5  1  0
 31 10  1  0
 31 13  1  0
 27 15  1  0
 24 18  1  0
  1 33  1  0
  1 34  1  0
  1 35  1  0
  2 36  1  1
  3 37  1  0
  3 38  1  0
  4 39  1  0
  4 40  1  0
  5 41  1  1
  8 42  1  0
  8 43  1  0
  8 44  1  0
  9 45  1  0
  9 46  1  0
  9 47  1  0
 10 48  1  6
 11 49  1  0
 11 50  1  0
 12 51  1  0
 12 52  1  0
 14 53  1  0
 14 54  1  0
 14 55  1  0
 15 56  1  1
 16 57  1  0
 16 58  1  0
 17 59  1  0
 19 60  1  6
 20 61  1  0
 20 62  1  0
 21 63  1  0
 21 64  1  0
 22 65  1  6
 23 66  1  0
 25 67  1  0
 25 68  1  0
 25 69  1  0
 26 70  1  0
 26 71  1  0
 26 72  1  0
 28 73  1  0
 28 74  1  0
 28 75  1  0
 29 76  1  0
 29 77  1  0
 30 78  1  0
 30 79  1  0
 32 80  1  0
 32 81  1  0
 32 82  1  0
M  END
>  <meeko>  (15) 
{"is_sidechain": [false], "intermolecular_energy": 2.731, "internal_energy": -0.839}

$$$$
EPH_relaxed_0001_pdb2pqr_Repair_395_r2_0001_out
     RDKit          3D

 82 86  0  0  0  0  0  0  0  0999 V2000
   -2.0730    9.6580   -0.1440 C   0  0  0  0  0  0  0  0  0  0  0  0
   -1.6220   10.5960   -1.2680 C   0  0  2  0  0  0  0  0  0  0  0  0
   -0.7130    9.8830   -2.2900 C   0  0  0  0  0  0  0  0  0  0  0  0
    0.6650    9.5130   -1.7350 C   0  0  0  0  0  0  0  0  0  0  0  0
    1.7650    9.9150   -2.6700 C   0  0  2  0  0  0  0  0  0  0  0  0
    2.9340    9.0880   -2.6090 O   0  0  0  0  0  0  0  0  0  0  0  0
    3.1040   10.4560   -2.2040 C   0  0  0  0  0  0  0  0  0  0  0  0
    3.4130   10.6260   -0.7500 C   0  0  0  0  0  0  0  0  0  0  0  0
    3.9180   11.2710   -3.1600 C   0  0  0  0  0  0  0  0  0  0  0  0
   -0.8990   11.8010   -0.6800 C   0  0  1  0  0  0  0  0  0  0  0  0
    0.2600   11.3980    0.2700 C   0  0  0  0  0  0  0  0  0  0  0  0
    1.3780   12.4570    0.0880 C   0  0  0  0  0  0  0  0  0  0  0  0
    0.7030   13.6040   -0.7000 C   0  0  1  0  0  0  0  0  0  0  0  0
   -0.0750   14.4260    0.3750 C   0  0  0  0  0  0  0  0  0  0  0  0
    1.6520   14.5130   -1.5470 C   0  0  2  0  0  0  0  0  0  0  0  0
    2.6990   15.2980   -0.7360 C   0  0  0  0  0  0  0  0  0  0  0  0
    2.2680   16.6530   -0.2810 C   0  0  0  0  0  0  0  0  0  0  0  0
    1.2050   17.3330   -0.7480 C   0  0  0  0  0  0  0  0  0  0  0  0
    0.3650   16.7830   -1.9080 C   0  0  1  0  0  0  0  0  0  0  0  0
    0.1100   17.9110   -2.9430 C   0  0  0  0  0  0  0  0  0  0  0  0
   -0.5090   19.1540   -2.3120 C   0  0  0  0  0  0  0  0  0  0  0  0
    0.3820   19.7050   -1.2030 C   0  0  2  0  0  0  0  0  0  0  0  0
    1.5950   20.1940   -1.7850 O   0  0  0  0  0  0  0  0  0  0  0  0
    0.7150   18.6550   -0.1060 C   0  0  0  0  0  0  0  0  0  0  0  0
   -0.5550   18.3500    0.7260 C   0  0  0  0  0  0  0  0  0  0  0  0
    1.7340   19.2960    0.8750 C   0  0  0  0  0  0  0  0  0  0  0  0
    0.9030   15.4480   -2.5810 C   0  0  1  0  0  0  0  0  0  0  0  0
    1.9360   15.7930   -3.6980 C   0  0  0  0  0  0  0  0  0  0  0  0
   -0.2930   14.7130   -3.2940 C   0  0  0  0  0  0  0  0  0  0  0  0
   -1.1200   13.7380   -2.4350 C   0  0  0  0  0  0  0  0  0  0  0  0
   -0.2090   12.7710   -1.6730 C   0  0  2  0  0  0  0  0  0  0  0  0
    0.5700   11.9140   -2.7290 C   0  0  0  0  0  0  0  0  0  0  0  0
   -1.8512   10.1193    0.8297 H   0  0  0  0  0  0  0  0  0  0  0  0
   -3.1553    9.4798   -0.2273 H   0  0  0  0  0  0  0  0  0  0  0  0
   -1.5364    8.7014   -0.2273 H   0  0  0  0  0  0  0  0  0  0  0  0
   -2.5236   10.9282   -1.8036 H   0  0  0  0  0  0  0  0  0  0  0  0
   -1.2149    8.9604   -2.6169 H   0  0  0  0  0  0  0  0  0  0  0  0
   -0.5473   10.5869   -3.1189 H   0  0  0  0  0  0  0  0  0  0  0  0
    0.8107   10.0246   -0.7722 H   0  0  0  0  0  0  0  0  0  0  0  0
    0.7027    8.4207   -1.6105 H   0  0  0  0  0  0  0  0  0  0  0  0
    1.0360   10.2846   -3.4062 H   0  0  0  0  0  0  0  0  0  0  0  0
    2.6057   10.1818   -0.1492 H   0  0  0  0  0  0  0  0  0  0  0  0
    4.3632   10.1237   -0.5159 H   0  0  0  0  0  0  0  0  0  0  0  0
    3.4973   11.6975   -0.5159 H   0  0  0  0  0  0  0  0  0  0  0  0
    4.5854   11.9393   -2.5961 H   0  0  0  0  0  0  0  0  0  0  0  0
    4.5188   10.6016   -3.7932 H   0  0  0  0  0  0  0  0  0  0  0  0
    3.2479   11.8710   -3.7932 H   0  0  0  0  0  0  0  0  0  0  0  0
   -1.7465   12.3031   -0.1904 H   0  0  0  0  0  0  0  0  0  0  0  0
   -0.0899   11.3922    1.3129 H   0  0  0  0  0  0  0  0  0  0  0  0
    0.6302   10.3892    0.0349 H   0  0  0  0  0  0  0  0  0  0  0  0
    1.7367   12.8150    1.0643 H   0  0  0  0  0  0  0  0  0  0  0  0
    2.2563   12.0512   -0.4354 H   0  0  0  0  0  0  0  0  0  0  0  0
    0.2332   14.1004    1.3795 H   0  0  0  0  0  0  0  0  0  0  0  0
    0.1491   15.4958    0.2515 H   0  0  0  0  0  0  0  0  0  0  0  0
   -1.1555   14.2611    0.2515 H   0  0  0  0  0  0  0  0  0  0  0  0
    2.2193   13.7769   -2.1355 H   0  0  0  0  0  0  0  0  0  0  0  0
    2.9532   14.7051    0.1550 H   0  0  0  0  0  0  0  0  0  0  0  0
    3.5497   15.4609   -1.4141 H   0  0  0  0  0  0  0  0  0  0  0  0
    2.8704   17.1363    0.5023 H   0  0  0  0  0  0  0  0  0  0  0  0
   -0.5889   16.4591   -1.4662 H   0  0  0  0  0  0  0  0  0  0  0  0
    1.0689   18.1899   -3.4042 H   0  0  0  0  0  0  0  0  0  0  0  0
   -0.6008   17.5257   -3.6889 H   0  0  0  0  0  0  0  0  0  0  0  0
   -0.6377   19.9245   -3.0864 H   0  0  0  0  0  0  0  0  0  0  0  0
   -1.4812   18.8792   -1.8768 H   0  0  0  0  0  0  0  0  0  0  0  0
   -0.1735   20.5135   -0.7053 H   0  0  0  0  0  0  0  0  0  0  0  0
    2.2330   20.3300   -1.0650 H   0  0  0  0  0  0  0  0  0  0  0  0
   -0.3139   18.4079    1.7977 H   0  0  0  0  0  0  0  0  0  0  0  0
   -1.3363   19.0860    0.4856 H   0  0  0  0  0  0  0  0  0  0  0  0
   -0.9169   17.3394    0.4856 H   0  0  0  0  0  0  0  0  0  0  0  0
    1.4201   19.0985    1.9106 H   0  0  0  0  0  0  0  0  0  0  0  0
    2.7301   18.8615    0.7046 H   0  0  0  0  0  0  0  0  0  0  0  0
    1.7736   20.3820    0.7046 H   0  0  0  0  0  0  0  0  0  0  0  0
    2.8831   16.1093   -3.2365 H   0  0  0  0  0  0  0  0  0  0  0  0
    2.1111   14.9046   -4.3225 H   0  0  0  0  0  0  0  0  0  0  0  0
    1.5421   16.6084   -4.3225 H   0  0  0  0  0  0  0  0  0  0  0  0
   -0.9783   15.4846   -3.6747 H   0  0  0  0  0  0  0  0  0  0  0  0
    0.1742   14.0883   -4.0695 H   0  0  0  0  0  0  0  0  0  0  0  0
   -1.7184   14.3131   -1.7131 H   0  0  0  0  0  0  0  0  0  0  0  0
   -1.7745   13.1540   -3.0988 H   0  0  0  0  0  0  0  0  0  0  0  0
    1.2223   11.1964   -2.2097 H   0  0  0  0  0  0  0  0  0  0  0  0
   -0.1474   11.3679   -3.3592 H   0  0  0  0  0  0  0  0  0  0  0  0
    1.1819   12.5762   -3.3592 H   0  0  0  0  0  0  0  0  0  0  0  0
  1  2  1  0
  2  3  1  0
  3  4  1  0
  4  5  1  0
  5  6  1  0
  6  7  1  0
  7  8  1  0
  7  9  1  0
  2 10  1  0
 10 11  1  0
 11 12  1  0
 12 13  1  0
 13 14  1  1
 13 15  1  0
 15 16  1  0
 16 17  1  0
 17 18  2  0
 18 19  1  0
 19 20  1  0
 20 21  1  0
 21 22  1  0
 22 23  1  0
 22 24  1  0
 24 25  1  0
 24 26  1  0
 19 27  1  0
 27 28  1  6
 27 29  1  0
 29 30  1  0
 30 31  1  0
 31 32  1  6
  7  5  1  0
 31 10  1  0
 31 13  1  0
 27 15  1  0
 24 18  1  0
  1 33  1  0
  1 34  1  0
  1 35  1  0
  2 36  1  6
  3 37  1  0
  3 38  1  0
  4 39  1  0
  4 40  1  0
  5 41  1  6
  8 42  1  0
  8 43  1  0
  8 44  1  0
  9 45  1  0
  9 46  1  0
  9 47  1  0
 10 48  1  1
 11 49  1  0
 11 50  1  0
 12 51  1  0
 12 52  1  0
 14 53  1  0
 14 54  1  0
 14 55  1  0
 15 56  1  6
 16 57  1  0
 16 58  1  0
 17 59  1  0
 19 60  1  1
 20 61  1  0
 20 62  1  0
 21 63  1  0
 21 64  1  0
 22 65  1  1
 23 66  1  0
 25 67  1  0
 25 68  1  0
 25 69  1  0
 26 70  1  0
 26 71  1  0
 26 72  1  0
 28 73  1  0
 28 74  1  0
 28 75  1  0
 29 76  1  0
 29 77  1  0
 30 78  1  0
 30 79  1  0
 32 80  1  0
 32 81  1  0
 32 82  1  0
M  END
>  <meeko>  (16) 
{"is_sidechain": [false], "intermolecular_energy": 2.731, "internal_energy": -0.839}

$$$$
EPH_relaxed_0001_pdb2pqr_Repair_395_r2_0001_out
     RDKit          3D

 82 86  0  0  0  0  0  0  0  0999 V2000
  -13.0040    6.4830    0.4340 C   0  0  0  0  0  0  0  0  0  0  0  0
  -13.1810    7.6770   -0.5080 C   0  0  2  0  0  0  0  0  0  0  0  0
  -14.3940    7.5030   -1.4440 C   0  0  0  0  0  0  0  0  0  0  0  0
  -15.2870    8.7430   -1.5310 C   0  0  0  0  0  0  0  0  0  0  0  0
  -15.1880    9.4040   -2.8730 C   0  0  2  0  0  0  0  0  0  0  0  0
  -13.8740    9.8580   -3.2210 O   0  0  0  0  0  0  0  0  0  0  0  0
  -14.8740   10.8770   -3.0590 C   0  0  0  0  0  0  0  0  0  0  0  0
  -14.6400   11.7790   -1.8880 C   0  0  0  0  0  0  0  0  0  0  0  0
  -15.2750   11.5370   -4.3410 C   0  0  0  0  0  0  0  0  0  0  0  0
  -11.9140    7.8820   -1.3300 C   0  0  1  0  0  0  0  0  0  0  0  0
  -11.8350    9.2970   -1.9620 C   0  0  0  0  0  0  0  0  0  0  0  0
  -10.3390    9.7050   -1.9610 C   0  0  0  0  0  0  0  0  0  0  0  0
   -9.5790    8.3960   -1.6430 C   0  0  1  0  0  0  0  0  0  0  0  0
   -9.5010    7.6360   -3.0030 C   0  0  0  0  0  0  0  0  0  0  0  0
   -8.1670    8.5580   -0.9910 C   0  0  2  0  0  0  0  0  0  0  0  0
   -7.1280    9.2910   -1.8580 C   0  0  0  0  0  0  0  0  0  0  0  0
   -6.3080    8.4160   -2.7460 C   0  0  0  0  0  0  0  0  0  0  0  0
   -6.1990    7.0780   -2.6410 C   0  0  0  0  0  0  0  0  0  0  0  0
   -6.8680    6.3210   -1.4870 C   0  0  1  0  0  0  0  0  0  0  0  0
   -5.8600    5.3130   -0.8750 C   0  0  0  0  0  0  0  0  0  0  0  0
   -5.2640    4.3750   -1.9200 C   0  0  0  0  0  0  0  0  0  0  0  0
   -4.5570    5.1630   -3.0200 C   0  0  2  0  0  0  0  0  0  0  0  0
   -3.4110    5.8110   -2.4600 O   0  0  0  0  0  0  0  0  0  0  0  0
   -5.4720    6.2170   -3.7040 C   0  0  0  0  0  0  0  0  0  0  0  0
   -6.5420    5.4990   -4.5620 C   0  0  0  0  0  0  0  0  0  0  0  0
   -4.6000    7.0370   -4.6930 C   0  0  0  0  0  0  0  0  0  0  0  0
   -7.5750    7.2220   -0.3850 C   0  0  1  0  0  0  0  0  0  0  0  0
   -6.5390    7.6450    0.7010 C   0  0  0  0  0  0  0  0  0  0  0  0
   -8.6690    6.3640    0.3550 C   0  0  0  0  0  0  0  0  0  0  0  0
  -10.0750    6.3400   -0.2730 C   0  0  0  0  0  0  0  0  0  0  0  0
  -10.5580    7.7580   -0.5910 C   0  0  2  0  0  0  0  0  0  0  0  0
  -10.6680    8.5410    0.7620 C   0  0  0  0  0  0  0  0  0  0  0  0
  -13.0552    6.8282    1.4772 H   0  0  0  0  0  0  0  0  0  0  0  0
  -13.8033    5.7498    0.2508 H   0  0  0  0  0  0  0  0  0  0  0  0
  -12.0264    6.0132    0.2508 H   0  0  0  0  0  0  0  0  0  0  0  0
  -13.3686    8.5647    0.1139 H   0  0  0  0  0  0  0  0  0  0  0  0
  -14.0233    7.2705   -2.4532 H   0  0  0  0  0  0  0  0  0  0  0  0
  -15.0091    6.6926   -1.0257 H   0  0  0  0  0  0  0  0  0  0  0  0
  -16.3311    8.4434   -1.3572 H   0  0  0  0  0  0  0  0  0  0  0  0
  -14.9513    9.4617   -0.7689 H   0  0  0  0  0  0  0  0  0  0  0  0
  -15.9879    8.7639   -3.2736 H   0  0  0  0  0  0  0  0  0  0  0  0
  -14.7864   11.2145   -0.9553 H   0  0  0  0  0  0  0  0  0  0  0  0
  -13.6114   12.1672   -1.9240 H   0  0  0  0  0  0  0  0  0  0  0  0
  -15.3501   12.6183   -1.9240 H   0  0  0  0  0  0  0  0  0  0  0  0
  -15.8345   12.4579   -4.1199 H   0  0  0  0  0  0  0  0  0  0  0  0
  -14.3750   11.7855   -4.9227 H   0  0  0  0  0  0  0  0  0  0  0  0
  -15.9102   10.8527   -4.9227 H   0  0  0  0  0  0  0  0  0  0  0  0
  -12.0261    7.0578   -2.0498 H   0  0  0  0  0  0  0  0  0  0  0  0
  -12.2205    9.2738   -2.9920 H   0  0  0  0  0  0  0  0  0  0  0  0
  -12.4411   10.0177   -1.3935 H   0  0  0  0  0  0  0  0  0  0  0  0
  -10.0426   10.0971   -2.9451 H   0  0  0  0  0  0  0  0  0  0  0  0
  -10.1236   10.5005   -1.2324 H   0  0  0  0  0  0  0  0  0  0  0  0
   -9.3904    6.5579   -2.8147 H   0  0  0  0  0  0  0  0  0  0  0  0
  -10.4223    7.8154   -3.5766 H   0  0  0  0  0  0  0  0  0  0  0  0
   -8.6354    7.9988   -3.5766 H   0  0  0  0  0  0  0  0  0  0  0  0
   -8.3747    9.2276   -0.1434 H   0  0  0  0  0  0  0  0  0  0  0  0
   -7.6631   10.0130   -2.4923 H   0  0  0  0  0  0  0  0  0  0  0  0
   -6.4222    9.7596   -1.1564 H   0  0  0  0  0  0  0  0  0  0  0  0
   -5.7451    8.9052   -3.5546 H   0  0  0  0  0  0  0  0  0  0  0  0
   -7.7156    5.7780   -1.9305 H   0  0  0  0  0  0  0  0  0  0  0  0
   -5.0432    5.8757   -0.3994 H   0  0  0  0  0  0  0  0  0  0  0  0
   -6.4053    4.6967   -0.1451 H   0  0  0  0  0  0  0  0  0  0  0  0
   -4.5386    3.7072   -1.4324 H   0  0  0  0  0  0  0  0  0  0  0  0
   -6.0787    3.7918   -2.3739 H   0  0  0  0  0  0  0  0  0  0  0  0
   -4.2650    4.4470   -3.8024 H   0  0  0  0  0  0  0  0  0  0  0  0
   -3.2490    5.4170   -1.5860 H   0  0  0  0  0  0  0  0  0  0  0  0
   -7.2727    5.0087   -3.9020 H   0  0  0  0  0  0  0  0  0  0  0  0
   -7.0572    6.2349   -5.1968 H   0  0  0  0  0  0  0  0  0  0  0  0
   -6.0563    4.7433   -5.1968 H   0  0  0  0  0  0  0  0  0  0  0  0
   -3.9129    7.6832   -4.1270 H   0  0  0  0  0  0  0  0  0  0  0  0
   -4.0194    6.3501   -5.3263 H   0  0  0  0  0  0  0  0  0  0  0  0
   -5.2500    7.6587   -5.3263 H   0  0  0  0  0  0  0  0  0  0  0  0
   -6.9641    7.4714    1.7006 H   0  0  0  0  0  0  0  0  0  0  0  0
   -5.6216    7.0495    0.5842 H   0  0  0  0  0  0  0  0  0  0  0  0
   -6.3006    8.7125    0.5842 H   0  0  0  0  0  0  0  0  0  0  0  0
   -8.3057    5.3266    0.3973 H   0  0  0  0  0  0  0  0  0  0  0  0
   -8.7996    6.8472    1.3345 H   0  0  0  0  0  0  0  0  0  0  0  0
  -10.0436    5.7536   -1.2031 H   0  0  0  0  0  0  0  0  0  0  0  0
  -10.7723    5.8851    0.4459 H   0  0  0  0  0  0  0  0  0  0  0  0
  -10.5692    7.8375    1.6018 H   0  0  0  0  0  0  0  0  0  0  0  0
   -9.8666    9.2925    0.8169 H   0  0  0  0  0  0  0  0  0  0  0  0
  -11.6454    9.0426    0.8169 H   0  0  0  0  0  0  0  0  0  0  0  0
  1  2  1  0
  2  3  1  0
  3  4  1  0
  4  5  1  0
  5  6  1  0
  6  7  1  0
  7  8  1  0
  7  9  1  0
  2 10  1  0
 10 11  1  0
 11 12  1  0
 12 13  1  0
 13 14  1  6
 13 15  1  0
 15 16  1  0
 16 17  1  0
 17 18  2  0
 18 19  1  0
 19 20  1  0
 20 21  1  0
 21 22  1  0
 22 23  1  0
 22 24  1  0
 24 25  1  0
 24 26  1  0
 19 27  1  0
 27 28  1  1
 27 29  1  0
 29 30  1  0
 30 31  1  0
 31 32  1  1
  7  5  1  0
 31 10  1  0
 31 13  1  0
 27 15  1  0
 24 18  1  0
  1 33  1  0
  1 34  1  0
  1 35  1  0
  2 36  1  1
  3 37  1  0
  3 38  1  0
  4 39  1  0
  4 40  1  0
  5 41  1  6
  8 42  1  0
  8 43  1  0
  8 44  1  0
  9 45  1  0
  9 46  1  0
  9 47  1  0
 10 48  1  6
 11 49  1  0
 11 50  1  0
 12 51  1  0
 12 52  1  0
 14 53  1  0
 14 54  1  0
 14 55  1  0
 15 56  1  1
 16 57  1  0
 16 58  1  0
 17 59  1  0
 19 60  1  6
 20 61  1  0
 20 62  1  0
 21 63  1  0
 21 64  1  0
 22 65  1  6
 23 66  1  0
 25 67  1  0
 25 68  1  0
 25 69  1  0
 26 70  1  0
 26 71  1  0
 26 72  1  0
 28 73  1  0
 28 74  1  0
 28 75  1  0
 29 76  1  0
 29 77  1  0
 30 78  1  0
 30 79  1  0
 32 80  1  0
 32 81  1  0
 32 82  1  0
M  END
>  <meeko>  (17) 
{"is_sidechain": [false], "intermolecular_energy": 2.731, "internal_energy": -0.839}

$$$$
EPH_relaxed_0001_pdb2pqr_Repair_395_r2_0001_out
     RDKit          3D

 82 86  0  0  0  0  0  0  0  0999 V2000
  -13.9970   11.5720   -2.7720 C   0  0  0  0  0  0  0  0  0  0  0  0
  -13.5060   10.2520   -2.1720 C   0  0  2  0  0  0  0  0  0  0  0  0
  -13.9100   10.1010   -0.6920 C   0  0  0  0  0  0  0  0  0  0  0  0
  -15.2880    9.4630   -0.4920 C   0  0  0  0  0  0  0  0  0  0  0  0
  -15.2120    8.2400    0.3700 C   0  0  2  0  0  0  0  0  0  0  0  0
  -13.8980    7.6850    0.5100 O   0  0  0  0  0  0  0  0  0  0  0  0
  -14.8650    6.8620   -0.1610 C   0  0  0  0  0  0  0  0  0  0  0  0
  -14.5710    6.6360   -1.6110 C   0  0  0  0  0  0  0  0  0  0  0  0
  -15.2870    5.6630    0.6290 C   0  0  0  0  0  0  0  0  0  0  0  0
  -11.9920   10.1480   -2.3130 C   0  0  1  0  0  0  0  0  0  0  0  0
  -11.2800   11.5140   -2.1200 C   0  0  0  0  0  0  0  0  0  0  0  0
   -9.9290   11.2180   -1.4190 C   0  0  0  0  0  0  0  0  0  0  0  0
   -9.7580    9.6850   -1.5310 C   0  0  1  0  0  0  0  0  0  0  0  0
   -9.2070    9.4470   -2.9710 C   0  0  0  0  0  0  0  0  0  0  0  0
   -8.8550    9.0090   -0.4480 C   0  0  2  0  0  0  0  0  0  0  0  0
   -7.3850    9.4630   -0.4490 C   0  0  0  0  0  0  0  0  0  0  0  0
   -6.4690    8.6590   -1.3110 C   0  0  0  0  0  0  0  0  0  0  0  0
   -6.7470    7.4480   -1.8300 C   0  0  0  0  0  0  0  0  0  0  0  0
   -8.0540    6.7230   -1.4840 C   0  0  1  0  0  0  0  0  0  0  0  0
   -7.7480    5.2440   -1.1310 C   0  0  0  0  0  0  0  0  0  0  0  0
   -6.9580    4.5330   -2.2260 C   0  0  0  0  0  0  0  0  0  0  0  0
   -5.6390    5.2500   -2.5010 C   0  0  2  0  0  0  0  0  0  0  0  0
   -4.7990    5.1280   -1.3490 O   0  0  0  0  0  0  0  0  0  0  0  0
   -5.8220    6.7520   -2.8580 C   0  0  0  0  0  0  0  0  0  0  0  0
   -6.4690    6.8780   -4.2590 C   0  0  0  0  0  0  0  0  0  0  0  0
   -4.4110    7.3900   -2.9730 C   0  0  0  0  0  0  0  0  0  0  0  0
   -8.9730    7.4320   -0.3980 C   0  0  1  0  0  0  0  0  0  0  0  0
   -8.5360    6.9980    1.0340 C   0  0  0  0  0  0  0  0  0  0  0  0
  -10.4570    6.9370   -0.5780 C   0  0  0  0  0  0  0  0  0  0  0  0
  -11.3340    7.7200   -1.5740 C   0  0  0  0  0  0  0  0  0  0  0  0
  -11.2460    9.2270   -1.3150 C   0  0  2  0  0  0  0  0  0  0  0  0
  -11.8150    9.5000    0.1190 C   0  0  0  0  0  0  0  0  0  0  0  0
  -14.2563   12.2691   -1.9616 H   0  0  0  0  0  0  0  0  0  0  0  0
  -13.2020   12.0108   -3.3928 H   0  0  0  0  0  0  0  0  0  0  0  0
  -14.8855   11.3846   -3.3928 H   0  0  0  0  0  0  0  0  0  0  0  0
  -13.9876    9.4354   -2.7299 H   0  0  0  0  0  0  0  0  0  0  0  0
  -13.1600    9.4723   -0.1897 H   0  0  0  0  0  0  0  0  0  0  0  0
  -13.9603   11.1145   -0.2675 H   0  0  0  0  0  0  0  0  0  0  0  0
  -15.9541   10.1958   -0.0133 H   0  0  0  0  0  0  0  0  0  0  0  0
  -15.6743    9.1645   -1.4778 H   0  0  0  0  0  0  0  0  0  0  0  0
  -16.0404    8.6027    0.9963 H   0  0  0  0  0  0  0  0  0  0  0  0
  -13.7024    5.9683   -1.7093 H   0  0  0  0  0  0  0  0  0  0  0  0
  -15.4446    6.1747   -2.0947 H   0  0  0  0  0  0  0  0  0  0  0  0
  -14.3499    7.5989   -2.0947 H   0  0  0  0  0  0  0  0  0  0  0  0
  -15.2086    5.8856    1.7034 H   0  0  0  0  0  0  0  0  0  0  0  0
  -16.3285    5.4092    0.3821 H   0  0  0  0  0  0  0  0  0  0  0  0
  -14.6341    4.8129    0.3821 H   0  0  0  0  0  0  0  0  0  0  0  0
  -11.9291    9.7307   -3.3288 H   0  0  0  0  0  0  0  0  0  0  0  0
  -11.1043   11.9909   -3.0955 H   0  0  0  0  0  0  0  0  0  0  0  0
  -11.8956   12.1993   -1.5188 H   0  0  0  0  0  0  0  0  0  0  0  0
   -9.1049   11.7388   -1.9286 H   0  0  0  0  0  0  0  0  0  0  0  0
   -9.9167   11.5636   -0.3748 H   0  0  0  0  0  0  0  0  0  0  0  0
   -8.1987    9.0115   -2.9104 H   0  0  0  0  0  0  0  0  0  0  0  0
   -9.8730    8.7563   -3.5089 H   0  0  0  0  0  0  0  0  0  0  0  0
   -9.1607   10.4054   -3.5089 H   0  0  0  0  0  0  0  0  0  0  0  0
   -9.2851    9.3907    0.4897 H   0  0  0  0  0  0  0  0  0  0  0  0
   -7.3517   10.5057   -0.7978 H   0  0  0  0  0  0  0  0  0  0  0  0
   -7.0255    9.3312    0.5822 H   0  0  0  0  0  0  0  0  0  0  0  0
   -5.4845    9.0921   -1.5415 H   0  0  0  0  0  0  0  0  0  0  0  0
   -8.6766    6.7692   -2.3897 H   0  0  0  0  0  0  0  0  0  0  0  0
   -7.1628    5.2174   -0.2000 H   0  0  0  0  0  0  0  0  0  0  0  0
   -8.7094    4.7213   -1.0196 H   0  0  0  0  0  0  0  0  0  0  0  0
   -6.7472    3.5019   -1.9059 H   0  0  0  0  0  0  0  0  0  0  0  0
   -7.5573    4.5348   -3.1484 H   0  0  0  0  0  0  0  0  0  0  0  0
   -5.1801    4.7722   -3.3791 H   0  0  0  0  0  0  0  0  0  0  0  0
   -4.1640    5.8630   -1.3690 H   0  0  0  0  0  0  0  0  0  0  0  0
   -7.5433    7.0872   -4.1493 H   0  0  0  0  0  0  0  0  0  0  0  0
   -5.9900    7.6997   -4.8115 H   0  0  0  0  0  0  0  0  0  0  0  0
   -6.3333    5.9366   -4.8115 H   0  0  0  0  0  0  0  0  0  0  0  0
   -4.0078    7.5723   -1.9659 H   0  0  0  0  0  0  0  0  0  0  0  0
   -3.7428    6.7065   -3.5173 H   0  0  0  0  0  0  0  0  0  0  0  0
   -4.4828    8.3432   -3.5173 H   0  0  0  0  0  0  0  0  0  0  0  0
   -9.1092    7.5673    1.7806 H   0  0  0  0  0  0  0  0  0  0  0  0
   -8.7281    5.9230    1.1660 H   0  0  0  0  0  0  0  0  0  0  0  0
   -7.4623    7.1975    1.1660 H   0  0  0  0  0  0  0  0  0  0  0  0
  -10.4203    5.8913   -0.9174 H   0  0  0  0  0  0  0  0  0  0  0  0
  -10.9315    7.0865    0.4030 H   0  0  0  0  0  0  0  0  0  0  0  0
  -10.9908    7.5102   -2.5978 H   0  0  0  0  0  0  0  0  0  0  0  0
  -12.3793    7.4026   -1.4457 H   0  0  0  0  0  0  0  0  0  0  0  0
  -11.0923    9.1533    0.8724 H   0  0  0  0  0  0  0  0  0  0  0  0
  -11.9876   10.5790    0.2457 H   0  0  0  0  0  0  0  0  0  0  0  0
  -12.7646    8.9594    0.2457 H   0  0  0  0  0  0  0  0  0  0  0  0
  1  2  1  0
  2  3  1  0
  3  4  1  0
  4  5  1  0
  5  6  1  0
  6  7  1  0
  7  8  1  0
  7  9  1  0
  2 10  1  0
 10 11  1  0
 11 12  1  0
 12 13  1  0
 13 14  1  6
 13 15  1  0
 15 16  1  0
 16 17  1  0
 17 18  2  0
 18 19  1  0
 19 20  1  0
 20 21  1  0
 21 22  1  0
 22 23  1  0
 22 24  1  0
 24 25  1  0
 24 26  1  0
 19 27  1  0
 27 28  1  1
 27 29  1  0
 29 30  1  0
 30 31  1  0
 31 32  1  1
  7  5  1  0
 31 10  1  0
 31 13  1  0
 27 15  1  0
 24 18  1  0
  1 33  1  0
  1 34  1  0
  1 35  1  0
  2 36  1  6
  3 37  1  0
  3 38  1  0
  4 39  1  0
  4 40  1  0
  5 41  1  1
  8 42  1  0
  8 43  1  0
  8 44  1  0
  9 45  1  0
  9 46  1  0
  9 47  1  0
 10 48  1  6
 11 49  1  0
 11 50  1  0
 12 51  1  0
 12 52  1  0
 14 53  1  0
 14 54  1  0
 14 55  1  0
 15 56  1  1
 16 57  1  0
 16 58  1  0
 17 59  1  0
 19 60  1  6
 20 61  1  0
 20 62  1  0
 21 63  1  0
 21 64  1  0
 22 65  1  6
 23 66  1  0
 25 67  1  0
 25 68  1  0
 25 69  1  0
 26 70  1  0
 26 71  1  0
 26 72  1  0
 28 73  1  0
 28 74  1  0
 28 75  1  0
 29 76  1  0
 29 77  1  0
 30 78  1  0
 30 79  1  0
 32 80  1  0
 32 81  1  0
 32 82  1  0
M  END
>  <meeko>  (18) 
{"is_sidechain": [false], "intermolecular_energy": 2.731, "internal_energy": -0.839}

$$$$
