EPH_relaxed_0001_pdb2pqr_Repair_13_r2_0001_out
     RDKit          3D

 82 86  0  0  0  0  0  0  0  0999 V2000
   -1.5780    8.5430   -1.8570 C   0  0  0  0  0  0  0  0  0  0  0  0
   -2.0120    9.1360   -0.5130 C   0  0  2  0  0  0  0  0  0  0  0  0
   -3.4980    9.5450   -0.5120 C   0  0  0  0  0  0  0  0  0  0  0  0
   -4.4620    8.3650   -0.3570 C   0  0  0  0  0  0  0  0  0  0  0  0
   -5.1000    7.9960   -1.6620 C   0  0  2  0  0  0  0  0  0  0  0  0
   -6.3660    8.6220   -1.9070 O   0  0  0  0  0  0  0  0  0  0  0  0
   -6.3830    7.1920   -1.7680 C   0  0  0  0  0  0  0  0  0  0  0  0
   -7.1030    6.7090   -0.5480 C   0  0  0  0  0  0  0  0  0  0  0  0
   -6.6680    6.4650   -3.0450 C   0  0  0  0  0  0  0  0  0  0  0  0
   -1.1400   10.3380   -0.1690 C   0  0  1  0  0  0  0  0  0  0  0  0
   -0.0710   10.0120    0.9070 C   0  0  0  0  0  0  0  0  0  0  0  0
    1.1880   10.8460    0.5540 C   0  0  0  0  0  0  0  0  0  0  0  0
    0.6980   11.8630   -0.5030 C   0  0  1  0  0  0  0  0  0  0  0  0
    0.0190   13.0020    0.3210 C   0  0  0  0  0  0  0  0  0  0  0  0
    1.7840   12.4240   -1.4780 C   0  0  2  0  0  0  0  0  0  0  0  0
    2.9110   13.2270   -0.8060 C   0  0  0  0  0  0  0  0  0  0  0  0
    2.6640   14.6950   -0.6860 C   0  0  0  0  0  0  0  0  0  0  0  0
    1.7170   15.3850   -1.3480 C   0  0  0  0  0  0  0  0  0  0  0  0
    0.8350   14.7020   -2.4010 C   0  0  1  0  0  0  0  0  0  0  0  0
    0.7630   15.5890   -3.6710 C   0  0  0  0  0  0  0  0  0  0  0  0
    0.3090   17.0130   -3.3660 C   0  0  0  0  0  0  0  0  0  0  0  0
    1.2450   17.6790   -2.3600 C   0  0  2  0  0  0  0  0  0  0  0  0
    2.5260   17.8600   -2.9710 O   0  0  0  0  0  0  0  0  0  0  0  0
    1.4030   16.8710   -1.0420 C   0  0  0  0  0  0  0  0  0  0  0  0
    0.0850   16.9320   -0.2320 C   0  0  0  0  0  0  0  0  0  0  0  0
    2.4790   17.5780   -0.1740 C   0  0  0  0  0  0  0  0  0  0  0  0
    1.1960   13.1900   -2.7320 C   0  0  1  0  0  0  0  0  0  0  0  0
    2.2910   13.1350   -3.8410 C   0  0  0  0  0  0  0  0  0  0  0  0
   -0.0750   12.4760   -3.3270 C   0  0  0  0  0  0  0  0  0  0  0  0
   -1.0500   11.8380   -2.3180 C   0  0  0  0  0  0  0  0  0  0  0  0
   -0.3000   10.9580   -1.3140 C   0  0  2  0  0  0  0  0  0  0  0  0
    0.3750    9.7900   -2.1110 C   0  0  0  0  0  0  0  0  0  0  0  0
   -0.9367    7.6667   -1.6812 H   0  0  0  0  0  0  0  0  0  0  0  0
   -2.4676    8.2378   -2.4275 H   0  0  0  0  0  0  0  0  0  0  0  0
   -1.0180    9.2986   -2.4275 H   0  0  0  0  0  0  0  0  0  0  0  0
   -1.8845    8.3543    0.2503 H   0  0  0  0  0  0  0  0  0  0  0  0
   -3.6656   10.2421    0.3223 H   0  0  0  0  0  0  0  0  0  0  0  0
   -3.7057   10.0030   -1.4903 H   0  0  0  0  0  0  0  0  0  0  0  0
   -3.9047    7.4972    0.0255 H   0  0  0  0  0  0  0  0  0  0  0  0
   -5.2577    8.6615    0.3422 H   0  0  0  0  0  0  0  0  0  0  0  0
   -4.1152    7.8802   -2.1382 H   0  0  0  0  0  0  0  0  0  0  0  0
   -6.5774    7.0616    0.3516 H   0  0  0  0  0  0  0  0  0  0  0  0
   -8.1308    7.1011   -0.5495 H   0  0  0  0  0  0  0  0  0  0  0  0
   -7.1301    5.6093   -0.5495 H   0  0  0  0  0  0  0  0  0  0  0  0
   -7.0607    5.4632   -2.8168 H   0  0  0  0  0  0  0  0  0  0  0  0
   -7.4125    7.0266   -3.6283 H   0  0  0  0  0  0  0  0  0  0  0  0
   -5.7402    6.3710   -3.6283 H   0  0  0  0  0  0  0  0  0  0  0  0
   -1.9190   11.0455    0.1514 H   0  0  0  0  0  0  0  0  0  0  0  0
   -0.4413   10.2891    1.9050 H   0  0  0  0  0  0  0  0  0  0  0  0
    0.1591    8.9364    0.9219 H   0  0  0  0  0  0  0  0  0  0  0  0
    1.5718   11.3656    1.4443 H   0  0  0  0  0  0  0  0  0  0  0  0
    2.0119   10.2202    0.1805 H   0  0  0  0  0  0  0  0  0  0  0  0
    0.1398   12.7993    1.3954 H   0  0  0  0  0  0  0  0  0  0  0  0
    0.4908   13.9645    0.0741 H   0  0  0  0  0  0  0  0  0  0  0  0
   -1.0521   13.0447    0.0741 H   0  0  0  0  0  0  0  0  0  0  0  0
    2.2568   11.5064   -1.8581 H   0  0  0  0  0  0  0  0  0  0  0  0
    3.0589   12.8233    0.2065 H   0  0  0  0  0  0  0  0  0  0  0  0
    3.7915   13.1186   -1.4564 H   0  0  0  0  0  0  0  0  0  0  0  0
    3.3107   15.2599    0.0015 H   0  0  0  0  0  0  0  0  0  0  0  0
   -0.1646   14.6149   -1.9502 H   0  0  0  0  0  0  0  0  0  0  0  0
    1.7616   15.6283   -4.1306 H   0  0  0  0  0  0  0  0  0  0  0  0
    0.0220   15.1408   -4.3493 H   0  0  0  0  0  0  0  0  0  0  0  0
    0.3066   17.5977   -4.2977 H   0  0  0  0  0  0  0  0  0  0  0  0
   -0.7019   16.9749   -2.9341 H   0  0  0  0  0  0  0  0  0  0  0  0
    0.7978   18.6451   -2.0831 H   0  0  0  0  0  0  0  0  0  0  0  0
    2.5860   18.7860   -3.2600 H   0  0  0  0  0  0  0  0  0  0  0  0
    0.3149   16.9214    0.8437 H   0  0  0  0  0  0  0  0  0  0  0  0
   -0.4566   17.8562   -0.4821 H   0  0  0  0  0  0  0  0  0  0  0  0
   -0.5397   16.0618   -0.4821 H   0  0  0  0  0  0  0  0  0  0  0  0
    2.2486   17.4266    0.8909 H   0  0  0  0  0  0  0  0  0  0  0  0
    3.4685   17.1535   -0.3990 H   0  0  0  0  0  0  0  0  0  0  0  0
    2.4821   18.6547   -0.3990 H   0  0  0  0  0  0  0  0  0  0  0  0
    3.2850   13.0851   -3.3726 H   0  0  0  0  0  0  0  0  0  0  0  0
    2.1351   12.2436   -4.4663 H   0  0  0  0  0  0  0  0  0  0  0  0
    2.2252   14.0376   -4.4663 H   0  0  0  0  0  0  0  0  0  0  0  0
   -0.6369   13.2243   -3.9052 H   0  0  0  0  0  0  0  0  0  0  0  0
    0.3174   11.6358   -3.9187 H   0  0  0  0  0  0  0  0  0  0  0  0
   -1.5779   12.6352   -1.7741 H   0  0  0  0  0  0  0  0  0  0  0  0
   -1.7652   11.2102   -2.8696 H   0  0  0  0  0  0  0  0  0  0  0  0
    0.7969    9.0599   -1.4046 H   0  0  0  0  0  0  0  0  0  0  0  0
   -0.3766    9.2956   -2.7440 H   0  0  0  0  0  0  0  0  0  0  0  0
    1.1786   10.1944   -2.7440 H   0  0  0  0  0  0  0  0  0  0  0  0
  1  2  1  0
  2  3  1  0
  3  4  1  0
  4  5  1  0
  5  6  1  0
  6  7  1  0
  7  8  1  0
  7  9  1  0
  2 10  1  0
 10 11  1  0
 11 12  1  0
 12 13  1  0
 13 14  1  1
 13 15  1  0
 15 16  1  0
 16 17  1  0
 17 18  2  0
 18 19  1  0
 19 20  1  0
 20 21  1  0
 21 22  1  0
 22 23  1  0
 22 24  1  0
 24 25  1  0
 24 26  1  0
 19 27  1  0
 27 28  1  6
 27 29  1  0
 29 30  1  0
 30 31  1  0
 31 32  1  6
  7  5  1  0
 31 10  1  0
 31 13  1  0
 27 15  1  0
 24 18  1  0
  1 33  1  0
  1 34  1  0
  1 35  1  0
  2 36  1  1
  3 37  1  0
  3 38  1  0
  4 39  1  0
  4 40  1  0
  5 41  1  6
  8 42  1  0
  8 43  1  0
  8 44  1  0
  9 45  1  0
  9 46  1  0
  9 47  1  0
 10 48  1  1
 11 49  1  0
 11 50  1  0
 12 51  1  0
 12 52  1  0
 14 53  1  0
 14 54  1  0
 14 55  1  0
 15 56  1  6
 16 57  1  0
 16 58  1  0
 17 59  1  0
 19 60  1  1
 20 61  1  0
 20 62  1  0
 21 63  1  0
 21 64  1  0
 22 65  1  1
 23 66  1  0
 25 67  1  0
 25 68  1  0
 25 69  1  0
 26 70  1  0
 26 71  1  0
 26 72  1  0
 28 73  1  0
 28 74  1  0
 28 75  1  0
 29 76  1  0
 29 77  1  0
 30 78  1  0
 30 79  1  0
 32 80  1  0
 32 81  1  0
 32 82  1  0
M  END
>  <meeko>  (1) 
{"is_sidechain": [false], "intermolecular_energy": 2.731, "internal_energy": -0.839}

$$$$
EPH_relaxed_0001_pdb2pqr_Repair_13_r2_0001_out
     RDKit          3D

 82 86  0  0  0  0  0  0  0  0999 V2000
    1.9180   19.7100   -0.5210 C   0  0  0  0  0  0  0  0  0  0  0  0
    2.3430   18.4670    0.2650 C   0  0  2  0  0  0  0  0  0  0  0  0
    3.7970   18.0540   -0.0420 C   0  0  0  0  0  0  0  0  0  0  0  0
    4.7530   18.2430    1.1380 C   0  0  0  0  0  0  0  0  0  0  0  0
    4.1270   19.0490    2.2360 C   0  0  2  0  0  0  0  0  0  0  0  0
    4.8930   20.1860    2.6560 O   0  0  0  0  0  0  0  0  0  0  0  0
    4.7060   19.1510    3.6340 C   0  0  0  0  0  0  0  0  0  0  0  0
    5.9650   18.4360    4.0110 C   0  0  0  0  0  0  0  0  0  0  0  0
    3.7970   19.5410    4.7580 C   0  0  0  0  0  0  0  0  0  0  0  0
    1.3980   17.3100   -0.0400 C   0  0  1  0  0  0  0  0  0  0  0  0
    0.1400   17.7600   -0.8290 C   0  0  0  0  0  0  0  0  0  0  0  0
   -0.2230   16.5990   -1.7910 C   0  0  0  0  0  0  0  0  0  0  0  0
    0.6240   15.4030   -1.2960 C   0  0  1  0  0  0  0  0  0  0  0  0
   -0.1750   14.8190   -0.0890 C   0  0  0  0  0  0  0  0  0  0  0  0
    0.9520   14.3030   -2.3570 C   0  0  2  0  0  0  0  0  0  0  0  0
   -0.2700   13.5700   -2.9370 C   0  0  0  0  0  0  0  0  0  0  0  0
   -0.6840   12.3390   -2.2010 C   0  0  0  0  0  0  0  0  0  0  0  0
    0.0620   11.6830   -1.2940 C   0  0  0  0  0  0  0  0  0  0  0  0
    1.5040   12.1150   -0.9980 C   0  0  1  0  0  0  0  0  0  0  0  0
    2.4250   10.8670   -0.9820 C   0  0  0  0  0  0  0  0  0  0  0  0
    1.9320    9.7880   -0.0230 C   0  0  0  0  0  0  0  0  0  0  0  0
    0.5170    9.3430   -0.3850 C   0  0  2  0  0  0  0  0  0  0  0  0
    0.5530    8.6760   -1.6500 O   0  0  0  0  0  0  0  0  0  0  0  0
   -0.4990   10.5170   -0.4410 C   0  0  0  0  0  0  0  0  0  0  0  0
   -0.7640   11.0460    0.9900 C   0  0  0  0  0  0  0  0  0  0  0  0
   -1.8520    9.9540   -0.9540 C   0  0  0  0  0  0  0  0  0  0  0  0
    2.0770   13.2850   -1.9080 C   0  0  1  0  0  0  0  0  0  0  0  0
    2.6880   12.6920   -3.2150 C   0  0  0  0  0  0  0  0  0  0  0  0
    3.2590   13.9950   -1.1480 C   0  0  0  0  0  0  0  0  0  0  0  0
    2.8810   15.1540   -0.2050 C   0  0  0  0  0  0  0  0  0  0  0  0
    1.9510   16.1490   -0.9040 C   0  0  2  0  0  0  0  0  0  0  0  0
    2.7350   16.7700   -2.1110 C   0  0  0  0  0  0  0  0  0  0  0  0
    1.6439   20.5116    0.1807 H   0  0  0  0  0  0  0  0  0  0  0  0
    2.7522   20.0464   -1.1542 H   0  0  0  0  0  0  0  0  0  0  0  0
    1.0525   19.4652   -1.1542 H   0  0  0  0  0  0  0  0  0  0  0  0
    2.2899   18.7186    1.3345 H   0  0  0  0  0  0  0  0  0  0  0  0
    3.8033   16.9916   -0.3272 H   0  0  0  0  0  0  0  0  0  0  0  0
    4.1527   18.7083   -0.8515 H   0  0  0  0  0  0  0  0  0  0  0  0
    5.0295   17.2549    1.5345 H   0  0  0  0  0  0  0  0  0  0  0  0
    5.6394   18.7855    0.7774 H   0  0  0  0  0  0  0  0  0  0  0  0
    3.1183   18.8050    1.8712 H   0  0  0  0  0  0  0  0  0  0  0  0
    6.0463   18.3898    5.1070 H   0  0  0  0  0  0  0  0  0  0  0  0
    5.9436   17.4153    3.6016 H   0  0  0  0  0  0  0  0  0  0  0  0
    6.8307   18.9772    3.6016 H   0  0  0  0  0  0  0  0  0  0  0  0
    4.2899   19.3295    5.7184 H   0  0  0  0  0  0  0  0  0  0  0  0
    3.5708   20.6154    4.6907 H   0  0  0  0  0  0  0  0  0  0  0  0
    2.8625   18.9646    4.6907 H   0  0  0  0  0  0  0  0  0  0  0  0
    1.2020   16.9563    0.9830 H   0  0  0  0  0  0  0  0  0  0  0  0
   -0.6927   17.9527   -0.1366 H   0  0  0  0  0  0  0  0  0  0  0  0
    0.3339   18.6886   -1.3858 H   0  0  0  0  0  0  0  0  0  0  0  0
   -1.2964   16.3660   -1.7309 H   0  0  0  0  0  0  0  0  0  0  0  0
   -0.0178   16.8488   -2.8424 H   0  0  0  0  0  0  0  0  0  0  0  0
    0.2848   15.1550    0.8521 H   0  0  0  0  0  0  0  0  0  0  0  0
   -1.2164   15.1703   -0.1342 H   0  0  0  0  0  0  0  0  0  0  0  0
   -0.1564   13.7201   -0.1342 H   0  0  0  0  0  0  0  0  0  0  0  0
    1.3676   14.8929   -3.1872 H   0  0  0  0  0  0  0  0  0  0  0  0
   -1.1189   14.2695   -2.9339 H   0  0  0  0  0  0  0  0  0  0  0  0
    0.0239   13.2382   -3.9437 H   0  0  0  0  0  0  0  0  0  0  0  0
   -1.6834   11.9342   -2.4187 H   0  0  0  0  0  0  0  0  0  0  0  0
    1.4850   12.5773   -0.0001 H   0  0  0  0  0  0  0  0  0  0  0  0
    2.4647   10.4451   -1.9971 H   0  0  0  0  0  0  0  0  0  0  0  0
    3.4188   11.1900   -0.6385 H   0  0  0  0  0  0  0  0  0  0  0  0
    2.6073    8.9214   -0.0779 H   0  0  0  0  0  0  0  0  0  0  0  0
    1.9205   10.2019    0.9961 H   0  0  0  0  0  0  0  0  0  0  0  0
    0.1702    8.6669    0.4103 H   0  0  0  0  0  0  0  0  0  0  0  0
    1.4270    8.2590   -1.7390 H   0  0  0  0  0  0  0  0  0  0  0  0
   -0.3975   10.3144    1.7251 H   0  0  0  0  0  0  0  0  0  0  0  0
   -0.2384   12.0020    1.1307 H   0  0  0  0  0  0  0  0  0  0  0  0
   -1.8444   11.1974    1.1307 H   0  0  0  0  0  0  0  0  0  0  0  0
   -2.4879    9.6894   -0.0963 H   0  0  0  0  0  0  0  0  0  0  0  0
   -2.3584   10.7161   -1.5646 H   0  0  0  0  0  0  0  0  0  0  0  0
   -1.6683    9.0576   -1.5646 H   0  0  0  0  0  0  0  0  0  0  0  0
    3.4552   11.9474   -2.9561 H   0  0  0  0  0  0  0  0  0  0  0  0
    1.8943   12.2107   -3.8053 H   0  0  0  0  0  0  0  0  0  0  0  0
    3.1454   13.4997   -3.8053 H   0  0  0  0  0  0  0  0  0  0  0  0
    3.7747   13.2315   -0.5471 H   0  0  0  0  0  0  0  0  0  0  0  0
    3.8742   14.4536   -1.9362 H   0  0  0  0  0  0  0  0  0  0  0  0
    2.3712   14.7459    0.6802 H   0  0  0  0  0  0  0  0  0  0  0  0
    3.8008   15.6809    0.0888 H   0  0  0  0  0  0  0  0  0  0  0  0
    3.5444   17.4111   -1.7316 H   0  0  0  0  0  0  0  0  0  0  0  0
    3.1631   15.9633   -2.7242 H   0  0  0  0  0  0  0  0  0  0  0  0
    2.0477   17.3714   -2.7242 H   0  0  0  0  0  0  0  0  0  0  0  0
  1  2  1  0
  2  3  1  0
  3  4  1  0
  4  5  1  0
  5  6  1  0
  6  7  1  0
  7  8  1  0
  7  9  1  0
  2 10  1  0
 10 11  1  0
 11 12  1  0
 12 13  1  0
 13 14  1  1
 13 15  1  0
 15 16  1  0
 16 17  1  0
 17 18  2  0
 18 19  1  0
 19 20  1  0
 20 21  1  0
 21 22  1  0
 22 23  1  0
 22 24  1  0
 24 25  1  0
 24 26  1  0
 19 27  1  0
 27 28  1  6
 27 29  1  0
 29 30  1  0
 30 31  1  0
 31 32  1  6
  7  5  1  0
 31 10  1  0
 31 13  1  0
 27 15  1  0
 24 18  1  0
  1 33  1  0
  1 34  1  0
  1 35  1  0
  2 36  1  1
  3 37  1  0
  3 38  1  0
  4 39  1  0
  4 40  1  0
  5 41  1  1
  8 42  1  0
  8 43  1  0
  8 44  1  0
  9 45  1  0
  9 46  1  0
  9 47  1  0
 10 48  1  1
 11 49  1  0
 11 50  1  0
 12 51  1  0
 12 52  1  0
 14 53  1  0
 14 54  1  0
 14 55  1  0
 15 56  1  6
 16 57  1  0
 16 58  1  0
 17 59  1  0
 19 60  1  1
 20 61  1  0
 20 62  1  0
 21 63  1  0
 21 64  1  0
 22 65  1  1
 23 66  1  0
 25 67  1  0
 25 68  1  0
 25 69  1  0
 26 70  1  0
 26 71  1  0
 26 72  1  0
 28 73  1  0
 28 74  1  0
 28 75  1  0
 29 76  1  0
 29 77  1  0
 30 78  1  0
 30 79  1  0
 32 80  1  0
 32 81  1  0
 32 82  1  0
M  END
>  <meeko>  (2) 
{"is_sidechain": [false], "intermolecular_energy": 2.731, "internal_energy": -0.839}

$$$$
EPH_relaxed_0001_pdb2pqr_Repair_13_r2_0001_out
     RDKit          3D

 82 86  0  0  0  0  0  0  0  0999 V2000
    0.3910   18.4190    0.0010 C   0  0  0  0  0  0  0  0  0  0  0  0
    1.4850   17.3740   -0.2370 C   0  0  2  0  0  0  0  0  0  0  0  0
    2.6840   17.9540   -1.0130 C   0  0  0  0  0  0  0  0  0  0  0  0
    3.9210   18.1960   -0.1440 C   0  0  0  0  0  0  0  0  0  0  0  0
    3.5500   18.6550    1.2340 C   0  0  2  0  0  0  0  0  0  0  0  0
    3.8080   20.0420    1.4920 O   0  0  0  0  0  0  0  0  0  0  0  0
    4.5660   19.1000    2.2690 C   0  0  0  0  0  0  0  0  0  0  0  0
    6.0330   19.1060    1.9710 C   0  0  0  0  0  0  0  0  0  0  0  0
    4.1780   19.0620    3.7140 C   0  0  0  0  0  0  0  0  0  0  0  0
    0.9080   16.1790   -0.9870 C   0  0  1  0  0  0  0  0  0  0  0  0
    0.7450   16.4500   -2.5060 C   0  0  0  0  0  0  0  0  0  0  0  0
    1.0330   15.1110   -3.2320 C   0  0  0  0  0  0  0  0  0  0  0  0
    1.0250   14.0480   -2.1090 C   0  0  1  0  0  0  0  0  0  0  0  0
   -0.4840   13.7350   -1.8640 C   0  0  0  0  0  0  0  0  0  0  0  0
    1.8480   12.7470   -2.3830 C   0  0  2  0  0  0  0  0  0  0  0  0
    1.3620   11.9070   -3.5770 C   0  0  0  0  0  0  0  0  0  0  0  0
    0.3480   10.8610   -3.2510 C   0  0  0  0  0  0  0  0  0  0  0  0
    0.0560   10.4130   -2.0160 C   0  0  0  0  0  0  0  0  0  0  0  0
    0.8470   10.8980   -0.7940 C   0  0  1  0  0  0  0  0  0  0  0  0
    1.2340    9.6830    0.0880 C   0  0  0  0  0  0  0  0  0  0  0  0
    0.0280    8.8330    0.4750 C   0  0  0  0  0  0  0  0  0  0  0  0
   -0.6990    8.3210   -0.7660 C   0  0  2  0  0  0  0  0  0  0  0  0
    0.1540    7.3990   -1.4520 O   0  0  0  0  0  0  0  0  0  0  0  0
   -1.1290    9.4560   -1.7360 C   0  0  0  0  0  0  0  0  0  0  0  0
   -2.2770   10.2780   -1.0990 C   0  0  0  0  0  0  0  0  0  0  0  0
   -1.7230    8.7960   -3.0100 C   0  0  0  0  0  0  0  0  0  0  0  0
    2.0840   11.8480   -1.1020 C   0  0  1  0  0  0  0  0  0  0  0  0
    3.3550   10.9900   -1.3890 C   0  0  0  0  0  0  0  0  0  0  0  0
    2.4060   12.7040    0.1790 C   0  0  0  0  0  0  0  0  0  0  0  0
    1.6480   14.0370    0.3320 C   0  0  0  0  0  0  0  0  0  0  0  0
    1.7210   14.8600   -0.9570 C   0  0  2  0  0  0  0  0  0  0  0  0
    3.2260   15.2090   -1.2170 C   0  0  0  0  0  0  0  0  0  0  0  0
    0.2456   18.5579    1.0825 H   0  0  0  0  0  0  0  0  0  0  0  0
    0.6912   19.3743   -0.4543 H   0  0  0  0  0  0  0  0  0  0  0  0
   -0.5496   18.0754   -0.4543 H   0  0  0  0  0  0  0  0  0  0  0  0
    1.8544   17.0520    0.7478 H   0  0  0  0  0  0  0  0  0  0  0  0
    2.9541   17.2486   -1.8127 H   0  0  0  0  0  0  0  0  0  0  0  0
    2.3701   18.9328   -1.4048 H   0  0  0  0  0  0  0  0  0  0  0  0
    4.4907   17.2583   -0.0660 H   0  0  0  0  0  0  0  0  0  0  0  0
    4.5234   18.9853   -0.6175 H   0  0  0  0  0  0  0  0  0  0  0  0
    2.7207   17.9337    1.2772 H   0  0  0  0  0  0  0  0  0  0  0  0
    6.5988   19.1083    2.9143 H   0  0  0  0  0  0  0  0  0  0  0  0
    6.2928   18.2089    1.3898 H   0  0  0  0  0  0  0  0  0  0  0  0
    6.2854   20.0052    1.3898 H   0  0  0  0  0  0  0  0  0  0  0  0
    5.0795   19.1503    4.3381 H   0  0  0  0  0  0  0  0  0  0  0  0
    3.4971   19.8978    3.9329 H   0  0  0  0  0  0  0  0  0  0  0  0
    3.6722   18.1100    3.9329 H   0  0  0  0  0  0  0  0  0  0  0  0
   -0.0347   16.0520   -0.4346 H   0  0  0  0  0  0  0  0  0  0  0  0
   -0.2797   16.7860   -2.7231 H   0  0  0  0  0  0  0  0  0  0  0  0
    1.4341   17.2384   -2.8430 H   0  0  0  0  0  0  0  0  0  0  0  0
    0.2510   14.8964   -3.9753 H   0  0  0  0  0  0  0  0  0  0  0  0
    1.9863   15.1308   -3.7805 H   0  0  0  0  0  0  0  0  0  0  0  0
   -0.6791   13.6945   -0.7822 H   0  0  0  0  0  0  0  0  0  0  0  0
   -1.1007   14.5243   -2.3185 H   0  0  0  0  0  0  0  0  0  0  0  0
   -0.7359   12.7655   -2.3185 H   0  0  0  0  0  0  0  0  0  0  0  0
    2.8295   13.1463   -2.6784 H   0  0  0  0  0  0  0  0  0  0  0  0
    0.9190   12.5911   -4.3158 H   0  0  0  0  0  0  0  0  0  0  0  0
    2.2457   11.3681   -3.9493 H   0  0  0  0  0  0  0  0  0  0  0  0
   -0.2075   10.4190   -4.0913 H   0  0  0  0  0  0  0  0  0  0  0  0
    0.1698   11.5621   -0.2369 H   0  0  0  0  0  0  0  0  0  0  0  0
    1.9440    9.0545   -0.4696 H   0  0  0  0  0  0  0  0  0  0  0  0
    1.6794   10.0722    1.0154 H   0  0  0  0  0  0  0  0  0  0  0  0
    0.3693    7.9746    1.0722 H   0  0  0  0  0  0  0  0  0  0  0  0
   -0.6674    9.4547    1.0580 H   0  0  0  0  0  0  0  0  0  0  0  0
   -1.6239    7.8307   -0.4279 H   0  0  0  0  0  0  0  0  0  0  0  0
    0.8100    7.0730   -0.8130 H   0  0  0  0  0  0  0  0  0  0  0  0
   -2.2020   10.2243   -0.0029 H   0  0  0  0  0  0  0  0  0  0  0  0
   -2.1993   11.3270   -1.4209 H   0  0  0  0  0  0  0  0  0  0  0  0
   -3.2450    9.8665   -1.4209 H   0  0  0  0  0  0  0  0  0  0  0  0
   -2.4324    8.0077   -2.7178 H   0  0  0  0  0  0  0  0  0  0  0  0
   -2.2463    9.5572   -3.6073 H   0  0  0  0  0  0  0  0  0  0  0  0
   -0.9111    8.3555   -3.6073 H   0  0  0  0  0  0  0  0  0  0  0  0
    3.8118   10.6816   -0.4371 H   0  0  0  0  0  0  0  0  0  0  0  0
    3.0721   10.0973   -1.9661 H   0  0  0  0  0  0  0  0  0  0  0  0
    4.0772   11.5861   -1.9661 H   0  0  0  0  0  0  0  0  0  0  0  0
    2.1740   12.0863    1.0591 H   0  0  0  0  0  0  0  0  0  0  0  0
    3.4649   12.9846    0.0792 H   0  0  0  0  0  0  0  0  0  0  0  0
    0.5938   13.8268    0.5655 H   0  0  0  0  0  0  0  0  0  0  0  0
    2.1144   14.6145    1.1438 H   0  0  0  0  0  0  0  0  0  0  0  0
    3.7459   15.3296   -0.2551 H   0  0  0  0  0  0  0  0  0  0  0  0
    3.6973   14.3963   -1.7892 H   0  0  0  0  0  0  0  0  0  0  0  0
    3.2915   16.1462   -1.7892 H   0  0  0  0  0  0  0  0  0  0  0  0
  1  2  1  0
  2  3  1  0
  3  4  1  0
  4  5  1  0
  5  6  1  0
  6  7  1  0
  7  8  1  0
  7  9  1  0
  2 10  1  0
 10 11  1  0
 11 12  1  0
 12 13  1  0
 13 14  1  1
 13 15  1  0
 15 16  1  0
 16 17  1  0
 17 18  2  0
 18 19  1  0
 19 20  1  0
 20 21  1  0
 21 22  1  0
 22 23  1  0
 22 24  1  0
 24 25  1  0
 24 26  1  0
 19 27  1  0
 27 28  1  6
 27 29  1  0
 29 30  1  0
 30 31  1  0
 31 32  1  6
  7  5  1  0
 31 10  1  0
 31 13  1  0
 27 15  1  0
 24 18  1  0
  1 33  1  0
  1 34  1  0
  1 35  1  0
  2 36  1  1
  3 37  1  0
  3 38  1  0
  4 39  1  0
  4 40  1  0
  5 41  1  1
  8 42  1  0
  8 43  1  0
  8 44  1  0
  9 45  1  0
  9 46  1  0
  9 47  1  0
 10 48  1  1
 11 49  1  0
 11 50  1  0
 12 51  1  0
 12 52  1  0
 14 53  1  0
 14 54  1  0
 14 55  1  0
 15 56  1  6
 16 57  1  0
 16 58  1  0
 17 59  1  0
 19 60  1  1
 20 61  1  0
 20 62  1  0
 21 63  1  0
 21 64  1  0
 22 65  1  1
 23 66  1  0
 25 67  1  0
 25 68  1  0
 25 69  1  0
 26 70  1  0
 26 71  1  0
 26 72  1  0
 28 73  1  0
 28 74  1  0
 28 75  1  0
 29 76  1  0
 29 77  1  0
 30 78  1  0
 30 79  1  0
 32 80  1  0
 32 81  1  0
 32 82  1  0
M  END
>  <meeko>  (3) 
{"is_sidechain": [false], "intermolecular_energy": 2.731, "internal_energy": -0.839}

$$$$
EPH_relaxed_0001_pdb2pqr_Repair_13_r2_0001_out
     RDKit          3D

 82 86  0  0  0  0  0  0  0  0999 V2000
    2.5450   17.9370   -2.6340 C   0  0  0  0  0  0  0  0  0  0  0  0
    1.2210   17.6020   -1.9430 C   0  0  2  0  0  0  0  0  0  0  0  0
    1.3360   17.6580   -0.4070 C   0  0  0  0  0  0  0  0  0  0  0  0
    1.0690   19.0460    0.1810 C   0  0  0  0  0  0  0  0  0  0  0  0
   -0.3590   19.2010    0.6100 C   0  0  2  0  0  0  0  0  0  0  0  0
   -1.2580   18.2280    0.0610 O   0  0  0  0  0  0  0  0  0  0  0  0
   -1.4790   19.5910   -0.3360 C   0  0  0  0  0  0  0  0  0  0  0  0
   -1.2200   19.8530   -1.7860 C   0  0  0  0  0  0  0  0  0  0  0  0
   -2.7240   20.1920    0.2390 C   0  0  0  0  0  0  0  0  0  0  0  0
    0.7410   16.2230   -2.3800 C   0  0  1  0  0  0  0  0  0  0  0  0
    0.7830   16.0350   -3.9200 C   0  0  0  0  0  0  0  0  0  0  0  0
    1.1570   14.5540   -4.1800 C   0  0  0  0  0  0  0  0  0  0  0  0
    0.9940   13.8630   -2.8060 C   0  0  1  0  0  0  0  0  0  0  0  0
   -0.5360   13.5840   -2.6770 C   0  0  0  0  0  0  0  0  0  0  0  0
    1.8380   12.5660   -2.5800 C   0  0  2  0  0  0  0  0  0  0  0  0
    1.5100   11.4000   -3.5300 C   0  0  0  0  0  0  0  0  0  0  0  0
    0.4550   10.4610   -3.0460 C   0  0  0  0  0  0  0  0  0  0  0  0
   -0.0000   10.3810   -1.7820 C   0  0  0  0  0  0  0  0  0  0  0  0
    0.6250   11.2260   -0.6640 C   0  0  1  0  0  0  0  0  0  0  0  0
    0.8840   10.3320    0.5770 C   0  0  0  0  0  0  0  0  0  0  0  0
   -0.3680    9.5910    1.0360 C   0  0  0  0  0  0  0  0  0  0  0  0
   -0.9260    8.7170   -0.0840 C   0  0  2  0  0  0  0  0  0  0  0  0
    0.0050    7.6650   -0.3560 O   0  0  0  0  0  0  0  0  0  0  0  0
   -1.2180    9.5080   -1.3900 C   0  0  0  0  0  0  0  0  0  0  0  0
   -2.4350   10.4400   -1.1740 C   0  0  0  0  0  0  0  0  0  0  0  0
   -1.6410    8.4870   -2.4810 C   0  0  0  0  0  0  0  0  0  0  0  0
    1.8970   12.0850   -1.0740 C   0  0  1  0  0  0  0  0  0  0  0  0
    3.1890   11.2240   -0.9310 C   0  0  0  0  0  0  0  0  0  0  0  0
    2.0510   13.2870   -0.0680 C   0  0  0  0  0  0  0  0  0  0  0  0
    1.2870   14.5810   -0.4090 C   0  0  0  0  0  0  0  0  0  0  0  0
    1.5350   14.9970   -1.8620 C   0  0  2  0  0  0  0  0  0  0  0  0
    3.0640   15.3050   -2.0170 C   0  0  0  0  0  0  0  0  0  0  0  0
    3.3161   18.1321   -1.8741 H   0  0  0  0  0  0  0  0  0  0  0  0
    2.8555   17.0891   -3.2622 H   0  0  0  0  0  0  0  0  0  0  0  0
    2.4149   18.8305   -3.2622 H   0  0  0  0  0  0  0  0  0  0  0  0
    0.4880   18.3641   -2.2461 H   0  0  0  0  0  0  0  0  0  0  0  0
    0.6078   16.9536    0.0215 H   0  0  0  0  0  0  0  0  0  0  0  0
    2.3737   17.3960   -0.1531 H   0  0  0  0  0  0  0  0  0  0  0  0
    1.7216   19.1950    1.0539 H   0  0  0  0  0  0  0  0  0  0  0  0
    1.2761   19.7942   -0.5983 H   0  0  0  0  0  0  0  0  0  0  0  0
   -0.0470   19.5978    1.5873 H   0  0  0  0  0  0  0  0  0  0  0  0
   -0.4499   20.6320   -1.8860 H   0  0  0  0  0  0  0  0  0  0  0  0
   -0.8711   18.9284   -2.2691 H   0  0  0  0  0  0  0  0  0  0  0  0
   -2.1486   20.1912   -2.2691 H   0  0  0  0  0  0  0  0  0  0  0  0
   -2.6702   20.1660    1.3374 H   0  0  0  0  0  0  0  0  0  0  0  0
   -2.8178   21.2346   -0.0990 H   0  0  0  0  0  0  0  0  0  0  0  0
   -3.5987   19.6169   -0.0990 H   0  0  0  0  0  0  0  0  0  0  0  0
   -0.2678   16.2318   -1.9416 H   0  0  0  0  0  0  0  0  0  0  0  0
   -0.2018   16.2590   -4.3559 H   0  0  0  0  0  0  0  0  0  0  0  0
    1.5157   16.7139   -4.3807 H   0  0  0  0  0  0  0  0  0  0  0  0
    0.4793   14.1070   -4.9222 H   0  0  0  0  0  0  0  0  0  0  0  0
    2.1747   14.4455   -4.5832 H   0  0  0  0  0  0  0  0  0  0  0  0
   -0.8111   13.5338   -1.6131 H   0  0  0  0  0  0  0  0  0  0  0  0
   -1.0988   14.3943   -3.1635 H   0  0  0  0  0  0  0  0  0  0  0  0
   -0.7765   12.6272   -3.1635 H   0  0  0  0  0  0  0  0  0  0  0  0
    2.8524   12.8951   -2.8498 H   0  0  0  0  0  0  0  0  0  0  0  0
    1.1734   11.8255   -4.4869 H   0  0  0  0  0  0  0  0  0  0  0  0
    2.4320   10.8058   -3.6124 H   0  0  0  0  0  0  0  0  0  0  0  0
    0.0123    9.7769   -3.7849 H   0  0  0  0  0  0  0  0  0  0  0  0
   -0.1156   12.0010   -0.4173 H   0  0  0  0  0  0  0  0  0  0  0  0
    1.6582    9.5928    0.3236 H   0  0  0  0  0  0  0  0  0  0  0  0
    1.2042   10.9879    1.3999 H   0  0  0  0  0  0  0  0  0  0  0  0
   -0.1145    8.9548    1.8968 H   0  0  0  0  0  0  0  0  0  0  0  0
   -1.1313   10.3317    1.3167 H   0  0  0  0  0  0  0  0  0  0  0  0
   -1.8897    8.3142    0.2609 H   0  0  0  0  0  0  0  0  0  0  0  0
    0.8630    8.0760   -0.5550 H   0  0  0  0  0  0  0  0  0  0  0  0
   -2.6084   10.5728   -0.0959 H   0  0  0  0  0  0  0  0  0  0  0  0
   -2.2346   11.4178   -1.6363 H   0  0  0  0  0  0  0  0  0  0  0  0
   -3.3268    9.9917   -1.6363 H   0  0  0  0  0  0  0  0  0  0  0  0
   -2.0197    7.5728   -2.0005 H   0  0  0  0  0  0  0  0  0  0  0  0
   -2.4312    8.9263   -3.1076 H   0  0  0  0  0  0  0  0  0  0  0  0
   -0.7717    8.2387   -3.1076 H   0  0  0  0  0  0  0  0  0  0  0  0
    3.4137   11.0743    0.1353 H   0  0  0  0  0  0  0  0  0  0  0  0
    3.0343   10.2478   -1.4137 H   0  0  0  0  0  0  0  0  0  0  0  0
    4.0305   11.7425   -1.4137 H   0  0  0  0  0  0  0  0  0  0  0  0
    1.7010   12.9437    0.9167 H   0  0  0  0  0  0  0  0  0  0  0  0
    3.1153   13.5620   -0.1090 H   0  0  0  0  0  0  0  0  0  0  0  0
    0.2100   14.4125   -0.2617 H   0  0  0  0  0  0  0  0  0  0  0  0
    1.6448   15.3842    0.2519 H   0  0  0  0  0  0  0  0  0  0  0  0
    3.5222   15.3973   -1.0213 H   0  0  0  0  0  0  0  0  0  0  0  0
    3.5488   14.4865   -2.5693 H   0  0  0  0  0  0  0  0  0  0  0  0
    3.1941   16.2474   -2.5693 H   0  0  0  0  0  0  0  0  0  0  0  0
  1  2  1  0
  2  3  1  0
  3  4  1  0
  4  5  1  0
  5  6  1  0
  6  7  1  0
  7  8  1  0
  7  9  1  0
  2 10  1  0
 10 11  1  0
 11 12  1  0
 12 13  1  0
 13 14  1  1
 13 15  1  0
 15 16  1  0
 16 17  1  0
 17 18  2  0
 18 19  1  0
 19 20  1  0
 20 21  1  0
 21 22  1  0
 22 23  1  0
 22 24  1  0
 24 25  1  0
 24 26  1  0
 19 27  1  0
 27 28  1  6
 27 29  1  0
 29 30  1  0
 30 31  1  0
 31 32  1  1
  7  5  1  0
 31 10  1  0
 31 13  1  0
 27 15  1  0
 24 18  1  0
  1 33  1  0
  1 34  1  0
  1 35  1  0
  2 36  1  6
  3 37  1  0
  3 38  1  0
  4 39  1  0
  4 40  1  0
  5 41  1  1
  8 42  1  0
  8 43  1  0
  8 44  1  0
  9 45  1  0
  9 46  1  0
  9 47  1  0
 10 48  1  1
 11 49  1  0
 11 50  1  0
 12 51  1  0
 12 52  1  0
 14 53  1  0
 14 54  1  0
 14 55  1  0
 15 56  1  6
 16 57  1  0
 16 58  1  0
 17 59  1  0
 19 60  1  1
 20 61  1  0
 20 62  1  0
 21 63  1  0
 21 64  1  0
 22 65  1  1
 23 66  1  0
 25 67  1  0
 25 68  1  0
 25 69  1  0
 26 70  1  0
 26 71  1  0
 26 72  1  0
 28 73  1  0
 28 74  1  0
 28 75  1  0
 29 76  1  0
 29 77  1  0
 30 78  1  0
 30 79  1  0
 32 80  1  0
 32 81  1  0
 32 82  1  0
M  END
>  <meeko>  (4) 
{"is_sidechain": [false], "intermolecular_energy": 2.731, "internal_energy": -0.839}

$$$$
EPH_relaxed_0001_pdb2pqr_Repair_13_r2_0001_out
     RDKit          3D

 82 86  0  0  0  0  0  0  0  0999 V2000
   -5.1810    5.8490   -1.6070 C   0  0  0  0  0  0  0  0  0  0  0  0
   -5.4420    7.3490   -1.7710 C   0  0  2  0  0  0  0  0  0  0  0  0
   -5.1900    8.1280   -0.4640 C   0  0  0  0  0  0  0  0  0  0  0  0
   -4.1230    9.2180   -0.5940 C   0  0  0  0  0  0  0  0  0  0  0  0
   -2.7940    8.6490   -0.9890 C   0  0  2  0  0  0  0  0  0  0  0  0
   -1.7530    8.8320   -0.0210 O   0  0  0  0  0  0  0  0  0  0  0  0
   -1.5720    9.5000   -1.2800 C   0  0  0  0  0  0  0  0  0  0  0  0
   -1.6220   10.9930   -1.1900 C   0  0  0  0  0  0  0  0  0  0  0  0
   -0.4780    8.9180   -2.1200 C   0  0  0  0  0  0  0  0  0  0  0  0
   -6.8720    7.5780   -2.2460 C   0  0  1  0  0  0  0  0  0  0  0  0
   -7.1680    6.8890   -3.6050 C   0  0  0  0  0  0  0  0  0  0  0  0
   -8.6440    6.4170   -3.5550 C   0  0  0  0  0  0  0  0  0  0  0  0
   -9.2410    7.1330   -2.3210 C   0  0  1  0  0  0  0  0  0  0  0  0
   -9.5860    8.5710   -2.8200 C   0  0  0  0  0  0  0  0  0  0  0  0
  -10.4740    6.4430   -1.6510 C   0  0  2  0  0  0  0  0  0  0  0  0
  -11.7200    6.3220   -2.5460 C   0  0  0  0  0  0  0  0  0  0  0  0
  -12.6740    7.4680   -2.4680 C   0  0  0  0  0  0  0  0  0  0  0  0
  -12.6850    8.4120   -1.5090 C   0  0  0  0  0  0  0  0  0  0  0  0
  -11.7320    8.3290   -0.3100 C   0  0  1  0  0  0  0  0  0  0  0  0
  -12.5190    8.6030    0.9980 C   0  0  0  0  0  0  0  0  0  0  0  0
  -13.2870    9.9200    0.9540 C   0  0  0  0  0  0  0  0  0  0  0  0
  -14.2670    9.9420   -0.2170 C   0  0  2  0  0  0  0  0  0  0  0  0
  -15.2870    8.9660    0.0180 O   0  0  0  0  0  0  0  0  0  0  0  0
  -13.5880    9.6680   -1.5880 C   0  0  0  0  0  0  0  0  0  0  0  0
  -12.7060   10.8780   -1.9830 C   0  0  0  0  0  0  0  0  0  0  0  0
  -14.7050    9.5770   -2.6640 C   0  0  0  0  0  0  0  0  0  0  0  0
  -10.8410    7.0160   -0.2230 C   0  0  1  0  0  0  0  0  0  0  0  0
  -11.6230    5.8910    0.5210 C   0  0  0  0  0  0  0  0  0  0  0  0
   -9.5630    7.3190    0.6470 C   0  0  0  0  0  0  0  0  0  0  0  0
   -8.3380    7.8880   -0.0930 C   0  0  0  0  0  0  0  0  0  0  0  0
   -8.0150    7.0570   -1.3400 C   0  0  2  0  0  0  0  0  0  0  0  0
   -7.6420    5.6110   -0.8670 C   0  0  0  0  0  0  0  0  0  0  0  0
   -5.1375    5.5993   -0.5366 H   0  0  0  0  0  0  0  0  0  0  0  0
   -5.9938    5.2812   -2.0833 H   0  0  0  0  0  0  0  0  0  0  0  0
   -4.2241    5.5891   -2.0833 H   0  0  0  0  0  0  0  0  0  0  0  0
   -4.7348    7.7283   -2.5233 H   0  0  0  0  0  0  0  0  0  0  0  0
   -6.1336    8.6008   -0.1539 H   0  0  0  0  0  0  0  0  0  0  0  0
   -4.8209    7.4032    0.2765 H   0  0  0  0  0  0  0  0  0  0  0  0
   -4.4430    9.9405   -1.3592 H   0  0  0  0  0  0  0  0  0  0  0  0
   -4.0097    9.7053    0.3857 H   0  0  0  0  0  0  0  0  0  0  0  0
   -3.2818    7.8411   -1.5541 H   0  0  0  0  0  0  0  0  0  0  0  0
   -1.6322   11.2965   -0.1327 H   0  0  0  0  0  0  0  0  0  0  0  0
   -0.7377   11.4200   -1.6856 H   0  0  0  0  0  0  0  0  0  0  0  0
   -2.5329   11.3599   -1.6856 H   0  0  0  0  0  0  0  0  0  0  0  0
    0.3037    8.5021   -1.4673 H   0  0  0  0  0  0  0  0  0  0  0  0
   -0.8887    8.1192   -2.7550 H   0  0  0  0  0  0  0  0  0  0  0  0
   -0.0451    9.7050   -2.7550 H   0  0  0  0  0  0  0  0  0  0  0  0
   -6.8833    8.6777   -2.2709 H   0  0  0  0  0  0  0  0  0  0  0  0
   -7.0262    7.6024   -4.4302 H   0  0  0  0  0  0  0  0  0  0  0  0
   -6.4878    6.0413   -3.7745 H   0  0  0  0  0  0  0  0  0  0  0  0
   -9.1772    6.7119   -4.4708 H   0  0  0  0  0  0  0  0  0  0  0  0
   -8.7298    5.3226   -3.4843 H   0  0  0  0  0  0  0  0  0  0  0  0
   -9.7444    9.2313   -1.9546 H   0  0  0  0  0  0  0  0  0  0  0  0
   -8.7550    8.9572   -3.4286 H   0  0  0  0  0  0  0  0  0  0  0  0
  -10.5017    8.5381   -3.4286 H   0  0  0  0  0  0  0  0  0  0  0  0
  -10.1148    5.4145   -1.4988 H   0  0  0  0  0  0  0  0  0  0  0  0
  -11.3821    6.2312   -3.5889 H   0  0  0  0  0  0  0  0  0  0  0  0
  -12.2711    5.4416   -2.1837 H   0  0  0  0  0  0  0  0  0  0  0  0
  -13.4318    7.5473   -3.2614 H   0  0  0  0  0  0  0  0  0  0  0  0
  -10.9802    9.1170   -0.4641 H   0  0  0  0  0  0  0  0  0  0  0  0
  -13.2345    7.7828    1.1573 H   0  0  0  0  0  0  0  0  0  0  0  0
  -11.7896    8.6693    1.8187 H   0  0  0  0  0  0  0  0  0  0  0  0
  -13.8460   10.0422    1.8935 H   0  0  0  0  0  0  0  0  0  0  0  0
  -12.5673   10.7417    0.8247 H   0  0  0  0  0  0  0  0  0  0  0  0
  -14.6918   10.9551   -0.2738 H   0  0  0  0  0  0  0  0  0  0  0  0
  -14.8700    8.2020    0.4500 H   0  0  0  0  0  0  0  0  0  0  0  0
  -12.3413   11.3783   -1.0737 H   0  0  0  0  0  0  0  0  0  0  0  0
  -11.8493   10.5286   -2.5779 H   0  0  0  0  0  0  0  0  0  0  0  0
  -13.3009   11.5867   -2.5779 H   0  0  0  0  0  0  0  0  0  0  0  0
  -15.6845    9.4972   -2.1698 H   0  0  0  0  0  0  0  0  0  0  0  0
  -14.6836   10.4799   -3.2920 H   0  0  0  0  0  0  0  0  0  0  0  0
  -14.5377    8.6895   -3.2920 H   0  0  0  0  0  0  0  0  0  0  0  0
  -11.5244    6.0328    1.6074 H   0  0  0  0  0  0  0  0  0  0  0  0
  -12.6856    5.9359    0.2403 H   0  0  0  0  0  0  0  0  0  0  0  0
  -11.2107    4.9106    0.2403 H   0  0  0  0  0  0  0  0  0  0  0  0
   -9.8517    8.0459    1.4205 H   0  0  0  0  0  0  0  0  0  0  0  0
   -9.2382    6.3410    1.0316 H   0  0  0  0  0  0  0  0  0  0  0  0
   -8.5499    8.9240   -0.3960 H   0  0  0  0  0  0  0  0  0  0  0  0
   -7.4722    7.8543    0.5847 H   0  0  0  0  0  0  0  0  0  0  0  0
   -7.6329    5.5758    0.2324 H   0  0  0  0  0  0  0  0  0  0  0  0
   -8.3853    4.8966   -1.2506 H   0  0  0  0  0  0  0  0  0  0  0  0
   -6.6459    5.3452   -1.2506 H   0  0  0  0  0  0  0  0  0  0  0  0
  1  2  1  0
  2  3  1  0
  3  4  1  0
  4  5  1  0
  5  6  1  0
  6  7  1  0
  7  8  1  0
  7  9  1  0
  2 10  1  0
 10 11  1  0
 11 12  1  0
 12 13  1  0
 13 14  1  6
 13 15  1  0
 15 16  1  0
 16 17  1  0
 17 18  2  0
 18 19  1  0
 19 20  1  0
 20 21  1  0
 21 22  1  0
 22 23  1  0
 22 24  1  0
 24 25  1  0
 24 26  1  0
 19 27  1  0
 27 28  1  1
 27 29  1  0
 29 30  1  0
 30 31  1  0
 31 32  1  1
  7  5  1  0
 31 10  1  0
 31 13  1  0
 27 15  1  0
 24 18  1  0
  1 33  1  0
  1 34  1  0
  1 35  1  0
  2 36  1  6
  3 37  1  0
  3 38  1  0
  4 39  1  0
  4 40  1  0
  5 41  1  6
  8 42  1  0
  8 43  1  0
  8 44  1  0
  9 45  1  0
  9 46  1  0
  9 47  1  0
 10 48  1  6
 11 49  1  0
 11 50  1  0
 12 51  1  0
 12 52  1  0
 14 53  1  0
 14 54  1  0
 14 55  1  0
 15 56  1  1
 16 57  1  0
 16 58  1  0
 17 59  1  0
 19 60  1  6
 20 61  1  0
 20 62  1  0
 21 63  1  0
 21 64  1  0
 22 65  1  6
 23 66  1  0
 25 67  1  0
 25 68  1  0
 25 69  1  0
 26 70  1  0
 26 71  1  0
 26 72  1  0
 28 73  1  0
 28 74  1  0
 28 75  1  0
 29 76  1  0
 29 77  1  0
 30 78  1  0
 30 79  1  0
 32 80  1  0
 32 81  1  0
 32 82  1  0
M  END
>  <meeko>  (5) 
{"is_sidechain": [false], "intermolecular_energy": 2.731, "internal_energy": -0.839}

$$$$
EPH_relaxed_0001_pdb2pqr_Repair_13_r2_0001_out
     RDKit          3D

 82 86  0  0  0  0  0  0  0  0999 V2000
    0.3870    8.7980   -2.3430 C   0  0  0  0  0  0  0  0  0  0  0  0
    1.1290    9.9350   -3.0510 C   0  0  2  0  0  0  0  0  0  0  0  0
    2.6320    9.9490   -2.7080 C   0  0  0  0  0  0  0  0  0  0  0  0
    3.5100   10.5480   -3.8100 C   0  0  0  0  0  0  0  0  0  0  0  0
    4.9050   10.8100   -3.3280 C   0  0  2  0  0  0  0  0  0  0  0  0
    5.4900   12.0230   -3.8180 O   0  0  0  0  0  0  0  0  0  0  0  0
    6.1190   10.8020   -4.2370 C   0  0  0  0  0  0  0  0  0  0  0  0
    5.9950   10.5250   -5.7030 C   0  0  0  0  0  0  0  0  0  0  0  0
    7.4680   10.5780   -3.6270 C   0  0  0  0  0  0  0  0  0  0  0  0
    0.4990   11.2740   -2.6850 C   0  0  1  0  0  0  0  0  0  0  0  0
   -0.8740   11.1150   -1.9780 C   0  0  0  0  0  0  0  0  0  0  0  0
   -0.9760   12.2600   -0.9380 C   0  0  0  0  0  0  0  0  0  0  0  0
    0.1750   13.2250   -1.3050 C   0  0  1  0  0  0  0  0  0  0  0  0
   -0.3790   14.0800   -2.4870 C   0  0  0  0  0  0  0  0  0  0  0  0
    0.7180   14.1250   -0.1470 C   0  0  2  0  0  0  0  0  0  0  0  0
   -0.3030   15.1090    0.4480 C   0  0  0  0  0  0  0  0  0  0  0  0
   -0.3460   16.4540   -0.1990 C   0  0  0  0  0  0  0  0  0  0  0  0
    0.5920   16.9540   -1.0240 C   0  0  0  0  0  0  0  0  0  0  0  0
    1.8880   16.1820   -1.3040 C   0  0  1  0  0  0  0  0  0  0  0  0
    3.0990   17.1440   -1.1880 C   0  0  0  0  0  0  0  0  0  0  0  0
    2.9530   18.3790   -2.0720 C   0  0  0  0  0  0  0  0  0  0  0  0
    1.6830   19.1520   -1.7240 C   0  0  2  0  0  0  0  0  0  0  0  0
    1.8210   19.6960   -0.4080 O   0  0  0  0  0  0  0  0  0  0  0  0
    0.3970   18.2820   -1.7970 C   0  0  0  0  0  0  0  0  0  0  0  0
    0.0830   17.9420   -3.2750 C   0  0  0  0  0  0  0  0  0  0  0  0
   -0.7900   19.1420   -1.2880 C   0  0  0  0  0  0  0  0  0  0  0  0
    2.0900   14.8430   -0.4730 C   0  0  1  0  0  0  0  0  0  0  0  0
    2.7620   15.1630    0.8970 C   0  0  0  0  0  0  0  0  0  0  0  0
    3.0880   13.9030   -1.2480 C   0  0  0  0  0  0  0  0  0  0  0  0
    2.4760   12.9520   -2.2950 C   0  0  0  0  0  0  0  0  0  0  0  0
    1.2840   12.1870   -1.7110 C   0  0  2  0  0  0  0  0  0  0  0  0
    1.8160   11.3010   -0.5330 C   0  0  0  0  0  0  0  0  0  0  0  0
    0.4714    8.9273   -1.2539 H   0  0  0  0  0  0  0  0  0  0  0  0
   -0.6739    8.8158   -2.6332 H   0  0  0  0  0  0  0  0  0  0  0  0
    0.8304    7.8341   -2.6332 H   0  0  0  0  0  0  0  0  0  0  0  0
    1.0388    9.7653   -4.1341 H   0  0  0  0  0  0  0  0  0  0  0  0
    2.7734   10.5406   -1.7915 H   0  0  0  0  0  0  0  0  0  0  0  0
    2.9428    8.9012   -2.5838 H   0  0  0  0  0  0  0  0  0  0  0  0
    3.5511    9.8445   -4.6546 H   0  0  0  0  0  0  0  0  0  0  0  0
    3.0678   11.5074   -4.1165 H   0  0  0  0  0  0  0  0  0  0  0  0
    4.6947   10.3061   -2.3731 H   0  0  0  0  0  0  0  0  0  0  0  0
    5.5497    9.5302   -5.8518 H   0  0  0  0  0  0  0  0  0  0  0  0
    5.3523   11.2876   -6.1672 H   0  0  0  0  0  0  0  0  0  0  0  0
    6.9919   10.5537   -6.1672 H   0  0  0  0  0  0  0  0  0  0  0  0
    7.3815   10.5924   -2.5305 H   0  0  0  0  0  0  0  0  0  0  0  0
    7.8596    9.6025   -3.9512 H   0  0  0  0  0  0  0  0  0  0  0  0
    8.1539   11.3746   -3.9512 H   0  0  0  0  0  0  0  0  0  0  0  0
    0.4567   11.7362   -3.6823 H   0  0  0  0  0  0  0  0  0  0  0  0
   -1.6896   11.1957   -2.7117 H   0  0  0  0  0  0  0  0  0  0  0  0
   -0.9570   10.1315   -1.4924 H   0  0  0  0  0  0  0  0  0  0  0  0
   -1.9483   12.7686   -1.0147 H   0  0  0  0  0  0  0  0  0  0  0  0
   -0.8981   11.8923    0.0958 H   0  0  0  0  0  0  0  0  0  0  0  0
   -0.9363   14.9402   -2.0876 H   0  0  0  0  0  0  0  0  0  0  0  0
    0.4582   14.4397   -3.1033 H   0  0  0  0  0  0  0  0  0  0  0  0
   -1.0493   13.4629   -3.1033 H   0  0  0  0  0  0  0  0  0  0  0  0
    0.9223   13.3906    0.6461 H   0  0  0  0  0  0  0  0  0  0  0  0
   -1.3020   14.6572    0.3590 H   0  0  0  0  0  0  0  0  0  0  0  0
    0.0119   15.2819    1.4877 H   0  0  0  0  0  0  0  0  0  0  0  0
   -1.2176   17.0894    0.0169 H   0  0  0  0  0  0  0  0  0  0  0  0
    1.8043   15.8108   -2.3361 H   0  0  0  0  0  0  0  0  0  0  0  0
    3.1921   17.4689   -0.1412 H   0  0  0  0  0  0  0  0  0  0  0  0
    3.9926   16.5973   -1.5237 H   0  0  0  0  0  0  0  0  0  0  0  0
    3.8248   19.0332   -1.9234 H   0  0  0  0  0  0  0  0  0  0  0  0
    2.8901   18.0544   -3.1211 H   0  0  0  0  0  0  0  0  0  0  0  0
    1.5658   19.9487   -2.4734 H   0  0  0  0  0  0  0  0  0  0  0  0
    1.8560   18.9520    0.2160 H   0  0  0  0  0  0  0  0  0  0  0  0
   -0.6628   17.1344   -3.3150 H   0  0  0  0  0  0  0  0  0  0  0  0
   -0.3154   18.8344   -3.7799 H   0  0  0  0  0  0  0  0  0  0  0  0
    1.0042   17.6157   -3.7799 H   0  0  0  0  0  0  0  0  0  0  0  0
   -0.7950   19.1456   -0.1880 H   0  0  0  0  0  0  0  0  0  0  0  0
   -0.6813   20.1723   -1.6576 H   0  0  0  0  0  0  0  0  0  0  0  0
   -1.7352   18.7177   -1.6576 H   0  0  0  0  0  0  0  0  0  0  0  0
    2.0973   14.8465    1.7143 H   0  0  0  0  0  0  0  0  0  0  0  0
    3.7176   14.6233    0.9716 H   0  0  0  0  0  0  0  0  0  0  0  0
    2.9453   16.2451    0.9716 H   0  0  0  0  0  0  0  0  0  0  0  0
    3.8152   14.5451   -1.7665 H   0  0  0  0  0  0  0  0  0  0  0  0
    3.5195   13.2452   -0.4792 H   0  0  0  0  0  0  0  0  0  0  0  0
    2.1369   13.5401   -3.1606 H   0  0  0  0  0  0  0  0  0  0  0  0
    3.2436   12.2254   -2.5998 H   0  0  0  0  0  0  0  0  0  0  0  0
    1.5392   11.7621    0.4266 H   0  0  0  0  0  0  0  0  0  0  0  0
    1.3711   10.2972   -0.5993 H   0  0  0  0  0  0  0  0  0  0  0  0
    2.9111   11.2219   -0.5993 H   0  0  0  0  0  0  0  0  0  0  0  0
  1  2  1  0
  2  3  1  0
  3  4  1  0
  4  5  1  0
  5  6  1  0
  6  7  1  0
  7  8  1  0
  7  9  1  0
  2 10  1  0
 10 11  1  0
 11 12  1  0
 12 13  1  0
 13 14  1  6
 13 15  1  0
 15 16  1  0
 16 17  1  0
 17 18  2  0
 18 19  1  0
 19 20  1  0
 20 21  1  0
 21 22  1  0
 22 23  1  0
 22 24  1  0
 24 25  1  0
 24 26  1  0
 19 27  1  0
 27 28  1  1
 27 29  1  0
 29 30  1  0
 30 31  1  0
 31 32  1  1
  7  5  1  0
 31 10  1  0
 31 13  1  0
 27 15  1  0
 24 18  1  0
  1 33  1  0
  1 34  1  0
  1 35  1  0
  2 36  1  6
  3 37  1  0
  3 38  1  0
  4 39  1  0
  4 40  1  0
  5 41  1  1
  8 42  1  0
  8 43  1  0
  8 44  1  0
  9 45  1  0
  9 46  1  0
  9 47  1  0
 10 48  1  6
 11 49  1  0
 11 50  1  0
 12 51  1  0
 12 52  1  0
 14 53  1  0
 14 54  1  0
 14 55  1  0
 15 56  1  1
 16 57  1  0
 16 58  1  0
 17 59  1  0
 19 60  1  6
 20 61  1  0
 20 62  1  0
 21 63  1  0
 21 64  1  0
 22 65  1  6
 23 66  1  0
 25 67  1  0
 25 68  1  0
 25 69  1  0
 26 70  1  0
 26 71  1  0
 26 72  1  0
 28 73  1  0
 28 74  1  0
 28 75  1  0
 29 76  1  0
 29 77  1  0
 30 78  1  0
 30 79  1  0
 32 80  1  0
 32 81  1  0
 32 82  1  0
M  END
>  <meeko>  (6) 
{"is_sidechain": [false], "intermolecular_energy": 2.731, "internal_energy": -0.839}

$$$$
EPH_relaxed_0001_pdb2pqr_Repair_13_r2_0001_out
     RDKit          3D

 82 86  0  0  0  0  0  0  0  0999 V2000
    3.1220   19.0860   -0.7900 C   0  0  0  0  0  0  0  0  0  0  0  0
    2.9170   18.0830   -1.9290 C   0  0  2  0  0  0  0  0  0  0  0  0
    1.5800   18.3050   -2.6640 C   0  0  0  0  0  0  0  0  0  0  0  0
    0.7860   19.5080   -2.1480 C   0  0  0  0  0  0  0  0  0  0  0  0
   -0.5400   19.0970   -1.5840 C   0  0  2  0  0  0  0  0  0  0  0  0
   -1.4120   20.1840   -1.2510 O   0  0  0  0  0  0  0  0  0  0  0  0
   -0.9630   19.3730   -0.1530 C   0  0  0  0  0  0  0  0  0  0  0  0
   -0.0600   20.0880    0.8030 C   0  0  0  0  0  0  0  0  0  0  0  0
   -2.0390   18.5260    0.4510 C   0  0  0  0  0  0  0  0  0  0  0  0
    2.9830   16.6600   -1.3860 C   0  0  1  0  0  0  0  0  0  0  0  0
    3.4910   16.6020    0.0790 C   0  0  0  0  0  0  0  0  0  0  0  0
    2.7320   15.4400    0.7700 C   0  0  0  0  0  0  0  0  0  0  0  0
    2.0670   14.6640   -0.3900 C   0  0  1  0  0  0  0  0  0  0  0  0
    3.1980   13.7520   -0.9620 C   0  0  0  0  0  0  0  0  0  0  0  0
    0.7890   13.8390   -0.0280 C   0  0  2  0  0  0  0  0  0  0  0  0
    1.0110   12.7050    0.9880 C   0  0  0  0  0  0  0  0  0  0  0  0
    1.3570   11.3780    0.3970 C   0  0  0  0  0  0  0  0  0  0  0  0
    1.2070   11.0350   -0.8960 C   0  0  0  0  0  0  0  0  0  0  0  0
    0.5510   11.9960   -1.8950 C   0  0  1  0  0  0  0  0  0  0  0  0
   -0.4910   11.2240   -2.7470 C   0  0  0  0  0  0  0  0  0  0  0  0
    0.1040    9.9940   -3.4250 C   0  0  0  0  0  0  0  0  0  0  0  0
    0.6950    9.0360   -2.3950 C   0  0  2  0  0  0  0  0  0  0  0  0
   -0.3680    8.4990   -1.6010 O   0  0  0  0  0  0  0  0  0  0  0  0
    1.7510    9.7040   -1.4710 C   0  0  0  0  0  0  0  0  0  0  0  0
    3.0320   10.0140   -2.2840 C   0  0  0  0  0  0  0  0  0  0  0  0
    2.1630    8.6690   -0.3900 C   0  0  0  0  0  0  0  0  0  0  0  0
   -0.0370   13.3390   -1.2810 C   0  0  1  0  0  0  0  0  0  0  0  0
   -1.4970   13.1040   -0.7870 C   0  0  0  0  0  0  0  0  0  0  0  0
   -0.1220   14.4280   -2.4150 C   0  0  0  0  0  0  0  0  0  0  0  0
    1.1340   15.2910   -2.6450 C   0  0  0  0  0  0  0  0  0  0  0  0
    1.6570   15.8610   -1.3230 C   0  0  2  0  0  0  0  0  0  0  0  0
    0.5490   16.8000   -0.7350 C   0  0  0  0  0  0  0  0  0  0  0  0
    3.0166   18.5704    0.1760 H   0  0  0  0  0  0  0  0  0  0  0  0
    4.1283   19.5241   -0.8639 H   0  0  0  0  0  0  0  0  0  0  0  0
    2.3684   19.8838   -0.8639 H   0  0  0  0  0  0  0  0  0  0  0  0
    3.7249   18.2405   -2.6587 H   0  0  0  0  0  0  0  0  0  0  0  0
    1.7926   18.4615   -3.7318 H   0  0  0  0  0  0  0  0  0  0  0  0
    0.9629   17.4121   -2.4852 H   0  0  0  0  0  0  0  0  0  0  0  0
    1.3686   20.0083   -1.3604 H   0  0  0  0  0  0  0  0  0  0  0  0
    0.6029   20.1863   -2.9944 H   0  0  0  0  0  0  0  0  0  0  0  0
   -0.5382   18.1780   -2.1885 H   0  0  0  0  0  0  0  0  0  0  0  0
   -0.3581   19.8520    1.8352 H   0  0  0  0  0  0  0  0  0  0  0  0
    0.9784   19.7646    0.6382 H   0  0  0  0  0  0  0  0  0  0  0  0
   -0.1367   21.1729    0.6382 H   0  0  0  0  0  0  0  0  0  0  0  0
   -1.9737   18.5774    1.5479 H   0  0  0  0  0  0  0  0  0  0  0  0
   -3.0226   18.8948    0.1245 H   0  0  0  0  0  0  0  0  0  0  0  0
   -1.9115   17.4833    0.1245 H   0  0  0  0  0  0  0  0  0  0  0  0
    3.6585   16.2106   -2.1288 H   0  0  0  0  0  0  0  0  0  0  0  0
    4.5741   16.4107    0.0971 H   0  0  0  0  0  0  0  0  0  0  0  0
    3.3106   17.5552    0.5976 H   0  0  0  0  0  0  0  0  0  0  0  0
    3.4308   14.7926    1.3200 H   0  0  0  0  0  0  0  0  0  0  0  0
    1.9979   15.8005    1.5056 H   0  0  0  0  0  0  0  0  0  0  0  0
    3.7593   13.2994   -0.1313 H   0  0  0  0  0  0  0  0  0  0  0  0
    2.7519   12.9579   -1.5788 H   0  0  0  0  0  0  0  0  0  0  0  0
    3.8795   14.3562   -1.5788 H   0  0  0  0  0  0  0  0  0  0  0  0
    0.1656   14.5845    0.4874 H   0  0  0  0  0  0  0  0  0  0  0  0
    1.8317   13.0036    1.6568 H   0  0  0  0  0  0  0  0  0  0  0  0
    0.0498   12.5668    1.5047 H   0  0  0  0  0  0  0  0  0  0  0  0
    1.7692   10.6166    1.0755 H   0  0  0  0  0  0  0  0  0  0  0  0
    1.3617   12.3649   -2.5405 H   0  0  0  0  0  0  0  0  0  0  0  0
   -1.3136   10.9021   -2.0915 H   0  0  0  0  0  0  0  0  0  0  0  0
   -0.8450   11.9025   -3.5372 H   0  0  0  0  0  0  0  0  0  0  0  0
   -0.6863    9.4752   -3.9873 H   0  0  0  0  0  0  0  0  0  0  0  0
    0.9070   10.3204   -4.1023 H   0  0  0  0  0  0  0  0  0  0  0  0
    1.2192    8.2418   -2.9468 H   0  0  0  0  0  0  0  0  0  0  0  0
   -0.0900    7.6210   -1.2910 H   0  0  0  0  0  0  0  0  0  0  0  0
    3.8645   10.2155   -1.5938 H   0  0  0  0  0  0  0  0  0  0  0  0
    3.2820    9.1504   -2.9178 H   0  0  0  0  0  0  0  0  0  0  0  0
    2.8595   10.8963   -2.9178 H   0  0  0  0  0  0  0  0  0  0  0  0
    1.9932    9.0955    0.6096 H   0  0  0  0  0  0  0  0  0  0  0  0
    1.5594    7.7568   -0.5068 H   0  0  0  0  0  0  0  0  0  0  0  0
    3.2283    8.4212   -0.5068 H   0  0  0  0  0  0  0  0  0  0  0  0
   -1.5159   13.1010    0.3128 H   0  0  0  0  0  0  0  0  0  0  0  0
   -2.1453   13.9094   -1.1627 H   0  0  0  0  0  0  0  0  0  0  0  0
   -1.8598   12.1359   -1.1627 H   0  0  0  0  0  0  0  0  0  0  0  0
   -0.3466   13.9091   -3.3586 H   0  0  0  0  0  0  0  0  0  0  0  0
   -0.8979   15.1323   -2.0803 H   0  0  0  0  0  0  0  0  0  0  0  0
    1.9176   14.6707   -3.1045 H   0  0  0  0  0  0  0  0  0  0  0  0
    0.8680   16.1281   -3.3071 H   0  0  0  0  0  0  0  0  0  0  0  0
    0.5866   16.7681    0.3639 H   0  0  0  0  0  0  0  0  0  0  0  0
    0.7219   17.8307   -1.0781 H   0  0  0  0  0  0  0  0  0  0  0  0
   -0.4394   16.4604   -1.0781 H   0  0  0  0  0  0  0  0  0  0  0  0
  1  2  1  0
  2  3  1  0
  3  4  1  0
  4  5  1  0
  5  6  1  0
  6  7  1  0
  7  8  1  0
  7  9  1  0
  2 10  1  0
 10 11  1  0
 11 12  1  0
 12 13  1  0
 13 14  1  6
 13 15  1  0
 15 16  1  0
 16 17  1  0
 17 18  2  0
 18 19  1  0
 19 20  1  0
 20 21  1  0
 21 22  1  0
 22 23  1  0
 22 24  1  0
 24 25  1  0
 24 26  1  0
 19 27  1  0
 27 28  1  1
 27 29  1  0
 29 30  1  0
 30 31  1  0
 31 32  1  1
  7  5  1  0
 31 10  1  0
 31 13  1  0
 27 15  1  0
 24 18  1  0
  1 33  1  0
  1 34  1  0
  1 35  1  0
  2 36  1  6
  3 37  1  0
  3 38  1  0
  4 39  1  0
  4 40  1  0
  5 41  1  6
  8 42  1  0
  8 43  1  0
  8 44  1  0
  9 45  1  0
  9 46  1  0
  9 47  1  0
 10 48  1  6
 11 49  1  0
 11 50  1  0
 12 51  1  0
 12 52  1  0
 14 53  1  0
 14 54  1  0
 14 55  1  0
 15 56  1  1
 16 57  1  0
 16 58  1  0
 17 59  1  0
 19 60  1  6
 20 61  1  0
 20 62  1  0
 21 63  1  0
 21 64  1  0
 22 65  1  6
 23 66  1  0
 25 67  1  0
 25 68  1  0
 25 69  1  0
 26 70  1  0
 26 71  1  0
 26 72  1  0
 28 73  1  0
 28 74  1  0
 28 75  1  0
 29 76  1  0
 29 77  1  0
 30 78  1  0
 30 79  1  0
 32 80  1  0
 32 81  1  0
 32 82  1  0
M  END
>  <meeko>  (7) 
{"is_sidechain": [false], "intermolecular_energy": 2.731, "internal_energy": -0.839}

$$$$
EPH_relaxed_0001_pdb2pqr_Repair_13_r2_0001_out
     RDKit          3D

 82 86  0  0  0  0  0  0  0  0999 V2000
   -0.9110   16.3890   -5.8730 C   0  0  0  0  0  0  0  0  0  0  0  0
    0.1830   15.6880   -6.6830 C   0  0  2  0  0  0  0  0  0  0  0  0
   -0.2220   15.4920   -8.1580 C   0  0  0  0  0  0  0  0  0  0  0  0
    0.4220   16.5010   -9.1120 C   0  0  0  0  0  0  0  0  0  0  0  0
    1.8290   16.1180   -9.4570 C   0  0  2  0  0  0  0  0  0  0  0  0
    2.3220   16.6850  -10.6780 O   0  0  0  0  0  0  0  0  0  0  0  0
    2.1920   15.2550  -10.6510 C   0  0  0  0  0  0  0  0  0  0  0  0
    1.1430   14.7210  -11.5760 C   0  0  0  0  0  0  0  0  0  0  0  0
    3.5020   14.5310  -10.6390 C   0  0  0  0  0  0  0  0  0  0  0  0
    0.5160   14.3420   -6.0510 C   0  0  1  0  0  0  0  0  0  0  0  0
    1.7400   13.6560   -6.7140 C   0  0  0  0  0  0  0  0  0  0  0  0
    2.4940   12.9010   -5.5900 C   0  0  0  0  0  0  0  0  0  0  0  0
    1.5110   12.8990   -4.3950 C   0  0  1  0  0  0  0  0  0  0  0  0
    0.5230   11.7280   -4.6910 C   0  0  0  0  0  0  0  0  0  0  0  0
    2.1510   12.7690   -2.9740 C   0  0  2  0  0  0  0  0  0  0  0  0
    2.9170   11.4590   -2.7210 C   0  0  0  0  0  0  0  0  0  0  0  0
    2.1030   10.3460   -2.1480 C   0  0  0  0  0  0  0  0  0  0  0  0
    0.8870   10.4750   -1.5850 C   0  0  0  0  0  0  0  0  0  0  0  0
    0.2510   11.8580   -1.3940 C   0  0  1  0  0  0  0  0  0  0  0  0
   -0.3240   11.9690    0.0430 C   0  0  0  0  0  0  0  0  0  0  0  0
   -1.2860   10.8330    0.3780 C   0  0  0  0  0  0  0  0  0  0  0  0
   -0.6000    9.4770    0.2320 C   0  0  2  0  0  0  0  0  0  0  0  0
    0.4150    9.3640    1.2350 O   0  0  0  0  0  0  0  0  0  0  0  0
    0.0270    9.2550   -1.1730 C   0  0  0  0  0  0  0  0  0  0  0  0
   -1.0980    9.0770   -2.2220 C   0  0  0  0  0  0  0  0  0  0  0  0
    0.8070    7.9130   -1.1410 C   0  0  0  0  0  0  0  0  0  0  0  0
    1.1620   13.1000   -1.7850 C   0  0  1  0  0  0  0  0  0  0  0  0
    2.0480   13.5130   -0.5700 C   0  0  0  0  0  0  0  0  0  0  0  0
    0.2380   14.3360   -2.1010 C   0  0  0  0  0  0  0  0  0  0  0  0
   -0.2650   14.4740   -3.5510 C   0  0  0  0  0  0  0  0  0  0  0  0
    0.8900   14.3350   -4.5470 C   0  0  2  0  0  0  0  0  0  0  0  0
    1.8900   15.5130   -4.2890 C   0  0  0  0  0  0  0  0  0  0  0  0
   -0.7110   16.2609   -4.7989 H   0  0  0  0  0  0  0  0  0  0  0  0
   -0.9194   17.4611   -6.1191 H   0  0  0  0  0  0  0  0  0  0  0  0
   -1.8885   15.9487   -6.1191 H   0  0  0  0  0  0  0  0  0  0  0  0
    1.0721   16.3356   -6.6681 H   0  0  0  0  0  0  0  0  0  0  0  0
    0.0773   14.4802   -8.4688 H   0  0  0  0  0  0  0  0  0  0  0  0
   -1.3099   15.6441   -8.2157 H   0  0  0  0  0  0  0  0  0  0  0  0
   -0.1720   16.5465  -10.0367 H   0  0  0  0  0  0  0  0  0  0  0  0
    0.4463   17.4797   -8.6104 H   0  0  0  0  0  0  0  0  0  0  0  0
    2.0980   16.0558   -8.3922 H   0  0  0  0  0  0  0  0  0  0  0  0
    0.3150   14.2995  -10.9871 H   0  0  0  0  0  0  0  0  0  0  0  0
    0.7642   15.5360  -12.2103 H   0  0  0  0  0  0  0  0  0  0  0  0
    1.5791   13.9352  -12.2103 H   0  0  0  0  0  0  0  0  0  0  0  0
    3.8156   14.3577   -9.5990 H   0  0  0  0  0  0  0  0  0  0  0  0
    3.3921   13.5656  -11.1546 H   0  0  0  0  0  0  0  0  0  0  0  0
    4.2610   15.1377  -11.1546 H   0  0  0  0  0  0  0  0  0  0  0  0
   -0.4434   13.8257   -6.2029 H   0  0  0  0  0  0  0  0  0  0  0  0
    1.4049   12.9483   -7.4866 H   0  0  0  0  0  0  0  0  0  0  0  0
    2.3930   14.3969   -7.1984 H   0  0  0  0  0  0  0  0  0  0  0  0
    2.7281   11.8725   -5.9022 H   0  0  0  0  0  0  0  0  0  0  0  0
    3.4544   13.3755   -5.3398 H   0  0  0  0  0  0  0  0  0  0  0  0
    0.1640   11.3025   -3.7423 H   0  0  0  0  0  0  0  0  0  0  0  0
   -0.3322   12.1072   -5.2697 H   0  0  0  0  0  0  0  0  0  0  0  0
    1.0407   10.9488   -5.2697 H   0  0  0  0  0  0  0  0  0  0  0  0
    2.9127   13.5625   -2.9848 H   0  0  0  0  0  0  0  0  0  0  0  0
    3.3327   11.1174   -3.6804 H   0  0  0  0  0  0  0  0  0  0  0  0
    3.6838   11.6947   -1.9683 H   0  0  0  0  0  0  0  0  0  0  0  0
    2.5336    9.3346   -2.1895 H   0  0  0  0  0  0  0  0  0  0  0  0
   -0.5653   11.9220   -2.1286 H   0  0  0  0  0  0  0  0  0  0  0  0
    0.5105   11.9471    0.7593 H   0  0  0  0  0  0  0  0  0  0  0  0
   -0.8867   12.9121    0.1054 H   0  0  0  0  0  0  0  0  0  0  0  0
   -1.6348   10.9504    1.4146 H   0  0  0  0  0  0  0  0  0  0  0  0
   -2.1351   10.8742   -0.3201 H   0  0  0  0  0  0  0  0  0  0  0  0
   -1.3708    8.7022    0.3570 H   0  0  0  0  0  0  0  0  0  0  0  0
    0.8470    8.5010    1.1200 H   0  0  0  0  0  0  0  0  0  0  0  0
   -2.0583    8.9251   -1.7075 H   0  0  0  0  0  0  0  0  0  0  0  0
   -1.1578    9.9769   -2.8518 H   0  0  0  0  0  0  0  0  0  0  0  0
   -0.8771    8.2026   -2.8518 H   0  0  0  0  0  0  0  0  0  0  0  0
    0.9805    7.6145   -0.0966 H   0  0  0  0  0  0  0  0  0  0  0  0
    0.2201    7.1355   -1.6519 H   0  0  0  0  0  0  0  0  0  0  0  0
    1.7731    8.0381   -1.6519 H   0  0  0  0  0  0  0  0  0  0  0  0
    1.5239   13.2687    0.3658 H   0  0  0  0  0  0  0  0  0  0  0  0
    3.0020   12.9668   -0.6094 H   0  0  0  0  0  0  0  0  0  0  0  0
    2.2431   14.5949   -0.6094 H   0  0  0  0  0  0  0  0  0  0  0  0
   -0.6443   14.2677   -1.4477 H   0  0  0  0  0  0  0  0  0  0  0  0
    0.8704   15.2196   -1.9301 H   0  0  0  0  0  0  0  0  0  0  0  0
   -1.0086   13.6883   -3.7503 H   0  0  0  0  0  0  0  0  0  0  0  0
   -0.7155   15.4701   -3.6729 H   0  0  0  0  0  0  0  0  0  0  0  0
    2.0135   15.6585   -3.2057 H   0  0  0  0  0  0  0  0  0  0  0  0
    2.8640   15.2726   -4.7401 H   0  0  0  0  0  0  0  0  0  0  0  0
    1.4946   16.4351   -4.7401 H   0  0  0  0  0  0  0  0  0  0  0  0
  1  2  1  0
  2  3  1  0
  3  4  1  0
  4  5  1  0
  5  6  1  0
  6  7  1  0
  7  8  1  0
  7  9  1  0
  2 10  1  0
 10 11  1  0
 11 12  1  0
 12 13  1  0
 13 14  1  6
 13 15  1  0
 15 16  1  0
 16 17  1  0
 17 18  2  0
 18 19  1  0
 19 20  1  0
 20 21  1  0
 21 22  1  0
 22 23  1  0
 22 24  1  0
 24 25  1  0
 24 26  1  0
 19 27  1  0
 27 28  1  1
 27 29  1  0
 29 30  1  0
 30 31  1  0
 31 32  1  6
  7  5  1  0
 31 10  1  0
 31 13  1  0
 27 15  1  0
 24 18  1  0
  1 33  1  0
  1 34  1  0
  1 35  1  0
  2 36  1  6
  3 37  1  0
  3 38  1  0
  4 39  1  0
  4 40  1  0
  5 41  1  1
  8 42  1  0
  8 43  1  0
  8 44  1  0
  9 45  1  0
  9 46  1  0
  9 47  1  0
 10 48  1  1
 11 49  1  0
 11 50  1  0
 12 51  1  0
 12 52  1  0
 14 53  1  0
 14 54  1  0
 14 55  1  0
 15 56  1  6
 16 57  1  0
 16 58  1  0
 17 59  1  0
 19 60  1  6
 20 61  1  0
 20 62  1  0
 21 63  1  0
 21 64  1  0
 22 65  1  1
 23 66  1  0
 25 67  1  0
 25 68  1  0
 25 69  1  0
 26 70  1  0
 26 71  1  0
 26 72  1  0
 28 73  1  0
 28 74  1  0
 28 75  1  0
 29 76  1  0
 29 77  1  0
 30 78  1  0
 30 79  1  0
 32 80  1  0
 32 81  1  0
 32 82  1  0
M  END
>  <meeko>  (8) 
{"is_sidechain": [false], "intermolecular_energy": 2.731, "internal_energy": -0.839}

$$$$
EPH_relaxed_0001_pdb2pqr_Repair_13_r2_0001_out
     RDKit          3D

 82 86  0  0  0  0  0  0  0  0999 V2000
   -0.2010    9.3360   -2.2200 C   0  0  0  0  0  0  0  0  0  0  0  0
    0.9210   10.2710   -2.6790 C   0  0  2  0  0  0  0  0  0  0  0  0
    2.2870    9.5590   -2.7300 C   0  0  0  0  0  0  0  0  0  0  0  0
    3.2200   10.0940   -3.8190 C   0  0  0  0  0  0  0  0  0  0  0  0
    4.5700   10.4450   -3.2690 C   0  0  2  0  0  0  0  0  0  0  0  0
    5.0020   11.7820   -3.5510 O   0  0  0  0  0  0  0  0  0  0  0  0
    5.7800   10.7270   -4.1390 C   0  0  0  0  0  0  0  0  0  0  0  0
    5.6980   10.6700   -5.6330 C   0  0  0  0  0  0  0  0  0  0  0  0
    7.1440   10.5770   -3.5400 C   0  0  0  0  0  0  0  0  0  0  0  0
    0.9980   11.4820   -1.7560 C   0  0  1  0  0  0  0  0  0  0  0  0
    2.0910   11.3320   -0.6650 C   0  0  0  0  0  0  0  0  0  0  0  0
    2.6810   12.7460   -0.4250 C   0  0  0  0  0  0  0  0  0  0  0  0
    1.6950   13.7050   -1.1330 C   0  0  1  0  0  0  0  0  0  0  0  0
    0.5190   13.8870   -0.1230 C   0  0  0  0  0  0  0  0  0  0  0  0
    2.2800   15.0800   -1.5930 C   0  0  2  0  0  0  0  0  0  0  0  0
    2.7950   15.9820   -0.4590 C   0  0  0  0  0  0  0  0  0  0  0  0
    1.7880   16.9210    0.1170 C   0  0  0  0  0  0  0  0  0  0  0  0
    0.6060   17.2400   -0.4420 C   0  0  0  0  0  0  0  0  0  0  0  0
    0.2230   16.7090   -1.8300 C   0  0  1  0  0  0  0  0  0  0  0  0
   -0.3460   17.8680   -2.6890 C   0  0  0  0  0  0  0  0  0  0  0  0
   -1.4990   18.5940   -2.0030 C   0  0  0  0  0  0  0  0  0  0  0  0
   -1.0630   19.1580   -0.6530 C   0  0  2  0  0  0  0  0  0  0  0  0
   -0.1010   20.1930   -0.8750 O   0  0  0  0  0  0  0  0  0  0  0  0
   -0.4640   18.0820    0.2950 C   0  0  0  0  0  0  0  0  0  0  0  0
   -1.5860   17.1290    0.7760 C   0  0  0  0  0  0  0  0  0  0  0  0
    0.0650   18.8050    1.5640 C   0  0  0  0  0  0  0  0  0  0  0  0
    1.3460   15.8800   -2.5890 C   0  0  1  0  0  0  0  0  0  0  0  0
    2.2720   16.8470   -3.3880 C   0  0  0  0  0  0  0  0  0  0  0  0
    0.6620   14.9420   -3.6530 C   0  0  0  0  0  0  0  0  0  0  0  0
    0.2150   13.5500   -3.1650 C   0  0  0  0  0  0  0  0  0  0  0  0
    1.3420   12.8480   -2.4020 C   0  0  2  0  0  0  0  0  0  0  0  0
    2.5310   12.6300   -3.3990 C   0  0  0  0  0  0  0  0  0  0  0  0
   -0.2309    9.3111   -1.1207 H   0  0  0  0  0  0  0  0  0  0  0  0
   -1.1641    9.7025   -2.6048 H   0  0  0  0  0  0  0  0  0  0  0  0
   -0.0142    8.3226   -2.6048 H   0  0  0  0  0  0  0  0  0  0  0  0
    0.6819   10.5975   -3.7018 H   0  0  0  0  0  0  0  0  0  0  0  0
    2.7815    9.6865   -1.7557 H   0  0  0  0  0  0  0  0  0  0  0  0
    2.0901    8.5028   -2.9661 H   0  0  0  0  0  0  0  0  0  0  0  0
    3.3405    9.3239   -4.5952 H   0  0  0  0  0  0  0  0  0  0  0  0
    2.7716   11.0076   -4.2365 H   0  0  0  0  0  0  0  0  0  0  0  0
    4.4196    9.7759   -2.4090 H   0  0  0  0  0  0  0  0  0  0  0  0
    4.8283   10.0654   -5.9297 H   0  0  0  0  0  0  0  0  0  0  0  0
    5.5901   11.6888   -6.0334 H   0  0  0  0  0  0  0  0  0  0  0  0
    6.6154   10.2139   -6.0334 H   0  0  0  0  0  0  0  0  0  0  0  0
    7.0656   10.5856   -2.4428 H   0  0  0  0  0  0  0  0  0  0  0  0
    7.5861    9.6248   -3.8685 H   0  0  0  0  0  0  0  0  0  0  0  0
    7.7824   11.4104   -3.8685 H   0  0  0  0  0  0  0  0  0  0  0  0
   -0.0355   11.4932   -1.3795 H   0  0  0  0  0  0  0  0  0  0  0  0
    1.6481   10.9437    0.2640 H   0  0  0  0  0  0  0  0  0  0  0  0
    2.8728   10.6268   -0.9836 H   0  0  0  0  0  0  0  0  0  0  0  0
    2.7331   12.9676    0.6512 H   0  0  0  0  0  0  0  0  0  0  0  0
    3.7064   12.8415   -0.8117 H   0  0  0  0  0  0  0  0  0  0  0  0
    0.9059   13.8271    0.9050 H   0  0  0  0  0  0  0  0  0  0  0  0
    0.0485   14.8687   -0.2811 H   0  0  0  0  0  0  0  0  0  0  0  0
   -0.2262   13.0935   -0.2811 H   0  0  0  0  0  0  0  0  0  0  0  0
    3.1715   14.7789   -2.1627 H   0  0  0  0  0  0  0  0  0  0  0  0
    3.1582   15.3339    0.3522 H   0  0  0  0  0  0  0  0  0  0  0  0
    3.5787   16.6125   -0.9043 H   0  0  0  0  0  0  0  0  0  0  0  0
    2.0327   17.3924    1.0803 H   0  0  0  0  0  0  0  0  0  0  0  0
   -0.5574   15.9523   -1.6616 H   0  0  0  0  0  0  0  0  0  0  0  0
    0.4598   18.5910   -2.8836 H   0  0  0  0  0  0  0  0  0  0  0  0
   -0.7338   17.4326   -3.6218 H   0  0  0  0  0  0  0  0  0  0  0  0
   -1.8375   19.4200   -2.6458 H   0  0  0  0  0  0  0  0  0  0  0  0
   -2.3159   17.8765   -1.8363 H   0  0  0  0  0  0  0  0  0  0  0  0
   -1.9609   19.5511   -0.1537 H   0  0  0  0  0  0  0  0  0  0  0  0
    0.0480   20.2560   -1.8340 H   0  0  0  0  0  0  0  0  0  0  0  0
   -1.6061   17.1119    1.8757 H   0  0  0  0  0  0  0  0  0  0  0  0
   -2.5558   17.4836    0.3970 H   0  0  0  0  0  0  0  0  0  0  0  0
   -1.3930   16.1146    0.3970 H   0  0  0  0  0  0  0  0  0  0  0  0
   -0.3104   18.2919    2.4617 H   0  0  0  0  0  0  0  0  0  0  0  0
    1.1649   18.7872    1.5645 H   0  0  0  0  0  0  0  0  0  0  0  0
   -0.2848   19.8479    1.5645 H   0  0  0  0  0  0  0  0  0  0  0  0
    2.8573   17.4583   -2.6853 H   0  0  0  0  0  0  0  0  0  0  0  0
    2.9547   16.2613   -4.0212 H   0  0  0  0  0  0  0  0  0  0  0  0
    1.6573   17.5037   -4.0212 H   0  0  0  0  0  0  0  0  0  0  0  0
   -0.2288   15.4636   -4.0331 H   0  0  0  0  0  0  0  0  0  0  0  0
    1.4384   14.7475   -4.4076 H   0  0  0  0  0  0  0  0  0  0  0  0
   -0.6534   13.6639   -2.4995 H   0  0  0  0  0  0  0  0  0  0  0  0
   -0.0484   12.9393   -4.0412 H   0  0  0  0  0  0  0  0  0  0  0  0
    3.4583   12.4600   -2.8322 H   0  0  0  0  0  0  0  0  0  0  0  0
    2.3227   11.7551   -4.0323 H   0  0  0  0  0  0  0  0  0  0  0  0
    2.6467   13.5219   -4.0323 H   0  0  0  0  0  0  0  0  0  0  0  0
  1  2  1  0
  2  3  1  0
  3  4  1  0
  4  5  1  0
  5  6  1  0
  6  7  1  0
  7  8  1  0
  7  9  1  0
  2 10  1  0
 10 11  1  0
 11 12  1  0
 12 13  1  0
 13 14  1  1
 13 15  1  0
 15 16  1  0
 16 17  1  0
 17 18  2  0
 18 19  1  0
 19 20  1  0
 20 21  1  0
 21 22  1  0
 22 23  1  0
 22 24  1  0
 24 25  1  0
 24 26  1  0
 19 27  1  0
 27 28  1  6
 27 29  1  0
 29 30  1  0
 30 31  1  0
 31 32  1  6
  7  5  1  0
 31 10  1  0
 31 13  1  0
 27 15  1  0
 24 18  1  0
  1 33  1  0
  1 34  1  0
  1 35  1  0
  2 36  1  6
  3 37  1  0
  3 38  1  0
  4 39  1  0
  4 40  1  0
  5 41  1  1
  8 42  1  0
  8 43  1  0
  8 44  1  0
  9 45  1  0
  9 46  1  0
  9 47  1  0
 10 48  1  1
 11 49  1  0
 11 50  1  0
 12 51  1  0
 12 52  1  0
 14 53  1  0
 14 54  1  0
 14 55  1  0
 15 56  1  6
 16 57  1  0
 16 58  1  0
 17 59  1  0
 19 60  1  1
 20 61  1  0
 20 62  1  0
 21 63  1  0
 21 64  1  0
 22 65  1  1
 23 66  1  0
 25 67  1  0
 25 68  1  0
 25 69  1  0
 26 70  1  0
 26 71  1  0
 26 72  1  0
 28 73  1  0
 28 74  1  0
 28 75  1  0
 29 76  1  0
 29 77  1  0
 30 78  1  0
 30 79  1  0
 32 80  1  0
 32 81  1  0
 32 82  1  0
M  END
>  <meeko>  (9) 
{"is_sidechain": [false], "intermolecular_energy": 2.731, "internal_energy": -0.839}

$$$$
EPH_relaxed_0001_pdb2pqr_Repair_13_r2_0001_out
     RDKit          3D

 82 86  0  0  0  0  0  0  0  0999 V2000
   -1.9640    7.7840   -2.1570 C   0  0  0  0  0  0  0  0  0  0  0  0
   -2.1880    8.4860   -0.8150 C   0  0  2  0  0  0  0  0  0  0  0  0
   -3.6760    8.5000   -0.4080 C   0  0  0  0  0  0  0  0  0  0  0  0
   -4.6010    7.8430   -1.4350 C   0  0  0  0  0  0  0  0  0  0  0  0
   -5.7630    7.1610   -0.7790 C   0  0  2  0  0  0  0  0  0  0  0  0
   -6.3420    6.0950   -1.5430 O   0  0  0  0  0  0  0  0  0  0  0  0
   -7.1840    7.2350   -1.3080 C   0  0  0  0  0  0  0  0  0  0  0  0
   -7.5170    8.0110   -2.5430 C   0  0  0  0  0  0  0  0  0  0  0  0
   -8.3130    6.9650   -0.3630 C   0  0  0  0  0  0  0  0  0  0  0  0
   -1.6530    9.9120   -0.8790 C   0  0  1  0  0  0  0  0  0  0  0  0
   -1.1930   10.4400    0.5060 C   0  0  0  0  0  0  0  0  0  0  0  0
    0.0320   11.3560    0.2510 C   0  0  0  0  0  0  0  0  0  0  0  0
    0.0320   11.5910   -1.2780 C   0  0  1  0  0  0  0  0  0  0  0  0
   -1.0210   12.7200   -1.5100 C   0  0  0  0  0  0  0  0  0  0  0  0
    1.4110   11.9450   -1.9220 C   0  0  2  0  0  0  0  0  0  0  0  0
    2.0430   13.2590   -1.4290 C   0  0  0  0  0  0  0  0  0  0  0  0
    1.6800   14.4750   -2.2150 C   0  0  0  0  0  0  0  0  0  0  0  0
    1.1130   14.4770   -3.4360 C   0  0  0  0  0  0  0  0  0  0  0  0
    0.8680   13.1660   -4.1930 C   0  0  1  0  0  0  0  0  0  0  0  0
    1.3450   13.3190   -5.6610 C   0  0  0  0  0  0  0  0  0  0  0  0
    0.7150   14.5210   -6.3580 C   0  0  0  0  0  0  0  0  0  0  0  0
    1.0300   15.8130   -5.6080 C   0  0  2  0  0  0  0  0  0  0  0  0
    2.4350   16.0690   -5.7000 O   0  0  0  0  0  0  0  0  0  0  0  0
    0.6030   15.7730   -4.1140 C   0  0  0  0  0  0  0  0  0  0  0  0
   -0.9420   15.7990   -4.0130 C   0  0  0  0  0  0  0  0  0  0  0  0
    1.1040   17.0790   -3.4390 C   0  0  0  0  0  0  0  0  0  0  0  0
    1.4320   11.8510   -3.5020 C   0  0  1  0  0  0  0  0  0  0  0  0
    2.9190   11.6290   -3.9150 C   0  0  0  0  0  0  0  0  0  0  0  0
    0.6320   10.6050   -4.0370 C   0  0  0  0  0  0  0  0  0  0  0  0
   -0.6600   10.2330   -3.2840 C   0  0  0  0  0  0  0  0  0  0  0  0
   -0.4150   10.1670   -1.7740 C   0  0  2  0  0  0  0  0  0  0  0  0
    0.6240    9.0250   -1.5070 C   0  0  0  0  0  0  0  0  0  0  0  0
   -1.6340    6.7498   -1.9792 H   0  0  0  0  0  0  0  0  0  0  0  0
   -2.9042    7.7759   -2.7280 H   0  0  0  0  0  0  0  0  0  0  0  0
   -1.1929    8.3219   -2.7280 H   0  0  0  0  0  0  0  0  0  0  0  0
   -1.6411    7.9171   -0.0487 H   0  0  0  0  0  0  0  0  0  0  0  0
   -3.7800    7.9632    0.5465 H   0  0  0  0  0  0  0  0  0  0  0  0
   -3.9784    9.5549   -0.3315 H   0  0  0  0  0  0  0  0  0  0  0  0
   -4.9812    8.6165   -2.1184 H   0  0  0  0  0  0  0  0  0  0  0  0
   -4.0220    7.0839   -1.9814 H   0  0  0  0  0  0  0  0  0  0  0  0
   -5.3361    7.3423    0.2185 H   0  0  0  0  0  0  0  0  0  0  0  0
   -7.9362    8.9879   -2.2603 H   0  0  0  0  0  0  0  0  0  0  0  0
   -6.6045    8.1620   -3.1384 H   0  0  0  0  0  0  0  0  0  0  0  0
   -8.2552    7.4536   -3.1384 H   0  0  0  0  0  0  0  0  0  0  0  0
   -7.9528    7.0511    0.6728 H   0  0  0  0  0  0  0  0  0  0  0  0
   -9.1169    7.6962   -0.5337 H   0  0  0  0  0  0  0  0  0  0  0  0
   -8.6991    5.9492   -0.5337 H   0  0  0  0  0  0  0  0  0  0  0  0
   -2.5327   10.4206   -1.3001 H   0  0  0  0  0  0  0  0  0  0  0  0
   -2.0027   11.0136    0.9807 H   0  0  0  0  0  0  0  0  0  0  0  0
   -0.9321    9.6096    1.1786 H   0  0  0  0  0  0  0  0  0  0  0  0
   -0.0765   12.3086    0.7903 H   0  0  0  0  0  0  0  0  0  0  0  0
    0.9710   10.9045    0.6037 H   0  0  0  0  0  0  0  0  0  0  0  0
   -1.3734   13.0979   -0.5389 H   0  0  0  0  0  0  0  0  0  0  0  0
   -0.5589   13.5414   -2.0773 H   0  0  0  0  0  0  0  0  0  0  0  0
   -1.8726   12.3162   -2.0773 H   0  0  0  0  0  0  0  0  0  0  0  0
    2.0605   11.1409   -1.5457 H   0  0  0  0  0  0  0  0  0  0  0  0
    1.7252   13.4196   -0.3882 H   0  0  0  0  0  0  0  0  0  0  0  0
    3.1301   13.1357   -1.5435 H   0  0  0  0  0  0  0  0  0  0  0  0
    1.8939   15.4523   -1.7578 H   0  0  0  0  0  0  0  0  0  0  0  0
   -0.2191   12.9995   -4.1693 H   0  0  0  0  0  0  0  0  0  0  0  0
    2.4381   13.4415   -5.6657 H   0  0  0  0  0  0  0  0  0  0  0  0
    1.0368   12.4160   -6.2083 H   0  0  0  0  0  0  0  0  0  0  0  0
    1.1121   14.5927   -7.3813 H   0  0  0  0  0  0  0  0  0  0  0  0
   -0.3762   14.3834   -6.3778 H   0  0  0  0  0  0  0  0  0  0  0  0
    0.4480   16.6186   -6.0795 H   0  0  0  0  0  0  0  0  0  0  0  0
    2.7760   16.1670   -4.7950 H   0  0  0  0  0  0  0  0  0  0  0  0
   -1.2402   15.8040   -2.9542 H   0  0  0  0  0  0  0  0  0  0  0  0
   -1.3265   16.7037   -4.5065 H   0  0  0  0  0  0  0  0  0  0  0  0
   -1.3568   14.9077   -4.5065 H   0  0  0  0  0  0  0  0  0  0  0  0
    1.0608   16.9665   -2.3456 H   0  0  0  0  0  0  0  0  0  0  0  0
    2.1416   17.2760   -3.7467 H   0  0  0  0  0  0  0  0  0  0  0  0
    0.4644   17.9194   -3.7467 H   0  0  0  0  0  0  0  0  0  0  0  0
    3.5404   11.5362   -3.0121 H   0  0  0  0  0  0  0  0  0  0  0  0
    3.0002   10.7088   -4.5121 H   0  0  0  0  0  0  0  0  0  0  0  0
    3.2655   12.4854   -4.5121 H   0  0  0  0  0  0  0  0  0  0  0  0
    0.3605   10.8082   -5.0834 H   0  0  0  0  0  0  0  0  0  0  0  0
    1.3057    9.7473   -3.8936 H   0  0  0  0  0  0  0  0  0  0  0  0
   -1.4284   10.9924   -3.4910 H   0  0  0  0  0  0  0  0  0  0  0  0
   -0.9940    9.2432   -3.6286 H   0  0  0  0  0  0  0  0  0  0  0  0
    0.7482    8.8885   -0.4226 H   0  0  0  0  0  0  0  0  0  0  0  0
    0.2623    8.0880   -1.9555 H   0  0  0  0  0  0  0  0  0  0  0  0
    1.5909    9.2968   -1.9555 H   0  0  0  0  0  0  0  0  0  0  0  0
  1  2  1  0
  2  3  1  0
  3  4  1  0
  4  5  1  0
  5  6  1  0
  6  7  1  0
  7  8  1  0
  7  9  1  0
  2 10  1  0
 10 11  1  0
 11 12  1  0
 12 13  1  0
 13 14  1  1
 13 15  1  0
 15 16  1  0
 16 17  1  0
 17 18  2  0
 18 19  1  0
 19 20  1  0
 20 21  1  0
 21 22  1  0
 22 23  1  0
 22 24  1  0
 24 25  1  0
 24 26  1  0
 19 27  1  0
 27 28  1  6
 27 29  1  0
 29 30  1  0
 30 31  1  0
 31 32  1  6
  7  5  1  0
 31 10  1  0
 31 13  1  0
 27 15  1  0
 24 18  1  0
  1 33  1  0
  1 34  1  0
  1 35  1  0
  2 36  1  1
  3 37  1  0
  3 38  1  0
  4 39  1  0
  4 40  1  0
  5 41  1  1
  8 42  1  0
  8 43  1  0
  8 44  1  0
  9 45  1  0
  9 46  1  0
  9 47  1  0
 10 48  1  6
 11 49  1  0
 11 50  1  0
 12 51  1  0
 12 52  1  0
 14 53  1  0
 14 54  1  0
 14 55  1  0
 15 56  1  1
 16 57  1  0
 16 58  1  0
 17 59  1  0
 19 60  1  6
 20 61  1  0
 20 62  1  0
 21 63  1  0
 21 64  1  0
 22 65  1  6
 23 66  1  0
 25 67  1  0
 25 68  1  0
 25 69  1  0
 26 70  1  0
 26 71  1  0
 26 72  1  0
 28 73  1  0
 28 74  1  0
 28 75  1  0
 29 76  1  0
 29 77  1  0
 30 78  1  0
 30 79  1  0
 32 80  1  0
 32 81  1  0
 32 82  1  0
M  END
>  <meeko>  (10) 
{"is_sidechain": [false], "intermolecular_energy": 2.731, "internal_energy": -0.839}

$$$$
EPH_relaxed_0001_pdb2pqr_Repair_13_r2_0001_out
     RDKit          3D

 82 86  0  0  0  0  0  0  0  0999 V2000
   -4.0920    7.3670   -3.6770 C   0  0  0  0  0  0  0  0  0  0  0  0
   -3.7030    7.2600   -2.2000 C   0  0  2  0  0  0  0  0  0  0  0  0
   -4.8780    6.7800   -1.3240 C   0  0  0  0  0  0  0  0  0  0  0  0
   -6.1630    6.5110   -2.1110 C   0  0  0  0  0  0  0  0  0  0  0  0
   -7.3400    6.3210   -1.2030 C   0  0  2  0  0  0  0  0  0  0  0  0
   -8.4310    5.5920   -1.7820 O   0  0  0  0  0  0  0  0  0  0  0  0
   -8.6940    6.9630   -1.4430 C   0  0  0  0  0  0  0  0  0  0  0  0
   -8.9410    7.8450   -2.6260 C   0  0  0  0  0  0  0  0  0  0  0  0
   -9.6230    7.1290   -0.2800 C   0  0  0  0  0  0  0  0  0  0  0  0
   -3.1940    8.6050   -1.6970 C   0  0  1  0  0  0  0  0  0  0  0  0
   -3.8940    9.0580   -0.3880 C   0  0  0  0  0  0  0  0  0  0  0  0
   -2.8300    9.8120    0.4500 C   0  0  0  0  0  0  0  0  0  0  0  0
   -1.6610   10.0580   -0.5320 C   0  0  1  0  0  0  0  0  0  0  0  0
   -2.0860   11.3140   -1.3550 C   0  0  0  0  0  0  0  0  0  0  0  0
   -0.2460   10.2380    0.1080 C   0  0  2  0  0  0  0  0  0  0  0  0
   -0.1010   11.4560    1.0380 C   0  0  0  0  0  0  0  0  0  0  0  0
    0.3470   12.7150    0.3740 C   0  0  0  0  0  0  0  0  0  0  0  0
    0.8950   12.8010   -0.8530 C   0  0  0  0  0  0  0  0  0  0  0  0
    1.2020   11.5380   -1.6680 C   0  0  1  0  0  0  0  0  0  0  0  0
    2.6310   11.6410   -2.2640 C   0  0  0  0  0  0  0  0  0  0  0  0
    2.8380   12.9200   -3.0690 C   0  0  0  0  0  0  0  0  0  0  0  0
    2.5800   14.1540   -2.2090 C   0  0  2  0  0  0  0  0  0  0  0  0
    3.5880   14.2290   -1.1960 O   0  0  0  0  0  0  0  0  0  0  0  0
    1.1730   14.1560   -1.5470 C   0  0  0  0  0  0  0  0  0  0  0  0
    0.0890   14.3790   -2.6310 C   0  0  0  0  0  0  0  0  0  0  0  0
    1.0950   15.3810   -0.5970 C   0  0  0  0  0  0  0  0  0  0  0  0
    0.9490   10.1550   -0.9260 C   0  0  1  0  0  0  0  0  0  0  0  0
    2.2150    9.7480   -0.1120 C   0  0  0  0  0  0  0  0  0  0  0  0
    0.7310    9.0270   -2.0020 C   0  0  0  0  0  0  0  0  0  0  0  0
   -0.7090    8.8170   -2.5080 C   0  0  0  0  0  0  0  0  0  0  0  0
   -1.6910    8.7070   -1.3370 C   0  0  2  0  0  0  0  0  0  0  0  0
   -1.3020    7.4390   -0.5040 C   0  0  0  0  0  0  0  0  0  0  0  0
   -5.1498    7.6580   -3.7574 H   0  0  0  0  0  0  0  0  0  0  0  0
   -3.4646    8.1259   -4.1673 H   0  0  0  0  0  0  0  0  0  0  0  0
   -3.9411    6.3940   -4.1673 H   0  0  0  0  0  0  0  0  0  0  0  0
   -2.9038    6.5082   -2.1221 H   0  0  0  0  0  0  0  0  0  0  0  0
   -4.5780    5.8492   -0.8204 H   0  0  0  0  0  0  0  0  0  0  0  0
   -5.1002    7.5894   -0.6130 H   0  0  0  0  0  0  0  0  0  0  0  0
   -6.3596    7.3654   -2.7753 H   0  0  0  0  0  0  0  0  0  0  0  0
   -6.0234    5.5858   -2.6893 H   0  0  0  0  0  0  0  0  0  0  0  0
   -6.6843    6.2896   -0.3204 H   0  0  0  0  0  0  0  0  0  0  0  0
   -9.2227    8.8508   -2.2810 H   0  0  0  0  0  0  0  0  0  0  0  0
   -8.0261    7.9085   -3.2334 H   0  0  0  0  0  0  0  0  0  0  0  0
   -9.7558    7.4241   -3.2334 H   0  0  0  0  0  0  0  0  0  0  0  0
   -9.0577    7.0280    0.6582 H   0  0  0  0  0  0  0  0  0  0  0  0
  -10.0888    8.1246   -0.3220 H   0  0  0  0  0  0  0  0  0  0  0  0
  -10.4048    6.3563   -0.3220 H   0  0  0  0  0  0  0  0  0  0  0  0
   -3.4130    9.2256   -2.5784 H   0  0  0  0  0  0  0  0  0  0  0  0
   -4.7363    9.7262   -0.6205 H   0  0  0  0  0  0  0  0  0  0  0  0
   -4.2938    8.1953    0.1651 H   0  0  0  0  0  0  0  0  0  0  0  0
   -3.2327   10.7661    0.8208 H   0  0  0  0  0  0  0  0  0  0  0  0
   -2.5165    9.2411    1.3364 H   0  0  0  0  0  0  0  0  0  0  0  0
   -2.3612   12.1272   -0.6672 H   0  0  0  0  0  0  0  0  0  0  0  0
   -1.2474   11.6379   -1.9889 H   0  0  0  0  0  0  0  0  0  0  0  0
   -2.9490   11.0622   -1.9889 H   0  0  0  0  0  0  0  0  0  0  0  0
   -0.1670    9.3541    0.7580 H   0  0  0  0  0  0  0  0  0  0  0  0
   -1.0793   11.6467    1.5034 H   0  0  0  0  0  0  0  0  0  0  0  0
    0.6870   11.1956    1.7600 H   0  0  0  0  0  0  0  0  0  0  0  0
    0.2187   13.6527    0.9346 H   0  0  0  0  0  0  0  0  0  0  0  0
    0.4597   11.5120   -2.4794 H   0  0  0  0  0  0  0  0  0  0  0  0
    3.3591   11.6214   -1.4397 H   0  0  0  0  0  0  0  0  0  0  0  0
    2.7700   10.7902   -2.9472 H   0  0  0  0  0  0  0  0  0  0  0  0
    3.8736   12.9490   -3.4386 H   0  0  0  0  0  0  0  0  0  0  0  0
    2.1290   12.9239   -3.9100 H   0  0  0  0  0  0  0  0  0  0  0  0
    2.6165   15.0313   -2.8715 H   0  0  0  0  0  0  0  0  0  0  0  0
    4.2990   13.6140   -1.4430 H   0  0  0  0  0  0  0  0  0  0  0  0
   -0.8784   14.5780   -2.1467 H   0  0  0  0  0  0  0  0  0  0  0  0
    0.3688   15.2384   -3.2580 H   0  0  0  0  0  0  0  0  0  0  0  0
    0.0069   13.4789   -3.2580 H   0  0  0  0  0  0  0  0  0  0  0  0
    1.1169   15.0369    0.4476 H   0  0  0  0  0  0  0  0  0  0  0  0
    1.9527   16.0442   -0.7827 H   0  0  0  0  0  0  0  0  0  0  0  0
    0.1601   15.9300   -0.7827 H   0  0  0  0  0  0  0  0  0  0  0  0
    1.9973    9.8180    0.9640 H   0  0  0  0  0  0  0  0  0  0  0  0
    2.4956    8.7144   -0.3628 H   0  0  0  0  0  0  0  0  0  0  0  0
    3.0453   10.4245   -0.3628 H   0  0  0  0  0  0  0  0  0  0  0  0
    1.3569    9.2725   -2.8726 H   0  0  0  0  0  0  0  0  0  0  0  0
    0.9962    8.0889   -1.4925 H   0  0  0  0  0  0  0  0  0  0  0  0
   -0.9965    9.6703   -3.1398 H   0  0  0  0  0  0  0  0  0  0  0  0
   -0.7451    7.8813   -3.0852 H   0  0  0  0  0  0  0  0  0  0  0  0
   -1.3727    7.6695    0.5693 H   0  0  0  0  0  0  0  0  0  0  0  0
   -1.9887    6.6151   -0.7481 H   0  0  0  0  0  0  0  0  0  0  0  0
   -0.2714    7.1419   -0.7481 H   0  0  0  0  0  0  0  0  0  0  0  0
  1  2  1  0
  2  3  1  0
  3  4  1  0
  4  5  1  0
  5  6  1  0
  6  7  1  0
  7  8  1  0
  7  9  1  0
  2 10  1  0
 10 11  1  0
 11 12  1  0
 12 13  1  0
 13 14  1  6
 13 15  1  0
 15 16  1  0
 16 17  1  0
 17 18  2  0
 18 19  1  0
 19 20  1  0
 20 21  1  0
 21 22  1  0
 22 23  1  0
 22 24  1  0
 24 25  1  0
 24 26  1  0
 19 27  1  0
 27 28  1  1
 27 29  1  0
 29 30  1  0
 30 31  1  0
 31 32  1  1
  7  5  1  0
 31 10  1  0
 31 13  1  0
 27 15  1  0
 24 18  1  0
  1 33  1  0
  1 34  1  0
  1 35  1  0
  2 36  1  6
  3 37  1  0
  3 38  1  0
  4 39  1  0
  4 40  1  0
  5 41  1  1
  8 42  1  0
  8 43  1  0
  8 44  1  0
  9 45  1  0
  9 46  1  0
  9 47  1  0
 10 48  1  6
 11 49  1  0
 11 50  1  0
 12 51  1  0
 12 52  1  0
 14 53  1  0
 14 54  1  0
 14 55  1  0
 15 56  1  1
 16 57  1  0
 16 58  1  0
 17 59  1  0
 19 60  1  6
 20 61  1  0
 20 62  1  0
 21 63  1  0
 21 64  1  0
 22 65  1  6
 23 66  1  0
 25 67  1  0
 25 68  1  0
 25 69  1  0
 26 70  1  0
 26 71  1  0
 26 72  1  0
 28 73  1  0
 28 74  1  0
 28 75  1  0
 29 76  1  0
 29 77  1  0
 30 78  1  0
 30 79  1  0
 32 80  1  0
 32 81  1  0
 32 82  1  0
M  END
>  <meeko>  (11) 
{"is_sidechain": [false], "intermolecular_energy": 2.731, "internal_energy": -0.839}

$$$$
EPH_relaxed_0001_pdb2pqr_Repair_13_r2_0001_out
     RDKit          3D

 82 86  0  0  0  0  0  0  0  0999 V2000
    1.0090   14.9680   -2.7200 C   0  0  0  0  0  0  0  0  0  0  0  0
    1.2300   14.2940   -4.0770 C   0  0  2  0  0  0  0  0  0  0  0  0
    0.4850   15.0200   -5.2150 C   0  0  0  0  0  0  0  0  0  0  0  0
    0.9460   14.6060   -6.6150 C   0  0  0  0  0  0  0  0  0  0  0  0
    0.7670   15.7150   -7.6080 C   0  0  2  0  0  0  0  0  0  0  0  0
    0.4310   15.2830   -8.9330 O   0  0  0  0  0  0  0  0  0  0  0  0
    1.6980   15.9430   -8.7840 C   0  0  0  0  0  0  0  0  0  0  0  0
    2.8790   15.0560   -9.0280 C   0  0  0  0  0  0  0  0  0  0  0  0
    1.7470   17.3040   -9.4050 C   0  0  0  0  0  0  0  0  0  0  0  0
    0.7870   12.8370   -4.0120 C   0  0  1  0  0  0  0  0  0  0  0  0
    1.9170   11.8500   -4.4090 C   0  0  0  0  0  0  0  0  0  0  0  0
    1.7380   10.5870   -3.5290 C   0  0  0  0  0  0  0  0  0  0  0  0
    0.3340   10.7460   -2.9000 C   0  0  1  0  0  0  0  0  0  0  0  0
   -0.6580   10.2690   -4.0070 C   0  0  0  0  0  0  0  0  0  0  0  0
    0.0940    9.9970   -1.5480 C   0  0  2  0  0  0  0  0  0  0  0  0
    0.2040    8.4640   -1.6230 C   0  0  0  0  0  0  0  0  0  0  0  0
   -1.0700    7.7470   -1.9230 C   0  0  0  0  0  0  0  0  0  0  0  0
   -2.3040    8.2780   -1.8440 C   0  0  0  0  0  0  0  0  0  0  0  0
   -2.5150    9.7060   -1.3240 C   0  0  1  0  0  0  0  0  0  0  0  0
   -3.6780    9.7170   -0.2980 C   0  0  0  0  0  0  0  0  0  0  0  0
   -4.9590    9.1050   -0.8580 C   0  0  0  0  0  0  0  0  0  0  0  0
   -4.7230    7.6660   -1.3110 C   0  0  2  0  0  0  0  0  0  0  0  0
   -4.4420    6.8620   -0.1620 O   0  0  0  0  0  0  0  0  0  0  0  0
   -3.5660    7.5300   -2.3400 C   0  0  0  0  0  0  0  0  0  0  0  0
   -3.9970    8.1470   -3.6930 C   0  0  0  0  0  0  0  0  0  0  0  0
   -3.3400    6.0170   -2.6060 C   0  0  0  0  0  0  0  0  0  0  0  0
   -1.2170   10.4450   -0.7830 C   0  0  1  0  0  0  0  0  0  0  0  0
   -0.9950   10.0980    0.7210 C   0  0  0  0  0  0  0  0  0  0  0  0
   -1.4460   12.0020   -0.8500 C   0  0  0  0  0  0  0  0  0  0  0  0
   -1.0770   12.7020   -2.1720 C   0  0  0  0  0  0  0  0  0  0  0  0
    0.3250   12.2950   -2.6360 C   0  0  2  0  0  0  0  0  0  0  0  0
    1.3470   12.7820   -1.5520 C   0  0  0  0  0  0  0  0  0  0  0  0
    1.2424   14.2560   -1.9146 H   0  0  0  0  0  0  0  0  0  0  0  0
    1.6663   15.8459   -2.6353 H   0  0  0  0  0  0  0  0  0  0  0  0
   -0.0405   15.2862   -2.6353 H   0  0  0  0  0  0  0  0  0  0  0  0
    2.3058   14.3465   -4.3005 H   0  0  0  0  0  0  0  0  0  0  0  0
   -0.5887   14.7991   -5.1235 H   0  0  0  0  0  0  0  0  0  0  0  0
    0.7034   16.0929   -5.1089 H   0  0  0  0  0  0  0  0  0  0  0  0
    2.0108   14.3330   -6.5735 H   0  0  0  0  0  0  0  0  0  0  0  0
    0.3327   13.7525   -6.9397 H   0  0  0  0  0  0  0  0  0  0  0  0
    0.3901   16.3883   -6.8240 H   0  0  0  0  0  0  0  0  0  0  0  0
    3.3034   14.7372   -8.0645 H   0  0  0  0  0  0  0  0  0  0  0  0
    2.5613   14.1714   -9.5994 H   0  0  0  0  0  0  0  0  0  0  0  0
    3.6401   15.6077   -9.5994 H   0  0  0  0  0  0  0  0  0  0  0  0
    1.7745   18.0674   -8.6135 H   0  0  0  0  0  0  0  0  0  0  0  0
    2.6488   17.3901  -10.0289 H   0  0  0  0  0  0  0  0  0  0  0  0
    0.8537   17.4547  -10.0289 H   0  0  0  0  0  0  0  0  0  0  0  0
   -0.0639   12.8723   -4.7083 H   0  0  0  0  0  0  0  0  0  0  0  0
    1.8319   11.5852   -5.4733 H   0  0  0  0  0  0  0  0  0  0  0  0
    2.9080   12.3017   -4.2542 H   0  0  0  0  0  0  0  0  0  0  0  0
    1.7876    9.6756   -4.1430 H   0  0  0  0  0  0  0  0  0  0  0  0
    2.5275   10.4927   -2.7689 H   0  0  0  0  0  0  0  0  0  0  0  0
   -1.5538    9.8383   -3.5358 H   0  0  0  0  0  0  0  0  0  0  0  0
   -0.9488   11.1257   -4.6326 H   0  0  0  0  0  0  0  0  0  0  0  0
   -0.1704    9.5069   -4.6326 H   0  0  0  0  0  0  0  0  0  0  0  0
    0.9483   10.3287   -0.9396 H   0  0  0  0  0  0  0  0  0  0  0  0
    0.9288    8.2135   -2.4117 H   0  0  0  0  0  0  0  0  0  0  0  0
    0.5112    8.1317   -0.6204 H   0  0  0  0  0  0  0  0  0  0  0  0
   -0.9939    6.6950   -2.2353 H   0  0  0  0  0  0  0  0  0  0  0  0
   -2.7857   10.3122   -2.2010 H   0  0  0  0  0  0  0  0  0  0  0  0
   -3.3713    9.1428    0.5887 H   0  0  0  0  0  0  0  0  0  0  0  0
   -3.8916   10.7665   -0.0470 H   0  0  0  0  0  0  0  0  0  0  0  0
   -5.7338    9.1142   -0.0772 H   0  0  0  0  0  0  0  0  0  0  0  0
   -5.2814    9.6983   -1.7264 H   0  0  0  0  0  0  0  0  0  0  0  0
   -5.6368    7.3258   -1.8201 H   0  0  0  0  0  0  0  0  0  0  0  0
   -5.0500    6.1030   -0.1780 H   0  0  0  0  0  0  0  0  0  0  0  0
   -4.6181    9.0361   -3.5093 H   0  0  0  0  0  0  0  0  0  0  0  0
   -3.1033    8.4360   -4.2655 H   0  0  0  0  0  0  0  0  0  0  0  0
   -4.5759    7.4073   -4.2655 H   0  0  0  0  0  0  0  0  0  0  0  0
   -3.2604    5.4840   -1.6471 H   0  0  0  0  0  0  0  0  0  0  0  0
   -4.1880    5.6149   -3.1797 H   0  0  0  0  0  0  0  0  0  0  0  0
   -2.4115    5.8803   -3.1797 H   0  0  0  0  0  0  0  0  0  0  0  0
   -1.4819   10.8590    1.3486 H   0  0  0  0  0  0  0  0  0  0  0  0
   -1.4298    9.1111    0.9377 H   0  0  0  0  0  0  0  0  0  0  0  0
    0.0833   10.0791    0.9377 H   0  0  0  0  0  0  0  0  0  0  0  0
   -2.5131   12.1899   -0.6605 H   0  0  0  0  0  0  0  0  0  0  0  0
   -0.7629   12.4260   -0.0993 H   0  0  0  0  0  0  0  0  0  0  0  0
   -1.8076   12.4200   -2.9445 H   0  0  0  0  0  0  0  0  0  0  0  0
   -1.0899   13.7896   -2.0081 H   0  0  0  0  0  0  0  0  0  0  0  0
    0.9386   12.5874   -0.5493 H   0  0  0  0  0  0  0  0  0  0  0  0
    2.2962   12.2394   -1.6730 H   0  0  0  0  0  0  0  0  0  0  0  0
    1.5235   13.8610   -1.6730 H   0  0  0  0  0  0  0  0  0  0  0  0
  1  2  1  0
  2  3  1  0
  3  4  1  0
  4  5  1  0
  5  6  1  0
  6  7  1  0
  7  8  1  0
  7  9  1  0
  2 10  1  0
 10 11  1  0
 11 12  1  0
 12 13  1  0
 13 14  1  6
 13 15  1  0
 15 16  1  0
 16 17  1  0
 17 18  2  0
 18 19  1  0
 19 20  1  0
 20 21  1  0
 21 22  1  0
 22 23  1  0
 22 24  1  0
 24 25  1  0
 24 26  1  0
 19 27  1  0
 27 28  1  1
 27 29  1  0
 29 30  1  0
 30 31  1  0
 31 32  1  1
  7  5  1  0
 31 10  1  0
 31 13  1  0
 27 15  1  0
 24 18  1  0
  1 33  1  0
  1 34  1  0
  1 35  1  0
  2 36  1  6
  3 37  1  0
  3 38  1  0
  4 39  1  0
  4 40  1  0
  5 41  1  1
  8 42  1  0
  8 43  1  0
  8 44  1  0
  9 45  1  0
  9 46  1  0
  9 47  1  0
 10 48  1  6
 11 49  1  0
 11 50  1  0
 12 51  1  0
 12 52  1  0
 14 53  1  0
 14 54  1  0
 14 55  1  0
 15 56  1  1
 16 57  1  0
 16 58  1  0
 17 59  1  0
 19 60  1  6
 20 61  1  0
 20 62  1  0
 21 63  1  0
 21 64  1  0
 22 65  1  6
 23 66  1  0
 25 67  1  0
 25 68  1  0
 25 69  1  0
 26 70  1  0
 26 71  1  0
 26 72  1  0
 28 73  1  0
 28 74  1  0
 28 75  1  0
 29 76  1  0
 29 77  1  0
 30 78  1  0
 30 79  1  0
 32 80  1  0
 32 81  1  0
 32 82  1  0
M  END
>  <meeko>  (12) 
{"is_sidechain": [false], "intermolecular_energy": 2.731, "internal_energy": -0.839}

$$$$
EPH_relaxed_0001_pdb2pqr_Repair_13_r2_0001_out
     RDKit          3D

 82 86  0  0  0  0  0  0  0  0999 V2000
    2.5510   16.3430   -7.4400 C   0  0  0  0  0  0  0  0  0  0  0  0
    1.3870   15.3580   -7.3000 C   0  0  2  0  0  0  0  0  0  0  0  0
    0.1470   15.8070   -8.0990 C   0  0  0  0  0  0  0  0  0  0  0  0
    0.4730   16.3230   -9.5030 C   0  0  0  0  0  0  0  0  0  0  0  0
    1.8840   16.0060   -9.8960 C   0  0  2  0  0  0  0  0  0  0  0  0
    2.2920   16.5550  -11.1560 O   0  0  0  0  0  0  0  0  0  0  0  0
    2.2460   15.1210  -11.0740 C   0  0  0  0  0  0  0  0  0  0  0  0
    1.1920   14.4960  -11.9330 C   0  0  0  0  0  0  0  0  0  0  0  0
    3.5950   14.4730  -11.0940 C   0  0  0  0  0  0  0  0  0  0  0  0
    1.0250   15.1860   -5.8290 C   0  0  1  0  0  0  0  0  0  0  0  0
   -0.2880   15.9210   -5.4470 C   0  0  0  0  0  0  0  0  0  0  0  0
   -0.9940   15.0490   -4.3780 C   0  0  0  0  0  0  0  0  0  0  0  0
    0.0790   14.0240   -3.9400 C   0  0  1  0  0  0  0  0  0  0  0  0
    0.9680   14.7900   -2.9100 C   0  0  0  0  0  0  0  0  0  0  0  0
   -0.4520   12.6750   -3.3540 C   0  0  2  0  0  0  0  0  0  0  0  0
   -1.2720   12.8050   -2.0590 C   0  0  0  0  0  0  0  0  0  0  0  0
   -0.4850   12.7200   -0.7940 C   0  0  0  0  0  0  0  0  0  0  0  0
    0.7780   12.2660   -0.6870 C   0  0  0  0  0  0  0  0  0  0  0  0
    1.5100   11.6830   -1.9030 C   0  0  1  0  0  0  0  0  0  0  0  0
    2.2040   10.3550   -1.5020 C   0  0  0  0  0  0  0  0  0  0  0  0
    3.1180   10.5140   -0.2910 C   0  0  0  0  0  0  0  0  0  0  0  0
    2.3420   11.0410    0.9130 C   0  0  2  0  0  0  0  0  0  0  0  0
    1.4060   10.0420    1.3300 O   0  0  0  0  0  0  0  0  0  0  0  0
    1.5930   12.3720    0.6250 C   0  0  0  0  0  0  0  0  0  0  0  0
    2.6180   13.5230    0.4700 C   0  0  0  0  0  0  0  0  0  0  0  0
    0.7380   12.7180    1.8740 C   0  0  0  0  0  0  0  0  0  0  0  0
    0.6480   11.5440   -3.2310 C   0  0  1  0  0  0  0  0  0  0  0  0
   -0.1120   10.1830   -3.2320 C   0  0  0  0  0  0  0  0  0  0  0  0
    1.6160   11.5140   -4.4720 C   0  0  0  0  0  0  0  0  0  0  0  0
    2.0090   12.8740   -5.0800 C   0  0  0  0  0  0  0  0  0  0  0  0
    0.7720   13.7440   -5.3230 C   0  0  2  0  0  0  0  0  0  0  0  0
   -0.1300   13.0100   -6.3720 C   0  0  0  0  0  0  0  0  0  0  0  0
    2.9021   16.6401   -6.4408 H   0  0  0  0  0  0  0  0  0  0  0  0
    3.3737   15.8626   -7.9899 H   0  0  0  0  0  0  0  0  0  0  0  0
    2.2134   17.2338   -7.9899 H   0  0  0  0  0  0  0  0  0  0  0  0
    1.7169   14.3948   -7.7164 H   0  0  0  0  0  0  0  0  0  0  0  0
   -0.5344   14.9487   -8.1940 H   0  0  0  0  0  0  0  0  0  0  0  0
   -0.3059   16.6433   -7.5464 H   0  0  0  0  0  0  0  0  0  0  0  0
   -0.2121   15.8526  -10.2237 H   0  0  0  0  0  0  0  0  0  0  0  0
    0.3545   17.4166   -9.5026 H   0  0  0  0  0  0  0  0  0  0  0  0
    2.2004   15.9976   -8.8425 H   0  0  0  0  0  0  0  0  0  0  0  0
    0.4217   14.0392  -11.2943 H   0  0  0  0  0  0  0  0  0  0  0  0
    0.7317   15.2672  -12.5681 H   0  0  0  0  0  0  0  0  0  0  0  0
    1.6479   13.7221  -12.5681 H   0  0  0  0  0  0  0  0  0  0  0  0
    3.9380   14.3083  -10.0619 H   0  0  0  0  0  0  0  0  0  0  0  0
    3.5303   13.5077  -11.6174 H   0  0  0  0  0  0  0  0  0  0  0  0
    4.3081   15.1268  -11.6174 H   0  0  0  0  0  0  0  0  0  0  0  0
    1.9361   15.5929   -5.3660 H   0  0  0  0  0  0  0  0  0  0  0  0
   -0.0595   16.9148   -5.0345 H   0  0  0  0  0  0  0  0  0  0  0  0
   -0.9312   16.0637   -6.3278 H   0  0  0  0  0  0  0  0  0  0  0  0
   -1.3144   15.6645   -3.5245 H   0  0  0  0  0  0  0  0  0  0  0  0
   -1.9005   14.5631   -4.7681 H   0  0  0  0  0  0  0  0  0  0  0  0
    0.6585   14.5233   -1.8887 H   0  0  0  0  0  0  0  0  0  0  0  0
    2.0222   14.5128   -3.0578 H   0  0  0  0  0  0  0  0  0  0  0  0
    0.8496   15.8736   -3.0578 H   0  0  0  0  0  0  0  0  0  0  0  0
   -1.1629   12.3455   -4.1261 H   0  0  0  0  0  0  0  0  0  0  0  0
   -1.7827   13.7791   -2.0766 H   0  0  0  0  0  0  0  0  0  0  0  0
   -1.9598   11.9466   -2.0473 H   0  0  0  0  0  0  0  0  0  0  0  0
   -0.9787   13.0569    0.1295 H   0  0  0  0  0  0  0  0  0  0  0  0
    2.2668   12.4287   -2.1880 H   0  0  0  0  0  0  0  0  0  0  0  0
    1.4299    9.6107   -1.2640 H   0  0  0  0  0  0  0  0  0  0  0  0
    2.8269   10.0349   -2.3502 H   0  0  0  0  0  0  0  0  0  0  0  0
    3.5540    9.5362   -0.0383 H   0  0  0  0  0  0  0  0  0  0  0  0
    3.9099   11.2353   -0.5413 H   0  0  0  0  0  0  0  0  0  0  0  0
    3.0717   11.2584    1.7069 H   0  0  0  0  0  0  0  0  0  0  0  0
    0.8050    9.8730    0.5850 H   0  0  0  0  0  0  0  0  0  0  0  0
    2.9296   13.8729    1.4652 H   0  0  0  0  0  0  0  0  0  0  0  0
    3.4969   13.1594   -0.0826 H   0  0  0  0  0  0  0  0  0  0  0  0
    2.1554   14.3540   -0.0826 H   0  0  0  0  0  0  0  0  0  0  0  0
    1.3094   12.4868    2.7850 H   0  0  0  0  0  0  0  0  0  0  0  0
    0.4863   13.7887    1.8609 H   0  0  0  0  0  0  0  0  0  0  0  0
   -0.1875   12.1236    1.8609 H   0  0  0  0  0  0  0  0  0  0  0  0
   -0.2911    9.8623   -2.1951 H   0  0  0  0  0  0  0  0  0  0  0  0
   -1.0748   10.3010   -3.7508 H   0  0  0  0  0  0  0  0  0  0  0  0
    0.4936    9.4253   -3.7508 H   0  0  0  0  0  0  0  0  0  0  0  0
    2.5420   11.0092   -4.1595 H   0  0  0  0  0  0  0  0  0  0  0  0
    1.0533   10.9970   -5.2633 H   0  0  0  0  0  0  0  0  0  0  0  0
    2.6855   13.3959   -4.3872 H   0  0  0  0  0  0  0  0  0  0  0  0
    2.5076   12.6961   -6.0443 H   0  0  0  0  0  0  0  0  0  0  0  0
   -0.8800   12.3997   -5.8475 H   0  0  0  0  0  0  0  0  0  0  0  0
   -0.6387   13.7540   -7.0026 H   0  0  0  0  0  0  0  0  0  0  0  0
    0.4951   12.3607   -7.0026 H   0  0  0  0  0  0  0  0  0  0  0  0
  1  2  1  0
  2  3  1  0
  3  4  1  0
  4  5  1  0
  5  6  1  0
  6  7  1  0
  7  8  1  0
  7  9  1  0
  2 10  1  0
 10 11  1  0
 11 12  1  0
 12 13  1  0
 13 14  1  1
 13 15  1  0
 15 16  1  0
 16 17  1  0
 17 18  2  0
 18 19  1  0
 19 20  1  0
 20 21  1  0
 21 22  1  0
 22 23  1  0
 22 24  1  0
 24 25  1  0
 24 26  1  0
 19 27  1  0
 27 28  1  1
 27 29  1  0
 29 30  1  0
 30 31  1  0
 31 32  1  6
  7  5  1  0
 31 10  1  0
 31 13  1  0
 27 15  1  0
 24 18  1  0
  1 33  1  0
  1 34  1  0
  1 35  1  0
  2 36  1  6
  3 37  1  0
  3 38  1  0
  4 39  1  0
  4 40  1  0
  5 41  1  1
  8 42  1  0
  8 43  1  0
  8 44  1  0
  9 45  1  0
  9 46  1  0
  9 47  1  0
 10 48  1  1
 11 49  1  0
 11 50  1  0
 12 51  1  0
 12 52  1  0
 14 53  1  0
 14 54  1  0
 14 55  1  0
 15 56  1  6
 16 57  1  0
 16 58  1  0
 17 59  1  0
 19 60  1  6
 20 61  1  0
 20 62  1  0
 21 63  1  0
 21 64  1  0
 22 65  1  1
 23 66  1  0
 25 67  1  0
 25 68  1  0
 25 69  1  0
 26 70  1  0
 26 71  1  0
 26 72  1  0
 28 73  1  0
 28 74  1  0
 28 75  1  0
 29 76  1  0
 29 77  1  0
 30 78  1  0
 30 79  1  0
 32 80  1  0
 32 81  1  0
 32 82  1  0
M  END
>  <meeko>  (13) 
{"is_sidechain": [false], "intermolecular_energy": 2.731, "internal_energy": -0.839}

$$$$
EPH_relaxed_0001_pdb2pqr_Repair_13_r2_0001_out
     RDKit          3D

 82 86  0  0  0  0  0  0  0  0999 V2000
    0.8130    8.1170   -2.5450 C   0  0  0  0  0  0  0  0  0  0  0  0
   -0.5810    8.4150   -1.9860 C   0  0  2  0  0  0  0  0  0  0  0  0
   -1.6970    7.7910   -2.8480 C   0  0  0  0  0  0  0  0  0  0  0  0
   -3.0460    7.6930   -2.1300 C   0  0  0  0  0  0  0  0  0  0  0  0
   -3.9760    6.7450   -2.8250 C   0  0  2  0  0  0  0  0  0  0  0  0
   -4.9010    7.3670   -3.7260 O   0  0  0  0  0  0  0  0  0  0  0  0
   -5.4730    6.7130   -2.5820 C   0  0  0  0  0  0  0  0  0  0  0  0
   -6.1260    7.6450   -1.6110 C   0  0  0  0  0  0  0  0  0  0  0  0
   -6.2260    5.4620   -2.9160 C   0  0  0  0  0  0  0  0  0  0  0  0
   -0.7860    9.9210   -1.8780 C   0  0  1  0  0  0  0  0  0  0  0  0
   -2.2510   10.3010   -1.5360 C   0  0  0  0  0  0  0  0  0  0  0  0
   -2.1880   11.5580   -0.6300 C   0  0  0  0  0  0  0  0  0  0  0  0
   -0.7270   12.0530   -0.7520 C   0  0  1  0  0  0  0  0  0  0  0  0
   -0.6870   12.8590   -2.0880 C   0  0  0  0  0  0  0  0  0  0  0  0
   -0.1810   12.8950    0.4470 C   0  0  2  0  0  0  0  0  0  0  0  0
   -0.9150   14.2230    0.6990 C   0  0  0  0  0  0  0  0  0  0  0  0
   -0.3580   15.4060   -0.0210 C   0  0  0  0  0  0  0  0  0  0  0  0
    0.8510   15.4660   -0.6090 C   0  0  0  0  0  0  0  0  0  0  0  0
    1.8380   14.2960   -0.5010 C   0  0  1  0  0  0  0  0  0  0  0  0
    3.2460   14.8390   -0.1400 C   0  0  0  0  0  0  0  0  0  0  0  0
    3.7230   15.9170   -1.1080 C   0  0  0  0  0  0  0  0  0  0  0  0
    2.7460   17.0880   -1.1450 C   0  0  2  0  0  0  0  0  0  0  0  0
    2.7660   17.7460    0.1260 O   0  0  0  0  0  0  0  0  0  0  0  0
    1.2910   16.6620   -1.4890 C   0  0  0  0  0  0  0  0  0  0  0  0
    1.2130   16.2290   -2.9740 C   0  0  0  0  0  0  0  0  0  0  0  0
    0.3820   17.9130   -1.3540 C   0  0  0  0  0  0  0  0  0  0  0  0
    1.3890   13.0940    0.4370 C   0  0  1  0  0  0  0  0  0  0  0  0
    1.8110   13.3820    1.9100 C   0  0  0  0  0  0  0  0  0  0  0  0
    2.1550   11.7890    0.0020 C   0  0  0  0  0  0  0  0  0  0  0  0
    1.5040   10.9370   -1.1040 C   0  0  0  0  0  0  0  0  0  0  0  0
    0.0270   10.6740   -0.7950 C   0  0  2  0  0  0  0  0  0  0  0  0
   -0.0450    9.8450    0.5320 C   0  0  0  0  0  0  0  0  0  0  0  0
    1.5171    7.9665   -1.7134 H   0  0  0  0  0  0  0  0  0  0  0  0
    0.7739    7.2069   -3.1616 H   0  0  0  0  0  0  0  0  0  0  0  0
    1.1494    8.9635   -3.1616 H   0  0  0  0  0  0  0  0  0  0  0  0
   -0.6421    7.9593   -0.9867 H   0  0  0  0  0  0  0  0  0  0  0  0
   -1.8269    8.4089   -3.7487 H   0  0  0  0  0  0  0  0  0  0  0  0
   -1.3836    6.7638   -3.0859 H   0  0  0  0  0  0  0  0  0  0  0  0
   -2.8780    7.3385   -1.1023 H   0  0  0  0  0  0  0  0  0  0  0  0
   -3.5089    8.6909   -2.1319 H   0  0  0  0  0  0  0  0  0  0  0  0
   -3.2110    5.9546   -2.8214 H   0  0  0  0  0  0  0  0  0  0  0  0
   -5.8998    7.3221   -0.5841 H   0  0  0  0  0  0  0  0  0  0  0  0
   -5.7436    8.6645   -1.7675 H   0  0  0  0  0  0  0  0  0  0  0  0
   -7.2148    7.6337   -1.7675 H   0  0  0  0  0  0  0  0  0  0  0  0
   -6.5296    4.9576   -1.9868 H   0  0  0  0  0  0  0  0  0  0  0  0
   -7.1202    5.7180   -3.5033 H   0  0  0  0  0  0  0  0  0  0  0  0
   -5.5812    4.7916   -3.5033 H   0  0  0  0  0  0  0  0  0  0  0  0
   -0.4495   10.2251   -2.8801 H   0  0  0  0  0  0  0  0  0  0  0  0
   -2.8088   10.5256   -2.4571 H   0  0  0  0  0  0  0  0  0  0  0  0
   -2.7650    9.4726   -1.0265 H   0  0  0  0  0  0  0  0  0  0  0  0
   -2.8898   12.3276   -0.9839 H   0  0  0  0  0  0  0  0  0  0  0  0
   -2.4686   11.3373    0.4105 H   0  0  0  0  0  0  0  0  0  0  0  0
   -0.6336   13.9350   -1.8656 H   0  0  0  0  0  0  0  0  0  0  0  0
    0.1974   12.5605   -2.6700 H   0  0  0  0  0  0  0  0  0  0  0  0
   -1.5966   12.6496   -2.6700 H   0  0  0  0  0  0  0  0  0  0  0  0
   -0.4159   12.2560    1.3110 H   0  0  0  0  0  0  0  0  0  0  0  0
   -1.9622   14.0971    0.3867 H   0  0  0  0  0  0  0  0  0  0  0  0
   -0.7978   14.4367    1.7717 H   0  0  0  0  0  0  0  0  0  0  0  0
   -0.9894   16.3051   -0.0756 H   0  0  0  0  0  0  0  0  0  0  0  0
    1.8621   13.8255   -1.4950 H   0  0  0  0  0  0  0  0  0  0  0  0
    3.2102   15.2657    0.8732 H   0  0  0  0  0  0  0  0  0  0  0  0
    3.9535   13.9989   -0.2007 H   0  0  0  0  0  0  0  0  0  0  0  0
    4.7091   16.2811   -0.7838 H   0  0  0  0  0  0  0  0  0  0  0  0
    3.7862   15.4807   -2.1158 H   0  0  0  0  0  0  0  0  0  0  0  0
    3.0733   17.7645   -1.9482 H   0  0  0  0  0  0  0  0  0  0  0  0
    3.6930   17.7950    0.4160 H   0  0  0  0  0  0  0  0  0  0  0  0
    1.0182   15.1479   -3.0310 H   0  0  0  0  0  0  0  0  0  0  0  0
    0.3988   16.7750   -3.4729 H   0  0  0  0  0  0  0  0  0  0  0  0
    2.1666   16.4566   -3.4729 H   0  0  0  0  0  0  0  0  0  0  0  0
    0.2203   18.1355   -0.2889 H   0  0  0  0  0  0  0  0  0  0  0  0
    0.8674   18.7729   -1.8387 H   0  0  0  0  0  0  0  0  0  0  0  0
   -0.5858   17.7170   -1.8387 H   0  0  0  0  0  0  0  0  0  0  0  0
    1.1009   12.8974    2.5963 H   0  0  0  0  0  0  0  0  0  0  0  0
    2.8212   12.9840    2.0865 H   0  0  0  0  0  0  0  0  0  0  0  0
    1.8086   14.4677    2.0865 H   0  0  0  0  0  0  0  0  0  0  0  0
    3.1512   12.0909   -0.3536 H   0  0  0  0  0  0  0  0  0  0  0  0
    2.1591   11.1467    0.8950 H   0  0  0  0  0  0  0  0  0  0  0  0
    1.5816   11.4711   -2.0625 H   0  0  0  0  0  0  0  0  0  0  0  0
    2.0286    9.9716   -1.1579 H   0  0  0  0  0  0  0  0  0  0  0  0
    0.0142   10.5263    1.3936 H   0  0  0  0  0  0  0  0  0  0  0  0
   -0.9946    9.2910    0.5672 H   0  0  0  0  0  0  0  0  0  0  0  0
    0.7949    9.1356    0.5672 H   0  0  0  0  0  0  0  0  0  0  0  0
  1  2  1  0
  2  3  1  0
  3  4  1  0
  4  5  1  0
  5  6  1  0
  6  7  1  0
  7  8  1  0
  7  9  1  0
  2 10  1  0
 10 11  1  0
 11 12  1  0
 12 13  1  0
 13 14  1  6
 13 15  1  0
 15 16  1  0
 16 17  1  0
 17 18  2  0
 18 19  1  0
 19 20  1  0
 20 21  1  0
 21 22  1  0
 22 23  1  0
 22 24  1  0
 24 25  1  0
 24 26  1  0
 19 27  1  0
 27 28  1  1
 27 29  1  0
 29 30  1  0
 30 31  1  0
 31 32  1  1
  7  5  1  0
 31 10  1  0
 31 13  1  0
 27 15  1  0
 24 18  1  0
  1 33  1  0
  1 34  1  0
  1 35  1  0
  2 36  1  1
  3 37  1  0
  3 38  1  0
  4 39  1  0
  4 40  1  0
  5 41  1  6
  8 42  1  0
  8 43  1  0
  8 44  1  0
  9 45  1  0
  9 46  1  0
  9 47  1  0
 10 48  1  6
 11 49  1  0
 11 50  1  0
 12 51  1  0
 12 52  1  0
 14 53  1  0
 14 54  1  0
 14 55  1  0
 15 56  1  1
 16 57  1  0
 16 58  1  0
 17 59  1  0
 19 60  1  6
 20 61  1  0
 20 62  1  0
 21 63  1  0
 21 64  1  0
 22 65  1  6
 23 66  1  0
 25 67  1  0
 25 68  1  0
 25 69  1  0
 26 70  1  0
 26 71  1  0
 26 72  1  0
 28 73  1  0
 28 74  1  0
 28 75  1  0
 29 76  1  0
 29 77  1  0
 30 78  1  0
 30 79  1  0
 32 80  1  0
 32 81  1  0
 32 82  1  0
M  END
>  <meeko>  (14) 
{"is_sidechain": [false], "intermolecular_energy": 2.731, "internal_energy": -0.839}

$$$$
EPH_relaxed_0001_pdb2pqr_Repair_13_r2_0001_out
     RDKit          3D

 82 86  0  0  0  0  0  0  0  0999 V2000
    3.1900   11.3350   -4.2360 C   0  0  0  0  0  0  0  0  0  0  0  0
    2.0470   11.8860   -5.0930 C   0  0  2  0  0  0  0  0  0  0  0  0
    2.5620   12.5930   -6.3630 C   0  0  0  0  0  0  0  0  0  0  0  0
    1.8770   13.9330   -6.6410 C   0  0  0  0  0  0  0  0  0  0  0  0
    2.3450   14.5370   -7.9310 C   0  0  2  0  0  0  0  0  0  0  0  0
    2.4440   15.9670   -7.9210 O   0  0  0  0  0  0  0  0  0  0  0  0
    1.4690   15.4060   -8.8140 C   0  0  0  0  0  0  0  0  0  0  0  0
    0.0530   15.7190   -8.4430 C   0  0  0  0  0  0  0  0  0  0  0  0
    1.8260   15.5450  -10.2610 C   0  0  0  0  0  0  0  0  0  0  0  0
    1.1970   12.8470   -4.2700 C   0  0  1  0  0  0  0  0  0  0  0  0
   -0.1940   12.2570   -3.9120 C   0  0  0  0  0  0  0  0  0  0  0  0
   -0.5540   12.7880   -2.5010 C   0  0  0  0  0  0  0  0  0  0  0  0
    0.4700   13.9170   -2.2350 C   0  0  1  0  0  0  0  0  0  0  0  0
   -0.1000   15.1600   -2.9870 C   0  0  0  0  0  0  0  0  0  0  0  0
    0.7710   14.2370   -0.7350 C   0  0  2  0  0  0  0  0  0  0  0  0
   -0.4320   14.7430    0.0790 C   0  0  0  0  0  0  0  0  0  0  0  0
   -0.6160   16.2250    0.0910 C   0  0  0  0  0  0  0  0  0  0  0  0
    0.3060   17.1300   -0.2850 C   0  0  0  0  0  0  0  0  0  0  0  0
    1.7200   16.6940   -0.6860 C   0  0  1  0  0  0  0  0  0  0  0  0
    2.7620   17.6050    0.0150 C   0  0  0  0  0  0  0  0  0  0  0  0
    2.5120   19.0880   -0.2460 C   0  0  0  0  0  0  0  0  0  0  0  0
    1.1170   19.4960    0.2200 C   0  0  2  0  0  0  0  0  0  0  0  0
    1.0580   19.3920    1.6460 O   0  0  0  0  0  0  0  0  0  0  0  0
   -0.0150   18.6400   -0.4130 C   0  0  0  0  0  0  0  0  0  0  0  0
   -0.1470   18.9820   -1.9180 C   0  0  0  0  0  0  0  0  0  0  0  0
   -1.3570   19.0600    0.2460 C   0  0  0  0  0  0  0  0  0  0  0  0
    2.0450   15.1480   -0.5100 C   0  0  1  0  0  0  0  0  0  0  0  0
    2.5410   14.8710    0.9420 C   0  0  0  0  0  0  0  0  0  0  0  0
    3.2340   14.7610   -1.4670 C   0  0  0  0  0  0  0  0  0  0  0  0
    2.8630   14.3380   -2.9010 C   0  0  0  0  0  0  0  0  0  0  0  0
    1.7510   13.2850   -2.8920 C   0  0  2  0  0  0  0  0  0  0  0  0
    2.3030   12.0130   -2.1610 C   0  0  0  0  0  0  0  0  0  0  0  0
    2.9408   11.4551   -3.1713 H   0  0  0  0  0  0  0  0  0  0  0  0
    3.3351   10.2680   -4.4605 H   0  0  0  0  0  0  0  0  0  0  0  0
    4.1152   11.8861   -4.4605 H   0  0  0  0  0  0  0  0  0  0  0  0
    1.4343   11.0316   -5.4165 H   0  0  0  0  0  0  0  0  0  0  0  0
    3.6412   12.7719   -6.2476 H   0  0  0  0  0  0  0  0  0  0  0  0
    2.3348   11.9330   -7.2132 H   0  0  0  0  0  0  0  0  0  0  0  0
    0.7900   13.7733   -6.6956 H   0  0  0  0  0  0  0  0  0  0  0  0
    2.1328   14.6251   -5.8252 H   0  0  0  0  0  0  0  0  0  0  0  0
    2.9652   13.6545   -8.1468 H   0  0  0  0  0  0  0  0  0  0  0  0
   -0.0429   15.7402   -7.3474 H   0  0  0  0  0  0  0  0  0  0  0  0
   -0.2255   16.7004   -8.8545 H   0  0  0  0  0  0  0  0  0  0  0  0
   -0.6132   14.9464   -8.8545 H   0  0  0  0  0  0  0  0  0  0  0  0
    2.8477   15.9428  -10.3500 H   0  0  0  0  0  0  0  0  0  0  0  0
    1.7722   14.5602  -10.7482 H   0  0  0  0  0  0  0  0  0  0  0  0
    1.1205   16.2341  -10.7482 H   0  0  0  0  0  0  0  0  0  0  0  0
    1.1738   13.7066   -4.9559 H   0  0  0  0  0  0  0  0  0  0  0  0
   -0.9455   12.5871   -4.6443 H   0  0  0  0  0  0  0  0  0  0  0  0
   -0.1729   11.1573   -3.9271 H   0  0  0  0  0  0  0  0  0  0  0  0
   -1.5804   13.1832   -2.4852 H   0  0  0  0  0  0  0  0  0  0  0  0
   -0.5127   11.9990   -1.7356 H   0  0  0  0  0  0  0  0  0  0  0  0
   -0.4422   15.9063   -2.2549 H   0  0  0  0  0  0  0  0  0  0  0  0
    0.6866   15.5993   -3.6181 H   0  0  0  0  0  0  0  0  0  0  0  0
   -0.9462   14.8505   -3.6181 H   0  0  0  0  0  0  0  0  0  0  0  0
    1.0114   13.2445   -0.3262 H   0  0  0  0  0  0  0  0  0  0  0  0
   -1.3419   14.2909   -0.3425 H   0  0  0  0  0  0  0  0  0  0  0  0
   -0.2379   14.4519    1.1219 H   0  0  0  0  0  0  0  0  0  0  0  0
   -1.5872   16.6091    0.4363 H   0  0  0  0  0  0  0  0  0  0  0  0
    1.7812   16.8276   -1.7761 H   0  0  0  0  0  0  0  0  0  0  0  0
    2.7152   17.4249    1.0991 H   0  0  0  0  0  0  0  0  0  0  0  0
    3.7523   17.3561   -0.3942 H   0  0  0  0  0  0  0  0  0  0  0  0
    3.2614   19.6808    0.2990 H   0  0  0  0  0  0  0  0  0  0  0  0
    2.5887   19.2720   -1.3278 H   0  0  0  0  0  0  0  0  0  0  0  0
    0.9492   20.5318   -0.1101 H   0  0  0  0  0  0  0  0  0  0  0  0
    1.4280   18.5280    1.8940 H   0  0  0  0  0  0  0  0  0  0  0  0
   -0.5411   20.0030   -2.0288 H   0  0  0  0  0  0  0  0  0  0  0  0
    0.8411   18.9163   -2.3970 H   0  0  0  0  0  0  0  0  0  0  0  0
   -0.8347   18.2695   -2.3970 H   0  0  0  0  0  0  0  0  0  0  0  0
   -1.2539   19.0277    1.3407 H   0  0  0  0  0  0  0  0  0  0  0  0
   -1.6156   20.0820   -0.0679 H   0  0  0  0  0  0  0  0  0  0  0  0
   -2.1521   18.3677   -0.0679 H   0  0  0  0  0  0  0  0  0  0  0  0
    1.8144   15.2768    1.6613 H   0  0  0  0  0  0  0  0  0  0  0  0
    2.6413   13.7863    1.0945 H   0  0  0  0  0  0  0  0  0  0  0  0
    3.5172   15.3546    1.0945 H   0  0  0  0  0  0  0  0  0  0  0  0
    3.9002   15.6333   -1.5394 H   0  0  0  0  0  0  0  0  0  0  0  0
    3.6897   13.8688   -1.0129 H   0  0  0  0  0  0  0  0  0  0  0  0
    2.5177   15.2211   -3.4586 H   0  0  0  0  0  0  0  0  0  0  0  0
    3.7531   13.9038   -3.3798 H   0  0  0  0  0  0  0  0  0  0  0  0
    2.2396   12.1591   -1.0726 H   0  0  0  0  0  0  0  0  0  0  0  0
    1.7045   11.1361   -2.4487 H   0  0  0  0  0  0  0  0  0  0  0  0
    3.3523   11.8512   -2.4487 H   0  0  0  0  0  0  0  0  0  0  0  0
  1  2  1  0
  2  3  1  0
  3  4  1  0
  4  5  1  0
  5  6  1  0
  6  7  1  0
  7  8  1  0
  7  9  1  0
  2 10  1  0
 10 11  1  0
 11 12  1  0
 12 13  1  0
 13 14  1  6
 13 15  1  0
 15 16  1  0
 16 17  1  0
 17 18  2  0
 18 19  1  0
 19 20  1  0
 20 21  1  0
 21 22  1  0
 22 23  1  0
 22 24  1  0
 24 25  1  0
 24 26  1  0
 19 27  1  0
 27 28  1  1
 27 29  1  0
 29 30  1  0
 30 31  1  0
 31 32  1  1
  7  5  1  0
 31 10  1  0
 31 13  1  0
 27 15  1  0
 24 18  1  0
  1 33  1  0
  1 34  1  0
  1 35  1  0
  2 36  1  6
  3 37  1  0
  3 38  1  0
  4 39  1  0
  4 40  1  0
  5 41  1  6
  8 42  1  0
  8 43  1  0
  8 44  1  0
  9 45  1  0
  9 46  1  0
  9 47  1  0
 10 48  1  6
 11 49  1  0
 11 50  1  0
 12 51  1  0
 12 52  1  0
 14 53  1  0
 14 54  1  0
 14 55  1  0
 15 56  1  1
 16 57  1  0
 16 58  1  0
 17 59  1  0
 19 60  1  6
 20 61  1  0
 20 62  1  0
 21 63  1  0
 21 64  1  0
 22 65  1  1
 23 66  1  0
 25 67  1  0
 25 68  1  0
 25 69  1  0
 26 70  1  0
 26 71  1  0
 26 72  1  0
 28 73  1  0
 28 74  1  0
 28 75  1  0
 29 76  1  0
 29 77  1  0
 30 78  1  0
 30 79  1  0
 32 80  1  0
 32 81  1  0
 32 82  1  0
M  END
>  <meeko>  (15) 
{"is_sidechain": [false], "intermolecular_energy": 2.731, "internal_energy": -0.839}

$$$$
EPH_relaxed_0001_pdb2pqr_Repair_13_r2_0001_out
     RDKit          3D

 82 86  0  0  0  0  0  0  0  0999 V2000
   -2.4820    7.8180   -0.1110 C   0  0  0  0  0  0  0  0  0  0  0  0
   -3.1550    9.1910   -0.1880 C   0  0  2  0  0  0  0  0  0  0  0  0
   -4.6130    9.0960   -0.6800 C   0  0  0  0  0  0  0  0  0  0  0  0
   -5.1510    7.6630   -0.7380 C   0  0  0  0  0  0  0  0  0  0  0  0
   -5.9640    7.4260   -1.9750 C   0  0  2  0  0  0  0  0  0  0  0  0
   -6.8950    8.4700   -2.2880 O   0  0  0  0  0  0  0  0  0  0  0  0
   -7.4630    7.1910   -1.9590 C   0  0  0  0  0  0  0  0  0  0  0  0
   -8.2370    7.1810   -0.6780 C   0  0  0  0  0  0  0  0  0  0  0  0
   -8.0900    6.4920   -3.1240 C   0  0  0  0  0  0  0  0  0  0  0  0
   -2.3560   10.1110   -1.1040 C   0  0  1  0  0  0  0  0  0  0  0  0
   -2.9620   11.5360   -1.1950 C   0  0  0  0  0  0  0  0  0  0  0  0
   -1.7720   12.5210   -1.3270 C   0  0  0  0  0  0  0  0  0  0  0  0
   -0.5540   11.6210   -1.6400 C   0  0  1  0  0  0  0  0  0  0  0  0
   -0.6500   11.3340   -3.1720 C   0  0  0  0  0  0  0  0  0  0  0  0
    0.8470   12.1920   -1.2470 C   0  0  2  0  0  0  0  0  0  0  0  0
    1.2520   13.4860   -1.9740 C   0  0  0  0  0  0  0  0  0  0  0  0
    2.0010   13.2930   -3.2510 C   0  0  0  0  0  0  0  0  0  0  0  0
    2.5840   12.1470   -3.6500 C   0  0  0  0  0  0  0  0  0  0  0  0
    2.6050   10.9150   -2.7370 C   0  0  1  0  0  0  0  0  0  0  0  0
    4.0330   10.3070   -2.7210 C   0  0  0  0  0  0  0  0  0  0  0  0
    4.5550   10.0040   -4.1220 C   0  0  0  0  0  0  0  0  0  0  0  0
    4.5730   11.2650   -4.9810 C   0  0  2  0  0  0  0  0  0  0  0  0
    5.5450   12.1710   -4.4500 O   0  0  0  0  0  0  0  0  0  0  0  0
    3.1910   11.9710   -5.0640 C   0  0  0  0  0  0  0  0  0  0  0  0
    2.2170   11.1110   -5.9070 C   0  0  0  0  0  0  0  0  0  0  0  0
    3.3800   13.3020   -5.8410 C   0  0  0  0  0  0  0  0  0  0  0  0
    2.0150   11.1240   -1.2760 C   0  0  1  0  0  0  0  0  0  0  0  0
    3.1280   11.6560   -0.3230 C   0  0  0  0  0  0  0  0  0  0  0  0
    1.5640    9.7300   -0.6990 C   0  0  0  0  0  0  0  0  0  0  0  0
    0.1290    9.2750   -1.0230 C   0  0  0  0  0  0  0  0  0  0  0  0
   -0.8800   10.3880   -0.7210 C   0  0  2  0  0  0  0  0  0  0  0  0
   -0.8220   10.6820    0.8160 C   0  0  0  0  0  0  0  0  0  0  0  0
   -2.3438    7.5360    0.9432 H   0  0  0  0  0  0  0  0  0  0  0  0
   -3.1158    7.0704   -0.6104 H   0  0  0  0  0  0  0  0  0  0  0  0
   -1.5029    7.8611   -0.6104 H   0  0  0  0  0  0  0  0  0  0  0  0
   -3.1761    9.6065    0.8303 H   0  0  0  0  0  0  0  0  0  0  0  0
   -5.2487    9.6783    0.0032 H   0  0  0  0  0  0  0  0  0  0  0  0
   -4.6318    9.4883   -1.7075 H   0  0  0  0  0  0  0  0  0  0  0  0
   -4.3025    6.9630   -0.7294 H   0  0  0  0  0  0  0  0  0  0  0  0
   -5.8010    7.5050    0.1352 H   0  0  0  0  0  0  0  0  0  0  0  0
   -5.1358    6.8727   -2.4419 H   0  0  0  0  0  0  0  0  0  0  0  0
   -7.5391    7.1900    0.1722 H   0  0  0  0  0  0  0  0  0  0  0  0
   -8.8820    8.0709   -0.6324 H   0  0  0  0  0  0  0  0  0  0  0  0
   -8.8588    6.2747   -0.6324 H   0  0  0  0  0  0  0  0  0  0  0  0
   -8.7828    5.7196   -2.7587 H   0  0  0  0  0  0  0  0  0  0  0  0
   -8.6426    7.2210   -3.7349 H   0  0  0  0  0  0  0  0  0  0  0  0
   -7.3055    6.0215   -3.7349 H   0  0  0  0  0  0  0  0  0  0  0  0
   -2.4003    9.5280   -2.0358 H   0  0  0  0  0  0  0  0  0  0  0  0
   -3.6172   11.6134   -2.0752 H   0  0  0  0  0  0  0  0  0  0  0  0
   -3.5673   11.7651   -0.3056 H   0  0  0  0  0  0  0  0  0  0  0  0
   -1.9478   13.2350   -2.1451 H   0  0  0  0  0  0  0  0  0  0  0  0
   -1.6244   13.1214   -0.4172 H   0  0  0  0  0  0  0  0  0  0  0  0
   -0.9953   10.3017   -3.3307 H   0  0  0  0  0  0  0  0  0  0  0  0
   -1.3629   12.0340   -3.6322 H   0  0  0  0  0  0  0  0  0  0  0  0
    0.3406   11.4641   -3.6322 H   0  0  0  0  0  0  0  0  0  0  0  0
    0.6983   12.4741   -0.1942 H   0  0  0  0  0  0  0  0  0  0  0  0
    0.3351   14.0501   -2.1998 H   0  0  0  0  0  0  0  0  0  0  0  0
    1.9385   14.0138   -1.2956 H   0  0  0  0  0  0  0  0  0  0  0  0
    2.0834   14.1603   -3.9225 H   0  0  0  0  0  0  0  0  0  0  0  0
    1.8979   10.1973   -3.1785 H   0  0  0  0  0  0  0  0  0  0  0  0
    4.7152   11.0216   -2.2373 H   0  0  0  0  0  0  0  0  0  0  0  0
    3.9852    9.3565   -2.1694 H   0  0  0  0  0  0  0  0  0  0  0  0
    5.5772    9.6048   -4.0469 H   0  0  0  0  0  0  0  0  0  0  0  0
    3.8883    9.2670   -4.5936 H   0  0  0  0  0  0  0  0  0  0  0  0
    4.8312   10.9611   -6.0062 H   0  0  0  0  0  0  0  0  0  0  0  0
    5.2100   12.4950   -3.5970 H   0  0  0  0  0  0  0  0  0  0  0  0
    1.5633   10.5338   -5.2365 H   0  0  0  0  0  0  0  0  0  0  0  0
    1.6035   11.7675   -6.5416 H   0  0  0  0  0  0  0  0  0  0  0  0
    2.7924   10.4209   -6.5416 H   0  0  0  0  0  0  0  0  0  0  0  0
    3.4976   14.1301   -5.1266 H   0  0  0  0  0  0  0  0  0  0  0  0
    4.2774   13.2331   -6.4734 H   0  0  0  0  0  0  0  0  0  0  0  0
    2.4989   13.4857   -6.4734 H   0  0  0  0  0  0  0  0  0  0  0  0
    2.8178   11.5077    0.7219 H   0  0  0  0  0  0  0  0  0  0  0  0
    4.0631   11.1075   -0.5092 H   0  0  0  0  0  0  0  0  0  0  0  0
    3.2885   12.7282   -0.5092 H   0  0  0  0  0  0  0  0  0  0  0  0
    2.2518    8.9681   -1.0944 H   0  0  0  0  0  0  0  0  0  0  0  0
    1.5876    9.8501    0.3942 H   0  0  0  0  0  0  0  0  0  0  0  0
    0.0668    9.0124   -2.0894 H   0  0  0  0  0  0  0  0  0  0  0  0
   -0.1125    8.4031   -0.3973 H   0  0  0  0  0  0  0  0  0  0  0  0
   -1.0054    9.7522    1.3743 H   0  0  0  0  0  0  0  0  0  0  0  0
    0.1713   11.0763    1.0767 H   0  0  0  0  0  0  0  0  0  0  0  0
   -1.5911   11.4240    1.0767 H   0  0  0  0  0  0  0  0  0  0  0  0
  1  2  1  0
  2  3  1  0
  3  4  1  0
  4  5  1  0
  5  6  1  0
  6  7  1  0
  7  8  1  0
  7  9  1  0
  2 10  1  0
 10 11  1  0
 11 12  1  0
 12 13  1  0
 13 14  1  6
 13 15  1  0
 15 16  1  0
 16 17  1  0
 17 18  2  0
 18 19  1  0
 19 20  1  0
 20 21  1  0
 21 22  1  0
 22 23  1  0
 22 24  1  0
 24 25  1  0
 24 26  1  0
 19 27  1  0
 27 28  1  1
 27 29  1  0
 29 30  1  0
 30 31  1  0
 31 32  1  1
  7  5  1  0
 31 10  1  0
 31 13  1  0
 27 15  1  0
 24 18  1  0
  1 33  1  0
  1 34  1  0
  1 35  1  0
  2 36  1  1
  3 37  1  0
  3 38  1  0
  4 39  1  0
  4 40  1  0
  5 41  1  6
  8 42  1  0
  8 43  1  0
  8 44  1  0
  9 45  1  0
  9 46  1  0
  9 47  1  0
 10 48  1  6
 11 49  1  0
 11 50  1  0
 12 51  1  0
 12 52  1  0
 14 53  1  0
 14 54  1  0
 14 55  1  0
 15 56  1  1
 16 57  1  0
 16 58  1  0
 17 59  1  0
 19 60  1  6
 20 61  1  0
 20 62  1  0
 21 63  1  0
 21 64  1  0
 22 65  1  6
 23 66  1  0
 25 67  1  0
 25 68  1  0
 25 69  1  0
 26 70  1  0
 26 71  1  0
 26 72  1  0
 28 73  1  0
 28 74  1  0
 28 75  1  0
 29 76  1  0
 29 77  1  0
 30 78  1  0
 30 79  1  0
 32 80  1  0
 32 81  1  0
 32 82  1  0
M  END
>  <meeko>  (16) 
{"is_sidechain": [false], "intermolecular_energy": 2.731, "internal_energy": -0.839}

$$$$
EPH_relaxed_0001_pdb2pqr_Repair_13_r2_0001_out
     RDKit          3D

 82 86  0  0  0  0  0  0  0  0999 V2000
   -2.1140    9.6400   -0.3560 C   0  0  0  0  0  0  0  0  0  0  0  0
   -1.5880   10.5670   -1.4550 C   0  0  2  0  0  0  0  0  0  0  0  0
   -0.6360    9.8380   -2.4240 C   0  0  0  0  0  0  0  0  0  0  0  0
    0.7400    9.5360   -1.8250 C   0  0  0  0  0  0  0  0  0  0  0  0
    1.8480   10.0240   -2.7080 C   0  0  2  0  0  0  0  0  0  0  0  0
    2.9980    9.1690   -2.7530 O   0  0  0  0  0  0  0  0  0  0  0  0
    3.2000   10.4720   -2.1840 C   0  0  0  0  0  0  0  0  0  0  0  0
    3.5140   10.4550   -0.7210 C   0  0  0  0  0  0  0  0  0  0  0  0
    4.0320   11.3800   -3.0350 C   0  0  0  0  0  0  0  0  0  0  0  0
   -0.8780   11.7630   -0.8300 C   0  0  1  0  0  0  0  0  0  0  0  0
    0.2720   11.3440    0.1230 C   0  0  0  0  0  0  0  0  0  0  0  0
    1.3850   12.4140   -0.0220 C   0  0  0  0  0  0  0  0  0  0  0  0
    0.7120   13.5760   -0.7890 C   0  0  1  0  0  0  0  0  0  0  0  0
   -0.0830   14.3670    0.2970 C   0  0  0  0  0  0  0  0  0  0  0  0
    1.6650   14.5100   -1.6030 C   0  0  2  0  0  0  0  0  0  0  0  0
    2.6970   15.2810   -0.7610 C   0  0  0  0  0  0  0  0  0  0  0  0
    2.2520   16.6220   -0.2790 C   0  0  0  0  0  0  0  0  0  0  0  0
    1.1900   17.3080   -0.7410 C   0  0  0  0  0  0  0  0  0  0  0  0
    0.3670   16.7810   -1.9240 C   0  0  1  0  0  0  0  0  0  0  0  0
    0.1160   17.9310   -2.9340 C   0  0  0  0  0  0  0  0  0  0  0  0
   -0.5180   19.1550   -2.2800 C   0  0  0  0  0  0  0  0  0  0  0  0
    0.3580   19.6850   -1.1480 C   0  0  2  0  0  0  0  0  0  0  0  0
    1.5730   20.1950   -1.7050 O   0  0  0  0  0  0  0  0  0  0  0  0
    0.6860   18.6100   -0.0730 C   0  0  0  0  0  0  0  0  0  0  0  0
   -0.5920   18.2780    0.7370 C   0  0  0  0  0  0  0  0  0  0  0  0
    1.6890   19.2340    0.9350 C   0  0  0  0  0  0  0  0  0  0  0  0
    0.9210   15.4650   -2.6220 C   0  0  1  0  0  0  0  0  0  0  0  0
    1.9630   15.8440   -3.7190 C   0  0  0  0  0  0  0  0  0  0  0  0
   -0.2630   14.7410   -3.3660 C   0  0  0  0  0  0  0  0  0  0  0  0
   -1.0930   13.7390   -2.5400 C   0  0  0  0  0  0  0  0  0  0  0  0
   -0.1840   12.7600   -1.7910 C   0  0  2  0  0  0  0  0  0  0  0  0
    0.6120   11.9340   -2.8590 C   0  0  0  0  0  0  0  0  0  0  0  0
   -1.8726   10.0655    0.6292 H   0  0  0  0  0  0  0  0  0  0  0  0
   -3.2048    9.5375   -0.4538 H   0  0  0  0  0  0  0  0  0  0  0  0
   -1.6425    8.6510   -0.4538 H   0  0  0  0  0  0  0  0  0  0  0  0
   -2.4539   10.9113   -2.0395 H   0  0  0  0  0  0  0  0  0  0  0  0
   -1.1026    8.8866   -2.7190 H   0  0  0  0  0  0  0  0  0  0  0  0
   -0.4733   10.5092   -3.2801 H   0  0  0  0  0  0  0  0  0  0  0  0
    0.8194   10.0319   -0.8463 H   0  0  0  0  0  0  0  0  0  0  0  0
    0.8378    8.4451   -1.7232 H   0  0  0  0  0  0  0  0  0  0  0  0
    1.1272   10.4978   -3.3907 H   0  0  0  0  0  0  0  0  0  0  0  0
    2.5785   10.5056   -0.1446 H   0  0  0  0  0  0  0  0  0  0  0  0
    4.0486    9.5266   -0.4715 H   0  0  0  0  0  0  0  0  0  0  0  0
    4.1457   11.3203   -0.4715 H   0  0  0  0  0  0  0  0  0  0  0  0
    4.6341   12.0371   -2.3902 H   0  0  0  0  0  0  0  0  0  0  0  0
    4.6988   10.7783   -3.6700 H   0  0  0  0  0  0  0  0  0  0  0  0
    3.3744   11.9918   -3.6700 H   0  0  0  0  0  0  0  0  0  0  0  0
   -1.7337   12.2487   -0.3382 H   0  0  0  0  0  0  0  0  0  0  0  0
   -0.0894   11.3115    1.1614 H   0  0  0  0  0  0  0  0  0  0  0  0
    0.6508   10.3430   -0.1310 H   0  0  0  0  0  0  0  0  0  0  0  0
    1.7314   12.7503    0.9664 H   0  0  0  0  0  0  0  0  0  0  0  0
    2.2707   12.0260   -0.5463 H   0  0  0  0  0  0  0  0  0  0  0  0
    0.2417   14.0439    1.2971 H   0  0  0  0  0  0  0  0  0  0  0  0
    0.1080   15.4439    0.1796 H   0  0  0  0  0  0  0  0  0  0  0  0
   -1.1589   14.1705    0.1796 H   0  0  0  0  0  0  0  0  0  0  0  0
    2.2442   13.7926   -2.2029 H   0  0  0  0  0  0  0  0  0  0  0  0
    2.9441   14.6684    0.1186 H   0  0  0  0  0  0  0  0  0  0  0  0
    3.5549   15.4651   -1.4244 H   0  0  0  0  0  0  0  0  0  0  0  0
    2.8427   17.0896    0.5225 H   0  0  0  0  0  0  0  0  0  0  0  0
   -0.5899   16.4410   -1.5013 H   0  0  0  0  0  0  0  0  0  0  0  0
    1.0780   18.2268   -3.3780 H   0  0  0  0  0  0  0  0  0  0  0  0
   -0.5841   17.5592   -3.6966 H   0  0  0  0  0  0  0  0  0  0  0  0
   -0.6434   19.9431   -3.0371 H   0  0  0  0  0  0  0  0  0  0  0  0
   -1.4930   18.8638   -1.8621 H   0  0  0  0  0  0  0  0  0  0  0  0
   -0.2074   20.4779   -0.6366 H   0  0  0  0  0  0  0  0  0  0  0  0
    1.4590   21.1510   -1.8330 H   0  0  0  0  0  0  0  0  0  0  0  0
   -0.3696   18.3358    1.8127 H   0  0  0  0  0  0  0  0  0  0  0  0
   -1.3828   19.0005    0.4867 H   0  0  0  0  0  0  0  0  0  0  0  0
   -0.9311   17.2619    0.4867 H   0  0  0  0  0  0  0  0  0  0  0  0
    1.3542   19.0257    1.9619 H   0  0  0  0  0  0  0  0  0  0  0  0
    2.6861   18.7965    0.7786 H   0  0  0  0  0  0  0  0  0  0  0  0
    1.7372   20.3218    0.7786 H   0  0  0  0  0  0  0  0  0  0  0  0
    2.8934   16.1824   -3.2396 H   0  0  0  0  0  0  0  0  0  0  0  0
    2.1722   14.9644   -4.3455 H   0  0  0  0  0  0  0  0  0  0  0  0
    1.5582   16.6525   -4.3455 H   0  0  0  0  0  0  0  0  0  0  0  0
   -0.9493   15.5178   -3.7343 H   0  0  0  0  0  0  0  0  0  0  0  0
    0.2161   14.1390   -4.1522 H   0  0  0  0  0  0  0  0  0  0  0  0
   -1.7038   14.2922   -1.8114 H   0  0  0  0  0  0  0  0  0  0  0  0
   -1.7354   13.1667   -3.2255 H   0  0  0  0  0  0  0  0  0  0  0  0
    1.2886   11.2319   -2.3498 H   0  0  0  0  0  0  0  0  0  0  0  0
   -0.0937   11.3720   -3.4884 H   0  0  0  0  0  0  0  0  0  0  0  0
    1.1998   12.6184   -3.4884 H   0  0  0  0  0  0  0  0  0  0  0  0
  1  2  1  0
  2  3  1  0
  3  4  1  0
  4  5  1  0
  5  6  1  0
  6  7  1  0
  7  8  1  0
  7  9  1  0
  2 10  1  0
 10 11  1  0
 11 12  1  0
 12 13  1  0
 13 14  1  1
 13 15  1  0
 15 16  1  0
 16 17  1  0
 17 18  2  0
 18 19  1  0
 19 20  1  0
 20 21  1  0
 21 22  1  0
 22 23  1  0
 22 24  1  0
 24 25  1  0
 24 26  1  0
 19 27  1  0
 27 28  1  6
 27 29  1  0
 29 30  1  0
 30 31  1  0
 31 32  1  6
  7  5  1  0
 31 10  1  0
 31 13  1  0
 27 15  1  0
 24 18  1  0
  1 33  1  0
  1 34  1  0
  1 35  1  0
  2 36  1  6
  3 37  1  0
  3 38  1  0
  4 39  1  0
  4 40  1  0
  5 41  1  6
  8 42  1  0
  8 43  1  0
  8 44  1  0
  9 45  1  0
  9 46  1  0
  9 47  1  0
 10 48  1  1
 11 49  1  0
 11 50  1  0
 12 51  1  0
 12 52  1  0
 14 53  1  0
 14 54  1  0
 14 55  1  0
 15 56  1  6
 16 57  1  0
 16 58  1  0
 17 59  1  0
 19 60  1  1
 20 61  1  0
 20 62  1  0
 21 63  1  0
 21 64  1  0
 22 65  1  1
 23 66  1  0
 25 67  1  0
 25 68  1  0
 25 69  1  0
 26 70  1  0
 26 71  1  0
 26 72  1  0
 28 73  1  0
 28 74  1  0
 28 75  1  0
 29 76  1  0
 29 77  1  0
 30 78  1  0
 30 79  1  0
 32 80  1  0
 32 81  1  0
 32 82  1  0
M  END
>  <meeko>  (17) 
{"is_sidechain": [false], "intermolecular_energy": 2.731, "internal_energy": -0.839}

$$$$
