EPH_relaxed_0001_pdb2pqr_Repair_385_r2_0001_out
     RDKit          3D

 82 86  0  0  0  0  0  0  0  0999 V2000
   -5.6330    6.3380   -3.6970 C   0  0  0  0  0  0  0  0  0  0  0  0
   -5.8830    7.4210   -2.6440 C   0  0  2  0  0  0  0  0  0  0  0  0
   -4.8380    7.3810   -1.5110 C   0  0  0  0  0  0  0  0  0  0  0  0
   -3.4710    7.9410   -1.9130 C   0  0  0  0  0  0  0  0  0  0  0  0
   -2.8030    8.6460   -0.7720 C   0  0  2  0  0  0  0  0  0  0  0  0
   -2.8590   10.0770   -0.8360 O   0  0  0  0  0  0  0  0  0  0  0  0
   -1.5510    9.4900   -0.9270 C   0  0  0  0  0  0  0  0  0  0  0  0
   -0.8930    9.6720   -2.2590 C   0  0  0  0  0  0  0  0  0  0  0  0
   -0.6970    9.7310    0.2780 C   0  0  0  0  0  0  0  0  0  0  0  0
   -7.2850    7.2710   -2.0660 C   0  0  1  0  0  0  0  0  0  0  0  0
   -7.3090    6.4150   -0.7710 C   0  0  0  0  0  0  0  0  0  0  0  0
   -8.4070    7.0170    0.1420 C   0  0  0  0  0  0  0  0  0  0  0  0
   -9.1980    7.9760   -0.7780 C   0  0  1  0  0  0  0  0  0  0  0  0
  -10.1810    7.0560   -1.5670 C   0  0  0  0  0  0  0  0  0  0  0  0
   -9.9480    9.1510   -0.0700 C   0  0  2  0  0  0  0  0  0  0  0  0
  -11.0510    8.7220    0.9130 C   0  0  0  0  0  0  0  0  0  0  0  0
  -12.4140    8.5800    0.3210 C   0  0  0  0  0  0  0  0  0  0  0  0
  -12.8000    9.0590   -0.8760 C   0  0  0  0  0  0  0  0  0  0  0  0
  -11.8500    9.9110   -1.7270 C   0  0  1  0  0  0  0  0  0  0  0  0
  -12.6060   11.1580   -2.2560 C   0  0  0  0  0  0  0  0  0  0  0  0
  -13.8880   10.7940   -3.0000 C   0  0  0  0  0  0  0  0  0  0  0  0
  -14.8310    9.9970   -2.1020 C   0  0  2  0  0  0  0  0  0  0  0  0
  -15.2870   10.8460   -1.0440 O   0  0  0  0  0  0  0  0  0  0  0  0
  -14.1760    8.7220   -1.5030 C   0  0  0  0  0  0  0  0  0  0  0  0
  -13.9560    7.6740   -2.6220 C   0  0  0  0  0  0  0  0  0  0  0  0
  -15.1860    8.0880   -0.5080 C   0  0  0  0  0  0  0  0  0  0  0  0
  -10.4590   10.2800   -1.0540 C   0  0  1  0  0  0  0  0  0  0  0  0
  -10.6080   11.5780   -0.2030 C   0  0  0  0  0  0  0  0  0  0  0  0
   -9.4120   10.6080   -2.1830 C   0  0  0  0  0  0  0  0  0  0  0  0
   -8.6160    9.4210   -2.7590 C   0  0  0  0  0  0  0  0  0  0  0  0
   -8.0200    8.5650   -1.6370 C   0  0  2  0  0  0  0  0  0  0  0  0
   -7.0100    9.4590   -0.8400 C   0  0  0  0  0  0  0  0  0  0  0  0
   -5.4127    5.3837   -3.1963 H   0  0  0  0  0  0  0  0  0  0  0  0
   -6.5285    6.2241   -4.3256 H   0  0  0  0  0  0  0  0  0  0  0  0
   -4.7782    6.6281   -4.3256 H   0  0  0  0  0  0  0  0  0  0  0  0
   -5.7904    8.3964   -3.1440 H   0  0  0  0  0  0  0  0  0  0  0  0
   -5.2201    7.9718   -0.6654 H   0  0  0  0  0  0  0  0  0  0  0  0
   -4.6874    6.3230   -1.2505 H   0  0  0  0  0  0  0  0  0  0  0  0
   -2.8293    7.1112   -2.2440 H   0  0  0  0  0  0  0  0  0  0  0  0
   -3.6238    8.6690   -2.7234 H   0  0  0  0  0  0  0  0  0  0  0  0
   -3.0601    7.8263   -0.0850 H   0  0  0  0  0  0  0  0  0  0  0  0
    0.1577    9.9626   -2.1123 H   0  0  0  0  0  0  0  0  0  0  0  0
   -0.9371    8.7279   -2.8218 H   0  0  0  0  0  0  0  0  0  0  0  0
   -1.4160   10.4592   -2.8218 H   0  0  0  0  0  0  0  0  0  0  0  0
   -1.2915    9.5632    1.1882 H   0  0  0  0  0  0  0  0  0  0  0  0
    0.1580    9.0391    0.2658 H   0  0  0  0  0  0  0  0  0  0  0  0
   -0.3298   10.7678    0.2658 H   0  0  0  0  0  0  0  0  0  0  0  0
   -7.7930    6.8190   -2.9306 H   0  0  0  0  0  0  0  0  0  0  0  0
   -7.5487    5.3690   -1.0126 H   0  0  0  0  0  0  0  0  0  0  0  0
   -6.3292    6.4269   -0.2712 H   0  0  0  0  0  0  0  0  0  0  0  0
   -9.0630    6.2257    0.5337 H   0  0  0  0  0  0  0  0  0  0  0  0
   -7.9849    7.5326    1.0172 H   0  0  0  0  0  0  0  0  0  0  0  0
  -10.7948    6.4815   -0.8576 H   0  0  0  0  0  0  0  0  0  0  0  0
  -10.8343    7.6747   -2.1998 H   0  0  0  0  0  0  0  0  0  0  0  0
   -9.6068    6.3632   -2.1998 H   0  0  0  0  0  0  0  0  0  0  0  0
   -9.1552    9.5995    0.5467 H   0  0  0  0  0  0  0  0  0  0  0  0
  -10.7643    7.7507    1.3425 H   0  0  0  0  0  0  0  0  0  0  0  0
  -11.1254    9.5287    1.6572 H   0  0  0  0  0  0  0  0  0  0  0  0
  -13.1663    8.0382    0.9130 H   0  0  0  0  0  0  0  0  0  0  0  0
  -11.5441    9.2749   -2.5706 H   0  0  0  0  0  0  0  0  0  0  0  0
  -12.8645   11.8019   -1.4024 H   0  0  0  0  0  0  0  0  0  0  0  0
  -11.9430   11.6736   -2.9663 H   0  0  0  0  0  0  0  0  0  0  0  0
  -14.3919   11.7171   -3.3223 H   0  0  0  0  0  0  0  0  0  0  0  0
  -13.6255   10.1756   -3.8710 H   0  0  0  0  0  0  0  0  0  0  0  0
  -15.6693    9.6543   -2.7263 H   0  0  0  0  0  0  0  0  0  0  0  0
  -14.8800   10.5330   -0.2190 H   0  0  0  0  0  0  0  0  0  0  0  0
  -13.7500    6.6926   -2.1699 H   0  0  0  0  0  0  0  0  0  0  0  0
  -14.8599    7.6080   -3.2454 H   0  0  0  0  0  0  0  0  0  0  0  0
  -13.1019    7.9771   -3.2454 H   0  0  0  0  0  0  0  0  0  0  0  0
  -14.8617    8.2916    0.5232 H   0  0  0  0  0  0  0  0  0  0  0  0
  -16.1833    8.5224   -0.6712 H   0  0  0  0  0  0  0  0  0  0  0  0
  -15.2283    7.0010   -0.6712 H   0  0  0  0  0  0  0  0  0  0  0  0
  -10.5785   11.3209    0.8661 H   0  0  0  0  0  0  0  0  0  0  0  0
   -9.7830   12.2668   -0.4374 H   0  0  0  0  0  0  0  0  0  0  0  0
  -11.5676   12.0620   -0.4374 H   0  0  0  0  0  0  0  0  0  0  0  0
   -9.9563   11.0786   -3.0150 H   0  0  0  0  0  0  0  0  0  0  0  0
   -8.6610   11.2511   -1.7008 H   0  0  0  0  0  0  0  0  0  0  0  0
   -9.2880    8.7987   -3.3682 H   0  0  0  0  0  0  0  0  0  0  0  0
   -7.7937    9.8153   -3.3741 H   0  0  0  0  0  0  0  0  0  0  0  0
   -7.1687    9.3185    0.2394 H   0  0  0  0  0  0  0  0  0  0  0  0
   -5.9808    9.1705   -1.0999 H   0  0  0  0  0  0  0  0  0  0  0  0
   -7.1714   10.5156   -1.0999 H   0  0  0  0  0  0  0  0  0  0  0  0
  1  2  1  0
  2  3  1  0
  3  4  1  0
  4  5  1  0
  5  6  1  0
  6  7  1  0
  7  8  1  0
  7  9  1  0
  2 10  1  0
 10 11  1  0
 11 12  1  0
 12 13  1  0
 13 14  1  6
 13 15  1  0
 15 16  1  0
 16 17  1  0
 17 18  2  0
 18 19  1  0
 19 20  1  0
 20 21  1  0
 21 22  1  0
 22 23  1  0
 22 24  1  0
 24 25  1  0
 24 26  1  0
 19 27  1  0
 27 28  1  1
 27 29  1  0
 29 30  1  0
 30 31  1  0
 31 32  1  1
  7  5  1  0
 31 10  1  0
 31 13  1  0
 27 15  1  0
 24 18  1  0
  1 33  1  0
  1 34  1  0
  1 35  1  0
  2 36  1  6
  3 37  1  0
  3 38  1  0
  4 39  1  0
  4 40  1  0
  5 41  1  1
  8 42  1  0
  8 43  1  0
  8 44  1  0
  9 45  1  0
  9 46  1  0
  9 47  1  0
 10 48  1  6
 11 49  1  0
 11 50  1  0
 12 51  1  0
 12 52  1  0
 14 53  1  0
 14 54  1  0
 14 55  1  0
 15 56  1  1
 16 57  1  0
 16 58  1  0
 17 59  1  0
 19 60  1  6
 20 61  1  0
 20 62  1  0
 21 63  1  0
 21 64  1  0
 22 65  1  6
 23 66  1  0
 25 67  1  0
 25 68  1  0
 25 69  1  0
 26 70  1  0
 26 71  1  0
 26 72  1  0
 28 73  1  0
 28 74  1  0
 28 75  1  0
 29 76  1  0
 29 77  1  0
 30 78  1  0
 30 79  1  0
 32 80  1  0
 32 81  1  0
 32 82  1  0
M  END
>  <meeko>  (1) 
{"is_sidechain": [false], "intermolecular_energy": 2.731, "internal_energy": -0.839}

$$$$
EPH_relaxed_0001_pdb2pqr_Repair_385_r2_0001_out
     RDKit          3D

 82 86  0  0  0  0  0  0  0  0999 V2000
   -1.8190    8.7890   -1.8390 C   0  0  0  0  0  0  0  0  0  0  0  0
   -1.8160    9.0550   -0.3310 C   0  0  2  0  0  0  0  0  0  0  0  0
   -3.2410    9.2250    0.2310 C   0  0  0  0  0  0  0  0  0  0  0  0
   -4.3340    9.1910   -0.8400 C   0  0  0  0  0  0  0  0  0  0  0  0
   -5.0710    7.8850   -0.8380 C   0  0  2  0  0  0  0  0  0  0  0  0
   -5.3500    7.3530   -2.1400 O   0  0  0  0  0  0  0  0  0  0  0  0
   -6.4900    7.7250   -1.3500 C   0  0  0  0  0  0  0  0  0  0  0  0
   -7.2580    8.8870   -1.8980 C   0  0  0  0  0  0  0  0  0  0  0  0
   -7.2970    6.5590   -0.8690 C   0  0  0  0  0  0  0  0  0  0  0  0
   -0.9830   10.2940   -0.0240 C   0  0  1  0  0  0  0  0  0  0  0  0
    0.0950   10.0360    1.0620 C   0  0  0  0  0  0  0  0  0  0  0  0
    1.3270   10.8980    0.6840 C   0  0  0  0  0  0  0  0  0  0  0  0
    0.8060   11.8660   -0.4040 C   0  0  1  0  0  0  0  0  0  0  0  0
    0.0910   13.0080    0.3840 C   0  0  0  0  0  0  0  0  0  0  0  0
    1.8750   12.4310   -1.3960 C   0  0  2  0  0  0  0  0  0  0  0  0
    2.9750   13.2900   -0.7490 C   0  0  0  0  0  0  0  0  0  0  0  0
    2.6820   14.7520   -0.6740 C   0  0  0  0  0  0  0  0  0  0  0  0
    1.7140   15.3910   -1.3570 C   0  0  0  0  0  0  0  0  0  0  0  0
    0.8560   14.6480   -2.3890 C   0  0  1  0  0  0  0  0  0  0  0  0
    0.7580   15.4930   -3.6860 C   0  0  0  0  0  0  0  0  0  0  0  0
    0.2590   16.9110   -3.4240 C   0  0  0  0  0  0  0  0  0  0  0  0
    1.1710   17.6370   -2.4390 C   0  0  2  0  0  0  0  0  0  0  0  0
    2.4460   17.8390   -3.0550 O   0  0  0  0  0  0  0  0  0  0  0  0
    1.3530   16.8750   -1.0970 C   0  0  0  0  0  0  0  0  0  0  0  0
    0.0320   16.9190   -0.2890 C   0  0  0  0  0  0  0  0  0  0  0  0
    2.4050   17.6420   -0.2510 C   0  0  0  0  0  0  0  0  0  0  0  0
    1.2650   13.1390   -2.6730 C   0  0  1  0  0  0  0  0  0  0  0  0
    2.3620   13.0840   -3.7790 C   0  0  0  0  0  0  0  0  0  0  0  0
    0.0180   12.3670   -3.2460 C   0  0  0  0  0  0  0  0  0  0  0  0
   -0.9370   11.7300   -2.2190 C   0  0  0  0  0  0  0  0  0  0  0  0
   -0.1610   10.9050   -1.1870 C   0  0  2  0  0  0  0  0  0  0  0  0
    0.5510    9.7350   -1.9480 C   0  0  0  0  0  0  0  0  0  0  0  0
   -1.8312    7.7040   -2.0199 H   0  0  0  0  0  0  0  0  0  0  0  0
   -2.7120    9.2461   -2.2902 H   0  0  0  0  0  0  0  0  0  0  0  0
   -0.9159    9.2258   -2.2902 H   0  0  0  0  0  0  0  0  0  0  0  0
   -1.3707    8.1769    0.1596 H   0  0  0  0  0  0  0  0  0  0  0  0
   -3.4311    8.4117    0.9469 H   0  0  0  0  0  0  0  0  0  0  0  0
   -3.2839   10.2181    0.7021 H   0  0  0  0  0  0  0  0  0  0  0  0
   -5.0489   10.0042   -0.6459 H   0  0  0  0  0  0  0  0  0  0  0  0
   -3.8554    9.3135   -1.8228 H   0  0  0  0  0  0  0  0  0  0  0  0
   -4.5884    7.5869    0.1044 H   0  0  0  0  0  0  0  0  0  0  0  0
   -7.6555    9.4884   -1.0672 H   0  0  0  0  0  0  0  0  0  0  0  0
   -6.5922    9.5085   -2.5148 H   0  0  0  0  0  0  0  0  0  0  0  0
   -8.0907    8.5181   -2.5148 H   0  0  0  0  0  0  0  0  0  0  0  0
   -7.3050    6.5474    0.2309 H   0  0  0  0  0  0  0  0  0  0  0  0
   -8.3279    6.6476   -1.2423 H   0  0  0  0  0  0  0  0  0  0  0  0
   -6.8509    5.6254   -1.2423 H   0  0  0  0  0  0  0  0  0  0  0  0
   -1.7851   10.9853    0.2739 H   0  0  0  0  0  0  0  0  0  0  0  0
   -0.2852   10.3320    2.0508 H   0  0  0  0  0  0  0  0  0  0  0  0
    0.3594    8.9693    1.1101 H   0  0  0  0  0  0  0  0  0  0  0  0
    1.6931   11.4567    1.5580 H   0  0  0  0  0  0  0  0  0  0  0  0
    2.1709   10.2875    0.3302 H   0  0  0  0  0  0  0  0  0  0  0  0
    0.2009   12.8325    1.4643 H   0  0  0  0  0  0  0  0  0  0  0  0
    0.5454   13.9748    0.1215 H   0  0  0  0  0  0  0  0  0  0  0  0
   -0.9771   13.0215    0.1215 H   0  0  0  0  0  0  0  0  0  0  0  0
    2.3767   11.5173   -1.7474 H   0  0  0  0  0  0  0  0  0  0  0  0
    3.1346   12.9225    0.2754 H   0  0  0  0  0  0  0  0  0  0  0  0
    3.8589   13.1899   -1.3961 H   0  0  0  0  0  0  0  0  0  0  0  0
    3.3100   15.3579   -0.0043 H   0  0  0  0  0  0  0  0  0  0  0  0
   -0.1410   14.5428   -1.9363 H   0  0  0  0  0  0  0  0  0  0  0  0
    1.7555   15.5496   -4.1462 H   0  0  0  0  0  0  0  0  0  0  0  0
    0.0327   15.0013   -4.3510 H   0  0  0  0  0  0  0  0  0  0  0  0
    0.2393   17.4668   -4.3731 H   0  0  0  0  0  0  0  0  0  0  0  0
   -0.7505   16.8535   -2.9908 H   0  0  0  0  0  0  0  0  0  0  0  0
    0.6930   18.5964   -2.1919 H   0  0  0  0  0  0  0  0  0  0  0  0
    2.4120   18.6850   -3.5320 H   0  0  0  0  0  0  0  0  0  0  0  0
    0.2600   16.9114    0.7871 H   0  0  0  0  0  0  0  0  0  0  0  0
   -0.5211   17.8361   -0.5402 H   0  0  0  0  0  0  0  0  0  0  0  0
   -0.5809   16.0408   -0.5402 H   0  0  0  0  0  0  0  0  0  0  0  0
    2.1968   17.4902    0.8184 H   0  0  0  0  0  0  0  0  0  0  0  0
    3.4109   17.2639   -0.4860 H   0  0  0  0  0  0  0  0  0  0  0  0
    2.3526   18.7153   -0.4860 H   0  0  0  0  0  0  0  0  0  0  0  0
    3.3550   13.0342   -3.3084 H   0  0  0  0  0  0  0  0  0  0  0  0
    2.2076   12.1925   -4.4046 H   0  0  0  0  0  0  0  0  0  0  0  0
    2.2976   13.9865   -4.4046 H   0  0  0  0  0  0  0  0  0  0  0  0
   -0.5667   13.0790   -3.8471 H   0  0  0  0  0  0  0  0  0  0  0  0
    0.4378   11.5219   -3.8113 H   0  0  0  0  0  0  0  0  0  0  0  0
   -1.4908   12.5264   -1.7003 H   0  0  0  0  0  0  0  0  0  0  0  0
   -1.6307   11.0629   -2.7516 H   0  0  0  0  0  0  0  0  0  0  0  0
    0.9795    9.0309   -1.2195 H   0  0  0  0  0  0  0  0  0  0  0  0
   -0.1806    9.2094   -2.5794 H   0  0  0  0  0  0  0  0  0  0  0  0
    1.3539   10.1432   -2.5794 H   0  0  0  0  0  0  0  0  0  0  0  0
  1  2  1  0
  2  3  1  0
  3  4  1  0
  4  5  1  0
  5  6  1  0
  6  7  1  0
  7  8  1  0
  7  9  1  0
  2 10  1  0
 10 11  1  0
 11 12  1  0
 12 13  1  0
 13 14  1  1
 13 15  1  0
 15 16  1  0
 16 17  1  0
 17 18  2  0
 18 19  1  0
 19 20  1  0
 20 21  1  0
 21 22  1  0
 22 23  1  0
 22 24  1  0
 24 25  1  0
 24 26  1  0
 19 27  1  0
 27 28  1  6
 27 29  1  0
 29 30  1  0
 30 31  1  0
 31 32  1  6
  7  5  1  0
 31 10  1  0
 31 13  1  0
 27 15  1  0
 24 18  1  0
  1 33  1  0
  1 34  1  0
  1 35  1  0
  2 36  1  1
  3 37  1  0
  3 38  1  0
  4 39  1  0
  4 40  1  0
  5 41  1  1
  8 42  1  0
  8 43  1  0
  8 44  1  0
  9 45  1  0
  9 46  1  0
  9 47  1  0
 10 48  1  1
 11 49  1  0
 11 50  1  0
 12 51  1  0
 12 52  1  0
 14 53  1  0
 14 54  1  0
 14 55  1  0
 15 56  1  6
 16 57  1  0
 16 58  1  0
 17 59  1  0
 19 60  1  1
 20 61  1  0
 20 62  1  0
 21 63  1  0
 21 64  1  0
 22 65  1  1
 23 66  1  0
 25 67  1  0
 25 68  1  0
 25 69  1  0
 26 70  1  0
 26 71  1  0
 26 72  1  0
 28 73  1  0
 28 74  1  0
 28 75  1  0
 29 76  1  0
 29 77  1  0
 30 78  1  0
 30 79  1  0
 32 80  1  0
 32 81  1  0
 32 82  1  0
M  END
>  <meeko>  (2) 
{"is_sidechain": [false], "intermolecular_energy": 2.731, "internal_energy": -0.839}

$$$$
EPH_relaxed_0001_pdb2pqr_Repair_385_r2_0001_out
     RDKit          3D

 82 86  0  0  0  0  0  0  0  0999 V2000
    1.9890   19.6420   -0.5560 C   0  0  0  0  0  0  0  0  0  0  0  0
    2.3880   18.4130    0.2660 C   0  0  2  0  0  0  0  0  0  0  0  0
    3.8380   17.9710   -0.0180 C   0  0  0  0  0  0  0  0  0  0  0  0
    4.8120   18.2870    1.1210 C   0  0  0  0  0  0  0  0  0  0  0  0
    4.1440   19.0470    2.2260 C   0  0  2  0  0  0  0  0  0  0  0  0
    4.8690   20.1940    2.6870 O   0  0  0  0  0  0  0  0  0  0  0  0
    4.6960   19.1300    3.6370 C   0  0  0  0  0  0  0  0  0  0  0  0
    5.9690   18.4420    4.0180 C   0  0  0  0  0  0  0  0  0  0  0  0
    3.7580   19.4660    4.7540 C   0  0  0  0  0  0  0  0  0  0  0  0
    1.4280   17.2640   -0.0180 C   0  0  1  0  0  0  0  0  0  0  0  0
    0.1520   17.7240   -0.7710 C   0  0  0  0  0  0  0  0  0  0  0  0
   -0.2440   16.5690   -1.7270 C   0  0  0  0  0  0  0  0  0  0  0  0
    0.6080   15.3660   -1.2590 C   0  0  1  0  0  0  0  0  0  0  0  0
   -0.1620   14.7830   -0.0320 C   0  0  0  0  0  0  0  0  0  0  0  0
    0.9010   14.2670   -2.3320 C   0  0  2  0  0  0  0  0  0  0  0  0
   -0.3420   13.5440   -2.8810 C   0  0  0  0  0  0  0  0  0  0  0  0
   -0.7430   12.3130   -2.1380 C   0  0  0  0  0  0  0  0  0  0  0  0
    0.0230   11.6490   -1.2530 C   0  0  0  0  0  0  0  0  0  0  0  0
    1.4750   12.0710   -0.9950 C   0  0  1  0  0  0  0  0  0  0  0  0
    2.3880   10.8170   -1.0080 C   0  0  0  0  0  0  0  0  0  0  0  0
    1.9140    9.7380   -0.0400 C   0  0  0  0  0  0  0  0  0  0  0  0
    0.4870    9.3030   -0.3640 C   0  0  2  0  0  0  0  0  0  0  0  0
    0.4850    8.6400   -1.6320 O   0  0  0  0  0  0  0  0  0  0  0  0
   -0.5230   10.4840   -0.3900 C   0  0  0  0  0  0  0  0  0  0  0  0
   -0.7460   11.0090    1.0500 C   0  0  0  0  0  0  0  0  0  0  0  0
   -1.8920    9.9310   -0.8680 C   0  0  0  0  0  0  0  0  0  0  0  0
    2.0310   13.2400   -1.9170 C   0  0  1  0  0  0  0  0  0  0  0  0
    2.6030   12.6480   -3.2410 C   0  0  0  0  0  0  0  0  0  0  0  0
    3.2370   13.9410   -1.1860 C   0  0  0  0  0  0  0  0  0  0  0  0
    2.8920   15.0980   -0.2290 C   0  0  0  0  0  0  0  0  0  0  0  0
    1.9500   16.1020   -0.9000 C   0  0  2  0  0  0  0  0  0  0  0  0
    2.7050   16.7220   -2.1250 C   0  0  0  0  0  0  0  0  0  0  0  0
    1.7216   20.4657    0.1222 H   0  0  0  0  0  0  0  0  0  0  0  0
    2.8337   19.9489   -1.1903 H   0  0  0  0  0  0  0  0  0  0  0  0
    1.1252   19.3942   -1.1903 H   0  0  0  0  0  0  0  0  0  0  0  0
    2.3298   18.6918    1.3285 H   0  0  0  0  0  0  0  0  0  0  0  0
    3.8429   16.8842   -0.1877 H   0  0  0  0  0  0  0  0  0  0  0  0
    4.1794   18.5347   -0.8987 H   0  0  0  0  0  0  0  0  0  0  0  0
    5.2063   17.3430    1.5252 H   0  0  0  0  0  0  0  0  0  0  0  0
    5.6223   18.9112    0.7163 H   0  0  0  0  0  0  0  0  0  0  0  0
    3.1492   18.7840    1.8373 H   0  0  0  0  0  0  0  0  0  0  0  0
    6.0486   18.3990    5.1143 H   0  0  0  0  0  0  0  0  0  0  0  0
    5.9701   17.4205    3.6099 H   0  0  0  0  0  0  0  0  0  0  0  0
    6.8241   19.0008    3.6099 H   0  0  0  0  0  0  0  0  0  0  0  0
    4.2568   19.2873    5.7180 H   0  0  0  0  0  0  0  0  0  0  0  0
    3.4668   20.5243    4.6825 H   0  0  0  0  0  0  0  0  0  0  0  0
    2.8610   18.8333    4.6825 H   0  0  0  0  0  0  0  0  0  0  0  0
    1.2573   16.9086    1.0089 H   0  0  0  0  0  0  0  0  0  0  0  0
   -0.6605   17.9190   -0.0556 H   0  0  0  0  0  0  0  0  0  0  0  0
    0.3365   18.6535   -1.3296 H   0  0  0  0  0  0  0  0  0  0  0  0
   -1.3169   16.3427   -1.6391 H   0  0  0  0  0  0  0  0  0  0  0  0
   -0.0653   16.8213   -2.7827 H   0  0  0  0  0  0  0  0  0  0  0  0
    0.3069   15.1380    0.8976 H   0  0  0  0  0  0  0  0  0  0  0  0
   -1.2098   15.1162   -0.0646 H   0  0  0  0  0  0  0  0  0  0  0  0
   -0.1255   13.6841   -0.0646 H   0  0  0  0  0  0  0  0  0  0  0  0
    1.2991   14.8566   -3.1710 H   0  0  0  0  0  0  0  0  0  0  0  0
   -1.1860   14.2489   -2.8517 H   0  0  0  0  0  0  0  0  0  0  0  0
   -0.0787   13.2144   -3.8969 H   0  0  0  0  0  0  0  0  0  0  0  0
   -1.7502   11.9148   -2.3302 H   0  0  0  0  0  0  0  0  0  0  0  0
    1.4858   12.5305    0.0044 H   0  0  0  0  0  0  0  0  0  0  0  0
    2.3977   10.3985   -2.0252 H   0  0  0  0  0  0  0  0  0  0  0  0
    3.3928   11.1324   -0.6902 H   0  0  0  0  0  0  0  0  0  0  0  0
    2.5819    8.8673   -0.1163 H   0  0  0  0  0  0  0  0  0  0  0  0
    1.9327   10.1488    0.9802 H   0  0  0  0  0  0  0  0  0  0  0  0
    0.1575    8.6271    0.4388 H   0  0  0  0  0  0  0  0  0  0  0  0
    0.7370    9.2940   -2.3070 H   0  0  0  0  0  0  0  0  0  0  0  0
   -0.4218   10.2458    1.7728 H   0  0  0  0  0  0  0  0  0  0  0  0
   -0.1606   11.9282    1.1999 H   0  0  0  0  0  0  0  0  0  0  0  0
   -1.8139   11.2259    1.1999 H   0  0  0  0  0  0  0  0  0  0  0  0
   -2.5116    9.6807    0.0057 H   0  0  0  0  0  0  0  0  0  0  0  0
   -2.4038   10.6929   -1.4743 H   0  0  0  0  0  0  0  0  0  0  0  0
   -1.7310    9.0274   -1.4743 H   0  0  0  0  0  0  0  0  0  0  0  0
    3.3495   11.8754   -3.0048 H   0  0  0  0  0  0  0  0  0  0  0  0
    1.7856   12.2014   -3.8262 H   0  0  0  0  0  0  0  0  0  0  0  0
    3.0774   13.4495   -3.8262 H   0  0  0  0  0  0  0  0  0  0  0  0
    3.7644   13.1723   -0.6021 H   0  0  0  0  0  0  0  0  0  0  0  0
    3.8327   14.3997   -1.9889 H   0  0  0  0  0  0  0  0  0  0  0  0
    2.4030   14.6896    0.6677 H   0  0  0  0  0  0  0  0  0  0  0  0
    3.8226   15.6177    0.0428 H   0  0  0  0  0  0  0  0  0  0  0  0
    3.5083   17.3817   -1.7650 H   0  0  0  0  0  0  0  0  0  0  0  0
    3.1384   15.9157   -2.7350 H   0  0  0  0  0  0  0  0  0  0  0  0
    1.9984   17.3039   -2.7350 H   0  0  0  0  0  0  0  0  0  0  0  0
  1  2  1  0
  2  3  1  0
  3  4  1  0
  4  5  1  0
  5  6  1  0
  6  7  1  0
  7  8  1  0
  7  9  1  0
  2 10  1  0
 10 11  1  0
 11 12  1  0
 12 13  1  0
 13 14  1  1
 13 15  1  0
 15 16  1  0
 16 17  1  0
 17 18  2  0
 18 19  1  0
 19 20  1  0
 20 21  1  0
 21 22  1  0
 22 23  1  0
 22 24  1  0
 24 25  1  0
 24 26  1  0
 19 27  1  0
 27 28  1  6
 27 29  1  0
 29 30  1  0
 30 31  1  0
 31 32  1  6
  7  5  1  0
 31 10  1  0
 31 13  1  0
 27 15  1  0
 24 18  1  0
  1 33  1  0
  1 34  1  0
  1 35  1  0
  2 36  1  1
  3 37  1  0
  3 38  1  0
  4 39  1  0
  4 40  1  0
  5 41  1  1
  8 42  1  0
  8 43  1  0
  8 44  1  0
  9 45  1  0
  9 46  1  0
  9 47  1  0
 10 48  1  1
 11 49  1  0
 11 50  1  0
 12 51  1  0
 12 52  1  0
 14 53  1  0
 14 54  1  0
 14 55  1  0
 15 56  1  6
 16 57  1  0
 16 58  1  0
 17 59  1  0
 19 60  1  1
 20 61  1  0
 20 62  1  0
 21 63  1  0
 21 64  1  0
 22 65  1  1
 23 66  1  0
 25 67  1  0
 25 68  1  0
 25 69  1  0
 26 70  1  0
 26 71  1  0
 26 72  1  0
 28 73  1  0
 28 74  1  0
 28 75  1  0
 29 76  1  0
 29 77  1  0
 30 78  1  0
 30 79  1  0
 32 80  1  0
 32 81  1  0
 32 82  1  0
M  END
>  <meeko>  (3) 
{"is_sidechain": [false], "intermolecular_energy": 2.731, "internal_energy": -0.839}

$$$$
EPH_relaxed_0001_pdb2pqr_Repair_385_r2_0001_out
     RDKit          3D

 82 86  0  0  0  0  0  0  0  0999 V2000
    2.1720   18.0880   -2.7780 C   0  0  0  0  0  0  0  0  0  0  0  0
    0.8990   17.6670   -2.0380 C   0  0  2  0  0  0  0  0  0  0  0  0
    1.0680   17.7310   -0.5070 C   0  0  0  0  0  0  0  0  0  0  0  0
    0.7230   19.0960    0.0940 C   0  0  0  0  0  0  0  0  0  0  0  0
   -0.7110   19.1670    0.5220 C   0  0  2  0  0  0  0  0  0  0  0  0
   -1.5820   18.2480   -0.1500 O   0  0  0  0  0  0  0  0  0  0  0  0
   -1.8320   19.6430   -0.3830 C   0  0  0  0  0  0  0  0  0  0  0  0
   -1.5660   20.0820   -1.7890 C   0  0  0  0  0  0  0  0  0  0  0  0
   -3.0950   20.1430    0.2450 C   0  0  0  0  0  0  0  0  0  0  0  0
    0.4940   16.2590   -2.4590 C   0  0  1  0  0  0  0  0  0  0  0  0
    0.6360   16.0290   -3.9880 C   0  0  0  0  0  0  0  0  0  0  0  0
    1.0760   14.5540   -4.1780 C   0  0  0  0  0  0  0  0  0  0  0  0
    0.8520   13.8980   -2.7960 C   0  0  1  0  0  0  0  0  0  0  0  0
   -0.6730   13.5690   -2.7500 C   0  0  0  0  0  0  0  0  0  0  0  0
    1.7240   12.6400   -2.4790 C   0  0  2  0  0  0  0  0  0  0  0  0
    1.4950   11.4360   -3.4090 C   0  0  0  0  0  0  0  0  0  0  0  0
    0.4450   10.4740   -2.9600 C   0  0  0  0  0  0  0  0  0  0  0  0
   -0.0850   10.4150   -1.7240 C   0  0  0  0  0  0  0  0  0  0  0  0
    0.4410   11.3140   -0.5980 C   0  0  1  0  0  0  0  0  0  0  0  0
    0.6540   10.4670    0.6840 C   0  0  0  0  0  0  0  0  0  0  0  0
   -0.5980    9.6950    1.0900 C   0  0  0  0  0  0  0  0  0  0  0  0
   -1.0570    8.7700   -0.0340 C   0  0  2  0  0  0  0  0  0  0  0  0
   -0.0760    7.7440   -0.2160 O   0  0  0  0  0  0  0  0  0  0  0  0
   -1.2940    9.5110   -1.3800 C   0  0  0  0  0  0  0  0  0  0  0  0
   -2.5530   10.4050   -1.2660 C   0  0  0  0  0  0  0  0  0  0  0  0
   -1.6150    8.4450   -2.4620 C   0  0  0  0  0  0  0  0  0  0  0  0
    1.7070   12.2060   -0.9570 C   0  0  1  0  0  0  0  0  0  0  0  0
    3.0160   11.3960   -0.7100 C   0  0  0  0  0  0  0  0  0  0  0  0
    1.7580   13.4410    0.0180 C   0  0  0  0  0  0  0  0  0  0  0  0
    0.9730   14.6970   -0.4090 C   0  0  0  0  0  0  0  0  0  0  0  0
    1.2960   15.0790   -1.8570 C   0  0  2  0  0  0  0  0  0  0  0  0
    2.8200   15.4370   -1.9290 C   0  0  0  0  0  0  0  0  0  0  0  0
    2.9526   18.3461   -2.0472 H   0  0  0  0  0  0  0  0  0  0  0  0
    2.5209   17.2574   -3.4092 H   0  0  0  0  0  0  0  0  0  0  0  0
    1.9569   18.9628   -3.4092 H   0  0  0  0  0  0  0  0  0  0  0  0
    0.1069   18.3794   -2.3122 H   0  0  0  0  0  0  0  0  0  0  0  0
    0.4099   16.9754   -0.0531 H   0  0  0  0  0  0  0  0  0  0  0  0
    2.1308   17.5451   -0.2930 H   0  0  0  0  0  0  0  0  0  0  0  0
    1.3654   19.2727    0.9693 H   0  0  0  0  0  0  0  0  0  0  0  0
    0.8886   19.8621   -0.6778 H   0  0  0  0  0  0  0  0  0  0  0  0
   -0.4167   19.4503    1.5433 H   0  0  0  0  0  0  0  0  0  0  0  0
   -0.9960   21.0227   -1.7778 H   0  0  0  0  0  0  0  0  0  0  0  0
   -0.9851   19.3075   -2.3113 H   0  0  0  0  0  0  0  0  0  0  0  0
   -2.5214   20.2384   -2.3113 H   0  0  0  0  0  0  0  0  0  0  0  0
   -2.9998   20.1053    1.3402 H   0  0  0  0  0  0  0  0  0  0  0  0
   -3.2762   21.1807   -0.0718 H   0  0  0  0  0  0  0  0  0  0  0  0
   -3.9374   19.5105   -0.0718 H   0  0  0  0  0  0  0  0  0  0  0  0
   -0.5391   16.2430   -2.0814 H   0  0  0  0  0  0  0  0  0  0  0  0
   -0.3275   16.2047   -4.4889 H   0  0  0  0  0  0  0  0  0  0  0  0
    1.3711   16.7206   -4.4255 H   0  0  0  0  0  0  0  0  0  0  0  0
    0.4612   14.0614   -4.9457 H   0  0  0  0  0  0  0  0  0  0  0  0
    2.1199   14.4706   -4.5146 H   0  0  0  0  0  0  0  0  0  0  0  0
   -1.0014   13.4982   -1.7026 H   0  0  0  0  0  0  0  0  0  0  0  0
   -1.2356   14.3664   -3.2575 H   0  0  0  0  0  0  0  0  0  0  0  0
   -0.8568   12.6105   -3.2575 H   0  0  0  0  0  0  0  0  0  0  0  0
    2.7411   12.9973   -2.6978 H   0  0  0  0  0  0  0  0  0  0  0  0
    1.2033   11.8206   -4.3974 H   0  0  0  0  0  0  0  0  0  0  0  0
    2.4401   10.8732   -3.4166 H   0  0  0  0  0  0  0  0  0  0  0  0
    0.0730    9.7523   -3.7022 H   0  0  0  0  0  0  0  0  0  0  0  0
   -0.3397   12.0686   -0.4216 H   0  0  0  0  0  0  0  0  0  0  0  0
    1.4671    9.7491    0.5012 H   0  0  0  0  0  0  0  0  0  0  0  0
    0.9006   11.1580    1.5036 H   0  0  0  0  0  0  0  0  0  0  0  0
   -0.3758    9.0931    1.9835 H   0  0  0  0  0  0  0  0  0  0  0  0
   -1.4016   10.4157    1.3018 H   0  0  0  0  0  0  0  0  0  0  0  0
   -2.0266    8.3447    0.2643 H   0  0  0  0  0  0  0  0  0  0  0  0
   -0.5260    6.9710   -0.5950 H   0  0  0  0  0  0  0  0  0  0  0  0
   -2.7889   10.5725   -0.2047 H   0  0  0  0  0  0  0  0  0  0  0  0
   -2.3623   11.3711   -1.7561 H   0  0  0  0  0  0  0  0  0  0  0  0
   -3.4023    9.9065   -1.7561 H   0  0  0  0  0  0  0  0  0  0  0  0
   -1.8992    7.5011   -1.9738 H   0  0  0  0  0  0  0  0  0  0  0  0
   -2.4466    8.7982   -3.0894 H   0  0  0  0  0  0  0  0  0  0  0  0
   -0.7266    8.2803   -3.0894 H   0  0  0  0  0  0  0  0  0  0  0  0
    3.1841   11.2920    0.3721 H   0  0  0  0  0  0  0  0  0  0  0  0
    2.9211   10.3985   -1.1639 H   0  0  0  0  0  0  0  0  0  0  0  0
    3.8663   11.9260   -1.1639 H   0  0  0  0  0  0  0  0  0  0  0  0
    1.3598   13.1142    0.9899 H   0  0  0  0  0  0  0  0  0  0  0  0
    2.8129   13.7524    0.0329 H   0  0  0  0  0  0  0  0  0  0  0  0
   -0.1047   14.4947   -0.3220 H   0  0  0  0  0  0  0  0  0  0  0  0
    1.2621   15.5314    0.2469 H   0  0  0  0  0  0  0  0  0  0  0  0
    3.2230   15.5317   -0.9098 H   0  0  0  0  0  0  0  0  0  0  0  0
    3.3588   14.6410   -2.4638 H   0  0  0  0  0  0  0  0  0  0  0  0
    2.9480   16.3897   -2.4638 H   0  0  0  0  0  0  0  0  0  0  0  0
  1  2  1  0
  2  3  1  0
  3  4  1  0
  4  5  1  0
  5  6  1  0
  6  7  1  0
  7  8  1  0
  7  9  1  0
  2 10  1  0
 10 11  1  0
 11 12  1  0
 12 13  1  0
 13 14  1  1
 13 15  1  0
 15 16  1  0
 16 17  1  0
 17 18  2  0
 18 19  1  0
 19 20  1  0
 20 21  1  0
 21 22  1  0
 22 23  1  0
 22 24  1  0
 24 25  1  0
 24 26  1  0
 19 27  1  0
 27 28  1  6
 27 29  1  0
 29 30  1  0
 30 31  1  0
 31 32  1  1
  7  5  1  0
 31 10  1  0
 31 13  1  0
 27 15  1  0
 24 18  1  0
  1 33  1  0
  1 34  1  0
  1 35  1  0
  2 36  1  6
  3 37  1  0
  3 38  1  0
  4 39  1  0
  4 40  1  0
  5 41  1  1
  8 42  1  0
  8 43  1  0
  8 44  1  0
  9 45  1  0
  9 46  1  0
  9 47  1  0
 10 48  1  1
 11 49  1  0
 11 50  1  0
 12 51  1  0
 12 52  1  0
 14 53  1  0
 14 54  1  0
 14 55  1  0
 15 56  1  6
 16 57  1  0
 16 58  1  0
 17 59  1  0
 19 60  1  1
 20 61  1  0
 20 62  1  0
 21 63  1  0
 21 64  1  0
 22 65  1  1
 23 66  1  0
 25 67  1  0
 25 68  1  0
 25 69  1  0
 26 70  1  0
 26 71  1  0
 26 72  1  0
 28 73  1  0
 28 74  1  0
 28 75  1  0
 29 76  1  0
 29 77  1  0
 30 78  1  0
 30 79  1  0
 32 80  1  0
 32 81  1  0
 32 82  1  0
M  END
>  <meeko>  (4) 
{"is_sidechain": [false], "intermolecular_energy": 2.731, "internal_energy": -0.839}

$$$$
EPH_relaxed_0001_pdb2pqr_Repair_385_r2_0001_out
     RDKit          3D

 82 86  0  0  0  0  0  0  0  0999 V2000
    0.3880   18.4130   -0.0480 C   0  0  0  0  0  0  0  0  0  0  0  0
    1.4790   17.3600   -0.2590 C   0  0  2  0  0  0  0  0  0  0  0  0
    2.6930   17.9270   -1.0220 C   0  0  0  0  0  0  0  0  0  0  0  0
    3.9260   18.1470   -0.1420 C   0  0  0  0  0  0  0  0  0  0  0  0
    3.5520   18.6310    1.2260 C   0  0  2  0  0  0  0  0  0  0  0  0
    3.7920   20.0250    1.4550 O   0  0  0  0  0  0  0  0  0  0  0  0
    4.5630   19.1100    2.2500 C   0  0  0  0  0  0  0  0  0  0  0  0
    6.0290   19.1280    1.9490 C   0  0  0  0  0  0  0  0  0  0  0  0
    4.1790   19.0970    3.6970 C   0  0  0  0  0  0  0  0  0  0  0  0
    0.9070   16.1610   -1.0070 C   0  0  1  0  0  0  0  0  0  0  0  0
    0.7860   16.4120   -2.5340 C   0  0  0  0  0  0  0  0  0  0  0  0
    1.0770   15.0600   -3.2330 C   0  0  0  0  0  0  0  0  0  0  0  0
    1.0280   14.0130   -2.0960 C   0  0  1  0  0  0  0  0  0  0  0  0
   -0.4910   13.7210   -1.8850 C   0  0  0  0  0  0  0  0  0  0  0  0
    1.8420   12.6990   -2.3300 C   0  0  2  0  0  0  0  0  0  0  0  0
    1.3760   11.8480   -3.5250 C   0  0  0  0  0  0  0  0  0  0  0  0
    0.3420   10.8180   -3.2100 C   0  0  0  0  0  0  0  0  0  0  0  0
    0.0140   10.3910   -1.9760 C   0  0  0  0  0  0  0  0  0  0  0  0
    0.7800   10.8850   -0.7420 C   0  0  1  0  0  0  0  0  0  0  0  0
    1.1300    9.6780    0.1670 C   0  0  0  0  0  0  0  0  0  0  0  0
   -0.0950    8.8470    0.5350 C   0  0  0  0  0  0  0  0  0  0  0  0
   -0.7960    8.3260   -0.7170 C   0  0  2  0  0  0  0  0  0  0  0  0
    0.0630    7.3850   -1.3680 O   0  0  0  0  0  0  0  0  0  0  0  0
   -1.1890    9.4520   -1.7130 C   0  0  0  0  0  0  0  0  0  0  0  0
   -2.3430   10.2960   -1.1170 C   0  0  0  0  0  0  0  0  0  0  0  0
   -1.7580    8.7810   -2.9920 C   0  0  0  0  0  0  0  0  0  0  0  0
    2.0350   11.8160   -1.0320 C   0  0  1  0  0  0  0  0  0  0  0  0
    3.3020   10.9400   -1.2730 C   0  0  0  0  0  0  0  0  0  0  0  0
    2.3350   12.6870    0.2450 C   0  0  0  0  0  0  0  0  0  0  0  0
    1.5890   14.0300    0.3610 C   0  0  0  0  0  0  0  0  0  0  0  0
    1.7040   14.8340   -0.9380 C   0  0  2  0  0  0  0  0  0  0  0  0
    3.2190   15.1620   -1.1650 C   0  0  0  0  0  0  0  0  0  0  0  0
    0.2295   18.5659    1.0297 H   0  0  0  0  0  0  0  0  0  0  0  0
    0.6990   19.3611   -0.5111 H   0  0  0  0  0  0  0  0  0  0  0  0
   -0.5485   18.0686   -0.5111 H   0  0  0  0  0  0  0  0  0  0  0  0
    1.8311   17.0447    0.7343 H   0  0  0  0  0  0  0  0  0  0  0  0
    2.9596   17.2219   -1.8231 H   0  0  0  0  0  0  0  0  0  0  0  0
    2.3962   18.9122   -1.4109 H   0  0  0  0  0  0  0  0  0  0  0  0
    4.4704   17.1959   -0.0470 H   0  0  0  0  0  0  0  0  0  0  0  0
    4.5537   18.9150   -0.6175 H   0  0  0  0  0  0  0  0  0  0  0  0
    2.7319   17.9002    1.2850 H   0  0  0  0  0  0  0  0  0  0  0  0
    6.5967   19.1350    2.8912 H   0  0  0  0  0  0  0  0  0  0  0  0
    6.2949   18.2331    1.3673 H   0  0  0  0  0  0  0  0  0  0  0  0
    6.2728   20.0292    1.3673 H   0  0  0  0  0  0  0  0  0  0  0  0
    5.0867   19.1277    4.3175 H   0  0  0  0  0  0  0  0  0  0  0  0
    3.5537   19.9745    3.9183 H   0  0  0  0  0  0  0  0  0  0  0  0
    3.6145   18.1792    3.9183 H   0  0  0  0  0  0  0  0  0  0  0  0
   -0.0511   16.0527   -0.4775 H   0  0  0  0  0  0  0  0  0  0  0  0
   -0.2289   16.7562   -2.7822 H   0  0  0  0  0  0  0  0  0  0  0  0
    1.4925   17.1878   -2.8642 H   0  0  0  0  0  0  0  0  0  0  0  0
    0.3120   14.8435   -3.9932 H   0  0  0  0  0  0  0  0  0  0  0  0
    2.0444   15.0614   -3.7566 H   0  0  0  0  0  0  0  0  0  0  0  0
   -0.7101   13.6789   -0.8079 H   0  0  0  0  0  0  0  0  0  0  0  0
   -1.0861   14.5212   -2.3492 H   0  0  0  0  0  0  0  0  0  0  0  0
   -0.7470   12.7572   -2.3492 H   0  0  0  0  0  0  0  0  0  0  0  0
    2.8357   13.0824   -2.6048 H   0  0  0  0  0  0  0  0  0  0  0  0
    0.9594   12.5268   -4.2837 H   0  0  0  0  0  0  0  0  0  0  0  0
    2.2623   11.2943   -3.8682 H   0  0  0  0  0  0  0  0  0  0  0  0
   -0.1973   10.3702   -4.0577 H   0  0  0  0  0  0  0  0  0  0  0  0
    0.0974   11.5655   -0.2119 H   0  0  0  0  0  0  0  0  0  0  0  0
    1.8467    9.0336   -0.3632 H   0  0  0  0  0  0  0  0  0  0  0  0
    1.5557   10.0757    1.1001 H   0  0  0  0  0  0  0  0  0  0  0  0
    0.2212    7.9932    1.1524 H   0  0  0  0  0  0  0  0  0  0  0  0
   -0.7977    9.4844    1.0917 H   0  0  0  0  0  0  0  0  0  0  0  0
   -1.7347    7.8509   -0.3960 H   0  0  0  0  0  0  0  0  0  0  0  0
    0.0860    6.5810   -0.8220 H   0  0  0  0  0  0  0  0  0  0  0  0
   -2.2941   10.2602   -0.0187 H   0  0  0  0  0  0  0  0  0  0  0  0
   -2.2470   11.3385   -1.4545 H   0  0  0  0  0  0  0  0  0  0  0  0
   -3.3074    9.8886   -1.4545 H   0  0  0  0  0  0  0  0  0  0  0  0
   -2.4450    7.9708   -2.7063 H   0  0  0  0  0  0  0  0  0  0  0  0
   -2.3011    9.5292   -3.5880 H   0  0  0  0  0  0  0  0  0  0  0  0
   -0.9311    8.3675   -3.5880 H   0  0  0  0  0  0  0  0  0  0  0  0
    3.7318   10.6428   -0.3051 H   0  0  0  0  0  0  0  0  0  0  0  0
    3.0233   10.0408   -1.8420 H   0  0  0  0  0  0  0  0  0  0  0  0
    4.0448   11.5183   -1.8420 H   0  0  0  0  0  0  0  0  0  0  0  0
    2.0745   12.0843    1.1276 H   0  0  0  0  0  0  0  0  0  0  0  0
    3.3991   12.9547    0.1672 H   0  0  0  0  0  0  0  0  0  0  0  0
    0.5270   13.8349    0.5709 H   0  0  0  0  0  0  0  0  0  0  0  0
    2.0412   14.6136    1.1764 H   0  0  0  0  0  0  0  0  0  0  0  0
    3.7204   15.2706   -0.1920 H   0  0  0  0  0  0  0  0  0  0  0  0
    3.6902   14.3451   -1.7312 H   0  0  0  0  0  0  0  0  0  0  0  0
    3.3101   16.1007   -1.7312 H   0  0  0  0  0  0  0  0  0  0  0  0
  1  2  1  0
  2  3  1  0
  3  4  1  0
  4  5  1  0
  5  6  1  0
  6  7  1  0
  7  8  1  0
  7  9  1  0
  2 10  1  0
 10 11  1  0
 11 12  1  0
 12 13  1  0
 13 14  1  1
 13 15  1  0
 15 16  1  0
 16 17  1  0
 17 18  2  0
 18 19  1  0
 19 20  1  0
 20 21  1  0
 21 22  1  0
 22 23  1  0
 22 24  1  0
 24 25  1  0
 24 26  1  0
 19 27  1  0
 27 28  1  6
 27 29  1  0
 29 30  1  0
 30 31  1  0
 31 32  1  6
  7  5  1  0
 31 10  1  0
 31 13  1  0
 27 15  1  0
 24 18  1  0
  1 33  1  0
  1 34  1  0
  1 35  1  0
  2 36  1  1
  3 37  1  0
  3 38  1  0
  4 39  1  0
  4 40  1  0
  5 41  1  1
  8 42  1  0
  8 43  1  0
  8 44  1  0
  9 45  1  0
  9 46  1  0
  9 47  1  0
 10 48  1  1
 11 49  1  0
 11 50  1  0
 12 51  1  0
 12 52  1  0
 14 53  1  0
 14 54  1  0
 14 55  1  0
 15 56  1  6
 16 57  1  0
 16 58  1  0
 17 59  1  0
 19 60  1  1
 20 61  1  0
 20 62  1  0
 21 63  1  0
 21 64  1  0
 22 65  1  1
 23 66  1  0
 25 67  1  0
 25 68  1  0
 25 69  1  0
 26 70  1  0
 26 71  1  0
 26 72  1  0
 28 73  1  0
 28 74  1  0
 28 75  1  0
 29 76  1  0
 29 77  1  0
 30 78  1  0
 30 79  1  0
 32 80  1  0
 32 81  1  0
 32 82  1  0
M  END
>  <meeko>  (5) 
{"is_sidechain": [false], "intermolecular_energy": 2.731, "internal_energy": -0.839}

$$$$
EPH_relaxed_0001_pdb2pqr_Repair_385_r2_0001_out
     RDKit          3D

 82 86  0  0  0  0  0  0  0  0999 V2000
   -5.0610    5.7410   -2.0090 C   0  0  0  0  0  0  0  0  0  0  0  0
   -5.2970    7.2520   -1.9430 C   0  0  2  0  0  0  0  0  0  0  0  0
   -4.9930    7.8280   -0.5460 C   0  0  0  0  0  0  0  0  0  0  0  0
   -4.0050    8.9980   -0.5630 C   0  0  0  0  0  0  0  0  0  0  0  0
   -2.6220    8.5500   -0.9290 C   0  0  2  0  0  0  0  0  0  0  0  0
   -1.6130    8.8770    0.0360 O   0  0  0  0  0  0  0  0  0  0  0  0
   -1.4900    9.5090   -1.2490 C   0  0  0  0  0  0  0  0  0  0  0  0
   -1.6910   10.9910   -1.2190 C   0  0  0  0  0  0  0  0  0  0  0  0
   -0.3360    9.0070   -2.0600 C   0  0  0  0  0  0  0  0  0  0  0  0
   -6.7340    7.5710   -2.3370 C   0  0  1  0  0  0  0  0  0  0  0  0
   -7.1570    6.8850   -3.6620 C   0  0  0  0  0  0  0  0  0  0  0  0
   -8.6560    6.5140   -3.5160 C   0  0  0  0  0  0  0  0  0  0  0  0
   -9.1280    7.2870   -2.2620 C   0  0  1  0  0  0  0  0  0  0  0  0
   -9.4060    8.7370   -2.7660 C   0  0  0  0  0  0  0  0  0  0  0  0
  -10.3610    6.6910   -1.5070 C   0  0  2  0  0  0  0  0  0  0  0  0
  -11.6640    6.6430   -2.3230 C   0  0  0  0  0  0  0  0  0  0  0  0
  -12.5330    7.8510   -2.2090 C   0  0  0  0  0  0  0  0  0  0  0  0
  -12.4230    8.8080   -1.2690 C   0  0  0  0  0  0  0  0  0  0  0  0
  -11.4060    8.6780   -0.1280 C   0  0  1  0  0  0  0  0  0  0  0  0
  -12.0920    9.0230    1.2200 C   0  0  0  0  0  0  0  0  0  0  0  0
  -12.7720   10.3880    1.1980 C   0  0  0  0  0  0  0  0  0  0  0  0
  -13.8170   10.4590    0.0870 C   0  0  2  0  0  0  0  0  0  0  0  0
  -14.8840    9.5590    0.4010 O   0  0  0  0  0  0  0  0  0  0  0  0
  -13.2430   10.1210   -1.3170 C   0  0  0  0  0  0  0  0  0  0  0  0
  -12.3070   11.2620   -1.7860 C   0  0  0  0  0  0  0  0  0  0  0  0
  -14.4270   10.0900   -2.3220 C   0  0  0  0  0  0  0  0  0  0  0  0
  -10.6010    7.3080   -0.0700 C   0  0  1  0  0  0  0  0  0  0  0  0
  -11.4100    6.2500    0.7400 C   0  0  0  0  0  0  0  0  0  0  0  0
   -9.2560    7.5360    0.7160 C   0  0  0  0  0  0  0  0  0  0  0  0
   -8.0420    8.0100   -0.1060 C   0  0  0  0  0  0  0  0  0  0  0  0
   -7.8520    7.1420   -1.3540 C   0  0  2  0  0  0  0  0  0  0  0  0
   -7.5490    5.6800   -0.8780 C   0  0  0  0  0  0  0  0  0  0  0  0
   -4.9976    5.3349   -0.9887 H   0  0  0  0  0  0  0  0  0  0  0  0
   -5.8953    5.2626   -2.5429 H   0  0  0  0  0  0  0  0  0  0  0  0
   -4.1205    5.5397   -2.5429 H   0  0  0  0  0  0  0  0  0  0  0  0
   -4.6028    7.7261   -2.6525 H   0  0  0  0  0  0  0  0  0  0  0  0
   -5.9367    8.1771   -0.1016 H   0  0  0  0  0  0  0  0  0  0  0  0
   -4.5259    7.0219    0.0389 H   0  0  0  0  0  0  0  0  0  0  0  0
   -4.3454    9.7415   -1.2988 H   0  0  0  0  0  0  0  0  0  0  0  0
   -3.9691    9.4315    0.4474 H   0  0  0  0  0  0  0  0  0  0  0  0
   -3.0202    7.6744   -1.4627 H   0  0  0  0  0  0  0  0  0  0  0  0
   -1.7375   11.3337   -0.1748 H   0  0  0  0  0  0  0  0  0  0  0  0
   -0.8517   11.4853   -1.7301 H   0  0  0  0  0  0  0  0  0  0  0  0
   -2.6317   11.2439   -1.7301 H   0  0  0  0  0  0  0  0  0  0  0  0
    0.4618    8.6600   -1.3869 H   0  0  0  0  0  0  0  0  0  0  0  0
   -0.6692    8.1725   -2.6945 H   0  0  0  0  0  0  0  0  0  0  0  0
    0.0473    9.8197   -2.6945 H   0  0  0  0  0  0  0  0  0  0  0  0
   -6.6733    8.6684   -2.3827 H   0  0  0  0  0  0  0  0  0  0  0  0
   -7.0184    7.5755   -4.5070 H   0  0  0  0  0  0  0  0  0  0  0  0
   -6.5462    5.9910   -3.8560 H   0  0  0  0  0  0  0  0  0  0  0  0
   -9.2229    6.8308   -4.4039 H   0  0  0  0  0  0  0  0  0  0  0  0
   -8.8102    5.4291   -3.4203 H   0  0  0  0  0  0  0  0  0  0  0  0
   -9.5344    9.4068   -1.9030 H   0  0  0  0  0  0  0  0  0  0  0  0
   -8.5577    9.0824   -3.3752 H   0  0  0  0  0  0  0  0  0  0  0  0
  -10.3219    8.7442   -3.3752 H   0  0  0  0  0  0  0  0  0  0  0  0
  -10.0630    5.6427   -1.3582 H   0  0  0  0  0  0  0  0  0  0  0  0
  -11.3970    6.5153   -3.3824 H   0  0  0  0  0  0  0  0  0  0  0  0
  -12.2495    5.8073   -1.9121 H   0  0  0  0  0  0  0  0  0  0  0  0
  -13.3311    7.9692   -2.9567 H   0  0  0  0  0  0  0  0  0  0  0  0
  -10.6142    9.4111   -0.3416 H   0  0  0  0  0  0  0  0  0  0  0  0
  -12.8494    8.2553    1.4368 H   0  0  0  0  0  0  0  0  0  0  0  0
  -11.3111    9.0516    1.9942 H   0  0  0  0  0  0  0  0  0  0  0  0
  -13.2639   10.5608    2.1666 H   0  0  0  0  0  0  0  0  0  0  0  0
  -12.0086   11.1577    1.0117 H   0  0  0  0  0  0  0  0  0  0  0  0
  -14.1753   11.4978    0.0363 H   0  0  0  0  0  0  0  0  0  0  0  0
  -15.4460    9.4820   -0.3890 H   0  0  0  0  0  0  0  0  0  0  0  0
  -11.8862   11.7750   -0.9087 H   0  0  0  0  0  0  0  0  0  0  0  0
  -11.4906   10.8411   -2.3912 H   0  0  0  0  0  0  0  0  0  0  0  0
  -12.8794   11.9804   -2.3912 H   0  0  0  0  0  0  0  0  0  0  0  0
  -15.3772   10.0651   -1.7685 H   0  0  0  0  0  0  0  0  0  0  0  0
  -14.3946   10.9893   -2.9546 H   0  0  0  0  0  0  0  0  0  0  0  0
  -14.3476    9.1936   -2.9546 H   0  0  0  0  0  0  0  0  0  0  0  0
  -11.2730    6.4292    1.8166 H   0  0  0  0  0  0  0  0  0  0  0  0
  -12.4774    6.3326    0.4875 H   0  0  0  0  0  0  0  0  0  0  0  0
  -11.0505    5.2415    0.4875 H   0  0  0  0  0  0  0  0  0  0  0  0
   -9.4481    8.2919    1.4917 H   0  0  0  0  0  0  0  0  0  0  0  0
   -8.9746    6.5437    1.0983 H   0  0  0  0  0  0  0  0  0  0  0  0
   -8.2017    9.0537   -0.4145 H   0  0  0  0  0  0  0  0  0  0  0  0
   -7.1410    7.9269    0.5195 H   0  0  0  0  0  0  0  0  0  0  0  0
   -7.5420    5.6464    0.2215 H   0  0  0  0  0  0  0  0  0  0  0  0
   -8.3256    5.0014   -1.2607 H   0  0  0  0  0  0  0  0  0  0  0  0
   -6.5667    5.3660   -1.2607 H   0  0  0  0  0  0  0  0  0  0  0  0
  1  2  1  0
  2  3  1  0
  3  4  1  0
  4  5  1  0
  5  6  1  0
  6  7  1  0
  7  8  1  0
  7  9  1  0
  2 10  1  0
 10 11  1  0
 11 12  1  0
 12 13  1  0
 13 14  1  6
 13 15  1  0
 15 16  1  0
 16 17  1  0
 17 18  2  0
 18 19  1  0
 19 20  1  0
 20 21  1  0
 21 22  1  0
 22 23  1  0
 22 24  1  0
 24 25  1  0
 24 26  1  0
 19 27  1  0
 27 28  1  1
 27 29  1  0
 29 30  1  0
 30 31  1  0
 31 32  1  1
  7  5  1  0
 31 10  1  0
 31 13  1  0
 27 15  1  0
 24 18  1  0
  1 33  1  0
  1 34  1  0
  1 35  1  0
  2 36  1  6
  3 37  1  0
  3 38  1  0
  4 39  1  0
  4 40  1  0
  5 41  1  6
  8 42  1  0
  8 43  1  0
  8 44  1  0
  9 45  1  0
  9 46  1  0
  9 47  1  0
 10 48  1  6
 11 49  1  0
 11 50  1  0
 12 51  1  0
 12 52  1  0
 14 53  1  0
 14 54  1  0
 14 55  1  0
 15 56  1  1
 16 57  1  0
 16 58  1  0
 17 59  1  0
 19 60  1  6
 20 61  1  0
 20 62  1  0
 21 63  1  0
 21 64  1  0
 22 65  1  6
 23 66  1  0
 25 67  1  0
 25 68  1  0
 25 69  1  0
 26 70  1  0
 26 71  1  0
 26 72  1  0
 28 73  1  0
 28 74  1  0
 28 75  1  0
 29 76  1  0
 29 77  1  0
 30 78  1  0
 30 79  1  0
 32 80  1  0
 32 81  1  0
 32 82  1  0
M  END
>  <meeko>  (6) 
{"is_sidechain": [false], "intermolecular_energy": 2.731, "internal_energy": -0.839}

$$$$
EPH_relaxed_0001_pdb2pqr_Repair_385_r2_0001_out
     RDKit          3D

 82 86  0  0  0  0  0  0  0  0999 V2000
   -4.8230    7.0310    0.7520 C   0  0  0  0  0  0  0  0  0  0  0  0
   -4.6880    8.0820   -0.3540 C   0  0  2  0  0  0  0  0  0  0  0  0
   -3.5140    9.0480   -0.0960 C   0  0  0  0  0  0  0  0  0  0  0  0
   -2.3720    8.9110   -1.1070 C   0  0  0  0  0  0  0  0  0  0  0  0
   -1.0330    9.0820   -0.4560 C   0  0  2  0  0  0  0  0  0  0  0  0
   -1.0120   10.0090    0.6370 O   0  0  0  0  0  0  0  0  0  0  0  0
   -0.2320   10.3700   -0.5150 C   0  0  0  0  0  0  0  0  0  0  0  0
   -0.7430   11.5730   -1.2430 C   0  0  0  0  0  0  0  0  0  0  0  0
    1.2460   10.3040   -0.2860 C   0  0  0  0  0  0  0  0  0  0  0  0
   -5.9880    8.8660   -0.4860 C   0  0  1  0  0  0  0  0  0  0  0  0
   -5.8060   10.1980   -1.2620 C   0  0  0  0  0  0  0  0  0  0  0  0
   -7.1080   10.4250   -2.0730 C   0  0  0  0  0  0  0  0  0  0  0  0
   -8.1140    9.4060   -1.4880 C   0  0  1  0  0  0  0  0  0  0  0  0
   -8.6570   10.0790   -0.1880 C   0  0  0  0  0  0  0  0  0  0  0  0
   -9.2750    8.9610   -2.4350 C   0  0  2  0  0  0  0  0  0  0  0  0
  -10.2280   10.0860   -2.8750 C   0  0  0  0  0  0  0  0  0  0  0  0
  -11.4100   10.3030   -1.9890 C   0  0  0  0  0  0  0  0  0  0  0  0
  -11.8520    9.4460   -1.0500 C   0  0  0  0  0  0  0  0  0  0  0  0
  -11.1980    8.0700   -0.8700 C   0  0  1  0  0  0  0  0  0  0  0  0
  -12.3010    6.9840   -0.7580 C   0  0  0  0  0  0  0  0  0  0  0  0
  -13.3190    7.2940    0.3350 C   0  0  0  0  0  0  0  0  0  0  0  0
  -13.9880    8.6440    0.0890 C   0  0  2  0  0  0  0  0  0  0  0  0
  -14.7860    8.5540   -1.0950 O   0  0  0  0  0  0  0  0  0  0  0  0
  -12.9750    9.8140   -0.0500 C   0  0  0  0  0  0  0  0  0  0  0  0
  -12.3260   10.1070    1.3250 C   0  0  0  0  0  0  0  0  0  0  0  0
  -13.7710   11.0910   -0.4350 C   0  0  0  0  0  0  0  0  0  0  0  0
  -10.0750    7.6920   -1.9290 C   0  0  1  0  0  0  0  0  0  0  0  0
  -10.7260    7.0440   -3.1880 C   0  0  0  0  0  0  0  0  0  0  0  0
   -9.1290    6.5980   -1.3060 C   0  0  0  0  0  0  0  0  0  0  0  0
   -7.9310    7.1040   -0.4800 C   0  0  0  0  0  0  0  0  0  0  0  0
   -7.1560    8.1840   -1.2420 C   0  0  2  0  0  0  0  0  0  0  0  0
   -6.5790    7.5310   -2.5440 C   0  0  0  0  0  0  0  0  0  0  0  0
   -4.7599    7.5222    1.7342 H   0  0  0  0  0  0  0  0  0  0  0  0
   -5.7938    6.5224    0.6580 H   0  0  0  0  0  0  0  0  0  0  0  0
   -4.0122    6.2936    0.6580 H   0  0  0  0  0  0  0  0  0  0  0  0
   -4.4774    7.5498   -1.2934 H   0  0  0  0  0  0  0  0  0  0  0  0
   -3.8958   10.0786   -0.1406 H   0  0  0  0  0  0  0  0  0  0  0  0
   -3.1012    8.7964    0.8921 H   0  0  0  0  0  0  0  0  0  0  0  0
   -2.4203    7.9127   -1.5665 H   0  0  0  0  0  0  0  0  0  0  0  0
   -2.4883    9.6995   -1.8652 H   0  0  0  0  0  0  0  0  0  0  0  0
   -0.7674    8.0372   -0.6748 H   0  0  0  0  0  0  0  0  0  0  0  0
   -1.0655   12.3323   -0.5154 H   0  0  0  0  0  0  0  0  0  0  0  0
    0.0571   11.9867   -1.8744 H   0  0  0  0  0  0  0  0  0  0  0  0
   -1.5962   11.2845   -1.8744 H   0  0  0  0  0  0  0  0  0  0  0  0
    1.4495   10.2949    0.7950 H   0  0  0  0  0  0  0  0  0  0  0  0
    1.6472    9.3870   -0.7424 H   0  0  0  0  0  0  0  0  0  0  0  0
    1.7273   11.1815   -0.7424 H   0  0  0  0  0  0  0  0  0  0  0  0
   -6.2436    8.9800    0.5778 H   0  0  0  0  0  0  0  0  0  0  0  0
   -5.6489   11.0282   -0.5577 H   0  0  0  0  0  0  0  0  0  0  0  0
   -4.9302   10.1517   -1.9260 H   0  0  0  0  0  0  0  0  0  0  0  0
   -7.4747   11.4534   -1.9392 H   0  0  0  0  0  0  0  0  0  0  0  0
   -6.9558   10.2879   -3.1538 H   0  0  0  0  0  0  0  0  0  0  0  0
   -8.2423    9.5650    0.6917 H   0  0  0  0  0  0  0  0  0  0  0  0
   -8.3566   11.1370   -0.1699 H   0  0  0  0  0  0  0  0  0  0  0  0
   -9.7546   10.0091   -0.1699 H   0  0  0  0  0  0  0  0  0  0  0  0
   -8.7331    8.6568   -3.3426 H   0  0  0  0  0  0  0  0  0  0  0  0
   -9.6536   11.0234   -2.9112 H   0  0  0  0  0  0  0  0  0  0  0  0
  -10.6315    9.7788   -3.8511 H   0  0  0  0  0  0  0  0  0  0  0  0
  -11.9670   11.2433   -2.1143 H   0  0  0  0  0  0  0  0  0  0  0  0
  -10.6294    8.1238    0.0701 H   0  0  0  0  0  0  0  0  0  0  0  0
  -12.8277    6.9159   -1.7213 H   0  0  0  0  0  0  0  0  0  0  0  0
  -11.8097    6.0351   -0.4969 H   0  0  0  0  0  0  0  0  0  0  0  0
  -14.0879    6.5074    0.3447 H   0  0  0  0  0  0  0  0  0  0  0  0
  -12.7960    7.3318    1.3020 H   0  0  0  0  0  0  0  0  0  0  0  0
  -14.6079    8.8702    0.9691 H   0  0  0  0  0  0  0  0  0  0  0  0
  -14.7860    7.6240   -1.3800 H   0  0  0  0  0  0  0  0  0  0  0  0
  -13.0117    9.7974    2.1275 H   0  0  0  0  0  0  0  0  0  0  0  0
  -11.3831    9.5473    1.4121 H   0  0  0  0  0  0  0  0  0  0  0  0
  -12.1222   11.1844    1.4121 H   0  0  0  0  0  0  0  0  0  0  0  0
  -14.0949   11.6106    0.4788 H   0  0  0  0  0  0  0  0  0  0  0  0
  -13.1287   11.7585   -1.0282 H   0  0  0  0  0  0  0  0  0  0  0  0
  -14.6531   10.8083   -1.0282 H   0  0  0  0  0  0  0  0  0  0  0  0
  -11.4730    6.3005   -2.8730 H   0  0  0  0  0  0  0  0  0  0  0  0
  -11.2159    7.8236   -3.7898 H   0  0  0  0  0  0  0  0  0  0  0  0
   -9.9487    6.5505   -3.7898 H   0  0  0  0  0  0  0  0  0  0  0  0
   -9.7418    5.9633   -0.6490 H   0  0  0  0  0  0  0  0  0  0  0  0
   -8.6852    6.0772   -2.1673 H   0  0  0  0  0  0  0  0  0  0  0  0
   -8.2993    7.5259    0.4668 H   0  0  0  0  0  0  0  0  0  0  0  0
   -7.2553    6.2576   -0.2876 H   0  0  0  0  0  0  0  0  0  0  0  0
   -5.8733    6.7323   -2.2719 H   0  0  0  0  0  0  0  0  0  0  0  0
   -7.4023    7.1064   -3.1371 H   0  0  0  0  0  0  0  0  0  0  0  0
   -6.0563    8.2958   -3.1371 H   0  0  0  0  0  0  0  0  0  0  0  0
  1  2  1  0
  2  3  1  0
  3  4  1  0
  4  5  1  0
  5  6  1  0
  6  7  1  0
  7  8  1  0
  7  9  1  0
  2 10  1  0
 10 11  1  0
 11 12  1  0
 12 13  1  0
 13 14  1  1
 13 15  1  0
 15 16  1  0
 16 17  1  0
 17 18  2  0
 18 19  1  0
 19 20  1  0
 20 21  1  0
 21 22  1  0
 22 23  1  0
 22 24  1  0
 24 25  1  0
 24 26  1  0
 19 27  1  0
 27 28  1  6
 27 29  1  0
 29 30  1  0
 30 31  1  0
 31 32  1  6
  7  5  1  0
 31 10  1  0
 31 13  1  0
 27 15  1  0
 24 18  1  0
  1 33  1  0
  1 34  1  0
  1 35  1  0
  2 36  1  6
  3 37  1  0
  3 38  1  0
  4 39  1  0
  4 40  1  0
  5 41  1  1
  8 42  1  0
  8 43  1  0
  8 44  1  0
  9 45  1  0
  9 46  1  0
  9 47  1  0
 10 48  1  1
 11 49  1  0
 11 50  1  0
 12 51  1  0
 12 52  1  0
 14 53  1  0
 14 54  1  0
 14 55  1  0
 15 56  1  6
 16 57  1  0
 16 58  1  0
 17 59  1  0
 19 60  1  1
 20 61  1  0
 20 62  1  0
 21 63  1  0
 21 64  1  0
 22 65  1  1
 23 66  1  0
 25 67  1  0
 25 68  1  0
 25 69  1  0
 26 70  1  0
 26 71  1  0
 26 72  1  0
 28 73  1  0
 28 74  1  0
 28 75  1  0
 29 76  1  0
 29 77  1  0
 30 78  1  0
 30 79  1  0
 32 80  1  0
 32 81  1  0
 32 82  1  0
M  END
>  <meeko>  (7) 
{"is_sidechain": [false], "intermolecular_energy": 2.731, "internal_energy": -0.839}

$$$$
EPH_relaxed_0001_pdb2pqr_Repair_385_r2_0001_out
     RDKit          3D

 82 86  0  0  0  0  0  0  0  0999 V2000
  -14.3690    8.5850    1.3810 C   0  0  0  0  0  0  0  0  0  0  0  0
  -13.2310    9.4490    0.8310 C   0  0  2  0  0  0  0  0  0  0  0  0
  -13.7370   10.5080   -0.1700 C   0  0  0  0  0  0  0  0  0  0  0  0
  -15.0330   10.1120   -0.8820 C   0  0  0  0  0  0  0  0  0  0  0  0
  -14.8600   10.0780   -2.3700 C   0  0  2  0  0  0  0  0  0  0  0  0
  -13.7050   10.7750   -2.8550 O   0  0  0  0  0  0  0  0  0  0  0  0
  -14.9800   11.3050   -3.2540 C   0  0  0  0  0  0  0  0  0  0  0  0
  -15.2850   12.6530   -2.6810 C   0  0  0  0  0  0  0  0  0  0  0  0
  -15.2830   11.1130   -4.7080 C   0  0  0  0  0  0  0  0  0  0  0  0
  -12.1810    8.5650    0.1680 C   0  0  1  0  0  0  0  0  0  0  0  0
  -12.7840    7.6310   -0.9150 C   0  0  0  0  0  0  0  0  0  0  0  0
  -11.7190    7.4970   -2.0330 C   0  0  0  0  0  0  0  0  0  0  0  0
  -10.4260    8.0780   -1.4120 C   0  0  1  0  0  0  0  0  0  0  0  0
   -9.8430    6.9200   -0.5440 C   0  0  0  0  0  0  0  0  0  0  0  0
   -9.3670    8.6360   -2.4180 C   0  0  2  0  0  0  0  0  0  0  0  0
   -8.7780    7.5970   -3.3890 C   0  0  0  0  0  0  0  0  0  0  0  0
   -7.5460    6.9030   -2.9100 C   0  0  0  0  0  0  0  0  0  0  0  0
   -6.7750    7.3010   -1.8810 C   0  0  0  0  0  0  0  0  0  0  0  0
   -7.0620    8.6140   -1.1420 C   0  0  1  0  0  0  0  0  0  0  0  0
   -5.7400    9.4050   -0.9600 C   0  0  0  0  0  0  0  0  0  0  0  0
   -4.6530    8.5790   -0.2800 C   0  0  0  0  0  0  0  0  0  0  0  0
   -4.3540    7.3110   -1.0750 C   0  0  2  0  0  0  0  0  0  0  0  0
   -3.7630    7.6790   -2.3250 O   0  0  0  0  0  0  0  0  0  0  0  0
   -5.6140    6.4370   -1.3300 C   0  0  0  0  0  0  0  0  0  0  0  0
   -6.0770    5.7920   -0.0000 C   0  0  0  0  0  0  0  0  0  0  0  0
   -5.2010    5.2640   -2.2600 C   0  0  0  0  0  0  0  0  0  0  0  0
   -8.2300    9.5070   -1.7450 C   0  0  1  0  0  0  0  0  0  0  0  0
   -7.6660   10.4400   -2.8590 C   0  0  0  0  0  0  0  0  0  0  0  0
   -8.7900   10.4520   -0.6160 C   0  0  0  0  0  0  0  0  0  0  0  0
   -9.9180    9.8860    0.2670 C   0  0  0  0  0  0  0  0  0  0  0  0
  -11.0300    9.2740   -0.5890 C   0  0  2  0  0  0  0  0  0  0  0  0
  -11.6510   10.4200   -1.4580 C   0  0  0  0  0  0  0  0  0  0  0  0
  -14.3448    8.6034    2.4806 H   0  0  0  0  0  0  0  0  0  0  0  0
  -15.3330    8.9808    1.0288 H   0  0  0  0  0  0  0  0  0  0  0  0
  -14.2468    7.5501    1.0288 H   0  0  0  0  0  0  0  0  0  0  0  0
  -12.7827    9.9855    1.6803 H   0  0  0  0  0  0  0  0  0  0  0  0
  -13.9137   11.4461    0.3766 H   0  0  0  0  0  0  0  0  0  0  0  0
  -12.9636   10.6132   -0.9451 H   0  0  0  0  0  0  0  0  0  0  0  0
  -15.3392    9.1138   -0.5359 H   0  0  0  0  0  0  0  0  0  0  0  0
  -15.7991   10.8644   -0.6431 H   0  0  0  0  0  0  0  0  0  0  0  0
  -15.3222    9.0813   -2.4245 H   0  0  0  0  0  0  0  0  0  0  0  0
  -15.2721   12.5960   -1.5826 H   0  0  0  0  0  0  0  0  0  0  0  0
  -14.5276   13.3753   -3.0196 H   0  0  0  0  0  0  0  0  0  0  0  0
  -16.2796   12.9789   -3.0196 H   0  0  0  0  0  0  0  0  0  0  0  0
  -16.2077   10.5270   -4.8156 H   0  0  0  0  0  0  0  0  0  0  0  0
  -15.4127   12.0941   -5.1882 H   0  0  0  0  0  0  0  0  0  0  0  0
  -14.4512   10.5768   -5.1882 H   0  0  0  0  0  0  0  0  0  0  0  0
  -11.7857    8.0500    1.0560 H   0  0  0  0  0  0  0  0  0  0  0  0
  -13.0060    6.6440   -0.4831 H   0  0  0  0  0  0  0  0  0  0  0  0
  -13.7240    8.0418   -1.3121 H   0  0  0  0  0  0  0  0  0  0  0  0
  -11.5769    6.4418   -2.3095 H   0  0  0  0  0  0  0  0  0  0  0  0
  -12.0123    8.0226   -2.9537 H   0  0  0  0  0  0  0  0  0  0  0  0
   -9.9654    7.1632    0.5218 H   0  0  0  0  0  0  0  0  0  0  0  0
  -10.3785    5.9863   -0.7709 H   0  0  0  0  0  0  0  0  0  0  0  0
   -8.7740    6.7941   -0.7709 H   0  0  0  0  0  0  0  0  0  0  0  0
   -9.9673    9.3179   -3.0381 H   0  0  0  0  0  0  0  0  0  0  0  0
   -9.5470    6.8333   -3.5770 H   0  0  0  0  0  0  0  0  0  0  0  0
   -8.4822    8.1554   -4.2894 H   0  0  0  0  0  0  0  0  0  0  0  0
   -7.2429    5.9896   -3.4428 H   0  0  0  0  0  0  0  0  0  0  0  0
   -7.4642    8.3288   -0.1587 H   0  0  0  0  0  0  0  0  0  0  0  0
   -5.3773    9.7182   -1.9501 H   0  0  0  0  0  0  0  0  0  0  0  0
   -5.9546   10.2700   -0.3152 H   0  0  0  0  0  0  0  0  0  0  0  0
   -3.7360    9.1820   -0.2058 H   0  0  0  0  0  0  0  0  0  0  0  0
   -5.0057    8.2907    0.7212 H   0  0  0  0  0  0  0  0  0  0  0  0
   -3.6643    6.6999   -0.4743 H   0  0  0  0  0  0  0  0  0  0  0  0
   -3.9300    6.9560   -2.9540 H   0  0  0  0  0  0  0  0  0  0  0  0
   -5.6673    6.3627    0.8464 H   0  0  0  0  0  0  0  0  0  0  0  0
   -7.1759    5.8014    0.0490 H   0  0  0  0  0  0  0  0  0  0  0  0
   -5.7166    4.7539    0.0490 H   0  0  0  0  0  0  0  0  0  0  0  0
   -4.8972    4.4012   -1.6491 H   0  0  0  0  0  0  0  0  0  0  0  0
   -6.0538    4.9817   -2.8949 H   0  0  0  0  0  0  0  0  0  0  0  0
   -4.3594    5.5782   -2.8949 H   0  0  0  0  0  0  0  0  0  0  0  0
   -7.1499   11.2938   -2.3957 H   0  0  0  0  0  0  0  0  0  0  0  0
   -6.9564    9.8777   -3.4837 H   0  0  0  0  0  0  0  0  0  0  0  0
   -8.4937   10.8070   -3.4837 H   0  0  0  0  0  0  0  0  0  0  0  0
   -7.9506   10.7151    0.0444 H   0  0  0  0  0  0  0  0  0  0  0  0
   -9.2408   11.3019   -1.1493 H   0  0  0  0  0  0  0  0  0  0  0  0
   -9.5032    9.1096    0.9267 H   0  0  0  0  0  0  0  0  0  0  0  0
  -10.3447   10.7081    0.8603 H   0  0  0  0  0  0  0  0  0  0  0  0
  -12.0704   11.1940   -0.7985 H   0  0  0  0  0  0  0  0  0  0  0  0
  -10.8696   10.8632   -2.0928 H   0  0  0  0  0  0  0  0  0  0  0  0
  -12.4490   10.0074   -2.0928 H   0  0  0  0  0  0  0  0  0  0  0  0
  1  2  1  0
  2  3  1  0
  3  4  1  0
  4  5  1  0
  5  6  1  0
  6  7  1  0
  7  8  1  0
  7  9  1  0
  2 10  1  0
 10 11  1  0
 11 12  1  0
 12 13  1  0
 13 14  1  1
 13 15  1  0
 15 16  1  0
 16 17  1  0
 17 18  2  0
 18 19  1  0
 19 20  1  0
 20 21  1  0
 21 22  1  0
 22 23  1  0
 22 24  1  0
 24 25  1  0
 24 26  1  0
 19 27  1  0
 27 28  1  6
 27 29  1  0
 29 30  1  0
 30 31  1  0
 31 32  1  6
  7  5  1  0
 31 10  1  0
 31 13  1  0
 27 15  1  0
 24 18  1  0
  1 33  1  0
  1 34  1  0
  1 35  1  0
  2 36  1  1
  3 37  1  0
  3 38  1  0
  4 39  1  0
  4 40  1  0
  5 41  1  6
  8 42  1  0
  8 43  1  0
  8 44  1  0
  9 45  1  0
  9 46  1  0
  9 47  1  0
 10 48  1  1
 11 49  1  0
 11 50  1  0
 12 51  1  0
 12 52  1  0
 14 53  1  0
 14 54  1  0
 14 55  1  0
 15 56  1  6
 16 57  1  0
 16 58  1  0
 17 59  1  0
 19 60  1  1
 20 61  1  0
 20 62  1  0
 21 63  1  0
 21 64  1  0
 22 65  1  1
 23 66  1  0
 25 67  1  0
 25 68  1  0
 25 69  1  0
 26 70  1  0
 26 71  1  0
 26 72  1  0
 28 73  1  0
 28 74  1  0
 28 75  1  0
 29 76  1  0
 29 77  1  0
 30 78  1  0
 30 79  1  0
 32 80  1  0
 32 81  1  0
 32 82  1  0
M  END
>  <meeko>  (8) 
{"is_sidechain": [false], "intermolecular_energy": 2.731, "internal_energy": -0.839}

$$$$
EPH_relaxed_0001_pdb2pqr_Repair_385_r2_0001_out
     RDKit          3D

 82 86  0  0  0  0  0  0  0  0999 V2000
    3.7230   17.6730    0.5750 C   0  0  0  0  0  0  0  0  0  0  0  0
    2.7990   17.9770   -0.6080 C   0  0  2  0  0  0  0  0  0  0  0  0
    2.1330   19.3620   -0.4830 C   0  0  0  0  0  0  0  0  0  0  0  0
    1.3010   19.5320    0.7900 C   0  0  0  0  0  0  0  0  0  0  0  0
   -0.0300   20.1600    0.5030 C   0  0  2  0  0  0  0  0  0  0  0  0
   -0.9300   20.1910    1.6180 O   0  0  0  0  0  0  0  0  0  0  0  0
   -1.3360   19.3880    0.4980 C   0  0  0  0  0  0  0  0  0  0  0  0
   -1.3750   17.9200    0.7850 C   0  0  0  0  0  0  0  0  0  0  0  0
   -2.4970   19.9520   -0.2590 C   0  0  0  0  0  0  0  0  0  0  0  0
    1.7330   16.8950   -0.7270 C   0  0  1  0  0  0  0  0  0  0  0  0
    0.4820   17.3720   -1.5120 C   0  0  0  0  0  0  0  0  0  0  0  0
   -0.0420   16.1480   -2.3060 C   0  0  0  0  0  0  0  0  0  0  0  0
    0.7120   14.9400   -1.7020 C   0  0  1  0  0  0  0  0  0  0  0  0
   -0.0720   14.5890   -0.3980 C   0  0  0  0  0  0  0  0  0  0  0  0
    0.8750   13.6930   -2.6310 C   0  0  2  0  0  0  0  0  0  0  0  0
   -0.4410   13.0240   -3.0630 C   0  0  0  0  0  0  0  0  0  0  0  0
   -0.9300   11.9380   -2.1620 C   0  0  0  0  0  0  0  0  0  0  0  0
   -0.2020   11.3220   -1.2130 C   0  0  0  0  0  0  0  0  0  0  0  0
    1.2880   11.6380   -1.0350 C   0  0  1  0  0  0  0  0  0  0  0  0
    2.0860   10.3140   -0.9020 C   0  0  0  0  0  0  0  0  0  0  0  0
    1.5440    9.4130    0.2030 C   0  0  0  0  0  0  0  0  0  0  0  0
    0.0760    9.0740   -0.0400 C   0  0  2  0  0  0  0  0  0  0  0  0
   -0.0210    8.2600   -1.2130 O   0  0  0  0  0  0  0  0  0  0  0  0
   -0.8250   10.3310   -0.1990 C   0  0  0  0  0  0  0  0  0  0  0  0
   -0.9600   11.0510    1.1650 C   0  0  0  0  0  0  0  0  0  0  0  0
   -2.2510    9.8500   -0.5800 C   0  0  0  0  0  0  0  0  0  0  0  0
    1.9210   12.6260   -2.1070 C   0  0  1  0  0  0  0  0  0  0  0  0
    2.4000   11.8230   -3.3540 C   0  0  0  0  0  0  0  0  0  0  0  0
    3.2040   13.2990   -1.4910 C   0  0  0  0  0  0  0  0  0  0  0  0
    2.9910   14.5940   -0.6850 C   0  0  0  0  0  0  0  0  0  0  0  0
    2.1240   15.5890   -1.4630 C   0  0  2  0  0  0  0  0  0  0  0  0
    2.8970   15.9770   -2.7690 C   0  0  0  0  0  0  0  0  0  0  0  0
    3.1833   17.8506    1.5169 H   0  0  0  0  0  0  0  0  0  0  0  0
    4.0440   16.6219    0.5289 H   0  0  0  0  0  0  0  0  0  0  0  0
    4.6054   18.3282    0.5289 H   0  0  0  0  0  0  0  0  0  0  0  0
    3.4183   17.9892   -1.5170 H   0  0  0  0  0  0  0  0  0  0  0  0
    2.9221   20.1284   -0.4870 H   0  0  0  0  0  0  0  0  0  0  0  0
    1.4434   19.4650   -1.3338 H   0  0  0  0  0  0  0  0  0  0  0  0
    1.1382   18.5434    1.2441 H   0  0  0  0  0  0  0  0  0  0  0  0
    1.8522   20.1941    1.4740 H   0  0  0  0  0  0  0  0  0  0  0  0
    0.4246   20.8452   -0.2276 H   0  0  0  0  0  0  0  0  0  0  0  0
   -1.3793   17.7591    1.8732 H   0  0  0  0  0  0  0  0  0  0  0  0
   -2.2850   17.4847    0.3464 H   0  0  0  0  0  0  0  0  0  0  0  0
   -0.4894   17.4370    0.3464 H   0  0  0  0  0  0  0  0  0  0  0  0
   -3.2534   20.3195    0.4501 H   0  0  0  0  0  0  0  0  0  0  0  0
   -2.1531   20.7834   -0.8918 H   0  0  0  0  0  0  0  0  0  0  0  0
   -2.9380   19.1677   -0.8918 H   0  0  0  0  0  0  0  0  0  0  0  0
    1.5605   16.6888    0.3396 H   0  0  0  0  0  0  0  0  0  0  0  0
   -0.2896   17.7292   -0.8141 H   0  0  0  0  0  0  0  0  0  0  0  0
    0.7331   18.2028   -2.1878 H   0  0  0  0  0  0  0  0  0  0  0  0
   -1.1279   16.0343   -2.1725 H   0  0  0  0  0  0  0  0  0  0  0  0
    0.1289   16.2481   -3.3880 H   0  0  0  0  0  0  0  0  0  0  0  0
    0.5344   14.8605    0.4787 H   0  0  0  0  0  0  0  0  0  0  0  0
   -1.0183   15.1494   -0.3771 H   0  0  0  0  0  0  0  0  0  0  0  0
   -0.2843   13.5099   -0.3771 H   0  0  0  0  0  0  0  0  0  0  0  0
    1.2994   14.1344   -3.5448 H   0  0  0  0  0  0  0  0  0  0  0  0
   -1.2178   13.8014   -3.1110 H   0  0  0  0  0  0  0  0  0  0  0  0
   -0.2357   12.5461   -4.0322 H   0  0  0  0  0  0  0  0  0  0  0  0
   -1.9741   11.6142   -2.2847 H   0  0  0  0  0  0  0  0  0  0  0  0
    1.3661   12.2169   -0.1029 H   0  0  0  0  0  0  0  0  0  0  0  0
    2.0314    9.7719   -1.8576 H   0  0  0  0  0  0  0  0  0  0  0  0
    3.1229   10.5737   -0.6426 H   0  0  0  0  0  0  0  0  0  0  0  0
    2.1291    8.4819    0.2276 H   0  0  0  0  0  0  0  0  0  0  0  0
    1.6271    9.9452    1.1621 H   0  0  0  0  0  0  0  0  0  0  0  0
   -0.2900    8.5367    0.8473 H   0  0  0  0  0  0  0  0  0  0  0  0
   -0.9640    8.1710   -1.4320 H   0  0  0  0  0  0  0  0  0  0  0  0
   -0.8236   10.3235    1.9787 H   0  0  0  0  0  0  0  0  0  0  0  0
   -0.1934   11.8360    1.2427 H   0  0  0  0  0  0  0  0  0  0  0  0
   -1.9589   11.5050    1.2427 H   0  0  0  0  0  0  0  0  0  0  0  0
   -2.8290    9.6550    0.3354 H   0  0  0  0  0  0  0  0  0  0  0  0
   -2.7543   10.6281   -1.1727 H   0  0  0  0  0  0  0  0  0  0  0  0
   -2.1802    8.9260   -1.1727 H   0  0  0  0  0  0  0  0  0  0  0  0
    2.9378   10.9215   -3.0252 H   0  0  0  0  0  0  0  0  0  0  0  0
    1.5288   11.5303   -3.9584 H   0  0  0  0  0  0  0  0  0  0  0  0
    3.0715   12.4505   -3.9584 H   0  0  0  0  0  0  0  0  0  0  0  0
    3.6760   12.5646   -0.8218 H   0  0  0  0  0  0  0  0  0  0  0  0
    3.8160   13.5959   -2.3555 H   0  0  0  0  0  0  0  0  0  0  0  0
    2.4929   14.3488    0.2646 H   0  0  0  0  0  0  0  0  0  0  0  0
    3.9718   15.0555   -0.4980 H   0  0  0  0  0  0  0  0  0  0  0  0
    3.8507   16.4557   -2.5021 H   0  0  0  0  0  0  0  0  0  0  0  0
    3.0945   15.0712   -3.3610 H   0  0  0  0  0  0  0  0  0  0  0  0
    2.2886   16.6766   -3.3610 H   0  0  0  0  0  0  0  0  0  0  0  0
  1  2  1  0
  2  3  1  0
  3  4  1  0
  4  5  1  0
  5  6  1  0
  6  7  1  0
  7  8  1  0
  7  9  1  0
  2 10  1  0
 10 11  1  0
 11 12  1  0
 12 13  1  0
 13 14  1  1
 13 15  1  0
 15 16  1  0
 16 17  1  0
 17 18  2  0
 18 19  1  0
 19 20  1  0
 20 21  1  0
 21 22  1  0
 22 23  1  0
 22 24  1  0
 24 25  1  0
 24 26  1  0
 19 27  1  0
 27 28  1  6
 27 29  1  0
 29 30  1  0
 30 31  1  0
 31 32  1  6
  7  5  1  0
 31 10  1  0
 31 13  1  0
 27 15  1  0
 24 18  1  0
  1 33  1  0
  1 34  1  0
  1 35  1  0
  2 36  1  6
  3 37  1  0
  3 38  1  0
  4 39  1  0
  4 40  1  0
  5 41  1  6
  8 42  1  0
  8 43  1  0
  8 44  1  0
  9 45  1  0
  9 46  1  0
  9 47  1  0
 10 48  1  1
 11 49  1  0
 11 50  1  0
 12 51  1  0
 12 52  1  0
 14 53  1  0
 14 54  1  0
 14 55  1  0
 15 56  1  6
 16 57  1  0
 16 58  1  0
 17 59  1  0
 19 60  1  1
 20 61  1  0
 20 62  1  0
 21 63  1  0
 21 64  1  0
 22 65  1  1
 23 66  1  0
 25 67  1  0
 25 68  1  0
 25 69  1  0
 26 70  1  0
 26 71  1  0
 26 72  1  0
 28 73  1  0
 28 74  1  0
 28 75  1  0
 29 76  1  0
 29 77  1  0
 30 78  1  0
 30 79  1  0
 32 80  1  0
 32 81  1  0
 32 82  1  0
M  END
>  <meeko>  (9) 
{"is_sidechain": [false], "intermolecular_energy": 2.731, "internal_energy": -0.839}

$$$$
EPH_relaxed_0001_pdb2pqr_Repair_385_r2_0001_out
     RDKit          3D

 82 86  0  0  0  0  0  0  0  0999 V2000
    0.4300    8.8600   -2.5410 C   0  0  0  0  0  0  0  0  0  0  0  0
    1.1860   10.0230   -3.1900 C   0  0  2  0  0  0  0  0  0  0  0  0
    2.6800   10.0270   -2.8120 C   0  0  0  0  0  0  0  0  0  0  0  0
    3.5880   10.6170   -3.8950 C   0  0  0  0  0  0  0  0  0  0  0  0
    4.9760   10.8560   -3.3840 C   0  0  2  0  0  0  0  0  0  0  0  0
    5.5930   12.0560   -3.8690 O   0  0  0  0  0  0  0  0  0  0  0  0
    6.2100   10.8210   -4.2680 C   0  0  0  0  0  0  0  0  0  0  0  0
    6.1120   10.5380   -5.7340 C   0  0  0  0  0  0  0  0  0  0  0  0
    7.5410   10.5780   -3.6280 C   0  0  0  0  0  0  0  0  0  0  0  0
    0.5440   11.3470   -2.7910 C   0  0  1  0  0  0  0  0  0  0  0  0
   -0.8320   11.1590   -2.0970 C   0  0  0  0  0  0  0  0  0  0  0  0
   -0.9490   12.2730   -1.0260 C   0  0  0  0  0  0  0  0  0  0  0  0
    0.1980   13.2560   -1.3590 C   0  0  1  0  0  0  0  0  0  0  0  0
   -0.3550   14.1400   -2.5200 C   0  0  0  0  0  0  0  0  0  0  0  0
    0.7280   14.1270   -0.1730 C   0  0  2  0  0  0  0  0  0  0  0  0
   -0.3040   15.0870    0.4440 C   0  0  0  0  0  0  0  0  0  0  0  0
   -0.3520   16.4490   -0.1660 C   0  0  0  0  0  0  0  0  0  0  0  0
    0.5880   16.9790   -0.9710 C   0  0  0  0  0  0  0  0  0  0  0  0
    1.8900   16.2240   -1.2650 C   0  0  1  0  0  0  0  0  0  0  0  0
    3.0940   17.1900   -1.1140 C   0  0  0  0  0  0  0  0  0  0  0  0
    2.9450   18.4480   -1.9640 C   0  0  0  0  0  0  0  0  0  0  0  0
    1.6680   19.2020   -1.6020 C   0  0  2  0  0  0  0  0  0  0  0  0
    1.7940   19.7110   -0.2710 O   0  0  0  0  0  0  0  0  0  0  0  0
    0.3880   18.3260   -1.7080 C   0  0  0  0  0  0  0  0  0  0  0  0
    0.0850   18.0260   -3.1970 C   0  0  0  0  0  0  0  0  0  0  0  0
   -0.8080   19.1630   -1.1820 C   0  0  0  0  0  0  0  0  0  0  0  0
    2.0970   14.8630   -0.4700 C   0  0  1  0  0  0  0  0  0  0  0  0
    2.7580   15.1490    0.9130 C   0  0  0  0  0  0  0  0  0  0  0  0
    3.1060   13.9520   -1.2650 C   0  0  0  0  0  0  0  0  0  0  0  0
    2.5070   13.0270   -2.3410 C   0  0  0  0  0  0  0  0  0  0  0  0
    1.3170   12.2380   -1.7860 C   0  0  2  0  0  0  0  0  0  0  0  0
    1.8470   11.3230   -0.6300 C   0  0  0  0  0  0  0  0  0  0  0  0
    0.4885    8.9500   -1.4463 H   0  0  0  0  0  0  0  0  0  0  0  0
   -0.6238    8.8868   -2.8553 H   0  0  0  0  0  0  0  0  0  0  0  0
    0.8823    7.9078   -2.8553 H   0  0  0  0  0  0  0  0  0  0  0  0
    1.1219    9.8923   -4.2803 H   0  0  0  0  0  0  0  0  0  0  0  0
    2.8042   10.6200   -1.8939 H   0  0  0  0  0  0  0  0  0  0  0  0
    2.9802    8.9773   -2.6779 H   0  0  0  0  0  0  0  0  0  0  0  0
    3.6354    9.9160   -4.7414 H   0  0  0  0  0  0  0  0  0  0  0  0
    3.1661   11.5837   -4.2073 H   0  0  0  0  0  0  0  0  0  0  0  0
    4.7368   10.3616   -2.4309 H   0  0  0  0  0  0  0  0  0  0  0  0
    5.7555    9.5085   -5.8857 H   0  0  0  0  0  0  0  0  0  0  0  0
    5.4055   11.2426   -6.1970 H   0  0  0  0  0  0  0  0  0  0  0  0
    7.1029   10.6548   -6.1970 H   0  0  0  0  0  0  0  0  0  0  0  0
    7.4308   10.5981   -2.5337 H   0  0  0  0  0  0  0  0  0  0  0  0
    7.9239    9.5951   -3.9400 H   0  0  0  0  0  0  0  0  0  0  0  0
    8.2465   11.3622   -3.9400 H   0  0  0  0  0  0  0  0  0  0  0  0
    0.5043   11.8364   -3.7753 H   0  0  0  0  0  0  0  0  0  0  0  0
   -1.6437   11.2547   -2.8332 H   0  0  0  0  0  0  0  0  0  0  0  0
   -0.9104   10.1617   -1.6395 H   0  0  0  0  0  0  0  0  0  0  0  0
   -1.9244   12.7768   -1.0946 H   0  0  0  0  0  0  0  0  0  0  0  0
   -0.8753   11.8771   -0.0024 H   0  0  0  0  0  0  0  0  0  0  0  0
   -0.8941   15.0018   -2.0998 H   0  0  0  0  0  0  0  0  0  0  0  0
    0.4811   14.4970   -3.1393 H   0  0  0  0  0  0  0  0  0  0  0  0
   -1.0418   13.5443   -3.1393 H   0  0  0  0  0  0  0  0  0  0  0  0
    0.9330   13.3720    0.6002 H   0  0  0  0  0  0  0  0  0  0  0  0
   -1.2993   14.6311    0.3365 H   0  0  0  0  0  0  0  0  0  0  0  0
    0.0030   15.2326    1.4902 H   0  0  0  0  0  0  0  0  0  0  0  0
   -1.2295   17.0720    0.0616 H   0  0  0  0  0  0  0  0  0  0  0  0
    1.8141   15.8818   -2.3076 H   0  0  0  0  0  0  0  0  0  0  0  0
    3.1783   17.4860   -0.0579 H   0  0  0  0  0  0  0  0  0  0  0  0
    3.9935   16.6588   -1.4587 H   0  0  0  0  0  0  0  0  0  0  0  0
    3.8114   19.1036   -1.7919 H   0  0  0  0  0  0  0  0  0  0  0  0
    2.8907   18.1527   -3.0222 H   0  0  0  0  0  0  0  0  0  0  0  0
    1.5501   20.0186   -2.3295 H   0  0  0  0  0  0  0  0  0  0  0  0
    1.3480   20.5740   -0.2420 H   0  0  0  0  0  0  0  0  0  0  0  0
   -0.6952   17.2535   -3.2640 H   0  0  0  0  0  0  0  0  0  0  0  0
   -0.2644   18.9440   -3.6923 H   0  0  0  0  0  0  0  0  0  0  0  0
    0.9994   17.6675   -3.6923 H   0  0  0  0  0  0  0  0  0  0  0  0
   -0.8026   19.1592   -0.0820 H   0  0  0  0  0  0  0  0  0  0  0  0
   -0.7197   20.1974   -1.5455 H   0  0  0  0  0  0  0  0  0  0  0  0
   -1.7496   18.7257   -1.5455 H   0  0  0  0  0  0  0  0  0  0  0  0
    2.0692   14.8510    1.7172 H   0  0  0  0  0  0  0  0  0  0  0  0
    3.6922   14.5746    0.9987 H   0  0  0  0  0  0  0  0  0  0  0  0
    2.9789   16.2232    0.9987 H   0  0  0  0  0  0  0  0  0  0  0  0
    3.8316   14.6134   -1.7611 H   0  0  0  0  0  0  0  0  0  0  0  0
    3.5379   13.2760   -0.5123 H   0  0  0  0  0  0  0  0  0  0  0  0
    2.1690   13.6367   -3.1919 H   0  0  0  0  0  0  0  0  0  0  0  0
    3.2814   12.3143   -2.6611 H   0  0  0  0  0  0  0  0  0  0  0  0
    1.5875   11.7710    0.3405 H   0  0  0  0  0  0  0  0  0  0  0  0
    1.3856   10.3276   -0.7094 H   0  0  0  0  0  0  0  0  0  0  0  0
    2.9400   11.2279   -0.7094 H   0  0  0  0  0  0  0  0  0  0  0  0
  1  2  1  0
  2  3  1  0
  3  4  1  0
  4  5  1  0
  5  6  1  0
  6  7  1  0
  7  8  1  0
  7  9  1  0
  2 10  1  0
 10 11  1  0
 11 12  1  0
 12 13  1  0
 13 14  1  6
 13 15  1  0
 15 16  1  0
 16 17  1  0
 17 18  2  0
 18 19  1  0
 19 20  1  0
 20 21  1  0
 21 22  1  0
 22 23  1  0
 22 24  1  0
 24 25  1  0
 24 26  1  0
 19 27  1  0
 27 28  1  1
 27 29  1  0
 29 30  1  0
 30 31  1  0
 31 32  1  1
  7  5  1  0
 31 10  1  0
 31 13  1  0
 27 15  1  0
 24 18  1  0
  1 33  1  0
  1 34  1  0
  1 35  1  0
  2 36  1  6
  3 37  1  0
  3 38  1  0
  4 39  1  0
  4 40  1  0
  5 41  1  1
  8 42  1  0
  8 43  1  0
  8 44  1  0
  9 45  1  0
  9 46  1  0
  9 47  1  0
 10 48  1  6
 11 49  1  0
 11 50  1  0
 12 51  1  0
 12 52  1  0
 14 53  1  0
 14 54  1  0
 14 55  1  0
 15 56  1  1
 16 57  1  0
 16 58  1  0
 17 59  1  0
 19 60  1  6
 20 61  1  0
 20 62  1  0
 21 63  1  0
 21 64  1  0
 22 65  1  6
 23 66  1  0
 25 67  1  0
 25 68  1  0
 25 69  1  0
 26 70  1  0
 26 71  1  0
 26 72  1  0
 28 73  1  0
 28 74  1  0
 28 75  1  0
 29 76  1  0
 29 77  1  0
 30 78  1  0
 30 79  1  0
 32 80  1  0
 32 81  1  0
 32 82  1  0
M  END
>  <meeko>  (10) 
{"is_sidechain": [false], "intermolecular_energy": 2.731, "internal_energy": -0.839}

$$$$
EPH_relaxed_0001_pdb2pqr_Repair_385_r2_0001_out
     RDKit          3D

 82 86  0  0  0  0  0  0  0  0999 V2000
  -14.1300   11.8790   -2.0780 C   0  0  0  0  0  0  0  0  0  0  0  0
  -13.6420   10.5120   -1.5890 C   0  0  2  0  0  0  0  0  0  0  0  0
  -13.9280   10.2960   -0.0890 C   0  0  0  0  0  0  0  0  0  0  0  0
  -15.2870    9.6490    0.1920 C   0  0  0  0  0  0  0  0  0  0  0  0
  -15.1380    8.2950    0.8170 C   0  0  2  0  0  0  0  0  0  0  0  0
  -13.8430    7.7020    0.6580 O   0  0  0  0  0  0  0  0  0  0  0  0
  -14.9340    7.0220    0.0160 C   0  0  0  0  0  0  0  0  0  0  0  0
  -14.8690    7.0430   -1.4790 C   0  0  0  0  0  0  0  0  0  0  0  0
  -15.2870    5.7140    0.6520 C   0  0  0  0  0  0  0  0  0  0  0  0
  -12.1500   10.3650   -1.8620 C   0  0  1  0  0  0  0  0  0  0  0  0
  -11.3880   11.7120   -1.7570 C   0  0  0  0  0  0  0  0  0  0  0  0
   -9.9870   11.3900   -1.1740 C   0  0  0  0  0  0  0  0  0  0  0  0
   -9.8680    9.8510   -1.2750 C   0  0  1  0  0  0  0  0  0  0  0  0
   -9.4550    9.5770   -2.7550 C   0  0  0  0  0  0  0  0  0  0  0  0
   -8.8900    9.1660   -0.2660 C   0  0  2  0  0  0  0  0  0  0  0  0
   -7.4140    9.5790   -0.4060 C   0  0  0  0  0  0  0  0  0  0  0  0
   -6.6010    8.7370   -1.3330 C   0  0  0  0  0  0  0  0  0  0  0  0
   -6.9560    7.5270   -1.8050 C   0  0  0  0  0  0  0  0  0  0  0  0
   -8.2450    6.8440   -1.3310 C   0  0  1  0  0  0  0  0  0  0  0  0
   -7.9470    5.3620   -0.9820 C   0  0  0  0  0  0  0  0  0  0  0  0
   -7.2790    4.6140   -2.1310 C   0  0  0  0  0  0  0  0  0  0  0  0
   -5.9710    5.2900   -2.5350 C   0  0  2  0  0  0  0  0  0  0  0  0
   -5.0350    5.1610   -1.4610 O   0  0  0  0  0  0  0  0  0  0  0  0
   -6.1450    6.7910   -2.9000 C   0  0  0  0  0  0  0  0  0  0  0  0
   -6.9120    6.9150   -4.2390 C   0  0  0  0  0  0  0  0  0  0  0  0
   -4.7340    7.3880   -3.1500 C   0  0  0  0  0  0  0  0  0  0  0  0
   -9.0440    7.5940   -0.1800 C   0  0  1  0  0  0  0  0  0  0  0  0
   -8.4920    7.1680    1.2150 C   0  0  0  0  0  0  0  0  0  0  0  0
  -10.5510    7.1370   -0.2180 C   0  0  0  0  0  0  0  0  0  0  0  0
  -11.4930    7.9300   -1.1440 C   0  0  0  0  0  0  0  0  0  0  0  0
  -11.3430    9.4370   -0.9200 C   0  0  2  0  0  0  0  0  0  0  0  0
  -11.7730    9.7460    0.5550 C   0  0  0  0  0  0  0  0  0  0  0  0
  -14.3581   12.5181   -1.2122 H   0  0  0  0  0  0  0  0  0  0  0  0
  -13.3453   12.3523   -2.6865 H   0  0  0  0  0  0  0  0  0  0  0  0
  -15.0370   11.7484   -2.6865 H   0  0  0  0  0  0  0  0  0  0  0  0
  -14.1988    9.7432   -2.1448 H   0  0  0  0  0  0  0  0  0  0  0  0
  -13.1422    9.6466    0.3243 H   0  0  0  0  0  0  0  0  0  0  0  0
  -13.9419   11.2901    0.3818 H   0  0  0  0  0  0  0  0  0  0  0  0
  -15.8555   10.2966    0.8757 H   0  0  0  0  0  0  0  0  0  0  0  0
  -15.8138    9.5282   -0.7661 H   0  0  0  0  0  0  0  0  0  0  0  0
  -15.8475    8.5589    1.6151 H   0  0  0  0  0  0  0  0  0  0  0  0
  -13.8672    7.3667   -1.7979 H   0  0  0  0  0  0  0  0  0  0  0  0
  -15.0699    6.0342   -1.8690 H   0  0  0  0  0  0  0  0  0  0  0  0
  -15.6221    7.7435   -1.8690 H   0  0  0  0  0  0  0  0  0  0  0  0
  -15.2587    5.8190    1.7466 H   0  0  0  0  0  0  0  0  0  0  0  0
  -16.2980    5.4148    0.3384 H   0  0  0  0  0  0  0  0  0  0  0  0
  -14.5638    4.9468    0.3384 H   0  0  0  0  0  0  0  0  0  0  0  0
  -12.1891    9.9326   -2.8727 H   0  0  0  0  0  0  0  0  0  0  0  0
  -11.2880   12.1691   -2.7525 H   0  0  0  0  0  0  0  0  0  0  0  0
  -11.9290   12.4226   -1.1148 H   0  0  0  0  0  0  0  0  0  0  0  0
   -9.1986   11.8802   -1.7640 H   0  0  0  0  0  0  0  0  0  0  0  0
   -9.8713   11.7509   -0.1414 H   0  0  0  0  0  0  0  0  0  0  0  0
   -8.5385    8.9690   -2.7734 H   0  0  0  0  0  0  0  0  0  0  0  0
  -10.2642    9.0360   -3.2674 H   0  0  0  0  0  0  0  0  0  0  0  0
   -9.2712   10.5329   -3.2674 H   0  0  0  0  0  0  0  0  0  0  0  0
   -9.2243    9.5727    0.6998 H   0  0  0  0  0  0  0  0  0  0  0  0
   -7.3845   10.6152   -0.7740 H   0  0  0  0  0  0  0  0  0  0  0  0
   -6.9669    9.4524    0.5910 H   0  0  0  0  0  0  0  0  0  0  0  0
   -5.6300    9.1392   -1.6578 H   0  0  0  0  0  0  0  0  0  0  0  0
   -8.9455    6.8943   -2.1776 H   0  0  0  0  0  0  0  0  0  0  0  0
   -7.2806    5.3328   -0.1074 H   0  0  0  0  0  0  0  0  0  0  0  0
   -8.9077    4.8677   -0.7753 H   0  0  0  0  0  0  0  0  0  0  0  0
   -7.0680    3.5819   -1.8143 H   0  0  0  0  0  0  0  0  0  0  0  0
   -7.9588    4.6196   -2.9958 H   0  0  0  0  0  0  0  0  0  0  0  0
   -5.6056    4.7871   -3.4425 H   0  0  0  0  0  0  0  0  0  0  0  0
   -4.1500    5.0610   -1.8520 H   0  0  0  0  0  0  0  0  0  0  0  0
   -7.9792    7.0875   -4.0356 H   0  0  0  0  0  0  0  0  0  0  0  0
   -6.5076    7.7594   -4.8164 H   0  0  0  0  0  0  0  0  0  0  0  0
   -6.7942    5.9862   -4.8164 H   0  0  0  0  0  0  0  0  0  0  0  0
   -4.2469    7.5941   -2.1855 H   0  0  0  0  0  0  0  0  0  0  0  0
   -4.1277    6.6693   -3.7208 H   0  0  0  0  0  0  0  0  0  0  0  0
   -4.8276    8.3236   -3.7208 H   0  0  0  0  0  0  0  0  0  0  0  0
   -9.0966    7.6346    2.0067 H   0  0  0  0  0  0  0  0  0  0  0  0
   -8.5437    6.0734    1.3111 H   0  0  0  0  0  0  0  0  0  0  0  0
   -7.4463    7.4955    1.3111 H   0  0  0  0  0  0  0  0  0  0  0  0
  -10.5722    6.0861   -0.5423 H   0  0  0  0  0  0  0  0  0  0  0  0
  -10.9313    7.3126    0.7991 H   0  0  0  0  0  0  0  0  0  0  0  0
  -11.2491    7.6960   -2.1908 H   0  0  0  0  0  0  0  0  0  0  0  0
  -12.5304    7.6437   -0.9164 H   0  0  0  0  0  0  0  0  0  0  0  0
  -11.0809    9.2487    1.2505 H   0  0  0  0  0  0  0  0  0  0  0  0
  -11.7458   10.8325    0.7249 H   0  0  0  0  0  0  0  0  0  0  0  0
  -12.7941    9.3737    0.7249 H   0  0  0  0  0  0  0  0  0  0  0  0
  1  2  1  0
  2  3  1  0
  3  4  1  0
  4  5  1  0
  5  6  1  0
  6  7  1  0
  7  8  1  0
  7  9  1  0
  2 10  1  0
 10 11  1  0
 11 12  1  0
 12 13  1  0
 13 14  1  6
 13 15  1  0
 15 16  1  0
 16 17  1  0
 17 18  2  0
 18 19  1  0
 19 20  1  0
 20 21  1  0
 21 22  1  0
 22 23  1  0
 22 24  1  0
 24 25  1  0
 24 26  1  0
 19 27  1  0
 27 28  1  1
 27 29  1  0
 29 30  1  0
 30 31  1  0
 31 32  1  1
  7  5  1  0
 31 10  1  0
 31 13  1  0
 27 15  1  0
 24 18  1  0
  1 33  1  0
  1 34  1  0
  1 35  1  0
  2 36  1  6
  3 37  1  0
  3 38  1  0
  4 39  1  0
  4 40  1  0
  5 41  1  1
  8 42  1  0
  8 43  1  0
  8 44  1  0
  9 45  1  0
  9 46  1  0
  9 47  1  0
 10 48  1  6
 11 49  1  0
 11 50  1  0
 12 51  1  0
 12 52  1  0
 14 53  1  0
 14 54  1  0
 14 55  1  0
 15 56  1  1
 16 57  1  0
 16 58  1  0
 17 59  1  0
 19 60  1  6
 20 61  1  0
 20 62  1  0
 21 63  1  0
 21 64  1  0
 22 65  1  6
 23 66  1  0
 25 67  1  0
 25 68  1  0
 25 69  1  0
 26 70  1  0
 26 71  1  0
 26 72  1  0
 28 73  1  0
 28 74  1  0
 28 75  1  0
 29 76  1  0
 29 77  1  0
 30 78  1  0
 30 79  1  0
 32 80  1  0
 32 81  1  0
 32 82  1  0
M  END
>  <meeko>  (11) 
{"is_sidechain": [false], "intermolecular_energy": 2.731, "internal_energy": -0.839}

$$$$
EPH_relaxed_0001_pdb2pqr_Repair_385_r2_0001_out
     RDKit          3D

 82 86  0  0  0  0  0  0  0  0999 V2000
  -12.8080   10.3480    2.1820 C   0  0  0  0  0  0  0  0  0  0  0  0
  -13.4110   10.6300    0.8030 C   0  0  2  0  0  0  0  0  0  0  0  0
  -14.8820   10.1790    0.7090 C   0  0  0  0  0  0  0  0  0  0  0  0
  -15.0910    8.6920    1.0100 C   0  0  0  0  0  0  0  0  0  0  0  0
  -15.2710    7.8920   -0.2450 C   0  0  2  0  0  0  0  0  0  0  0  0
  -15.2840    6.4720   -0.0520 O   0  0  0  0  0  0  0  0  0  0  0  0
  -14.1940    6.9960   -0.8270 C   0  0  0  0  0  0  0  0  0  0  0  0
  -12.8570    6.8550   -0.1700 C   0  0  0  0  0  0  0  0  0  0  0  0
  -14.2640    6.6450   -2.2810 C   0  0  0  0  0  0  0  0  0  0  0  0
  -12.5850    9.9400   -0.2760 C   0  0  1  0  0  0  0  0  0  0  0  0
  -13.1320   10.2000   -1.7050 C   0  0  0  0  0  0  0  0  0  0  0  0
  -11.9030   10.2780   -2.6470 C   0  0  0  0  0  0  0  0  0  0  0  0
  -10.7270    9.7360   -1.8010 C   0  0  1  0  0  0  0  0  0  0  0  0
  -10.8530    8.1830   -1.8880 C   0  0  0  0  0  0  0  0  0  0  0  0
   -9.2990   10.2240   -2.2100 C   0  0  2  0  0  0  0  0  0  0  0  0
   -8.8490    9.8130   -3.6230 C   0  0  0  0  0  0  0  0  0  0  0  0
   -8.1240    8.5110   -3.7080 C   0  0  0  0  0  0  0  0  0  0  0  0
   -7.5940    7.8420   -2.6680 C   0  0  0  0  0  0  0  0  0  0  0  0
   -7.6130    8.4380   -1.2550 C   0  0  1  0  0  0  0  0  0  0  0  0
   -6.2130    8.2800   -0.6070 C   0  0  0  0  0  0  0  0  0  0  0  0
   -5.7200    6.8370   -0.6240 C   0  0  0  0  0  0  0  0  0  0  0  0
   -5.6590    6.2980   -2.0510 C   0  0  2  0  0  0  0  0  0  0  0  0
   -4.6440    7.0070   -2.7680 O   0  0  0  0  0  0  0  0  0  0  0  0
   -7.0110    6.4130   -2.8070 C   0  0  0  0  0  0  0  0  0  0  0  0
   -8.0300    5.4120   -2.2090 C   0  0  0  0  0  0  0  0  0  0  0  0
   -6.7760    5.9670   -4.2760 C   0  0  0  0  0  0  0  0  0  0  0  0
   -8.1780    9.9190   -1.1350 C   0  0  1  0  0  0  0  0  0  0  0  0
   -7.0320   10.9470   -1.3840 C   0  0  0  0  0  0  0  0  0  0  0  0
   -8.6790   10.1610    0.3380 C   0  0  0  0  0  0  0  0  0  0  0  0
  -10.1370    9.7700    0.6490 C   0  0  0  0  0  0  0  0  0  0  0  0
  -11.0940   10.3460   -0.3990 C   0  0  2  0  0  0  0  0  0  0  0  0
  -11.0060   11.9080   -0.3200 C   0  0  0  0  0  0  0  0  0  0  0  0
  -13.5096   10.6761    2.9631 H   0  0  0  0  0  0  0  0  0  0  0  0
  -12.6211    9.2691    2.2868 H   0  0  0  0  0  0  0  0  0  0  0  0
  -11.8601   10.8962    2.2868 H   0  0  0  0  0  0  0  0  0  0  0  0
  -13.3893   11.7189    0.6488 H   0  0  0  0  0  0  0  0  0  0  0  0
  -15.4716   10.7652    1.4293 H   0  0  0  0  0  0  0  0  0  0  0  0
  -15.2030   10.3446   -0.3300 H   0  0  0  0  0  0  0  0  0  0  0  0
  -14.2131    8.3113    1.5525 H   0  0  0  0  0  0  0  0  0  0  0  0
  -16.0036    8.5898    1.6156 H   0  0  0  0  0  0  0  0  0  0  0  0
  -15.8915    8.6840   -0.6896 H   0  0  0  0  0  0  0  0  0  0  0  0
  -12.9822    6.8682    0.9228 H   0  0  0  0  0  0  0  0  0  0  0  0
  -12.3972    5.9034   -0.4749 H   0  0  0  0  0  0  0  0  0  0  0  0
  -12.2088    7.6898   -0.4749 H   0  0  0  0  0  0  0  0  0  0  0  0
  -14.4781    5.5715   -2.3891 H   0  0  0  0  0  0  0  0  0  0  0  0
  -15.0635    7.2285   -2.7610 H   0  0  0  0  0  0  0  0  0  0  0  0
  -13.3019    6.8772   -2.7610 H   0  0  0  0  0  0  0  0  0  0  0  0
  -12.6646    8.8985    0.0688 H   0  0  0  0  0  0  0  0  0  0  0  0
  -13.7937    9.3770   -2.0129 H   0  0  0  0  0  0  0  0  0  0  0  0
  -13.7168   11.1310   -1.7408 H   0  0  0  0  0  0  0  0  0  0  0  0
  -12.0583    9.6549   -3.5401 H   0  0  0  0  0  0  0  0  0  0  0  0
  -11.7196   11.3004   -3.0091 H   0  0  0  0  0  0  0  0  0  0  0  0
  -10.8873    7.7605   -0.8730 H   0  0  0  0  0  0  0  0  0  0  0  0
  -11.7755    7.9195   -2.4262 H   0  0  0  0  0  0  0  0  0  0  0  0
   -9.9851    7.7743   -2.4262 H   0  0  0  0  0  0  0  0  0  0  0  0
   -9.4226   11.3166   -2.2419 H   0  0  0  0  0  0  0  0  0  0  0  0
   -9.7442    9.7456   -4.2586 H   0  0  0  0  0  0  0  0  0  0  0  0
   -8.1333   10.5816   -3.9499 H   0  0  0  0  0  0  0  0  0  0  0  0
   -8.0137    8.0603   -4.7054 H   0  0  0  0  0  0  0  0  0  0  0  0
   -8.3537    7.8543   -0.6887 H   0  0  0  0  0  0  0  0  0  0  0  0
   -5.4959    8.9041   -1.1604 H   0  0  0  0  0  0  0  0  0  0  0  0
   -6.2947    8.5925    0.4445 H   0  0  0  0  0  0  0  0  0  0  0  0
   -4.7145    6.7949   -0.1800 H   0  0  0  0  0  0  0  0  0  0  0  0
   -6.4223    6.2192   -0.0451 H   0  0  0  0  0  0  0  0  0  0  0  0
   -5.4253    5.2249   -1.9892 H   0  0  0  0  0  0  0  0  0  0  0  0
   -4.5170    7.8650   -2.3280 H   0  0  0  0  0  0  0  0  0  0  0  0
   -7.9856    5.4556   -1.1108 H   0  0  0  0  0  0  0  0  0  0  0  0
   -9.0435    5.6754   -2.5457 H   0  0  0  0  0  0  0  0  0  0  0  0
   -7.7847    4.3939   -2.5457 H   0  0  0  0  0  0  0  0  0  0  0  0
   -6.2633    4.9939   -4.2862 H   0  0  0  0  0  0  0  0  0  0  0  0
   -7.7437    5.8769   -4.7911 H   0  0  0  0  0  0  0  0  0  0  0  0
   -6.1546    6.7143   -4.7911 H   0  0  0  0  0  0  0  0  0  0  0  0
   -6.6393   11.2993   -0.4188 H   0  0  0  0  0  0  0  0  0  0  0  0
   -6.2245   10.4648   -1.9544 H   0  0  0  0  0  0  0  0  0  0  0  0
   -7.4239   11.8020   -1.9544 H   0  0  0  0  0  0  0  0  0  0  0  0
   -8.0286    9.5820    1.0101 H   0  0  0  0  0  0  0  0  0  0  0  0
   -8.6364   11.2508    0.4812 H   0  0  0  0  0  0  0  0  0  0  0  0
  -10.2230    8.6734    0.6508 H   0  0  0  0  0  0  0  0  0  0  0  0
  -10.4076   10.1788    1.6337 H   0  0  0  0  0  0  0  0  0  0  0  0
  -10.9883   12.2214    0.7343 H   0  0  0  0  0  0  0  0  0  0  0  0
  -10.0872   12.2492   -0.8194 H   0  0  0  0  0  0  0  0  0  0  0  0
  -11.8807   12.3503   -0.8194 H   0  0  0  0  0  0  0  0  0  0  0  0
  1  2  1  0
  2  3  1  0
  3  4  1  0
  4  5  1  0
  5  6  1  0
  6  7  1  0
  7  8  1  0
  7  9  1  0
  2 10  1  0
 10 11  1  0
 11 12  1  0
 12 13  1  0
 13 14  1  1
 13 15  1  0
 15 16  1  0
 16 17  1  0
 17 18  2  0
 18 19  1  0
 19 20  1  0
 20 21  1  0
 21 22  1  0
 22 23  1  0
 22 24  1  0
 24 25  1  0
 24 26  1  0
 19 27  1  0
 27 28  1  6
 27 29  1  0
 29 30  1  0
 30 31  1  0
 31 32  1  6
  7  5  1  0
 31 10  1  0
 31 13  1  0
 27 15  1  0
 24 18  1  0
  1 33  1  0
  1 34  1  0
  1 35  1  0
  2 36  1  6
  3 37  1  0
  3 38  1  0
  4 39  1  0
  4 40  1  0
  5 41  1  6
  8 42  1  0
  8 43  1  0
  8 44  1  0
  9 45  1  0
  9 46  1  0
  9 47  1  0
 10 48  1  1
 11 49  1  0
 11 50  1  0
 12 51  1  0
 12 52  1  0
 14 53  1  0
 14 54  1  0
 14 55  1  0
 15 56  1  6
 16 57  1  0
 16 58  1  0
 17 59  1  0
 19 60  1  1
 20 61  1  0
 20 62  1  0
 21 63  1  0
 21 64  1  0
 22 65  1  1
 23 66  1  0
 25 67  1  0
 25 68  1  0
 25 69  1  0
 26 70  1  0
 26 71  1  0
 26 72  1  0
 28 73  1  0
 28 74  1  0
 28 75  1  0
 29 76  1  0
 29 77  1  0
 30 78  1  0
 30 79  1  0
 32 80  1  0
 32 81  1  0
 32 82  1  0
M  END
>  <meeko>  (12) 
{"is_sidechain": [false], "intermolecular_energy": 2.731, "internal_energy": -0.839}

$$$$
EPH_relaxed_0001_pdb2pqr_Repair_385_r2_0001_out
     RDKit          3D

 82 86  0  0  0  0  0  0  0  0999 V2000
   -5.6760    5.6680   -1.5420 C   0  0  0  0  0  0  0  0  0  0  0  0
   -5.7410    7.1580   -1.8880 C   0  0  2  0  0  0  0  0  0  0  0  0
   -5.2750    8.0470   -0.7180 C   0  0  0  0  0  0  0  0  0  0  0  0
   -5.4100    9.5470   -0.9930 C   0  0  0  0  0  0  0  0  0  0  0  0
   -6.8440    9.9550   -1.1500 C   0  0  2  0  0  0  0  0  0  0  0  0
   -7.1690   10.5220   -2.4260 O   0  0  0  0  0  0  0  0  0  0  0  0
   -7.2930   11.3970   -1.2940 C   0  0  0  0  0  0  0  0  0  0  0  0
   -6.3090   12.5250   -1.2860 C   0  0  0  0  0  0  0  0  0  0  0  0
   -8.7080   11.7440   -0.9510 C   0  0  0  0  0  0  0  0  0  0  0  0
   -7.1610    7.5350   -2.2950 C   0  0  1  0  0  0  0  0  0  0  0  0
   -7.5840    6.8980   -3.6460 C   0  0  0  0  0  0  0  0  0  0  0  0
   -9.0960    6.5740   -3.5330 C   0  0  0  0  0  0  0  0  0  0  0  0
   -9.5630    7.3280   -2.2670 C   0  0  1  0  0  0  0  0  0  0  0  0
   -9.7850    8.8000   -2.7350 C   0  0  0  0  0  0  0  0  0  0  0  0
  -10.8280    6.7540   -1.5480 C   0  0  2  0  0  0  0  0  0  0  0  0
  -12.1180    6.7710   -2.3850 C   0  0  0  0  0  0  0  0  0  0  0  0
  -12.9490    8.0040   -2.2530 C   0  0  0  0  0  0  0  0  0  0  0  0
  -12.8230    8.9320   -1.2850 C   0  0  0  0  0  0  0  0  0  0  0  0
  -11.8300    8.7370   -0.1320 C   0  0  1  0  0  0  0  0  0  0  0  0
  -12.5270    9.0690    1.2130 C   0  0  0  0  0  0  0  0  0  0  0  0
  -13.1610   10.4570    1.2170 C   0  0  0  0  0  0  0  0  0  0  0  0
  -14.1850   10.5920    0.0930 C   0  0  2  0  0  0  0  0  0  0  0  0
  -15.2860    9.7190    0.3650 O   0  0  0  0  0  0  0  0  0  0  0  0
  -13.5990   10.2720   -1.3110 C   0  0  0  0  0  0  0  0  0  0  0  0
  -12.6180   11.3930   -1.7330 C   0  0  0  0  0  0  0  0  0  0  0  0
  -14.7660   10.3070   -2.3350 C   0  0  0  0  0  0  0  0  0  0  0  0
  -11.0710    7.3410   -0.0980 C   0  0  1  0  0  0  0  0  0  0  0  0
  -11.9280    6.2880    0.6700 C   0  0  0  0  0  0  0  0  0  0  0  0
   -9.7330    7.5030    0.7150 C   0  0  0  0  0  0  0  0  0  0  0  0
   -8.4910    7.9580   -0.0750 C   0  0  0  0  0  0  0  0  0  0  0  0
   -8.3090    7.1170   -1.3430 C   0  0  2  0  0  0  0  0  0  0  0  0
   -8.0610    5.6340   -0.9020 C   0  0  0  0  0  0  0  0  0  0  0  0
   -5.6706    5.5453   -0.4489 H   0  0  0  0  0  0  0  0  0  0  0  0
   -6.5526    5.1549   -1.9643 H   0  0  0  0  0  0  0  0  0  0  0  0
   -4.7580    5.2332   -1.9643 H   0  0  0  0  0  0  0  0  0  0  0  0
   -5.0538    7.3328   -2.7290 H   0  0  0  0  0  0  0  0  0  0  0  0
   -5.8793    7.8005    0.1675 H   0  0  0  0  0  0  0  0  0  0  0  0
   -4.2048    7.8432   -0.5659 H   0  0  0  0  0  0  0  0  0  0  0  0
   -4.9707   10.1045   -0.1526 H   0  0  0  0  0  0  0  0  0  0  0  0
   -4.8846    9.7720   -1.9328 H   0  0  0  0  0  0  0  0  0  0  0  0
   -7.1721    9.1430   -0.4844 H   0  0  0  0  0  0  0  0  0  0  0  0
   -6.0716   12.7971   -0.2470 H   0  0  0  0  0  0  0  0  0  0  0  0
   -5.3893   12.2130   -1.8026 H   0  0  0  0  0  0  0  0  0  0  0  0
   -6.7430   13.3938   -1.8026 H   0  0  0  0  0  0  0  0  0  0  0  0
   -8.8238   11.7724    0.1425 H   0  0  0  0  0  0  0  0  0  0  0  0
   -8.9561   12.7296   -1.3717 H   0  0  0  0  0  0  0  0  0  0  0  0
   -9.3840   10.9850   -1.3717 H   0  0  0  0  0  0  0  0  0  0  0  0
   -7.0639    8.6306   -2.3084 H   0  0  0  0  0  0  0  0  0  0  0  0
   -7.4086    7.6054   -4.4699 H   0  0  0  0  0  0  0  0  0  0  0  0
   -6.9997    5.9897   -3.8548 H   0  0  0  0  0  0  0  0  0  0  0  0
   -9.6374    6.9330   -4.4207 H   0  0  0  0  0  0  0  0  0  0  0  0
   -9.2872    5.4926   -3.4687 H   0  0  0  0  0  0  0  0  0  0  0  0
   -9.8835    9.4534   -1.8556 H   0  0  0  0  0  0  0  0  0  0  0  0
   -8.9259    9.1260   -3.3396 H   0  0  0  0  0  0  0  0  0  0  0  0
  -10.7021    8.8582   -3.3396 H   0  0  0  0  0  0  0  0  0  0  0  0
  -10.5677    5.6925   -1.4233 H   0  0  0  0  0  0  0  0  0  0  0  0
  -11.8378    6.6619   -3.4431 H   0  0  0  0  0  0  0  0  0  0  0  0
  -12.7374    5.9451   -2.0052 H   0  0  0  0  0  0  0  0  0  0  0  0
  -13.7300    8.1685   -3.0100 H   0  0  0  0  0  0  0  0  0  0  0  0
  -11.0105    9.4480   -0.3135 H   0  0  0  0  0  0  0  0  0  0  0  0
  -13.3131    8.3218    1.3965 H   0  0  0  0  0  0  0  0  0  0  0  0
  -11.7590    9.0507    2.0003 H   0  0  0  0  0  0  0  0  0  0  0  0
  -13.6622   10.6211    2.1823 H   0  0  0  0  0  0  0  0  0  0  0  0
  -12.3695   11.2051    1.0627 H   0  0  0  0  0  0  0  0  0  0  0  0
  -14.5086   11.6430    0.0659 H   0  0  0  0  0  0  0  0  0  0  0  0
  -15.9220   10.2100    0.9120 H   0  0  0  0  0  0  0  0  0  0  0  0
  -12.1995   11.8712   -0.8351 H   0  0  0  0  0  0  0  0  0  0  0  0
  -11.8029   10.9606   -2.3319 H   0  0  0  0  0  0  0  0  0  0  0  0
  -13.1546   12.1436   -2.3319 H   0  0  0  0  0  0  0  0  0  0  0  0
  -15.7251   10.3358   -1.7971 H   0  0  0  0  0  0  0  0  0  0  0  0
  -14.6728   11.2028   -2.9666 H   0  0  0  0  0  0  0  0  0  0  0  0
  -14.7267    9.4073   -2.9666 H   0  0  0  0  0  0  0  0  0  0  0  0
  -11.8071    6.4365    1.7532 H   0  0  0  0  0  0  0  0  0  0  0  0
  -12.9872    6.4094    0.3992 H   0  0  0  0  0  0  0  0  0  0  0  0
  -11.5940    5.2755    0.3992 H   0  0  0  0  0  0  0  0  0  0  0  0
   -9.9130    8.2440    1.5078 H   0  0  0  0  0  0  0  0  0  0  0  0
   -9.4908    6.4922    1.0751 H   0  0  0  0  0  0  0  0  0  0  0  0
   -8.6115    9.0141   -0.3579 H   0  0  0  0  0  0  0  0  0  0  0  0
   -7.6035    7.8288    0.5619 H   0  0  0  0  0  0  0  0  0  0  0  0
   -8.0511    5.5749    0.1964 H   0  0  0  0  0  0  0  0  0  0  0  0
   -8.8647    4.9949   -1.2964 H   0  0  0  0  0  0  0  0  0  0  0  0
   -7.0931    5.2912   -1.2964 H   0  0  0  0  0  0  0  0  0  0  0  0
  1  2  1  0
  2  3  1  0
  3  4  1  0
  4  5  1  0
  5  6  1  0
  6  7  1  0
  7  8  1  0
  7  9  1  0
  2 10  1  0
 10 11  1  0
 11 12  1  0
 12 13  1  0
 13 14  1  6
 13 15  1  0
 15 16  1  0
 16 17  1  0
 17 18  2  0
 18 19  1  0
 19 20  1  0
 20 21  1  0
 21 22  1  0
 22 23  1  0
 22 24  1  0
 24 25  1  0
 24 26  1  0
 19 27  1  0
 27 28  1  1
 27 29  1  0
 29 30  1  0
 30 31  1  0
 31 32  1  1
  7  5  1  0
 31 10  1  0
 31 13  1  0
 27 15  1  0
 24 18  1  0
  1 33  1  0
  1 34  1  0
  1 35  1  0
  2 36  1  6
  3 37  1  0
  3 38  1  0
  4 39  1  0
  4 40  1  0
  5 41  1  1
  8 42  1  0
  8 43  1  0
  8 44  1  0
  9 45  1  0
  9 46  1  0
  9 47  1  0
 10 48  1  6
 11 49  1  0
 11 50  1  0
 12 51  1  0
 12 52  1  0
 14 53  1  0
 14 54  1  0
 14 55  1  0
 15 56  1  1
 16 57  1  0
 16 58  1  0
 17 59  1  0
 19 60  1  6
 20 61  1  0
 20 62  1  0
 21 63  1  0
 21 64  1  0
 22 65  1  6
 23 66  1  0
 25 67  1  0
 25 68  1  0
 25 69  1  0
 26 70  1  0
 26 71  1  0
 26 72  1  0
 28 73  1  0
 28 74  1  0
 28 75  1  0
 29 76  1  0
 29 77  1  0
 30 78  1  0
 30 79  1  0
 32 80  1  0
 32 81  1  0
 32 82  1  0
M  END
>  <meeko>  (13) 
{"is_sidechain": [false], "intermolecular_energy": 2.731, "internal_energy": -0.839}

$$$$
EPH_relaxed_0001_pdb2pqr_Repair_385_r2_0001_out
     RDKit          3D

 82 86  0  0  0  0  0  0  0  0999 V2000
    1.2930   10.8490   -4.4970 C   0  0  0  0  0  0  0  0  0  0  0  0
    0.8510   10.3690   -3.1110 C   0  0  2  0  0  0  0  0  0  0  0  0
   -0.5720    9.7750   -3.1290 C   0  0  0  0  0  0  0  0  0  0  0  0
   -0.8030    8.6990   -2.0660 C   0  0  0  0  0  0  0  0  0  0  0  0
   -2.0910    8.9130   -1.3310 C   0  0  2  0  0  0  0  0  0  0  0  0
   -2.4990   10.2830   -1.2240 O   0  0  0  0  0  0  0  0  0  0  0  0
   -2.1830    9.6180    0.0100 C   0  0  0  0  0  0  0  0  0  0  0  0
   -0.9650   10.1530    0.6950 C   0  0  0  0  0  0  0  0  0  0  0  0
   -3.3750    9.3550    0.8760 C   0  0  0  0  0  0  0  0  0  0  0  0
    0.9230   11.5200   -2.1150 C   0  0  1  0  0  0  0  0  0  0  0  0
    1.9610   11.2730   -0.9890 C   0  0  0  0  0  0  0  0  0  0  0  0
    2.5800   12.6510   -0.6400 C   0  0  0  0  0  0  0  0  0  0  0  0
    1.6540   13.6800   -1.3300 C   0  0  1  0  0  0  0  0  0  0  0  0
    0.4410   13.8390   -0.3620 C   0  0  0  0  0  0  0  0  0  0  0  0
    2.2970   15.0610   -1.6820 C   0  0  2  0  0  0  0  0  0  0  0  0
    2.7880   15.8790   -0.4740 C   0  0  0  0  0  0  0  0  0  0  0  0
    1.7830   16.8130    0.1140 C   0  0  0  0  0  0  0  0  0  0  0  0
    0.6360   17.2000   -0.4750 C   0  0  0  0  0  0  0  0  0  0  0  0
    0.3000   16.7640   -1.9060 C   0  0  1  0  0  0  0  0  0  0  0  0
   -0.1970   17.9890   -2.7180 C   0  0  0  0  0  0  0  0  0  0  0  0
   -1.3580   18.7090   -2.0390 C   0  0  0  0  0  0  0  0  0  0  0  0
   -0.9660   19.1780   -0.6400 C   0  0  2  0  0  0  0  0  0  0  0  0
    0.0340   20.1940   -0.7580 O   0  0  0  0  0  0  0  0  0  0  0  0
   -0.4400   18.0300    0.2670 C   0  0  0  0  0  0  0  0  0  0  0  0
   -1.6090   17.0860    0.6410 C   0  0  0  0  0  0  0  0  0  0  0  0
    0.0520   18.6600    1.5970 C   0  0  0  0  0  0  0  0  0  0  0  0
    1.4320   15.9470   -2.6660 C   0  0  1  0  0  0  0  0  0  0  0  0
    2.4190   16.9300   -3.3650 C   0  0  0  0  0  0  0  0  0  0  0  0
    0.7690   15.0940   -3.8120 C   0  0  0  0  0  0  0  0  0  0  0  0
    0.2610   13.6910   -3.4290 C   0  0  0  0  0  0  0  0  0  0  0  0
    1.3330   12.9100   -2.6630 C   0  0  2  0  0  0  0  0  0  0  0  0
    2.5580   12.7150   -3.6190 C   0  0  0  0  0  0  0  0  0  0  0  0
    2.0344   11.6541   -4.3870 H   0  0  0  0  0  0  0  0  0  0  0  0
    1.7417   10.0104   -5.0496 H   0  0  0  0  0  0  0  0  0  0  0  0
    0.4203   11.2272   -5.0496 H   0  0  0  0  0  0  0  0  0  0  0  0
    1.5390    9.5679   -2.8030 H   0  0  0  0  0  0  0  0  0  0  0  0
   -1.2908   10.5903   -2.9598 H   0  0  0  0  0  0  0  0  0  0  0  0
   -0.7068    9.2932   -4.1086 H   0  0  0  0  0  0  0  0  0  0  0  0
   -0.8315    7.7145   -2.5558 H   0  0  0  0  0  0  0  0  0  0  0  0
    0.0201    8.7539   -1.3383 H   0  0  0  0  0  0  0  0  0  0  0  0
   -2.4801    7.9468   -1.6847 H   0  0  0  0  0  0  0  0  0  0  0  0
   -1.1012   10.0932    1.7849 H   0  0  0  0  0  0  0  0  0  0  0  0
   -0.0880    9.5573    0.4018 H   0  0  0  0  0  0  0  0  0  0  0  0
   -0.8104   11.2019    0.4018 H   0  0  0  0  0  0  0  0  0  0  0  0
   -3.0810    9.4199    1.9340 H   0  0  0  0  0  0  0  0  0  0  0  0
   -4.1535   10.1030    0.6652 H   0  0  0  0  0  0  0  0  0  0  0  0
   -3.7665    8.3489    0.6652 H   0  0  0  0  0  0  0  0  0  0  0  0
   -0.1252   11.5406   -1.7822 H   0  0  0  0  0  0  0  0  0  0  0  0
    1.4659   10.8454   -0.1047 H   0  0  0  0  0  0  0  0  0  0  0  0
    2.7358   10.5636   -1.3152 H   0  0  0  0  0  0  0  0  0  0  0  0
    2.5912   12.8073    0.4488 H   0  0  0  0  0  0  0  0  0  0  0  0
    3.6237   12.7371   -0.9766 H   0  0  0  0  0  0  0  0  0  0  0  0
    0.7940   13.7927    0.6788 H   0  0  0  0  0  0  0  0  0  0  0  0
   -0.0464   14.8087   -0.5411 H   0  0  0  0  0  0  0  0  0  0  0  0
   -0.2799   13.0277   -0.5411 H   0  0  0  0  0  0  0  0  0  0  0  0
    3.2030   14.7657   -2.2316 H   0  0  0  0  0  0  0  0  0  0  0  0
    3.0968   15.1735    0.3114 H   0  0  0  0  0  0  0  0  0  0  0  0
    3.6085   16.5098   -0.8467 H   0  0  0  0  0  0  0  0  0  0  0  0
    1.9978   17.2195    1.1133 H   0  0  0  0  0  0  0  0  0  0  0  0
   -0.5082   16.0233   -1.8158 H   0  0  0  0  0  0  0  0  0  0  0  0
    0.6370   18.6967   -2.8346 H   0  0  0  0  0  0  0  0  0  0  0  0
   -0.5552   17.6216   -3.6910 H   0  0  0  0  0  0  0  0  0  0  0  0
   -1.6438   19.5818   -2.6444 H   0  0  0  0  0  0  0  0  0  0  0  0
   -2.2019   18.0090   -1.9510 H   0  0  0  0  0  0  0  0  0  0  0  0
   -1.8740   19.5680   -0.1568 H   0  0  0  0  0  0  0  0  0  0  0  0
   -0.2960   20.8610   -1.3840 H   0  0  0  0  0  0  0  0  0  0  0  0
   -1.6909   17.0198    1.7359 H   0  0  0  0  0  0  0  0  0  0  0  0
   -2.5475   17.4825    0.2264 H   0  0  0  0  0  0  0  0  0  0  0  0
   -1.4190   16.0850    0.2264 H   0  0  0  0  0  0  0  0  0  0  0  0
   -0.3789   18.1083    2.4455 H   0  0  0  0  0  0  0  0  0  0  0  0
    1.1497   18.6063    1.6442 H   0  0  0  0  0  0  0  0  0  0  0  0
   -0.2660   19.7120    1.6442 H   0  0  0  0  0  0  0  0  0  0  0  0
    2.9808   17.4895   -2.6025 H   0  0  0  0  0  0  0  0  0  0  0  0
    3.1202   16.3608   -3.9929 H   0  0  0  0  0  0  0  0  0  0  0  0
    1.8526   17.6335   -3.9929 H   0  0  0  0  0  0  0  0  0  0  0  0
   -0.0887   15.6646   -4.1977 H   0  0  0  0  0  0  0  0  0  0  0  0
    1.5728   14.9194   -4.5424 H   0  0  0  0  0  0  0  0  0  0  0  0
   -0.6322   13.7924   -2.7951 H   0  0  0  0  0  0  0  0  0  0  0  0
    0.0186   13.1420   -4.3509 H   0  0  0  0  0  0  0  0  0  0  0  0
    3.4700   12.5698   -3.0214 H   0  0  0  0  0  0  0  0  0  0  0  0
    2.3910   11.8321   -4.2535 H   0  0  0  0  0  0  0  0  0  0  0  0
    2.6734   13.6061   -4.2535 H   0  0  0  0  0  0  0  0  0  0  0  0
  1  2  1  0
  2  3  1  0
  3  4  1  0
  4  5  1  0
  5  6  1  0
  6  7  1  0
  7  8  1  0
  7  9  1  0
  2 10  1  0
 10 11  1  0
 11 12  1  0
 12 13  1  0
 13 14  1  1
 13 15  1  0
 15 16  1  0
 16 17  1  0
 17 18  2  0
 18 19  1  0
 19 20  1  0
 20 21  1  0
 21 22  1  0
 22 23  1  0
 22 24  1  0
 24 25  1  0
 24 26  1  0
 19 27  1  0
 27 28  1  6
 27 29  1  0
 29 30  1  0
 30 31  1  0
 31 32  1  6
  7  5  1  0
 31 10  1  0
 31 13  1  0
 27 15  1  0
 24 18  1  0
  1 33  1  0
  1 34  1  0
  1 35  1  0
  2 36  1  1
  3 37  1  0
  3 38  1  0
  4 39  1  0
  4 40  1  0
  5 41  1  1
  8 42  1  0
  8 43  1  0
  8 44  1  0
  9 45  1  0
  9 46  1  0
  9 47  1  0
 10 48  1  1
 11 49  1  0
 11 50  1  0
 12 51  1  0
 12 52  1  0
 14 53  1  0
 14 54  1  0
 14 55  1  0
 15 56  1  6
 16 57  1  0
 16 58  1  0
 17 59  1  0
 19 60  1  1
 20 61  1  0
 20 62  1  0
 21 63  1  0
 21 64  1  0
 22 65  1  1
 23 66  1  0
 25 67  1  0
 25 68  1  0
 25 69  1  0
 26 70  1  0
 26 71  1  0
 26 72  1  0
 28 73  1  0
 28 74  1  0
 28 75  1  0
 29 76  1  0
 29 77  1  0
 30 78  1  0
 30 79  1  0
 32 80  1  0
 32 81  1  0
 32 82  1  0
M  END
>  <meeko>  (14) 
{"is_sidechain": [false], "intermolecular_energy": 2.731, "internal_energy": -0.839}

$$$$
EPH_relaxed_0001_pdb2pqr_Repair_385_r2_0001_out
     RDKit          3D

 82 86  0  0  0  0  0  0  0  0999 V2000
   -4.0430    7.1640   -3.3240 C   0  0  0  0  0  0  0  0  0  0  0  0
   -4.0340    7.2590   -1.7960 C   0  0  2  0  0  0  0  0  0  0  0  0
   -5.4430    7.0850   -1.1940 C   0  0  0  0  0  0  0  0  0  0  0  0
   -6.5740    7.4130   -2.1730 C   0  0  0  0  0  0  0  0  0  0  0  0
   -7.8340    7.7960   -1.4560 C   0  0  2  0  0  0  0  0  0  0  0  0
   -8.8320    8.4070   -2.2840 O   0  0  0  0  0  0  0  0  0  0  0  0
   -8.2740    9.2330   -1.2480 C   0  0  0  0  0  0  0  0  0  0  0  0
   -7.4590   10.3800   -1.7580 C   0  0  0  0  0  0  0  0  0  0  0  0
   -9.2310    9.5350   -0.1370 C   0  0  0  0  0  0  0  0  0  0  0  0
   -3.4440    8.5960   -1.3620 C   0  0  1  0  0  0  0  0  0  0  0  0
   -4.0200    9.0930   -0.0090 C   0  0  0  0  0  0  0  0  0  0  0  0
   -2.8680    9.8260    0.7250 C   0  0  0  0  0  0  0  0  0  0  0  0
   -1.7770   10.0180   -0.3550 C   0  0  1  0  0  0  0  0  0  0  0  0
   -2.2300   11.2740   -1.1640 C   0  0  0  0  0  0  0  0  0  0  0  0
   -0.3100   10.1640    0.1640 C   0  0  2  0  0  0  0  0  0  0  0  0
   -0.0520   11.3920    1.0550 C   0  0  0  0  0  0  0  0  0  0  0  0
    0.3790   12.6250    0.3330 C   0  0  0  0  0  0  0  0  0  0  0  0
    0.8260   12.6730   -0.9360 C   0  0  0  0  0  0  0  0  0  0  0  0
    1.0260   11.3880   -1.7490 C   0  0  1  0  0  0  0  0  0  0  0  0
    2.4030   11.4350   -2.4610 C   0  0  0  0  0  0  0  0  0  0  0  0
    2.5820   12.6940   -3.3050 C   0  0  0  0  0  0  0  0  0  0  0  0
    2.4330   13.9490   -2.4510 C   0  0  2  0  0  0  0  0  0  0  0  0
    3.5230   14.0090   -1.5250 O   0  0  0  0  0  0  0  0  0  0  0  0
    1.0870   14.0080   -1.6760 C   0  0  0  0  0  0  0  0  0  0  0  0
   -0.0760   14.2460   -2.6710 C   0  0  0  0  0  0  0  0  0  0  0  0
    1.1240   15.2500   -0.7460 C   0  0  0  0  0  0  0  0  0  0  0  0
    0.7930   10.0260   -0.9630 C   0  0  1  0  0  0  0  0  0  0  0  0
    2.1090    9.5930   -0.2470 C   0  0  0  0  0  0  0  0  0  0  0  0
    0.4530    8.8880   -1.9960 C   0  0  0  0  0  0  0  0  0  0  0  0
   -1.0290    8.7150   -2.3770 C   0  0  0  0  0  0  0  0  0  0  0  0
   -1.9140    8.6570   -1.1280 C   0  0  2  0  0  0  0  0  0  0  0  0
   -1.4960    7.3900   -0.3060 C   0  0  0  0  0  0  0  0  0  0  0  0
   -4.1428    6.1108   -3.6253 H   0  0  0  0  0  0  0  0  0  0  0  0
   -4.8905    7.7412   -3.7223 H   0  0  0  0  0  0  0  0  0  0  0  0
   -3.1022    7.5718   -3.7223 H   0  0  0  0  0  0  0  0  0  0  0  0
   -3.4098    6.4361   -1.4175 H   0  0  0  0  0  0  0  0  0  0  0  0
   -5.5559    6.0399   -0.8701 H   0  0  0  0  0  0  0  0  0  0  0  0
   -5.5256    7.7942   -0.3572 H   0  0  0  0  0  0  0  0  0  0  0  0
   -6.2596    8.2503   -2.8134 H   0  0  0  0  0  0  0  0  0  0  0  0
   -6.7802    6.5141   -2.7726 H   0  0  0  0  0  0  0  0  0  0  0  0
   -7.7236    6.9504   -0.7611 H   0  0  0  0  0  0  0  0  0  0  0  0
   -7.0546   10.9491   -0.9079 H   0  0  0  0  0  0  0  0  0  0  0  0
   -6.6295    9.9967   -2.3705 H   0  0  0  0  0  0  0  0  0  0  0  0
   -8.0938   11.0372   -2.3705 H   0  0  0  0  0  0  0  0  0  0  0  0
   -8.7314    9.3774    0.8303 H   0  0  0  0  0  0  0  0  0  0  0  0
   -9.5621   10.5813   -0.2125 H   0  0  0  0  0  0  0  0  0  0  0  0
  -10.1026    8.8683   -0.2125 H   0  0  0  0  0  0  0  0  0  0  0  0
   -3.7156    9.2079   -2.2348 H   0  0  0  0  0  0  0  0  0  0  0  0
   -4.8575    9.7841   -0.1848 H   0  0  0  0  0  0  0  0  0  0  0  0
   -4.3995    8.2529    0.5912 H   0  0  0  0  0  0  0  0  0  0  0  0
   -3.2092   10.7985    1.1095 H   0  0  0  0  0  0  0  0  0  0  0  0
   -2.5001    9.2603    1.5937 H   0  0  0  0  0  0  0  0  0  0  0  0
   -2.5187   12.0745   -0.4670 H   0  0  0  0  0  0  0  0  0  0  0  0
   -1.4004   11.6209   -1.7975 H   0  0  0  0  0  0  0  0  0  0  0  0
   -3.0901   11.0115   -1.7975 H   0  0  0  0  0  0  0  0  0  0  0  0
   -0.2049    9.2894    0.8228 H   0  0  0  0  0  0  0  0  0  0  0  0
   -0.9827   11.6219    1.5944 H   0  0  0  0  0  0  0  0  0  0  0  0
    0.7842   11.1183    1.7152 H   0  0  0  0  0  0  0  0  0  0  0  0
    0.3270   13.5753    0.8846 H   0  0  0  0  0  0  0  0  0  0  0  0
    0.2188   11.3730   -2.4961 H   0  0  0  0  0  0  0  0  0  0  0  0
    3.1955   11.4058   -1.6987 H   0  0  0  0  0  0  0  0  0  0  0  0
    2.4596   10.5688   -3.1367 H   0  0  0  0  0  0  0  0  0  0  0  0
    3.5842   12.6840   -3.7583 H   0  0  0  0  0  0  0  0  0  0  0  0
    1.8068   12.7065   -4.0854 H   0  0  0  0  0  0  0  0  0  0  0  0
    2.4410   14.8129   -3.1319 H   0  0  0  0  0  0  0  0  0  0  0  0
    4.3420   13.8450   -2.0240 H   0  0  0  0  0  0  0  0  0  0  0  0
   -1.0040   14.4359   -2.1117 H   0  0  0  0  0  0  0  0  0  0  0  0
    0.1551   15.1155   -3.3039 H   0  0  0  0  0  0  0  0  0  0  0  0
   -0.2050   13.3556   -3.3039 H   0  0  0  0  0  0  0  0  0  0  0  0
    1.1142   14.9223    0.3040 H   0  0  0  0  0  0  0  0  0  0  0  0
    2.0397   15.8273   -0.9414 H   0  0  0  0  0  0  0  0  0  0  0  0
    0.2442   15.8807   -0.9414 H   0  0  0  0  0  0  0  0  0  0  0  0
    1.9661    9.6400    0.8427 H   0  0  0  0  0  0  0  0  0  0  0  0
    2.3639    8.5636   -0.5393 H   0  0  0  0  0  0  0  0  0  0  0  0
    2.9253   10.2699   -0.5393 H   0  0  0  0  0  0  0  0  0  0  0  0
    1.0114    9.0997   -2.9198 H   0  0  0  0  0  0  0  0  0  0  0  0
    0.7318    7.9504   -1.4928 H   0  0  0  0  0  0  0  0  0  0  0  0
   -1.3418    9.5657   -3.0003 H   0  0  0  0  0  0  0  0  0  0  0  0
   -1.1407    7.7705   -2.9297 H   0  0  0  0  0  0  0  0  0  0  0  0
   -1.5686    7.6102    0.7693 H   0  0  0  0  0  0  0  0  0  0  0  0
   -2.1659    6.5538   -0.5551 H   0  0  0  0  0  0  0  0  0  0  0  0
   -0.4600    7.1166   -0.5551 H   0  0  0  0  0  0  0  0  0  0  0  0
  1  2  1  0
  2  3  1  0
  3  4  1  0
  4  5  1  0
  5  6  1  0
  6  7  1  0
  7  8  1  0
  7  9  1  0
  2 10  1  0
 10 11  1  0
 11 12  1  0
 12 13  1  0
 13 14  1  6
 13 15  1  0
 15 16  1  0
 16 17  1  0
 17 18  2  0
 18 19  1  0
 19 20  1  0
 20 21  1  0
 21 22  1  0
 22 23  1  0
 22 24  1  0
 24 25  1  0
 24 26  1  0
 19 27  1  0
 27 28  1  1
 27 29  1  0
 29 30  1  0
 30 31  1  0
 31 32  1  1
  7  5  1  0
 31 10  1  0
 31 13  1  0
 27 15  1  0
 24 18  1  0
  1 33  1  0
  1 34  1  0
  1 35  1  0
  2 36  1  1
  3 37  1  0
  3 38  1  0
  4 39  1  0
  4 40  1  0
  5 41  1  1
  8 42  1  0
  8 43  1  0
  8 44  1  0
  9 45  1  0
  9 46  1  0
  9 47  1  0
 10 48  1  6
 11 49  1  0
 11 50  1  0
 12 51  1  0
 12 52  1  0
 14 53  1  0
 14 54  1  0
 14 55  1  0
 15 56  1  1
 16 57  1  0
 16 58  1  0
 17 59  1  0
 19 60  1  6
 20 61  1  0
 20 62  1  0
 21 63  1  0
 21 64  1  0
 22 65  1  6
 23 66  1  0
 25 67  1  0
 25 68  1  0
 25 69  1  0
 26 70  1  0
 26 71  1  0
 26 72  1  0
 28 73  1  0
 28 74  1  0
 28 75  1  0
 29 76  1  0
 29 77  1  0
 30 78  1  0
 30 79  1  0
 32 80  1  0
 32 81  1  0
 32 82  1  0
M  END
>  <meeko>  (15) 
{"is_sidechain": [false], "intermolecular_energy": 2.731, "internal_energy": -0.839}

$$$$
EPH_relaxed_0001_pdb2pqr_Repair_385_r2_0001_out
     RDKit          3D

 82 86  0  0  0  0  0  0  0  0999 V2000
   -0.2890   15.0990   -7.5740 C   0  0  0  0  0  0  0  0  0  0  0  0
    1.0930   15.0590   -6.9160 C   0  0  2  0  0  0  0  0  0  0  0  0
    2.2320   15.1340   -7.9530 C   0  0  0  0  0  0  0  0  0  0  0  0
    2.2690   16.4500   -8.7340 C   0  0  0  0  0  0  0  0  0  0  0  0
    1.8610   16.2580  -10.1630 C   0  0  2  0  0  0  0  0  0  0  0  0
    1.2070   15.0120  -10.4370 O   0  0  0  0  0  0  0  0  0  0  0  0
    2.4780   15.2150  -11.0760 C   0  0  0  0  0  0  0  0  0  0  0  0
    3.5550   14.2950  -10.5940 C   0  0  0  0  0  0  0  0  0  0  0  0
    2.3820   15.4140  -12.5570 C   0  0  0  0  0  0  0  0  0  0  0  0
    1.2340   13.7940   -6.0780 C   0  0  1  0  0  0  0  0  0  0  0  0
    2.6680   13.2020   -6.1250 C   0  0  0  0  0  0  0  0  0  0  0  0
    2.9480   12.5970   -4.7250 C   0  0  0  0  0  0  0  0  0  0  0  0
    1.5660   12.5620   -4.0320 C   0  0  1  0  0  0  0  0  0  0  0  0
    0.8710   11.2790   -4.5860 C   0  0  0  0  0  0  0  0  0  0  0  0
    1.5770   12.5830   -2.4680 C   0  0  2  0  0  0  0  0  0  0  0  0
    2.2630   11.3760   -1.8050 C   0  0  0  0  0  0  0  0  0  0  0  0
    1.3680   10.2200   -1.5030 C   0  0  0  0  0  0  0  0  0  0  0  0
    0.0220   10.2550   -1.4910 C   0  0  0  0  0  0  0  0  0  0  0  0
   -0.7330   11.5720   -1.7050 C   0  0  1  0  0  0  0  0  0  0  0  0
   -1.8520   11.7070   -0.6390 C   0  0  0  0  0  0  0  0  0  0  0  0
   -2.7820   10.4980   -0.6110 C   0  0  0  0  0  0  0  0  0  0  0  0
   -2.0020    9.2150   -0.3380 C   0  0  2  0  0  0  0  0  0  0  0  0
   -1.4800    9.2670    0.9940 O   0  0  0  0  0  0  0  0  0  0  0  0
   -0.8420    8.9780   -1.3450 C   0  0  0  0  0  0  0  0  0  0  0  0
   -1.4230    8.6220   -2.7350 C   0  0  0  0  0  0  0  0  0  0  0  0
   -0.0490    7.7290   -0.8740 C   0  0  0  0  0  0  0  0  0  0  0  0
    0.1660   12.8780   -1.8140 C   0  0  1  0  0  0  0  0  0  0  0  0
    0.4470   13.4510   -0.3920 C   0  0  0  0  0  0  0  0  0  0  0  0
   -0.6330   13.9900   -2.5920 C   0  0  0  0  0  0  0  0  0  0  0  0
   -0.5080   13.9900   -4.1270 C   0  0  0  0  0  0  0  0  0  0  0  0
    0.9600   13.9140   -4.5580 C   0  0  2  0  0  0  0  0  0  0  0  0
    1.6800   15.2030   -4.0330 C   0  0  0  0  0  0  0  0  0  0  0  0
   -1.0654   15.1215   -6.7951 H   0  0  0  0  0  0  0  0  0  0  0  0
   -0.3712   15.9999   -8.1998 H   0  0  0  0  0  0  0  0  0  0  0  0
   -0.4232   14.2044   -8.1998 H   0  0  0  0  0  0  0  0  0  0  0  0
    1.1768   15.9444   -6.2686 H   0  0  0  0  0  0  0  0  0  0  0  0
    3.1900   15.0165   -7.4254 H   0  0  0  0  0  0  0  0  0  0  0  0
    2.0537   14.3318   -8.6842 H   0  0  0  0  0  0  0  0  0  0  0  0
    1.5810   17.1654   -8.2599 H   0  0  0  0  0  0  0  0  0  0  0  0
    3.3019   16.8281   -8.7201 H   0  0  0  0  0  0  0  0  0  0  0  0
    1.6926   17.3382  -10.2846 H   0  0  0  0  0  0  0  0  0  0  0  0
    3.5649   14.2865   -9.4941 H   0  0  0  0  0  0  0  0  0  0  0  0
    3.3626   13.2781  -10.9668 H   0  0  0  0  0  0  0  0  0  0  0  0
    4.5293   14.6439  -10.9668 H   0  0  0  0  0  0  0  0  0  0  0  0
    1.9128   16.3866  -12.7666 H   0  0  0  0  0  0  0  0  0  0  0  0
    3.3903   15.3910  -12.9962 H   0  0  0  0  0  0  0  0  0  0  0  0
    1.7724   14.6106  -12.9962 H   0  0  0  0  0  0  0  0  0  0  0  0
    0.4603   13.1721   -6.5520 H   0  0  0  0  0  0  0  0  0  0  0  0
    2.7296   12.4191   -6.8952 H   0  0  0  0  0  0  0  0  0  0  0  0
    3.4073   13.9770   -6.3755 H   0  0  0  0  0  0  0  0  0  0  0  0
    3.3625   11.5822   -4.8163 H   0  0  0  0  0  0  0  0  0  0  0  0
    3.6850   13.1835   -4.1568 H   0  0  0  0  0  0  0  0  0  0  0  0
    0.5324   10.6539   -3.7466 H   0  0  0  0  0  0  0  0  0  0  0  0
    0.0057   11.5672   -5.2009 H   0  0  0  0  0  0  0  0  0  0  0  0
    1.5851   10.7116   -5.2009 H   0  0  0  0  0  0  0  0  0  0  0  0
    2.2180   13.4493   -2.2473 H   0  0  0  0  0  0  0  0  0  0  0  0
    3.0572   11.0237   -2.4796 H   0  0  0  0  0  0  0  0  0  0  0  0
    2.6360   11.7337   -0.8339 H   0  0  0  0  0  0  0  0  0  0  0  0
    1.8488    9.2583   -1.2706 H   0  0  0  0  0  0  0  0  0  0  0  0
   -1.1788   11.5062   -2.7084 H   0  0  0  0  0  0  0  0  0  0  0  0
   -1.3848   11.8155    0.3509 H   0  0  0  0  0  0  0  0  0  0  0  0
   -2.4571   12.5878   -0.8997 H   0  0  0  0  0  0  0  0  0  0  0  0
   -3.5316   10.6389    0.1816 H   0  0  0  0  0  0  0  0  0  0  0  0
   -3.2712   10.4090   -1.5922 H   0  0  0  0  0  0  0  0  0  0  0  0
   -2.6993    8.3728   -0.4585 H   0  0  0  0  0  0  0  0  0  0  0  0
   -0.5250    9.4340    0.9290 H   0  0  0  0  0  0  0  0  0  0  0  0
   -2.3546    8.0512   -2.6077 H   0  0  0  0  0  0  0  0  0  0  0  0
   -1.6329    9.5468   -3.2925 H   0  0  0  0  0  0  0  0  0  0  0  0
   -0.6944    8.0151   -3.2925 H   0  0  0  0  0  0  0  0  0  0  0  0
   -0.0304    7.6996    0.2255 H   0  0  0  0  0  0  0  0  0  0  0  0
   -0.5356    6.8198   -1.2569 H   0  0  0  0  0  0  0  0  0  0  0  0
    0.9808    7.7826   -1.2569 H   0  0  0  0  0  0  0  0  0  0  0  0
    0.0965   12.7363    0.3672 H   0  0  0  0  0  0  0  0  0  0  0  0
    1.5278   13.6151   -0.2698 H   0  0  0  0  0  0  0  0  0  0  0  0
   -0.0850   14.4060   -0.2698 H   0  0  0  0  0  0  0  0  0  0  0  0
   -1.6980   13.8688   -2.3449 H   0  0  0  0  0  0  0  0  0  0  0  0
   -0.1897   14.9430   -2.2673 H   0  0  0  0  0  0  0  0  0  0  0  0
   -1.0473   13.1209   -4.5319 H   0  0  0  0  0  0  0  0  0  0  0  0
   -0.9389   14.9252   -4.5138 H   0  0  0  0  0  0  0  0  0  0  0  0
    1.6790   15.2013   -2.9330 H   0  0  0  0  0  0  0  0  0  0  0  0
    2.7173   15.2183   -4.3987 H   0  0  0  0  0  0  0  0  0  0  0  0
    1.1491   16.0943   -4.3987 H   0  0  0  0  0  0  0  0  0  0  0  0
  1  2  1  0
  2  3  1  0
  3  4  1  0
  4  5  1  0
  5  6  1  0
  6  7  1  0
  7  8  1  0
  7  9  1  0
  2 10  1  0
 10 11  1  0
 11 12  1  0
 12 13  1  0
 13 14  1  1
 13 15  1  0
 15 16  1  0
 16 17  1  0
 17 18  2  0
 18 19  1  0
 19 20  1  0
 20 21  1  0
 21 22  1  0
 22 23  1  0
 22 24  1  0
 24 25  1  0
 24 26  1  0
 19 27  1  0
 27 28  1  1
 27 29  1  0
 29 30  1  0
 30 31  1  0
 31 32  1  1
  7  5  1  0
 31 10  1  0
 31 13  1  0
 27 15  1  0
 24 18  1  0
  1 33  1  0
  1 34  1  0
  1 35  1  0
  2 36  1  1
  3 37  1  0
  3 38  1  0
  4 39  1  0
  4 40  1  0
  5 41  1  6
  8 42  1  0
  8 43  1  0
  8 44  1  0
  9 45  1  0
  9 46  1  0
  9 47  1  0
 10 48  1  6
 11 49  1  0
 11 50  1  0
 12 51  1  0
 12 52  1  0
 14 53  1  0
 14 54  1  0
 14 55  1  0
 15 56  1  6
 16 57  1  0
 16 58  1  0
 17 59  1  0
 19 60  1  6
 20 61  1  0
 20 62  1  0
 21 63  1  0
 21 64  1  0
 22 65  1  1
 23 66  1  0
 25 67  1  0
 25 68  1  0
 25 69  1  0
 26 70  1  0
 26 71  1  0
 26 72  1  0
 28 73  1  0
 28 74  1  0
 28 75  1  0
 29 76  1  0
 29 77  1  0
 30 78  1  0
 30 79  1  0
 32 80  1  0
 32 81  1  0
 32 82  1  0
M  END
>  <meeko>  (16) 
{"is_sidechain": [false], "intermolecular_energy": 2.731, "internal_energy": -0.839}

$$$$
EPH_relaxed_0001_pdb2pqr_Repair_385_r2_0001_out
     RDKit          3D

 82 86  0  0  0  0  0  0  0  0999 V2000
   -0.2920   18.8380   -2.6840 C   0  0  0  0  0  0  0  0  0  0  0  0
    0.5430   18.3650   -1.4900 C   0  0  2  0  0  0  0  0  0  0  0  0
    1.7150   19.3190   -1.1870 C   0  0  0  0  0  0  0  0  0  0  0  0
    1.9390   19.5640    0.3080 C   0  0  0  0  0  0  0  0  0  0  0  0
    3.3890   19.4720    0.6750 C   0  0  2  0  0  0  0  0  0  0  0  0
    3.7060   18.4280    1.6050 O   0  0  0  0  0  0  0  0  0  0  0  0
    3.9220   19.7730    2.0630 C   0  0  0  0  0  0  0  0  0  0  0  0
    3.0110   20.1910    3.1750 C   0  0  0  0  0  0  0  0  0  0  0  0
    5.3670   20.1340    2.2120 C   0  0  0  0  0  0  0  0  0  0  0  0
    1.0690   16.9580   -1.7490 C   0  0  1  0  0  0  0  0  0  0  0  0
    2.6100   16.9200   -1.9250 C   0  0  0  0  0  0  0  0  0  0  0  0
    3.0980   15.5830   -1.3100 C   0  0  0  0  0  0  0  0  0  0  0  0
    1.8080   14.7560   -1.1020 C   0  0  1  0  0  0  0  0  0  0  0  0
    1.4960   14.1420   -2.5030 C   0  0  0  0  0  0  0  0  0  0  0  0
    1.8630   13.6580    0.0090 C   0  0  2  0  0  0  0  0  0  0  0  0
    2.8890   12.5360   -0.2310 C   0  0  0  0  0  0  0  0  0  0  0  0
    2.3760   11.3520   -0.9810 C   0  0  0  0  0  0  0  0  0  0  0  0
    1.0790   11.0650   -1.1970 C   0  0  0  0  0  0  0  0  0  0  0  0
   -0.0320   11.9240   -0.5780 C   0  0  1  0  0  0  0  0  0  0  0  0
   -1.1060   11.0020    0.0560 C   0  0  0  0  0  0  0  0  0  0  0  0
   -1.6470    9.9700   -0.9290 C   0  0  0  0  0  0  0  0  0  0  0  0
   -0.5210    9.0980   -1.4780 C   0  0  2  0  0  0  0  0  0  0  0  0
    0.0050    8.3010   -0.4130 O   0  0  0  0  0  0  0  0  0  0  0  0
    0.6250    9.9180   -2.1330 C   0  0  0  0  0  0  0  0  0  0  0  0
    0.1260   10.5420   -3.4600 C   0  0  0  0  0  0  0  0  0  0  0  0
    1.7590    8.9300   -2.5180 C   0  0  0  0  0  0  0  0  0  0  0  0
    0.4490   13.0710    0.4110 C   0  0  1  0  0  0  0  0  0  0  0  0
    0.5980   12.5010    1.8550 C   0  0  0  0  0  0  0  0  0  0  0  0
   -0.6610   14.1850    0.4850 C   0  0  0  0  0  0  0  0  0  0  0  0
   -0.5910   15.3070   -0.5680 C   0  0  0  0  0  0  0  0  0  0  0  0
    0.8220   15.8930   -0.6510 C   0  0  2  0  0  0  0  0  0  0  0  0
    1.1550   16.5370    0.7380 C   0  0  0  0  0  0  0  0  0  0  0  0
   -1.1952   19.3496   -2.3201 H   0  0  0  0  0  0  0  0  0  0  0  0
    0.3025   19.5335   -3.2947 H   0  0  0  0  0  0  0  0  0  0  0  0
   -0.5829   17.9705   -3.2947 H   0  0  0  0  0  0  0  0  0  0  0  0
   -0.1139   18.3595   -0.6077 H   0  0  0  0  0  0  0  0  0  0  0  0
    2.6336   18.8856   -1.6093 H   0  0  0  0  0  0  0  0  0  0  0  0
    1.4634   20.2904   -1.6377 H   0  0  0  0  0  0  0  0  0  0  0  0
    1.5699   20.5682    0.5636 H   0  0  0  0  0  0  0  0  0  0  0  0
    1.3945   18.7889    0.8672 H   0  0  0  0  0  0  0  0  0  0  0  0
    3.6879   19.8263   -0.3226 H   0  0  0  0  0  0  0  0  0  0  0  0
    3.4880   19.9721    4.1417 H   0  0  0  0  0  0  0  0  0  0  0  0
    2.8123   21.2703    3.1002 H   0  0  0  0  0  0  0  0  0  0  0  0
    2.0632   19.6377    3.1002 H   0  0  0  0  0  0  0  0  0  0  0  0
    5.6208   20.1974    3.2804 H   0  0  0  0  0  0  0  0  0  0  0  0
    5.9887   19.3636    1.7325 H   0  0  0  0  0  0  0  0  0  0  0  0
    5.5534   21.1063    1.7325 H   0  0  0  0  0  0  0  0  0  0  0  0
    0.4922   16.7087   -2.6519 H   0  0  0  0  0  0  0  0  0  0  0  0
    2.8704   16.9630   -2.9929 H   0  0  0  0  0  0  0  0  0  0  0  0
    3.0853   17.7793   -1.4293 H   0  0  0  0  0  0  0  0  0  0  0  0
    3.7838   15.0666   -1.9977 H   0  0  0  0  0  0  0  0  0  0  0  0
    3.6533   15.7330   -0.3724 H   0  0  0  0  0  0  0  0  0  0  0  0
    1.0011   13.1681   -2.3745 H   0  0  0  0  0  0  0  0  0  0  0  0
    0.8328   14.8195   -3.0608 H   0  0  0  0  0  0  0  0  0  0  0  0
    2.4342   14.0058   -3.0608 H   0  0  0  0  0  0  0  0  0  0  0  0
    2.2343   14.2213    0.8778 H   0  0  0  0  0  0  0  0  0  0  0  0
    3.7297   12.9602   -0.7996 H   0  0  0  0  0  0  0  0  0  0  0  0
    3.1728   12.1654    0.7650 H   0  0  0  0  0  0  0  0  0  0  0  0
    3.1211   10.6549   -1.3920 H   0  0  0  0  0  0  0  0  0  0  0  0
   -0.4736   12.4954   -1.4077 H   0  0  0  0  0  0  0  0  0  0  0  0
   -0.6571   10.4731    0.9097 H   0  0  0  0  0  0  0  0  0  0  0  0
   -1.9476   11.6369    0.3700 H   0  0  0  0  0  0  0  0  0  0  0  0
   -2.3795    9.3306   -0.4146 H   0  0  0  0  0  0  0  0  0  0  0  0
   -2.1217   10.5001   -1.7679 H   0  0  0  0  0  0  0  0  0  0  0  0
   -0.9484    8.4679   -2.2719 H   0  0  0  0  0  0  0  0  0  0  0  0
    0.2230    8.8980    0.3220 H   0  0  0  0  0  0  0  0  0  0  0  0
   -0.5470   11.3836   -3.2392 H   0  0  0  0  0  0  0  0  0  0  0  0
    0.9868   10.9037   -4.0416 H   0  0  0  0  0  0  0  0  0  0  0  0
   -0.4161    9.7818   -4.0416 H   0  0  0  0  0  0  0  0  0  0  0  0
    2.2207    8.5277   -1.6042 H   0  0  0  0  0  0  0  0  0  0  0  0
    1.3399    8.1040   -3.1113 H   0  0  0  0  0  0  0  0  0  0  0  0
    2.5199    9.4583   -3.1113 H   0  0  0  0  0  0  0  0  0  0  0  0
    0.3902   13.2960    2.5863 H   0  0  0  0  0  0  0  0  0  0  0  0
   -0.1145   11.6753    1.9986 H   0  0  0  0  0  0  0  0  0  0  0  0
    1.6234   12.1296    1.9986 H   0  0  0  0  0  0  0  0  0  0  0  0
   -1.6373   13.6894    0.3787 H   0  0  0  0  0  0  0  0  0  0  0  0
   -0.5010   14.6866    1.4508 H   0  0  0  0  0  0  0  0  0  0  0  0
   -0.8688   14.8968   -1.5501 H   0  0  0  0  0  0  0  0  0  0  0  0
   -1.2862   16.1074   -0.2747 H   0  0  0  0  0  0  0  0  0  0  0  0
    0.8106   15.8710    1.5429 H   0  0  0  0  0  0  0  0  0  0  0  0
    2.2419   16.6835    0.8231 H   0  0  0  0  0  0  0  0  0  0  0  0
    0.6463   17.5086    0.8231 H   0  0  0  0  0  0  0  0  0  0  0  0
  1  2  1  0
  2  3  1  0
  3  4  1  0
  4  5  1  0
  5  6  1  0
  6  7  1  0
  7  8  1  0
  7  9  1  0
  2 10  1  0
 10 11  1  0
 11 12  1  0
 12 13  1  0
 13 14  1  6
 13 15  1  0
 15 16  1  0
 16 17  1  0
 17 18  2  0
 18 19  1  0
 19 20  1  0
 20 21  1  0
 21 22  1  0
 22 23  1  0
 22 24  1  0
 24 25  1  0
 24 26  1  0
 19 27  1  0
 27 28  1  1
 27 29  1  0
 29 30  1  0
 30 31  1  0
 31 32  1  1
  7  5  1  0
 31 10  1  0
 31 13  1  0
 27 15  1  0
 24 18  1  0
  1 33  1  0
  1 34  1  0
  1 35  1  0
  2 36  1  1
  3 37  1  0
  3 38  1  0
  4 39  1  0
  4 40  1  0
  5 41  1  6
  8 42  1  0
  8 43  1  0
  8 44  1  0
  9 45  1  0
  9 46  1  0
  9 47  1  0
 10 48  1  6
 11 49  1  0
 11 50  1  0
 12 51  1  0
 12 52  1  0
 14 53  1  0
 14 54  1  0
 14 55  1  0
 15 56  1  1
 16 57  1  0
 16 58  1  0
 17 59  1  0
 19 60  1  6
 20 61  1  0
 20 62  1  0
 21 63  1  0
 21 64  1  0
 22 65  1  6
 23 66  1  0
 25 67  1  0
 25 68  1  0
 25 69  1  0
 26 70  1  0
 26 71  1  0
 26 72  1  0
 28 73  1  0
 28 74  1  0
 28 75  1  0
 29 76  1  0
 29 77  1  0
 30 78  1  0
 30 79  1  0
 32 80  1  0
 32 81  1  0
 32 82  1  0
M  END
>  <meeko>  (17) 
{"is_sidechain": [false], "intermolecular_energy": 2.731, "internal_energy": -0.839}

$$$$
EPH_relaxed_0001_pdb2pqr_Repair_385_r2_0001_out
     RDKit          3D

 82 86  0  0  0  0  0  0  0  0999 V2000
    0.1640    9.4220   -2.5540 C   0  0  0  0  0  0  0  0  0  0  0  0
    1.2620   10.4230   -2.9240 C   0  0  2  0  0  0  0  0  0  0  0  0
    2.6590    9.7700   -2.9460 C   0  0  0  0  0  0  0  0  0  0  0  0
    3.6280   10.4230   -3.9350 C   0  0  0  0  0  0  0  0  0  0  0  0
    5.0000   10.5720   -3.3500 C   0  0  2  0  0  0  0  0  0  0  0  0
    5.5970   11.8610   -3.5450 O   0  0  0  0  0  0  0  0  0  0  0  0
    6.2510   10.7540   -4.1880 C   0  0  0  0  0  0  0  0  0  0  0  0
    6.1910   10.7960   -5.6820 C   0  0  0  0  0  0  0  0  0  0  0  0
    7.5750   10.4030   -3.5830 C   0  0  0  0  0  0  0  0  0  0  0  0
    1.2490   11.5930   -1.9470 C   0  0  1  0  0  0  0  0  0  0  0  0
    2.3100   11.4450   -0.8240 C   0  0  0  0  0  0  0  0  0  0  0  0
    2.8230   12.8730   -0.5030 C   0  0  0  0  0  0  0  0  0  0  0  0
    1.8170   13.8150   -1.2030 C   0  0  1  0  0  0  0  0  0  0  0  0
    0.5990   13.8970   -0.2300 C   0  0  0  0  0  0  0  0  0  0  0  0
    2.3490   15.2360   -1.5820 C   0  0  2  0  0  0  0  0  0  0  0  0
    2.7810   16.1090   -0.3920 C   0  0  0  0  0  0  0  0  0  0  0  0
    1.7100   16.9730    0.1870 C   0  0  0  0  0  0  0  0  0  0  0  0
    0.5340   17.2610   -0.4000 C   0  0  0  0  0  0  0  0  0  0  0  0
    0.2250   16.7760   -1.8230 C   0  0  1  0  0  0  0  0  0  0  0  0
   -0.3690   17.9450   -2.6510 C   0  0  0  0  0  0  0  0  0  0  0  0
   -1.5790   18.5840   -1.9770 C   0  0  0  0  0  0  0  0  0  0  0  0
   -1.2170   19.1060   -0.5890 C   0  0  2  0  0  0  0  0  0  0  0  0
   -0.2990   20.1940   -0.7300 O   0  0  0  0  0  0  0  0  0  0  0  0
   -0.6000   18.0180    0.3340 C   0  0  0  0  0  0  0  0  0  0  0  0
   -1.6900   16.9930    0.7320 C   0  0  0  0  0  0  0  0  0  0  0  0
   -0.1500   18.7070    1.6500 C   0  0  0  0  0  0  0  0  0  0  0  0
    1.4130   16.0350   -2.5760 C   0  0  1  0  0  0  0  0  0  0  0  0
    2.3180   17.0800   -3.2980 C   0  0  0  0  0  0  0  0  0  0  0  0
    0.8120   15.1150   -3.7030 C   0  0  0  0  0  0  0  0  0  0  0  0
    0.4150   13.6830   -3.2930 C   0  0  0  0  0  0  0  0  0  0  0  0
    1.5480   13.0010   -2.5210 C   0  0  2  0  0  0  0  0  0  0  0  0
    2.7800   12.8840   -3.4820 C   0  0  0  0  0  0  0  0  0  0  0  0
    0.0863    9.3511   -1.4590 H   0  0  0  0  0  0  0  0  0  0  0  0
   -0.7966    9.7616   -2.9686 H   0  0  0  0  0  0  0  0  0  0  0  0
    0.4136    8.4341   -2.9686 H   0  0  0  0  0  0  0  0  0  0  0  0
    1.0510   10.7856   -3.9409 H   0  0  0  0  0  0  0  0  0  0  0  0
    3.0917    9.8416   -1.9372 H   0  0  0  0  0  0  0  0  0  0  0  0
    2.5217    8.7281   -3.2708 H   0  0  0  0  0  0  0  0  0  0  0  0
    3.6913    9.7977   -4.8377 H   0  0  0  0  0  0  0  0  0  0  0  0
    3.2473   11.4263   -4.1766 H   0  0  0  0  0  0  0  0  0  0  0  0
    4.7536    9.8766   -2.5341 H   0  0  0  0  0  0  0  0  0  0  0  0
    5.3277   11.4003   -5.9974 H   0  0  0  0  0  0  0  0  0  0  0  0
    7.1156   11.2451   -6.0736 H   0  0  0  0  0  0  0  0  0  0  0  0
    6.0855    9.7735   -6.0736 H   0  0  0  0  0  0  0  0  0  0  0  0
    7.4942   10.4244   -2.4862 H   0  0  0  0  0  0  0  0  0  0  0  0
    7.8716    9.3952   -3.9092 H   0  0  0  0  0  0  0  0  0  0  0  0
    8.3319   11.1315   -3.9092 H   0  0  0  0  0  0  0  0  0  0  0  0
    0.2042   11.5391   -1.6073 H   0  0  0  0  0  0  0  0  0  0  0  0
    1.8544   10.9960    0.0709 H   0  0  0  0  0  0  0  0  0  0  0  0
    3.1349   10.7912   -1.1434 H   0  0  0  0  0  0  0  0  0  0  0  0
    2.8287   13.0487    0.5829 H   0  0  0  0  0  0  0  0  0  0  0  0
    3.8548   13.0332   -0.8489 H   0  0  0  0  0  0  0  0  0  0  0  0
    0.9579   13.8728    0.8095 H   0  0  0  0  0  0  0  0  0  0  0  0
    0.0508   14.8341   -0.4070 H   0  0  0  0  0  0  0  0  0  0  0  0
   -0.0699   13.0419   -0.4070 H   0  0  0  0  0  0  0  0  0  0  0  0
    3.2726   15.0031   -2.1323 H   0  0  0  0  0  0  0  0  0  0  0  0
    3.1472   15.4428    0.4030 H   0  0  0  0  0  0  0  0  0  0  0  0
    3.5484   16.7947   -0.7804 H   0  0  0  0  0  0  0  0  0  0  0  0
    1.8983   17.4116    1.1780 H   0  0  0  0  0  0  0  0  0  0  0  0
   -0.5235   15.9770   -1.7166 H   0  0  0  0  0  0  0  0  0  0  0  0
    0.4072   18.7131   -2.7837 H   0  0  0  0  0  0  0  0  0  0  0  0
   -0.7022   17.5350   -3.6158 H   0  0  0  0  0  0  0  0  0  0  0  0
   -1.9351   19.4214   -2.5951 H   0  0  0  0  0  0  0  0  0  0  0  0
   -2.3656   17.8223   -1.8718 H   0  0  0  0  0  0  0  0  0  0  0  0
   -2.1500   19.4335   -0.1070 H   0  0  0  0  0  0  0  0  0  0  0  0
   -0.8140   20.9850   -0.9640 H   0  0  0  0  0  0  0  0  0  0  0  0
   -1.7539   16.9329    1.8285 H   0  0  0  0  0  0  0  0  0  0  0  0
   -2.6605   17.3132    0.3251 H   0  0  0  0  0  0  0  0  0  0  0  0
   -1.4300   16.0046    0.3251 H   0  0  0  0  0  0  0  0  0  0  0  0
   -0.5245   18.1336    2.5107 H   0  0  0  0  0  0  0  0  0  0  0  0
    0.9487   18.7467    1.6860 H   0  0  0  0  0  0  0  0  0  0  0  0
   -0.5552   19.7290    1.6860 H   0  0  0  0  0  0  0  0  0  0  0  0
    2.8451   17.6886   -2.5485 H   0  0  0  0  0  0  0  0  0  0  0  0
    3.0525   16.5562   -3.9274 H   0  0  0  0  0  0  0  0  0  0  0  0
    1.6947   17.7322   -3.9274 H   0  0  0  0  0  0  0  0  0  0  0  0
   -0.0890   15.6115   -4.0926 H   0  0  0  0  0  0  0  0  0  0  0  0
    1.6229   14.9903   -4.4357 H   0  0  0  0  0  0  0  0  0  0  0  0
   -0.4802   13.7262   -2.6552 H   0  0  0  0  0  0  0  0  0  0  0  0
    0.2105   13.1009   -4.2037 H   0  0  0  0  0  0  0  0  0  0  0  0
    3.7015   12.7965   -2.8878 H   0  0  0  0  0  0  0  0  0  0  0  0
    2.6668   11.9926   -4.1165 H   0  0  0  0  0  0  0  0  0  0  0  0
    2.8366   13.7808   -4.1165 H   0  0  0  0  0  0  0  0  0  0  0  0
  1  2  1  0
  2  3  1  0
  3  4  1  0
  4  5  1  0
  5  6  1  0
  6  7  1  0
  7  8  1  0
  7  9  1  0
  2 10  1  0
 10 11  1  0
 11 12  1  0
 12 13  1  0
 13 14  1  1
 13 15  1  0
 15 16  1  0
 16 17  1  0
 17 18  2  0
 18 19  1  0
 19 20  1  0
 20 21  1  0
 21 22  1  0
 22 23  1  0
 22 24  1  0
 24 25  1  0
 24 26  1  0
 19 27  1  0
 27 28  1  6
 27 29  1  0
 29 30  1  0
 30 31  1  0
 31 32  1  6
  7  5  1  0
 31 10  1  0
 31 13  1  0
 27 15  1  0
 24 18  1  0
  1 33  1  0
  1 34  1  0
  1 35  1  0
  2 36  1  6
  3 37  1  0
  3 38  1  0
  4 39  1  0
  4 40  1  0
  5 41  1  1
  8 42  1  0
  8 43  1  0
  8 44  1  0
  9 45  1  0
  9 46  1  0
  9 47  1  0
 10 48  1  1
 11 49  1  0
 11 50  1  0
 12 51  1  0
 12 52  1  0
 14 53  1  0
 14 54  1  0
 14 55  1  0
 15 56  1  6
 16 57  1  0
 16 58  1  0
 17 59  1  0
 19 60  1  1
 20 61  1  0
 20 62  1  0
 21 63  1  0
 21 64  1  0
 22 65  1  1
 23 66  1  0
 25 67  1  0
 25 68  1  0
 25 69  1  0
 26 70  1  0
 26 71  1  0
 26 72  1  0
 28 73  1  0
 28 74  1  0
 28 75  1  0
 29 76  1  0
 29 77  1  0
 30 78  1  0
 30 79  1  0
 32 80  1  0
 32 81  1  0
 32 82  1  0
M  END
>  <meeko>  (18) 
{"is_sidechain": [false], "intermolecular_energy": 2.731, "internal_energy": -0.839}

$$$$
