EPH_relaxed_0001_pdb2pqr_Repair_357_r2_0001_out
     RDKit          3D

 82 86  0  0  0  0  0  0  0  0999 V2000
   -4.8890   11.2660    0.1190 C   0  0  0  0  0  0  0  0  0  0  0  0
   -3.5360   10.6860   -0.3030 C   0  0  2  0  0  0  0  0  0  0  0  0
   -3.2890    9.2890    0.3030 C   0  0  0  0  0  0  0  0  0  0  0  0
   -3.6290    8.1380   -0.6470 C   0  0  0  0  0  0  0  0  0  0  0  0
   -5.1100    7.9650   -0.8020 C   0  0  2  0  0  0  0  0  0  0  0  0
   -5.5760    6.6200   -0.6350 O   0  0  0  0  0  0  0  0  0  0  0  0
   -5.7480    7.1930   -1.9410 C   0  0  0  0  0  0  0  0  0  0  0  0
   -4.9180    6.5440   -3.0040 C   0  0  0  0  0  0  0  0  0  0  0  0
   -7.1740    7.4810   -2.2910 C   0  0  0  0  0  0  0  0  0  0  0  0
   -2.4140   11.6350    0.1020 C   0  0  1  0  0  0  0  0  0  0  0  0
   -1.5860   11.1030    1.3020 C   0  0  0  0  0  0  0  0  0  0  0  0
   -0.1210   11.5560    1.0700 C   0  0  0  0  0  0  0  0  0  0  0  0
   -0.2110   12.6010   -0.0650 C   0  0  1  0  0  0  0  0  0  0  0  0
   -0.6410   13.9250    0.6420 C   0  0  0  0  0  0  0  0  0  0  0  0
    1.0790   12.7990   -0.9260 C   0  0  2  0  0  0  0  0  0  0  0  0
    2.3050   13.3160   -0.1550 C   0  0  0  0  0  0  0  0  0  0  0  0
    2.4490   14.8020   -0.1070 C   0  0  0  0  0  0  0  0  0  0  0  0
    1.7940   15.6760   -0.8930 C   0  0  0  0  0  0  0  0  0  0  0  0
    0.8730   15.1880   -2.0190 C   0  0  1  0  0  0  0  0  0  0  0  0
    1.1710   15.9860   -3.3150 C   0  0  0  0  0  0  0  0  0  0  0  0
    1.0860   17.4950   -3.1050 C   0  0  0  0  0  0  0  0  0  0  0  0
    2.0580   17.9500   -2.0200 C   0  0  2  0  0  0  0  0  0  0  0  0
    3.3960   17.7510   -2.4860 O   0  0  0  0  0  0  0  0  0  0  0  0
    1.8590   17.2070   -0.6690 C   0  0  0  0  0  0  0  0  0  0  0  0
    0.5300   17.6600   -0.0160 C   0  0  0  0  0  0  0  0  0  0  0  0
    2.9910   17.6570    0.2940 C   0  0  0  0  0  0  0  0  0  0  0  0
    0.8480   13.6170   -2.2610 C   0  0  1  0  0  0  0  0  0  0  0  0
    1.9950   13.2110   -3.2360 C   0  0  0  0  0  0  0  0  0  0  0  0
   -0.5000   13.2290   -2.9760 C   0  0  0  0  0  0  0  0  0  0  0  0
   -1.7070   12.9290   -2.0660 C   0  0  0  0  0  0  0  0  0  0  0  0
   -1.3270   11.9440   -0.9570 C   0  0  2  0  0  0  0  0  0  0  0  0
   -0.9110   10.5950   -1.6370 C   0  0  0  0  0  0  0  0  0  0  0  0
   -4.9503   11.2923    1.2170 H   0  0  0  0  0  0  0  0  0  0  0  0
   -4.9904   12.2867   -0.2784 H   0  0  0  0  0  0  0  0  0  0  0  0
   -5.6982   10.6357   -0.2784 H   0  0  0  0  0  0  0  0  0  0  0  0
   -3.5508   10.5738   -1.3972 H   0  0  0  0  0  0  0  0  0  0  0  0
   -2.2262    9.2117    0.5760 H   0  0  0  0  0  0  0  0  0  0  0  0
   -3.9538    9.1941    1.1743 H   0  0  0  0  0  0  0  0  0  0  0  0
   -3.1897    8.3484   -1.6333 H   0  0  0  0  0  0  0  0  0  0  0  0
   -3.2184    7.2103   -0.2219 H   0  0  0  0  0  0  0  0  0  0  0  0
   -5.2931    8.9725   -0.4003 H   0  0  0  0  0  0  0  0  0  0  0  0
   -4.1344    5.9313   -2.5343 H   0  0  0  0  0  0  0  0  0  0  0  0
   -5.5580    5.9043   -3.6295 H   0  0  0  0  0  0  0  0  0  0  0  0
   -4.4516    7.3194   -3.6295 H   0  0  0  0  0  0  0  0  0  0  0  0
   -7.7612    7.5996   -1.3684 H   0  0  0  0  0  0  0  0  0  0  0  0
   -7.2267    8.4079   -2.8809 H   0  0  0  0  0  0  0  0  0  0  0  0
   -7.5824    6.6472   -2.8809 H   0  0  0  0  0  0  0  0  0  0  0  0
   -3.0039   12.5398    0.3103 H   0  0  0  0  0  0  0  0  0  0  0  0
   -1.9686   11.5250    2.2431 H   0  0  0  0  0  0  0  0  0  0  0  0
   -1.6541   10.0075    1.3744 H   0  0  0  0  0  0  0  0  0  0  0  0
    0.2946   12.0085    1.9824 H   0  0  0  0  0  0  0  0  0  0  0  0
    0.5396   10.7153    0.8115 H   0  0  0  0  0  0  0  0  0  0  0  0
   -0.5969   13.7893    1.7327 H   0  0  0  0  0  0  0  0  0  0  0  0
    0.0397   14.7367    0.3457 H   0  0  0  0  0  0  0  0  0  0  0  0
   -1.6687   14.1818    0.3457 H   0  0  0  0  0  0  0  0  0  0  0  0
    1.3255   11.7686   -1.2218 H   0  0  0  0  0  0  0  0  0  0  0  0
    2.2362   12.9477    0.8792 H   0  0  0  0  0  0  0  0  0  0  0  0
    3.1856   12.9425   -0.6982 H   0  0  0  0  0  0  0  0  0  0  0  0
    3.1493   15.2167    0.6330 H   0  0  0  0  0  0  0  0  0  0  0  0
   -0.1540   15.3938   -1.6831 H   0  0  0  0  0  0  0  0  0  0  0  0
    2.1851   15.7343   -3.6589 H   0  0  0  0  0  0  0  0  0  0  0  0
    0.4107   15.7090   -4.0602 H   0  0  0  0  0  0  0  0  0  0  0  0
    1.3347   18.0043   -4.0478 H   0  0  0  0  0  0  0  0  0  0  0  0
    0.0633   17.7486   -2.7891 H   0  0  0  0  0  0  0  0  0  0  0  0
    1.8600   19.0143   -1.8250 H   0  0  0  0  0  0  0  0  0  0  0  0
    3.3470   17.5030   -3.4240 H   0  0  0  0  0  0  0  0  0  0  0  0
    0.6293   17.6262    1.0790 H   0  0  0  0  0  0  0  0  0  0  0  0
    0.2981   18.6879   -0.3316 H   0  0  0  0  0  0  0  0  0  0  0  0
   -0.2814   16.9877   -0.3316 H   0  0  0  0  0  0  0  0  0  0  0  0
    2.6606   17.5257    1.3350 H   0  0  0  0  0  0  0  0  0  0  0  0
    3.8889   17.0474    0.1146 H   0  0  0  0  0  0  0  0  0  0  0  0
    3.2253   18.7167    0.1146 H   0  0  0  0  0  0  0  0  0  0  0  0
    2.8761   12.8991   -2.6560 H   0  0  0  0  0  0  0  0  0  0  0  0
    1.6594   12.3771   -3.8699 H   0  0  0  0  0  0  0  0  0  0  0  0
    2.2588   14.0704   -3.8699 H   0  0  0  0  0  0  0  0  0  0  0  0
   -0.7795   14.0640   -3.6353 H   0  0  0  0  0  0  0  0  0  0  0  0
   -0.2886   12.2828   -3.4956 H   0  0  0  0  0  0  0  0  0  0  0  0
   -2.0555   13.8673   -1.6098 H   0  0  0  0  0  0  0  0  0  0  0  0
   -2.5030   12.4785   -2.6771 H   0  0  0  0  0  0  0  0  0  0  0  0
   -0.6810    9.8493   -0.8618 H   0  0  0  0  0  0  0  0  0  0  0  0
   -1.7382   10.2297   -2.2633 H   0  0  0  0  0  0  0  0  0  0  0  0
   -0.0217   10.7590   -2.2633 H   0  0  0  0  0  0  0  0  0  0  0  0
  1  2  1  0
  2  3  1  0
  3  4  1  0
  4  5  1  0
  5  6  1  0
  6  7  1  0
  7  8  1  0
  7  9  1  0
  2 10  1  0
 10 11  1  0
 11 12  1  0
 12 13  1  0
 13 14  1  1
 13 15  1  0
 15 16  1  0
 16 17  1  0
 17 18  2  0
 18 19  1  0
 19 20  1  0
 20 21  1  0
 21 22  1  0
 22 23  1  0
 22 24  1  0
 24 25  1  0
 24 26  1  0
 19 27  1  0
 27 28  1  6
 27 29  1  0
 29 30  1  0
 30 31  1  0
 31 32  1  6
  7  5  1  0
 31 10  1  0
 31 13  1  0
 27 15  1  0
 24 18  1  0
  1 33  1  0
  1 34  1  0
  1 35  1  0
  2 36  1  6
  3 37  1  0
  3 38  1  0
  4 39  1  0
  4 40  1  0
  5 41  1  1
  8 42  1  0
  8 43  1  0
  8 44  1  0
  9 45  1  0
  9 46  1  0
  9 47  1  0
 10 48  1  1
 11 49  1  0
 11 50  1  0
 12 51  1  0
 12 52  1  0
 14 53  1  0
 14 54  1  0
 14 55  1  0
 15 56  1  6
 16 57  1  0
 16 58  1  0
 17 59  1  0
 19 60  1  1
 20 61  1  0
 20 62  1  0
 21 63  1  0
 21 64  1  0
 22 65  1  1
 23 66  1  0
 25 67  1  0
 25 68  1  0
 25 69  1  0
 26 70  1  0
 26 71  1  0
 26 72  1  0
 28 73  1  0
 28 74  1  0
 28 75  1  0
 29 76  1  0
 29 77  1  0
 30 78  1  0
 30 79  1  0
 32 80  1  0
 32 81  1  0
 32 82  1  0
M  END
>  <meeko>  (1) 
{"is_sidechain": [false], "intermolecular_energy": 2.731, "internal_energy": -0.839}

$$$$
EPH_relaxed_0001_pdb2pqr_Repair_357_r2_0001_out
     RDKit          3D

 82 86  0  0  0  0  0  0  0  0999 V2000
    2.3210   20.1940   -0.9160 C   0  0  0  0  0  0  0  0  0  0  0  0
    2.1270   19.2340    0.2610 C   0  0  2  0  0  0  0  0  0  0  0  0
    3.4680   18.7120    0.8130 C   0  0  0  0  0  0  0  0  0  0  0  0
    3.7440   19.1320    2.2590 C   0  0  0  0  0  0  0  0  0  0  0  0
    5.2140   19.2110    2.5420 C   0  0  2  0  0  0  0  0  0  0  0  0
    5.7200   18.1640    3.3810 O   0  0  0  0  0  0  0  0  0  0  0  0
    5.7870   19.4950    3.9180 C   0  0  0  0  0  0  0  0  0  0  0  0
    4.8990   19.7200    5.1020 C   0  0  0  0  0  0  0  0  0  0  0  0
    7.1790   20.0360    4.0160 C   0  0  0  0  0  0  0  0  0  0  0  0
    1.2470   18.0640   -0.1630 C   0  0  1  0  0  0  0  0  0  0  0  0
    0.2730   18.4350   -1.3130 C   0  0  0  0  0  0  0  0  0  0  0  0
    0.1320   17.1730   -2.2040 C   0  0  0  0  0  0  0  0  0  0  0  0
    0.7550   16.0320   -1.3660 C   0  0  1  0  0  0  0  0  0  0  0  0
   -0.3690   15.6080   -0.3680 C   0  0  0  0  0  0  0  0  0  0  0  0
    1.3070   14.8090   -2.1670 C   0  0  2  0  0  0  0  0  0  0  0  0
    0.2560   14.0300   -2.9770 C   0  0  0  0  0  0  0  0  0  0  0  0
   -0.4000   12.9020   -2.2520 C   0  0  0  0  0  0  0  0  0  0  0  0
    0.0390   12.3470   -1.1080 C   0  0  0  0  0  0  0  0  0  0  0  0
    1.3650   12.7900   -0.4760 C   0  0  1  0  0  0  0  0  0  0  0  0
    2.1880   11.5390   -0.0680 C   0  0  0  0  0  0  0  0  0  0  0  0
    1.4020   10.5890    0.8300 C   0  0  0  0  0  0  0  0  0  0  0  0
    0.1200   10.1250    0.1440 C   0  0  2  0  0  0  0  0  0  0  0  0
    0.4670    9.3120   -0.9810 O   0  0  0  0  0  0  0  0  0  0  0  0
   -0.7860   11.3000   -0.3200 C   0  0  0  0  0  0  0  0  0  0  0  0
   -1.4060   11.9990    0.9150 C   0  0  0  0  0  0  0  0  0  0  0  0
   -1.9740   10.7000   -1.1200 C   0  0  0  0  0  0  0  0  0  0  0  0
    2.2190   13.8350   -1.3160 C   0  0  1  0  0  0  0  0  0  0  0  0
    3.1340   13.0820   -2.3290 C   0  0  0  0  0  0  0  0  0  0  0  0
    3.1810   14.6130   -0.3430 C   0  0  0  0  0  0  0  0  0  0  0  0
    2.6150   15.8810    0.3260 C   0  0  0  0  0  0  0  0  0  0  0  0
    1.9590   16.8000   -0.7080 C   0  0  2  0  0  0  0  0  0  0  0  0
    3.0690   17.2610   -1.7130 C   0  0  0  0  0  0  0  0  0  0  0  0
    2.5254   21.2053   -0.5345 H   0  0  0  0  0  0  0  0  0  0  0  0
    3.1689   19.8553   -1.5295 H   0  0  0  0  0  0  0  0  0  0  0  0
    1.4082   20.2111   -1.5295 H   0  0  0  0  0  0  0  0  0  0  0  0
    1.6352   19.7961    1.0686 H   0  0  0  0  0  0  0  0  0  0  0  0
    3.4584   17.6130    0.7665 H   0  0  0  0  0  0  0  0  0  0  0  0
    4.2635   19.1516    0.1933 H   0  0  0  0  0  0  0  0  0  0  0  0
    3.2933   20.1198    2.4356 H   0  0  0  0  0  0  0  0  0  0  0  0
    3.3065   18.3744    2.9258 H   0  0  0  0  0  0  0  0  0  0  0  0
    5.4031   19.6615    1.5565 H   0  0  0  0  0  0  0  0  0  0  0  0
    5.4766   19.5736    6.0266 H   0  0  0  0  0  0  0  0  0  0  0  0
    4.5045   20.7465    5.0747 H   0  0  0  0  0  0  0  0  0  0  0  0
    4.0633   19.0052    5.0747 H   0  0  0  0  0  0  0  0  0  0  0  0
    7.4567   20.1439    5.0749 H   0  0  0  0  0  0  0  0  0  0  0  0
    7.8770   19.3437    3.5226 H   0  0  0  0  0  0  0  0  0  0  0  0
    7.2263   21.0180    3.5226 H   0  0  0  0  0  0  0  0  0  0  0  0
    0.7636   17.8383    0.7990 H   0  0  0  0  0  0  0  0  0  0  0  0
   -0.7068   18.7203   -0.9024 H   0  0  0  0  0  0  0  0  0  0  0  0
    0.6538   19.2881   -1.8936 H   0  0  0  0  0  0  0  0  0  0  0  0
   -0.9268   16.9646   -2.4173 H   0  0  0  0  0  0  0  0  0  0  0  0
    0.6275   17.2931   -3.1787 H   0  0  0  0  0  0  0  0  0  0  0  0
   -0.0128   15.7424    0.6640 H   0  0  0  0  0  0  0  0  0  0  0  0
   -1.2599   16.2318   -0.5326 H   0  0  0  0  0  0  0  0  0  0  0  0
   -0.6259   14.5512   -0.5326 H   0  0  0  0  0  0  0  0  0  0  0  0
    1.9597   15.2901   -2.9103 H   0  0  0  0  0  0  0  0  0  0  0  0
   -0.5279   14.7372   -3.2858 H   0  0  0  0  0  0  0  0  0  0  0  0
    0.7969   13.5761   -3.8205 H   0  0  0  0  0  0  0  0  0  0  0  0
   -1.3207   12.4896   -2.6905 H   0  0  0  0  0  0  0  0  0  0  0  0
    1.0962   13.3686    0.4201 H   0  0  0  0  0  0  0  0  0  0  0  0
    2.4838   10.9989   -0.9795 H   0  0  0  0  0  0  0  0  0  0  0  0
    3.0642   11.8862    0.4992 H   0  0  0  0  0  0  0  0  0  0  0  0
    2.0253    9.7121    1.0592 H   0  0  0  0  0  0  0  0  0  0  0  0
    1.1326   11.1217    1.7539 H   0  0  0  0  0  0  0  0  0  0  0  0
   -0.4610    9.5534    0.8827 H   0  0  0  0  0  0  0  0  0  0  0  0
    1.4340    9.3430   -1.0790 H   0  0  0  0  0  0  0  0  0  0  0  0
   -1.0040   11.5458    1.8331 H   0  0  0  0  0  0  0  0  0  0  0  0
   -1.1553   13.0699    0.8946 H   0  0  0  0  0  0  0  0  0  0  0  0
   -2.4991   11.8779    0.8946 H   0  0  0  0  0  0  0  0  0  0  0  0
   -2.7314   10.3175   -0.4200 H   0  0  0  0  0  0  0  0  0  0  0  0
   -2.4210   11.4805   -1.7533 H   0  0  0  0  0  0  0  0  0  0  0  0
   -1.6112    9.8771   -1.7533 H   0  0  0  0  0  0  0  0  0  0  0  0
    3.8695   12.4767   -1.7789 H   0  0  0  0  0  0  0  0  0  0  0  0
    2.5183   12.4255   -2.9614 H   0  0  0  0  0  0  0  0  0  0  0  0
    3.6598   13.8125   -2.9614 H   0  0  0  0  0  0  0  0  0  0  0  0
    3.4779   13.9188    0.4570 H   0  0  0  0  0  0  0  0  0  0  0  0
    4.0078   14.9662   -0.9768 H   0  0  0  0  0  0  0  0  0  0  0  0
    1.8643   15.5882    1.0748 H   0  0  0  0  0  0  0  0  0  0  0  0
    3.4433   16.4251    0.8034 H   0  0  0  0  0  0  0  0  0  0  0  0
    3.9432   17.6240   -1.1526 H   0  0  0  0  0  0  0  0  0  0  0  0
    3.3661   16.4119   -2.3460 H   0  0  0  0  0  0  0  0  0  0  0  0
    2.6771   18.0708   -2.3460 H   0  0  0  0  0  0  0  0  0  0  0  0
  1  2  1  0
  2  3  1  0
  3  4  1  0
  4  5  1  0
  5  6  1  0
  6  7  1  0
  7  8  1  0
  7  9  1  0
  2 10  1  0
 10 11  1  0
 11 12  1  0
 12 13  1  0
 13 14  1  1
 13 15  1  0
 15 16  1  0
 16 17  1  0
 17 18  2  0
 18 19  1  0
 19 20  1  0
 20 21  1  0
 21 22  1  0
 22 23  1  0
 22 24  1  0
 24 25  1  0
 24 26  1  0
 19 27  1  0
 27 28  1  6
 27 29  1  0
 29 30  1  0
 30 31  1  0
 31 32  1  6
  7  5  1  0
 31 10  1  0
 31 13  1  0
 27 15  1  0
 24 18  1  0
  1 33  1  0
  1 34  1  0
  1 35  1  0
  2 36  1  1
  3 37  1  0
  3 38  1  0
  4 39  1  0
  4 40  1  0
  5 41  1  6
  8 42  1  0
  8 43  1  0
  8 44  1  0
  9 45  1  0
  9 46  1  0
  9 47  1  0
 10 48  1  1
 11 49  1  0
 11 50  1  0
 12 51  1  0
 12 52  1  0
 14 53  1  0
 14 54  1  0
 14 55  1  0
 15 56  1  6
 16 57  1  0
 16 58  1  0
 17 59  1  0
 19 60  1  1
 20 61  1  0
 20 62  1  0
 21 63  1  0
 21 64  1  0
 22 65  1  1
 23 66  1  0
 25 67  1  0
 25 68  1  0
 25 69  1  0
 26 70  1  0
 26 71  1  0
 26 72  1  0
 28 73  1  0
 28 74  1  0
 28 75  1  0
 29 76  1  0
 29 77  1  0
 30 78  1  0
 30 79  1  0
 32 80  1  0
 32 81  1  0
 32 82  1  0
M  END
>  <meeko>  (2) 
{"is_sidechain": [false], "intermolecular_energy": 2.731, "internal_energy": -0.839}

$$$$
EPH_relaxed_0001_pdb2pqr_Repair_357_r2_0001_out
     RDKit          3D

 82 86  0  0  0  0  0  0  0  0999 V2000
   -1.5090    8.5620   -1.9360 C   0  0  0  0  0  0  0  0  0  0  0  0
   -1.5360    8.9810   -0.4630 C   0  0  2  0  0  0  0  0  0  0  0  0
   -2.9550    9.3610    0.0070 C   0  0  0  0  0  0  0  0  0  0  0  0
   -3.0650   10.7940    0.5330 C   0  0  0  0  0  0  0  0  0  0  0  0
   -2.3040   10.9760    1.8110 C   0  0  2  0  0  0  0  0  0  0  0  0
   -2.9460   11.8190    2.7760 O   0  0  0  0  0  0  0  0  0  0  0  0
   -1.7010   12.2990    2.2450 C   0  0  0  0  0  0  0  0  0  0  0  0
   -1.8330   13.5300    1.4030 C   0  0  0  0  0  0  0  0  0  0  0  0
   -0.5780   12.2840    3.2340 C   0  0  0  0  0  0  0  0  0  0  0  0
   -0.5820   10.1480   -0.2370 C   0  0  1  0  0  0  0  0  0  0  0  0
    0.7030    9.7300    0.5260 C   0  0  0  0  0  0  0  0  0  0  0  0
    1.8610   10.5890   -0.0450 C   0  0  0  0  0  0  0  0  0  0  0  0
    1.1580   11.6930   -0.8690 C   0  0  1  0  0  0  0  0  0  0  0  0
    0.7170   12.7590    0.1820 C   0  0  0  0  0  0  0  0  0  0  0  0
    1.9960   12.3320   -2.0230 C   0  0  2  0  0  0  0  0  0  0  0  0
    3.2670   13.0740   -1.5730 C   0  0  0  0  0  0  0  0  0  0  0  0
    3.0870   14.5260   -1.2780 C   0  0  0  0  0  0  0  0  0  0  0  0
    2.0270   15.2720   -1.6390 C   0  0  0  0  0  0  0  0  0  0  0  0
    0.9070   14.6820   -2.5060 C   0  0  1  0  0  0  0  0  0  0  0  0
    0.5580   15.6740   -3.6470 C   0  0  0  0  0  0  0  0  0  0  0  0
    0.2200   17.0680   -3.1270 C   0  0  0  0  0  0  0  0  0  0  0  0
    1.3790   17.6440   -2.3190 C   0  0  2  0  0  0  0  0  0  0  0  0
    2.4850   17.8740   -3.1980 O   0  0  0  0  0  0  0  0  0  0  0  0
    1.8260   16.7270   -1.1470 C   0  0  0  0  0  0  0  0  0  0  0  0
    0.7360   16.7210   -0.0460 C   0  0  0  0  0  0  0  0  0  0  0  0
    3.0900   17.3560   -0.5020 C   0  0  0  0  0  0  0  0  0  0  0  0
    1.1470   13.2030   -3.0360 C   0  0  1  0  0  0  0  0  0  0  0  0
    1.9490   13.2400   -4.3730 C   0  0  0  0  0  0  0  0  0  0  0  0
   -0.2440   12.5450   -3.3700 C   0  0  0  0  0  0  0  0  0  0  0  0
   -0.9670   11.8240   -2.2170 C   0  0  0  0  0  0  0  0  0  0  0  0
   -0.0210   10.8610   -1.4930 C   0  0  2  0  0  0  0  0  0  0  0  0
    0.4220    9.7640   -2.5200 C   0  0  0  0  0  0  0  0  0  0  0  0
   -1.4384    7.4664   -2.0043 H   0  0  0  0  0  0  0  0  0  0  0  0
   -2.4309    8.9016   -2.4308 H   0  0  0  0  0  0  0  0  0  0  0  0
   -0.6383    9.0171   -2.4308 H   0  0  0  0  0  0  0  0  0  0  0  0
   -1.2119    8.1153    0.1333 H   0  0  0  0  0  0  0  0  0  0  0  0
   -3.6441    9.2491   -0.8431 H   0  0  0  0  0  0  0  0  0  0  0  0
   -3.2074    8.6913    0.8424 H   0  0  0  0  0  0  0  0  0  0  0  0
   -2.6613   11.4832   -0.2233 H   0  0  0  0  0  0  0  0  0  0  0  0
   -4.1259   11.0051    0.7330 H   0  0  0  0  0  0  0  0  0  0  0  0
   -1.8817    9.9635    1.7304 H   0  0  0  0  0  0  0  0  0  0  0  0
   -1.9275   14.4114    2.0544 H   0  0  0  0  0  0  0  0  0  0  0  0
   -0.9412   13.6373    0.7680 H   0  0  0  0  0  0  0  0  0  0  0  0
   -2.7273   13.4458    0.7680 H   0  0  0  0  0  0  0  0  0  0  0  0
   -0.9882   12.2895    4.2546 H   0  0  0  0  0  0  0  0  0  0  0  0
    0.0278   11.3777    3.0872 H   0  0  0  0  0  0  0  0  0  0  0  0
    0.0518   13.1738    3.0872 H   0  0  0  0  0  0  0  0  0  0  0  0
   -1.2485   10.8271    0.3149 H   0  0  0  0  0  0  0  0  0  0  0  0
    0.5839    9.9221    1.6025 H   0  0  0  0  0  0  0  0  0  0  0  0
    0.9070    8.6566    0.3983 H   0  0  0  0  0  0  0  0  0  0  0  0
    2.4548   11.0306    0.7689 H   0  0  0  0  0  0  0  0  0  0  0  0
    2.5600    9.9958   -0.6530 H   0  0  0  0  0  0  0  0  0  0  0  0
    0.8804   12.3641    1.1956 H   0  0  0  0  0  0  0  0  0  0  0  0
    1.3098   13.6755    0.0456 H   0  0  0  0  0  0  0  0  0  0  0  0
   -0.3500   12.9888    0.0456 H   0  0  0  0  0  0  0  0  0  0  0  0
    2.3457   11.4483   -2.5770 H   0  0  0  0  0  0  0  0  0  0  0  0
    3.6407   12.5857   -0.6609 H   0  0  0  0  0  0  0  0  0  0  0  0
    3.9668   13.0201   -2.4200 H   0  0  0  0  0  0  0  0  0  0  0  0
    3.8891   15.0290   -0.7179 H   0  0  0  0  0  0  0  0  0  0  0  0
    0.0400   14.5588   -1.8403 H   0  0  0  0  0  0  0  0  0  0  0  0
    1.4212   15.7501   -4.3245 H   0  0  0  0  0  0  0  0  0  0  0  0
   -0.3310   15.2865   -4.1661 H   0  0  0  0  0  0  0  0  0  0  0  0
    0.0120   17.7300   -3.9805 H   0  0  0  0  0  0  0  0  0  0  0  0
   -0.6617   16.9949   -2.4734 H   0  0  0  0  0  0  0  0  0  0  0  0
    1.0290   18.5832   -1.8658 H   0  0  0  0  0  0  0  0  0  0  0  0
    2.4570   17.1910   -3.8900 H   0  0  0  0  0  0  0  0  0  0  0  0
    1.2150   16.7236    0.9442 H   0  0  0  0  0  0  0  0  0  0  0  0
    0.1046   17.6157   -0.1503 H   0  0  0  0  0  0  0  0  0  0  0  0
    0.1145   15.8194   -0.1503 H   0  0  0  0  0  0  0  0  0  0  0  0
    3.0028   17.3126    0.5937 H   0  0  0  0  0  0  0  0  0  0  0  0
    3.9816   16.7965   -0.8213 H   0  0  0  0  0  0  0  0  0  0  0  0
    3.1814   18.4047   -0.8213 H   0  0  0  0  0  0  0  0  0  0  0  0
    3.0257   13.2897   -4.1534 H   0  0  0  0  0  0  0  0  0  0  0  0
    1.7349   12.3310   -4.9543 H   0  0  0  0  0  0  0  0  0  0  0  0
    1.6521   14.1254   -4.9543 H   0  0  0  0  0  0  0  0  0  0  0  0
   -0.9099   13.3414   -3.7338 H   0  0  0  0  0  0  0  0  0  0  0  0
   -0.0205   11.7583   -4.1057 H   0  0  0  0  0  0  0  0  0  0  0  0
   -1.3364   12.5722   -1.5003 H   0  0  0  0  0  0  0  0  0  0  0  0
   -1.8037   11.2452   -2.6353 H   0  0  0  0  0  0  0  0  0  0  0  0
    0.7803    8.8769   -1.9772 H   0  0  0  0  0  0  0  0  0  0  0  0
   -0.4344    9.4861   -3.1520 H   0  0  0  0  0  0  0  0  0  0  0  0
    1.2312   10.1588   -3.1520 H   0  0  0  0  0  0  0  0  0  0  0  0
  1  2  1  0
  2  3  1  0
  3  4  1  0
  4  5  1  0
  5  6  1  0
  6  7  1  0
  7  8  1  0
  7  9  1  0
  2 10  1  0
 10 11  1  0
 11 12  1  0
 12 13  1  0
 13 14  1  1
 13 15  1  0
 15 16  1  0
 16 17  1  0
 17 18  2  0
 18 19  1  0
 19 20  1  0
 20 21  1  0
 21 22  1  0
 22 23  1  0
 22 24  1  0
 24 25  1  0
 24 26  1  0
 19 27  1  0
 27 28  1  6
 27 29  1  0
 29 30  1  0
 30 31  1  0
 31 32  1  6
  7  5  1  0
 31 10  1  0
 31 13  1  0
 27 15  1  0
 24 18  1  0
  1 33  1  0
  1 34  1  0
  1 35  1  0
  2 36  1  1
  3 37  1  0
  3 38  1  0
  4 39  1  0
  4 40  1  0
  5 41  1  1
  8 42  1  0
  8 43  1  0
  8 44  1  0
  9 45  1  0
  9 46  1  0
  9 47  1  0
 10 48  1  1
 11 49  1  0
 11 50  1  0
 12 51  1  0
 12 52  1  0
 14 53  1  0
 14 54  1  0
 14 55  1  0
 15 56  1  6
 16 57  1  0
 16 58  1  0
 17 59  1  0
 19 60  1  1
 20 61  1  0
 20 62  1  0
 21 63  1  0
 21 64  1  0
 22 65  1  1
 23 66  1  0
 25 67  1  0
 25 68  1  0
 25 69  1  0
 26 70  1  0
 26 71  1  0
 26 72  1  0
 28 73  1  0
 28 74  1  0
 28 75  1  0
 29 76  1  0
 29 77  1  0
 30 78  1  0
 30 79  1  0
 32 80  1  0
 32 81  1  0
 32 82  1  0
M  END
>  <meeko>  (3) 
{"is_sidechain": [false], "intermolecular_energy": 2.731, "internal_energy": -0.839}

$$$$
EPH_relaxed_0001_pdb2pqr_Repair_357_r2_0001_out
     RDKit          3D

 82 86  0  0  0  0  0  0  0  0999 V2000
    3.8240   18.1540    0.4630 C   0  0  0  0  0  0  0  0  0  0  0  0
    2.7390   18.7340   -0.4490 C   0  0  2  0  0  0  0  0  0  0  0  0
    2.0670   19.9770    0.1670 C   0  0  0  0  0  0  0  0  0  0  0  0
    0.8730   19.6490    1.0670 C   0  0  0  0  0  0  0  0  0  0  0  0
   -0.4080   20.1940    0.5110 C   0  0  2  0  0  0  0  0  0  0  0  0
   -1.5070   20.1940    1.4310 O   0  0  0  0  0  0  0  0  0  0  0  0
   -1.6450   19.3490    0.2780 C   0  0  0  0  0  0  0  0  0  0  0  0
   -1.6620   17.8860    0.5940 C   0  0  0  0  0  0  0  0  0  0  0  0
   -2.6660   19.8310   -0.7050 C   0  0  0  0  0  0  0  0  0  0  0  0
    1.6910   17.6700   -0.7500 C   0  0  1  0  0  0  0  0  0  0  0  0
    0.7830   18.0480   -1.9510 C   0  0  0  0  0  0  0  0  0  0  0  0
    0.4490   16.7280   -2.6920 C   0  0  0  0  0  0  0  0  0  0  0  0
    0.8920   15.6110   -1.7180 C   0  0  1  0  0  0  0  0  0  0  0  0
   -0.2820   15.4810   -0.6970 C   0  0  0  0  0  0  0  0  0  0  0  0
    1.2500   14.2330   -2.3640 C   0  0  2  0  0  0  0  0  0  0  0  0
    0.0900   13.5340   -3.0960 C   0  0  0  0  0  0  0  0  0  0  0  0
   -0.7300   12.6110   -2.2570 C   0  0  0  0  0  0  0  0  0  0  0  0
   -0.3790   12.1320   -1.0490 C   0  0  0  0  0  0  0  0  0  0  0  0
    1.0000   12.4390   -0.4500 C   0  0  1  0  0  0  0  0  0  0  0  0
    1.6230   11.1340    0.1120 C   0  0  0  0  0  0  0  0  0  0  0  0
    0.7020   10.4250    1.1010 C   0  0  0  0  0  0  0  0  0  0  0  0
   -0.6370   10.0850    0.4520 C   0  0  2  0  0  0  0  0  0  0  0  0
   -0.4200    9.1030   -0.5660 O   0  0  0  0  0  0  0  0  0  0  0  0
   -1.3530   11.3220   -0.1590 C   0  0  0  0  0  0  0  0  0  0  0  0
   -1.8570   12.2460    0.9770 C   0  0  0  0  0  0  0  0  0  0  0  0
   -2.6200   10.8200   -0.9040 C   0  0  0  0  0  0  0  0  0  0  0  0
    2.0020   13.2370   -1.3910 C   0  0  1  0  0  0  0  0  0  0  0  0
    2.7900   12.2410   -2.2960 C   0  0  0  0  0  0  0  0  0  0  0  0
    3.0740   13.9680   -0.4980 C   0  0  0  0  0  0  0  0  0  0  0  0
    2.7100   15.3760    0.0100 C   0  0  0  0  0  0  0  0  0  0  0  0
    2.2000   16.2580   -1.1340 C   0  0  2  0  0  0  0  0  0  0  0  0
    3.3660   16.4240   -2.1660 C   0  0  0  0  0  0  0  0  0  0  0  0
    3.5391   18.3063    1.5145 H   0  0  0  0  0  0  0  0  0  0  0  0
    3.9327   17.0775    0.2648 H   0  0  0  0  0  0  0  0  0  0  0  0
    4.7795   18.6616    0.2648 H   0  0  0  0  0  0  0  0  0  0  0  0
    3.2255   19.0511   -1.3832 H   0  0  0  0  0  0  0  0  0  0  0  0
    2.8159   20.5155    0.7663 H   0  0  0  0  0  0  0  0  0  0  0  0
    1.6835   20.5819   -0.6679 H   0  0  0  0  0  0  0  0  0  0  0  0
    0.7853   18.5563    1.1585 H   0  0  0  0  0  0  0  0  0  0  0  0
    1.0459   20.1147    2.0485 H   0  0  0  0  0  0  0  0  0  0  0  0
    0.1426   20.8903   -0.1386 H   0  0  0  0  0  0  0  0  0  0  0  0
   -1.6636   17.7466    1.6851 H   0  0  0  0  0  0  0  0  0  0  0  0
   -2.5655   17.4286    0.1645 H   0  0  0  0  0  0  0  0  0  0  0  0
   -0.7694   17.4077    0.1645 H   0  0  0  0  0  0  0  0  0  0  0  0
   -3.5319   20.2398   -0.1636 H   0  0  0  0  0  0  0  0  0  0  0  0
   -2.2247   20.6159   -1.3369 H   0  0  0  0  0  0  0  0  0  0  0  0
   -2.9916   18.9915   -1.3369 H   0  0  0  0  0  0  0  0  0  0  0  0
    1.1809   17.6339    0.2239 H   0  0  0  0  0  0  0  0  0  0  0  0
   -0.1409   18.5251   -1.5920 H   0  0  0  0  0  0  0  0  0  0  0  0
    1.2890   18.7594   -2.6202 H   0  0  0  0  0  0  0  0  0  0  0  0
   -0.6297   16.6597   -2.8965 H   0  0  0  0  0  0  0  0  0  0  0  0
    0.9549   16.6569   -3.6662 H   0  0  0  0  0  0  0  0  0  0  0  0
    0.1164   15.5251    0.3274 H   0  0  0  0  0  0  0  0  0  0  0  0
   -0.9936   16.3058   -0.8495 H   0  0  0  0  0  0  0  0  0  0  0  0
   -0.7959   14.5205   -0.8495 H   0  0  0  0  0  0  0  0  0  0  0  0
    1.9683   14.5191   -3.1464 H   0  0  0  0  0  0  0  0  0  0  0  0
   -0.5768   14.3117   -3.4967 H   0  0  0  0  0  0  0  0  0  0  0  0
    0.5537   12.9080   -3.8726 H   0  0  0  0  0  0  0  0  0  0  0  0
   -1.7037   12.2955   -2.6601 H   0  0  0  0  0  0  0  0  0  0  0  0
    0.8239   13.1514    0.3694 H   0  0  0  0  0  0  0  0  0  0  0  0
    1.8313   10.4531   -0.7264 H   0  0  0  0  0  0  0  0  0  0  0  0
    2.5430   11.4075    0.6493 H   0  0  0  0  0  0  0  0  0  0  0  0
    1.1841    9.4961    1.4396 H   0  0  0  0  0  0  0  0  0  0  0  0
    0.5188   11.0960    1.9532 H   0  0  0  0  0  0  0  0  0  0  0  0
   -1.2978    9.6985    1.2419 H   0  0  0  0  0  0  0  0  0  0  0  0
    0.5390    9.0360   -0.7100 H   0  0  0  0  0  0  0  0  0  0  0  0
   -1.6120   11.7969    1.9508 H   0  0  0  0  0  0  0  0  0  0  0  0
   -1.3700   13.2288    0.8935 H   0  0  0  0  0  0  0  0  0  0  0  0
   -2.9470   12.3686    0.8935 H   0  0  0  0  0  0  0  0  0  0  0  0
   -3.3816   10.5183   -0.1699 H   0  0  0  0  0  0  0  0  0  0  0  0
   -3.0187   11.6281   -1.5349 H   0  0  0  0  0  0  0  0  0  0  0  0
   -2.3570    9.9581   -1.5349 H   0  0  0  0  0  0  0  0  0  0  0  0
    3.3487   11.5348   -1.6642 H   0  0  0  0  0  0  0  0  0  0  0  0
    2.0842   11.6855   -2.9311 H   0  0  0  0  0  0  0  0  0  0  0  0
    3.4929   12.8001   -2.9311 H   0  0  0  0  0  0  0  0  0  0  0  0
    3.2621   13.3350    0.3817 H   0  0  0  0  0  0  0  0  0  0  0  0
    3.9444   14.1145   -1.1545 H   0  0  0  0  0  0  0  0  0  0  0  0
    1.9248   15.2903    0.7756 H   0  0  0  0  0  0  0  0  0  0  0  0
    3.6129   15.8397    0.4340 H   0  0  0  0  0  0  0  0  0  0  0  0
    4.3157   16.5592   -1.6276 H   0  0  0  0  0  0  0  0  0  0  0  0
    3.4273   15.5255   -2.7977 H   0  0  0  0  0  0  0  0  0  0  0  0
    3.1741   17.3039   -2.7977 H   0  0  0  0  0  0  0  0  0  0  0  0
  1  2  1  0
  2  3  1  0
  3  4  1  0
  4  5  1  0
  5  6  1  0
  6  7  1  0
  7  8  1  0
  7  9  1  0
  2 10  1  0
 10 11  1  0
 11 12  1  0
 12 13  1  0
 13 14  1  1
 13 15  1  0
 15 16  1  0
 16 17  1  0
 17 18  2  0
 18 19  1  0
 19 20  1  0
 20 21  1  0
 21 22  1  0
 22 23  1  0
 22 24  1  0
 24 25  1  0
 24 26  1  0
 19 27  1  0
 27 28  1  6
 27 29  1  0
 29 30  1  0
 30 31  1  0
 31 32  1  6
  7  5  1  0
 31 10  1  0
 31 13  1  0
 27 15  1  0
 24 18  1  0
  1 33  1  0
  1 34  1  0
  1 35  1  0
  2 36  1  6
  3 37  1  0
  3 38  1  0
  4 39  1  0
  4 40  1  0
  5 41  1  6
  8 42  1  0
  8 43  1  0
  8 44  1  0
  9 45  1  0
  9 46  1  0
  9 47  1  0
 10 48  1  1
 11 49  1  0
 11 50  1  0
 12 51  1  0
 12 52  1  0
 14 53  1  0
 14 54  1  0
 14 55  1  0
 15 56  1  6
 16 57  1  0
 16 58  1  0
 17 59  1  0
 19 60  1  1
 20 61  1  0
 20 62  1  0
 21 63  1  0
 21 64  1  0
 22 65  1  1
 23 66  1  0
 25 67  1  0
 25 68  1  0
 25 69  1  0
 26 70  1  0
 26 71  1  0
 26 72  1  0
 28 73  1  0
 28 74  1  0
 28 75  1  0
 29 76  1  0
 29 77  1  0
 30 78  1  0
 30 79  1  0
 32 80  1  0
 32 81  1  0
 32 82  1  0
M  END
>  <meeko>  (4) 
{"is_sidechain": [false], "intermolecular_energy": 2.731, "internal_energy": -0.839}

$$$$
EPH_relaxed_0001_pdb2pqr_Repair_357_r2_0001_out
     RDKit          3D

 82 86  0  0  0  0  0  0  0  0999 V2000
    2.3900   16.6440   -0.8000 C   0  0  0  0  0  0  0  0  0  0  0  0
    2.1580   16.3240   -2.2800 C   0  0  2  0  0  0  0  0  0  0  0  0
    1.7190   17.5670   -3.0810 C   0  0  0  0  0  0  0  0  0  0  0  0
    1.4120   18.7860   -2.2060 C   0  0  0  0  0  0  0  0  0  0  0  0
   -0.0190   18.8020   -1.7610 C   0  0  2  0  0  0  0  0  0  0  0  0
   -0.5330   20.1020   -1.4450 O   0  0  0  0  0  0  0  0  0  0  0  0
   -0.4530   19.1700   -0.3550 C   0  0  0  0  0  0  0  0  0  0  0  0
    0.5430   19.5460    0.6970 C   0  0  0  0  0  0  0  0  0  0  0  0
   -1.7870   18.6940    0.1300 C   0  0  0  0  0  0  0  0  0  0  0  0
    1.1160   15.2210   -2.4170 C   0  0  1  0  0  0  0  0  0  0  0  0
    1.1550   14.5310   -3.8060 C   0  0  0  0  0  0  0  0  0  0  0  0
    0.8070   13.0380   -3.5730 C   0  0  0  0  0  0  0  0  0  0  0  0
    0.2590   12.9860   -2.1280 C   0  0  1  0  0  0  0  0  0  0  0  0
   -1.2290   13.4440   -2.2460 C   0  0  0  0  0  0  0  0  0  0  0  0
    0.3820   11.6120   -1.3910 C   0  0  2  0  0  0  0  0  0  0  0  0
   -0.3970   10.4530   -2.0370 C   0  0  0  0  0  0  0  0  0  0  0  0
   -1.7950   10.2730   -1.5450 C   0  0  0  0  0  0  0  0  0  0  0  0
   -2.3080   10.8220   -0.4290 C   0  0  0  0  0  0  0  0  0  0  0  0
   -1.4270   11.6410    0.5230 C   0  0  1  0  0  0  0  0  0  0  0  0
   -1.6900   11.1950    1.9850 C   0  0  0  0  0  0  0  0  0  0  0  0
   -3.1680   11.2560    2.3600 C   0  0  0  0  0  0  0  0  0  0  0  0
   -4.0030   10.3830    1.4270 C   0  0  2  0  0  0  0  0  0  0  0  0
   -3.6590    9.0120    1.6470 O   0  0  0  0  0  0  0  0  0  0  0  0
   -3.8140   10.7350   -0.0750 C   0  0  0  0  0  0  0  0  0  0  0  0
   -4.4630   12.1090   -0.3740 C   0  0  0  0  0  0  0  0  0  0  0  0
   -4.6010    9.6910   -0.9130 C   0  0  0  0  0  0  0  0  0  0  0  0
    0.1210   11.6870    0.1680 C   0  0  1  0  0  0  0  0  0  0  0  0
    0.8490   10.4620    0.8000 C   0  0  0  0  0  0  0  0  0  0  0  0
    0.7600   12.9690    0.8210 C   0  0  0  0  0  0  0  0  0  0  0  0
    0.7130   14.2680   -0.0070 C   0  0  0  0  0  0  0  0  0  0  0  0
    1.2120   14.0260   -1.4350 C   0  0  2  0  0  0  0  0  0  0  0  0
    2.7130   13.5850   -1.3490 C   0  0  0  0  0  0  0  0  0  0  0  0
    1.8574   15.9094   -0.1782 H   0  0  0  0  0  0  0  0  0  0  0  0
    3.4667   16.5990   -0.5795 H   0  0  0  0  0  0  0  0  0  0  0  0
    2.0124   17.6534   -0.5795 H   0  0  0  0  0  0  0  0  0  0  0  0
    3.1164   15.9830   -2.6986 H   0  0  0  0  0  0  0  0  0  0  0  0
    2.5270   17.8343   -3.7779 H   0  0  0  0  0  0  0  0  0  0  0  0
    0.7869   17.3016   -3.6013 H   0  0  0  0  0  0  0  0  0  0  0  0
    2.0612   18.7604   -1.3184 H   0  0  0  0  0  0  0  0  0  0  0  0
    1.5960   19.6917   -2.8026 H   0  0  0  0  0  0  0  0  0  0  0  0
   -0.2534   17.9409   -2.4040 H   0  0  0  0  0  0  0  0  0  0  0  0
    0.1050   19.3807    1.6924 H   0  0  0  0  0  0  0  0  0  0  0  0
    1.4452   18.9266    0.5859 H   0  0  0  0  0  0  0  0  0  0  0  0
    0.8108   20.6071    0.5859 H   0  0  0  0  0  0  0  0  0  0  0  0
   -1.7973   18.6903    1.2299 H   0  0  0  0  0  0  0  0  0  0  0  0
   -2.5738   19.3669   -0.2418 H   0  0  0  0  0  0  0  0  0  0  0  0
   -1.9701   17.6751   -0.2418 H   0  0  0  0  0  0  0  0  0  0  0  0
    0.2046   15.8025   -2.2140 H   0  0  0  0  0  0  0  0  0  0  0  0
    0.4166   14.9916   -4.4788 H   0  0  0  0  0  0  0  0  0  0  0  0
    2.1453   14.6378   -4.2727 H   0  0  0  0  0  0  0  0  0  0  0  0
    0.0440   12.7006   -4.2900 H   0  0  0  0  0  0  0  0  0  0  0  0
    1.6774   12.3801   -3.7129 H   0  0  0  0  0  0  0  0  0  0  0  0
   -1.6533   13.5746   -1.2396 H   0  0  0  0  0  0  0  0  0  0  0  0
   -1.2768   14.3984   -2.7908 H   0  0  0  0  0  0  0  0  0  0  0  0
   -1.8052   12.6816   -2.7908 H   0  0  0  0  0  0  0  0  0  0  0  0
    1.4460   11.3670   -1.5245 H   0  0  0  0  0  0  0  0  0  0  0  0
   -0.4387   10.6339   -3.1212 H   0  0  0  0  0  0  0  0  0  0  0  0
    0.1426    9.5340   -1.7646 H   0  0  0  0  0  0  0  0  0  0  0  0
   -2.4622    9.6376   -2.1459 H   0  0  0  0  0  0  0  0  0  0  0  0
   -1.7319   12.6898    0.3925 H   0  0  0  0  0  0  0  0  0  0  0  0
   -1.3381   10.1599    2.1063 H   0  0  0  0  0  0  0  0  0  0  0  0
   -1.1493   11.8874    2.6470 H   0  0  0  0  0  0  0  0  0  0  0  0
   -3.2924   10.9002    3.3934 H   0  0  0  0  0  0  0  0  0  0  0  0
   -3.5113   12.2970    2.2682 H   0  0  0  0  0  0  0  0  0  0  0  0
   -5.0615   10.5693    1.6614 H   0  0  0  0  0  0  0  0  0  0  0  0
   -4.3990    8.5960    2.1210 H   0  0  0  0  0  0  0  0  0  0  0  0
   -4.7022   12.6153    0.5728 H   0  0  0  0  0  0  0  0  0  0  0  0
   -3.7618   12.7274   -0.9536 H   0  0  0  0  0  0  0  0  0  0  0  0
   -5.3860   11.9602   -0.9536 H   0  0  0  0  0  0  0  0  0  0  0  0
   -5.1237    8.9976   -0.2377 H   0  0  0  0  0  0  0  0  0  0  0  0
   -5.3356   10.2086   -1.5474 H   0  0  0  0  0  0  0  0  0  0  0  0
   -3.9012    9.1273   -1.5474 H   0  0  0  0  0  0  0  0  0  0  0  0
    0.8054   10.5353    1.8967 H   0  0  0  0  0  0  0  0  0  0  0  0
    0.3555    9.5343    0.4746 H   0  0  0  0  0  0  0  0  0  0  0  0
    1.8997   10.4520    0.4746 H   0  0  0  0  0  0  0  0  0  0  0  0
    0.2324   13.1585    1.7674 H   0  0  0  0  0  0  0  0  0  0  0  0
    1.8294   12.7347    0.9280 H   0  0  0  0  0  0  0  0  0  0  0  0
   -0.3239   14.6332   -0.0451 H   0  0  0  0  0  0  0  0  0  0  0  0
    1.3660   15.0128    0.4714 H   0  0  0  0  0  0  0  0  0  0  0  0
    3.0096   13.4978   -0.2933 H   0  0  0  0  0  0  0  0  0  0  0  0
    2.8384   12.6121   -1.8466 H   0  0  0  0  0  0  0  0  0  0  0  0
    3.3448   14.3355   -1.8466 H   0  0  0  0  0  0  0  0  0  0  0  0
  1  2  1  0
  2  3  1  0
  3  4  1  0
  4  5  1  0
  5  6  1  0
  6  7  1  0
  7  8  1  0
  7  9  1  0
  2 10  1  0
 10 11  1  0
 11 12  1  0
 12 13  1  0
 13 14  1  6
 13 15  1  0
 15 16  1  0
 16 17  1  0
 17 18  2  0
 18 19  1  0
 19 20  1  0
 20 21  1  0
 21 22  1  0
 22 23  1  0
 22 24  1  0
 24 25  1  0
 24 26  1  0
 19 27  1  0
 27 28  1  1
 27 29  1  0
 29 30  1  0
 30 31  1  0
 31 32  1  1
  7  5  1  0
 31 10  1  0
 31 13  1  0
 27 15  1  0
 24 18  1  0
  1 33  1  0
  1 34  1  0
  1 35  1  0
  2 36  1  6
  3 37  1  0
  3 38  1  0
  4 39  1  0
  4 40  1  0
  5 41  1  6
  8 42  1  0
  8 43  1  0
  8 44  1  0
  9 45  1  0
  9 46  1  0
  9 47  1  0
 10 48  1  1
 11 49  1  0
 11 50  1  0
 12 51  1  0
 12 52  1  0
 14 53  1  0
 14 54  1  0
 14 55  1  0
 15 56  1  1
 16 57  1  0
 16 58  1  0
 17 59  1  0
 19 60  1  1
 20 61  1  0
 20 62  1  0
 21 63  1  0
 21 64  1  0
 22 65  1  1
 23 66  1  0
 25 67  1  0
 25 68  1  0
 25 69  1  0
 26 70  1  0
 26 71  1  0
 26 72  1  0
 28 73  1  0
 28 74  1  0
 28 75  1  0
 29 76  1  0
 29 77  1  0
 30 78  1  0
 30 79  1  0
 32 80  1  0
 32 81  1  0
 32 82  1  0
M  END
>  <meeko>  (5) 
{"is_sidechain": [false], "intermolecular_energy": 2.731, "internal_energy": -0.839}

$$$$
EPH_relaxed_0001_pdb2pqr_Repair_357_r2_0001_out
     RDKit          3D

 82 86  0  0  0  0  0  0  0  0999 V2000
    2.4860   18.0140   -2.4950 C   0  0  0  0  0  0  0  0  0  0  0  0
    1.1100   17.7140   -1.8940 C   0  0  2  0  0  0  0  0  0  0  0  0
    1.1160   17.8110   -0.3550 C   0  0  0  0  0  0  0  0  0  0  0  0
    0.6950   19.1840    0.1760 C   0  0  0  0  0  0  0  0  0  0  0  0
   -0.7740   19.2380    0.4700 C   0  0  2  0  0  0  0  0  0  0  0  0
   -1.5700   18.3160   -0.2850 O   0  0  0  0  0  0  0  0  0  0  0  0
   -1.8110   19.7110   -0.5320 C   0  0  0  0  0  0  0  0  0  0  0  0
   -1.4200   20.1620   -1.9040 C   0  0  0  0  0  0  0  0  0  0  0  0
   -3.1320   20.1940   -0.0200 C   0  0  0  0  0  0  0  0  0  0  0  0
    0.6450   16.3280   -2.3270 C   0  0  1  0  0  0  0  0  0  0  0  0
    0.7240   16.1250   -3.8630 C   0  0  0  0  0  0  0  0  0  0  0  0
    1.1080   14.6410   -4.0990 C   0  0  0  0  0  0  0  0  0  0  0  0
    0.9140   13.9650   -2.7210 C   0  0  1  0  0  0  0  0  0  0  0  0
   -0.6190   13.6830   -2.6260 C   0  0  0  0  0  0  0  0  0  0  0  0
    1.7550   12.6730   -2.4610 C   0  0  2  0  0  0  0  0  0  0  0  0
    1.4530   11.4960   -3.4060 C   0  0  0  0  0  0  0  0  0  0  0  0
    0.3890   10.5590   -2.9370 C   0  0  0  0  0  0  0  0  0  0  0  0
   -0.0970   10.4920   -1.6840 C   0  0  0  0  0  0  0  0  0  0  0  0
    0.4990   11.3500   -0.5600 C   0  0  1  0  0  0  0  0  0  0  0  0
    0.7310   10.4700    0.6960 C   0  0  0  0  0  0  0  0  0  0  0  0
   -0.5300    9.7310    1.1330 C   0  0  0  0  0  0  0  0  0  0  0  0
   -1.0590    8.8440    0.0090 C   0  0  2  0  0  0  0  0  0  0  0  0
   -0.1190    7.7910   -0.2290 O   0  0  0  0  0  0  0  0  0  0  0  0
   -1.3210    9.6190   -1.3120 C   0  0  0  0  0  0  0  0  0  0  0  0
   -2.5460   10.5510   -1.1350 C   0  0  0  0  0  0  0  0  0  0  0  0
   -1.7160    8.5860   -2.4020 C   0  0  0  0  0  0  0  0  0  0  0  0
    1.7790   12.2080   -0.9490 C   0  0  1  0  0  0  0  0  0  0  0  0
    3.0690   11.3520   -0.7660 C   0  0  0  0  0  0  0  0  0  0  0  0
    1.9060   13.4210    0.0470 C   0  0  0  0  0  0  0  0  0  0  0  0
    1.1480   14.7090   -0.3260 C   0  0  0  0  0  0  0  0  0  0  0  0
    1.4290   15.1110   -1.7770 C   0  0  2  0  0  0  0  0  0  0  0  0
    2.9600   15.4210   -1.8990 C   0  0  0  0  0  0  0  0  0  0  0  0
    3.2132   18.1725   -1.6850 H   0  0  0  0  0  0  0  0  0  0  0  0
    2.8080   17.1650   -3.1159 H   0  0  0  0  0  0  0  0  0  0  0  0
    2.4253   18.9200   -3.1159 H   0  0  0  0  0  0  0  0  0  0  0  0
    0.4106   18.4750   -2.2703 H   0  0  0  0  0  0  0  0  0  0  0  0
    0.4216   17.0566    0.0434 H   0  0  0  0  0  0  0  0  0  0  0  0
    2.1520   17.6425   -0.0260 H   0  0  0  0  0  0  0  0  0  0  0  0
    1.2517   19.3945    1.1011 H   0  0  0  0  0  0  0  0  0  0  0  0
    0.9178   19.9339   -0.5973 H   0  0  0  0  0  0  0  0  0  0  0  0
   -0.5782   19.5161    1.5161 H   0  0  0  0  0  0  0  0  0  0  0  0
   -0.7012   20.9911   -1.8265 H   0  0  0  0  0  0  0  0  0  0  0  0
   -0.9570   19.3249   -2.4471 H   0  0  0  0  0  0  0  0  0  0  0  0
   -2.3143   20.5016   -2.4471 H   0  0  0  0  0  0  0  0  0  0  0  0
   -3.1224   20.1905    1.0800 H   0  0  0  0  0  0  0  0  0  0  0  0
   -3.3138   21.2168   -0.3818 H   0  0  0  0  0  0  0  0  0  0  0  0
   -3.9306   19.5297   -0.3818 H   0  0  0  0  0  0  0  0  0  0  0  0
   -0.3738   16.3371   -1.9123 H   0  0  0  0  0  0  0  0  0  0  0  0
   -0.2507   16.3421   -4.3244 H   0  0  0  0  0  0  0  0  0  0  0  0
    1.4656   16.8013   -4.3132 H   0  0  0  0  0  0  0  0  0  0  0  0
    0.4490   14.1842   -4.8521 H   0  0  0  0  0  0  0  0  0  0  0  0
    2.1349   14.5305   -4.4775 H   0  0  0  0  0  0  0  0  0  0  0  0
   -0.9169   13.6282   -1.5685 H   0  0  0  0  0  0  0  0  0  0  0  0
   -1.1725   14.4944   -3.1213 H   0  0  0  0  0  0  0  0  0  0  0  0
   -0.8475   12.7278   -3.1213 H   0  0  0  0  0  0  0  0  0  0  0  0
    2.7746   13.0022   -2.7099 H   0  0  0  0  0  0  0  0  0  0  0  0
    1.1382   11.9102   -4.3752 H   0  0  0  0  0  0  0  0  0  0  0  0
    2.3783   10.9036   -3.4601 H   0  0  0  0  0  0  0  0  0  0  0  0
   -0.0332    9.8648   -3.6786 H   0  0  0  0  0  0  0  0  0  0  0  0
   -0.2496   12.1251   -0.3387 H   0  0  0  0  0  0  0  0  0  0  0  0
    1.5126    9.7301    0.4688 H   0  0  0  0  0  0  0  0  0  0  0  0
    1.0306   11.1352    1.5193 H   0  0  0  0  0  0  0  0  0  0  0  0
   -0.2958    9.1044    2.0063 H   0  0  0  0  0  0  0  0  0  0  0  0
   -1.3013   10.4727    1.3879 H   0  0  0  0  0  0  0  0  0  0  0  0
   -2.0302    8.4434    0.3349 H   0  0  0  0  0  0  0  0  0  0  0  0
   -0.6160    7.0220   -0.5550 H   0  0  0  0  0  0  0  0  0  0  0  0
   -2.7416   10.6998   -0.0628 H   0  0  0  0  0  0  0  0  0  0  0  0
   -2.3392   11.5222   -1.6083 H   0  0  0  0  0  0  0  0  0  0  0  0
   -3.4269   10.0926   -1.6083 H   0  0  0  0  0  0  0  0  0  0  0  0
   -2.0693    7.6621   -1.9207 H   0  0  0  0  0  0  0  0  0  0  0  0
   -2.5182    9.0028   -3.0287 H   0  0  0  0  0  0  0  0  0  0  0  0
   -0.8404    8.3613   -3.0287 H   0  0  0  0  0  0  0  0  0  0  0  0
    3.2710   11.2180    0.3070 H   0  0  0  0  0  0  0  0  0  0  0  0
    2.9265   10.3686   -1.2379 H   0  0  0  0  0  0  0  0  0  0  0  0
    3.9197   11.8654   -1.2379 H   0  0  0  0  0  0  0  0  0  0  0  0
    1.5332   13.0875    1.0267 H   0  0  0  0  0  0  0  0  0  0  0  0
    2.9704   13.6981    0.0284 H   0  0  0  0  0  0  0  0  0  0  0  0
    0.0682   14.5394   -0.2024 H   0  0  0  0  0  0  0  0  0  0  0  0
    1.4890   15.5199    0.3345 H   0  0  0  0  0  0  0  0  0  0  0  0
    3.3974   15.5096   -0.8936 H   0  0  0  0  0  0  0  0  0  0  0  0
    3.4570   14.6053   -2.4445 H   0  0  0  0  0  0  0  0  0  0  0  0
    3.1005   16.3658   -2.4445 H   0  0  0  0  0  0  0  0  0  0  0  0
  1  2  1  0
  2  3  1  0
  3  4  1  0
  4  5  1  0
  5  6  1  0
  6  7  1  0
  7  8  1  0
  7  9  1  0
  2 10  1  0
 10 11  1  0
 11 12  1  0
 12 13  1  0
 13 14  1  1
 13 15  1  0
 15 16  1  0
 16 17  1  0
 17 18  2  0
 18 19  1  0
 19 20  1  0
 20 21  1  0
 21 22  1  0
 22 23  1  0
 22 24  1  0
 24 25  1  0
 24 26  1  0
 19 27  1  0
 27 28  1  6
 27 29  1  0
 29 30  1  0
 30 31  1  0
 31 32  1  1
  7  5  1  0
 31 10  1  0
 31 13  1  0
 27 15  1  0
 24 18  1  0
  1 33  1  0
  1 34  1  0
  1 35  1  0
  2 36  1  6
  3 37  1  0
  3 38  1  0
  4 39  1  0
  4 40  1  0
  5 41  1  1
  8 42  1  0
  8 43  1  0
  8 44  1  0
  9 45  1  0
  9 46  1  0
  9 47  1  0
 10 48  1  1
 11 49  1  0
 11 50  1  0
 12 51  1  0
 12 52  1  0
 14 53  1  0
 14 54  1  0
 14 55  1  0
 15 56  1  6
 16 57  1  0
 16 58  1  0
 17 59  1  0
 19 60  1  1
 20 61  1  0
 20 62  1  0
 21 63  1  0
 21 64  1  0
 22 65  1  1
 23 66  1  0
 25 67  1  0
 25 68  1  0
 25 69  1  0
 26 70  1  0
 26 71  1  0
 26 72  1  0
 28 73  1  0
 28 74  1  0
 28 75  1  0
 29 76  1  0
 29 77  1  0
 30 78  1  0
 30 79  1  0
 32 80  1  0
 32 81  1  0
 32 82  1  0
M  END
>  <meeko>  (6) 
{"is_sidechain": [false], "intermolecular_energy": 2.731, "internal_energy": -0.839}

$$$$
EPH_relaxed_0001_pdb2pqr_Repair_357_r2_0001_out
     RDKit          3D

 82 86  0  0  0  0  0  0  0  0999 V2000
   -4.0950    7.6480   -1.4660 C   0  0  0  0  0  0  0  0  0  0  0  0
   -4.7980    8.6820   -0.5810 C   0  0  2  0  0  0  0  0  0  0  0  0
   -6.3020    8.7940   -0.9000 C   0  0  0  0  0  0  0  0  0  0  0  0
   -6.9030    7.5150   -1.4900 C   0  0  0  0  0  0  0  0  0  0  0  0
   -7.9160    6.9040   -0.5710 C   0  0  2  0  0  0  0  0  0  0  0  0
   -8.6580    5.8160   -1.1360 O   0  0  0  0  0  0  0  0  0  0  0  0
   -9.4140    6.9910   -0.8000 C   0  0  0  0  0  0  0  0  0  0  0  0
   -9.9810    7.7090   -1.9840 C   0  0  0  0  0  0  0  0  0  0  0  0
  -10.3290    6.8040    0.3700 C   0  0  0  0  0  0  0  0  0  0  0  0
   -4.1290   10.0420   -0.7400 C   0  0  1  0  0  0  0  0  0  0  0  0
   -5.0990   11.2210   -0.4620 C   0  0  0  0  0  0  0  0  0  0  0  0
   -4.2610   12.3420    0.2060 C   0  0  0  0  0  0  0  0  0  0  0  0
   -2.7910   11.9110   -0.0100 C   0  0  1  0  0  0  0  0  0  0  0  0
   -2.4530   12.3550   -1.4680 C   0  0  0  0  0  0  0  0  0  0  0  0
   -1.7510   12.4650    1.0180 C   0  0  2  0  0  0  0  0  0  0  0  0
   -1.6030   13.9970    1.0350 C   0  0  0  0  0  0  0  0  0  0  0  0
   -0.5650   14.5470    0.1140 C   0  0  0  0  0  0  0  0  0  0  0  0
    0.4080   13.8350   -0.4840 C   0  0  0  0  0  0  0  0  0  0  0  0
    0.5950   12.3440   -0.1760 C   0  0  1  0  0  0  0  0  0  0  0  0
    2.0970   12.0510    0.0750 C   0  0  0  0  0  0  0  0  0  0  0  0
    2.9850   12.5260   -1.0720 C   0  0  0  0  0  0  0  0  0  0  0  0
    2.8140   14.0240   -1.3090 C   0  0  2  0  0  0  0  0  0  0  0  0
    3.3250   14.7310   -0.1750 O   0  0  0  0  0  0  0  0  0  0  0  0
    1.3390   14.4400   -1.5640 C   0  0  0  0  0  0  0  0  0  0  0  0
    0.8810   13.9170   -2.9480 C   0  0  0  0  0  0  0  0  0  0  0  0
    1.2870   15.9890   -1.6470 C   0  0  0  0  0  0  0  0  0  0  0  0
   -0.3410   11.7490    0.9630 C   0  0  1  0  0  0  0  0  0  0  0  0
    0.3200   11.9590    2.3590 C   0  0  0  0  0  0  0  0  0  0  0  0
   -0.4680   10.1920    0.7620 C   0  0  0  0  0  0  0  0  0  0  0  0
   -1.5910    9.7020   -0.1720 C   0  0  0  0  0  0  0  0  0  0  0  0
   -2.9280   10.3580    0.1870 C   0  0  2  0  0  0  0  0  0  0  0  0
   -3.3050    9.9120    1.6410 C   0  0  0  0  0  0  0  0  0  0  0  0
   -3.5899    6.9050   -0.8313 H   0  0  0  0  0  0  0  0  0  0  0  0
   -4.8379    7.1433   -2.1011 H   0  0  0  0  0  0  0  0  0  0  0  0
   -3.3524    8.1532   -2.1011 H   0  0  0  0  0  0  0  0  0  0  0  0
   -4.7069    8.3420    0.4611 H   0  0  0  0  0  0  0  0  0  0  0  0
   -6.8376    9.0321    0.0308 H   0  0  0  0  0  0  0  0  0  0  0  0
   -6.4116    9.5812   -1.6604 H   0  0  0  0  0  0  0  0  0  0  0  0
   -7.3897    7.7579   -2.4461 H   0  0  0  0  0  0  0  0  0  0  0  0
   -6.0895    6.7890   -1.6351 H   0  0  0  0  0  0  0  0  0  0  0  0
   -7.2894    7.1264    0.3053 H   0  0  0  0  0  0  0  0  0  0  0  0
  -10.6285    8.5290   -1.6400 H   0  0  0  0  0  0  0  0  0  0  0  0
   -9.1608    8.1196   -2.5912 H   0  0  0  0  0  0  0  0  0  0  0  0
  -10.5705    7.0063   -2.5912 H   0  0  0  0  0  0  0  0  0  0  0  0
   -9.7590    6.9205    1.3035 H   0  0  0  0  0  0  0  0  0  0  0  0
  -11.1300    7.5570    0.3331 H   0  0  0  0  0  0  0  0  0  0  0  0
  -10.7703    5.7971    0.3331 H   0  0  0  0  0  0  0  0  0  0  0  0
   -3.7873    9.9578   -1.7822 H   0  0  0  0  0  0  0  0  0  0  0  0
   -5.5340   11.5840   -1.4049 H   0  0  0  0  0  0  0  0  0  0  0  0
   -5.9273   10.9057    0.1895 H   0  0  0  0  0  0  0  0  0  0  0  0
   -4.4561   13.3118   -0.2750 H   0  0  0  0  0  0  0  0  0  0  0  0
   -4.5067   12.4686    1.2707 H   0  0  0  0  0  0  0  0  0  0  0  0
   -1.7869   13.2300   -1.4397 H   0  0  0  0  0  0  0  0  0  0  0  0
   -1.9523   11.5299   -1.9958 H   0  0  0  0  0  0  0  0  0  0  0  0
   -3.3816   12.6180   -1.9958 H   0  0  0  0  0  0  0  0  0  0  0  0
   -2.2073   12.1980    1.9826 H   0  0  0  0  0  0  0  0  0  0  0  0
   -2.5723   14.4354    0.7553 H   0  0  0  0  0  0  0  0  0  0  0  0
   -1.2778   14.2603    2.0523 H   0  0  0  0  0  0  0  0  0  0  0  0
   -0.5982   15.6267   -0.0937 H   0  0  0  0  0  0  0  0  0  0  0  0
    0.2541   11.8037   -1.0715 H   0  0  0  0  0  0  0  0  0  0  0  0
    2.4072   12.5643    0.9971 H   0  0  0  0  0  0  0  0  0  0  0  0
    2.2152   10.9606    0.1596 H   0  0  0  0  0  0  0  0  0  0  0  0
    4.0362   12.3184   -0.8233 H   0  0  0  0  0  0  0  0  0  0  0  0
    2.6935   11.9899   -1.9872 H   0  0  0  0  0  0  0  0  0  0  0  0
    3.3729   14.2796   -2.2213 H   0  0  0  0  0  0  0  0  0  0  0  0
    3.2680   14.1370    0.5920 H   0  0  0  0  0  0  0  0  0  0  0  0
    0.1620   13.0960   -2.8101 H   0  0  0  0  0  0  0  0  0  0  0  0
    0.4022   14.7335   -3.5084 H   0  0  0  0  0  0  0  0  0  0  0  0
    1.7535   13.5501   -3.5084 H   0  0  0  0  0  0  0  0  0  0  0  0
    1.2729   16.4104   -0.6310 H   0  0  0  0  0  0  0  0  0  0  0  0
    2.1733   16.3574   -2.1844 H   0  0  0  0  0  0  0  0  0  0  0  0
    0.3780   16.2971   -2.1844 H   0  0  0  0  0  0  0  0  0  0  0  0
   -0.4097   11.7272    3.1488 H   0  0  0  0  0  0  0  0  0  0  0  0
    1.1900   11.2930    2.4567 H   0  0  0  0  0  0  0  0  0  0  0  0
    0.6461   13.0050    2.4567 H   0  0  0  0  0  0  0  0  0  0  0  0
    0.4868    9.8302    0.3529 H   0  0  0  0  0  0  0  0  0  0  0  0
   -0.7244    9.7934    1.7546 H   0  0  0  0  0  0  0  0  0  0  0  0
   -1.3324    9.9570   -1.2103 H   0  0  0  0  0  0  0  0  0  0  0  0
   -1.6926    8.6128   -0.0569 H   0  0  0  0  0  0  0  0  0  0  0  0
   -2.7720   10.5426    2.3678 H   0  0  0  0  0  0  0  0  0  0  0  0
   -4.3898   10.0200    1.7880 H   0  0  0  0  0  0  0  0  0  0  0  0
   -3.0179    8.8603    1.7880 H   0  0  0  0  0  0  0  0  0  0  0  0
  1  2  1  0
  2  3  1  0
  3  4  1  0
  4  5  1  0
  5  6  1  0
  6  7  1  0
  7  8  1  0
  7  9  1  0
  2 10  1  0
 10 11  1  0
 11 12  1  0
 12 13  1  0
 13 14  1  6
 13 15  1  0
 15 16  1  0
 16 17  1  0
 17 18  2  0
 18 19  1  0
 19 20  1  0
 20 21  1  0
 21 22  1  0
 22 23  1  0
 22 24  1  0
 24 25  1  0
 24 26  1  0
 19 27  1  0
 27 28  1  1
 27 29  1  0
 29 30  1  0
 30 31  1  0
 31 32  1  1
  7  5  1  0
 31 10  1  0
 31 13  1  0
 27 15  1  0
 24 18  1  0
  1 33  1  0
  1 34  1  0
  1 35  1  0
  2 36  1  1
  3 37  1  0
  3 38  1  0
  4 39  1  0
  4 40  1  0
  5 41  1  1
  8 42  1  0
  8 43  1  0
  8 44  1  0
  9 45  1  0
  9 46  1  0
  9 47  1  0
 10 48  1  6
 11 49  1  0
 11 50  1  0
 12 51  1  0
 12 52  1  0
 14 53  1  0
 14 54  1  0
 14 55  1  0
 15 56  1  1
 16 57  1  0
 16 58  1  0
 17 59  1  0
 19 60  1  6
 20 61  1  0
 20 62  1  0
 21 63  1  0
 21 64  1  0
 22 65  1  6
 23 66  1  0
 25 67  1  0
 25 68  1  0
 25 69  1  0
 26 70  1  0
 26 71  1  0
 26 72  1  0
 28 73  1  0
 28 74  1  0
 28 75  1  0
 29 76  1  0
 29 77  1  0
 30 78  1  0
 30 79  1  0
 32 80  1  0
 32 81  1  0
 32 82  1  0
M  END
>  <meeko>  (7) 
{"is_sidechain": [false], "intermolecular_energy": 2.731, "internal_energy": -0.839}

$$$$
EPH_relaxed_0001_pdb2pqr_Repair_357_r2_0001_out
     RDKit          3D

 82 86  0  0  0  0  0  0  0  0999 V2000
    0.4130   18.5070   -0.2060 C   0  0  0  0  0  0  0  0  0  0  0  0
    1.4880   17.4240   -0.3250 C   0  0  2  0  0  0  0  0  0  0  0  0
    2.7530   17.9370   -1.0420 C   0  0  0  0  0  0  0  0  0  0  0  0
    3.9640   18.0940   -0.1180 C   0  0  0  0  0  0  0  0  0  0  0  0
    3.5700   18.6270    1.2260 C   0  0  2  0  0  0  0  0  0  0  0  0
    3.7880   20.0330    1.4000 O   0  0  0  0  0  0  0  0  0  0  0  0
    4.5650   19.1630    2.2380 C   0  0  0  0  0  0  0  0  0  0  0  0
    6.0330   19.1910    1.9490 C   0  0  0  0  0  0  0  0  0  0  0  0
    4.1680   19.2030    3.6810 C   0  0  0  0  0  0  0  0  0  0  0  0
    0.9270   16.2130   -1.0610 C   0  0  1  0  0  0  0  0  0  0  0  0
    0.8310   16.4370   -2.5940 C   0  0  0  0  0  0  0  0  0  0  0  0
    1.1320   15.0720   -3.2650 C   0  0  0  0  0  0  0  0  0  0  0  0
    1.0630   14.0460   -2.1100 C   0  0  1  0  0  0  0  0  0  0  0  0
   -0.4600   13.7590   -1.9200 C   0  0  0  0  0  0  0  0  0  0  0  0
    1.8780   12.7270   -2.3080 C   0  0  2  0  0  0  0  0  0  0  0  0
    1.4320   11.8550   -3.4950 C   0  0  0  0  0  0  0  0  0  0  0  0
    0.3910   10.8330   -3.1800 C   0  0  0  0  0  0  0  0  0  0  0  0
    0.0410   10.4280   -1.9450 C   0  0  0  0  0  0  0  0  0  0  0  0
    0.7870   10.9420   -0.7070 C   0  0  1  0  0  0  0  0  0  0  0  0
    1.1200    9.7500    0.2290 C   0  0  0  0  0  0  0  0  0  0  0  0
   -0.1130    8.9280    0.5900 C   0  0  0  0  0  0  0  0  0  0  0  0
   -0.7940    8.3860   -0.6640 C   0  0  2  0  0  0  0  0  0  0  0  0
    0.0750    7.4330   -1.2840 O   0  0  0  0  0  0  0  0  0  0  0  0
   -1.1680    9.4950   -1.6860 C   0  0  0  0  0  0  0  0  0  0  0  0
   -2.3300   10.3500   -1.1240 C   0  0  0  0  0  0  0  0  0  0  0  0
   -1.7160    8.8020   -2.9630 C   0  0  0  0  0  0  0  0  0  0  0  0
    2.0480   11.8660   -0.9910 C   0  0  1  0  0  0  0  0  0  0  0  0
    3.3180   10.9840   -1.1970 C   0  0  0  0  0  0  0  0  0  0  0  0
    2.3280   12.7590    0.2750 C   0  0  0  0  0  0  0  0  0  0  0  0
    1.5820   14.1050    0.3550 C   0  0  0  0  0  0  0  0  0  0  0  0
    1.7200   14.8860   -0.9560 C   0  0  2  0  0  0  0  0  0  0  0  0
    3.2390   15.2080   -1.1630 C   0  0  0  0  0  0  0  0  0  0  0  0
    0.2123   18.7092    0.8565 H   0  0  0  0  0  0  0  0  0  0  0  0
    0.7645   19.4278   -0.6945 H   0  0  0  0  0  0  0  0  0  0  0  0
   -0.5104   18.1623   -0.6945 H   0  0  0  0  0  0  0  0  0  0  0  0
    1.7812   17.1359    0.6953 H   0  0  0  0  0  0  0  0  0  0  0  0
    3.0139   17.2243   -1.8382 H   0  0  0  0  0  0  0  0  0  0  0  0
    2.5166   18.9371   -1.4344 H   0  0  0  0  0  0  0  0  0  0  0  0
    4.4415   17.1119    0.0139 H   0  0  0  0  0  0  0  0  0  0  0  0
    4.6582   18.8106   -0.5811 H   0  0  0  0  0  0  0  0  0  0  0  0
    2.7602   17.8871    1.3080 H   0  0  0  0  0  0  0  0  0  0  0  0
    6.5929   19.2017    2.8958 H   0  0  0  0  0  0  0  0  0  0  0  0
    6.3097   18.2980    1.3694 H   0  0  0  0  0  0  0  0  0  0  0  0
    6.2754   20.0939    1.3694 H   0  0  0  0  0  0  0  0  0  0  0  0
    5.0653   19.1126    4.3108 H   0  0  0  0  0  0  0  0  0  0  0  0
    3.6635   20.1565    3.8962 H   0  0  0  0  0  0  0  0  0  0  0  0
    3.4835   18.3693    3.8962 H   0  0  0  0  0  0  0  0  0  0  0  0
   -0.0395   16.1156   -0.5448 H   0  0  0  0  0  0  0  0  0  0  0  0
   -0.1794   16.7775   -2.8646 H   0  0  0  0  0  0  0  0  0  0  0  0
    1.5437   17.2062   -2.9262 H   0  0  0  0  0  0  0  0  0  0  0  0
    0.3792   14.8427   -4.0336 H   0  0  0  0  0  0  0  0  0  0  0  0
    2.1075   15.0631   -3.7732 H   0  0  0  0  0  0  0  0  0  0  0  0
   -0.6936   13.7150   -0.8460 H   0  0  0  0  0  0  0  0  0  0  0  0
   -1.0460   14.5625   -2.3901 H   0  0  0  0  0  0  0  0  0  0  0  0
   -0.7133   12.7973   -2.3901 H   0  0  0  0  0  0  0  0  0  0  0  0
    2.8761   13.1054   -2.5739 H   0  0  0  0  0  0  0  0  0  0  0  0
    1.0304   12.5204   -4.2735 H   0  0  0  0  0  0  0  0  0  0  0  0
    2.3233   11.2936   -3.8118 H   0  0  0  0  0  0  0  0  0  0  0  0
   -0.1347   10.3717   -4.0290 H   0  0  0  0  0  0  0  0  0  0  0  0
    0.0963   11.6324   -0.2008 H   0  0  0  0  0  0  0  0  0  0  0  0
    1.8443    9.0953   -0.2777 H   0  0  0  0  0  0  0  0  0  0  0  0
    1.5312   10.1627    1.1620 H   0  0  0  0  0  0  0  0  0  0  0  0
    0.1907    8.0847    1.2277 H   0  0  0  0  0  0  0  0  0  0  0  0
   -0.8237    9.5769    1.1227 H   0  0  0  0  0  0  0  0  0  0  0  0
   -1.7387    7.9177   -0.3507 H   0  0  0  0  0  0  0  0  0  0  0  0
   -0.4360    6.6180   -1.4260 H   0  0  0  0  0  0  0  0  0  0  0  0
   -2.3020   10.3294   -0.0246 H   0  0  0  0  0  0  0  0  0  0  0  0
   -2.2245   11.3875   -1.4741 H   0  0  0  0  0  0  0  0  0  0  0  0
   -3.2891    9.9406   -1.4741 H   0  0  0  0  0  0  0  0  0  0  0  0
   -2.3744    7.9694   -2.6745 H   0  0  0  0  0  0  0  0  0  0  0  0
   -2.2854    9.5299   -3.5596 H   0  0  0  0  0  0  0  0  0  0  0  0
   -0.8764    8.4158   -3.5596 H   0  0  0  0  0  0  0  0  0  0  0  0
    3.7290   10.6986   -0.2174 H   0  0  0  0  0  0  0  0  0  0  0  0
    3.0480   10.0780   -1.7594 H   0  0  0  0  0  0  0  0  0  0  0  0
    4.0726   11.5534   -1.7594 H   0  0  0  0  0  0  0  0  0  0  0  0
    2.0520   12.1723    1.1636 H   0  0  0  0  0  0  0  0  0  0  0  0
    3.3936   13.0241    0.2101 H   0  0  0  0  0  0  0  0  0  0  0  0
    0.5163   13.9149    0.5504 H   0  0  0  0  0  0  0  0  0  0  0  0
    2.0213   14.7023    1.1675 H   0  0  0  0  0  0  0  0  0  0  0  0
    3.7286   15.3118   -0.1835 H   0  0  0  0  0  0  0  0  0  0  0  0
    3.7138   14.3905   -1.7255 H   0  0  0  0  0  0  0  0  0  0  0  0
    3.3413   16.1478   -1.7255 H   0  0  0  0  0  0  0  0  0  0  0  0
  1  2  1  0
  2  3  1  0
  3  4  1  0
  4  5  1  0
  5  6  1  0
  6  7  1  0
  7  8  1  0
  7  9  1  0
  2 10  1  0
 10 11  1  0
 11 12  1  0
 12 13  1  0
 13 14  1  1
 13 15  1  0
 15 16  1  0
 16 17  1  0
 17 18  2  0
 18 19  1  0
 19 20  1  0
 20 21  1  0
 21 22  1  0
 22 23  1  0
 22 24  1  0
 24 25  1  0
 24 26  1  0
 19 27  1  0
 27 28  1  6
 27 29  1  0
 29 30  1  0
 30 31  1  0
 31 32  1  6
  7  5  1  0
 31 10  1  0
 31 13  1  0
 27 15  1  0
 24 18  1  0
  1 33  1  0
  1 34  1  0
  1 35  1  0
  2 36  1  1
  3 37  1  0
  3 38  1  0
  4 39  1  0
  4 40  1  0
  5 41  1  1
  8 42  1  0
  8 43  1  0
  8 44  1  0
  9 45  1  0
  9 46  1  0
  9 47  1  0
 10 48  1  1
 11 49  1  0
 11 50  1  0
 12 51  1  0
 12 52  1  0
 14 53  1  0
 14 54  1  0
 14 55  1  0
 15 56  1  6
 16 57  1  0
 16 58  1  0
 17 59  1  0
 19 60  1  1
 20 61  1  0
 20 62  1  0
 21 63  1  0
 21 64  1  0
 22 65  1  1
 23 66  1  0
 25 67  1  0
 25 68  1  0
 25 69  1  0
 26 70  1  0
 26 71  1  0
 26 72  1  0
 28 73  1  0
 28 74  1  0
 28 75  1  0
 29 76  1  0
 29 77  1  0
 30 78  1  0
 30 79  1  0
 32 80  1  0
 32 81  1  0
 32 82  1  0
M  END
>  <meeko>  (8) 
{"is_sidechain": [false], "intermolecular_energy": 2.731, "internal_energy": -0.839}

$$$$
EPH_relaxed_0001_pdb2pqr_Repair_357_r2_0001_out
     RDKit          3D

 82 86  0  0  0  0  0  0  0  0999 V2000
   -4.0140    7.6020   -1.4600 C   0  0  0  0  0  0  0  0  0  0  0  0
   -4.7480    8.6160   -0.5770 C   0  0  2  0  0  0  0  0  0  0  0  0
   -6.2530    8.6890   -0.9050 C   0  0  0  0  0  0  0  0  0  0  0  0
   -6.9950    7.3680   -0.6860 C   0  0  0  0  0  0  0  0  0  0  0  0
   -7.3270    6.6960   -1.9840 C   0  0  2  0  0  0  0  0  0  0  0  0
   -7.5840    7.5920   -3.0730 O   0  0  0  0  0  0  0  0  0  0  0  0
   -8.6900    6.7800   -2.6450 C   0  0  0  0  0  0  0  0  0  0  0  0
   -9.8110    7.5550   -2.0270 C   0  0  0  0  0  0  0  0  0  0  0  0
   -9.0750    5.7190   -3.6290 C   0  0  0  0  0  0  0  0  0  0  0  0
   -4.1140    9.9930   -0.7300 C   0  0  1  0  0  0  0  0  0  0  0  0
   -5.1100   11.1460   -0.4330 C   0  0  0  0  0  0  0  0  0  0  0  0
   -4.2940   12.2800    0.2380 C   0  0  0  0  0  0  0  0  0  0  0  0
   -2.8170   11.8880    0.0050 C   0  0  1  0  0  0  0  0  0  0  0  0
   -2.5030   12.3520   -1.4520 C   0  0  0  0  0  0  0  0  0  0  0  0
   -1.7810   12.4580    1.0280 C   0  0  2  0  0  0  0  0  0  0  0  0
   -1.6700   13.9930    1.0580 C   0  0  0  0  0  0  0  0  0  0  0  0
   -0.6550   14.5770    0.1320 C   0  0  0  0  0  0  0  0  0  0  0  0
    0.3300   13.8940   -0.4800 C   0  0  0  0  0  0  0  0  0  0  0  0
    0.5560   12.4050   -0.1870 C   0  0  1  0  0  0  0  0  0  0  0  0
    2.0680   12.1470    0.0480 C   0  0  0  0  0  0  0  0  0  0  0  0
    2.9330   12.6530   -1.1020 C   0  0  0  0  0  0  0  0  0  0  0  0
    2.7240   14.1490   -1.3250 C   0  0  2  0  0  0  0  0  0  0  0  0
    3.2270   14.8590   -0.1890 O   0  0  0  0  0  0  0  0  0  0  0  0
    1.2360   14.5310   -1.5620 C   0  0  0  0  0  0  0  0  0  0  0  0
    0.7790   14.0080   -2.9470 C   0  0  0  0  0  0  0  0  0  0  0  0
    1.1460   16.0790   -1.6310 C   0  0  0  0  0  0  0  0  0  0  0  0
   -0.3540   11.7770    0.9550 C   0  0  1  0  0  0  0  0  0  0  0  0
    0.3140   11.9920    2.3470 C   0  0  0  0  0  0  0  0  0  0  0  0
   -0.4450   10.2200    0.7410 C   0  0  0  0  0  0  0  0  0  0  0  0
   -1.5640    9.7100   -0.1870 C   0  0  0  0  0  0  0  0  0  0  0  0
   -2.9140   10.3300    0.1890 C   0  0  2  0  0  0  0  0  0  0  0  0
   -3.2660    9.8620    1.6430 C   0  0  0  0  0  0  0  0  0  0  0  0
   -3.4878    6.8750   -0.8239 H   0  0  0  0  0  0  0  0  0  0  0  0
   -4.7411    7.0748   -2.0951 H   0  0  0  0  0  0  0  0  0  0  0  0
   -3.2860    8.1281   -2.0951 H   0  0  0  0  0  0  0  0  0  0  0  0
   -4.6534    8.2772    0.4652 H   0  0  0  0  0  0  0  0  0  0  0  0
   -6.7116    9.4555   -0.2631 H   0  0  0  0  0  0  0  0  0  0  0  0
   -6.3377    8.9320   -1.9745 H   0  0  0  0  0  0  0  0  0  0  0  0
   -6.3594    6.6969   -0.0896 H   0  0  0  0  0  0  0  0  0  0  0  0
   -7.9375    7.5871   -0.1628 H   0  0  0  0  0  0  0  0  0  0  0  0
   -6.6795    5.8424   -1.7349 H   0  0  0  0  0  0  0  0  0  0  0  0
   -9.7334    7.5013   -0.9311 H   0  0  0  0  0  0  0  0  0  0  0  0
   -9.7511    8.6055   -2.3478 H   0  0  0  0  0  0  0  0  0  0  0  0
  -10.7726    7.1279   -2.3478 H   0  0  0  0  0  0  0  0  0  0  0  0
   -9.4017    4.8186   -3.0882 H   0  0  0  0  0  0  0  0  0  0  0  0
   -9.8973    6.0859   -4.2608 H   0  0  0  0  0  0  0  0  0  0  0  0
   -8.2088    5.4732   -4.2608 H   0  0  0  0  0  0  0  0  0  0  0  0
   -3.7798    9.9261   -1.7759 H   0  0  0  0  0  0  0  0  0  0  0  0
   -5.5616   11.5070   -1.3688 H   0  0  0  0  0  0  0  0  0  0  0  0
   -5.9250   10.8049    0.2223 H   0  0  0  0  0  0  0  0  0  0  0  0
   -4.5173   13.2493   -0.2317 H   0  0  0  0  0  0  0  0  0  0  0  0
   -4.5329   12.3900    1.3061 H   0  0  0  0  0  0  0  0  0  0  0  0
   -1.8867   13.2627   -1.4220 H   0  0  0  0  0  0  0  0  0  0  0  0
   -1.9567   11.5568   -1.9803 H   0  0  0  0  0  0  0  0  0  0  0  0
   -3.4443   12.5635   -1.9803 H   0  0  0  0  0  0  0  0  0  0  0  0
   -2.2222   12.1709    1.9939 H   0  0  0  0  0  0  0  0  0  0  0  0
   -2.6525   14.4101    0.7922 H   0  0  0  0  0  0  0  0  0  0  0  0
   -1.3408   14.2546    2.0745 H   0  0  0  0  0  0  0  0  0  0  0  0
   -0.7175   15.6571   -0.0669 H   0  0  0  0  0  0  0  0  0  0  0  0
    0.2196   11.8644   -1.0840 H   0  0  0  0  0  0  0  0  0  0  0  0
    2.3739   12.6601    0.9717 H   0  0  0  0  0  0  0  0  0  0  0  0
    2.2137   11.0592    0.1221 H   0  0  0  0  0  0  0  0  0  0  0  0
    3.9912   12.4688   -0.8646 H   0  0  0  0  0  0  0  0  0  0  0  0
    2.6457   12.1179   -2.0191 H   0  0  0  0  0  0  0  0  0  0  0  0
    3.2687   14.4253   -2.2398 H   0  0  0  0  0  0  0  0  0  0  0  0
    3.3590   15.7850   -0.4550 H   0  0  0  0  0  0  0  0  0  0  0  0
    0.0609   13.1861   -2.8099 H   0  0  0  0  0  0  0  0  0  0  0  0
    0.2995   14.8243   -3.5072 H   0  0  0  0  0  0  0  0  0  0  0  0
    1.6522   13.6423   -3.5072 H   0  0  0  0  0  0  0  0  0  0  0  0
    1.1221   16.4907   -0.6112 H   0  0  0  0  0  0  0  0  0  0  0  0
    2.0227   16.4738   -2.1653 H   0  0  0  0  0  0  0  0  0  0  0  0
    0.2294   16.3695   -2.1653 H   0  0  0  0  0  0  0  0  0  0  0  0
   -0.4104   11.7588    3.1413 H   0  0  0  0  0  0  0  0  0  0  0  0
    1.1871   11.3295    2.4410 H   0  0  0  0  0  0  0  0  0  0  0  0
    0.6367   13.0394    2.4410 H   0  0  0  0  0  0  0  0  0  0  0  0
    0.5146    9.8854    0.3200 H   0  0  0  0  0  0  0  0  0  0  0  0
   -0.6830    9.8069    1.7323 H   0  0  0  0  0  0  0  0  0  0  0  0
   -1.3210    9.9796   -1.2254 H   0  0  0  0  0  0  0  0  0  0  0  0
   -1.6378    8.6177   -0.0798 H   0  0  0  0  0  0  0  0  0  0  0  0
   -2.7701   10.5213    2.3706 H   0  0  0  0  0  0  0  0  0  0  0  0
   -4.3552    9.9080    1.7894 H   0  0  0  0  0  0  0  0  0  0  0  0
   -2.9197    8.8283    1.7894 H   0  0  0  0  0  0  0  0  0  0  0  0
  1  2  1  0
  2  3  1  0
  3  4  1  0
  4  5  1  0
  5  6  1  0
  6  7  1  0
  7  8  1  0
  7  9  1  0
  2 10  1  0
 10 11  1  0
 11 12  1  0
 12 13  1  0
 13 14  1  6
 13 15  1  0
 15 16  1  0
 16 17  1  0
 17 18  2  0
 18 19  1  0
 19 20  1  0
 20 21  1  0
 21 22  1  0
 22 23  1  0
 22 24  1  0
 24 25  1  0
 24 26  1  0
 19 27  1  0
 27 28  1  1
 27 29  1  0
 29 30  1  0
 30 31  1  0
 31 32  1  1
  7  5  1  0
 31 10  1  0
 31 13  1  0
 27 15  1  0
 24 18  1  0
  1 33  1  0
  1 34  1  0
  1 35  1  0
  2 36  1  1
  3 37  1  0
  3 38  1  0
  4 39  1  0
  4 40  1  0
  5 41  1  6
  8 42  1  0
  8 43  1  0
  8 44  1  0
  9 45  1  0
  9 46  1  0
  9 47  1  0
 10 48  1  6
 11 49  1  0
 11 50  1  0
 12 51  1  0
 12 52  1  0
 14 53  1  0
 14 54  1  0
 14 55  1  0
 15 56  1  1
 16 57  1  0
 16 58  1  0
 17 59  1  0
 19 60  1  6
 20 61  1  0
 20 62  1  0
 21 63  1  0
 21 64  1  0
 22 65  1  6
 23 66  1  0
 25 67  1  0
 25 68  1  0
 25 69  1  0
 26 70  1  0
 26 71  1  0
 26 72  1  0
 28 73  1  0
 28 74  1  0
 28 75  1  0
 29 76  1  0
 29 77  1  0
 30 78  1  0
 30 79  1  0
 32 80  1  0
 32 81  1  0
 32 82  1  0
M  END
>  <meeko>  (9) 
{"is_sidechain": [false], "intermolecular_energy": 2.731, "internal_energy": -0.839}

$$$$
EPH_relaxed_0001_pdb2pqr_Repair_357_r2_0001_out
     RDKit          3D

 82 86  0  0  0  0  0  0  0  0999 V2000
   -0.2960   10.3480   -3.1830 C   0  0  0  0  0  0  0  0  0  0  0  0
    0.3070   10.0670   -1.8040 C   0  0  2  0  0  0  0  0  0  0  0  0
   -0.5900    9.1450   -0.9550 C   0  0  0  0  0  0  0  0  0  0  0  0
   -1.2410    9.8500    0.2380 C   0  0  0  0  0  0  0  0  0  0  0  0
   -2.6820   10.1680   -0.0250 C   0  0  2  0  0  0  0  0  0  0  0  0
   -2.9050   11.0890   -1.1010 O   0  0  0  0  0  0  0  0  0  0  0  0
   -3.2920   11.5380    0.2080 C   0  0  0  0  0  0  0  0  0  0  0  0
   -2.4740   12.6780    0.7270 C   0  0  0  0  0  0  0  0  0  0  0  0
   -4.7740   11.6380    0.3970 C   0  0  0  0  0  0  0  0  0  0  0  0
    0.5530   11.3780   -1.0680 C   0  0  1  0  0  0  0  0  0  0  0  0
    1.6630   11.2580    0.0110 C   0  0  0  0  0  0  0  0  0  0  0  0
    2.4150   12.6140    0.0310 C   0  0  0  0  0  0  0  0  0  0  0  0
    1.5150   13.5710   -0.7860 C   0  0  1  0  0  0  0  0  0  0  0  0
    0.4060   14.0280    0.2120 C   0  0  0  0  0  0  0  0  0  0  0  0
    2.2310   14.7910   -1.4510 C   0  0  2  0  0  0  0  0  0  0  0  0
    2.8860   15.7790   -0.4700 C   0  0  0  0  0  0  0  0  0  0  0  0
    2.0110   16.8990   -0.0140 C   0  0  0  0  0  0  0  0  0  0  0  0
    0.8510   17.2700   -0.5880 C   0  0  0  0  0  0  0  0  0  0  0  0
    0.3590   16.5970   -1.8760 C   0  0  1  0  0  0  0  0  0  0  0  0
   -0.1090   17.6820   -2.8810 C   0  0  0  0  0  0  0  0  0  0  0  0
   -1.1490   18.6240   -2.2810 C   0  0  0  0  0  0  0  0  0  0  0  0
   -0.6020   19.3180   -1.0360 C   0  0  2  0  0  0  0  0  0  0  0  0
    0.4600   20.1940   -1.4260 O   0  0  0  0  0  0  0  0  0  0  0  0
   -0.0910   18.3250    0.0440 C   0  0  0  0  0  0  0  0  0  0  0  0
   -1.2930   17.5840    0.6810 C   0  0  0  0  0  0  0  0  0  0  0  0
    0.5620   19.1530    1.1830 C   0  0  0  0  0  0  0  0  0  0  0  0
    1.3540   15.5460   -2.5320 C   0  0  1  0  0  0  0  0  0  0  0  0
    2.3510   16.2780   -3.4810 C   0  0  0  0  0  0  0  0  0  0  0  0
    0.5310   14.5520   -3.4340 C   0  0  0  0  0  0  0  0  0  0  0  0
   -0.0490   13.3040   -2.7420 C   0  0  0  0  0  0  0  0  0  0  0  0
    1.0210   12.5910   -1.9110 C   0  0  2  0  0  0  0  0  0  0  0  0
    2.1410   12.1000   -2.8910 C   0  0  0  0  0  0  0  0  0  0  0  0
   -1.2871   10.8098   -3.0626 H   0  0  0  0  0  0  0  0  0  0  0  0
    0.3623   11.0321   -3.7386 H   0  0  0  0  0  0  0  0  0  0  0  0
   -0.3964    9.4039   -3.7386 H   0  0  0  0  0  0  0  0  0  0  0  0
    1.2621    9.5441   -1.9603 H   0  0  0  0  0  0  0  0  0  0  0  0
   -1.3868    8.7456   -1.5997 H   0  0  0  0  0  0  0  0  0  0  0  0
    0.0560    8.3532   -0.5478 H   0  0  0  0  0  0  0  0  0  0  0  0
   -1.1756    9.1942    1.1187 H   0  0  0  0  0  0  0  0  0  0  0  0
   -0.7069   10.7961    0.4105 H   0  0  0  0  0  0  0  0  0  0  0  0
   -2.9873    9.1604    0.2936 H   0  0  0  0  0  0  0  0  0  0  0  0
   -2.4833   12.6651    1.8269 H   0  0  0  0  0  0  0  0  0  0  0  0
   -1.4389   12.5800    0.3679 H   0  0  0  0  0  0  0  0  0  0  0  0
   -2.8984   13.6272    0.3679 H   0  0  0  0  0  0  0  0  0  0  0  0
   -5.0063   11.6537    1.4721 H   0  0  0  0  0  0  0  0  0  0  0  0
   -5.1417   12.5630   -0.0711 H   0  0  0  0  0  0  0  0  0  0  0  0
   -5.2627   10.7708   -0.0711 H   0  0  0  0  0  0  0  0  0  0  0  0
   -0.4581   11.5612   -0.6754 H   0  0  0  0  0  0  0  0  0  0  0  0
    1.2145   11.0589    0.9955 H   0  0  0  0  0  0  0  0  0  0  0  0
    2.3489   10.4291   -0.2180 H   0  0  0  0  0  0  0  0  0  0  0  0
    2.5329   12.9776    1.0625 H   0  0  0  0  0  0  0  0  0  0  0  0
    3.4289   12.5351   -0.3882 H   0  0  0  0  0  0  0  0  0  0  0  0
    0.7587   13.8827    1.2437 H   0  0  0  0  0  0  0  0  0  0  0  0
    0.1809   15.0922    0.0479 H   0  0  0  0  0  0  0  0  0  0  0  0
   -0.5034   13.4314    0.0479 H   0  0  0  0  0  0  0  0  0  0  0  0
    3.0615   14.3116   -1.9899 H   0  0  0  0  0  0  0  0  0  0  0  0
    3.2060   15.2144    0.4181 H   0  0  0  0  0  0  0  0  0  0  0  0
    3.7175   16.2461   -1.0182 H   0  0  0  0  0  0  0  0  0  0  0  0
    2.3421   17.4699    0.8660 H   0  0  0  0  0  0  0  0  0  0  0  0
   -0.4939   15.9668   -1.5836 H   0  0  0  0  0  0  0  0  0  0  0  0
    0.7641   18.2735   -3.1937 H   0  0  0  0  0  0  0  0  0  0  0  0
   -0.5758   17.1683   -3.7344 H   0  0  0  0  0  0  0  0  0  0  0  0
   -1.4192   19.3849   -3.0280 H   0  0  0  0  0  0  0  0  0  0  0  0
   -2.0330   18.0351   -1.9951 H   0  0  0  0  0  0  0  0  0  0  0  0
   -1.4312   19.8781   -0.5790 H   0  0  0  0  0  0  0  0  0  0  0  0
    0.4060   20.9880   -0.8670 H   0  0  0  0  0  0  0  0  0  0  0  0
   -1.2145   17.6324    1.7771 H   0  0  0  0  0  0  0  0  0  0  0  0
   -2.2303   18.0612    0.3591 H   0  0  0  0  0  0  0  0  0  0  0  0
   -1.2877   16.5322    0.3591 H   0  0  0  0  0  0  0  0  0  0  0  0
    0.2450   18.7510    2.1566 H   0  0  0  0  0  0  0  0  0  0  0  0
    1.6571   19.0912    1.0998 H   0  0  0  0  0  0  0  0  0  0  0  0
    0.2467   20.2035    1.0998 H   0  0  0  0  0  0  0  0  0  0  0  0
    3.0944   16.8238   -2.8814 H   0  0  0  0  0  0  0  0  0  0  0  0
    2.8626   15.5394   -4.1156 H   0  0  0  0  0  0  0  0  0  0  0  0
    1.7995   16.9873   -4.1156 H   0  0  0  0  0  0  0  0  0  0  0  0
   -0.3100   15.1138   -3.8665 H   0  0  0  0  0  0  0  0  0  0  0  0
    1.2528   14.1647   -4.1681 H   0  0  0  0  0  0  0  0  0  0  0  0
   -0.8735   13.6095   -2.0811 H   0  0  0  0  0  0  0  0  0  0  0  0
   -0.4119   12.6110   -3.5153 H   0  0  0  0  0  0  0  0  0  0  0  0
    2.9970   11.7247   -2.3110 H   0  0  0  0  0  0  0  0  0  0  0  0
    1.7455   11.2927   -3.5249 H   0  0  0  0  0  0  0  0  0  0  0  0
    2.4667   12.9379   -3.5249 H   0  0  0  0  0  0  0  0  0  0  0  0
  1  2  1  0
  2  3  1  0
  3  4  1  0
  4  5  1  0
  5  6  1  0
  6  7  1  0
  7  8  1  0
  7  9  1  0
  2 10  1  0
 10 11  1  0
 11 12  1  0
 12 13  1  0
 13 14  1  1
 13 15  1  0
 15 16  1  0
 16 17  1  0
 17 18  2  0
 18 19  1  0
 19 20  1  0
 20 21  1  0
 21 22  1  0
 22 23  1  0
 22 24  1  0
 24 25  1  0
 24 26  1  0
 19 27  1  0
 27 28  1  6
 27 29  1  0
 29 30  1  0
 30 31  1  0
 31 32  1  6
  7  5  1  0
 31 10  1  0
 31 13  1  0
 27 15  1  0
 24 18  1  0
  1 33  1  0
  1 34  1  0
  1 35  1  0
  2 36  1  6
  3 37  1  0
  3 38  1  0
  4 39  1  0
  4 40  1  0
  5 41  1  6
  8 42  1  0
  8 43  1  0
  8 44  1  0
  9 45  1  0
  9 46  1  0
  9 47  1  0
 10 48  1  1
 11 49  1  0
 11 50  1  0
 12 51  1  0
 12 52  1  0
 14 53  1  0
 14 54  1  0
 14 55  1  0
 15 56  1  6
 16 57  1  0
 16 58  1  0
 17 59  1  0
 19 60  1  1
 20 61  1  0
 20 62  1  0
 21 63  1  0
 21 64  1  0
 22 65  1  1
 23 66  1  0
 25 67  1  0
 25 68  1  0
 25 69  1  0
 26 70  1  0
 26 71  1  0
 26 72  1  0
 28 73  1  0
 28 74  1  0
 28 75  1  0
 29 76  1  0
 29 77  1  0
 30 78  1  0
 30 79  1  0
 32 80  1  0
 32 81  1  0
 32 82  1  0
M  END
>  <meeko>  (10) 
{"is_sidechain": [false], "intermolecular_energy": 2.731, "internal_energy": -0.839}

$$$$
EPH_relaxed_0001_pdb2pqr_Repair_357_r2_0001_out
     RDKit          3D

 82 86  0  0  0  0  0  0  0  0999 V2000
   -4.9530    7.2520   -1.1510 C   0  0  0  0  0  0  0  0  0  0  0  0
   -5.7170    8.5440   -0.8510 C   0  0  2  0  0  0  0  0  0  0  0  0
   -6.7850    8.8490   -1.9210 C   0  0  0  0  0  0  0  0  0  0  0  0
   -7.8250    7.7370   -2.0880 C   0  0  0  0  0  0  0  0  0  0  0  0
   -8.3820    7.2980   -0.7670 C   0  0  2  0  0  0  0  0  0  0  0  0
   -9.1380    6.0810   -0.8120 O   0  0  0  0  0  0  0  0  0  0  0  0
   -9.8670    7.2660   -0.4550 C   0  0  0  0  0  0  0  0  0  0  0  0
  -10.8860    7.6820   -1.4690 C   0  0  0  0  0  0  0  0  0  0  0  0
  -10.2970    7.3010    0.9780 C   0  0  0  0  0  0  0  0  0  0  0  0
   -4.7430    9.7110   -0.7410 C   0  0  1  0  0  0  0  0  0  0  0  0
   -5.0950   10.6760    0.4230 C   0  0  0  0  0  0  0  0  0  0  0  0
   -3.7510   11.1940    0.9960 C   0  0  0  0  0  0  0  0  0  0  0  0
   -2.6940   10.7800   -0.0540 C   0  0  1  0  0  0  0  0  0  0  0  0
   -2.7840   11.8710   -1.1660 C   0  0  0  0  0  0  0  0  0  0  0  0
   -1.2300   10.6100    0.4700 C   0  0  2  0  0  0  0  0  0  0  0  0
   -0.5880   11.8880    1.0380 C   0  0  0  0  0  0  0  0  0  0  0  0
    0.1610   12.7180    0.0490 C   0  0  0  0  0  0  0  0  0  0  0  0
    0.5550   12.3150   -1.1730 C   0  0  0  0  0  0  0  0  0  0  0  0
    0.3360   10.8670   -1.6330 C   0  0  1  0  0  0  0  0  0  0  0  0
    1.6380   10.3270   -2.2800 C   0  0  0  0  0  0  0  0  0  0  0  0
    2.1490   11.2250   -3.4030 C   0  0  0  0  0  0  0  0  0  0  0  0
    2.4110   12.6400   -2.8940 C   0  0  2  0  0  0  0  0  0  0  0  0
    3.5030   12.6030   -1.9700 O   0  0  0  0  0  0  0  0  0  0  0  0
    1.1710   13.2840   -2.2120 C   0  0  0  0  0  0  0  0  0  0  0  0
    0.0950   13.6010   -3.2800 C   0  0  0  0  0  0  0  0  0  0  0  0
    1.6090   14.6500   -1.6190 C   0  0  0  0  0  0  0  0  0  0  0  0
   -0.2610    9.8760   -0.5430 C   0  0  1  0  0  0  0  0  0  0  0  0
    0.8940    9.2660    0.3090 C   0  0  0  0  0  0  0  0  0  0  0  0
   -0.9600    8.6700   -1.2730 C   0  0  0  0  0  0  0  0  0  0  0  0
   -2.4400    8.8540   -1.6580 C   0  0  0  0  0  0  0  0  0  0  0  0
   -3.2560    9.3720   -0.4690 C   0  0  2  0  0  0  0  0  0  0  0  0
   -3.2010    8.2850    0.6580 C   0  0  0  0  0  0  0  0  0  0  0  0
   -4.6665    6.7675   -0.2059 H   0  0  0  0  0  0  0  0  0  0  0  0
   -5.5948    6.5728   -1.7314 H   0  0  0  0  0  0  0  0  0  0  0  0
   -4.0486    7.4871   -1.7314 H   0  0  0  0  0  0  0  0  0  0  0  0
   -6.2392    8.4041    0.1070 H   0  0  0  0  0  0  0  0  0  0  0  0
   -7.3081    9.7736   -1.6357 H   0  0  0  0  0  0  0  0  0  0  0  0
   -6.2588    8.9437   -2.8823 H   0  0  0  0  0  0  0  0  0  0  0  0
   -8.6477    8.1093   -2.7161 H   0  0  0  0  0  0  0  0  0  0  0  0
   -7.3319    6.8729   -2.5572 H   0  0  0  0  0  0  0  0  0  0  0  0
   -7.5250    7.7342   -0.2329 H   0  0  0  0  0  0  0  0  0  0  0  0
  -11.7862    8.0495   -0.9547 H   0  0  0  0  0  0  0  0  0  0  0  0
  -10.4709    8.4827   -2.0988 H   0  0  0  0  0  0  0  0  0  0  0  0
  -11.1498    6.8196   -2.0988 H   0  0  0  0  0  0  0  0  0  0  0  0
   -9.4126    7.2290    1.6281 H   0  0  0  0  0  0  0  0  0  0  0  0
  -10.8244    8.2450    1.1796 H   0  0  0  0  0  0  0  0  0  0  0  0
  -10.9701    6.4547    1.1796 H   0  0  0  0  0  0  0  0  0  0  0  0
   -4.8540   10.1394   -1.7481 H   0  0  0  0  0  0  0  0  0  0  0  0
   -5.6967   11.5174    0.0488 H   0  0  0  0  0  0  0  0  0  0  0  0
   -5.6831   10.1624    1.1978 H   0  0  0  0  0  0  0  0  0  0  0  0
   -3.7745   12.2875    1.1131 H   0  0  0  0  0  0  0  0  0  0  0  0
   -3.5346   10.7795    1.9917 H   0  0  0  0  0  0  0  0  0  0  0  0
   -2.8659   12.8639   -0.6997 H   0  0  0  0  0  0  0  0  0  0  0  0
   -1.8797   11.8329   -1.7911 H   0  0  0  0  0  0  0  0  0  0  0  0
   -3.6699   11.6852   -1.7911 H   0  0  0  0  0  0  0  0  0  0  0  0
   -1.3627    9.9361    1.3292 H   0  0  0  0  0  0  0  0  0  0  0  0
   -1.3884   12.5092    1.4664 H   0  0  0  0  0  0  0  0  0  0  0  0
    0.1534   11.5533    1.7785 H   0  0  0  0  0  0  0  0  0  0  0  0
    0.4125   13.7473    0.3444 H   0  0  0  0  0  0  0  0  0  0  0  0
   -0.4663   10.9045   -2.3846 H   0  0  0  0  0  0  0  0  0  0  0  0
    2.4144   10.2563   -1.5040 H   0  0  0  0  0  0  0  0  0  0  0  0
    1.4111    9.3430   -2.7162 H   0  0  0  0  0  0  0  0  0  0  0  0
    3.0853   10.8064   -3.8008 H   0  0  0  0  0  0  0  0  0  0  0  0
    1.3830   11.2717   -4.1911 H   0  0  0  0  0  0  0  0  0  0  0  0
    2.6504   13.2658   -3.7664 H   0  0  0  0  0  0  0  0  0  0  0  0
    3.8360   11.6900   -1.9440 H   0  0  0  0  0  0  0  0  0  0  0  0
   -0.8457   13.8781   -2.7817 H   0  0  0  0  0  0  0  0  0  0  0  0
    0.4371   14.4365   -3.9084 H   0  0  0  0  0  0  0  0  0  0  0  0
   -0.0706   12.7135   -3.9084 H   0  0  0  0  0  0  0  0  0  0  0  0
    1.5915   14.5954   -0.5205 H   0  0  0  0  0  0  0  0  0  0  0  0
    2.6282   14.8871   -1.9581 H   0  0  0  0  0  0  0  0  0  0  0  0
    0.9177   15.4355   -1.9581 H   0  0  0  0  0  0  0  0  0  0  0  0
    0.6645    9.3872    1.3780 H   0  0  0  0  0  0  0  0  0  0  0  0
    0.9966    8.1961    0.0750 H   0  0  0  0  0  0  0  0  0  0  0  0
    1.8355    9.7845    0.0750 H   0  0  0  0  0  0  0  0  0  0  0  0
   -0.3982    8.4698   -2.1973 H   0  0  0  0  0  0  0  0  0  0  0  0
   -0.9531    7.8482   -0.5418 H   0  0  0  0  0  0  0  0  0  0  0  0
   -2.5096    9.5767   -2.4843 H   0  0  0  0  0  0  0  0  0  0  0  0
   -2.8465    7.8788   -1.9640 H   0  0  0  0  0  0  0  0  0  0  0  0
   -3.2258    8.7757    1.6422 H   0  0  0  0  0  0  0  0  0  0  0  0
   -4.0663    7.6127    0.5615 H   0  0  0  0  0  0  0  0  0  0  0  0
   -2.2723    7.7035    0.5615 H   0  0  0  0  0  0  0  0  0  0  0  0
  1  2  1  0
  2  3  1  0
  3  4  1  0
  4  5  1  0
  5  6  1  0
  6  7  1  0
  7  8  1  0
  7  9  1  0
  2 10  1  0
 10 11  1  0
 11 12  1  0
 12 13  1  0
 13 14  1  6
 13 15  1  0
 15 16  1  0
 16 17  1  0
 17 18  2  0
 18 19  1  0
 19 20  1  0
 20 21  1  0
 21 22  1  0
 22 23  1  0
 22 24  1  0
 24 25  1  0
 24 26  1  0
 19 27  1  0
 27 28  1  1
 27 29  1  0
 29 30  1  0
 30 31  1  0
 31 32  1  1
  7  5  1  0
 31 10  1  0
 31 13  1  0
 27 15  1  0
 24 18  1  0
  1 33  1  0
  1 34  1  0
  1 35  1  0
  2 36  1  1
  3 37  1  0
  3 38  1  0
  4 39  1  0
  4 40  1  0
  5 41  1  1
  8 42  1  0
  8 43  1  0
  8 44  1  0
  9 45  1  0
  9 46  1  0
  9 47  1  0
 10 48  1  6
 11 49  1  0
 11 50  1  0
 12 51  1  0
 12 52  1  0
 14 53  1  0
 14 54  1  0
 14 55  1  0
 15 56  1  1
 16 57  1  0
 16 58  1  0
 17 59  1  0
 19 60  1  6
 20 61  1  0
 20 62  1  0
 21 63  1  0
 21 64  1  0
 22 65  1  6
 23 66  1  0
 25 67  1  0
 25 68  1  0
 25 69  1  0
 26 70  1  0
 26 71  1  0
 26 72  1  0
 28 73  1  0
 28 74  1  0
 28 75  1  0
 29 76  1  0
 29 77  1  0
 30 78  1  0
 30 79  1  0
 32 80  1  0
 32 81  1  0
 32 82  1  0
M  END
>  <meeko>  (11) 
{"is_sidechain": [false], "intermolecular_energy": 2.731, "internal_energy": -0.839}

$$$$
EPH_relaxed_0001_pdb2pqr_Repair_357_r2_0001_out
     RDKit          3D

 82 86  0  0  0  0  0  0  0  0999 V2000
    4.5110   16.6600   -0.2650 C   0  0  0  0  0  0  0  0  0  0  0  0
    3.1970   17.3920   -0.5530 C   0  0  2  0  0  0  0  0  0  0  0  0
    3.0020   18.6170    0.3630 C   0  0  0  0  0  0  0  0  0  0  0  0
    4.2860   19.0750    1.0600 C   0  0  0  0  0  0  0  0  0  0  0  0
    4.1270   19.1070    2.5500 C   0  0  2  0  0  0  0  0  0  0  0  0
    4.7980   20.1940    3.2010 O   0  0  0  0  0  0  0  0  0  0  0  0
    5.2720   18.8750    3.5190 C   0  0  0  0  0  0  0  0  0  0  0  0
    6.6590   18.5930    3.0340 C   0  0  0  0  0  0  0  0  0  0  0  0
    4.9510   18.4390    4.9150 C   0  0  0  0  0  0  0  0  0  0  0  0
    2.0230   16.4330   -0.3970 C   0  0  1  0  0  0  0  0  0  0  0  0
    0.6500   17.1490   -0.4910 C   0  0  0  0  0  0  0  0  0  0  0  0
   -0.3220   16.1630   -1.1890 C   0  0  0  0  0  0  0  0  0  0  0  0
    0.4210   14.8070   -1.1730 C   0  0  1  0  0  0  0  0  0  0  0  0
    0.1760   14.2330    0.2580 C   0  0  0  0  0  0  0  0  0  0  0  0
    0.0140   13.7830   -2.2830 C   0  0  2  0  0  0  0  0  0  0  0  0
   -1.4490   13.3110   -2.2310 C   0  0  0  0  0  0  0  0  0  0  0  0
   -1.6960   12.0900   -1.4080 C   0  0  0  0  0  0  0  0  0  0  0  0
   -0.7520   11.2370   -0.9710 C   0  0  0  0  0  0  0  0  0  0  0  0
    0.7160   11.4090   -1.3830 C   0  0  1  0  0  0  0  0  0  0  0  0
    1.2940   10.0380   -1.8250 C   0  0  0  0  0  0  0  0  0  0  0  0
    1.1080    8.9560   -0.7660 C   0  0  0  0  0  0  0  0  0  0  0  0
   -0.3690    8.7740   -0.4260 C   0  0  2  0  0  0  0  0  0  0  0  0
   -1.0440    8.2420   -1.5700 O   0  0  0  0  0  0  0  0  0  0  0  0
   -1.0610   10.0910    0.0240 C   0  0  0  0  0  0  0  0  0  0  0  0
   -0.5350   10.5050    1.4200 C   0  0  0  0  0  0  0  0  0  0  0  0
   -2.5750    9.7990    0.2000 C   0  0  0  0  0  0  0  0  0  0  0  0
    1.0100   12.5630   -2.4350 C   0  0  1  0  0  0  0  0  0  0  0  0
    0.8300   12.0200   -3.8860 C   0  0  0  0  0  0  0  0  0  0  0  0
    2.5170   13.0010   -2.3090 C   0  0  0  0  0  0  0  0  0  0  0  0
    2.8370   14.1010   -1.2790 C   0  0  0  0  0  0  0  0  0  0  0  0
    1.8910   15.2950   -1.4400 C   0  0  2  0  0  0  0  0  0  0  0  0
    2.1300   15.9070   -2.8620 C   0  0  0  0  0  0  0  0  0  0  0  0
    4.6552   16.5797    0.8225 H   0  0  0  0  0  0  0  0  0  0  0  0
    4.4737   15.6527   -0.7053 H   0  0  0  0  0  0  0  0  0  0  0  0
    5.3479   17.2219   -0.7053 H   0  0  0  0  0  0  0  0  0  0  0  0
    3.2425   17.7585   -1.5892 H   0  0  0  0  0  0  0  0  0  0  0  0
    2.6220   19.4498   -0.2470 H   0  0  0  0  0  0  0  0  0  0  0  0
    2.2964   18.3189    1.1525 H   0  0  0  0  0  0  0  0  0  0  0  0
    5.0986   18.3795    0.8031 H   0  0  0  0  0  0  0  0  0  0  0  0
    4.5168   20.0947    0.7179 H   0  0  0  0  0  0  0  0  0  0  0  0
    3.1223   18.6654    2.4756 H   0  0  0  0  0  0  0  0  0  0  0  0
    7.3284   18.4569    3.8962 H   0  0  0  0  0  0  0  0  0  0  0  0
    6.6552   17.6772    2.4246 H   0  0  0  0  0  0  0  0  0  0  0  0
    7.0131   19.4375    2.4246 H   0  0  0  0  0  0  0  0  0  0  0  0
    5.4457   19.1109    5.6319 H   0  0  0  0  0  0  0  0  0  0  0  0
    3.8625   18.4754    5.0694 H   0  0  0  0  0  0  0  0  0  0  0  0
    5.3090   17.4104    5.0694 H   0  0  0  0  0  0  0  0  0  0  0  0
    2.2592   16.0118    0.5913 H   0  0  0  0  0  0  0  0  0  0  0  0
    0.2815   17.3952    0.5158 H   0  0  0  0  0  0  0  0  0  0  0  0
    0.7327   18.0889   -1.0565 H   0  0  0  0  0  0  0  0  0  0  0  0
   -1.2694   16.0934   -0.6343 H   0  0  0  0  0  0  0  0  0  0  0  0
   -0.5821   16.4845   -2.2083 H   0  0  0  0  0  0  0  0  0  0  0  0
    0.4916   14.9725    1.0087 H   0  0  0  0  0  0  0  0  0  0  0  0
   -0.8942   14.0136    0.3868 H   0  0  0  0  0  0  0  0  0  0  0  0
    0.7579   13.3085    0.3868 H   0  0  0  0  0  0  0  0  0  0  0  0
    0.1011   14.3830   -3.2008 H   0  0  0  0  0  0  0  0  0  0  0  0
   -2.0557   14.1293   -1.8158 H   0  0  0  0  0  0  0  0  0  0  0  0
   -1.7191   13.0424   -3.2629 H   0  0  0  0  0  0  0  0  0  0  0  0
   -2.7386   11.8691   -1.1358 H   0  0  0  0  0  0  0  0  0  0  0  0
    1.2440   11.7649   -0.4860 H   0  0  0  0  0  0  0  0  0  0  0  0
    0.7839    9.7208   -2.7465 H   0  0  0  0  0  0  0  0  0  0  0  0
    2.3747   10.1670   -1.9843 H   0  0  0  0  0  0  0  0  0  0  0  0
    1.5093    8.0057   -1.1479 H   0  0  0  0  0  0  0  0  0  0  0  0
    1.6432    9.2608    0.1454 H   0  0  0  0  0  0  0  0  0  0  0  0
   -0.4279    8.0818    0.4268 H   0  0  0  0  0  0  0  0  0  0  0  0
   -0.3660    7.9820   -2.2170 H   0  0  0  0  0  0  0  0  0  0  0  0
   -1.1453   10.0247    2.1990 H   0  0  0  0  0  0  0  0  0  0  0  0
    0.5125   10.1865    1.5264 H   0  0  0  0  0  0  0  0  0  0  0  0
   -0.5985   11.5980    1.5264 H   0  0  0  0  0  0  0  0  0  0  0  0
   -2.8172    9.7523    1.2720 H   0  0  0  0  0  0  0  0  0  0  0  0
   -3.1605   10.6008   -0.2736 H   0  0  0  0  0  0  0  0  0  0  0  0
   -2.8204    8.8370   -0.2736 H   0  0  0  0  0  0  0  0  0  0  0  0
    0.4841   10.9765   -3.8467 H   0  0  0  0  0  0  0  0  0  0  0  0
    0.0870   12.6329   -4.4173 H   0  0  0  0  0  0  0  0  0  0  0  0
    1.7920   12.0676   -4.4173 H   0  0  0  0  0  0  0  0  0  0  0  0
    3.1009   12.1096   -2.0361 H   0  0  0  0  0  0  0  0  0  0  0  0
    2.7722   13.4382   -3.2856 H   0  0  0  0  0  0  0  0  0  0  0  0
    2.7261   13.6882   -0.2655 H   0  0  0  0  0  0  0  0  0  0  0  0
    3.8684   14.4461   -1.4435 H   0  0  0  0  0  0  0  0  0  0  0  0
    2.5284   16.9272   -2.7599 H   0  0  0  0  0  0  0  0  0  0  0  0
    2.8513   15.2851   -3.4124 H   0  0  0  0  0  0  0  0  0  0  0  0
    1.1781   15.9385   -3.4124 H   0  0  0  0  0  0  0  0  0  0  0  0
  1  2  1  0
  2  3  1  0
  3  4  1  0
  4  5  1  0
  5  6  1  0
  6  7  1  0
  7  8  1  0
  7  9  1  0
  2 10  1  0
 10 11  1  0
 11 12  1  0
 12 13  1  0
 13 14  1  1
 13 15  1  0
 15 16  1  0
 16 17  1  0
 17 18  2  0
 18 19  1  0
 19 20  1  0
 20 21  1  0
 21 22  1  0
 22 23  1  0
 22 24  1  0
 24 25  1  0
 24 26  1  0
 19 27  1  0
 27 28  1  6
 27 29  1  0
 29 30  1  0
 30 31  1  0
 31 32  1  6
  7  5  1  0
 31 10  1  0
 31 13  1  0
 27 15  1  0
 24 18  1  0
  1 33  1  0
  1 34  1  0
  1 35  1  0
  2 36  1  6
  3 37  1  0
  3 38  1  0
  4 39  1  0
  4 40  1  0
  5 41  1  6
  8 42  1  0
  8 43  1  0
  8 44  1  0
  9 45  1  0
  9 46  1  0
  9 47  1  0
 10 48  1  1
 11 49  1  0
 11 50  1  0
 12 51  1  0
 12 52  1  0
 14 53  1  0
 14 54  1  0
 14 55  1  0
 15 56  1  6
 16 57  1  0
 16 58  1  0
 17 59  1  0
 19 60  1  1
 20 61  1  0
 20 62  1  0
 21 63  1  0
 21 64  1  0
 22 65  1  1
 23 66  1  0
 25 67  1  0
 25 68  1  0
 25 69  1  0
 26 70  1  0
 26 71  1  0
 26 72  1  0
 28 73  1  0
 28 74  1  0
 28 75  1  0
 29 76  1  0
 29 77  1  0
 30 78  1  0
 30 79  1  0
 32 80  1  0
 32 81  1  0
 32 82  1  0
M  END
>  <meeko>  (12) 
{"is_sidechain": [false], "intermolecular_energy": 2.731, "internal_energy": -0.839}

$$$$
EPH_relaxed_0001_pdb2pqr_Repair_357_r2_0001_out
     RDKit          3D

 82 86  0  0  0  0  0  0  0  0999 V2000
   -4.5720   11.4600   -0.0360 C   0  0  0  0  0  0  0  0  0  0  0  0
   -3.2210   10.8550   -0.4240 C   0  0  2  0  0  0  0  0  0  0  0  0
   -3.0060    9.4630    0.2050 C   0  0  0  0  0  0  0  0  0  0  0  0
   -2.7940    8.3490   -0.8240 C   0  0  0  0  0  0  0  0  0  0  0  0
   -1.6480    8.6530   -1.7410 C   0  0  2  0  0  0  0  0  0  0  0  0
   -0.9340    7.5010   -2.2090 O   0  0  0  0  0  0  0  0  0  0  0  0
   -0.1960    8.4080   -1.3750 C   0  0  0  0  0  0  0  0  0  0  0  0
    0.1880    7.8370   -0.0460 C   0  0  0  0  0  0  0  0  0  0  0  0
    0.8650    9.1710   -2.1050 C   0  0  0  0  0  0  0  0  0  0  0  0
   -2.0930   11.7930   -0.0100 C   0  0  1  0  0  0  0  0  0  0  0  0
   -1.1790   11.1810    1.0850 C   0  0  0  0  0  0  0  0  0  0  0  0
    0.2590   11.6860    0.8010 C   0  0  0  0  0  0  0  0  0  0  0  0
    0.0760   12.8230   -0.2320 C   0  0  1  0  0  0  0  0  0  0  0  0
   -0.3310   14.0710    0.6130 C   0  0  0  0  0  0  0  0  0  0  0  0
    1.3030   13.1250   -1.1520 C   0  0  2  0  0  0  0  0  0  0  0  0
    2.5680   13.6040   -0.4180 C   0  0  0  0  0  0  0  0  0  0  0  0
    2.6860   15.0830   -0.2500 C   0  0  0  0  0  0  0  0  0  0  0  0
    1.9650   16.0050   -0.9140 C   0  0  0  0  0  0  0  0  0  0  0  0
    0.9820   15.5930   -2.0170 C   0  0  1  0  0  0  0  0  0  0  0  0
    1.1800   16.5060   -3.2560 C   0  0  0  0  0  0  0  0  0  0  0  0
    1.0810   17.9890   -2.9110 C   0  0  0  0  0  0  0  0  0  0  0  0
    2.1120   18.3730   -1.8530 C   0  0  2  0  0  0  0  0  0  0  0  0
    3.4210   18.2470   -2.4190 O   0  0  0  0  0  0  0  0  0  0  0  0
    2.0160   17.5130   -0.5620 C   0  0  0  0  0  0  0  0  0  0  0  0
    0.7240   17.8760    0.2100 C   0  0  0  0  0  0  0  0  0  0  0  0
    3.1990   17.9060    0.3630 C   0  0  0  0  0  0  0  0  0  0  0  0
    0.9710   14.0480   -2.3930 C   0  0  1  0  0  0  0  0  0  0  0  0
    2.0590   13.7550   -3.4710 C   0  0  0  0  0  0  0  0  0  0  0  0
   -0.4140   13.6900   -3.0520 C   0  0  0  0  0  0  0  0  0  0  0  0
   -1.5530   13.2840   -2.0980 C   0  0  0  0  0  0  0  0  0  0  0  0
   -1.0830   12.2170   -1.1050 C   0  0  2  0  0  0  0  0  0  0  0  0
   -0.6870   10.9420   -1.9240 C   0  0  0  0  0  0  0  0  0  0  0  0
   -4.6557   11.4975    1.0602 H   0  0  0  0  0  0  0  0  0  0  0  0
   -4.6486   12.4784   -0.4446 H   0  0  0  0  0  0  0  0  0  0  0  0
   -5.3828   10.8390   -0.4446 H   0  0  0  0  0  0  0  0  0  0  0  0
   -3.2169   10.7281   -1.5167 H   0  0  0  0  0  0  0  0  0  0  0  0
   -2.1198    9.5087    0.8550 H   0  0  0  0  0  0  0  0  0  0  0  0
   -3.9222    9.2166    0.7616 H   0  0  0  0  0  0  0  0  0  0  0  0
   -2.5862    7.4082   -0.2933 H   0  0  0  0  0  0  0  0  0  0  0  0
   -3.7070    8.2650   -1.4318 H   0  0  0  0  0  0  0  0  0  0  0  0
   -2.1698    9.5357   -2.1391 H   0  0  0  0  0  0  0  0  0  0  0  0
   -0.2319    8.4613    0.7565 H   0  0  0  0  0  0  0  0  0  0  0  0
   -0.2062    6.8138    0.0412 H   0  0  0  0  0  0  0  0  0  0  0  0
    1.2843    7.8162    0.0412 H   0  0  0  0  0  0  0  0  0  0  0  0
    1.5355    9.6532   -1.3784 H   0  0  0  0  0  0  0  0  0  0  0  0
    1.4440    8.4811   -2.7365 H   0  0  0  0  0  0  0  0  0  0  0  0
    0.3952    9.9394   -2.7365 H   0  0  0  0  0  0  0  0  0  0  0  0
   -2.6848   12.6623    0.3126 H   0  0  0  0  0  0  0  0  0  0  0  0
   -1.5071   11.5127    2.0812 H   0  0  0  0  0  0  0  0  0  0  0  0
   -1.2224   10.0820    1.0668 H   0  0  0  0  0  0  0  0  0  0  0  0
    0.7251   12.0684    1.7210 H   0  0  0  0  0  0  0  0  0  0  0  0
    0.9163   10.8862    0.4292 H   0  0  0  0  0  0  0  0  0  0  0  0
   -0.2525   13.8304    1.6835 H   0  0  0  0  0  0  0  0  0  0  0  0
    0.3403   14.9094    0.3754 H   0  0  0  0  0  0  0  0  0  0  0  0
   -1.3675   14.3525    0.3754 H   0  0  0  0  0  0  0  0  0  0  0  0
    1.5483   12.1296   -1.5507 H   0  0  0  0  0  0  0  0  0  0  0  0
    2.5743   13.1466    0.5824 H   0  0  0  0  0  0  0  0  0  0  0  0
    3.4181   13.3002   -1.0465 H   0  0  0  0  0  0  0  0  0  0  0  0
    3.4246   15.4498    0.4779 H   0  0  0  0  0  0  0  0  0  0  0  0
   -0.0244   15.7445   -1.5997 H   0  0  0  0  0  0  0  0  0  0  0  0
    2.1740   16.3090   -3.6841 H   0  0  0  0  0  0  0  0  0  0  0  0
    0.3780   16.2754   -3.9726 H   0  0  0  0  0  0  0  0  0  0  0  0
    1.2594   18.5827   -3.8197 H   0  0  0  0  0  0  0  0  0  0  0  0
    0.0761   18.1901   -2.5113 H   0  0  0  0  0  0  0  0  0  0  0  0
    1.9061   19.4111   -1.5532 H   0  0  0  0  0  0  0  0  0  0  0  0
    3.3920   18.6260   -3.3140 H   0  0  0  0  0  0  0  0  0  0  0  0
    0.9159   17.8221    1.2918 H   0  0  0  0  0  0  0  0  0  0  0  0
    0.4120   18.8966   -0.0566 H   0  0  0  0  0  0  0  0  0  0  0  0
   -0.0738   17.1672   -0.0566 H   0  0  0  0  0  0  0  0  0  0  0  0
    2.8919   17.8040    1.4143 H   0  0  0  0  0  0  0  0  0  0  0  0
    4.0548   17.2439    0.1651 H   0  0  0  0  0  0  0  0  0  0  0  0
    3.4885   18.9486    0.1651 H   0  0  0  0  0  0  0  0  0  0  0  0
    3.0071   13.4997   -2.9751 H   0  0  0  0  0  0  0  0  0  0  0  0
    1.7351   12.9121   -4.0992 H   0  0  0  0  0  0  0  0  0  0  0  0
    2.2022   14.6466   -4.0992 H   0  0  0  0  0  0  0  0  0  0  0  0
   -0.7514   14.5715   -3.6169 H   0  0  0  0  0  0  0  0  0  0  0  0
   -0.2192   12.7969   -3.6640 H   0  0  0  0  0  0  0  0  0  0  0  0
   -1.8889   14.1710   -1.5408 H   0  0  0  0  0  0  0  0  0  0  0  0
   -2.3784   12.8683   -2.6945 H   0  0  0  0  0  0  0  0  0  0  0  0
   -0.4334   10.1256   -1.2317 H   0  0  0  0  0  0  0  0  0  0  0  0
   -1.5324   10.6361   -2.5577 H   0  0  0  0  0  0  0  0  0  0  0  0
    0.1830   11.1689   -2.5577 H   0  0  0  0  0  0  0  0  0  0  0  0
  1  2  1  0
  2  3  1  0
  3  4  1  0
  4  5  1  0
  5  6  1  0
  6  7  1  0
  7  8  1  0
  7  9  1  0
  2 10  1  0
 10 11  1  0
 11 12  1  0
 12 13  1  0
 13 14  1  1
 13 15  1  0
 15 16  1  0
 16 17  1  0
 17 18  2  0
 18 19  1  0
 19 20  1  0
 20 21  1  0
 21 22  1  0
 22 23  1  0
 22 24  1  0
 24 25  1  0
 24 26  1  0
 19 27  1  0
 27 28  1  6
 27 29  1  0
 29 30  1  0
 30 31  1  0
 31 32  1  6
  7  5  1  0
 31 10  1  0
 31 13  1  0
 27 15  1  0
 24 18  1  0
  1 33  1  0
  1 34  1  0
  1 35  1  0
  2 36  1  6
  3 37  1  0
  3 38  1  0
  4 39  1  0
  4 40  1  0
  5 41  1  6
  8 42  1  0
  8 43  1  0
  8 44  1  0
  9 45  1  0
  9 46  1  0
  9 47  1  0
 10 48  1  1
 11 49  1  0
 11 50  1  0
 12 51  1  0
 12 52  1  0
 14 53  1  0
 14 54  1  0
 14 55  1  0
 15 56  1  6
 16 57  1  0
 16 58  1  0
 17 59  1  0
 19 60  1  1
 20 61  1  0
 20 62  1  0
 21 63  1  0
 21 64  1  0
 22 65  1  1
 23 66  1  0
 25 67  1  0
 25 68  1  0
 25 69  1  0
 26 70  1  0
 26 71  1  0
 26 72  1  0
 28 73  1  0
 28 74  1  0
 28 75  1  0
 29 76  1  0
 29 77  1  0
 30 78  1  0
 30 79  1  0
 32 80  1  0
 32 81  1  0
 32 82  1  0
M  END
>  <meeko>  (13) 
{"is_sidechain": [false], "intermolecular_energy": 2.731, "internal_energy": -0.839}

$$$$
EPH_relaxed_0001_pdb2pqr_Repair_357_r2_0001_out
     RDKit          3D

 82 86  0  0  0  0  0  0  0  0999 V2000
   -5.2120    5.9030   -1.6890 C   0  0  0  0  0  0  0  0  0  0  0  0
   -5.4850    7.3940   -1.9030 C   0  0  2  0  0  0  0  0  0  0  0  0
   -5.1930    8.2250   -0.6370 C   0  0  0  0  0  0  0  0  0  0  0  0
   -3.7090    8.5400   -0.4360 C   0  0  0  0  0  0  0  0  0  0  0  0
   -3.5110    9.8250    0.3100 C   0  0  2  0  0  0  0  0  0  0  0  0
   -3.0530   10.9200   -0.4940 O   0  0  0  0  0  0  0  0  0  0  0  0
   -2.1520   10.4650    0.5290 C   0  0  0  0  0  0  0  0  0  0  0  0
   -0.9000    9.8370    0.0020 C   0  0  0  0  0  0  0  0  0  0  0  0
   -1.9900   11.4290    1.6620 C   0  0  0  0  0  0  0  0  0  0  0  0
   -6.9310    7.6010   -2.3390 C   0  0  1  0  0  0  0  0  0  0  0  0
   -7.2610    6.8800   -3.6730 C   0  0  0  0  0  0  0  0  0  0  0  0
   -8.7300    6.3950   -3.5690 C   0  0  0  0  0  0  0  0  0  0  0  0
   -9.2970    7.1330   -2.3330 C   0  0  1  0  0  0  0  0  0  0  0  0
   -9.6700    8.5570   -2.8530 C   0  0  0  0  0  0  0  0  0  0  0  0
  -10.5020    6.4470   -1.6110 C   0  0  2  0  0  0  0  0  0  0  0  0
  -11.7730    6.2960   -2.4650 C   0  0  0  0  0  0  0  0  0  0  0  0
  -12.7350    7.4350   -2.3830 C   0  0  0  0  0  0  0  0  0  0  0  0
  -12.7270    8.4000   -1.4450 C   0  0  0  0  0  0  0  0  0  0  0  0
  -11.7370    8.3520   -0.2740 C   0  0  1  0  0  0  0  0  0  0  0  0
  -12.4870    8.6470    1.0510 C   0  0  0  0  0  0  0  0  0  0  0  0
  -13.2690    9.9560    1.0020 C   0  0  0  0  0  0  0  0  0  0  0  0
  -14.2830    9.9430   -0.1390 C   0  0  2  0  0  0  0  0  0  0  0  0
  -15.2870    8.9650    0.1480 O   0  0  0  0  0  0  0  0  0  0  0  0
  -13.6440    9.6460   -1.5240 C   0  0  0  0  0  0  0  0  0  0  0  0
  -12.7840   10.8540   -1.9710 C   0  0  0  0  0  0  0  0  0  0  0  0
  -14.7910    9.5210   -2.5630 C   0  0  0  0  0  0  0  0  0  0  0  0
  -10.8310    7.0490   -0.1850 C   0  0  1  0  0  0  0  0  0  0  0  0
  -11.5800    5.9330    0.6060 C   0  0  0  0  0  0  0  0  0  0  0  0
   -9.5310    7.3810    0.6380 C   0  0  0  0  0  0  0  0  0  0  0  0
   -8.3340    7.9450   -0.1510 C   0  0  0  0  0  0  0  0  0  0  0  0
   -8.0410    7.0900   -1.3880 C   0  0  2  0  0  0  0  0  0  0  0  0
   -7.6400    5.6570   -0.8950 C   0  0  0  0  0  0  0  0  0  0  0  0
   -5.1727    5.6885   -0.6108 H   0  0  0  0  0  0  0  0  0  0  0  0
   -6.0170    5.3128   -2.1512 H   0  0  0  0  0  0  0  0  0  0  0  0
   -4.2501    5.6363   -2.1512 H   0  0  0  0  0  0  0  0  0  0  0  0
   -4.8047    7.7446   -2.6931 H   0  0  0  0  0  0  0  0  0  0  0  0
   -5.7427    9.1750   -0.7108 H   0  0  0  0  0  0  0  0  0  0  0  0
   -5.5127    7.6207    0.2247 H   0  0  0  0  0  0  0  0  0  0  0  0
   -3.2449    7.7217    0.1341 H   0  0  0  0  0  0  0  0  0  0  0  0
   -3.2432    8.6436   -1.4271 H   0  0  0  0  0  0  0  0  0  0  0  0
   -4.3298    9.5768    1.0014 H   0  0  0  0  0  0  0  0  0  0  0  0
   -0.2668    9.5194    0.8435 H   0  0  0  0  0  0  0  0  0  0  0  0
   -1.1592    8.9622   -0.6125 H   0  0  0  0  0  0  0  0  0  0  0  0
   -0.3538   10.5678   -0.6125 H   0  0  0  0  0  0  0  0  0  0  0  0
   -2.0804   10.8908    2.6171 H   0  0  0  0  0  0  0  0  0  0  0  0
   -0.9995   11.9036    1.6009 H   0  0  0  0  0  0  0  0  0  0  0  0
   -2.7710   12.2012    1.6009 H   0  0  0  0  0  0  0  0  0  0  0  0
   -6.9535    8.6997   -2.3869 H   0  0  0  0  0  0  0  0  0  0  0  0
   -7.1511    7.5766   -4.5172 H   0  0  0  0  0  0  0  0  0  0  0  0
   -6.5778    6.0351   -3.8444 H   0  0  0  0  0  0  0  0  0  0  0  0
   -9.2932    6.6646   -4.4746 H   0  0  0  0  0  0  0  0  0  0  0  0
   -8.8029    5.3017   -3.4723 H   0  0  0  0  0  0  0  0  0  0  0  0
   -9.8451    9.2256   -1.9973 H   0  0  0  0  0  0  0  0  0  0  0  0
   -8.8450    8.9519   -3.4641 H   0  0  0  0  0  0  0  0  0  0  0  0
  -10.5827    8.4968   -3.4641 H   0  0  0  0  0  0  0  0  0  0  0  0
  -10.1291    5.4252   -1.4470 H   0  0  0  0  0  0  0  0  0  0  0  0
  -11.4657    6.1855   -3.5154 H   0  0  0  0  0  0  0  0  0  0  0  0
  -12.3047    5.4191   -2.0672 H   0  0  0  0  0  0  0  0  0  0  0  0
  -13.5167    7.4900   -3.1549 H   0  0  0  0  0  0  0  0  0  0  0  0
  -10.9979    9.1431   -0.4685 H   0  0  0  0  0  0  0  0  0  0  0  0
  -13.1893    7.8240    1.2493 H   0  0  0  0  0  0  0  0  0  0  0  0
  -11.7340    8.7377    1.8477 H   0  0  0  0  0  0  0  0  0  0  0  0
  -13.8010   10.0935    1.9549 H   0  0  0  0  0  0  0  0  0  0  0  0
  -12.5617   10.7816    0.8339 H   0  0  0  0  0  0  0  0  0  0  0  0
  -14.7180   10.9512   -0.2051 H   0  0  0  0  0  0  0  0  0  0  0  0
  -14.9900    8.4570    0.9230 H   0  0  0  0  0  0  0  0  0  0  0  0
  -12.4068   11.3838   -1.0839 H   0  0  0  0  0  0  0  0  0  0  0  0
  -11.9355   10.4972   -2.5733 H   0  0  0  0  0  0  0  0  0  0  0  0
  -13.3989   11.5390   -2.5733 H   0  0  0  0  0  0  0  0  0  0  0  0
  -15.7518    9.4163   -2.0377 H   0  0  0  0  0  0  0  0  0  0  0  0
  -14.8142   10.4219   -3.1937 H   0  0  0  0  0  0  0  0  0  0  0  0
  -14.6196    8.6362   -3.1937 H   0  0  0  0  0  0  0  0  0  0  0  0
  -11.4630    6.1074    1.6858 H   0  0  0  0  0  0  0  0  0  0  0  0
  -12.6484    5.9527    0.3451 H   0  0  0  0  0  0  0  0  0  0  0  0
  -11.1569    4.9517    0.3451 H   0  0  0  0  0  0  0  0  0  0  0  0
   -9.8027    8.1215    1.4047 H   0  0  0  0  0  0  0  0  0  0  0  0
   -9.1855    6.4140    1.0325 H   0  0  0  0  0  0  0  0  0  0  0  0
   -8.5650    8.9721   -0.4699 H   0  0  0  0  0  0  0  0  0  0  0  0
   -7.4479    7.9344    0.5007 H   0  0  0  0  0  0  0  0  0  0  0  0
   -7.6341    5.6359    0.2048 H   0  0  0  0  0  0  0  0  0  0  0  0
   -8.3672    4.9227   -1.2719 H   0  0  0  0  0  0  0  0  0  0  0  0
   -6.6373    5.4068   -1.2719 H   0  0  0  0  0  0  0  0  0  0  0  0
  1  2  1  0
  2  3  1  0
  3  4  1  0
  4  5  1  0
  5  6  1  0
  6  7  1  0
  7  8  1  0
  7  9  1  0
  2 10  1  0
 10 11  1  0
 11 12  1  0
 12 13  1  0
 13 14  1  6
 13 15  1  0
 15 16  1  0
 16 17  1  0
 17 18  2  0
 18 19  1  0
 19 20  1  0
 20 21  1  0
 21 22  1  0
 22 23  1  0
 22 24  1  0
 24 25  1  0
 24 26  1  0
 19 27  1  0
 27 28  1  1
 27 29  1  0
 29 30  1  0
 30 31  1  0
 31 32  1  1
  7  5  1  0
 31 10  1  0
 31 13  1  0
 27 15  1  0
 24 18  1  0
  1 33  1  0
  1 34  1  0
  1 35  1  0
  2 36  1  6
  3 37  1  0
  3 38  1  0
  4 39  1  0
  4 40  1  0
  5 41  1  1
  8 42  1  0
  8 43  1  0
  8 44  1  0
  9 45  1  0
  9 46  1  0
  9 47  1  0
 10 48  1  6
 11 49  1  0
 11 50  1  0
 12 51  1  0
 12 52  1  0
 14 53  1  0
 14 54  1  0
 14 55  1  0
 15 56  1  1
 16 57  1  0
 16 58  1  0
 17 59  1  0
 19 60  1  6
 20 61  1  0
 20 62  1  0
 21 63  1  0
 21 64  1  0
 22 65  1  6
 23 66  1  0
 25 67  1  0
 25 68  1  0
 25 69  1  0
 26 70  1  0
 26 71  1  0
 26 72  1  0
 28 73  1  0
 28 74  1  0
 28 75  1  0
 29 76  1  0
 29 77  1  0
 30 78  1  0
 30 79  1  0
 32 80  1  0
 32 81  1  0
 32 82  1  0
M  END
>  <meeko>  (14) 
{"is_sidechain": [false], "intermolecular_energy": 2.731, "internal_energy": -0.839}

$$$$
EPH_relaxed_0001_pdb2pqr_Repair_357_r2_0001_out
     RDKit          3D

 82 86  0  0  0  0  0  0  0  0999 V2000
    2.6990   18.8250   -1.2550 C   0  0  0  0  0  0  0  0  0  0  0  0
    2.3010   17.7710   -2.2920 C   0  0  2  0  0  0  0  0  0  0  0  0
    0.8350   17.9270   -2.7450 C   0  0  0  0  0  0  0  0  0  0  0  0
    0.1900   19.2410   -2.2990 C   0  0  0  0  0  0  0  0  0  0  0  0
   -1.0980   19.0060   -1.5680 C   0  0  2  0  0  0  0  0  0  0  0  0
   -1.8460   20.1940   -1.2760 O   0  0  0  0  0  0  0  0  0  0  0  0
   -1.3470   19.4650   -0.1430 C   0  0  0  0  0  0  0  0  0  0  0  0
   -0.2980   20.1940    0.6360 C   0  0  0  0  0  0  0  0  0  0  0  0
   -2.4150   18.7810    0.6520 C   0  0  0  0  0  0  0  0  0  0  0  0
    2.5260   16.3740   -1.7260 C   0  0  1  0  0  0  0  0  0  0  0  0
    3.4930   16.3700   -0.5130 C   0  0  0  0  0  0  0  0  0  0  0  0
    2.9940   15.2650    0.4540 C   0  0  0  0  0  0  0  0  0  0  0  0
    1.9700   14.4560   -0.3750 C   0  0  1  0  0  0  0  0  0  0  0  0
    2.8320   13.4840   -1.2400 C   0  0  0  0  0  0  0  0  0  0  0  0
    0.8760   13.6880    0.4370 C   0  0  2  0  0  0  0  0  0  0  0  0
    1.4090   12.5970    1.3810 C   0  0  0  0  0  0  0  0  0  0  0  0
    1.5200   11.2340    0.7820 C   0  0  0  0  0  0  0  0  0  0  0  0
    0.9430   10.8350   -0.3670 C   0  0  0  0  0  0  0  0  0  0  0  0
    0.0030   11.7680   -1.1410 C   0  0  1  0  0  0  0  0  0  0  0  0
   -1.2740   10.9890   -1.5540 C   0  0  0  0  0  0  0  0  0  0  0  0
   -0.9560    9.7110   -2.3240 C   0  0  0  0  0  0  0  0  0  0  0  0
   -0.0670    8.7840   -1.4980 C   0  0  2  0  0  0  0  0  0  0  0  0
   -0.8100    8.3180   -0.3680 O   0  0  0  0  0  0  0  0  0  0  0  0
    1.2460    9.4630   -1.0170 C   0  0  0  0  0  0  0  0  0  0  0  0
    2.1860    9.6940   -2.2260 C   0  0  0  0  0  0  0  0  0  0  0  0
    1.9820    8.4680   -0.0800 C   0  0  0  0  0  0  0  0  0  0  0  0
   -0.3280   13.1550   -0.4410 C   0  0  1  0  0  0  0  0  0  0  0  0
   -1.5430   12.9880    0.5230 C   0  0  0  0  0  0  0  0  0  0  0  0
   -0.7730   14.1920   -1.5400 C   0  0  0  0  0  0  0  0  0  0  0  0
    0.3450   15.0050   -2.2210 C   0  0  0  0  0  0  0  0  0  0  0  0
    1.2870   15.6200   -1.1820 C   0  0  2  0  0  0  0  0  0  0  0  0
    0.4520   16.6190   -0.3100 C   0  0  0  0  0  0  0  0  0  0  0  0
    2.5462   18.4203   -0.2436 H   0  0  0  0  0  0  0  0  0  0  0  0
    3.7586   19.0886   -1.3882 H   0  0  0  0  0  0  0  0  0  0  0  0
    2.0781   19.7232   -1.3882 H   0  0  0  0  0  0  0  0  0  0  0  0
    2.9374   17.9201   -3.1768 H   0  0  0  0  0  0  0  0  0  0  0  0
    0.8041   17.8803   -3.8436 H   0  0  0  0  0  0  0  0  0  0  0  0
    0.2646   17.1128   -2.2741 H   0  0  0  0  0  0  0  0  0  0  0  0
    0.8862   19.7719   -1.6331 H   0  0  0  0  0  0  0  0  0  0  0  0
   -0.0289   19.8378   -3.1967 H   0  0  0  0  0  0  0  0  0  0  0  0
   -1.2290   18.0326   -2.0632 H   0  0  0  0  0  0  0  0  0  0  0  0
   -0.4843   20.0645    1.7123 H   0  0  0  0  0  0  0  0  0  0  0  0
    0.6933   19.7892    0.3842 H   0  0  0  0  0  0  0  0  0  0  0  0
   -0.3318   21.2643    0.3842 H   0  0  0  0  0  0  0  0  0  0  0  0
   -2.2128   18.9105    1.7255 H   0  0  0  0  0  0  0  0  0  0  0  0
   -3.3929   19.2212    0.4074 H   0  0  0  0  0  0  0  0  0  0  0  0
   -2.4242   17.7086    0.4074 H   0  0  0  0  0  0  0  0  0  0  0  0
    2.9087   15.8694   -2.6254 H   0  0  0  0  0  0  0  0  0  0  0  0
    4.5174   16.1474   -0.8461 H   0  0  0  0  0  0  0  0  0  0  0  0
    3.5078   17.3516   -0.0168 H   0  0  0  0  0  0  0  0  0  0  0  0
    3.8281   14.6234    0.7743 H   0  0  0  0  0  0  0  0  0  0  0  0
    2.5527   15.6813    1.3716 H   0  0  0  0  0  0  0  0  0  0  0  0
    3.4159   12.8256   -0.5800 H   0  0  0  0  0  0  0  0  0  0  0  0
    2.1719   12.8747   -1.8748 H   0  0  0  0  0  0  0  0  0  0  0  0
    3.5158   14.0666   -1.8748 H   0  0  0  0  0  0  0  0  0  0  0  0
    0.4713   14.4754    1.0898 H   0  0  0  0  0  0  0  0  0  0  0  0
    2.4098   12.9012    1.7213 H   0  0  0  0  0  0  0  0  0  0  0  0
    0.6737   12.5128    2.1947 H   0  0  0  0  0  0  0  0  0  0  0  0
    2.1245   10.4930    1.3256 H   0  0  0  0  0  0  0  0  0  0  0  0
    0.5562   12.0813   -2.0387 H   0  0  0  0  0  0  0  0  0  0  0  0
   -1.8342   10.7232   -0.6454 H   0  0  0  0  0  0  0  0  0  0  0  0
   -1.8629   11.6403   -2.2166 H   0  0  0  0  0  0  0  0  0  0  0  0
   -1.8955    9.1909   -2.5623 H   0  0  0  0  0  0  0  0  0  0  0  0
   -0.4213    9.9805   -3.2467 H   0  0  0  0  0  0  0  0  0  0  0  0
    0.2320    7.9484   -2.1479 H   0  0  0  0  0  0  0  0  0  0  0  0
   -1.4860    7.7000   -0.6950 H   0  0  0  0  0  0  0  0  0  0  0  0
    3.1947    9.9419   -1.8640 H   0  0  0  0  0  0  0  0  0  0  0  0
    2.2298    8.7799   -2.8363 H   0  0  0  0  0  0  0  0  0  0  0  0
    1.8011   10.5243   -2.8363 H   0  0  0  0  0  0  0  0  0  0  0  0
    1.7836    8.7363    0.9682 H   0  0  0  0  0  0  0  0  0  0  0  0
    1.6199    7.4472   -0.2721 H   0  0  0  0  0  0  0  0  0  0  0  0
    3.0641    8.5154   -0.2721 H   0  0  0  0  0  0  0  0  0  0  0  0
   -1.1937   13.0360    1.5649 H   0  0  0  0  0  0  0  0  0  0  0  0
   -2.2684   13.7949    0.3419 H   0  0  0  0  0  0  0  0  0  0  0  0
   -2.0238   12.0153    0.3419 H   0  0  0  0  0  0  0  0  0  0  0  0
   -1.3061   13.6363   -2.3255 H   0  0  0  0  0  0  0  0  0  0  0  0
   -1.3838   14.9342   -1.0051 H   0  0  0  0  0  0  0  0  0  0  0  0
    0.9220   14.3406   -2.8810 H   0  0  0  0  0  0  0  0  0  0  0  0
   -0.1163   15.8181   -2.8006 H   0  0  0  0  0  0  0  0  0  0  0  0
    0.6267   16.4100    0.7557 H   0  0  0  0  0  0  0  0  0  0  0  0
    0.7607   17.6501   -0.5368 H   0  0  0  0  0  0  0  0  0  0  0  0
   -0.6176   16.4982   -0.5368 H   0  0  0  0  0  0  0  0  0  0  0  0
  1  2  1  0
  2  3  1  0
  3  4  1  0
  4  5  1  0
  5  6  1  0
  6  7  1  0
  7  8  1  0
  7  9  1  0
  2 10  1  0
 10 11  1  0
 11 12  1  0
 12 13  1  0
 13 14  1  6
 13 15  1  0
 15 16  1  0
 16 17  1  0
 17 18  2  0
 18 19  1  0
 19 20  1  0
 20 21  1  0
 21 22  1  0
 22 23  1  0
 22 24  1  0
 24 25  1  0
 24 26  1  0
 19 27  1  0
 27 28  1  1
 27 29  1  0
 29 30  1  0
 30 31  1  0
 31 32  1  1
  7  5  1  0
 31 10  1  0
 31 13  1  0
 27 15  1  0
 24 18  1  0
  1 33  1  0
  1 34  1  0
  1 35  1  0
  2 36  1  6
  3 37  1  0
  3 38  1  0
  4 39  1  0
  4 40  1  0
  5 41  1  1
  8 42  1  0
  8 43  1  0
  8 44  1  0
  9 45  1  0
  9 46  1  0
  9 47  1  0
 10 48  1  6
 11 49  1  0
 11 50  1  0
 12 51  1  0
 12 52  1  0
 14 53  1  0
 14 54  1  0
 14 55  1  0
 15 56  1  1
 16 57  1  0
 16 58  1  0
 17 59  1  0
 19 60  1  6
 20 61  1  0
 20 62  1  0
 21 63  1  0
 21 64  1  0
 22 65  1  6
 23 66  1  0
 25 67  1  0
 25 68  1  0
 25 69  1  0
 26 70  1  0
 26 71  1  0
 26 72  1  0
 28 73  1  0
 28 74  1  0
 28 75  1  0
 29 76  1  0
 29 77  1  0
 30 78  1  0
 30 79  1  0
 32 80  1  0
 32 81  1  0
 32 82  1  0
M  END
>  <meeko>  (15) 
{"is_sidechain": [false], "intermolecular_energy": 2.731, "internal_energy": -0.839}

$$$$
EPH_relaxed_0001_pdb2pqr_Repair_357_r2_0001_out
     RDKit          3D

 82 86  0  0  0  0  0  0  0  0999 V2000
   -1.1330   16.5070   -6.0610 C   0  0  0  0  0  0  0  0  0  0  0  0
    0.0750   15.7380   -6.6050 C   0  0  2  0  0  0  0  0  0  0  0  0
   -0.1120   15.3330   -8.0810 C   0  0  0  0  0  0  0  0  0  0  0  0
    0.4500   16.3530   -9.0750 C   0  0  0  0  0  0  0  0  0  0  0  0
    1.8590   16.0280   -9.4660 C   0  0  2  0  0  0  0  0  0  0  0  0
    2.3050   16.6550  -10.6760 O   0  0  0  0  0  0  0  0  0  0  0  0
    2.2210   15.2210  -10.6990 C   0  0  0  0  0  0  0  0  0  0  0  0
    1.1670   14.6880  -11.6190 C   0  0  0  0  0  0  0  0  0  0  0  0
    3.5530   14.5400  -10.7430 C   0  0  0  0  0  0  0  0  0  0  0  0
    0.3290   14.5010   -5.7530 C   0  0  1  0  0  0  0  0  0  0  0  0
    1.4160   13.5720   -6.3580 C   0  0  0  0  0  0  0  0  0  0  0  0
    2.1900   12.9540   -5.1650 C   0  0  0  0  0  0  0  0  0  0  0  0
    1.3230   13.2800   -3.9260 C   0  0  1  0  0  0  0  0  0  0  0  0
    0.2020   12.1930   -3.9240 C   0  0  0  0  0  0  0  0  0  0  0  0
    2.0720   13.3390   -2.5550 C   0  0  2  0  0  0  0  0  0  0  0  0
    2.7250   12.0180   -2.1110 C   0  0  0  0  0  0  0  0  0  0  0  0
    1.8610   11.1270   -1.2810 C   0  0  0  0  0  0  0  0  0  0  0  0
    0.7190   11.4930   -0.6700 C   0  0  0  0  0  0  0  0  0  0  0  0
    0.2410   12.9510   -0.7010 C   0  0  1  0  0  0  0  0  0  0  0  0
   -0.1890   13.3850    0.7240 C   0  0  0  0  0  0  0  0  0  0  0  0
   -1.2230   12.4450    1.3350 C   0  0  0  0  0  0  0  0  0  0  0  0
   -0.6890   11.0170    1.4030 C   0  0  2  0  0  0  0  0  0  0  0  0
    0.3950   10.9740    2.3360 O   0  0  0  0  0  0  0  0  0  0  0  0
   -0.2160   10.4740    0.0260 C   0  0  0  0  0  0  0  0  0  0  0  0
   -1.4420   10.2360   -0.8890 C   0  0  0  0  0  0  0  0  0  0  0  0
    0.4290    9.0810    0.2580 C   0  0  0  0  0  0  0  0  0  0  0  0
    1.2300   13.9900   -1.3840 C   0  0  1  0  0  0  0  0  0  0  0  0
    2.2580   14.5140   -0.3350 C   0  0  0  0  0  0  0  0  0  0  0  0
    0.4080   15.2440   -1.8650 C   0  0  0  0  0  0  0  0  0  0  0  0
   -0.2070   15.1720   -3.2750 C   0  0  0  0  0  0  0  0  0  0  0  0
    0.8340   14.7250   -4.3050 C   0  0  2  0  0  0  0  0  0  0  0  0
    1.9640   15.8100   -4.3460 C   0  0  0  0  0  0  0  0  0  0  0  0
   -1.1115   16.4933   -4.9613 H   0  0  0  0  0  0  0  0  0  0  0  0
   -1.0952   17.5476   -6.4155 H   0  0  0  0  0  0  0  0  0  0  0  0
   -2.0598   16.0323   -6.4155 H   0  0  0  0  0  0  0  0  0  0  0  0
    0.9454   16.4087   -6.5549 H   0  0  0  0  0  0  0  0  0  0  0  0
    0.3972   14.3718   -8.2446 H   0  0  0  0  0  0  0  0  0  0  0  0
   -1.1951   15.2704   -8.2624 H   0  0  0  0  0  0  0  0  0  0  0  0
   -0.1789   16.3550   -9.9775 H   0  0  0  0  0  0  0  0  0  0  0  0
    0.4479   17.3406   -8.5906 H   0  0  0  0  0  0  0  0  0  0  0  0
    2.1548   15.9354   -8.4106 H   0  0  0  0  0  0  0  0  0  0  0  0
    0.3401   14.2699  -11.0261 H   0  0  0  0  0  0  0  0  0  0  0  0
    0.7879   15.5028  -12.2534 H   0  0  0  0  0  0  0  0  0  0  0  0
    1.5985   13.8998  -12.2534 H   0  0  0  0  0  0  0  0  0  0  0  0
    3.9065   14.3593   -9.7171 H   0  0  0  0  0  0  0  0  0  0  0  0
    3.4569   13.5804  -11.2721 H   0  0  0  0  0  0  0  0  0  0  0  0
    4.2746   15.1798  -11.2721 H   0  0  0  0  0  0  0  0  0  0  0  0
   -0.6862   14.0778   -5.7357 H   0  0  0  0  0  0  0  0  0  0  0  0
    0.9455   12.7780   -6.9565 H   0  0  0  0  0  0  0  0  0  0  0  0
    2.0922   14.1335   -7.0194 H   0  0  0  0  0  0  0  0  0  0  0  0
    2.2936   11.8662   -5.2911 H   0  0  0  0  0  0  0  0  0  0  0  0
    3.2104   13.3553   -5.0772 H   0  0  0  0  0  0  0  0  0  0  0  0
   -0.0603   11.9387   -2.8864 H   0  0  0  0  0  0  0  0  0  0  0  0
   -0.6869   12.5821   -4.4421 H   0  0  0  0  0  0  0  0  0  0  0  0
    0.5635   11.2925   -4.4421 H   0  0  0  0  0  0  0  0  0  0  0  0
    2.9038   14.0260   -2.7698 H   0  0  0  0  0  0  0  0  0  0  0  0
    3.0171   11.4627   -3.0145 H   0  0  0  0  0  0  0  0  0  0  0  0
    3.5754   12.2985   -1.4722 H   0  0  0  0  0  0  0  0  0  0  0  0
    2.1853   10.0830   -1.1585 H   0  0  0  0  0  0  0  0  0  0  0  0
   -0.6280   12.9724   -1.3751 H   0  0  0  0  0  0  0  0  0  0  0  0
    0.7002   13.3997    1.3714 H   0  0  0  0  0  0  0  0  0  0  0  0
   -0.6490   14.3811    0.6449 H   0  0  0  0  0  0  0  0  0  0  0  0
   -1.4647   12.7878    2.3519 H   0  0  0  0  0  0  0  0  0  0  0  0
   -2.1227   12.4537    0.7022 H   0  0  0  0  0  0  0  0  0  0  0  0
   -1.5174   10.3699    1.7272 H   0  0  0  0  0  0  0  0  0  0  0  0
    1.0220   11.6760    2.0910 H   0  0  0  0  0  0  0  0  0  0  0  0
   -2.3340   10.0628   -0.2691 H   0  0  0  0  0  0  0  0  0  0  0  0
   -1.6027   11.1197   -1.5240 H   0  0  0  0  0  0  0  0  0  0  0  0
   -1.2604    9.3564   -1.5240 H   0  0  0  0  0  0  0  0  0  0  0  0
    0.5162    8.8926    1.3382 H   0  0  0  0  0  0  0  0  0  0  0  0
   -0.2011    8.3043   -0.1999 H   0  0  0  0  0  0  0  0  0  0  0  0
    1.4289    9.0591   -0.1999 H   0  0  0  0  0  0  0  0  0  0  0  0
    1.8782   14.3204    0.6790 H   0  0  0  0  0  0  0  0  0  0  0  0
    3.2184   13.9954   -0.4720 H   0  0  0  0  0  0  0  0  0  0  0  0
    2.4026   15.5958   -0.4720 H   0  0  0  0  0  0  0  0  0  0  0  0
   -0.4144   15.3968   -1.1507 H   0  0  0  0  0  0  0  0  0  0  0  0
    1.1375   16.0660   -1.9108 H   0  0  0  0  0  0  0  0  0  0  0  0
   -1.0388   14.4522   -3.2684 H   0  0  0  0  0  0  0  0  0  0  0  0
   -0.5668   16.1738   -3.5522 H   0  0  0  0  0  0  0  0  0  0  0  0
    2.2480   16.0827   -3.3189 H   0  0  0  0  0  0  0  0  0  0  0  0
    2.8407   15.4066   -4.8740 H   0  0  0  0  0  0  0  0  0  0  0  0
    1.5966   16.7023   -4.8740 H   0  0  0  0  0  0  0  0  0  0  0  0
  1  2  1  0
  2  3  1  0
  3  4  1  0
  4  5  1  0
  5  6  1  0
  6  7  1  0
  7  8  1  0
  7  9  1  0
  2 10  1  0
 10 11  1  0
 11 12  1  0
 12 13  1  0
 13 14  1  1
 13 15  1  0
 15 16  1  0
 16 17  1  0
 17 18  2  0
 18 19  1  0
 19 20  1  0
 20 21  1  0
 21 22  1  0
 22 23  1  0
 22 24  1  0
 24 25  1  0
 24 26  1  0
 19 27  1  0
 27 28  1  1
 27 29  1  0
 29 30  1  0
 30 31  1  0
 31 32  1  6
  7  5  1  0
 31 10  1  0
 31 13  1  0
 27 15  1  0
 24 18  1  0
  1 33  1  0
  1 34  1  0
  1 35  1  0
  2 36  1  6
  3 37  1  0
  3 38  1  0
  4 39  1  0
  4 40  1  0
  5 41  1  1
  8 42  1  0
  8 43  1  0
  8 44  1  0
  9 45  1  0
  9 46  1  0
  9 47  1  0
 10 48  1  1
 11 49  1  0
 11 50  1  0
 12 51  1  0
 12 52  1  0
 14 53  1  0
 14 54  1  0
 14 55  1  0
 15 56  1  6
 16 57  1  0
 16 58  1  0
 17 59  1  0
 19 60  1  6
 20 61  1  0
 20 62  1  0
 21 63  1  0
 21 64  1  0
 22 65  1  1
 23 66  1  0
 25 67  1  0
 25 68  1  0
 25 69  1  0
 26 70  1  0
 26 71  1  0
 26 72  1  0
 28 73  1  0
 28 74  1  0
 28 75  1  0
 29 76  1  0
 29 77  1  0
 30 78  1  0
 30 79  1  0
 32 80  1  0
 32 81  1  0
 32 82  1  0
M  END
>  <meeko>  (16) 
{"is_sidechain": [false], "intermolecular_energy": 2.731, "internal_energy": -0.839}

$$$$
EPH_relaxed_0001_pdb2pqr_Repair_357_r2_0001_out
     RDKit          3D

 82 86  0  0  0  0  0  0  0  0999 V2000
    1.0380   15.7990   -4.6200 C   0  0  0  0  0  0  0  0  0  0  0  0
    1.5020   14.4020   -5.0410 C   0  0  2  0  0  0  0  0  0  0  0  0
    1.3750   14.1810   -6.5620 C   0  0  0  0  0  0  0  0  0  0  0  0
    1.2290   15.4790   -7.3620 C   0  0  0  0  0  0  0  0  0  0  0  0
    2.2260   15.5570   -8.4770 C   0  0  2  0  0  0  0  0  0  0  0  0
    2.1330   16.7400   -9.2820 O   0  0  0  0  0  0  0  0  0  0  0  0
    1.8460   15.4980   -9.9450 C   0  0  0  0  0  0  0  0  0  0  0  0
    0.4210   15.3540  -10.3770 C   0  0  0  0  0  0  0  0  0  0  0  0
    2.8890   15.0910  -10.9380 C   0  0  0  0  0  0  0  0  0  0  0  0
    0.7040   13.3410   -4.2920 C   0  0  1  0  0  0  0  0  0  0  0  0
    0.8480   11.9300   -4.9220 C   0  0  0  0  0  0  0  0  0  0  0  0
    0.8190   10.9130   -3.7520 C   0  0  0  0  0  0  0  0  0  0  0  0
    0.3310   11.7330   -2.5350 C   0  0  1  0  0  0  0  0  0  0  0  0
   -1.2210   11.7920   -2.6870 C   0  0  0  0  0  0  0  0  0  0  0  0
    0.7530   11.1970   -1.1270 C   0  0  2  0  0  0  0  0  0  0  0  0
    0.2110    9.8020   -0.7710 C   0  0  0  0  0  0  0  0  0  0  0  0
   -1.1070    9.7890   -0.0700 C   0  0  0  0  0  0  0  0  0  0  0  0
   -1.6930   10.8520    0.5130 C   0  0  0  0  0  0  0  0  0  0  0  0
   -0.9740   12.2050    0.5880 C   0  0  1  0  0  0  0  0  0  0  0  0
   -1.1020   12.7800    2.0240 C   0  0  0  0  0  0  0  0  0  0  0  0
   -2.5500   12.8620    2.4940 C   0  0  0  0  0  0  0  0  0  0  0  0
   -3.2140   11.4870    2.4610 C   0  0  2  0  0  0  0  0  0  0  0  0
   -2.5900   10.6500    3.4390 O   0  0  0  0  0  0  0  0  0  0  0  0
   -3.1390   10.8050    1.0660 C   0  0  0  0  0  0  0  0  0  0  0  0
   -4.0640   11.5510    0.0720 C   0  0  0  0  0  0  0  0  0  0  0  0
   -3.7170    9.3710    1.2040 C   0  0  0  0  0  0  0  0  0  0  0  0
    0.5220   12.2260    0.0530 C   0  0  1  0  0  0  0  0  0  0  0  0
    1.5020   11.8180    1.1960 C   0  0  0  0  0  0  0  0  0  0  0  0
    0.9020   13.6980   -0.3540 C   0  0  0  0  0  0  0  0  0  0  0  0
    0.5680   14.1290   -1.7950 C   0  0  0  0  0  0  0  0  0  0  0  0
    1.0690   13.0940   -2.8060 C   0  0  2  0  0  0  0  0  0  0  0  0
    2.6300   13.0280   -2.6920 C   0  0  0  0  0  0  0  0  0  0  0  0
    1.0168   15.8629   -3.5221 H   0  0  0  0  0  0  0  0  0  0  0  0
    1.7343   16.5520   -5.0177 H   0  0  0  0  0  0  0  0  0  0  0  0
    0.0296   15.9858   -5.0177 H   0  0  0  0  0  0  0  0  0  0  0  0
    2.5679   14.3163   -4.7831 H   0  0  0  0  0  0  0  0  0  0  0  0
    2.2755   13.6559   -6.9132 H   0  0  0  0  0  0  0  0  0  0  0  0
    0.4578   13.5966   -6.7268 H   0  0  0  0  0  0  0  0  0  0  0  0
    0.2152   15.5242   -7.7864 H   0  0  0  0  0  0  0  0  0  0  0  0
    1.4090   16.3239   -6.6810 H   0  0  0  0  0  0  0  0  0  0  0  0
    2.9677   15.0019   -7.8839 H   0  0  0  0  0  0  0  0  0  0  0  0
   -0.2262   15.2886   -9.4900 H   0  0  0  0  0  0  0  0  0  0  0  0
    0.1304   16.2274  -10.9793 H   0  0  0  0  0  0  0  0  0  0  0  0
    0.3110   14.4402  -10.9793 H   0  0  0  0  0  0  0  0  0  0  0  0
    3.7856   14.7411  -10.4054 H   0  0  0  0  0  0  0  0  0  0  0  0
    2.4975   14.2797  -11.5692 H   0  0  0  0  0  0  0  0  0  0  0  0
    3.1505   15.9531  -11.5692 H   0  0  0  0  0  0  0  0  0  0  0  0
   -0.3017   13.7808   -4.3645 H   0  0  0  0  0  0  0  0  0  0  0  0
    0.0141   11.7366   -5.6128 H   0  0  0  0  0  0  0  0  0  0  0  0
    1.7834   11.8467   -5.4948 H   0  0  0  0  0  0  0  0  0  0  0  0
    0.1227   10.0898   -3.9701 H   0  0  0  0  0  0  0  0  0  0  0  0
    1.8015   10.4504   -3.5767 H   0  0  0  0  0  0  0  0  0  0  0  0
   -1.6866   11.8097   -1.6906 H   0  0  0  0  0  0  0  0  0  0  0  0
   -1.5011   12.7014   -3.2388 H   0  0  0  0  0  0  0  0  0  0  0  0
   -1.5693   10.9064   -3.2388 H   0  0  0  0  0  0  0  0  0  0  0  0
    1.8408   11.0752   -1.2362 H   0  0  0  0  0  0  0  0  0  0  0  0
    0.1048    9.2303   -1.7047 H   0  0  0  0  0  0  0  0  0  0  0  0
    0.9343    9.3655   -0.0665 H   0  0  0  0  0  0  0  0  0  0  0  0
   -1.6447    8.8304   -0.0260 H   0  0  0  0  0  0  0  0  0  0  0  0
   -1.4902   12.8640   -0.1256 H   0  0  0  0  0  0  0  0  0  0  0  0
   -0.5433   12.1313    2.7147 H   0  0  0  0  0  0  0  0  0  0  0  0
   -0.6966   13.8025    2.0116 H   0  0  0  0  0  0  0  0  0  0  0  0
   -2.5728   13.2480    3.5238 H   0  0  0  0  0  0  0  0  0  0  0  0
   -3.1005   13.5337    1.8188 H   0  0  0  0  0  0  0  0  0  0  0  0
   -4.2816   11.6304    2.6841 H   0  0  0  0  0  0  0  0  0  0  0  0
   -2.4360    9.7830    3.0290 H   0  0  0  0  0  0  0  0  0  0  0  0
   -4.8009   12.1453    0.6322 H   0  0  0  0  0  0  0  0  0  0  0  0
   -3.4601   12.2178   -0.5610 H   0  0  0  0  0  0  0  0  0  0  0  0
   -4.5878   10.8196   -0.5610 H   0  0  0  0  0  0  0  0  0  0  0  0
   -3.8191    9.1178    2.2696 H   0  0  0  0  0  0  0  0  0  0  0  0
   -4.7038    9.3253    0.7201 H   0  0  0  0  0  0  0  0  0  0  0  0
   -3.0377    8.6537    0.7201 H   0  0  0  0  0  0  0  0  0  0  0  0
    1.0308   12.0142    2.1704 H   0  0  0  0  0  0  0  0  0  0  0  0
    1.7379   10.7469    1.1118 H   0  0  0  0  0  0  0  0  0  0  0  0
    2.4283   12.4052    1.1118 H   0  0  0  0  0  0  0  0  0  0  0  0
    0.3722   14.3791    0.3282 H   0  0  0  0  0  0  0  0  0  0  0  0
    1.9992   13.7405   -0.2881 H   0  0  0  0  0  0  0  0  0  0  0  0
   -0.5224   14.2325   -1.8962 H   0  0  0  0  0  0  0  0  0  0  0  0
    1.0661   15.0884   -1.9988 H   0  0  0  0  0  0  0  0  0  0  0  0
    2.9200   13.0157   -1.6310 H   0  0  0  0  0  0  0  0  0  0  0  0
    2.9951   12.1136   -3.1825 H   0  0  0  0  0  0  0  0  0  0  0  0
    3.0710   13.9083   -3.1825 H   0  0  0  0  0  0  0  0  0  0  0  0
  1  2  1  0
  2  3  1  0
  3  4  1  0
  4  5  1  0
  5  6  1  0
  6  7  1  0
  7  8  1  0
  7  9  1  0
  2 10  1  0
 10 11  1  0
 11 12  1  0
 12 13  1  0
 13 14  1  1
 13 15  1  0
 15 16  1  0
 16 17  1  0
 17 18  2  0
 18 19  1  0
 19 20  1  0
 20 21  1  0
 21 22  1  0
 22 23  1  0
 22 24  1  0
 24 25  1  0
 24 26  1  0
 19 27  1  0
 27 28  1  1
 27 29  1  0
 29 30  1  0
 30 31  1  0
 31 32  1  6
  7  5  1  0
 31 10  1  0
 31 13  1  0
 27 15  1  0
 24 18  1  0
  1 33  1  0
  1 34  1  0
  1 35  1  0
  2 36  1  1
  3 37  1  0
  3 38  1  0
  4 39  1  0
  4 40  1  0
  5 41  1  1
  8 42  1  0
  8 43  1  0
  8 44  1  0
  9 45  1  0
  9 46  1  0
  9 47  1  0
 10 48  1  1
 11 49  1  0
 11 50  1  0
 12 51  1  0
 12 52  1  0
 14 53  1  0
 14 54  1  0
 14 55  1  0
 15 56  1  6
 16 57  1  0
 16 58  1  0
 17 59  1  0
 19 60  1  6
 20 61  1  0
 20 62  1  0
 21 63  1  0
 21 64  1  0
 22 65  1  1
 23 66  1  0
 25 67  1  0
 25 68  1  0
 25 69  1  0
 26 70  1  0
 26 71  1  0
 26 72  1  0
 28 73  1  0
 28 74  1  0
 28 75  1  0
 29 76  1  0
 29 77  1  0
 30 78  1  0
 30 79  1  0
 32 80  1  0
 32 81  1  0
 32 82  1  0
M  END
>  <meeko>  (17) 
{"is_sidechain": [false], "intermolecular_energy": 2.731, "internal_energy": -0.839}

$$$$
EPH_relaxed_0001_pdb2pqr_Repair_357_r2_0001_out
     RDKit          3D

 82 86  0  0  0  0  0  0  0  0999 V2000
    1.8690   13.0300   -5.6810 C   0  0  0  0  0  0  0  0  0  0  0  0
    2.8330   12.2130   -4.8160 C   0  0  2  0  0  0  0  0  0  0  0  0
    3.7540   11.3140   -5.6640 C   0  0  0  0  0  0  0  0  0  0  0  0
    5.2000   11.8120   -5.7410 C   0  0  0  0  0  0  0  0  0  0  0  0
    6.1560   10.8370   -5.1230 C   0  0  2  0  0  0  0  0  0  0  0  0
    5.6880   10.2220   -3.9160 O   0  0  0  0  0  0  0  0  0  0  0  0
    6.8420   11.0680   -3.7900 C   0  0  0  0  0  0  0  0  0  0  0  0
    6.6010   12.3120   -2.9940 C   0  0  0  0  0  0  0  0  0  0  0  0
    8.1070   10.3230   -3.4980 C   0  0  0  0  0  0  0  0  0  0  0  0
    2.0470   11.3650   -3.8220 C   0  0  1  0  0  0  0  0  0  0  0  0
    2.9380   10.3280   -3.0880 C   0  0  0  0  0  0  0  0  0  0  0  0
    2.3790   10.2000   -1.6470 C   0  0  0  0  0  0  0  0  0  0  0  0
    1.0040   10.9050   -1.6980 C   0  0  1  0  0  0  0  0  0  0  0  0
    0.0320    9.8450   -2.3030 C   0  0  0  0  0  0  0  0  0  0  0  0
    0.4680   11.4720   -0.3430 C   0  0  2  0  0  0  0  0  0  0  0  0
    0.2120   10.4190    0.7500 C   0  0  0  0  0  0  0  0  0  0  0  0
   -1.1650    9.8430    0.7690 C   0  0  0  0  0  0  0  0  0  0  0  0
   -2.2360   10.3540    0.1350 C   0  0  0  0  0  0  0  0  0  0  0  0
   -2.1430   11.6870   -0.6190 C   0  0  1  0  0  0  0  0  0  0  0  0
   -3.3580   12.5780   -0.2490 C   0  0  0  0  0  0  0  0  0  0  0  0
   -4.6920   11.8710   -0.4750 C   0  0  0  0  0  0  0  0  0  0  0  0
   -4.7690   10.5810    0.3370 C   0  0  2  0  0  0  0  0  0  0  0  0
   -4.7970   10.9120    1.7280 O   0  0  0  0  0  0  0  0  0  0  0  0
   -3.5910    9.6080    0.0540 C   0  0  0  0  0  0  0  0  0  0  0  0
   -3.7350    9.0140   -1.3690 C   0  0  0  0  0  0  0  0  0  0  0  0
   -3.7130    8.4120    1.0370 C   0  0  0  0  0  0  0  0  0  0  0  0
   -0.7600   12.4590   -0.4940 C   0  0  1  0  0  0  0  0  0  0  0  0
   -0.7660   13.3590    0.7790 C   0  0  0  0  0  0  0  0  0  0  0  0
   -0.6000   13.4300   -1.7230 C   0  0  0  0  0  0  0  0  0  0  0  0
    0.0460   12.8420   -2.9930 C   0  0  0  0  0  0  0  0  0  0  0  0
    1.3450   12.1040   -2.6560 C   0  0  2  0  0  0  0  0  0  0  0  0
    2.3510   13.1500   -2.0650 C   0  0  0  0  0  0  0  0  0  0  0  0
    1.1913   13.6044   -5.0323 H   0  0  0  0  0  0  0  0  0  0  0  0
    2.4423   13.7214   -6.3160 H   0  0  0  0  0  0  0  0  0  0  0  0
    1.2809   12.3511   -6.3160 H   0  0  0  0  0  0  0  0  0  0  0  0
    3.4744   12.9230   -4.2733 H   0  0  0  0  0  0  0  0  0  0  0  0
    3.7569   10.3061   -5.2234 H   0  0  0  0  0  0  0  0  0  0  0  0
    3.3561   11.3229   -6.6895 H   0  0  0  0  0  0  0  0  0  0  0  0
    5.4714   11.9566   -6.7971 H   0  0  0  0  0  0  0  0  0  0  0  0
    5.2669   12.7579   -5.1836 H   0  0  0  0  0  0  0  0  0  0  0  0
    6.5434   10.5543   -6.1130 H   0  0  0  0  0  0  0  0  0  0  0  0
    6.6469   12.0752   -1.9208 H   0  0  0  0  0  0  0  0  0  0  0  0
    7.3712   13.0584   -3.2380 H   0  0  0  0  0  0  0  0  0  0  0  0
    5.6077   12.7168   -3.2380 H   0  0  0  0  0  0  0  0  0  0  0  0
    8.2425   10.2432   -2.4093 H   0  0  0  0  0  0  0  0  0  0  0  0
    8.0483    9.3153   -3.9351 H   0  0  0  0  0  0  0  0  0  0  0  0
    8.9598   10.8631   -3.9351 H   0  0  0  0  0  0  0  0  0  0  0  0
    1.2955   10.9339   -4.4998 H   0  0  0  0  0  0  0  0  0  0  0  0
    2.8896    9.3562   -3.6010 H   0  0  0  0  0  0  0  0  0  0  0  0
    3.9903   10.6482   -3.0770 H   0  0  0  0  0  0  0  0  0  0  0  0
    2.2630    9.1423   -1.3680 H   0  0  0  0  0  0  0  0  0  0  0  0
    3.0495   10.6470   -0.8982 H   0  0  0  0  0  0  0  0  0  0  0  0
   -0.4682    9.2995   -1.4892 H   0  0  0  0  0  0  0  0  0  0  0  0
   -0.7225   10.3511   -2.9232 H   0  0  0  0  0  0  0  0  0  0  0  0
    0.6014    9.1371   -2.9232 H   0  0  0  0  0  0  0  0  0  0  0  0
    1.3180   12.0720    0.0141 H   0  0  0  0  0  0  0  0  0  0  0  0
    0.9238    9.5938    0.6006 H   0  0  0  0  0  0  0  0  0  0  0  0
    0.3377   10.9400    1.7106 H   0  0  0  0  0  0  0  0  0  0  0  0
   -1.3171    8.9221    1.3511 H   0  0  0  0  0  0  0  0  0  0  0  0
   -2.1783   11.4338   -1.6889 H   0  0  0  0  0  0  0  0  0  0  0  0
   -3.2814   12.8558    0.8126 H   0  0  0  0  0  0  0  0  0  0  0  0
   -3.3342   13.4632   -0.9015 H   0  0  0  0  0  0  0  0  0  0  0  0
   -5.5102   12.5391   -0.1682 H   0  0  0  0  0  0  0  0  0  0  0  0
   -4.7805   11.6203   -1.5424 H   0  0  0  0  0  0  0  0  0  0  0  0
   -5.6878   10.0564    0.0360 H   0  0  0  0  0  0  0  0  0  0  0  0
   -4.2130   10.2880    2.1910 H   0  0  0  0  0  0  0  0  0  0  0  0
   -3.9936    7.9473   -1.2966 H   0  0  0  0  0  0  0  0  0  0  0  0
   -4.5297    9.5480   -1.9106 H   0  0  0  0  0  0  0  0  0  0  0  0
   -2.7840    9.1248   -1.9106 H   0  0  0  0  0  0  0  0  0  0  0  0
   -3.6752    8.7827    2.0720 H   0  0  0  0  0  0  0  0  0  0  0  0
   -4.6686    7.8942    0.8677 H   0  0  0  0  0  0  0  0  0  0  0  0
   -2.8816    7.7119    0.8677 H   0  0  0  0  0  0  0  0  0  0  0  0
   -0.7618   12.7239    1.6771 H   0  0  0  0  0  0  0  0  0  0  0  0
    0.1279   14.0001    0.7790 H   0  0  0  0  0  0  0  0  0  0  0  0
   -1.6684   13.9881    0.7790 H   0  0  0  0  0  0  0  0  0  0  0  0
   -1.6031   13.7898   -1.9958 H   0  0  0  0  0  0  0  0  0  0  0  0
    0.0936   14.2131   -1.3831 H   0  0  0  0  0  0  0  0  0  0  0  0
   -0.6571   12.1374   -3.4611 H   0  0  0  0  0  0  0  0  0  0  0  0
    0.2800   13.6672   -3.6817 H   0  0  0  0  0  0  0  0  0  0  0  0
    2.3153   13.1128   -0.9662 H   0  0  0  0  0  0  0  0  0  0  0  0
    3.3693   12.9131   -2.4070 H   0  0  0  0  0  0  0  0  0  0  0  0
    2.0746   14.1583   -2.4070 H   0  0  0  0  0  0  0  0  0  0  0  0
  1  2  1  0
  2  3  1  0
  3  4  1  0
  4  5  1  0
  5  6  1  0
  6  7  1  0
  7  8  1  0
  7  9  1  0
  2 10  1  0
 10 11  1  0
 11 12  1  0
 12 13  1  0
 13 14  1  6
 13 15  1  0
 15 16  1  0
 16 17  1  0
 17 18  2  0
 18 19  1  0
 19 20  1  0
 20 21  1  0
 21 22  1  0
 22 23  1  0
 22 24  1  0
 24 25  1  0
 24 26  1  0
 19 27  1  0
 27 28  1  1
 27 29  1  0
 29 30  1  0
 30 31  1  0
 31 32  1  1
  7  5  1  0
 31 10  1  0
 31 13  1  0
 27 15  1  0
 24 18  1  0
  1 33  1  0
  1 34  1  0
  1 35  1  0
  2 36  1  1
  3 37  1  0
  3 38  1  0
  4 39  1  0
  4 40  1  0
  5 41  1  6
  8 42  1  0
  8 43  1  0
  8 44  1  0
  9 45  1  0
  9 46  1  0
  9 47  1  0
 10 48  1  6
 11 49  1  0
 11 50  1  0
 12 51  1  0
 12 52  1  0
 14 53  1  0
 14 54  1  0
 14 55  1  0
 15 56  1  1
 16 57  1  0
 16 58  1  0
 17 59  1  0
 19 60  1  6
 20 61  1  0
 20 62  1  0
 21 63  1  0
 21 64  1  0
 22 65  1  6
 23 66  1  0
 25 67  1  0
 25 68  1  0
 25 69  1  0
 26 70  1  0
 26 71  1  0
 26 72  1  0
 28 73  1  0
 28 74  1  0
 28 75  1  0
 29 76  1  0
 29 77  1  0
 30 78  1  0
 30 79  1  0
 32 80  1  0
 32 81  1  0
 32 82  1  0
M  END
>  <meeko>  (18) 
{"is_sidechain": [false], "intermolecular_energy": 2.731, "internal_energy": -0.839}

$$$$
EPH_relaxed_0001_pdb2pqr_Repair_357_r2_0001_out
     RDKit          3D

 82 86  0  0  0  0  0  0  0  0999 V2000
    3.7740   12.2640   -5.3250 C   0  0  0  0  0  0  0  0  0  0  0  0
    2.2510   12.3990   -5.4080 C   0  0  2  0  0  0  0  0  0  0  0  0
    1.7840   13.8530   -5.1960 C   0  0  0  0  0  0  0  0  0  0  0  0
    0.9360   14.4010   -6.3470 C   0  0  0  0  0  0  0  0  0  0  0  0
    1.7760   14.7410   -7.5420 C   0  0  2  0  0  0  0  0  0  0  0  0
    2.1190   16.1280   -7.6560 O   0  0  0  0  0  0  0  0  0  0  0  0
    1.2820   15.5950   -8.6950 C   0  0  0  0  0  0  0  0  0  0  0  0
   -0.1030   16.1600   -8.7100 C   0  0  0  0  0  0  0  0  0  0  0  0
    1.9690   15.4740  -10.0190 C   0  0  0  0  0  0  0  0  0  0  0  0
    1.5920   11.4860   -4.3800 C   0  0  1  0  0  0  0  0  0  0  0  0
    2.5560   10.3930   -3.8480 C   0  0  0  0  0  0  0  0  0  0  0  0
    2.1940   10.1640   -2.3580 C   0  0  0  0  0  0  0  0  0  0  0  0
    0.8350   10.8800   -2.1730 C   0  0  1  0  0  0  0  0  0  0  0  0
   -0.2260    9.8720   -2.7160 C   0  0  0  0  0  0  0  0  0  0  0  0
    0.4940   11.3510   -0.7210 C   0  0  2  0  0  0  0  0  0  0  0  0
    0.3700   10.2240    0.3180 C   0  0  0  0  0  0  0  0  0  0  0  0
   -1.0010    9.6560    0.4820 C   0  0  0  0  0  0  0  0  0  0  0  0
   -2.1390   10.2180    0.0350 C   0  0  0  0  0  0  0  0  0  0  0  0
   -2.1270   11.6020   -0.6280 C   0  0  1  0  0  0  0  0  0  0  0  0
   -3.2670   12.4710   -0.0350 C   0  0  0  0  0  0  0  0  0  0  0  0
   -4.6300   11.7910   -0.1290 C   0  0  0  0  0  0  0  0  0  0  0  0
   -4.6190   10.4450    0.5920 C   0  0  2  0  0  0  0  0  0  0  0  0
   -4.4550   10.6750    1.9950 O   0  0  0  0  0  0  0  0  0  0  0  0
   -3.5040    9.4880    0.0850 C   0  0  0  0  0  0  0  0  0  0  0  0
   -3.8470    9.0000   -1.3440 C   0  0  0  0  0  0  0  0  0  0  0  0
   -3.5130    8.2250    0.9890 C   0  0  0  0  0  0  0  0  0  0  0  0
   -0.7270   12.3540   -0.6350 C   0  0  1  0  0  0  0  0  0  0  0  0
   -0.5490   13.1600    0.6880 C   0  0  0  0  0  0  0  0  0  0  0  0
   -0.7170   13.4100   -1.8030 C   0  0  0  0  0  0  0  0  0  0  0  0
   -0.2570   12.9120   -3.1860 C   0  0  0  0  0  0  0  0  0  0  0  0
    1.0640   12.1430   -3.0800 C   0  0  2  0  0  0  0  0  0  0  0  0
    2.1560   13.1370   -2.5580 C   0  0  0  0  0  0  0  0  0  0  0  0
    4.0827   12.2366   -4.2696 H   0  0  0  0  0  0  0  0  0  0  0  0
    4.0874   11.3346   -5.8229 H   0  0  0  0  0  0  0  0  0  0  0  0
    4.2460   13.1238   -5.8229 H   0  0  0  0  0  0  0  0  0  0  0  0
    1.9472   12.0992   -6.4218 H   0  0  0  0  0  0  0  0  0  0  0  0
    1.1861   13.8947   -4.2736 H   0  0  0  0  0  0  0  0  0  0  0  0
    2.6887   14.4761   -5.1382 H   0  0  0  0  0  0  0  0  0  0  0  0
    0.1948   13.6416   -6.6367 H   0  0  0  0  0  0  0  0  0  0  0  0
    0.4428   15.3215   -6.0015 H   0  0  0  0  0  0  0  0  0  0  0  0
    2.2644   13.7559   -7.5099 H   0  0  0  0  0  0  0  0  0  0  0  0
   -0.4521   16.3024   -7.6766 H   0  0  0  0  0  0  0  0  0  0  0  0
   -0.0984   17.1281   -9.2322 H   0  0  0  0  0  0  0  0  0  0  0  0
   -0.7769   15.4649   -9.2322 H   0  0  0  0  0  0  0  0  0  0  0  0
    3.0409   15.2852   -9.8600 H   0  0  0  0  0  0  0  0  0  0  0  0
    1.5297   14.6394  -10.5851 H   0  0  0  0  0  0  0  0  0  0  0  0
    1.8413   16.4085  -10.5851 H   0  0  0  0  0  0  0  0  0  0  0  0
    0.7500   11.1099   -4.9797 H   0  0  0  0  0  0  0  0  0  0  0  0
    2.4235    9.4613   -4.4175 H   0  0  0  0  0  0  0  0  0  0  0  0
    3.6052   10.7052   -3.9560 H   0  0  0  0  0  0  0  0  0  0  0  0
    2.0996    9.0896   -2.1418 H   0  0  0  0  0  0  0  0  0  0  0  0
    2.9660   10.5510   -1.6766 H   0  0  0  0  0  0  0  0  0  0  0  0
   -0.7368    9.3867   -1.8712 H   0  0  0  0  0  0  0  0  0  0  0  0
   -0.9631   10.4106   -3.3297 H   0  0  0  0  0  0  0  0  0  0  0  0
    0.2742    9.1083   -3.3297 H   0  0  0  0  0  0  0  0  0  0  0  0
    1.3934   11.9185   -0.4397 H   0  0  0  0  0  0  0  0  0  0  0  0
    1.0423    9.4075    0.0157 H   0  0  0  0  0  0  0  0  0  0  0  0
    0.6312   10.6736    1.2874 H   0  0  0  0  0  0  0  0  0  0  0  0
   -1.0882    8.6968    1.0133 H   0  0  0  0  0  0  0  0  0  0  0  0
   -2.3098   11.4281   -1.6987 H   0  0  0  0  0  0  0  0  0  0  0  0
   -3.0444   12.6701    1.0237 H   0  0  0  0  0  0  0  0  0  0  0  0
   -3.3167   13.4013   -0.6199 H   0  0  0  0  0  0  0  0  0  0  0  0
   -5.3888   12.4403    0.3321 H   0  0  0  0  0  0  0  0  0  0  0  0
   -4.8643   11.6192   -1.1899 H   0  0  0  0  0  0  0  0  0  0  0  0
   -5.5778    9.9491    0.3804 H   0  0  0  0  0  0  0  0  0  0  0  0
   -4.8200   11.5540    2.1930 H   0  0  0  0  0  0  0  0  0  0  0  0
   -4.4786    8.1014   -1.2829 H   0  0  0  0  0  0  0  0  0  0  0  0
   -4.3878    9.7924   -1.8821 H   0  0  0  0  0  0  0  0  0  0  0  0
   -2.9182    8.7595   -1.8821 H   0  0  0  0  0  0  0  0  0  0  0  0
   -3.5108    8.5304    2.0457 H   0  0  0  0  0  0  0  0  0  0  0  0
   -4.4154    7.6314    0.7807 H   0  0  0  0  0  0  0  0  0  0  0  0
   -2.6192    7.6186    0.7807 H   0  0  0  0  0  0  0  0  0  0  0  0
   -0.6969   12.4903    1.5480 H   0  0  0  0  0  0  0  0  0  0  0  0
    0.4647   13.5854    0.7246 H   0  0  0  0  0  0  0  0  0  0  0  0
   -1.2893   13.9728    0.7246 H   0  0  0  0  0  0  0  0  0  0  0  0
   -1.7415   13.7953   -1.9120 H   0  0  0  0  0  0  0  0  0  0  0  0
    0.0290   14.1614   -1.5051 H   0  0  0  0  0  0  0  0  0  0  0  0
   -1.0277   12.2476   -3.6039 H   0  0  0  0  0  0  0  0  0  0  0  0
   -0.1043   13.7833   -3.8398 H   0  0  0  0  0  0  0  0  0  0  0  0
    2.1560   13.1370   -1.4580 H   0  0  0  0  0  0  0  0  0  0  0  0
    3.1440   12.8219   -2.9247 H   0  0  0  0  0  0  0  0  0  0  0  0
    1.9349   14.1502   -2.9247 H   0  0  0  0  0  0  0  0  0  0  0  0
  1  2  1  0
  2  3  1  0
  3  4  1  0
  4  5  1  0
  5  6  1  0
  6  7  1  0
  7  8  1  0
  7  9  1  0
  2 10  1  0
 10 11  1  0
 11 12  1  0
 12 13  1  0
 13 14  1  6
 13 15  1  0
 15 16  1  0
 16 17  1  0
 17 18  2  0
 18 19  1  0
 19 20  1  0
 20 21  1  0
 21 22  1  0
 22 23  1  0
 22 24  1  0
 24 25  1  0
 24 26  1  0
 19 27  1  0
 27 28  1  1
 27 29  1  0
 29 30  1  0
 30 31  1  0
 31 32  1  1
  7  5  1  0
 31 10  1  0
 31 13  1  0
 27 15  1  0
 24 18  1  0
  1 33  1  0
  1 34  1  0
  1 35  1  0
  2 36  1  6
  3 37  1  0
  3 38  1  0
  4 39  1  0
  4 40  1  0
  5 41  1  6
  8 42  1  0
  8 43  1  0
  8 44  1  0
  9 45  1  0
  9 46  1  0
  9 47  1  0
 10 48  1  6
 11 49  1  0
 11 50  1  0
 12 51  1  0
 12 52  1  0
 14 53  1  0
 14 54  1  0
 14 55  1  0
 15 56  1  1
 16 57  1  0
 16 58  1  0
 17 59  1  0
 19 60  1  6
 20 61  1  0
 20 62  1  0
 21 63  1  0
 21 64  1  0
 22 65  1  1
 23 66  1  0
 25 67  1  0
 25 68  1  0
 25 69  1  0
 26 70  1  0
 26 71  1  0
 26 72  1  0
 28 73  1  0
 28 74  1  0
 28 75  1  0
 29 76  1  0
 29 77  1  0
 30 78  1  0
 30 79  1  0
 32 80  1  0
 32 81  1  0
 32 82  1  0
M  END
>  <meeko>  (19) 
{"is_sidechain": [false], "intermolecular_energy": 2.731, "internal_energy": -0.839}

$$$$
EPH_relaxed_0001_pdb2pqr_Repair_357_r2_0001_out
     RDKit          3D

 82 86  0  0  0  0  0  0  0  0999 V2000
   -3.7430   10.4740    2.3910 C   0  0  0  0  0  0  0  0  0  0  0  0
   -4.1720   10.1390    0.9600 C   0  0  2  0  0  0  0  0  0  0  0  0
   -4.0850    8.6280    0.6660 C   0  0  0  0  0  0  0  0  0  0  0  0
   -4.2380    8.2790   -0.8170 C   0  0  0  0  0  0  0  0  0  0  0  0
   -5.5980    7.7260   -1.1180 C   0  0  2  0  0  0  0  0  0  0  0  0
   -5.7120    6.3040   -0.9680 O   0  0  0  0  0  0  0  0  0  0  0  0
   -5.8880    6.8170   -2.2990 C   0  0  0  0  0  0  0  0  0  0  0  0
   -4.8100    6.4110   -3.2540 C   0  0  0  0  0  0  0  0  0  0  0  0
   -7.2950    6.7230   -2.8000 C   0  0  0  0  0  0  0  0  0  0  0  0
   -3.3140   10.9130   -0.0340 C   0  0  1  0  0  0  0  0  0  0  0  0
   -3.7990   12.3740   -0.2310 C   0  0  0  0  0  0  0  0  0  0  0  0
   -2.5320   13.2390   -0.4530 C   0  0  0  0  0  0  0  0  0  0  0  0
   -1.4000   12.2160   -0.7080 C   0  0  1  0  0  0  0  0  0  0  0  0
   -1.5470   11.8210   -2.2110 C   0  0  0  0  0  0  0  0  0  0  0  0
    0.0510   12.6940   -0.3760 C   0  0  2  0  0  0  0  0  0  0  0  0
    0.5510   13.8890   -1.2080 C   0  0  0  0  0  0  0  0  0  0  0  0
    1.2580   13.5330   -2.4740 C   0  0  0  0  0  0  0  0  0  0  0  0
    1.7350   12.3140   -2.7870 C   0  0  0  0  0  0  0  0  0  0  0  0
    1.6680   11.1590   -1.7800 C   0  0  1  0  0  0  0  0  0  0  0  0
    3.0380   10.4340   -1.7320 C   0  0  0  0  0  0  0  0  0  0  0  0
    3.5080    9.9800   -3.1100 C   0  0  0  0  0  0  0  0  0  0  0  0
    3.6180   11.1640   -4.0670 C   0  0  2  0  0  0  0  0  0  0  0  0
    4.6720   12.0220   -3.6190 O   0  0  0  0  0  0  0  0  0  0  0  0
    2.2990   11.9770   -4.1890 C   0  0  0  0  0  0  0  0  0  0  0  0
    1.2410   11.1410   -4.9510 C   0  0  0  0  0  0  0  0  0  0  0  0
    2.5860   13.2220   -5.0710 C   0  0  0  0  0  0  0  0  0  0  0  0
    1.1230   11.5310   -0.3340 C   0  0  1  0  0  0  0  0  0  0  0  0
    2.2940   12.0370    0.5620 C   0  0  0  0  0  0  0  0  0  0  0  0
    0.5670   10.2300    0.3560 C   0  0  0  0  0  0  0  0  0  0  0  0
   -0.9080    9.8760    0.0850 C   0  0  0  0  0  0  0  0  0  0  0  0
   -1.8130   11.0910    0.3090 C   0  0  2  0  0  0  0  0  0  0  0  0
   -1.7030   11.4980    1.8180 C   0  0  0  0  0  0  0  0  0  0  0  0
   -4.4043    9.9576    3.1024 H   0  0  0  0  0  0  0  0  0  0  0  0
   -2.7055   10.1446    2.5494 H   0  0  0  0  0  0  0  0  0  0  0  0
   -3.8110   11.5604    2.5494 H   0  0  0  0  0  0  0  0  0  0  0  0
   -5.2257   10.4359    0.8524 H   0  0  0  0  0  0  0  0  0  0  0  0
   -3.1056    8.2634    1.0092 H   0  0  0  0  0  0  0  0  0  0  0  0
   -4.9210    8.1489    1.1966 H   0  0  0  0  0  0  0  0  0  0  0  0
   -4.0825    9.1888   -1.4154 H   0  0  0  0  0  0  0  0  0  0  0  0
   -3.4918    7.5106   -1.0676 H   0  0  0  0  0  0  0  0  0  0  0  0
   -6.0792    8.6485   -0.7611 H   0  0  0  0  0  0  0  0  0  0  0  0
   -3.9264    6.0782   -2.6896 H   0  0  0  0  0  0  0  0  0  0  0  0
   -5.1721    5.5876   -3.8872 H   0  0  0  0  0  0  0  0  0  0  0  0
   -4.5390    7.2687   -3.8872 H   0  0  0  0  0  0  0  0  0  0  0  0
   -7.9862    6.6768   -1.9455 H   0  0  0  0  0  0  0  0  0  0  0  0
   -7.5264    7.6077   -3.4114 H   0  0  0  0  0  0  0  0  0  0  0  0
   -7.4067    5.8154   -3.4114 H   0  0  0  0  0  0  0  0  0  0  0  0
   -3.4239   10.2650   -0.9160 H   0  0  0  0  0  0  0  0  0  0  0  0
   -4.4604   12.4387   -1.1076 H   0  0  0  0  0  0  0  0  0  0  0  0
   -4.3676   12.7230    0.6436 H   0  0  0  0  0  0  0  0  0  0  0  0
   -2.6608   13.9002   -1.3226 H   0  0  0  0  0  0  0  0  0  0  0  0
   -2.3177   13.8925    0.4055 H   0  0  0  0  0  0  0  0  0  0  0  0
   -1.9298   10.7924   -2.2840 H   0  0  0  0  0  0  0  0  0  0  0  0
   -2.2491   12.5094   -2.7041 H   0  0  0  0  0  0  0  0  0  0  0  0
   -0.5656   11.8829   -2.7041 H   0  0  0  0  0  0  0  0  0  0  0  0
   -0.0541   13.0688    0.6528 H   0  0  0  0  0  0  0  0  0  0  0  0
   -0.3189   14.5102   -1.4675 H   0  0  0  0  0  0  0  0  0  0  0  0
    1.2914   14.4078   -0.5813 H   0  0  0  0  0  0  0  0  0  0  0  0
    1.4011   14.3348   -3.2134 H   0  0  0  0  0  0  0  0  0  0  0  0
    0.8955   10.4720   -2.1558 H   0  0  0  0  0  0  0  0  0  0  0  0
    3.7868   11.1224   -1.3132 H   0  0  0  0  0  0  0  0  0  0  0  0
    2.9191    9.5364   -1.1073 H   0  0  0  0  0  0  0  0  0  0  0  0
    4.4940    9.5017   -3.0144 H   0  0  0  0  0  0  0  0  0  0  0  0
    2.7728    9.2689   -3.5147 H   0  0  0  0  0  0  0  0  0  0  0  0
    3.8320   10.7609   -5.0679 H   0  0  0  0  0  0  0  0  0  0  0  0
    5.5000   11.7060   -4.0210 H   0  0  0  0  0  0  0  0  0  0  0  0
    0.5902   10.6268   -4.2285 H   0  0  0  0  0  0  0  0  0  0  0  0
    0.6339   11.8060   -5.5828 H   0  0  0  0  0  0  0  0  0  0  0  0
    1.7475   10.3966   -5.5828 H   0  0  0  0  0  0  0  0  0  0  0  0
    2.7861   14.0902   -4.4258 H   0  0  0  0  0  0  0  0  0  0  0  0
    3.4628   13.0272   -5.7060 H   0  0  0  0  0  0  0  0  0  0  0  0
    1.7124   13.4307   -5.7060 H   0  0  0  0  0  0  0  0  0  0  0  0
    2.0222   11.9196    1.6214 H   0  0  0  0  0  0  0  0  0  0  0  0
    3.1993   11.4498    0.3484 H   0  0  0  0  0  0  0  0  0  0  0  0
    2.4868   13.0987    0.3484 H   0  0  0  0  0  0  0  0  0  0  0  0
    1.1806    9.3836    0.0138 H   0  0  0  0  0  0  0  0  0  0  0  0
    0.6209   10.4315    1.4360 H   0  0  0  0  0  0  0  0  0  0  0  0
   -1.0114    9.5373   -0.9565 H   0  0  0  0  0  0  0  0  0  0  0  0
   -1.2112    9.0796    0.7805 H   0  0  0  0  0  0  0  0  0  0  0  0
   -1.9379   10.6290    2.4502 H   0  0  0  0  0  0  0  0  0  0  0  0
   -0.6799   11.8410    2.0316 H   0  0  0  0  0  0  0  0  0  0  0  0
   -2.4140   12.3097    2.0316 H   0  0  0  0  0  0  0  0  0  0  0  0
  1  2  1  0
  2  3  1  0
  3  4  1  0
  4  5  1  0
  5  6  1  0
  6  7  1  0
  7  8  1  0
  7  9  1  0
  2 10  1  0
 10 11  1  0
 11 12  1  0
 12 13  1  0
 13 14  1  6
 13 15  1  0
 15 16  1  0
 16 17  1  0
 17 18  2  0
 18 19  1  0
 19 20  1  0
 20 21  1  0
 21 22  1  0
 22 23  1  0
 22 24  1  0
 24 25  1  0
 24 26  1  0
 19 27  1  0
 27 28  1  1
 27 29  1  0
 29 30  1  0
 30 31  1  0
 31 32  1  1
  7  5  1  0
 31 10  1  0
 31 13  1  0
 27 15  1  0
 24 18  1  0
  1 33  1  0
  1 34  1  0
  1 35  1  0
  2 36  1  1
  3 37  1  0
  3 38  1  0
  4 39  1  0
  4 40  1  0
  5 41  1  1
  8 42  1  0
  8 43  1  0
  8 44  1  0
  9 45  1  0
  9 46  1  0
  9 47  1  0
 10 48  1  6
 11 49  1  0
 11 50  1  0
 12 51  1  0
 12 52  1  0
 14 53  1  0
 14 54  1  0
 14 55  1  0
 15 56  1  1
 16 57  1  0
 16 58  1  0
 17 59  1  0
 19 60  1  6
 20 61  1  0
 20 62  1  0
 21 63  1  0
 21 64  1  0
 22 65  1  6
 23 66  1  0
 25 67  1  0
 25 68  1  0
 25 69  1  0
 26 70  1  0
 26 71  1  0
 26 72  1  0
 28 73  1  0
 28 74  1  0
 28 75  1  0
 29 76  1  0
 29 77  1  0
 30 78  1  0
 30 79  1  0
 32 80  1  0
 32 81  1  0
 32 82  1  0
M  END
>  <meeko>  (20) 
{"is_sidechain": [false], "intermolecular_energy": 2.731, "internal_energy": -0.839}

$$$$
