EPH_relaxed_0001_pdb2pqr_Repair_321_r2_0001_out
     RDKit          3D

 82 86  0  0  0  0  0  0  0  0999 V2000
    4.9360   17.3550   -1.5070 C   0  0  0  0  0  0  0  0  0  0  0  0
    3.5810   18.0650   -1.4260 C   0  0  2  0  0  0  0  0  0  0  0  0
    3.4930   19.0100   -0.2110 C   0  0  0  0  0  0  0  0  0  0  0  0
    3.7950   18.3250    1.1250 C   0  0  0  0  0  0  0  0  0  0  0  0
    3.7910   19.3020    2.2620 C   0  0  2  0  0  0  0  0  0  0  0  0
    4.9130   20.1940    2.2890 O   0  0  0  0  0  0  0  0  0  0  0  0
    4.8060   19.2770    3.3900 C   0  0  0  0  0  0  0  0  0  0  0  0
    5.8960   18.2520    3.4360 C   0  0  0  0  0  0  0  0  0  0  0  0
    4.4500   19.9320    4.6870 C   0  0  0  0  0  0  0  0  0  0  0  0
    2.4580   17.0360   -1.3680 C   0  0  1  0  0  0  0  0  0  0  0  0
    1.0940   17.6150   -1.8290 C   0  0  0  0  0  0  0  0  0  0  0  0
    0.3450   16.4690   -2.5570 C   0  0  0  0  0  0  0  0  0  0  0  0
    1.1460   15.1940   -2.2050 C   0  0  1  0  0  0  0  0  0  0  0  0
    0.6470   14.7870   -0.7830 C   0  0  0  0  0  0  0  0  0  0  0  0
    1.0370   14.0070   -3.2170 C   0  0  2  0  0  0  0  0  0  0  0  0
   -0.3760   13.4220   -3.3860 C   0  0  0  0  0  0  0  0  0  0  0  0
   -0.7150   12.2980   -2.4630 C   0  0  0  0  0  0  0  0  0  0  0  0
    0.1680   11.5910   -1.7340 C   0  0  0  0  0  0  0  0  0  0  0  0
    1.6770   11.8340   -1.8720 C   0  0  1  0  0  0  0  0  0  0  0  0
    2.4120   10.4740   -1.9950 C   0  0  0  0  0  0  0  0  0  0  0  0
    2.0760    9.5220   -0.8500 C   0  0  0  0  0  0  0  0  0  0  0  0
    0.5740    9.2590   -0.7830 C   0  0  2  0  0  0  0  0  0  0  0  0
    0.1810    8.5310   -1.9500 O   0  0  0  0  0  0  0  0  0  0  0  0
   -0.2710   10.5580   -0.6670 C   0  0  0  0  0  0  0  0  0  0  0  0
   -0.0670   11.1890    0.7320 C   0  0  0  0  0  0  0  0  0  0  0  0
   -1.7700   10.1620   -0.7510 C   0  0  0  0  0  0  0  0  0  0  0  0
    2.1120   12.8670   -2.9980 C   0  0  1  0  0  0  0  0  0  0  0  0
    2.2650   12.1310   -4.3640 C   0  0  0  0  0  0  0  0  0  0  0  0
    3.5330   13.4450   -2.6440 C   0  0  0  0  0  0  0  0  0  0  0  0
    3.5700   14.6900   -1.7370 C   0  0  0  0  0  0  0  0  0  0  0  0
    2.6090   15.7690   -2.2460 C   0  0  2  0  0  0  0  0  0  0  0  0
    3.0990   16.2140   -3.6660 C   0  0  0  0  0  0  0  0  0  0  0  0
    5.3089   17.1596   -0.4907 H   0  0  0  0  0  0  0  0  0  0  0  0
    4.8192   16.4022   -2.0442 H   0  0  0  0  0  0  0  0  0  0  0  0
    5.6529   17.9933   -2.0442 H   0  0  0  0  0  0  0  0  0  0  0  0
    3.4748   18.6805   -2.3315 H   0  0  0  0  0  0  0  0  0  0  0  0
    4.2156   19.8270   -0.3535 H   0  0  0  0  0  0  0  0  0  0  0  0
    2.4554   19.3715   -0.1595 H   0  0  0  0  0  0  0  0  0  0  0  0
    3.0306   17.5566    1.3125 H   0  0  0  0  0  0  0  0  0  0  0  0
    4.7974   17.8764    1.0617 H   0  0  0  0  0  0  0  0  0  0  0  0
    2.6916   19.3368    2.2592 H   0  0  0  0  0  0  0  0  0  0  0  0
    6.1398   18.0228    4.4839 H   0  0  0  0  0  0  0  0  0  0  0  0
    5.5593   17.3357    2.9290 H   0  0  0  0  0  0  0  0  0  0  0  0
    6.7899   18.6443    2.9290 H   0  0  0  0  0  0  0  0  0  0  0  0
    4.7921   19.3025    5.5217 H   0  0  0  0  0  0  0  0  0  0  0  0
    4.9372   20.9164    4.7465 H   0  0  0  0  0  0  0  0  0  0  0  0
    3.3589   20.0586    4.7465 H   0  0  0  0  0  0  0  0  0  0  0  0
    2.5108   16.7643   -0.3034 H   0  0  0  0  0  0  0  0  0  0  0  0
    0.5130   17.9546   -0.9588 H   0  0  0  0  0  0  0  0  0  0  0  0
    1.2363   18.4793   -2.4944 H   0  0  0  0  0  0  0  0  0  0  0  0
   -0.6904   16.3897   -2.1940 H   0  0  0  0  0  0  0  0  0  0  0  0
    0.2818   16.6355   -3.6425 H   0  0  0  0  0  0  0  0  0  0  0  0
    1.2619   15.2885   -0.0212 H   0  0  0  0  0  0  0  0  0  0  0  0
   -0.4039   15.0888   -0.6629 H   0  0  0  0  0  0  0  0  0  0  0  0
    0.7314   13.6968   -0.6629 H   0  0  0  0  0  0  0  0  0  0  0  0
    1.2769   14.4913   -4.1751 H   0  0  0  0  0  0  0  0  0  0  0  0
   -1.1015   14.2313   -3.2170 H   0  0  0  0  0  0  0  0  0  0  0  0
   -0.4126   13.0031   -4.4024 H   0  0  0  0  0  0  0  0  0  0  0  0
   -1.7766   12.0248   -2.3712 H   0  0  0  0  0  0  0  0  0  0  0  0
    1.9886   12.3436   -0.9483 H   0  0  0  0  0  0  0  0  0  0  0  0
    2.1211   10.0005   -2.9443 H   0  0  0  0  0  0  0  0  0  0  0  0
    3.4930   10.6738   -1.9571 H   0  0  0  0  0  0  0  0  0  0  0  0
    2.6018    8.5688   -1.0081 H   0  0  0  0  0  0  0  0  0  0  0  0
    2.3943    9.9842    0.0961 H   0  0  0  0  0  0  0  0  0  0  0  0
    0.3813    8.6778    0.1308 H   0  0  0  0  0  0  0  0  0  0  0  0
   -0.4940    9.0570   -2.4110 H   0  0  0  0  0  0  0  0  0  0  0  0
   -0.3070   10.4467    1.5075 H   0  0  0  0  0  0  0  0  0  0  0  0
    0.9800   11.5080    0.8412 H   0  0  0  0  0  0  0  0  0  0  0  0
   -0.7291   12.0606    0.8412 H   0  0  0  0  0  0  0  0  0  0  0  0
   -2.1782   10.0542    0.2647 H   0  0  0  0  0  0  0  0  0  0  0  0
   -2.3263   10.9440   -1.2886 H   0  0  0  0  0  0  0  0  0  0  0  0
   -1.8675    9.2073   -1.2886 H   0  0  0  0  0  0  0  0  0  0  0  0
    2.4859   11.0683   -4.1852 H   0  0  0  0  0  0  0  0  0  0  0  0
    1.3292   12.2199   -4.9352 H   0  0  0  0  0  0  0  0  0  0  0  0
    3.0879   12.5855   -4.9352 H   0  0  0  0  0  0  0  0  0  0  0  0
    4.1000   12.6487   -2.1395 H   0  0  0  0  0  0  0  0  0  0  0  0
    3.9568   13.7753   -3.6038 H   0  0  0  0  0  0  0  0  0  0  0  0
    3.2780   14.4005   -0.7167 H   0  0  0  0  0  0  0  0  0  0  0  0
    4.5913   15.0986   -1.7444 H   0  0  0  0  0  0  0  0  0  0  0  0
    3.9095   16.9501   -3.5602 H   0  0  0  0  0  0  0  0  0  0  0  0
    3.4696   15.3373   -4.2174 H   0  0  0  0  0  0  0  0  0  0  0  0
    2.2619   16.6671   -4.2174 H   0  0  0  0  0  0  0  0  0  0  0  0
  1  2  1  0
  2  3  1  0
  3  4  1  0
  4  5  1  0
  5  6  1  0
  6  7  1  0
  7  8  1  0
  7  9  1  0
  2 10  1  0
 10 11  1  0
 11 12  1  0
 12 13  1  0
 13 14  1  1
 13 15  1  0
 15 16  1  0
 16 17  1  0
 17 18  2  0
 18 19  1  0
 19 20  1  0
 20 21  1  0
 21 22  1  0
 22 23  1  0
 22 24  1  0
 24 25  1  0
 24 26  1  0
 19 27  1  0
 27 28  1  6
 27 29  1  0
 29 30  1  0
 30 31  1  0
 31 32  1  6
  7  5  1  0
 31 10  1  0
 31 13  1  0
 27 15  1  0
 24 18  1  0
  1 33  1  0
  1 34  1  0
  1 35  1  0
  2 36  1  6
  3 37  1  0
  3 38  1  0
  4 39  1  0
  4 40  1  0
  5 41  1  1
  8 42  1  0
  8 43  1  0
  8 44  1  0
  9 45  1  0
  9 46  1  0
  9 47  1  0
 10 48  1  1
 11 49  1  0
 11 50  1  0
 12 51  1  0
 12 52  1  0
 14 53  1  0
 14 54  1  0
 14 55  1  0
 15 56  1  6
 16 57  1  0
 16 58  1  0
 17 59  1  0
 19 60  1  1
 20 61  1  0
 20 62  1  0
 21 63  1  0
 21 64  1  0
 22 65  1  1
 23 66  1  0
 25 67  1  0
 25 68  1  0
 25 69  1  0
 26 70  1  0
 26 71  1  0
 26 72  1  0
 28 73  1  0
 28 74  1  0
 28 75  1  0
 29 76  1  0
 29 77  1  0
 30 78  1  0
 30 79  1  0
 32 80  1  0
 32 81  1  0
 32 82  1  0
M  END
>  <meeko>  (1) 
{"is_sidechain": [false], "intermolecular_energy": 2.731, "internal_energy": -0.839}

$$$$
EPH_relaxed_0001_pdb2pqr_Repair_321_r2_0001_out
     RDKit          3D

 82 86  0  0  0  0  0  0  0  0999 V2000
    4.2130   18.2230   -0.3010 C   0  0  0  0  0  0  0  0  0  0  0  0
    3.0540   18.6530   -1.2040 C   0  0  2  0  0  0  0  0  0  0  0  0
    2.3170   19.8910   -0.6550 C   0  0  0  0  0  0  0  0  0  0  0  0
    1.3580   19.5760    0.4970 C   0  0  0  0  0  0  0  0  0  0  0  0
    0.0040   20.1780    0.2700 C   0  0  2  0  0  0  0  0  0  0  0  0
   -0.8450   20.1910    1.4250 O   0  0  0  0  0  0  0  0  0  0  0  0
   -1.2850   19.3800    0.3240 C   0  0  0  0  0  0  0  0  0  0  0  0
   -1.2830   17.9110    0.6110 C   0  0  0  0  0  0  0  0  0  0  0  0
   -2.4910   19.9210   -0.3800 C   0  0  0  0  0  0  0  0  0  0  0  0
    2.0740   17.4980   -1.3760 C   0  0  1  0  0  0  0  0  0  0  0  0
    0.8180   17.8970   -2.1970 C   0  0  0  0  0  0  0  0  0  0  0  0
    0.4130   16.6520   -3.0270 C   0  0  0  0  0  0  0  0  0  0  0  0
    1.2320   15.4910   -2.4160 C   0  0  1  0  0  0  0  0  0  0  0  0
    0.4330   15.0610   -1.1460 C   0  0  0  0  0  0  0  0  0  0  0  0
    1.5180   14.2760   -3.3580 C   0  0  2  0  0  0  0  0  0  0  0  0
    0.2690   13.5210   -3.8450 C   0  0  0  0  0  0  0  0  0  0  0  0
   -0.1690   12.3870   -2.9790 C   0  0  0  0  0  0  0  0  0  0  0  0
    0.5700   11.8090   -2.0140 C   0  0  0  0  0  0  0  0  0  0  0  0
    2.0270   12.2290   -1.7800 C   0  0  1  0  0  0  0  0  0  0  0  0
    2.9140   10.9640   -1.6400 C   0  0  0  0  0  0  0  0  0  0  0  0
    2.4030   10.0070   -0.5680 C   0  0  0  0  0  0  0  0  0  0  0  0
    0.9720    9.5660   -0.8670 C   0  0  2  0  0  0  0  0  0  0  0  0
    0.9750    8.7690   -2.0550 O   0  0  0  0  0  0  0  0  0  0  0  0
   -0.0120   10.7570   -1.0380 C   0  0  0  0  0  0  0  0  0  0  0  0
   -0.2450   11.4410    0.3320 C   0  0  0  0  0  0  0  0  0  0  0  0
   -1.3860   10.1810   -1.4750 C   0  0  0  0  0  0  0  0  0  0  0  0
    2.6200   13.2800   -2.8140 C   0  0  1  0  0  0  0  0  0  0  0  0
    3.1990   12.5350   -4.0560 C   0  0  0  0  0  0  0  0  0  0  0  0
    3.8300   14.0330   -2.1440 C   0  0  0  0  0  0  0  0  0  0  0  0
    3.4950   15.2950   -1.3250 C   0  0  0  0  0  0  0  0  0  0  0  0
    2.5840   16.2370   -2.1180 C   0  0  2  0  0  0  0  0  0  0  0  0
    3.3690   16.7040   -3.3900 C   0  0  0  0  0  0  0  0  0  0  0  0
    3.9171   18.3328    0.7527 H   0  0  0  0  0  0  0  0  0  0  0  0
    4.4650   17.1716   -0.5034 H   0  0  0  0  0  0  0  0  0  0  0  0
    5.0898   18.8557   -0.5034 H   0  0  0  0  0  0  0  0  0  0  0  0
    3.4801   18.9289   -2.1799 H   0  0  0  0  0  0  0  0  0  0  0  0
    3.0672   20.6107   -0.2954 H   0  0  0  0  0  0  0  0  0  0  0  0
    1.7091   20.2945   -1.4782 H   0  0  0  0  0  0  0  0  0  0  0  0
    1.2529   18.4846    0.5853 H   0  0  0  0  0  0  0  0  0  0  0  0
    1.7753   20.0071    1.4189 H   0  0  0  0  0  0  0  0  0  0  0  0
    0.4111   20.8720   -0.4801 H   0  0  0  0  0  0  0  0  0  0  0  0
   -1.2828   17.7500    1.6992 H   0  0  0  0  0  0  0  0  0  0  0  0
   -2.1805   17.4505    0.1724 H   0  0  0  0  0  0  0  0  0  0  0  0
   -0.3842   17.4529    0.1724 H   0  0  0  0  0  0  0  0  0  0  0  0
   -3.2311   20.2530    0.3630 H   0  0  0  0  0  0  0  0  0  0  0  0
   -2.1963   20.7732   -1.0100 H   0  0  0  0  0  0  0  0  0  0  0  0
   -2.9315   19.1342   -1.0100 H   0  0  0  0  0  0  0  0  0  0  0  0
    1.8814   17.2609   -0.3193 H   0  0  0  0  0  0  0  0  0  0  0  0
   -0.0008   18.1846   -1.5211 H   0  0  0  0  0  0  0  0  0  0  0  0
    1.0296   18.7560   -2.8507 H   0  0  0  0  0  0  0  0  0  0  0  0
   -0.6656   16.4573   -2.9336 H   0  0  0  0  0  0  0  0  0  0  0  0
    0.6136   16.7836   -4.1005 H   0  0  0  0  0  0  0  0  0  0  0  0
    0.9884   15.3599   -0.2448 H   0  0  0  0  0  0  0  0  0  0  0  0
   -0.5519   15.5509   -1.1491 H   0  0  0  0  0  0  0  0  0  0  0  0
    0.2994   13.9691   -1.1491 H   0  0  0  0  0  0  0  0  0  0  0  0
    1.9401   14.7623   -4.2498 H   0  0  0  0  0  0  0  0  0  0  0  0
   -0.5604   14.2409   -3.9075 H   0  0  0  0  0  0  0  0  0  0  0  0
    0.5408   13.0765   -4.8138 H   0  0  0  0  0  0  0  0  0  0  0  0
   -1.1816   11.9900   -3.1434 H   0  0  0  0  0  0  0  0  0  0  0  0
    2.0332   12.7950   -0.8368 H   0  0  0  0  0  0  0  0  0  0  0  0
    2.9303   10.4363   -2.6050 H   0  0  0  0  0  0  0  0  0  0  0  0
    3.9202   11.2932   -1.3415 H   0  0  0  0  0  0  0  0  0  0  0  0
    3.0537    9.1207   -0.5370 H   0  0  0  0  0  0  0  0  0  0  0  0
    2.4147   10.5271    0.4012 H   0  0  0  0  0  0  0  0  0  0  0  0
    0.6162    8.9874   -0.0017 H   0  0  0  0  0  0  0  0  0  0  0  0
    1.3060    9.3240   -2.7810 H   0  0  0  0  0  0  0  0  0  0  0  0
   -0.0044   10.7346    1.1401 H   0  0  0  0  0  0  0  0  0  0  0  0
    0.4021   12.3267    0.4144 H   0  0  0  0  0  0  0  0  0  0  0  0
   -1.2982   11.7475    0.4144 H   0  0  0  0  0  0  0  0  0  0  0  0
   -1.9797    9.9321   -0.5830 H   0  0  0  0  0  0  0  0  0  0  0  0
   -1.9231   10.9297   -2.0758 H   0  0  0  0  0  0  0  0  0  0  0  0
   -1.2286    9.2731   -2.0758 H   0  0  0  0  0  0  0  0  0  0  0  0
    3.8419   11.7078   -3.7206 H   0  0  0  0  0  0  0  0  0  0  0  0
    2.3726   12.1347   -4.6617 H   0  0  0  0  0  0  0  0  0  0  0  0
    3.7909   13.2370   -4.6617 H   0  0  0  0  0  0  0  0  0  0  0  0
    4.3323   13.3229   -1.4707 H   0  0  0  0  0  0  0  0  0  0  0  0
    4.4474   14.3889   -2.9820 H   0  0  0  0  0  0  0  0  0  0  0  0
    2.9845   14.9970   -0.3973 H   0  0  0  0  0  0  0  0  0  0  0  0
    4.4321   15.8236   -1.0959 H   0  0  0  0  0  0  0  0  0  0  0  0
    4.2768   17.2440   -3.0829 H   0  0  0  0  0  0  0  0  0  0  0  0
    3.6500   15.8261   -3.9903 H   0  0  0  0  0  0  0  0  0  0  0  0
    2.7316   17.3699   -3.9903 H   0  0  0  0  0  0  0  0  0  0  0  0
  1  2  1  0
  2  3  1  0
  3  4  1  0
  4  5  1  0
  5  6  1  0
  6  7  1  0
  7  8  1  0
  7  9  1  0
  2 10  1  0
 10 11  1  0
 11 12  1  0
 12 13  1  0
 13 14  1  1
 13 15  1  0
 15 16  1  0
 16 17  1  0
 17 18  2  0
 18 19  1  0
 19 20  1  0
 20 21  1  0
 21 22  1  0
 22 23  1  0
 22 24  1  0
 24 25  1  0
 24 26  1  0
 19 27  1  0
 27 28  1  6
 27 29  1  0
 29 30  1  0
 30 31  1  0
 31 32  1  6
  7  5  1  0
 31 10  1  0
 31 13  1  0
 27 15  1  0
 24 18  1  0
  1 33  1  0
  1 34  1  0
  1 35  1  0
  2 36  1  6
  3 37  1  0
  3 38  1  0
  4 39  1  0
  4 40  1  0
  5 41  1  6
  8 42  1  0
  8 43  1  0
  8 44  1  0
  9 45  1  0
  9 46  1  0
  9 47  1  0
 10 48  1  1
 11 49  1  0
 11 50  1  0
 12 51  1  0
 12 52  1  0
 14 53  1  0
 14 54  1  0
 14 55  1  0
 15 56  1  6
 16 57  1  0
 16 58  1  0
 17 59  1  0
 19 60  1  1
 20 61  1  0
 20 62  1  0
 21 63  1  0
 21 64  1  0
 22 65  1  1
 23 66  1  0
 25 67  1  0
 25 68  1  0
 25 69  1  0
 26 70  1  0
 26 71  1  0
 26 72  1  0
 28 73  1  0
 28 74  1  0
 28 75  1  0
 29 76  1  0
 29 77  1  0
 30 78  1  0
 30 79  1  0
 32 80  1  0
 32 81  1  0
 32 82  1  0
M  END
>  <meeko>  (2) 
{"is_sidechain": [false], "intermolecular_energy": 2.731, "internal_energy": -0.839}

$$$$
EPH_relaxed_0001_pdb2pqr_Repair_321_r2_0001_out
     RDKit          3D

 82 86  0  0  0  0  0  0  0  0999 V2000
    3.9750   17.1940   -3.0400 C   0  0  0  0  0  0  0  0  0  0  0  0
    2.4860   17.4510   -3.2920 C   0  0  2  0  0  0  0  0  0  0  0  0
    1.8370   18.2670   -2.1560 C   0  0  0  0  0  0  0  0  0  0  0  0
    0.3720   17.9060   -1.8980 C   0  0  0  0  0  0  0  0  0  0  0  0
   -0.4440   19.1150   -1.5530 C   0  0  2  0  0  0  0  0  0  0  0  0
   -0.0380   19.7900   -0.3550 O   0  0  0  0  0  0  0  0  0  0  0  0
   -1.3460   19.1960   -0.3360 C   0  0  0  0  0  0  0  0  0  0  0  0
   -1.4790   18.0480    0.6140 C   0  0  0  0  0  0  0  0  0  0  0  0
   -2.4620   20.1940   -0.3370 C   0  0  0  0  0  0  0  0  0  0  0  0
    1.7530   16.1260   -3.4650 C   0  0  1  0  0  0  0  0  0  0  0  0
    1.5850   15.7270   -4.9560 C   0  0  0  0  0  0  0  0  0  0  0  0
    1.6940   14.1810   -5.0200 C   0  0  0  0  0  0  0  0  0  0  0  0
    1.5880   13.7220   -3.5470 C   0  0  1  0  0  0  0  0  0  0  0  0
    0.0580   13.7260   -3.2350 C   0  0  0  0  0  0  0  0  0  0  0  0
    2.2420   12.3440   -3.2040 C   0  0  2  0  0  0  0  0  0  0  0  0
    1.6310   11.1320   -3.9290 C   0  0  0  0  0  0  0  0  0  0  0  0
    0.5080   10.4600   -3.2110 C   0  0  0  0  0  0  0  0  0  0  0  0
    0.1950   10.6310   -1.9130 C   0  0  0  0  0  0  0  0  0  0  0  0
    1.0690   11.5020   -1.0010 C   0  0  1  0  0  0  0  0  0  0  0  0
    1.3300   10.7540    0.3330 C   0  0  0  0  0  0  0  0  0  0  0  0
    0.0410   10.3050    1.0150 C   0  0  0  0  0  0  0  0  0  0  0  0
   -0.7720    9.3950    0.0980 C   0  0  2  0  0  0  0  0  0  0  0  0
   -0.0520    8.1730   -0.0940 O   0  0  0  0  0  0  0  0  0  0  0  0
   -1.0880   10.0380   -1.2810 C   0  0  0  0  0  0  0  0  0  0  0  0
   -2.1140   11.1840   -1.0980 C   0  0  0  0  0  0  0  0  0  0  0  0
   -1.7880    8.9650   -2.1590 C   0  0  0  0  0  0  0  0  0  0  0  0
    2.4020   12.0700   -1.6540 C   0  0  1  0  0  0  0  0  0  0  0  0
    3.5540   11.0300   -1.5010 C   0  0  0  0  0  0  0  0  0  0  0  0
    2.8550   13.3530   -0.8630 C   0  0  0  0  0  0  0  0  0  0  0  0
    2.2650   14.6990   -1.3260 C   0  0  0  0  0  0  0  0  0  0  0  0
    2.4030   14.8660   -2.8420 C   0  0  2  0  0  0  0  0  0  0  0  0
    3.9320   14.8870   -3.1830 C   0  0  0  0  0  0  0  0  0  0  0  0
    4.1633   17.1615   -1.9567 H   0  0  0  0  0  0  0  0  0  0  0  0
    4.2627   16.2329   -3.4912 H   0  0  0  0  0  0  0  0  0  0  0  0
    4.5682   18.0030   -3.4912 H   0  0  0  0  0  0  0  0  0  0  0  0
    2.4039   18.0454   -4.2139 H   0  0  0  0  0  0  0  0  0  0  0  0
    2.4064   18.0892   -1.2318 H   0  0  0  0  0  0  0  0  0  0  0  0
    1.8581   19.3223   -2.4658 H   0  0  0  0  0  0  0  0  0  0  0  0
   -0.0453   17.4406   -2.8032 H   0  0  0  0  0  0  0  0  0  0  0  0
    0.3347   17.2122   -1.0452 H   0  0  0  0  0  0  0  0  0  0  0  0
   -0.6202   19.3286   -2.6176 H   0  0  0  0  0  0  0  0  0  0  0  0
   -1.4358   18.4208    1.6480 H   0  0  0  0  0  0  0  0  0  0  0  0
   -2.4417   17.5429    0.4463 H   0  0  0  0  0  0  0  0  0  0  0  0
   -0.6573   17.3362    0.4463 H   0  0  0  0  0  0  0  0  0  0  0  0
   -2.7358   20.4389    0.6998 H   0  0  0  0  0  0  0  0  0  0  0  0
   -2.1364   21.1077   -0.8558 H   0  0  0  0  0  0  0  0  0  0  0  0
   -3.3338   19.7687   -0.8558 H   0  0  0  0  0  0  0  0  0  0  0  0
    0.8163   16.3639   -2.9396 H   0  0  0  0  0  0  0  0  0  0  0  0
    0.6022   16.0532   -5.3271 H   0  0  0  0  0  0  0  0  0  0  0  0
    2.3540   16.2036   -5.5817 H   0  0  0  0  0  0  0  0  0  0  0  0
    0.8737   13.7582   -5.6186 H   0  0  0  0  0  0  0  0  0  0  0  0
    2.6285   13.8477   -5.4949 H   0  0  0  0  0  0  0  0  0  0  0  0
   -0.0940   13.7264   -2.1456 H   0  0  0  0  0  0  0  0  0  0  0  0
   -0.4025   14.6254   -3.6698 H   0  0  0  0  0  0  0  0  0  0  0  0
   -0.4072   12.8291   -3.6698 H   0  0  0  0  0  0  0  0  0  0  0  0
    3.2562   12.4568   -3.6146 H   0  0  0  0  0  0  0  0  0  0  0  0
    1.2548   11.4735   -4.9046 H   0  0  0  0  0  0  0  0  0  0  0  0
    2.4349   10.3849   -4.0042 H   0  0  0  0  0  0  0  0  0  0  0  0
   -0.1170    9.7659   -3.7921 H   0  0  0  0  0  0  0  0  0  0  0  0
    0.4906   12.4177   -0.8086 H   0  0  0  0  0  0  0  0  0  0  0  0
    1.9461    9.8668    0.1249 H   0  0  0  0  0  0  0  0  0  0  0  0
    1.8410   11.4521    1.0123 H   0  0  0  0  0  0  0  0  0  0  0  0
    0.2924    9.7572    1.9352 H   0  0  0  0  0  0  0  0  0  0  0  0
   -0.5608   11.1953    1.2500 H   0  0  0  0  0  0  0  0  0  0  0  0
   -1.7402    9.2134    0.5875 H   0  0  0  0  0  0  0  0  0  0  0  0
    0.0810    8.0570   -1.0510 H   0  0  0  0  0  0  0  0  0  0  0  0
   -2.2751   11.3640   -0.0249 H   0  0  0  0  0  0  0  0  0  0  0  0
   -1.7286   12.1000   -1.5696 H   0  0  0  0  0  0  0  0  0  0  0  0
   -3.0669   10.9018   -1.5696 H   0  0  0  0  0  0  0  0  0  0  0  0
   -2.2736    8.2207   -1.5108 H   0  0  0  0  0  0  0  0  0  0  0  0
   -2.5453    9.4479   -2.7940 H   0  0  0  0  0  0  0  0  0  0  0  0
   -1.0409    8.4665   -2.7940 H   0  0  0  0  0  0  0  0  0  0  0  0
    3.7493   10.8537   -0.4329 H   0  0  0  0  0  0  0  0  0  0  0  0
    3.2608   10.0847   -1.9811 H   0  0  0  0  0  0  0  0  0  0  0  0
    4.4645   11.4181   -1.9811 H   0  0  0  0  0  0  0  0  0  0  0  0
    2.5732   13.2110    0.1908 H   0  0  0  0  0  0  0  0  0  0  0  0
    3.9369   13.4355   -1.0438 H   0  0  0  0  0  0  0  0  0  0  0  0
    1.1995   14.7369   -1.0554 H   0  0  0  0  0  0  0  0  0  0  0  0
    2.8171   15.5122   -0.8321 H   0  0  0  0  0  0  0  0  0  0  0  0
    4.5155   14.8950   -2.2506 H   0  0  0  0  0  0  0  0  0  0  0  0
    4.1893   13.9923   -3.7689 H   0  0  0  0  0  0  0  0  0  0  0  0
    4.1647   15.7884   -3.7689 H   0  0  0  0  0  0  0  0  0  0  0  0
  1  2  1  0
  2  3  1  0
  3  4  1  0
  4  5  1  0
  5  6  1  0
  6  7  1  0
  7  8  1  0
  7  9  1  0
  2 10  1  0
 10 11  1  0
 11 12  1  0
 12 13  1  0
 13 14  1  1
 13 15  1  0
 15 16  1  0
 16 17  1  0
 17 18  2  0
 18 19  1  0
 19 20  1  0
 20 21  1  0
 21 22  1  0
 22 23  1  0
 22 24  1  0
 24 25  1  0
 24 26  1  0
 19 27  1  0
 27 28  1  6
 27 29  1  0
 29 30  1  0
 30 31  1  0
 31 32  1  1
  7  5  1  0
 31 10  1  0
 31 13  1  0
 27 15  1  0
 24 18  1  0
  1 33  1  0
  1 34  1  0
  1 35  1  0
  2 36  1  6
  3 37  1  0
  3 38  1  0
  4 39  1  0
  4 40  1  0
  5 41  1  6
  8 42  1  0
  8 43  1  0
  8 44  1  0
  9 45  1  0
  9 46  1  0
  9 47  1  0
 10 48  1  1
 11 49  1  0
 11 50  1  0
 12 51  1  0
 12 52  1  0
 14 53  1  0
 14 54  1  0
 14 55  1  0
 15 56  1  6
 16 57  1  0
 16 58  1  0
 17 59  1  0
 19 60  1  1
 20 61  1  0
 20 62  1  0
 21 63  1  0
 21 64  1  0
 22 65  1  1
 23 66  1  0
 25 67  1  0
 25 68  1  0
 25 69  1  0
 26 70  1  0
 26 71  1  0
 26 72  1  0
 28 73  1  0
 28 74  1  0
 28 75  1  0
 29 76  1  0
 29 77  1  0
 30 78  1  0
 30 79  1  0
 32 80  1  0
 32 81  1  0
 32 82  1  0
M  END
>  <meeko>  (3) 
{"is_sidechain": [false], "intermolecular_energy": 2.731, "internal_energy": -0.839}

$$$$
EPH_relaxed_0001_pdb2pqr_Repair_321_r2_0001_out
     RDKit          3D

 82 86  0  0  0  0  0  0  0  0999 V2000
   -0.6750    8.0620   -1.3380 C   0  0  0  0  0  0  0  0  0  0  0  0
   -0.9450    9.2830   -0.4540 C   0  0  2  0  0  0  0  0  0  0  0  0
   -2.2670    9.9860   -0.8240 C   0  0  0  0  0  0  0  0  0  0  0  0
   -3.4790    9.4680   -0.0450 C   0  0  0  0  0  0  0  0  0  0  0  0
   -3.8930    8.1040   -0.5070 C   0  0  2  0  0  0  0  0  0  0  0  0
   -4.0380    7.9710   -1.9270 O   0  0  0  0  0  0  0  0  0  0  0  0
   -5.2350    7.8100   -1.1500 C   0  0  0  0  0  0  0  0  0  0  0  0
   -6.2500    8.8890   -1.3660 C   0  0  0  0  0  0  0  0  0  0  0  0
   -5.7510    6.4050   -1.1200 C   0  0  0  0  0  0  0  0  0  0  0  0
    0.2150   10.2660   -0.5570 C   0  0  1  0  0  0  0  0  0  0  0  0
    1.5980    9.5620   -0.5330 C   0  0  0  0  0  0  0  0  0  0  0  0
    2.5300   10.3770   -1.4670 C   0  0  0  0  0  0  0  0  0  0  0  0
    1.7630   11.6940   -1.7320 C   0  0  1  0  0  0  0  0  0  0  0  0
    2.0390   12.5780   -0.4750 C   0  0  0  0  0  0  0  0  0  0  0  0
    2.1170   12.4450   -3.0560 C   0  0  2  0  0  0  0  0  0  0  0  0
    3.5720   12.9340   -3.1600 C   0  0  0  0  0  0  0  0  0  0  0  0
    3.8210   14.3120   -2.6420 C   0  0  0  0  0  0  0  0  0  0  0  0
    2.8740   15.2300   -2.3770 C   0  0  0  0  0  0  0  0  0  0  0  0
    1.3980   14.9530   -2.6910 C   0  0  1  0  0  0  0  0  0  0  0  0
    0.7820   16.1820   -3.4110 C   0  0  0  0  0  0  0  0  0  0  0  0
    0.9780   17.4770   -2.6290 C   0  0  0  0  0  0  0  0  0  0  0  0
    2.4610   17.7480   -2.3870 C   0  0  2  0  0  0  0  0  0  0  0  0
    3.0920   18.0160   -3.6440 O   0  0  0  0  0  0  0  0  0  0  0  0
    3.1910   16.5740   -1.6760 C   0  0  0  0  0  0  0  0  0  0  0  0
    2.7140   16.4800   -0.2060 C   0  0  0  0  0  0  0  0  0  0  0  0
    4.7040   16.9170   -1.6200 C   0  0  0  0  0  0  0  0  0  0  0  0
    1.0940   13.5880   -3.4460 C   0  0  1  0  0  0  0  0  0  0  0  0
    1.2210   13.7920   -4.9870 C   0  0  0  0  0  0  0  0  0  0  0  0
   -0.4000   13.1720   -3.1750 C   0  0  0  0  0  0  0  0  0  0  0  0
   -0.6690   12.3290   -1.9140 C   0  0  0  0  0  0  0  0  0  0  0  0
    0.2950   11.1410   -1.8330 C   0  0  2  0  0  0  0  0  0  0  0  0
    0.0250   10.2210   -3.0720 C   0  0  0  0  0  0  0  0  0  0  0  0
   -0.4811    7.1851   -0.7028 H   0  0  0  0  0  0  0  0  0  0  0  0
   -1.5519    7.8680   -1.9731 H   0  0  0  0  0  0  0  0  0  0  0  0
    0.2020    8.2558   -1.9731 H   0  0  0  0  0  0  0  0  0  0  0  0
   -1.0391    8.9274    0.5827 H   0  0  0  0  0  0  0  0  0  0  0  0
   -2.1572   11.0614   -0.6204 H   0  0  0  0  0  0  0  0  0  0  0  0
   -2.4553    9.7770   -1.8874 H   0  0  0  0  0  0  0  0  0  0  0  0
   -3.2220    9.4197    1.0235 H   0  0  0  0  0  0  0  0  0  0  0  0
   -4.3181   10.1579   -0.2178 H   0  0  0  0  0  0  0  0  0  0  0  0
   -3.3564    7.6324    0.3294 H   0  0  0  0  0  0  0  0  0  0  0  0
   -6.6011    9.2623   -0.3927 H   0  0  0  0  0  0  0  0  0  0  0  0
   -5.7932    9.7142   -1.9320 H   0  0  0  0  0  0  0  0  0  0  0  0
   -7.1015    8.4834   -1.9320 H   0  0  0  0  0  0  0  0  0  0  0  0
   -5.8702    6.0804   -0.0758 H   0  0  0  0  0  0  0  0  0  0  0  0
   -6.7240    6.3608   -1.6311 H   0  0  0  0  0  0  0  0  0  0  0  0
   -5.0379    5.7415   -1.6311 H   0  0  0  0  0  0  0  0  0  0  0  0
    0.0005   10.8969    0.3182 H   0  0  0  0  0  0  0  0  0  0  0  0
    2.0010    9.5530    0.4905 H   0  0  0  0  0  0  0  0  0  0  0  0
    1.5161    8.5179   -0.8693 H   0  0  0  0  0  0  0  0  0  0  0  0
    3.4921   10.5805   -0.9741 H   0  0  0  0  0  0  0  0  0  0  0  0
    2.7648    9.8371   -2.3962 H   0  0  0  0  0  0  0  0  0  0  0  0
    1.8550   11.9886    0.4353 H   0  0  0  0  0  0  0  0  0  0  0  0
    3.0856   12.9164   -0.4874 H   0  0  0  0  0  0  0  0  0  0  0  0
    1.3709   13.4518   -0.4874 H   0  0  0  0  0  0  0  0  0  0  0  0
    2.0137   11.6522   -3.8116 H   0  0  0  0  0  0  0  0  0  0  0  0
    4.2059   12.2376   -2.5915 H   0  0  0  0  0  0  0  0  0  0  0  0
    3.8058   12.9663   -4.2344 H   0  0  0  0  0  0  0  0  0  0  0  0
    4.8670   14.6010   -2.4619 H   0  0  0  0  0  0  0  0  0  0  0  0
    0.9037   14.8028   -1.7199 H   0  0  0  0  0  0  0  0  0  0  0  0
    1.2593   16.2893   -4.3962 H   0  0  0  0  0  0  0  0  0  0  0  0
   -0.3002   16.0076   -3.5023 H   0  0  0  0  0  0  0  0  0  0  0  0
    0.5480   18.3121   -3.2015 H   0  0  0  0  0  0  0  0  0  0  0  0
    0.4751   17.3794   -1.6556 H   0  0  0  0  0  0  0  0  0  0  0  0
    2.5319   18.6149   -1.7136 H   0  0  0  0  0  0  0  0  0  0  0  0
    3.2010   17.1670   -4.1050 H   0  0  0  0  0  0  0  0  0  0  0  0
    3.5671   16.6481    0.4678 H   0  0  0  0  0  0  0  0  0  0  0  0
    1.9444   17.2437   -0.0207 H   0  0  0  0  0  0  0  0  0  0  0  0
    2.2917   15.4814   -0.0207 H   0  0  0  0  0  0  0  0  0  0  0  0
    5.0249   16.9897   -0.5704 H   0  0  0  0  0  0  0  0  0  0  0  0
    5.2782   16.1262   -2.1250 H   0  0  0  0  0  0  0  0  0  0  0  0
    4.8810   17.8781   -2.1250 H   0  0  0  0  0  0  0  0  0  0  0  0
    1.7924   14.7099   -5.1895 H   0  0  0  0  0  0  0  0  0  0  0  0
    1.7425   12.9303   -5.4292 H   0  0  0  0  0  0  0  0  0  0  0  0
    0.2176   13.8797   -5.4292 H   0  0  0  0  0  0  0  0  0  0  0  0
   -0.9923   14.0951   -3.0907 H   0  0  0  0  0  0  0  0  0  0  0  0
   -0.6754   12.5227   -4.0191 H   0  0  0  0  0  0  0  0  0  0  0  0
   -0.5368   12.9611   -1.0235 H   0  0  0  0  0  0  0  0  0  0  0  0
   -1.6980   11.9432   -1.9628 H   0  0  0  0  0  0  0  0  0  0  0  0
   -0.2692    9.2187   -2.7273 H   0  0  0  0  0  0  0  0  0  0  0  0
   -0.7845   10.6521   -3.6793 H   0  0  0  0  0  0  0  0  0  0  0  0
    0.9391   10.1463   -3.6793 H   0  0  0  0  0  0  0  0  0  0  0  0
  1  2  1  0
  2  3  1  0
  3  4  1  0
  4  5  1  0
  5  6  1  0
  6  7  1  0
  7  8  1  0
  7  9  1  0
  2 10  1  0
 10 11  1  0
 11 12  1  0
 12 13  1  0
 13 14  1  1
 13 15  1  0
 15 16  1  0
 16 17  1  0
 17 18  2  0
 18 19  1  0
 19 20  1  0
 20 21  1  0
 21 22  1  0
 22 23  1  0
 22 24  1  0
 24 25  1  0
 24 26  1  0
 19 27  1  0
 27 28  1  6
 27 29  1  0
 29 30  1  0
 30 31  1  0
 31 32  1  6
  7  5  1  0
 31 10  1  0
 31 13  1  0
 27 15  1  0
 24 18  1  0
  1 33  1  0
  1 34  1  0
  1 35  1  0
  2 36  1  1
  3 37  1  0
  3 38  1  0
  4 39  1  0
  4 40  1  0
  5 41  1  1
  8 42  1  0
  8 43  1  0
  8 44  1  0
  9 45  1  0
  9 46  1  0
  9 47  1  0
 10 48  1  1
 11 49  1  0
 11 50  1  0
 12 51  1  0
 12 52  1  0
 14 53  1  0
 14 54  1  0
 14 55  1  0
 15 56  1  6
 16 57  1  0
 16 58  1  0
 17 59  1  0
 19 60  1  1
 20 61  1  0
 20 62  1  0
 21 63  1  0
 21 64  1  0
 22 65  1  1
 23 66  1  0
 25 67  1  0
 25 68  1  0
 25 69  1  0
 26 70  1  0
 26 71  1  0
 26 72  1  0
 28 73  1  0
 28 74  1  0
 28 75  1  0
 29 76  1  0
 29 77  1  0
 30 78  1  0
 30 79  1  0
 32 80  1  0
 32 81  1  0
 32 82  1  0
M  END
>  <meeko>  (4) 
{"is_sidechain": [false], "intermolecular_energy": 2.731, "internal_energy": -0.839}

$$$$
EPH_relaxed_0001_pdb2pqr_Repair_321_r2_0001_out
     RDKit          3D

 82 86  0  0  0  0  0  0  0  0999 V2000
   -2.4340    8.0250   -2.2850 C   0  0  0  0  0  0  0  0  0  0  0  0
   -2.6330    8.6000   -0.8800 C   0  0  2  0  0  0  0  0  0  0  0  0
   -4.1210    8.8480   -0.5600 C   0  0  0  0  0  0  0  0  0  0  0  0
   -4.9610    7.5690   -0.5100 C   0  0  0  0  0  0  0  0  0  0  0  0
   -5.7660    7.3840   -1.7610 C   0  0  2  0  0  0  0  0  0  0  0  0
   -6.6920    8.4430   -2.0380 O   0  0  0  0  0  0  0  0  0  0  0  0
   -7.2660    7.1550   -1.7640 C   0  0  0  0  0  0  0  0  0  0  0  0
   -8.0490    7.0960   -0.4910 C   0  0  0  0  0  0  0  0  0  0  0  0
   -7.8870    6.5050   -2.9610 C   0  0  0  0  0  0  0  0  0  0  0  0
   -1.8460    9.8960   -0.7330 C   0  0  1  0  0  0  0  0  0  0  0  0
   -1.5930   10.2760    0.7510 C   0  0  0  0  0  0  0  0  0  0  0  0
   -0.1970   10.9470    0.8090 C   0  0  0  0  0  0  0  0  0  0  0  0
    0.1620   11.2310   -0.6680 C   0  0  1  0  0  0  0  0  0  0  0  0
   -0.5960   12.5490   -1.0190 C   0  0  0  0  0  0  0  0  0  0  0  0
    1.6860   11.3350   -1.0010 C   0  0  2  0  0  0  0  0  0  0  0  0
    2.4310   12.4830   -0.2990 C   0  0  0  0  0  0  0  0  0  0  0  0
    2.4660   13.7730   -1.0480 C   0  0  0  0  0  0  0  0  0  0  0  0
    2.1730   13.9280   -2.3530 C   0  0  0  0  0  0  0  0  0  0  0  0
    1.8550   12.7160   -3.2380 C   0  0  1  0  0  0  0  0  0  0  0  0
    2.6450   12.8250   -4.5690 C   0  0  0  0  0  0  0  0  0  0  0  0
    2.4030   14.1500   -5.2860 C   0  0  0  0  0  0  0  0  0  0  0  0
    2.7860   15.3300   -4.3950 C   0  0  2  0  0  0  0  0  0  0  0  0
    4.2020   15.3130   -4.1910 O   0  0  0  0  0  0  0  0  0  0  0  0
    2.0590   15.3210   -3.0210 C   0  0  0  0  0  0  0  0  0  0  0  0
    0.5580   15.6410   -3.2240 C   0  0  0  0  0  0  0  0  0  0  0  0
    2.6390   16.4810   -2.1670 C   0  0  0  0  0  0  0  0  0  0  0  0
    2.0150   11.2930   -2.5490 C   0  0  1  0  0  0  0  0  0  0  0  0
    3.4900   10.8030   -2.6770 C   0  0  0  0  0  0  0  0  0  0  0  0
    1.1300   10.2450   -3.3210 C   0  0  0  0  0  0  0  0  0  0  0  0
   -0.3350   10.1040   -2.8660 C   0  0  0  0  0  0  0  0  0  0  0  0
   -0.4240    9.9390   -1.3460 C   0  0  2  0  0  0  0  0  0  0  0  0
    0.3110    8.6080   -0.9650 C   0  0  0  0  0  0  0  0  0  0  0  0
   -2.0751    6.9880   -2.2093 H   0  0  0  0  0  0  0  0  0  0  0  0
   -3.3907    8.0432   -2.8275 H   0  0  0  0  0  0  0  0  0  0  0  0
   -1.6932    8.6307   -2.8275 H   0  0  0  0  0  0  0  0  0  0  0  0
   -2.2602    7.8552   -0.1614 H   0  0  0  0  0  0  0  0  0  0  0  0
   -4.1875    9.3457    0.4187 H   0  0  0  0  0  0  0  0  0  0  0  0
   -4.5261    9.4671   -1.3740 H   0  0  0  0  0  0  0  0  0  0  0  0
   -4.2896    6.7063   -0.3875 H   0  0  0  0  0  0  0  0  0  0  0  0
   -5.6581    7.6500    0.3370 H   0  0  0  0  0  0  0  0  0  0  0  0
   -4.9367    6.8466   -2.2442 H   0  0  0  0  0  0  0  0  0  0  0  0
   -7.3608    7.1479    0.3655 H   0  0  0  0  0  0  0  0  0  0  0  0
   -8.7485    7.9440   -0.4512 H   0  0  0  0  0  0  0  0  0  0  0  0
   -8.6136    6.1528   -0.4512 H   0  0  0  0  0  0  0  0  0  0  0  0
   -8.6120    5.7462   -2.6314 H   0  0  0  0  0  0  0  0  0  0  0  0
   -8.4021    7.2660   -3.5656 H   0  0  0  0  0  0  0  0  0  0  0  0
   -7.1033    6.0252   -3.5656 H   0  0  0  0  0  0  0  0  0  0  0  0
   -2.5123   10.5789   -1.2804 H   0  0  0  0  0  0  0  0  0  0  0  0
   -2.3653   10.9776    1.0993 H   0  0  0  0  0  0  0  0  0  0  0  0
   -1.6313    9.3874    1.3983 H   0  0  0  0  0  0  0  0  0  0  0  0
   -0.2399   11.8832    1.3850 H   0  0  0  0  0  0  0  0  0  0  0  0
    0.5509   10.3108    1.3048 H   0  0  0  0  0  0  0  0  0  0  0  0
   -0.8904   13.0609   -0.0910 H   0  0  0  0  0  0  0  0  0  0  0  0
    0.0626   13.2054   -1.6067 H   0  0  0  0  0  0  0  0  0  0  0  0
   -1.4945   12.3098   -1.6067 H   0  0  0  0  0  0  0  0  0  0  0  0
    2.0867   10.4086   -0.5637 H   0  0  0  0  0  0  0  0  0  0  0  0
    1.9403   12.6651    0.6685 H   0  0  0  0  0  0  0  0  0  0  0  0
    3.4773   12.1558   -0.2080 H   0  0  0  0  0  0  0  0  0  0  0  0
    2.7557   14.6735   -0.4866 H   0  0  0  0  0  0  0  0  0  0  0  0
    0.7747   12.7625   -3.4399 H   0  0  0  0  0  0  0  0  0  0  0  0
    3.7191   12.7335   -4.3501 H   0  0  0  0  0  0  0  0  0  0  0  0
    2.2968   12.0185   -5.2311 H   0  0  0  0  0  0  0  0  0  0  0  0
    3.0098   14.1793   -6.2030 H   0  0  0  0  0  0  0  0  0  0  0  0
    1.3333   14.2270   -5.5304 H   0  0  0  0  0  0  0  0  0  0  0  0
    2.4705   16.2491   -4.9104 H   0  0  0  0  0  0  0  0  0  0  0  0
    4.3650   15.4790   -3.2470 H   0  0  0  0  0  0  0  0  0  0  0  0
    0.0695   15.7451   -2.2439 H   0  0  0  0  0  0  0  0  0  0  0  0
    0.4563   16.5810   -3.7861 H   0  0  0  0  0  0  0  0  0  0  0  0
    0.0817   14.8242   -3.7861 H   0  0  0  0  0  0  0  0  0  0  0  0
    2.5209   16.2448   -1.0992 H   0  0  0  0  0  0  0  0  0  0  0  0
    3.7068   16.6083   -2.3984 H   0  0  0  0  0  0  0  0  0  0  0  0
    2.1002   17.4116   -2.3984 H   0  0  0  0  0  0  0  0  0  0  0  0
    3.9176   10.6610   -1.6735 H   0  0  0  0  0  0  0  0  0  0  0  0
    3.5133    9.8489   -3.2239 H   0  0  0  0  0  0  0  0  0  0  0  0
    4.0796   11.5536   -3.2239 H   0  0  0  0  0  0  0  0  0  0  0  0
    1.1225   10.5334   -4.3825 H   0  0  0  0  0  0  0  0  0  0  0  0
    1.5916    9.2687   -3.1119 H   0  0  0  0  0  0  0  0  0  0  0  0
   -0.8923   11.0046   -3.1633 H   0  0  0  0  0  0  0  0  0  0  0  0
   -0.7652    9.2102   -3.3414 H   0  0  0  0  0  0  0  0  0  0  0  0
    0.3611    8.5173    0.1301 H   0  0  0  0  0  0  0  0  0  0  0  0
   -0.2424    7.7521   -1.3789 H   0  0  0  0  0  0  0  0  0  0  0  0
    1.3301    8.6205   -1.3789 H   0  0  0  0  0  0  0  0  0  0  0  0
  1  2  1  0
  2  3  1  0
  3  4  1  0
  4  5  1  0
  5  6  1  0
  6  7  1  0
  7  8  1  0
  7  9  1  0
  2 10  1  0
 10 11  1  0
 11 12  1  0
 12 13  1  0
 13 14  1  6
 13 15  1  0
 15 16  1  0
 16 17  1  0
 17 18  2  0
 18 19  1  0
 19 20  1  0
 20 21  1  0
 21 22  1  0
 22 23  1  0
 22 24  1  0
 24 25  1  0
 24 26  1  0
 19 27  1  0
 27 28  1  1
 27 29  1  0
 29 30  1  0
 30 31  1  0
 31 32  1  1
  7  5  1  0
 31 10  1  0
 31 13  1  0
 27 15  1  0
 24 18  1  0
  1 33  1  0
  1 34  1  0
  1 35  1  0
  2 36  1  1
  3 37  1  0
  3 38  1  0
  4 39  1  0
  4 40  1  0
  5 41  1  6
  8 42  1  0
  8 43  1  0
  8 44  1  0
  9 45  1  0
  9 46  1  0
  9 47  1  0
 10 48  1  6
 11 49  1  0
 11 50  1  0
 12 51  1  0
 12 52  1  0
 14 53  1  0
 14 54  1  0
 14 55  1  0
 15 56  1  1
 16 57  1  0
 16 58  1  0
 17 59  1  0
 19 60  1  6
 20 61  1  0
 20 62  1  0
 21 63  1  0
 21 64  1  0
 22 65  1  6
 23 66  1  0
 25 67  1  0
 25 68  1  0
 25 69  1  0
 26 70  1  0
 26 71  1  0
 26 72  1  0
 28 73  1  0
 28 74  1  0
 28 75  1  0
 29 76  1  0
 29 77  1  0
 30 78  1  0
 30 79  1  0
 32 80  1  0
 32 81  1  0
 32 82  1  0
M  END
>  <meeko>  (5) 
{"is_sidechain": [false], "intermolecular_energy": 2.731, "internal_energy": -0.839}

$$$$
EPH_relaxed_0001_pdb2pqr_Repair_321_r2_0001_out
     RDKit          3D

 82 86  0  0  0  0  0  0  0  0999 V2000
   -0.9460    9.3170   -2.6780 C   0  0  0  0  0  0  0  0  0  0  0  0
    0.2510    9.0270   -1.7680 C   0  0  2  0  0  0  0  0  0  0  0  0
   -0.1740    8.8060   -0.3030 C   0  0  0  0  0  0  0  0  0  0  0  0
   -0.7020   10.0690    0.3820 C   0  0  0  0  0  0  0  0  0  0  0  0
    0.3390   10.7030    1.2540 C   0  0  2  0  0  0  0  0  0  0  0  0
   -0.1790   11.5690    2.2730 O   0  0  0  0  0  0  0  0  0  0  0  0
    0.6300   12.1930    1.2620 C   0  0  0  0  0  0  0  0  0  0  0  0
   -0.1220   13.1390    0.3800 C   0  0  0  0  0  0  0  0  0  0  0  0
    1.9630   12.6590    1.7600 C   0  0  0  0  0  0  0  0  0  0  0  0
    1.2560   10.1690   -1.8530 C   0  0  1  0  0  0  0  0  0  0  0  0
    2.6630    9.6940   -2.3040 C   0  0  0  0  0  0  0  0  0  0  0  0
    3.2640   10.8330   -3.1670 C   0  0  0  0  0  0  0  0  0  0  0  0
    2.3380   12.0460   -2.9130 C   0  0  1  0  0  0  0  0  0  0  0  0
    2.8250   12.6460   -1.5570 C   0  0  0  0  0  0  0  0  0  0  0  0
    2.2920   13.1280   -4.0400 C   0  0  2  0  0  0  0  0  0  0  0  0
    3.6280   13.8400   -4.3160 C   0  0  0  0  0  0  0  0  0  0  0  0
    3.8660   15.0810   -3.5210 C   0  0  0  0  0  0  0  0  0  0  0  0
    2.9290   15.7610   -2.8340 C   0  0  0  0  0  0  0  0  0  0  0  0
    1.4530   15.3470   -2.8920 C   0  0  1  0  0  0  0  0  0  0  0  0
    0.5720   16.6020   -3.1210 C   0  0  0  0  0  0  0  0  0  0  0  0
    0.8310   17.6950   -2.0890 C   0  0  0  0  0  0  0  0  0  0  0  0
    2.2960   18.1210   -2.1020 C   0  0  2  0  0  0  0  0  0  0  0  0
    2.5790   18.7650   -3.3480 O   0  0  0  0  0  0  0  0  0  0  0  0
    3.2810   16.9370   -1.8900 C   0  0  0  0  0  0  0  0  0  0  0  0
    3.1820   16.4340   -0.4280 C   0  0  0  0  0  0  0  0  0  0  0  0
    4.7250   17.4800   -2.0660 C   0  0  0  0  0  0  0  0  0  0  0  0
    1.1040   14.1640   -3.8950 C   0  0  1  0  0  0  0  0  0  0  0  0
    0.8380   14.7370   -5.3210 C   0  0  0  0  0  0  0  0  0  0  0  0
   -0.2360   13.4780   -3.4350 C   0  0  0  0  0  0  0  0  0  0  0  0
   -0.1140   12.3350   -2.4090 C   0  0  0  0  0  0  0  0  0  0  0  0
    0.9460   11.3180   -2.8440 C   0  0  2  0  0  0  0  0  0  0  0  0
    0.4720   10.6820   -4.1950 C   0  0  0  0  0  0  0  0  0  0  0  0
   -1.8316    9.5315   -2.0618 H   0  0  0  0  0  0  0  0  0  0  0  0
   -0.7217   10.1868   -3.3129 H   0  0  0  0  0  0  0  0  0  0  0  0
   -1.1446    8.4410   -3.3129 H   0  0  0  0  0  0  0  0  0  0  0  0
    0.7171    8.0949   -2.1200 H   0  0  0  0  0  0  0  0  0  0  0  0
   -0.9661    8.0430   -0.2826 H   0  0  0  0  0  0  0  0  0  0  0  0
    0.7248    8.4931    0.2486 H   0  0  0  0  0  0  0  0  0  0  0  0
   -1.0090   10.7909   -0.3891 H   0  0  0  0  0  0  0  0  0  0  0  0
   -1.5540    9.7842    1.0168 H   0  0  0  0  0  0  0  0  0  0  0  0
    0.9925    9.8240    1.1527 H   0  0  0  0  0  0  0  0  0  0  0  0
   -0.6868   13.8494    1.0015 H   0  0  0  0  0  0  0  0  0  0  0  0
    0.5870   13.6904   -0.2550 H   0  0  0  0  0  0  0  0  0  0  0  0
   -0.8191   12.5727   -0.2550 H   0  0  0  0  0  0  0  0  0  0  0  0
    1.9638   12.6593    2.8600 H   0  0  0  0  0  0  0  0  0  0  0  0
    2.7486   11.9822    1.3929 H   0  0  0  0  0  0  0  0  0  0  0  0
    2.1558   13.6779    1.3929 H   0  0  0  0  0  0  0  0  0  0  0  0
    1.2007   10.5398   -0.8189 H   0  0  0  0  0  0  0  0  0  0  0  0
    3.2993    9.5077   -1.4263 H   0  0  0  0  0  0  0  0  0  0  0  0
    2.5989    8.7567   -2.8761 H   0  0  0  0  0  0  0  0  0  0  0  0
    4.2934   11.0576   -2.8511 H   0  0  0  0  0  0  0  0  0  0  0  0
    3.3172   10.5650   -4.2325 H   0  0  0  0  0  0  0  0  0  0  0  0
    2.3716   12.0874   -0.7249 H   0  0  0  0  0  0  0  0  0  0  0  0
    3.9207   12.5707   -1.4952 H   0  0  0  0  0  0  0  0  0  0  0  0
    2.5260   13.7028   -1.4952 H   0  0  0  0  0  0  0  0  0  0  0  0
    2.0837   12.5262   -4.9369 H   0  0  0  0  0  0  0  0  0  0  0  0
    4.4416   13.1335   -4.0948 H   0  0  0  0  0  0  0  0  0  0  0  0
    3.5924   14.1557   -5.3691 H   0  0  0  0  0  0  0  0  0  0  0  0
    4.8935   15.4728   -3.4943 H   0  0  0  0  0  0  0  0  0  0  0  0
    1.2224   14.9036   -1.9121 H   0  0  0  0  0  0  0  0  0  0  0  0
    0.7854   17.0047   -4.1222 H   0  0  0  0  0  0  0  0  0  0  0  0
   -0.4795   16.2939   -3.0241 H   0  0  0  0  0  0  0  0  0  0  0  0
    0.2007   18.5661   -2.3213 H   0  0  0  0  0  0  0  0  0  0  0  0
    0.5890   17.3003   -1.0912 H   0  0  0  0  0  0  0  0  0  0  0  0
    2.4460   18.8088   -1.2568 H   0  0  0  0  0  0  0  0  0  0  0  0
    1.8180   19.3290   -3.5670 H   0  0  0  0  0  0  0  0  0  0  0  0
    3.3476   17.2752    0.2612 H   0  0  0  0  0  0  0  0  0  0  0  0
    2.1828   16.0083   -0.2536 H   0  0  0  0  0  0  0  0  0  0  0  0
    3.9453   15.6614   -0.2536 H   0  0  0  0  0  0  0  0  0  0  0  0
    5.1760   17.6496   -1.0772 H   0  0  0  0  0  0  0  0  0  0  0  0
    5.3271   16.7469   -2.6228 H   0  0  0  0  0  0  0  0  0  0  0  0
    4.6949   18.4282   -2.6228 H   0  0  0  0  0  0  0  0  0  0  0  0
    0.3762   15.7318   -5.2362 H   0  0  0  0  0  0  0  0  0  0  0  0
    1.7897   14.8199   -5.8663 H   0  0  0  0  0  0  0  0  0  0  0  0
    0.1604   14.0635   -5.8663 H   0  0  0  0  0  0  0  0  0  0  0  0
   -0.8735   14.2569   -2.9914 H   0  0  0  0  0  0  0  0  0  0  0  0
   -0.6455   13.0088   -4.3417 H   0  0  0  0  0  0  0  0  0  0  0  0
    0.1704   12.7561   -1.4334 H   0  0  0  0  0  0  0  0  0  0  0  0
   -1.0844   11.8217   -2.3389 H   0  0  0  0  0  0  0  0  0  0  0  0
   -0.1734    9.8161   -3.9861 H   0  0  0  0  0  0  0  0  0  0  0  0
   -0.0919   11.4284   -4.7737 H   0  0  0  0  0  0  0  0  0  0  0  0
    1.3484   10.3550   -4.7737 H   0  0  0  0  0  0  0  0  0  0  0  0
  1  2  1  0
  2  3  1  0
  3  4  1  0
  4  5  1  0
  5  6  1  0
  6  7  1  0
  7  8  1  0
  7  9  1  0
  2 10  1  0
 10 11  1  0
 11 12  1  0
 12 13  1  0
 13 14  1  1
 13 15  1  0
 15 16  1  0
 16 17  1  0
 17 18  2  0
 18 19  1  0
 19 20  1  0
 20 21  1  0
 21 22  1  0
 22 23  1  0
 22 24  1  0
 24 25  1  0
 24 26  1  0
 19 27  1  0
 27 28  1  6
 27 29  1  0
 29 30  1  0
 30 31  1  0
 31 32  1  6
  7  5  1  0
 31 10  1  0
 31 13  1  0
 27 15  1  0
 24 18  1  0
  1 33  1  0
  1 34  1  0
  1 35  1  0
  2 36  1  6
  3 37  1  0
  3 38  1  0
  4 39  1  0
  4 40  1  0
  5 41  1  1
  8 42  1  0
  8 43  1  0
  8 44  1  0
  9 45  1  0
  9 46  1  0
  9 47  1  0
 10 48  1  1
 11 49  1  0
 11 50  1  0
 12 51  1  0
 12 52  1  0
 14 53  1  0
 14 54  1  0
 14 55  1  0
 15 56  1  6
 16 57  1  0
 16 58  1  0
 17 59  1  0
 19 60  1  1
 20 61  1  0
 20 62  1  0
 21 63  1  0
 21 64  1  0
 22 65  1  1
 23 66  1  0
 25 67  1  0
 25 68  1  0
 25 69  1  0
 26 70  1  0
 26 71  1  0
 26 72  1  0
 28 73  1  0
 28 74  1  0
 28 75  1  0
 29 76  1  0
 29 77  1  0
 30 78  1  0
 30 79  1  0
 32 80  1  0
 32 81  1  0
 32 82  1  0
M  END
>  <meeko>  (6) 
{"is_sidechain": [false], "intermolecular_energy": 2.731, "internal_energy": -0.839}

$$$$
EPH_relaxed_0001_pdb2pqr_Repair_321_r2_0001_out
     RDKit          3D

 82 86  0  0  0  0  0  0  0  0999 V2000
   -0.9020    8.7970   -1.9740 C   0  0  0  0  0  0  0  0  0  0  0  0
   -1.3280    9.1950   -0.5580 C   0  0  2  0  0  0  0  0  0  0  0  0
   -2.8580    9.3340   -0.4290 C   0  0  0  0  0  0  0  0  0  0  0  0
   -3.6410    8.3090   -1.2540 C   0  0  0  0  0  0  0  0  0  0  0  0
   -5.0610    8.1920   -0.7890 C   0  0  2  0  0  0  0  0  0  0  0  0
   -5.4670    6.8650   -0.4290 O   0  0  0  0  0  0  0  0  0  0  0  0
   -6.1350    7.4470   -1.5600 C   0  0  0  0  0  0  0  0  0  0  0  0
   -5.8340    6.7690   -2.8600 C   0  0  0  0  0  0  0  0  0  0  0  0
   -7.5690    7.7890   -1.3020 C   0  0  0  0  0  0  0  0  0  0  0  0
   -0.6510   10.5010   -0.1590 C   0  0  1  0  0  0  0  0  0  0  0  0
    0.3560   10.3200    1.0070 C   0  0  0  0  0  0  0  0  0  0  0  0
    1.5220   11.3080    0.7490 C   0  0  0  0  0  0  0  0  0  0  0  0
    0.9970   12.2500   -0.3600 C   0  0  1  0  0  0  0  0  0  0  0  0
    0.1100   13.2940    0.3880 C   0  0  0  0  0  0  0  0  0  0  0  0
    2.0810   12.9440   -1.2480 C   0  0  2  0  0  0  0  0  0  0  0  0
    3.0340   13.8880   -0.4950 C   0  0  0  0  0  0  0  0  0  0  0  0
    2.5910   15.3120   -0.4170 C   0  0  0  0  0  0  0  0  0  0  0  0
    1.6230   15.8720   -1.1660 C   0  0  0  0  0  0  0  0  0  0  0  0
    0.9290   15.0770   -2.2790 C   0  0  1  0  0  0  0  0  0  0  0  0
    0.8520   15.9430   -3.5640 C   0  0  0  0  0  0  0  0  0  0  0  0
    0.1940   17.2970   -3.3170 C   0  0  0  0  0  0  0  0  0  0  0  0
    0.9470   18.0820   -2.2460 C   0  0  2  0  0  0  0  0  0  0  0  0
    2.2410   18.4250   -2.7500 O   0  0  0  0  0  0  0  0  0  0  0  0
    1.0960   17.3050   -0.9080 C   0  0  0  0  0  0  0  0  0  0  0  0
   -0.2840   17.1980   -0.2130 C   0  0  0  0  0  0  0  0  0  0  0  0
    1.9930   18.1490    0.0370 C   0  0  0  0  0  0  0  0  0  0  0  0
    1.5080   13.6230   -2.5570 C   0  0  1  0  0  0  0  0  0  0  0  0
    2.6910   13.7060   -3.5700 C   0  0  0  0  0  0  0  0  0  0  0  0
    0.3940   12.7490   -3.2470 C   0  0  0  0  0  0  0  0  0  0  0  0
   -0.5720   11.9930   -2.3140 C   0  0  0  0  0  0  0  0  0  0  0  0
    0.1970   11.2210   -1.2380 C   0  0  2  0  0  0  0  0  0  0  0  0
    1.0820   10.1470   -1.9590 C   0  0  0  0  0  0  0  0  0  0  0  0
   -0.0992    8.0470   -1.9182 H   0  0  0  0  0  0  0  0  0  0  0  0
   -1.7635    8.3728   -2.5105 H   0  0  0  0  0  0  0  0  0  0  0  0
   -0.5372    9.6853   -2.5105 H   0  0  0  0  0  0  0  0  0  0  0  0
   -1.0114    8.3896    0.1210 H   0  0  0  0  0  0  0  0  0  0  0  0
   -3.1301    9.2086    0.6294 H   0  0  0  0  0  0  0  0  0  0  0  0
   -3.1241   10.3288   -0.8158 H   0  0  0  0  0  0  0  0  0  0  0  0
   -3.6358    8.6213   -2.3087 H   0  0  0  0  0  0  0  0  0  0  0  0
   -3.1578    7.3285   -1.1310 H   0  0  0  0  0  0  0  0  0  0  0  0
   -5.0281    9.2044   -0.3600 H   0  0  0  0  0  0  0  0  0  0  0  0
   -5.3948    5.7796   -2.6645 H   0  0  0  0  0  0  0  0  0  0  0  0
   -6.7639    6.6501   -3.4355 H   0  0  0  0  0  0  0  0  0  0  0  0
   -5.1221    7.3790   -3.4355 H   0  0  0  0  0  0  0  0  0  0  0  0
   -7.7464    7.8313   -0.2172 H   0  0  0  0  0  0  0  0  0  0  0  0
   -7.7989    8.7672   -1.7496 H   0  0  0  0  0  0  0  0  0  0  0  0
   -8.2156    7.0199   -1.7496 H   0  0  0  0  0  0  0  0  0  0  0  0
   -1.5394   11.1021    0.0847 H   0  0  0  0  0  0  0  0  0  0  0  0
   -0.1302   10.5503    1.9665 H   0  0  0  0  0  0  0  0  0  0  0  0
    0.7206    9.2834    1.0564 H   0  0  0  0  0  0  0  0  0  0  0  0
    1.7588   11.8758    1.6609 H   0  0  0  0  0  0  0  0  0  0  0  0
    2.4481   10.7926    0.4547 H   0  0  0  0  0  0  0  0  0  0  0  0
    0.2234   13.1605    1.4740 H   0  0  0  0  0  0  0  0  0  0  0  0
    0.4252   14.3102    0.1086 H   0  0  0  0  0  0  0  0  0  0  0  0
   -0.9437   13.1471    0.1086 H   0  0  0  0  0  0  0  0  0  0  0  0
    2.6991   12.0945   -1.5741 H   0  0  0  0  0  0  0  0  0  0  0  0
    3.1457   13.5100    0.5320 H   0  0  0  0  0  0  0  0  0  0  0  0
    3.9734   13.8923   -1.0673 H   0  0  0  0  0  0  0  0  0  0  0  0
    3.0987   15.9579    0.3145 H   0  0  0  0  0  0  0  0  0  0  0  0
   -0.0857   14.8630   -1.9120 H   0  0  0  0  0  0  0  0  0  0  0  0
    1.8727   16.1098   -3.9387 H   0  0  0  0  0  0  0  0  0  0  0  0
    0.2361   15.4005   -4.2964 H   0  0  0  0  0  0  0  0  0  0  0  0
    0.1948   17.8739   -4.2536 H   0  0  0  0  0  0  0  0  0  0  0  0
   -0.8362   17.1287   -2.9699 H   0  0  0  0  0  0  0  0  0  0  0  0
    0.3570   18.9828   -2.0213 H   0  0  0  0  0  0  0  0  0  0  0  0
    2.6230   17.6250   -3.1500 H   0  0  0  0  0  0  0  0  0  0  0  0
   -0.1467   17.2086    0.8783 H   0  0  0  0  0  0  0  0  0  0  0  0
   -0.9121   18.0501   -0.5119 H   0  0  0  0  0  0  0  0  0  0  0  0
   -0.7733   16.2592   -0.5119 H   0  0  0  0  0  0  0  0  0  0  0  0
    1.7451   17.9157    1.0830 H   0  0  0  0  0  0  0  0  0  0  0  0
    3.0502   17.9105   -0.1512 H   0  0  0  0  0  0  0  0  0  0  0  0
    1.8193   19.2188   -0.1512 H   0  0  0  0  0  0  0  0  0  0  0  0
    3.6411   13.7727   -3.0196 H   0  0  0  0  0  0  0  0  0  0  0  0
    2.6960   12.8060   -4.2024 H   0  0  0  0  0  0  0  0  0  0  0  0
    2.5703   14.5979   -4.2024 H   0  0  0  0  0  0  0  0  0  0  0  0
   -0.2088   13.4169   -3.8799 H   0  0  0  0  0  0  0  0  0  0  0  0
    0.9396   11.9654   -3.7932 H   0  0  0  0  0  0  0  0  0  0  0  0
   -1.2427   12.7166   -1.8276 H   0  0  0  0  0  0  0  0  0  0  0  0
   -1.1503   11.2755   -2.9147 H   0  0  0  0  0  0  0  0  0  0  0  0
    1.5924    9.5276   -1.2068 H   0  0  0  0  0  0  0  0  0  0  0  0
    0.4442    9.5087   -2.5881 H   0  0  0  0  0  0  0  0  0  0  0  0
    1.8305   10.6510   -2.5881 H   0  0  0  0  0  0  0  0  0  0  0  0
  1  2  1  0
  2  3  1  0
  3  4  1  0
  4  5  1  0
  5  6  1  0
  6  7  1  0
  7  8  1  0
  7  9  1  0
  2 10  1  0
 10 11  1  0
 11 12  1  0
 12 13  1  0
 13 14  1  1
 13 15  1  0
 15 16  1  0
 16 17  1  0
 17 18  2  0
 18 19  1  0
 19 20  1  0
 20 21  1  0
 21 22  1  0
 22 23  1  0
 22 24  1  0
 24 25  1  0
 24 26  1  0
 19 27  1  0
 27 28  1  6
 27 29  1  0
 29 30  1  0
 30 31  1  0
 31 32  1  6
  7  5  1  0
 31 10  1  0
 31 13  1  0
 27 15  1  0
 24 18  1  0
  1 33  1  0
  1 34  1  0
  1 35  1  0
  2 36  1  1
  3 37  1  0
  3 38  1  0
  4 39  1  0
  4 40  1  0
  5 41  1  1
  8 42  1  0
  8 43  1  0
  8 44  1  0
  9 45  1  0
  9 46  1  0
  9 47  1  0
 10 48  1  1
 11 49  1  0
 11 50  1  0
 12 51  1  0
 12 52  1  0
 14 53  1  0
 14 54  1  0
 14 55  1  0
 15 56  1  6
 16 57  1  0
 16 58  1  0
 17 59  1  0
 19 60  1  1
 20 61  1  0
 20 62  1  0
 21 63  1  0
 21 64  1  0
 22 65  1  1
 23 66  1  0
 25 67  1  0
 25 68  1  0
 25 69  1  0
 26 70  1  0
 26 71  1  0
 26 72  1  0
 28 73  1  0
 28 74  1  0
 28 75  1  0
 29 76  1  0
 29 77  1  0
 30 78  1  0
 30 79  1  0
 32 80  1  0
 32 81  1  0
 32 82  1  0
M  END
>  <meeko>  (7) 
{"is_sidechain": [false], "intermolecular_energy": 2.731, "internal_energy": -0.839}

$$$$
EPH_relaxed_0001_pdb2pqr_Repair_321_r2_0001_out
     RDKit          3D

 82 86  0  0  0  0  0  0  0  0999 V2000
    4.2770   17.4550   -2.5660 C   0  0  0  0  0  0  0  0  0  0  0  0
    3.0440   17.0100   -3.3570 C   0  0  2  0  0  0  0  0  0  0  0  0
    1.7490   17.6590   -2.8300 C   0  0  0  0  0  0  0  0  0  0  0  0
    1.9860   18.6970   -1.7300 C   0  0  0  0  0  0  0  0  0  0  0  0
    0.8230   19.6330   -1.5920 C   0  0  2  0  0  0  0  0  0  0  0  0
    0.6570   20.1930   -0.2830 O   0  0  0  0  0  0  0  0  0  0  0  0
   -0.3970   19.3320   -0.7430 C   0  0  0  0  0  0  0  0  0  0  0  0
   -0.5170   18.0530    0.0250 C   0  0  0  0  0  0  0  0  0  0  0  0
   -1.6750   20.0520   -1.0450 C   0  0  0  0  0  0  0  0  0  0  0  0
    2.9210   15.4910   -3.3150 C   0  0  1  0  0  0  0  0  0  0  0  0
    4.2780   14.7740   -3.5440 C   0  0  0  0  0  0  0  0  0  0  0  0
    4.2640   13.4980   -2.6650 C   0  0  0  0  0  0  0  0  0  0  0  0
    2.7900   13.3460   -2.2220 C   0  0  1  0  0  0  0  0  0  0  0  0
    2.0740   12.6710   -3.4340 C   0  0  0  0  0  0  0  0  0  0  0  0
    2.5450   12.5560   -0.8940 C   0  0  2  0  0  0  0  0  0  0  0  0
    2.9910   11.0840   -0.9190 C   0  0  0  0  0  0  0  0  0  0  0  0
    1.9510   10.1090   -1.3610 C   0  0  0  0  0  0  0  0  0  0  0  0
    0.6310   10.3610   -1.4510 C   0  0  0  0  0  0  0  0  0  0  0  0
    0.0530   11.7070   -0.9950 C   0  0  1  0  0  0  0  0  0  0  0  0
   -1.2070   11.4600   -0.1250 C   0  0  0  0  0  0  0  0  0  0  0  0
   -2.2430   10.5890   -0.8280 C   0  0  0  0  0  0  0  0  0  0  0  0
   -1.6470    9.2370   -1.2140 C   0  0  2  0  0  0  0  0  0  0  0  0
   -1.3490    8.5070   -0.0200 O   0  0  0  0  0  0  0  0  0  0  0  0
   -0.3650    9.3590   -2.0850 C   0  0  0  0  0  0  0  0  0  0  0  0
   -0.7420    9.8760   -3.4960 C   0  0  0  0  0  0  0  0  0  0  0  0
    0.2130    7.9330   -2.2850 C   0  0  0  0  0  0  0  0  0  0  0  0
    1.0820   12.7070   -0.3110 C   0  0  1  0  0  0  0  0  0  0  0  0
    1.1780   12.4080    1.2160 C   0  0  0  0  0  0  0  0  0  0  0  0
    0.5340   14.1770   -0.4420 C   0  0  0  0  0  0  0  0  0  0  0  0
    0.9090   14.9470   -1.7230 C   0  0  0  0  0  0  0  0  0  0  0  0
    2.4140   14.8550   -1.9960 C   0  0  2  0  0  0  0  0  0  0  0  0
    3.1590   15.5460   -0.8040 C   0  0  0  0  0  0  0  0  0  0  0  0
    4.0683   17.3797   -1.4886 H   0  0  0  0  0  0  0  0  0  0  0  0
    5.1292   16.8077   -2.8205 H   0  0  0  0  0  0  0  0  0  0  0  0
    4.5194   18.4973   -2.8205 H   0  0  0  0  0  0  0  0  0  0  0  0
    3.1794   17.3439   -4.3963 H   0  0  0  0  0  0  0  0  0  0  0  0
    1.2410   18.1536   -3.6710 H   0  0  0  0  0  0  0  0  0  0  0  0
    1.1422   16.8547   -2.3885 H   0  0  0  0  0  0  0  0  0  0  0  0
    2.1390   18.1749   -0.7740 H   0  0  0  0  0  0  0  0  0  0  0  0
    2.8725   19.2888   -2.0018 H   0  0  0  0  0  0  0  0  0  0  0  0
    0.9323   19.9599   -2.6366 H   0  0  0  0  0  0  0  0  0  0  0  0
   -0.4967   18.2695    1.1033 H   0  0  0  0  0  0  0  0  0  0  0  0
   -1.4655   17.5586   -0.2319 H   0  0  0  0  0  0  0  0  0  0  0  0
    0.3230   17.3908   -0.2319 H   0  0  0  0  0  0  0  0  0  0  0  0
   -2.1701   20.3309   -0.1032 H   0  0  0  0  0  0  0  0  0  0  0  0
   -1.4559   20.9595   -1.6268 H   0  0  0  0  0  0  0  0  0  0  0  0
   -2.3376   19.3944   -1.6268 H   0  0  0  0  0  0  0  0  0  0  0  0
    2.1790   15.3446   -4.1138 H   0  0  0  0  0  0  0  0  0  0  0  0
    4.3886   14.5023   -4.6042 H   0  0  0  0  0  0  0  0  0  0  0  0
    5.1205   15.4286   -3.2761 H   0  0  0  0  0  0  0  0  0  0  0  0
    4.5870   12.6221   -3.2467 H   0  0  0  0  0  0  0  0  0  0  0  0
    4.9512   13.5731   -1.8094 H   0  0  0  0  0  0  0  0  0  0  0  0
    1.3200   11.9602   -3.0650 H   0  0  0  0  0  0  0  0  0  0  0  0
    1.5827   13.4421   -4.0455 H   0  0  0  0  0  0  0  0  0  0  0  0
    2.8149   12.1351   -4.0455 H   0  0  0  0  0  0  0  0  0  0  0  0
    3.2227   13.0613   -0.1902 H   0  0  0  0  0  0  0  0  0  0  0  0
    3.8479   11.0003   -1.6036 H   0  0  0  0  0  0  0  0  0  0  0  0
    3.2307   10.8215    0.1220 H   0  0  0  0  0  0  0  0  0  0  0  0
    2.2912    9.0998   -1.6364 H   0  0  0  0  0  0  0  0  0  0  0  0
   -0.2268   12.2456   -1.9124 H   0  0  0  0  0  0  0  0  0  0  0  0
   -0.9001   10.9607    0.8059 H   0  0  0  0  0  0  0  0  0  0  0  0
   -1.6720   12.4370    0.0732 H   0  0  0  0  0  0  0  0  0  0  0  0
   -3.0955   10.4269   -0.1521 H   0  0  0  0  0  0  0  0  0  0  0  0
   -2.5708   11.1028   -1.7437 H   0  0  0  0  0  0  0  0  0  0  0  0
   -2.3936    8.7100   -1.8263 H   0  0  0  0  0  0  0  0  0  0  0  0
   -1.5450    9.0860    0.7360 H   0  0  0  0  0  0  0  0  0  0  0  0
   -1.3877   10.7615   -3.4016 H   0  0  0  0  0  0  0  0  0  0  0  0
    0.1727   10.1460   -4.0441 H   0  0  0  0  0  0  0  0  0  0  0  0
   -1.2787    9.0876   -4.0441 H   0  0  0  0  0  0  0  0  0  0  0  0
    0.3998    7.4721   -1.3038 H   0  0  0  0  0  0  0  0  0  0  0  0
   -0.5079    7.3206   -2.8465 H   0  0  0  0  0  0  0  0  0  0  0  0
    1.1568    7.9953   -2.8465 H   0  0  0  0  0  0  0  0  0  0  0  0
    0.8900   13.3049    1.7841 H   0  0  0  0  0  0  0  0  0  0  0  0
    0.5007   11.5795    1.4707 H   0  0  0  0  0  0  0  0  0  0  0  0
    2.2110   12.1286    1.4707 H   0  0  0  0  0  0  0  0  0  0  0  0
   -0.5638   14.1285   -0.3923 H   0  0  0  0  0  0  0  0  0  0  0  0
    1.0086   14.7352    0.3785 H   0  0  0  0  0  0  0  0  0  0  0  0
    0.3616   14.5171   -2.5748 H   0  0  0  0  0  0  0  0  0  0  0  0
    0.6405   16.0052   -1.5881 H   0  0  0  0  0  0  0  0  0  0  0  0
    2.7547   15.1710    0.1478 H   0  0  0  0  0  0  0  0  0  0  0  0
    4.2335   15.3176   -0.8614 H   0  0  0  0  0  0  0  0  0  0  0  0
    3.0120   16.6346   -0.8614 H   0  0  0  0  0  0  0  0  0  0  0  0
  1  2  1  0
  2  3  1  0
  3  4  1  0
  4  5  1  0
  5  6  1  0
  6  7  1  0
  7  8  1  0
  7  9  1  0
  2 10  1  0
 10 11  1  0
 11 12  1  0
 12 13  1  0
 13 14  1  6
 13 15  1  0
 15 16  1  0
 16 17  1  0
 17 18  2  0
 18 19  1  0
 19 20  1  0
 20 21  1  0
 21 22  1  0
 22 23  1  0
 22 24  1  0
 24 25  1  0
 24 26  1  0
 19 27  1  0
 27 28  1  1
 27 29  1  0
 29 30  1  0
 30 31  1  0
 31 32  1  1
  7  5  1  0
 31 10  1  0
 31 13  1  0
 27 15  1  0
 24 18  1  0
  1 33  1  0
  1 34  1  0
  1 35  1  0
  2 36  1  6
  3 37  1  0
  3 38  1  0
  4 39  1  0
  4 40  1  0
  5 41  1  6
  8 42  1  0
  8 43  1  0
  8 44  1  0
  9 45  1  0
  9 46  1  0
  9 47  1  0
 10 48  1  6
 11 49  1  0
 11 50  1  0
 12 51  1  0
 12 52  1  0
 14 53  1  0
 14 54  1  0
 14 55  1  0
 15 56  1  1
 16 57  1  0
 16 58  1  0
 17 59  1  0
 19 60  1  6
 20 61  1  0
 20 62  1  0
 21 63  1  0
 21 64  1  0
 22 65  1  6
 23 66  1  0
 25 67  1  0
 25 68  1  0
 25 69  1  0
 26 70  1  0
 26 71  1  0
 26 72  1  0
 28 73  1  0
 28 74  1  0
 28 75  1  0
 29 76  1  0
 29 77  1  0
 30 78  1  0
 30 79  1  0
 32 80  1  0
 32 81  1  0
 32 82  1  0
M  END
>  <meeko>  (8) 
{"is_sidechain": [false], "intermolecular_energy": 2.731, "internal_energy": -0.839}

$$$$
EPH_relaxed_0001_pdb2pqr_Repair_321_r2_0001_out
     RDKit          3D

 82 86  0  0  0  0  0  0  0  0999 V2000
    0.0720   10.3720   -3.8080 C   0  0  0  0  0  0  0  0  0  0  0  0
    1.1630   10.1510   -2.7560 C   0  0  2  0  0  0  0  0  0  0  0  0
    0.8890    8.9060   -1.8880 C   0  0  0  0  0  0  0  0  0  0  0  0
    0.2870    9.2320   -0.5180 C   0  0  0  0  0  0  0  0  0  0  0  0
   -1.1400    8.7830   -0.4190 C   0  0  2  0  0  0  0  0  0  0  0  0
   -1.8680    8.8250   -1.6540 O   0  0  0  0  0  0  0  0  0  0  0  0
   -2.3240    9.7110   -0.6190 C   0  0  0  0  0  0  0  0  0  0  0  0
   -2.1340   11.1620   -0.9320 C   0  0  0  0  0  0  0  0  0  0  0  0
   -3.6440    9.3220   -0.0310 C   0  0  0  0  0  0  0  0  0  0  0  0
    1.2900   11.3850   -1.8710 C   0  0  1  0  0  0  0  0  0  0  0  0
    2.2550   11.1670   -0.6750 C   0  0  0  0  0  0  0  0  0  0  0  0
    2.9740   12.5170   -0.4280 C   0  0  0  0  0  0  0  0  0  0  0  0
    2.1700   13.5450   -1.2580 C   0  0  1  0  0  0  0  0  0  0  0  0
    0.9340   13.8970   -0.3730 C   0  0  0  0  0  0  0  0  0  0  0  0
    2.9440   14.8280   -1.7060 C   0  0  2  0  0  0  0  0  0  0  0  0
    3.4500   15.7190   -0.5580 C   0  0  0  0  0  0  0  0  0  0  0  0
    2.5050   16.7850   -0.1130 C   0  0  0  0  0  0  0  0  0  0  0  0
    1.4220   17.2040   -0.7940 C   0  0  0  0  0  0  0  0  0  0  0  0
    1.1110   16.6570   -2.1930 C   0  0  1  0  0  0  0  0  0  0  0  0
    0.7560   17.8320   -3.1420 C   0  0  0  0  0  0  0  0  0  0  0  0
   -0.3670   18.7070   -2.5940 C   0  0  0  0  0  0  0  0  0  0  0  0
    0.0030   19.2790   -1.2280 C   0  0  2  0  0  0  0  0  0  0  0  0
    1.0910   20.1940   -1.3910 O   0  0  0  0  0  0  0  0  0  0  0  0
    0.3890   18.1880   -0.1910 C   0  0  0  0  0  0  0  0  0  0  0  0
   -0.8710   17.3830    0.2120 C   0  0  0  0  0  0  0  0  0  0  0  0
    0.8770   18.9040    1.0970 C   0  0  0  0  0  0  0  0  0  0  0  0
    2.2000   15.6800   -2.8130 C   0  0  1  0  0  0  0  0  0  0  0  0
    3.2980   16.5060   -3.5510 C   0  0  0  0  0  0  0  0  0  0  0  0
    1.5160   14.7750   -3.9050 C   0  0  0  0  0  0  0  0  0  0  0  0
    0.8740   13.4620   -3.4170 C   0  0  0  0  0  0  0  0  0  0  0  0
    1.8410   12.6770   -2.5270 C   0  0  2  0  0  0  0  0  0  0  0  0
    3.0850   12.2890   -3.3970 C   0  0  0  0  0  0  0  0  0  0  0  0
   -0.8873   10.5663   -3.3061 H   0  0  0  0  0  0  0  0  0  0  0  0
    0.3382   11.2345   -4.4367 H   0  0  0  0  0  0  0  0  0  0  0  0
   -0.0184    9.4739   -4.4367 H   0  0  0  0  0  0  0  0  0  0  0  0
    2.1084    9.9789   -3.2913 H   0  0  0  0  0  0  0  0  0  0  0  0
    0.1884    8.2528   -2.4288 H   0  0  0  0  0  0  0  0  0  0  0  0
    1.8592    8.4207   -1.7059 H   0  0  0  0  0  0  0  0  0  0  0  0
    0.8755    8.7239    0.2601 H   0  0  0  0  0  0  0  0  0  0  0  0
    0.3136   10.3233   -0.3824 H   0  0  0  0  0  0  0  0  0  0  0  0
   -0.8861    8.0724    0.3813 H   0  0  0  0  0  0  0  0  0  0  0  0
   -2.0593   11.7326    0.0055 H   0  0  0  0  0  0  0  0  0  0  0  0
   -1.2110   11.2934   -1.5158 H   0  0  0  0  0  0  0  0  0  0  0  0
   -2.9921   11.5266   -1.5158 H   0  0  0  0  0  0  0  0  0  0  0  0
   -3.5765    9.3419    1.0667 H   0  0  0  0  0  0  0  0  0  0  0  0
   -4.4168   10.0306   -0.3638 H   0  0  0  0  0  0  0  0  0  0  0  0
   -3.9090    8.3076   -0.3638 H   0  0  0  0  0  0  0  0  0  0  0  0
    0.2341   11.5230   -1.5953 H   0  0  0  0  0  0  0  0  0  0  0  0
    1.6881   10.8706    0.2198 H   0  0  0  0  0  0  0  0  0  0  0  0
    2.9792   10.3682   -0.8928 H   0  0  0  0  0  0  0  0  0  0  0  0
    2.9526   12.7786    0.6402 H   0  0  0  0  0  0  0  0  0  0  0  0
    4.0344   12.4841   -0.7187 H   0  0  0  0  0  0  0  0  0  0  0  0
    1.2093   13.8186    0.6891 H   0  0  0  0  0  0  0  0  0  0  0  0
    0.6067   14.9241   -0.5921 H   0  0  0  0  0  0  0  0  0  0  0  0
    0.1147   13.1965   -0.5921 H   0  0  0  0  0  0  0  0  0  0  0  0
    3.8445   14.4076   -2.1775 H   0  0  0  0  0  0  0  0  0  0  0  0
    3.6632   15.0719    0.3056 H   0  0  0  0  0  0  0  0  0  0  0  0
    4.3363   16.2417   -0.9470 H   0  0  0  0  0  0  0  0  0  0  0  0
    2.7108   17.2692    0.8530 H   0  0  0  0  0  0  0  0  0  0  0  0
    0.2391   15.9970   -2.0742 H   0  0  0  0  0  0  0  0  0  0  0  0
    1.6517   18.4548   -3.2826 H   0  0  0  0  0  0  0  0  0  0  0  0
    0.4098   17.4007   -4.0928 H   0  0  0  0  0  0  0  0  0  0  0  0
   -0.5512   19.5359   -3.2933 H   0  0  0  0  0  0  0  0  0  0  0  0
   -1.2703   18.0893   -2.4826 H   0  0  0  0  0  0  0  0  0  0  0  0
   -0.8880   19.7875   -0.8310 H   0  0  0  0  0  0  0  0  0  0  0  0
    1.5630   20.2450   -0.5430 H   0  0  0  0  0  0  0  0  0  0  0  0
   -0.9419   17.3377    1.3088 H   0  0  0  0  0  0  0  0  0  0  0  0
   -1.7666   17.8766   -0.1933 H   0  0  0  0  0  0  0  0  0  0  0  0
   -0.7995   16.3629   -0.1933 H   0  0  0  0  0  0  0  0  0  0  0  0
    0.5076   18.3621    1.9801 H   0  0  0  0  0  0  0  0  0  0  0  0
    1.9767   18.9228    1.1118 H   0  0  0  0  0  0  0  0  0  0  0  0
    0.4924   19.9345    1.1118 H   0  0  0  0  0  0  0  0  0  0  0  0
    3.9483   16.9952   -2.8109 H   0  0  0  0  0  0  0  0  0  0  0  0
    3.9000   15.8350   -4.1813 H   0  0  0  0  0  0  0  0  0  0  0  0
    2.8201   17.2704   -4.1813 H   0  0  0  0  0  0  0  0  0  0  0  0
    0.7273   15.3724   -4.3858 H   0  0  0  0  0  0  0  0  0  0  0  0
    2.3322   14.4648   -4.5740 H   0  0  0  0  0  0  0  0  0  0  0  0
   -0.0338   13.6973   -2.8421 H   0  0  0  0  0  0  0  0  0  0  0  0
    0.6256   12.8459   -4.2938 H   0  0  0  0  0  0  0  0  0  0  0  0
    3.9258   12.0267   -2.7381 H   0  0  0  0  0  0  0  0  0  0  0  0
    2.8338   11.4265   -4.0319 H   0  0  0  0  0  0  0  0  0  0  0  0
    3.3687   13.1413   -4.0319 H   0  0  0  0  0  0  0  0  0  0  0  0
  1  2  1  0
  2  3  1  0
  3  4  1  0
  4  5  1  0
  5  6  1  0
  6  7  1  0
  7  8  1  0
  7  9  1  0
  2 10  1  0
 10 11  1  0
 11 12  1  0
 12 13  1  0
 13 14  1  1
 13 15  1  0
 15 16  1  0
 16 17  1  0
 17 18  2  0
 18 19  1  0
 19 20  1  0
 20 21  1  0
 21 22  1  0
 22 23  1  0
 22 24  1  0
 24 25  1  0
 24 26  1  0
 19 27  1  0
 27 28  1  6
 27 29  1  0
 29 30  1  0
 30 31  1  0
 31 32  1  6
  7  5  1  0
 31 10  1  0
 31 13  1  0
 27 15  1  0
 24 18  1  0
  1 33  1  0
  1 34  1  0
  1 35  1  0
  2 36  1  6
  3 37  1  0
  3 38  1  0
  4 39  1  0
  4 40  1  0
  5 41  1  1
  8 42  1  0
  8 43  1  0
  8 44  1  0
  9 45  1  0
  9 46  1  0
  9 47  1  0
 10 48  1  1
 11 49  1  0
 11 50  1  0
 12 51  1  0
 12 52  1  0
 14 53  1  0
 14 54  1  0
 14 55  1  0
 15 56  1  6
 16 57  1  0
 16 58  1  0
 17 59  1  0
 19 60  1  1
 20 61  1  0
 20 62  1  0
 21 63  1  0
 21 64  1  0
 22 65  1  1
 23 66  1  0
 25 67  1  0
 25 68  1  0
 25 69  1  0
 26 70  1  0
 26 71  1  0
 26 72  1  0
 28 73  1  0
 28 74  1  0
 28 75  1  0
 29 76  1  0
 29 77  1  0
 30 78  1  0
 30 79  1  0
 32 80  1  0
 32 81  1  0
 32 82  1  0
M  END
>  <meeko>  (9) 
{"is_sidechain": [false], "intermolecular_energy": 2.731, "internal_energy": -0.839}

$$$$
EPH_relaxed_0001_pdb2pqr_Repair_321_r2_0001_out
     RDKit          3D

 82 86  0  0  0  0  0  0  0  0999 V2000
    4.3450   10.7810   -4.5520 C   0  0  0  0  0  0  0  0  0  0  0  0
    3.7650   11.1060   -3.1730 C   0  0  2  0  0  0  0  0  0  0  0  0
    2.2780   10.7160   -3.0610 C   0  0  0  0  0  0  0  0  0  0  0  0
    1.8620   10.2700   -1.6560 C   0  0  0  0  0  0  0  0  0  0  0  0
    0.6460    9.3940   -1.6900 C   0  0  2  0  0  0  0  0  0  0  0  0
   -0.2210    9.6160   -2.8090 O   0  0  0  0  0  0  0  0  0  0  0  0
   -0.7670    9.9180   -1.5150 C   0  0  0  0  0  0  0  0  0  0  0  0
   -1.0380   11.3720   -1.2930 C   0  0  0  0  0  0  0  0  0  0  0  0
   -1.8330    8.9640   -1.0740 C   0  0  0  0  0  0  0  0  0  0  0  0
    3.9380   12.5900   -2.8730 C   0  0  1  0  0  0  0  0  0  0  0  0
    5.1240   13.2230   -3.6490 C   0  0  0  0  0  0  0  0  0  0  0  0
    4.7070   14.6740   -3.9980 C   0  0  0  0  0  0  0  0  0  0  0  0
    3.4500   14.9370   -3.1360 C   0  0  1  0  0  0  0  0  0  0  0  0
    4.0030   15.3020   -1.7220 C   0  0  0  0  0  0  0  0  0  0  0  0
    2.4630   16.0260   -3.6680 C   0  0  2  0  0  0  0  0  0  0  0  0
    3.0470   17.4460   -3.7660 C   0  0  0  0  0  0  0  0  0  0  0  0
    2.8780   18.2910   -2.5460 C   0  0  0  0  0  0  0  0  0  0  0  0
    2.0390   18.0320   -1.5270 C   0  0  0  0  0  0  0  0  0  0  0  0
    1.0740   16.8400   -1.5830 C   0  0  1  0  0  0  0  0  0  0  0  0
   -0.3400   17.2970   -1.1390 C   0  0  0  0  0  0  0  0  0  0  0  0
   -0.3330   17.9780    0.2260 C   0  0  0  0  0  0  0  0  0  0  0  0
    0.5920   19.1930    0.2250 C   0  0  2  0  0  0  0  0  0  0  0  0
    0.0440   20.1890   -0.6440 O   0  0  0  0  0  0  0  0  0  0  0  0
    2.0440   18.8560   -0.2150 C   0  0  0  0  0  0  0  0  0  0  0  0
    2.7400   18.0160    0.8840 C   0  0  0  0  0  0  0  0  0  0  0  0
    2.8350   20.1890   -0.3090 C   0  0  0  0  0  0  0  0  0  0  0  0
    1.0530   16.0300   -2.9500 C   0  0  1  0  0  0  0  0  0  0  0  0
    0.0480   16.6890   -3.9430 C   0  0  0  0  0  0  0  0  0  0  0  0
    0.5170   14.5750   -2.6760 C   0  0  0  0  0  0  0  0  0  0  0  0
    1.5600   13.5150   -2.2690 C   0  0  0  0  0  0  0  0  0  0  0  0
    2.7570   13.5290   -3.2240 C   0  0  2  0  0  0  0  0  0  0  0  0
    2.2350   13.1440   -4.6510 C   0  0  0  0  0  0  0  0  0  0  0  0
    5.2989   10.2465   -4.4319 H   0  0  0  0  0  0  0  0  0  0  0  0
    3.6374   10.1480   -5.1075 H   0  0  0  0  0  0  0  0  0  0  0  0
    4.5155   11.7150   -5.1075 H   0  0  0  0  0  0  0  0  0  0  0  0
    4.3188   10.5098   -2.4329 H   0  0  0  0  0  0  0  0  0  0  0  0
    1.6684   11.5870   -3.3435 H   0  0  0  0  0  0  0  0  0  0  0  0
    2.1197    9.8577   -3.7305 H   0  0  0  0  0  0  0  0  0  0  0  0
    2.6917    9.7106   -1.1992 H   0  0  0  0  0  0  0  0  0  0  0  0
    1.6215   11.1681   -1.0682 H   0  0  0  0  0  0  0  0  0  0  0  0
    1.1944    8.5737   -1.2038 H   0  0  0  0  0  0  0  0  0  0  0  0
   -1.0762   11.5771   -0.2130 H   0  0  0  0  0  0  0  0  0  0  0  0
   -0.2356   11.9687   -1.7514 H   0  0  0  0  0  0  0  0  0  0  0  0
   -2.0015   11.6396   -1.7514 H   0  0  0  0  0  0  0  0  0  0  0  0
   -1.8664    8.9341    0.0251 H   0  0  0  0  0  0  0  0  0  0  0  0
   -2.8069    9.2977   -1.4615 H   0  0  0  0  0  0  0  0  0  0  0  0
   -1.6090    7.9592   -1.4615 H   0  0  0  0  0  0  0  0  0  0  0  0
    4.0702   12.5426   -1.7820 H   0  0  0  0  0  0  0  0  0  0  0  0
    6.0272   13.2292   -3.0211 H   0  0  0  0  0  0  0  0  0  0  0  0
    5.3522   12.6482   -4.5587 H   0  0  0  0  0  0  0  0  0  0  0  0
    5.5093   15.3811   -3.7405 H   0  0  0  0  0  0  0  0  0  0  0  0
    4.5107   14.8045   -5.0724 H   0  0  0  0  0  0  0  0  0  0  0  0
    3.3491   14.8704   -0.9499 H   0  0  0  0  0  0  0  0  0  0  0  0
    5.0195   14.8968   -1.6100 H   0  0  0  0  0  0  0  0  0  0  0  0
    4.0300   16.3960   -1.6100 H   0  0  0  0  0  0  0  0  0  0  0  0
    2.2927   15.7012   -4.7051 H   0  0  0  0  0  0  0  0  0  0  0  0
    4.1240   17.3571   -3.9714 H   0  0  0  0  0  0  0  0  0  0  0  0
    2.4861   17.9512   -4.5661 H   0  0  0  0  0  0  0  0  0  0  0  0
    3.4911   19.2015   -2.4749 H   0  0  0  0  0  0  0  0  0  0  0  0
    1.4656   16.0973   -0.8723 H   0  0  0  0  0  0  0  0  0  0  0  0
   -0.7320   18.0049   -1.8842 H   0  0  0  0  0  0  0  0  0  0  0  0
   -0.9717   16.3998   -1.0613 H   0  0  0  0  0  0  0  0  0  0  0  0
   -1.3547   18.3036    0.4711 H   0  0  0  0  0  0  0  0  0  0  0  0
    0.0318   17.2596    0.9749 H   0  0  0  0  0  0  0  0  0  0  0  0
    0.6553   19.5610    1.2597 H   0  0  0  0  0  0  0  0  0  0  0  0
    0.4630   20.0820   -1.5150 H   0  0  0  0  0  0  0  0  0  0  0  0
    2.4352   18.3839    1.8748 H   0  0  0  0  0  0  0  0  0  0  0  0
    2.4480   16.9607    0.7789 H   0  0  0  0  0  0  0  0  0  0  0  0
    3.8312   18.1067    0.7789 H   0  0  0  0  0  0  0  0  0  0  0  0
    3.0538   20.5577    0.7040 H   0  0  0  0  0  0  0  0  0  0  0  0
    3.7781   20.0184   -0.8488 H   0  0  0  0  0  0  0  0  0  0  0  0
    2.2334   20.9351   -0.8488 H   0  0  0  0  0  0  0  0  0  0  0  0
   -0.7408   17.2062   -3.3771 H   0  0  0  0  0  0  0  0  0  0  0  0
    0.5803   17.4140   -4.5763 H   0  0  0  0  0  0  0  0  0  0  0  0
   -0.4047   15.9118   -4.5763 H   0  0  0  0  0  0  0  0  0  0  0  0
   -0.2244   14.6405   -1.8660 H   0  0  0  0  0  0  0  0  0  0  0  0
    0.1167   14.2294   -3.6405 H   0  0  0  0  0  0  0  0  0  0  0  0
    1.9111   13.7288   -1.2487 H   0  0  0  0  0  0  0  0  0  0  0  0
    1.0874   12.5227   -2.3135 H   0  0  0  0  0  0  0  0  0  0  0  0
    1.3531   12.4935   -4.5557 H   0  0  0  0  0  0  0  0  0  0  0  0
    1.9597   14.0570   -5.1994 H   0  0  0  0  0  0  0  0  0  0  0  0
    3.0259   12.6113   -5.1994 H   0  0  0  0  0  0  0  0  0  0  0  0
  1  2  1  0
  2  3  1  0
  3  4  1  0
  4  5  1  0
  5  6  1  0
  6  7  1  0
  7  8  1  0
  7  9  1  0
  2 10  1  0
 10 11  1  0
 11 12  1  0
 12 13  1  0
 13 14  1  1
 13 15  1  0
 15 16  1  0
 16 17  1  0
 17 18  2  0
 18 19  1  0
 19 20  1  0
 20 21  1  0
 21 22  1  0
 22 23  1  0
 22 24  1  0
 24 25  1  0
 24 26  1  0
 19 27  1  0
 27 28  1  6
 27 29  1  0
 29 30  1  0
 30 31  1  0
 31 32  1  6
  7  5  1  0
 31 10  1  0
 31 13  1  0
 27 15  1  0
 24 18  1  0
  1 33  1  0
  1 34  1  0
  1 35  1  0
  2 36  1  1
  3 37  1  0
  3 38  1  0
  4 39  1  0
  4 40  1  0
  5 41  1  1
  8 42  1  0
  8 43  1  0
  8 44  1  0
  9 45  1  0
  9 46  1  0
  9 47  1  0
 10 48  1  1
 11 49  1  0
 11 50  1  0
 12 51  1  0
 12 52  1  0
 14 53  1  0
 14 54  1  0
 14 55  1  0
 15 56  1  6
 16 57  1  0
 16 58  1  0
 17 59  1  0
 19 60  1  1
 20 61  1  0
 20 62  1  0
 21 63  1  0
 21 64  1  0
 22 65  1  1
 23 66  1  0
 25 67  1  0
 25 68  1  0
 25 69  1  0
 26 70  1  0
 26 71  1  0
 26 72  1  0
 28 73  1  0
 28 74  1  0
 28 75  1  0
 29 76  1  0
 29 77  1  0
 30 78  1  0
 30 79  1  0
 32 80  1  0
 32 81  1  0
 32 82  1  0
M  END
>  <meeko>  (10) 
{"is_sidechain": [false], "intermolecular_energy": 2.731, "internal_energy": -0.839}

$$$$
EPH_relaxed_0001_pdb2pqr_Repair_321_r2_0001_out
     RDKit          3D

 82 86  0  0  0  0  0  0  0  0999 V2000
   -2.6120    7.6020   -2.5750 C   0  0  0  0  0  0  0  0  0  0  0  0
   -2.6920    8.4390   -1.2950 C   0  0  2  0  0  0  0  0  0  0  0  0
   -4.1460    8.6400   -0.8230 C   0  0  0  0  0  0  0  0  0  0  0  0
   -4.9820    7.3570   -0.8380 C   0  0  0  0  0  0  0  0  0  0  0  0
   -5.9140    7.3170   -2.0110 C   0  0  2  0  0  0  0  0  0  0  0  0
   -6.7880    8.4480   -2.1190 O   0  0  0  0  0  0  0  0  0  0  0  0
   -7.4200    7.1800   -1.8780 C   0  0  0  0  0  0  0  0  0  0  0  0
   -8.0780    7.0740   -0.5380 C   0  0  0  0  0  0  0  0  0  0  0  0
   -8.1970    6.6610   -3.0470 C   0  0  0  0  0  0  0  0  0  0  0  0
   -2.0250    9.7910   -1.5150 C   0  0  1  0  0  0  0  0  0  0  0  0
   -2.5880   10.8950   -0.5810 C   0  0  0  0  0  0  0  0  0  0  0  0
   -1.4030   11.8300   -0.2280 C   0  0  0  0  0  0  0  0  0  0  0  0
   -0.2850   11.4350   -1.2220 C   0  0  1  0  0  0  0  0  0  0  0  0
   -0.6440   12.1820   -2.5450 C   0  0  0  0  0  0  0  0  0  0  0  0
    1.1810   11.7360   -0.7690 C   0  0  2  0  0  0  0  0  0  0  0  0
    1.5030   13.2240   -0.5480 C   0  0  0  0  0  0  0  0  0  0  0  0
    2.0230   13.9480   -1.7460 C   0  0  0  0  0  0  0  0  0  0  0  0
    2.4920   13.3690   -2.8670 C   0  0  0  0  0  0  0  0  0  0  0  0
    2.6220   11.8440   -2.9710 C   0  0  1  0  0  0  0  0  0  0  0  0
    4.0100   11.4820   -3.5620 C   0  0  0  0  0  0  0  0  0  0  0  0
    4.2820   12.1820   -4.8890 C   0  0  0  0  0  0  0  0  0  0  0  0
    4.2010   13.6990   -4.7320 C   0  0  2  0  0  0  0  0  0  0  0  0
    5.2790   14.1340   -3.8970 O   0  0  0  0  0  0  0  0  0  0  0  0
    2.8500   14.1820   -4.1360 C   0  0  0  0  0  0  0  0  0  0  0  0
    1.7200   13.9800   -5.1770 C   0  0  0  0  0  0  0  0  0  0  0  0
    2.9530   15.7130   -3.8980 C   0  0  0  0  0  0  0  0  0  0  0  0
    2.2890   11.0280   -1.6490 C   0  0  1  0  0  0  0  0  0  0  0  0
    3.5630   10.9190   -0.7560 C   0  0  0  0  0  0  0  0  0  0  0  0
    1.8930    9.5550   -2.0390 C   0  0  0  0  0  0  0  0  0  0  0  0
    0.4080    9.2970   -2.3600 C   0  0  0  0  0  0  0  0  0  0  0  0
   -0.4970    9.8780   -1.2700 C   0  0  2  0  0  0  0  0  0  0  0  0
   -0.1750    9.1310    0.0690 C   0  0  0  0  0  0  0  0  0  0  0  0
   -2.5104    6.5387   -2.3121 H   0  0  0  0  0  0  0  0  0  0  0  0
   -3.5282    7.7476   -3.1662 H   0  0  0  0  0  0  0  0  0  0  0  0
   -1.7400    7.9185   -3.1662 H   0  0  0  0  0  0  0  0  0  0  0  0
   -2.1613    7.8869   -0.5053 H   0  0  0  0  0  0  0  0  0  0  0  0
   -4.1263    9.0295    0.2056 H   0  0  0  0  0  0  0  0  0  0  0  0
   -4.6187    9.3395   -1.5282 H   0  0  0  0  0  0  0  0  0  0  0  0
   -4.3055    6.4912   -0.8904 H   0  0  0  0  0  0  0  0  0  0  0  0
   -5.5858    7.3301    0.0811 H   0  0  0  0  0  0  0  0  0  0  0  0
   -5.1734    6.7687   -2.6118 H   0  0  0  0  0  0  0  0  0  0  0  0
   -7.3225    7.1957    0.2521 H   0  0  0  0  0  0  0  0  0  0  0  0
   -8.8404    7.8609   -0.4406 H   0  0  0  0  0  0  0  0  0  0  0  0
   -8.5547    6.0875   -0.4406 H   0  0  0  0  0  0  0  0  0  0  0  0
   -9.0610    6.0839   -2.6859 H   0  0  0  0  0  0  0  0  0  0  0  0
   -8.5494    7.5057   -3.6572 H   0  0  0  0  0  0  0  0  0  0  0  0
   -7.5517    6.0120   -3.6572 H   0  0  0  0  0  0  0  0  0  0  0  0
   -2.2439    9.9326   -2.5837 H   0  0  0  0  0  0  0  0  0  0  0  0
   -3.3768   11.4618   -1.0972 H   0  0  0  0  0  0  0  0  0  0  0  0
   -3.0292   10.4571    0.3265 H   0  0  0  0  0  0  0  0  0  0  0  0
   -1.6869   12.8843   -0.3618 H   0  0  0  0  0  0  0  0  0  0  0  0
   -1.0860   11.7244    0.8200 H   0  0  0  0  0  0  0  0  0  0  0  0
   -1.1090   13.1496   -2.3052 H   0  0  0  0  0  0  0  0  0  0  0  0
    0.2715   12.3504   -3.1310 H   0  0  0  0  0  0  0  0  0  0  0  0
   -1.3475   11.5723   -3.1310 H   0  0  0  0  0  0  0  0  0  0  0  0
    1.2207   11.2717    0.2274 H   0  0  0  0  0  0  0  0  0  0  0  0
    0.5808   13.7265   -0.2207 H   0  0  0  0  0  0  0  0  0  0  0  0
    2.3094   13.2535    0.1996 H   0  0  0  0  0  0  0  0  0  0  0  0
    2.0228   15.0474   -1.7093 H   0  0  0  0  0  0  0  0  0  0  0  0
    1.8274   11.5169   -3.6578 H   0  0  0  0  0  0  0  0  0  0  0  0
    4.7875   11.7771   -2.8420 H   0  0  0  0  0  0  0  0  0  0  0  0
    4.0207   10.3980   -3.7484 H   0  0  0  0  0  0  0  0  0  0  0  0
    5.2882   11.9096   -5.2402 H   0  0  0  0  0  0  0  0  0  0  0  0
    3.5214   11.8630   -5.6168 H   0  0  0  0  0  0  0  0  0  0  0  0
    4.2747   14.1393   -5.7373 H   0  0  0  0  0  0  0  0  0  0  0  0
    5.9640   14.5110   -4.4740 H   0  0  0  0  0  0  0  0  0  0  0  0
    0.7668   13.8096   -4.6551 H   0  0  0  0  0  0  0  0  0  0  0  0
    1.6375   14.8776   -5.8074 H   0  0  0  0  0  0  0  0  0  0  0  0
    1.9536   13.1094   -5.8074 H   0  0  0  0  0  0  0  0  0  0  0  0
    2.9667   15.9159   -2.8170 H   0  0  0  0  0  0  0  0  0  0  0  0
    3.8788   16.0935   -4.3542 H   0  0  0  0  0  0  0  0  0  0  0  0
    2.0865   16.2141   -4.3542 H   0  0  0  0  0  0  0  0  0  0  0  0
    3.2709   10.9440    0.3042 H   0  0  0  0  0  0  0  0  0  0  0  0
    4.0818    9.9732   -0.9712 H   0  0  0  0  0  0  0  0  0  0  0  0
    4.2349   11.7629   -0.9712 H   0  0  0  0  0  0  0  0  0  0  0  0
    2.4788    9.2770   -2.9276 H   0  0  0  0  0  0  0  0  0  0  0  0
    2.1026    8.9534   -1.1423 H   0  0  0  0  0  0  0  0  0  0  0  0
    0.1606    9.7687   -3.3224 H   0  0  0  0  0  0  0  0  0  0  0  0
    0.2435    8.2105   -2.4103 H   0  0  0  0  0  0  0  0  0  0  0  0
   -0.4505    9.7701    0.9208 H   0  0  0  0  0  0  0  0  0  0  0  0
   -0.7490    8.1937    0.1131 H   0  0  0  0  0  0  0  0  0  0  0  0
    0.9006    8.9047    0.1131 H   0  0  0  0  0  0  0  0  0  0  0  0
  1  2  1  0
  2  3  1  0
  3  4  1  0
  4  5  1  0
  5  6  1  0
  6  7  1  0
  7  8  1  0
  7  9  1  0
  2 10  1  0
 10 11  1  0
 11 12  1  0
 12 13  1  0
 13 14  1  6
 13 15  1  0
 15 16  1  0
 16 17  1  0
 17 18  2  0
 18 19  1  0
 19 20  1  0
 20 21  1  0
 21 22  1  0
 22 23  1  0
 22 24  1  0
 24 25  1  0
 24 26  1  0
 19 27  1  0
 27 28  1  1
 27 29  1  0
 29 30  1  0
 30 31  1  0
 31 32  1  1
  7  5  1  0
 31 10  1  0
 31 13  1  0
 27 15  1  0
 24 18  1  0
  1 33  1  0
  1 34  1  0
  1 35  1  0
  2 36  1  1
  3 37  1  0
  3 38  1  0
  4 39  1  0
  4 40  1  0
  5 41  1  6
  8 42  1  0
  8 43  1  0
  8 44  1  0
  9 45  1  0
  9 46  1  0
  9 47  1  0
 10 48  1  6
 11 49  1  0
 11 50  1  0
 12 51  1  0
 12 52  1  0
 14 53  1  0
 14 54  1  0
 14 55  1  0
 15 56  1  1
 16 57  1  0
 16 58  1  0
 17 59  1  0
 19 60  1  6
 20 61  1  0
 20 62  1  0
 21 63  1  0
 21 64  1  0
 22 65  1  6
 23 66  1  0
 25 67  1  0
 25 68  1  0
 25 69  1  0
 26 70  1  0
 26 71  1  0
 26 72  1  0
 28 73  1  0
 28 74  1  0
 28 75  1  0
 29 76  1  0
 29 77  1  0
 30 78  1  0
 30 79  1  0
 32 80  1  0
 32 81  1  0
 32 82  1  0
M  END
>  <meeko>  (11) 
{"is_sidechain": [false], "intermolecular_energy": 2.731, "internal_energy": -0.839}

$$$$
EPH_relaxed_0001_pdb2pqr_Repair_321_r2_0001_out
     RDKit          3D

 82 86  0  0  0  0  0  0  0  0999 V2000
    5.1740   16.1250   -3.0860 C   0  0  0  0  0  0  0  0  0  0  0  0
    3.8510   16.8650   -3.3030 C   0  0  2  0  0  0  0  0  0  0  0  0
    3.8870   18.2970   -2.7320 C   0  0  0  0  0  0  0  0  0  0  0  0
    3.6640   18.3630   -1.2190 C   0  0  0  0  0  0  0  0  0  0  0  0
    2.2550   18.7460   -0.8830 C   0  0  2  0  0  0  0  0  0  0  0  0
    2.0670   20.1360   -0.5860 O   0  0  0  0  0  0  0  0  0  0  0  0
    1.8220   19.2190    0.4930 C   0  0  0  0  0  0  0  0  0  0  0  0
    2.7980   19.3330    1.6210 C   0  0  0  0  0  0  0  0  0  0  0  0
    0.3780   19.1010    0.8680 C   0  0  0  0  0  0  0  0  0  0  0  0
    2.7070   16.0810   -2.6710 C   0  0  1  0  0  0  0  0  0  0  0  0
    1.3400   16.8040   -2.8090 C   0  0  0  0  0  0  0  0  0  0  0  0
    0.2670   15.7000   -2.9920 C   0  0  0  0  0  0  0  0  0  0  0  0
    0.9940   14.3850   -2.6230 C   0  0  1  0  0  0  0  0  0  0  0  0
    0.9630   14.3330   -1.0630 C   0  0  0  0  0  0  0  0  0  0  0  0
    0.4180   13.0760   -3.2560 C   0  0  2  0  0  0  0  0  0  0  0  0
   -1.0250   12.7330   -2.8450 C   0  0  0  0  0  0  0  0  0  0  0  0
   -1.1550   11.8710   -1.6330 C   0  0  0  0  0  0  0  0  0  0  0  0
   -0.1610   11.1580   -1.0700 C   0  0  0  0  0  0  0  0  0  0  0  0
    1.2290   11.0990   -1.7160 C   0  0  1  0  0  0  0  0  0  0  0  0
    1.7230    9.6290   -1.7470 C   0  0  0  0  0  0  0  0  0  0  0  0
    1.6910    8.9720   -0.3700 C   0  0  0  0  0  0  0  0  0  0  0  0
    0.2810    8.9980    0.2140 C   0  0  2  0  0  0  0  0  0  0  0  0
   -0.5620    8.1570   -0.5790 O   0  0  0  0  0  0  0  0  0  0  0  0
   -0.3260   10.4270    0.2850 C   0  0  0  0  0  0  0  0  0  0  0  0
    0.4080   11.2500    1.3730 C   0  0  0  0  0  0  0  0  0  0  0  0
   -1.7990   10.2980    0.7590 C   0  0  0  0  0  0  0  0  0  0  0  0
    1.3700   11.8200   -3.1250 C   0  0  1  0  0  0  0  0  0  0  0  0
    0.9700   10.8370   -4.2680 C   0  0  0  0  0  0  0  0  0  0  0  0
    2.8820   12.1870   -3.3650 C   0  0  0  0  0  0  0  0  0  0  0  0
    3.3620   13.5470   -2.8210 C   0  0  0  0  0  0  0  0  0  0  0  0
    2.4110   14.6720   -3.2410 C   0  0  2  0  0  0  0  0  0  0  0  0
    2.4380   14.7620   -4.8050 C   0  0  0  0  0  0  0  0  0  0  0  0
    5.3625   16.0196   -2.0074 H   0  0  0  0  0  0  0  0  0  0  0  0
    5.1165   15.1281   -3.5474 H   0  0  0  0  0  0  0  0  0  0  0  0
    5.9934   16.6958   -3.5474 H   0  0  0  0  0  0  0  0  0  0  0  0
    3.6909   16.9458   -4.3883 H   0  0  0  0  0  0  0  0  0  0  0  0
    4.8701   18.7359   -2.9574 H   0  0  0  0  0  0  0  0  0  0  0  0
    3.0615   18.8511   -3.2026 H   0  0  0  0  0  0  0  0  0  0  0  0
    3.8786   17.3759   -0.7836 H   0  0  0  0  0  0  0  0  0  0  0  0
    4.3357   19.1302   -0.8064 H   0  0  0  0  0  0  0  0  0  0  0  0
    1.8588   17.9708   -1.5553 H   0  0  0  0  0  0  0  0  0  0  0  0
    2.2605   19.2702    2.5787 H   0  0  0  0  0  0  0  0  0  0  0  0
    3.5298   18.5142    1.5569 H   0  0  0  0  0  0  0  0  0  0  0  0
    3.3214   20.2984    1.5569 H   0  0  0  0  0  0  0  0  0  0  0  0
    0.2832   19.0933    1.9639 H   0  0  0  0  0  0  0  0  0  0  0  0
   -0.1784   19.9567    0.4579 H   0  0  0  0  0  0  0  0  0  0  0  0
   -0.0321   18.1663    0.4579 H   0  0  0  0  0  0  0  0  0  0  0  0
    3.0861   15.9981   -1.6417 H   0  0  0  0  0  0  0  0  0  0  0  0
    1.1288   17.3911   -1.9031 H   0  0  0  0  0  0  0  0  0  0  0  0
    1.3439   17.4967   -3.6635 H   0  0  0  0  0  0  0  0  0  0  0  0
   -0.5870   15.8733   -2.3207 H   0  0  0  0  0  0  0  0  0  0  0  0
   -0.1404   15.6792   -4.0135 H   0  0  0  0  0  0  0  0  0  0  0  0
    1.4864   15.2109   -0.6564 H   0  0  0  0  0  0  0  0  0  0  0  0
   -0.0811   14.3356   -0.7167 H   0  0  0  0  0  0  0  0  0  0  0  0
    1.4618   13.4158   -0.7167 H   0  0  0  0  0  0  0  0  0  0  0  0
    0.3717   13.3311   -4.3250 H   0  0  0  0  0  0  0  0  0  0  0  0
   -1.5562   13.6763   -2.6498 H   0  0  0  0  0  0  0  0  0  0  0  0
   -1.4490   12.1529   -3.6779 H   0  0  0  0  0  0  0  0  0  0  0  0
   -2.1464   11.8134   -1.1600 H   0  0  0  0  0  0  0  0  0  0  0  0
    1.8887   11.7013   -1.0740 H   0  0  0  0  0  0  0  0  0  0  0  0
    1.0772    9.0542   -2.4271 H   0  0  0  0  0  0  0  0  0  0  0  0
    2.7681    9.6350   -2.0900 H   0  0  0  0  0  0  0  0  0  0  0  0
    2.0235    7.9275   -0.4616 H   0  0  0  0  0  0  0  0  0  0  0  0
    2.3595    9.5309    0.3014 H   0  0  0  0  0  0  0  0  0  0  0  0
    0.3461    8.6325    1.2495 H   0  0  0  0  0  0  0  0  0  0  0  0
   -0.7860    8.6440   -1.3900 H   0  0  0  0  0  0  0  0  0  0  0  0
    0.0969   10.9012    2.3688 H   0  0  0  0  0  0  0  0  0  0  0  0
    1.4944   11.1188    1.2614 H   0  0  0  0  0  0  0  0  0  0  0  0
    0.1538   12.3144    1.2614 H   0  0  0  0  0  0  0  0  0  0  0  0
   -1.8315   10.2952    1.8585 H   0  0  0  0  0  0  0  0  0  0  0  0
   -2.3829   11.1484    0.3771 H   0  0  0  0  0  0  0  0  0  0  0  0
   -2.2262    9.3590    0.3771 H   0  0  0  0  0  0  0  0  0  0  0  0
    0.5895    9.9020   -3.8310 H   0  0  0  0  0  0  0  0  0  0  0  0
    0.1873   11.2964   -4.8895 H   0  0  0  0  0  0  0  0  0  0  0  0
    1.8511   10.6194   -4.8895 H   0  0  0  0  0  0  0  0  0  0  0  0
    3.4935   11.4047   -2.8916 H   0  0  0  0  0  0  0  0  0  0  0  0
    2.9907   12.2594   -4.4572 H   0  0  0  0  0  0  0  0  0  0  0  0
    3.4024   13.5013   -1.7227 H   0  0  0  0  0  0  0  0  0  0  0  0
    4.3592   13.7580   -3.2345 H   0  0  0  0  0  0  0  0  0  0  0  0
    2.7418   15.7746   -5.1088 H   0  0  0  0  0  0  0  0  0  0  0  0
    3.1559   14.0292   -5.2021 H   0  0  0  0  0  0  0  0  0  0  0  0
    1.4353   14.5454   -5.2021 H   0  0  0  0  0  0  0  0  0  0  0  0
  1  2  1  0
  2  3  1  0
  3  4  1  0
  4  5  1  0
  5  6  1  0
  6  7  1  0
  7  8  1  0
  7  9  1  0
  2 10  1  0
 10 11  1  0
 11 12  1  0
 12 13  1  0
 13 14  1  1
 13 15  1  0
 15 16  1  0
 16 17  1  0
 17 18  2  0
 18 19  1  0
 19 20  1  0
 20 21  1  0
 21 22  1  0
 22 23  1  0
 22 24  1  0
 24 25  1  0
 24 26  1  0
 19 27  1  0
 27 28  1  6
 27 29  1  0
 29 30  1  0
 30 31  1  0
 31 32  1  6
  7  5  1  0
 31 10  1  0
 31 13  1  0
 27 15  1  0
 24 18  1  0
  1 33  1  0
  1 34  1  0
  1 35  1  0
  2 36  1  6
  3 37  1  0
  3 38  1  0
  4 39  1  0
  4 40  1  0
  5 41  1  6
  8 42  1  0
  8 43  1  0
  8 44  1  0
  9 45  1  0
  9 46  1  0
  9 47  1  0
 10 48  1  1
 11 49  1  0
 11 50  1  0
 12 51  1  0
 12 52  1  0
 14 53  1  0
 14 54  1  0
 14 55  1  0
 15 56  1  6
 16 57  1  0
 16 58  1  0
 17 59  1  0
 19 60  1  1
 20 61  1  0
 20 62  1  0
 21 63  1  0
 21 64  1  0
 22 65  1  1
 23 66  1  0
 25 67  1  0
 25 68  1  0
 25 69  1  0
 26 70  1  0
 26 71  1  0
 26 72  1  0
 28 73  1  0
 28 74  1  0
 28 75  1  0
 29 76  1  0
 29 77  1  0
 30 78  1  0
 30 79  1  0
 32 80  1  0
 32 81  1  0
 32 82  1  0
M  END
>  <meeko>  (12) 
{"is_sidechain": [false], "intermolecular_energy": 2.731, "internal_energy": -0.839}

$$$$
EPH_relaxed_0001_pdb2pqr_Repair_321_r2_0001_out
     RDKit          3D

 82 86  0  0  0  0  0  0  0  0999 V2000
    1.0730   15.2140   -7.1170 C   0  0  0  0  0  0  0  0  0  0  0  0
    2.5050   14.6860   -6.9890 C   0  0  2  0  0  0  0  0  0  0  0  0
    3.0240   14.0880   -8.3120 C   0  0  0  0  0  0  0  0  0  0  0  0
    3.5420   15.1370   -9.3000 C   0  0  0  0  0  0  0  0  0  0  0  0
    3.0270   14.8950  -10.6860 C   0  0  2  0  0  0  0  0  0  0  0  0
    2.6570   16.0800  -11.4030 O   0  0  0  0  0  0  0  0  0  0  0  0
    1.5930   15.1620  -11.1050 C   0  0  0  0  0  0  0  0  0  0  0  0
    0.5840   15.6940  -10.1360 C   0  0  0  0  0  0  0  0  0  0  0  0
    1.0540   14.4520  -12.3070 C   0  0  0  0  0  0  0  0  0  0  0  0
    2.5760   13.6410   -5.8820 C   0  0  1  0  0  0  0  0  0  0  0  0
    4.0320   13.3400   -5.4370 C   0  0  0  0  0  0  0  0  0  0  0  0
    3.9850   13.0580   -3.9130 C   0  0  0  0  0  0  0  0  0  0  0  0
    2.4820   12.8780   -3.5960 C   0  0  1  0  0  0  0  0  0  0  0  0
    2.1590   11.4070   -4.0050 C   0  0  0  0  0  0  0  0  0  0  0  0
    2.0450   13.1770   -2.1240 C   0  0  2  0  0  0  0  0  0  0  0  0
    2.6760   12.2640   -1.0590 C   0  0  0  0  0  0  0  0  0  0  0  0
    1.9020   11.0270   -0.7400 C   0  0  0  0  0  0  0  0  0  0  0  0
    0.6180   10.8010   -1.0720 C   0  0  0  0  0  0  0  0  0  0  0  0
   -0.2220   11.8880   -1.7560 C   0  0  1  0  0  0  0  0  0  0  0  0
   -1.6050   11.9890   -1.0590 C   0  0  0  0  0  0  0  0  0  0  0  0
   -2.3270   10.6470   -0.9960 C   0  0  0  0  0  0  0  0  0  0  0  0
   -1.4850    9.6090   -0.2580 C   0  0  2  0  0  0  0  0  0  0  0  0
   -1.3760    9.9960    1.1160 O   0  0  0  0  0  0  0  0  0  0  0  0
   -0.0660    9.4270   -0.8640 C   0  0  0  0  0  0  0  0  0  0  0  0
   -0.1740    8.7250   -2.2400 C   0  0  0  0  0  0  0  0  0  0  0  0
    0.7260    8.4600    0.0560 C   0  0  0  0  0  0  0  0  0  0  0  0
    0.4810   13.3030   -1.9250 C   0  0  1  0  0  0  0  0  0  0  0  0
    0.2630   14.1630   -0.6430 C   0  0  0  0  0  0  0  0  0  0  0  0
   -0.2120   14.0830   -3.1050 C   0  0  0  0  0  0  0  0  0  0  0  0
    0.3430   13.8360   -4.5210 C   0  0  0  0  0  0  0  0  0  0  0  0
    1.8680   13.9720   -4.5440 C   0  0  2  0  0  0  0  0  0  0  0  0
    2.2220   15.4480   -4.1580 C   0  0  0  0  0  0  0  0  0  0  0  0
    0.6489   15.3704   -6.1142 H   0  0  0  0  0  0  0  0  0  0  0  0
    1.0815   16.1681   -7.6644 H   0  0  0  0  0  0  0  0  0  0  0  0
    0.4601   14.4827   -7.6644 H   0  0  0  0  0  0  0  0  0  0  0  0
    3.1513   15.5397   -6.7369 H   0  0  0  0  0  0  0  0  0  0  0  0
    3.8450   13.3934   -8.0807 H   0  0  0  0  0  0  0  0  0  0  0  0
    2.1723   13.5854   -8.7937 H   0  0  0  0  0  0  0  0  0  0  0  0
    3.2145   16.1329   -8.9668 H   0  0  0  0  0  0  0  0  0  0  0  0
    4.6397   15.0712   -9.3258 H   0  0  0  0  0  0  0  0  0  0  0  0
    3.6768   14.0146  -10.7986 H   0  0  0  0  0  0  0  0  0  0  0  0
    0.9308   15.5112   -9.1082 H   0  0  0  0  0  0  0  0  0  0  0  0
    0.4587   16.7754  -10.2938 H   0  0  0  0  0  0  0  0  0  0  0  0
   -0.3791   15.1864  -10.2938 H   0  0  0  0  0  0  0  0  0  0  0  0
    0.4182   13.6146  -11.9837 H   0  0  0  0  0  0  0  0  0  0  0  0
    0.4584   15.1528  -12.9104 H   0  0  0  0  0  0  0  0  0  0  0  0
    1.8891   14.0667  -12.9104 H   0  0  0  0  0  0  0  0  0  0  0  0
    2.0622   12.8073   -6.3830 H   0  0  0  0  0  0  0  0  0  0  0  0
    4.4178   12.4604   -5.9732 H   0  0  0  0  0  0  0  0  0  0  0  0
    4.6966   14.1873   -5.6615 H   0  0  0  0  0  0  0  0  0  0  0  0
    4.5455   12.1433   -3.6698 H   0  0  0  0  0  0  0  0  0  0  0  0
    4.4415   13.8676   -3.3246 H   0  0  0  0  0  0  0  0  0  0  0  0
    2.0248   10.7959   -3.1003 H   0  0  0  0  0  0  0  0  0  0  0  0
    1.2350   11.3867   -4.6015 H   0  0  0  0  0  0  0  0  0  0  0  0
    2.9895   11.0015   -4.6015 H   0  0  0  0  0  0  0  0  0  0  0  0
    2.4694   14.1768   -1.9499 H   0  0  0  0  0  0  0  0  0  0  0  0
    3.6703   11.9598   -1.4179 H   0  0  0  0  0  0  0  0  0  0  0  0
    2.7042   12.8534   -0.1307 H   0  0  0  0  0  0  0  0  0  0  0  0
    2.4261   10.2337   -0.1868 H   0  0  0  0  0  0  0  0  0  0  0  0
   -0.3524   11.5612   -2.7982 H   0  0  0  0  0  0  0  0  0  0  0  0
   -1.4570   12.3584   -0.0335 H   0  0  0  0  0  0  0  0  0  0  0  0
   -2.2279   12.6761   -1.6506 H   0  0  0  0  0  0  0  0  0  0  0  0
   -3.2830   10.7769   -0.4675 H   0  0  0  0  0  0  0  0  0  0  0  0
   -2.5005   10.2929   -2.0229 H   0  0  0  0  0  0  0  0  0  0  0  0
   -1.9947    8.6394   -0.3585 H   0  0  0  0  0  0  0  0  0  0  0  0
   -0.6190   10.6010    1.1910 H   0  0  0  0  0  0  0  0  0  0  0  0
   -0.3397    7.6479   -2.0901 H   0  0  0  0  0  0  0  0  0  0  0  0
   -1.0172    9.1508   -2.8037 H   0  0  0  0  0  0  0  0  0  0  0  0
    0.7582    8.8776   -2.8037 H   0  0  0  0  0  0  0  0  0  0  0  0
    0.5236    8.7072    1.1086 H   0  0  0  0  0  0  0  0  0  0  0  0
    0.4130    7.4246   -0.1443 H   0  0  0  0  0  0  0  0  0  0  0  0
    1.8027    8.5628   -0.1443 H   0  0  0  0  0  0  0  0  0  0  0  0
    0.4213   13.5386    0.2487 H   0  0  0  0  0  0  0  0  0  0  0  0
    0.9776   14.9993   -0.6366 H   0  0  0  0  0  0  0  0  0  0  0  0
   -0.7637   14.5579   -0.6366 H   0  0  0  0  0  0  0  0  0  0  0  0
   -1.2755   13.8019   -3.1106 H   0  0  0  0  0  0  0  0  0  0  0  0
   -0.0175   15.1463   -2.9008 H   0  0  0  0  0  0  0  0  0  0  0  0
    0.0674   12.8210   -4.8434 H   0  0  0  0  0  0  0  0  0  0  0  0
   -0.0861   14.5863   -5.2014 H   0  0  0  0  0  0  0  0  0  0  0  0
    2.2453   15.5450   -3.0625 H   0  0  0  0  0  0  0  0  0  0  0  0
    3.2081   15.7084   -4.5702 H   0  0  0  0  0  0  0  0  0  0  0  0
    1.4613   16.1273   -4.5702 H   0  0  0  0  0  0  0  0  0  0  0  0
  1  2  1  0
  2  3  1  0
  3  4  1  0
  4  5  1  0
  5  6  1  0
  6  7  1  0
  7  8  1  0
  7  9  1  0
  2 10  1  0
 10 11  1  0
 11 12  1  0
 12 13  1  0
 13 14  1  6
 13 15  1  0
 15 16  1  0
 16 17  1  0
 17 18  2  0
 18 19  1  0
 19 20  1  0
 20 21  1  0
 21 22  1  0
 22 23  1  0
 22 24  1  0
 24 25  1  0
 24 26  1  0
 19 27  1  0
 27 28  1  1
 27 29  1  0
 29 30  1  0
 30 31  1  0
 31 32  1  1
  7  5  1  0
 31 10  1  0
 31 13  1  0
 27 15  1  0
 24 18  1  0
  1 33  1  0
  1 34  1  0
  1 35  1  0
  2 36  1  1
  3 37  1  0
  3 38  1  0
  4 39  1  0
  4 40  1  0
  5 41  1  6
  8 42  1  0
  8 43  1  0
  8 44  1  0
  9 45  1  0
  9 46  1  0
  9 47  1  0
 10 48  1  6
 11 49  1  0
 11 50  1  0
 12 51  1  0
 12 52  1  0
 14 53  1  0
 14 54  1  0
 14 55  1  0
 15 56  1  1
 16 57  1  0
 16 58  1  0
 17 59  1  0
 19 60  1  6
 20 61  1  0
 20 62  1  0
 21 63  1  0
 21 64  1  0
 22 65  1  1
 23 66  1  0
 25 67  1  0
 25 68  1  0
 25 69  1  0
 26 70  1  0
 26 71  1  0
 26 72  1  0
 28 73  1  0
 28 74  1  0
 28 75  1  0
 29 76  1  0
 29 77  1  0
 30 78  1  0
 30 79  1  0
 32 80  1  0
 32 81  1  0
 32 82  1  0
M  END
>  <meeko>  (13) 
{"is_sidechain": [false], "intermolecular_energy": 2.731, "internal_energy": -0.839}

$$$$
EPH_relaxed_0001_pdb2pqr_Repair_321_r2_0001_out
     RDKit          3D

 82 86  0  0  0  0  0  0  0  0999 V2000
   -0.7170   16.4870   -6.0000 C   0  0  0  0  0  0  0  0  0  0  0  0
    0.4540   15.7460   -6.6520 C   0  0  2  0  0  0  0  0  0  0  0  0
    0.1530   15.3550   -8.1130 C   0  0  0  0  0  0  0  0  0  0  0  0
    0.6370   16.3840   -9.1370 C   0  0  0  0  0  0  0  0  0  0  0  0
    2.0500   16.1220   -9.5610 C   0  0  2  0  0  0  0  0  0  0  0  0
    2.4220   16.7230  -10.8090 O   0  0  0  0  0  0  0  0  0  0  0  0
    2.4190   15.2860  -10.7730 C   0  0  0  0  0  0  0  0  0  0  0  0
    1.3700   14.6580  -11.6360 C   0  0  0  0  0  0  0  0  0  0  0  0
    3.7860   14.6790  -10.8340 C   0  0  0  0  0  0  0  0  0  0  0  0
    0.7980   14.5030   -5.8400 C   0  0  1  0  0  0  0  0  0  0  0  0
    1.9150   13.6490   -6.4980 C   0  0  0  0  0  0  0  0  0  0  0  0
    2.7540   13.0450   -5.3440 C   0  0  0  0  0  0  0  0  0  0  0  0
    1.9070   13.2920   -4.0740 C   0  0  1  0  0  0  0  0  0  0  0  0
    0.8460   12.1470   -4.0700 C   0  0  0  0  0  0  0  0  0  0  0  0
    2.6900   13.3570   -2.7220 C   0  0  2  0  0  0  0  0  0  0  0  0
    3.4250   12.0630   -2.3310 C   0  0  0  0  0  0  0  0  0  0  0  0
    2.6330   11.1060   -1.5020 C   0  0  0  0  0  0  0  0  0  0  0  0
    1.4910   11.3950   -0.8500 C   0  0  0  0  0  0  0  0  0  0  0  0
    0.9360   12.8250   -0.8310 C   0  0  1  0  0  0  0  0  0  0  0  0
    0.5240   13.2000    0.6170 C   0  0  0  0  0  0  0  0  0  0  0  0
   -0.4410   12.1910    1.2310 C   0  0  0  0  0  0  0  0  0  0  0  0
    0.1700   10.7920    1.2470 C   0  0  2  0  0  0  0  0  0  0  0  0
    1.2810   10.7840    2.1480 O   0  0  0  0  0  0  0  0  0  0  0  0
    0.6320   10.3100   -0.1570 C   0  0  0  0  0  0  0  0  0  0  0  0
   -0.6060   10.0290   -1.0440 C   0  0  0  0  0  0  0  0  0  0  0  0
    1.3560    8.9480    0.0210 C   0  0  0  0  0  0  0  0  0  0  0  0
    1.8490   13.9330   -1.5120 C   0  0  1  0  0  0  0  0  0  0  0  0
    2.8760   14.4860   -0.4780 C   0  0  0  0  0  0  0  0  0  0  0  0
    0.9470   15.1520   -1.9370 C   0  0  0  0  0  0  0  0  0  0  0  0
    0.2970   15.0830   -3.3320 C   0  0  0  0  0  0  0  0  0  0  0  0
    1.3310   14.7180   -4.4010 C   0  0  2  0  0  0  0  0  0  0  0  0
    2.4000   15.8630   -4.4430 C   0  0  0  0  0  0  0  0  0  0  0  0
   -0.6243   16.4283   -4.9055 H   0  0  0  0  0  0  0  0  0  0  0  0
   -0.7037   17.5414   -6.3131 H   0  0  0  0  0  0  0  0  0  0  0  0
   -1.6642   16.0235   -6.3131 H   0  0  0  0  0  0  0  0  0  0  0  0
    1.3140   16.4317   -6.6650 H   0  0  0  0  0  0  0  0  0  0  0  0
    0.6473   14.3954   -8.3246 H   0  0  0  0  0  0  0  0  0  0  0  0
   -0.9409   15.2940   -8.2108 H   0  0  0  0  0  0  0  0  0  0  0  0
   -0.0147   16.3398  -10.0221 H   0  0  0  0  0  0  0  0  0  0  0  0
    0.5986   17.3784   -8.6682 H   0  0  0  0  0  0  0  0  0  0  0  0
    2.3832   16.0894   -8.5132 H   0  0  0  0  0  0  0  0  0  0  0  0
    0.5998   14.1969  -11.0002 H   0  0  0  0  0  0  0  0  0  0  0  0
    0.9082   15.4283  -12.2711 H   0  0  0  0  0  0  0  0  0  0  0  0
    1.8309   13.8871  -12.2711 H   0  0  0  0  0  0  0  0  0  0  0  0
    4.1595   14.5132   -9.8127 H   0  0  0  0  0  0  0  0  0  0  0  0
    3.7370   13.7180  -11.3671 H   0  0  0  0  0  0  0  0  0  0  0  0
    4.4660   15.3598  -11.3671 H   0  0  0  0  0  0  0  0  0  0  0  0
   -0.1923   14.0252   -5.8069 H   0  0  0  0  0  0  0  0  0  0  0  0
    1.4704   12.8457   -7.1038 H   0  0  0  0  0  0  0  0  0  0  0  0
    2.5412   14.2622   -7.1627 H   0  0  0  0  0  0  0  0  0  0  0  0
    2.9122   11.9679   -5.5016 H   0  0  0  0  0  0  0  0  0  0  0  0
    3.7534   13.4991   -5.2733 H   0  0  0  0  0  0  0  0  0  0  0  0
    0.5986   11.8800   -3.0320 H   0  0  0  0  0  0  0  0  0  0  0  0
   -0.0629   12.4875   -4.5876 H   0  0  0  0  0  0  0  0  0  0  0  0
    1.2547   11.2666   -4.5876 H   0  0  0  0  0  0  0  0  0  0  0  0
    3.4774   14.0932   -2.9411 H   0  0  0  0  0  0  0  0  0  0  0  0
    3.7209   11.5471   -3.2564 H   0  0  0  0  0  0  0  0  0  0  0  0
    4.2770   12.3729   -1.7081 H   0  0  0  0  0  0  0  0  0  0  0  0
    3.0150   10.0780   -1.4169 H   0  0  0  0  0  0  0  0  0  0  0  0
    0.0493   12.8160   -1.4819 H   0  0  0  0  0  0  0  0  0  0  0  0
    1.4292   13.2464    1.2402 H   0  0  0  0  0  0  0  0  0  0  0  0
    0.0098   14.1716    0.5766 H   0  0  0  0  0  0  0  0  0  0  0  0
   -0.6715   12.4950    2.2627 H   0  0  0  0  0  0  0  0  0  0  0  0
   -1.3576   12.1670    0.6233 H   0  0  0  0  0  0  0  0  0  0  0  0
   -0.6132   10.0936    1.5768 H   0  0  0  0  0  0  0  0  0  0  0  0
    1.8610   11.5260    1.9060 H   0  0  0  0  0  0  0  0  0  0  0  0
   -1.4784    9.8310   -0.4039 H   0  0  0  0  0  0  0  0  0  0  0  0
   -0.8083   10.9041   -1.6791 H   0  0  0  0  0  0  0  0  0  0  0  0
   -0.4107    9.1523   -1.6791 H   0  0  0  0  0  0  0  0  0  0  0  0
    1.4712    8.7314    1.0933 H   0  0  0  0  0  0  0  0  0  0  0  0
    0.7618    8.1523   -0.4521 H   0  0  0  0  0  0  0  0  0  0  0  0
    2.3479    8.9954   -0.4521 H   0  0  0  0  0  0  0  0  0  0  0  0
    2.5119   14.2899    0.5413 H   0  0  0  0  0  0  0  0  0  0  0  0
    3.8463   13.9884   -0.6228 H   0  0  0  0  0  0  0  0  0  0  0  0
    2.9946   15.5700   -0.6228 H   0  0  0  0  0  0  0  0  0  0  0  0
    0.1379   15.2410   -1.1971 H   0  0  0  0  0  0  0  0  0  0  0  0
    1.6296   16.0135   -1.9802 H   0  0  0  0  0  0  0  0  0  0  0  0
   -0.4954   14.3201   -3.3224 H   0  0  0  0  0  0  0  0  0  0  0  0
   -0.1226   16.0709   -3.5727 H   0  0  0  0  0  0  0  0  0  0  0  0
    2.6691   16.1512   -3.4161 H   0  0  0  0  0  0  0  0  0  0  0  0
    3.2972   15.5078   -4.9712 H   0  0  0  0  0  0  0  0  0  0  0  0
    1.9842   16.7337   -4.9712 H   0  0  0  0  0  0  0  0  0  0  0  0
  1  2  1  0
  2  3  1  0
  3  4  1  0
  4  5  1  0
  5  6  1  0
  6  7  1  0
  7  8  1  0
  7  9  1  0
  2 10  1  0
 10 11  1  0
 11 12  1  0
 12 13  1  0
 13 14  1  1
 13 15  1  0
 15 16  1  0
 16 17  1  0
 17 18  2  0
 18 19  1  0
 19 20  1  0
 20 21  1  0
 21 22  1  0
 22 23  1  0
 22 24  1  0
 24 25  1  0
 24 26  1  0
 19 27  1  0
 27 28  1  1
 27 29  1  0
 29 30  1  0
 30 31  1  0
 31 32  1  6
  7  5  1  0
 31 10  1  0
 31 13  1  0
 27 15  1  0
 24 18  1  0
  1 33  1  0
  1 34  1  0
  1 35  1  0
  2 36  1  6
  3 37  1  0
  3 38  1  0
  4 39  1  0
  4 40  1  0
  5 41  1  1
  8 42  1  0
  8 43  1  0
  8 44  1  0
  9 45  1  0
  9 46  1  0
  9 47  1  0
 10 48  1  1
 11 49  1  0
 11 50  1  0
 12 51  1  0
 12 52  1  0
 14 53  1  0
 14 54  1  0
 14 55  1  0
 15 56  1  6
 16 57  1  0
 16 58  1  0
 17 59  1  0
 19 60  1  6
 20 61  1  0
 20 62  1  0
 21 63  1  0
 21 64  1  0
 22 65  1  1
 23 66  1  0
 25 67  1  0
 25 68  1  0
 25 69  1  0
 26 70  1  0
 26 71  1  0
 26 72  1  0
 28 73  1  0
 28 74  1  0
 28 75  1  0
 29 76  1  0
 29 77  1  0
 30 78  1  0
 30 79  1  0
 32 80  1  0
 32 81  1  0
 32 82  1  0
M  END
>  <meeko>  (14) 
{"is_sidechain": [false], "intermolecular_energy": 2.731, "internal_energy": -0.839}

$$$$
EPH_relaxed_0001_pdb2pqr_Repair_321_r2_0001_out
     RDKit          3D

 82 86  0  0  0  0  0  0  0  0999 V2000
    0.1030    9.7490   -3.2420 C   0  0  0  0  0  0  0  0  0  0  0  0
    1.4110    9.5490   -2.4720 C   0  0  2  0  0  0  0  0  0  0  0  0
    1.1750    8.9530   -1.0700 C   0  0  0  0  0  0  0  0  0  0  0  0
    0.2080    9.7710   -0.2090 C   0  0  0  0  0  0  0  0  0  0  0  0
   -1.1350    9.1120   -0.1070 C   0  0  2  0  0  0  0  0  0  0  0  0
   -1.7810    8.8710   -1.3630 O   0  0  0  0  0  0  0  0  0  0  0  0
   -2.4350    9.7990   -0.4820 C   0  0  0  0  0  0  0  0  0  0  0  0
   -2.4550   11.2070   -0.9880 C   0  0  0  0  0  0  0  0  0  0  0  0
   -3.7120    9.2800    0.1000 C   0  0  0  0  0  0  0  0  0  0  0  0
    2.1540   10.8750   -2.3570 C   0  0  1  0  0  0  0  0  0  0  0  0
    3.5970   10.8020   -2.9250 C   0  0  0  0  0  0  0  0  0  0  0  0
    3.8950   12.1830   -3.5640 C   0  0  0  0  0  0  0  0  0  0  0  0
    2.7590   13.1010   -3.0570 C   0  0  1  0  0  0  0  0  0  0  0  0
    3.2000   13.5300   -1.6220 C   0  0  0  0  0  0  0  0  0  0  0  0
    2.4200   14.3390   -3.9500 C   0  0  2  0  0  0  0  0  0  0  0  0
    3.5620   15.3570   -4.1150 C   0  0  0  0  0  0  0  0  0  0  0  0
    3.5910   16.4520   -3.1000 C   0  0  0  0  0  0  0  0  0  0  0  0
    2.5820   16.7770   -2.2710 C   0  0  0  0  0  0  0  0  0  0  0  0
    1.2210   16.0760   -2.3740 C   0  0  1  0  0  0  0  0  0  0  0  0
    0.0880   17.1350   -2.3330 C   0  0  0  0  0  0  0  0  0  0  0  0
    0.1840   18.0480   -1.1140 C   0  0  0  0  0  0  0  0  0  0  0  0
    1.5280   18.7710   -1.0790 C   0  0  2  0  0  0  0  0  0  0  0  0
    1.5920   19.6790   -2.1830 O   0  0  0  0  0  0  0  0  0  0  0  0
    2.7450   17.8060   -1.1250 C   0  0  0  0  0  0  0  0  0  0  0  0
    2.8460   17.0310    0.2120 C   0  0  0  0  0  0  0  0  0  0  0  0
    4.0330   18.6660   -1.2270 C   0  0  0  0  0  0  0  0  0  0  0  0
    1.0570   15.0530   -3.5790 C   0  0  1  0  0  0  0  0  0  0  0  0
    0.5880   15.8100   -4.8590 C   0  0  0  0  0  0  0  0  0  0  0  0
   -0.0810   14.0240   -3.2280 C   0  0  0  0  0  0  0  0  0  0  0  0
    0.3370   12.7630   -2.4480 C   0  0  0  0  0  0  0  0  0  0  0  0
    1.5520   12.0940   -3.0980 C   0  0  2  0  0  0  0  0  0  0  0  0
    1.1320   11.6330   -4.5350 C   0  0  0  0  0  0  0  0  0  0  0  0
   -0.7259    9.8757   -2.5300 H   0  0  0  0  0  0  0  0  0  0  0  0
    0.1833   10.6453   -3.8746 H   0  0  0  0  0  0  0  0  0  0  0  0
   -0.0882    8.8697   -3.8746 H   0  0  0  0  0  0  0  0  0  0  0  0
    2.0209    8.8289   -3.0372 H   0  0  0  0  0  0  0  0  0  0  0  0
    0.7632    7.9399   -1.1880 H   0  0  0  0  0  0  0  0  0  0  0  0
    2.1457    8.9534   -0.5526 H   0  0  0  0  0  0  0  0  0  0  0  0
    0.6313    9.8763    0.8008 H   0  0  0  0  0  0  0  0  0  0  0  0
    0.0730   10.7541   -0.6837 H   0  0  0  0  0  0  0  0  0  0  0  0
   -0.8234    8.5643    0.7946 H   0  0  0  0  0  0  0  0  0  0  0  0
   -2.4649   11.9027   -0.1360 H   0  0  0  0  0  0  0  0  0  0  0  0
   -1.5594   11.3894   -1.6000 H   0  0  0  0  0  0  0  0  0  0  0  0
   -3.3555   11.3639   -1.6000 H   0  0  0  0  0  0  0  0  0  0  0  0
   -3.6512    9.3047    1.1980 H   0  0  0  0  0  0  0  0  0  0  0  0
   -4.5500    9.9089   -0.2351 H   0  0  0  0  0  0  0  0  0  0  0  0
   -3.8736    8.2448   -0.2351 H   0  0  0  0  0  0  0  0  0  0  0  0
    2.0910   11.0283   -1.2695 H   0  0  0  0  0  0  0  0  0  0  0  0
    4.3130   10.5964   -2.1156 H   0  0  0  0  0  0  0  0  0  0  0  0
    3.6899    9.9948   -3.6664 H   0  0  0  0  0  0  0  0  0  0  0  0
    4.8747   12.5598   -3.2350 H   0  0  0  0  0  0  0  0  0  0  0  0
    3.9334   12.1348   -4.6623 H   0  0  0  0  0  0  0  0  0  0  0  0
    2.6203   12.9661   -0.8763 H   0  0  0  0  0  0  0  0  0  0  0  0
    4.2714   13.3193   -1.4893 H   0  0  0  0  0  0  0  0  0  0  0  0
    3.0189   14.6069   -1.4893 H   0  0  0  0  0  0  0  0  0  0  0  0
    2.2811   13.8833   -4.9415 H   0  0  0  0  0  0  0  0  0  0  0  0
    4.5153   14.8115   -4.0540 H   0  0  0  0  0  0  0  0  0  0  0  0
    3.3961   15.8461   -5.0862 H   0  0  0  0  0  0  0  0  0  0  0  0
    4.5156   17.0431   -3.0235 H   0  0  0  0  0  0  0  0  0  0  0  0
    1.1502   15.4197   -1.4941 H   0  0  0  0  0  0  0  0  0  0  0  0
    0.1492   17.7522   -3.2415 H   0  0  0  0  0  0  0  0  0  0  0  0
   -0.8696   16.5971   -2.2726 H   0  0  0  0  0  0  0  0  0  0  0  0
   -0.6245   18.7927   -1.1573 H   0  0  0  0  0  0  0  0  0  0  0  0
    0.0921   17.4332   -0.2065 H   0  0  0  0  0  0  0  0  0  0  0  0
    1.5891   19.3064   -0.1200 H   0  0  0  0  0  0  0  0  0  0  0  0
    2.5210   19.7360   -2.4640 H   0  0  0  0  0  0  0  0  0  0  0  0
    2.7542   17.7353    1.0519 H   0  0  0  0  0  0  0  0  0  0  0  0
    2.0372   16.2875    0.2669 H   0  0  0  0  0  0  0  0  0  0  0  0
    3.8184   16.5197    0.2669 H   0  0  0  0  0  0  0  0  0  0  0  0
    4.3940   18.9070   -0.2162 H   0  0  0  0  0  0  0  0  0  0  0  0
    4.8077   18.1033   -1.7685 H   0  0  0  0  0  0  0  0  0  0  0  0
    3.8102   19.5972   -1.7685 H   0  0  0  0  0  0  0  0  0  0  0  0
    0.0294   16.7117   -4.5677 H   0  0  0  0  0  0  0  0  0  0  0  0
    1.4654   16.0992   -5.4561 H   0  0  0  0  0  0  0  0  0  0  0  0
   -0.0616   15.1531   -5.4561 H   0  0  0  0  0  0  0  0  0  0  0  0
   -0.8337   14.5534   -2.6254 H   0  0  0  0  0  0  0  0  0  0  0  0
   -0.4432   13.6543   -4.1986 H   0  0  0  0  0  0  0  0  0  0  0  0
    0.5913   13.0461   -1.4159 H   0  0  0  0  0  0  0  0  0  0  0  0
   -0.5016   12.0512   -2.4564 H   0  0  0  0  0  0  0  0  0  0  0  0
    0.3930   10.8218   -4.4585 H   0  0  0  0  0  0  0  0  0  0  0  0
    0.6901   12.4816   -5.0778 H   0  0  0  0  0  0  0  0  0  0  0  0
    2.0180   11.2718   -5.0778 H   0  0  0  0  0  0  0  0  0  0  0  0
  1  2  1  0
  2  3  1  0
  3  4  1  0
  4  5  1  0
  5  6  1  0
  6  7  1  0
  7  8  1  0
  7  9  1  0
  2 10  1  0
 10 11  1  0
 11 12  1  0
 12 13  1  0
 13 14  1  1
 13 15  1  0
 15 16  1  0
 16 17  1  0
 17 18  2  0
 18 19  1  0
 19 20  1  0
 20 21  1  0
 21 22  1  0
 22 23  1  0
 22 24  1  0
 24 25  1  0
 24 26  1  0
 19 27  1  0
 27 28  1  6
 27 29  1  0
 29 30  1  0
 30 31  1  0
 31 32  1  6
  7  5  1  0
 31 10  1  0
 31 13  1  0
 27 15  1  0
 24 18  1  0
  1 33  1  0
  1 34  1  0
  1 35  1  0
  2 36  1  6
  3 37  1  0
  3 38  1  0
  4 39  1  0
  4 40  1  0
  5 41  1  1
  8 42  1  0
  8 43  1  0
  8 44  1  0
  9 45  1  0
  9 46  1  0
  9 47  1  0
 10 48  1  1
 11 49  1  0
 11 50  1  0
 12 51  1  0
 12 52  1  0
 14 53  1  0
 14 54  1  0
 14 55  1  0
 15 56  1  6
 16 57  1  0
 16 58  1  0
 17 59  1  0
 19 60  1  1
 20 61  1  0
 20 62  1  0
 21 63  1  0
 21 64  1  0
 22 65  1  1
 23 66  1  0
 25 67  1  0
 25 68  1  0
 25 69  1  0
 26 70  1  0
 26 71  1  0
 26 72  1  0
 28 73  1  0
 28 74  1  0
 28 75  1  0
 29 76  1  0
 29 77  1  0
 30 78  1  0
 30 79  1  0
 32 80  1  0
 32 81  1  0
 32 82  1  0
M  END
>  <meeko>  (15) 
{"is_sidechain": [false], "intermolecular_energy": 2.731, "internal_energy": -0.839}

$$$$
EPH_relaxed_0001_pdb2pqr_Repair_321_r2_0001_out
     RDKit          3D

 82 86  0  0  0  0  0  0  0  0999 V2000
   -0.9920    7.9610   -2.1060 C   0  0  0  0  0  0  0  0  0  0  0  0
   -1.4220    8.9520   -1.0200 C   0  0  2  0  0  0  0  0  0  0  0  0
   -2.9030    8.7770   -0.6280 C   0  0  0  0  0  0  0  0  0  0  0  0
   -3.6810    7.8450   -1.5620 C   0  0  0  0  0  0  0  0  0  0  0  0
   -5.1480    7.8500   -1.2540 C   0  0  2  0  0  0  0  0  0  0  0  0
   -5.6880    6.5730   -0.8910 O   0  0  0  0  0  0  0  0  0  0  0  0
   -6.1850    7.1480   -2.1110 C   0  0  0  0  0  0  0  0  0  0  0  0
   -5.7970    6.3920   -3.3420 C   0  0  0  0  0  0  0  0  0  0  0  0
   -7.6090    7.6020   -2.0270 C   0  0  0  0  0  0  0  0  0  0  0  0
   -1.1730   10.3800   -1.4920 C   0  0  1  0  0  0  0  0  0  0  0  0
   -2.3920   11.3100   -1.2490 C   0  0  0  0  0  0  0  0  0  0  0  0
   -1.8240   12.7100   -0.9030 C   0  0  0  0  0  0  0  0  0  0  0  0
   -0.3260   12.6270   -1.2790 C   0  0  1  0  0  0  0  0  0  0  0  0
   -0.2870   12.8540   -2.8230 C   0  0  0  0  0  0  0  0  0  0  0  0
    0.6310   13.6090   -0.5270 C   0  0  2  0  0  0  0  0  0  0  0  0
    0.3550   15.1030   -0.7700 C   0  0  0  0  0  0  0  0  0  0  0  0
    1.0930   15.7090   -1.9180 C   0  0  0  0  0  0  0  0  0  0  0  0
    2.1510   15.1620   -2.5450 C   0  0  0  0  0  0  0  0  0  0  0  0
    2.7720   13.8520   -2.0430 C   0  0  1  0  0  0  0  0  0  0  0  0
    4.3160   13.9970   -1.9920 C   0  0  0  0  0  0  0  0  0  0  0  0
    4.9060   14.4500   -3.3240 C   0  0  0  0  0  0  0  0  0  0  0  0
    4.3060   15.7850   -3.7600 C   0  0  2  0  0  0  0  0  0  0  0  0
    4.7270   16.8000   -2.8440 O   0  0  0  0  0  0  0  0  0  0  0  0
    2.7540   15.7620   -3.8380 C   0  0  0  0  0  0  0  0  0  0  0  0
    2.3060   14.8870   -5.0350 C   0  0  0  0  0  0  0  0  0  0  0  0
    2.2710   17.2050   -4.1500 C   0  0  0  0  0  0  0  0  0  0  0  0
    2.1680   13.2700   -0.6930 C   0  0  1  0  0  0  0  0  0  0  0  0
    2.8980   13.9020    0.5310 C   0  0  0  0  0  0  0  0  0  0  0  0
    2.4500   11.7220   -0.6290 C   0  0  0  0  0  0  0  0  0  0  0  0
    1.4070   10.7980   -1.2860 C   0  0  0  0  0  0  0  0  0  0  0  0
   -0.0090   11.1560   -0.8260 C   0  0  2  0  0  0  0  0  0  0  0  0
   -0.0850   10.9160    0.7210 C   0  0  0  0  0  0  0  0  0  0  0  0
   -0.5964    7.0493   -1.6346 H   0  0  0  0  0  0  0  0  0  0  0  0
   -1.8593    7.7035   -2.7317 H   0  0  0  0  0  0  0  0  0  0  0  0
   -0.2115    8.4185   -2.7317 H   0  0  0  0  0  0  0  0  0  0  0  0
   -0.8171    8.7455   -0.1247 H   0  0  0  0  0  0  0  0  0  0  0  0
   -2.9462    8.3633    0.3903 H   0  0  0  0  0  0  0  0  0  0  0  0
   -3.3736    9.7688   -0.6983 H   0  0  0  0  0  0  0  0  0  0  0  0
   -3.5336    8.1767   -2.6004 H   0  0  0  0  0  0  0  0  0  0  0  0
   -3.3037    6.8218   -1.4177 H   0  0  0  0  0  0  0  0  0  0  0  0
   -5.0864    8.8763   -0.8630 H   0  0  0  0  0  0  0  0  0  0  0  0
   -5.3122    5.4474   -3.0546 H   0  0  0  0  0  0  0  0  0  0  0  0
   -6.6958    6.1762   -3.9383 H   0  0  0  0  0  0  0  0  0  0  0  0
   -5.0977    6.9964   -3.9383 H   0  0  0  0  0  0  0  0  0  0  0  0
   -7.9023    7.6955   -0.9710 H   0  0  0  0  0  0  0  0  0  0  0  0
   -7.7127    8.5777   -2.5242 H   0  0  0  0  0  0  0  0  0  0  0  0
   -8.2583    6.8663   -2.5242 H   0  0  0  0  0  0  0  0  0  0  0  0
   -0.9401   10.1874   -2.5497 H   0  0  0  0  0  0  0  0  0  0  0  0
   -3.0123   11.3663   -2.1557 H   0  0  0  0  0  0  0  0  0  0  0  0
   -3.0243   10.9277   -0.4341 H   0  0  0  0  0  0  0  0  0  0  0  0
   -2.3293   13.4903   -1.4910 H   0  0  0  0  0  0  0  0  0  0  0  0
   -1.9748   12.9716    0.1547 H   0  0  0  0  0  0  0  0  0  0  0  0
   -0.1042   13.9182   -3.0326 H   0  0  0  0  0  0  0  0  0  0  0  0
    0.5205   12.2498   -3.2622 H   0  0  0  0  0  0  0  0  0  0  0  0
   -1.2499   12.5539   -3.2622 H   0  0  0  0  0  0  0  0  0  0  0  0
    0.3761   13.4263    0.5273 H   0  0  0  0  0  0  0  0  0  0  0  0
   -0.7223   15.2238   -0.9566 H   0  0  0  0  0  0  0  0  0  0  0  0
    0.7076   15.6281    0.1300 H   0  0  0  0  0  0  0  0  0  0  0  0
    0.7421   16.6858   -2.2824 H   0  0  0  0  0  0  0  0  0  0  0  0
    2.4935   13.0825   -2.7780 H   0  0  0  0  0  0  0  0  0  0  0  0
    4.5752   14.7380   -1.2215 H   0  0  0  0  0  0  0  0  0  0  0  0
    4.7365   13.0074   -1.7602 H   0  0  0  0  0  0  0  0  0  0  0  0
    5.9949   14.5627   -3.2159 H   0  0  0  0  0  0  0  0  0  0  0  0
    4.6720   13.6935   -4.0875 H   0  0  0  0  0  0  0  0  0  0  0  0
    4.6680   15.9935   -4.7776 H   0  0  0  0  0  0  0  0  0  0  0  0
    4.1660   16.7340   -2.0520 H   0  0  0  0  0  0  0  0  0  0  0  0
    1.8347   13.9665   -4.6602 H   0  0  0  0  0  0  0  0  0  0  0  0
    1.5831   15.4459   -5.6475 H   0  0  0  0  0  0  0  0  0  0  0  0
    3.1820   14.6272   -5.6475 H   0  0  0  0  0  0  0  0  0  0  0  0
    2.0909   17.7432   -3.2077 H   0  0  0  0  0  0  0  0  0  0  0  0
    3.0417   17.7319   -4.7316 H   0  0  0  0  0  0  0  0  0  0  0  0
    1.3383   17.1618   -4.7316 H   0  0  0  0  0  0  0  0  0  0  0  0
    2.4541   13.5177    1.4612 H   0  0  0  0  0  0  0  0  0  0  0  0
    3.9654   13.6381    0.4977 H   0  0  0  0  0  0  0  0  0  0  0  0
    2.7896   14.9961    0.4977 H   0  0  0  0  0  0  0  0  0  0  0  0
    3.4153   11.5389   -1.1237 H   0  0  0  0  0  0  0  0  0  0  0  0
    2.4250   11.4690    0.4412 H   0  0  0  0  0  0  0  0  0  0  0  0
    1.4684   10.9058   -2.3790 H   0  0  0  0  0  0  0  0  0  0  0  0
    1.6207    9.7606   -0.9890 H   0  0  0  0  0  0  0  0  0  0  0  0
    0.2062   11.8357    1.2495 H   0  0  0  0  0  0  0  0  0  0  0  0
   -1.1135   10.6431    0.9996 H   0  0  0  0  0  0  0  0  0  0  0  0
    0.5989   10.1008    0.9996 H   0  0  0  0  0  0  0  0  0  0  0  0
  1  2  1  0
  2  3  1  0
  3  4  1  0
  4  5  1  0
  5  6  1  0
  6  7  1  0
  7  8  1  0
  7  9  1  0
  2 10  1  0
 10 11  1  0
 11 12  1  0
 12 13  1  0
 13 14  1  6
 13 15  1  0
 15 16  1  0
 16 17  1  0
 17 18  2  0
 18 19  1  0
 19 20  1  0
 20 21  1  0
 21 22  1  0
 22 23  1  0
 22 24  1  0
 24 25  1  0
 24 26  1  0
 19 27  1  0
 27 28  1  1
 27 29  1  0
 29 30  1  0
 30 31  1  0
 31 32  1  1
  7  5  1  0
 31 10  1  0
 31 13  1  0
 27 15  1  0
 24 18  1  0
  1 33  1  0
  1 34  1  0
  1 35  1  0
  2 36  1  1
  3 37  1  0
  3 38  1  0
  4 39  1  0
  4 40  1  0
  5 41  1  1
  8 42  1  0
  8 43  1  0
  8 44  1  0
  9 45  1  0
  9 46  1  0
  9 47  1  0
 10 48  1  6
 11 49  1  0
 11 50  1  0
 12 51  1  0
 12 52  1  0
 14 53  1  0
 14 54  1  0
 14 55  1  0
 15 56  1  1
 16 57  1  0
 16 58  1  0
 17 59  1  0
 19 60  1  6
 20 61  1  0
 20 62  1  0
 21 63  1  0
 21 64  1  0
 22 65  1  6
 23 66  1  0
 25 67  1  0
 25 68  1  0
 25 69  1  0
 26 70  1  0
 26 71  1  0
 26 72  1  0
 28 73  1  0
 28 74  1  0
 28 75  1  0
 29 76  1  0
 29 77  1  0
 30 78  1  0
 30 79  1  0
 32 80  1  0
 32 81  1  0
 32 82  1  0
M  END
>  <meeko>  (16) 
{"is_sidechain": [false], "intermolecular_energy": 2.731, "internal_energy": -0.839}

$$$$
EPH_relaxed_0001_pdb2pqr_Repair_321_r2_0001_out
     RDKit          3D

 82 86  0  0  0  0  0  0  0  0999 V2000
    4.3820   13.8060   -5.4540 C   0  0  0  0  0  0  0  0  0  0  0  0
    2.9490   13.5600   -5.9320 C   0  0  2  0  0  0  0  0  0  0  0  0
    2.7050   14.1170   -7.3490 C   0  0  0  0  0  0  0  0  0  0  0  0
    1.2640   14.5730   -7.5910 C   0  0  0  0  0  0  0  0  0  0  0  0
    1.2090   15.9720   -8.1260 C   0  0  2  0  0  0  0  0  0  0  0  0
    0.1210   16.2260   -9.0260 O   0  0  0  0  0  0  0  0  0  0  0  0
    1.4420   16.3200   -9.5850 C   0  0  0  0  0  0  0  0  0  0  0  0
    1.7490   15.2630  -10.5990 C   0  0  0  0  0  0  0  0  0  0  0  0
    1.8520   17.7170   -9.9310 C   0  0  0  0  0  0  0  0  0  0  0  0
    1.9600   14.1800   -4.9510 C   0  0  1  0  0  0  0  0  0  0  0  0
    0.8210   13.2040   -4.5540 C   0  0  0  0  0  0  0  0  0  0  0  0
    0.4750   13.4990   -3.0720 C   0  0  0  0  0  0  0  0  0  0  0  0
    1.1830   14.8400   -2.7660 C   0  0  1  0  0  0  0  0  0  0  0  0
    0.2300   15.9360   -3.3370 C   0  0  0  0  0  0  0  0  0  0  0  0
    1.5370   15.1080   -1.2670 C   0  0  2  0  0  0  0  0  0  0  0  0
    0.3300   15.1960   -0.3170 C   0  0  0  0  0  0  0  0  0  0  0  0
   -0.2400   16.5640   -0.1350 C   0  0  0  0  0  0  0  0  0  0  0  0
    0.3650   17.7150   -0.4800 C   0  0  0  0  0  0  0  0  0  0  0  0
    1.7980   17.7190   -1.0300 C   0  0  1  0  0  0  0  0  0  0  0  0
    2.6240   18.8210   -0.3160 C   0  0  0  0  0  0  0  0  0  0  0  0
    1.9630   20.1930   -0.4000 C   0  0  0  0  0  0  0  0  0  0  0  0
    0.5640   20.1630    0.2090 C   0  0  2  0  0  0  0  0  0  0  0  0
    0.6780   19.9320    1.6170 O   0  0  0  0  0  0  0  0  0  0  0  0
   -0.3570   19.0840   -0.4250 C   0  0  0  0  0  0  0  0  0  0  0  0
   -0.7250   19.4980   -1.8710 C   0  0  0  0  0  0  0  0  0  0  0  0
   -1.6890   19.0640    0.3730 C   0  0  0  0  0  0  0  0  0  0  0  0
    2.5380   16.3130   -1.0430 C   0  0  1  0  0  0  0  0  0  0  0  0
    3.2330   16.0650    0.3310 C   0  0  0  0  0  0  0  0  0  0  0  0
    3.6850   16.3460   -2.1210 C   0  0  0  0  0  0  0  0  0  0  0  0
    3.2980   15.9550   -3.5600 C   0  0  0  0  0  0  0  0  0  0  0  0
    2.5130   14.6400   -3.5790 C   0  0  2  0  0  0  0  0  0  0  0  0
    3.4540   13.5140   -3.0300 C   0  0  0  0  0  0  0  0  0  0  0  0
    4.4061   13.8101   -4.3543 H   0  0  0  0  0  0  0  0  0  0  0  0
    5.0369   13.0071   -5.8321 H   0  0  0  0  0  0  0  0  0  0  0  0
    4.7330   14.7775   -5.8321 H   0  0  0  0  0  0  0  0  0  0  0  0
    2.7973   12.4714   -5.9751 H   0  0  0  0  0  0  0  0  0  0  0  0
    3.3723   14.9778   -7.5035 H   0  0  0  0  0  0  0  0  0  0  0  0
    2.9061   13.2981   -8.0554 H   0  0  0  0  0  0  0  0  0  0  0  0
    0.7924   13.8946   -8.3172 H   0  0  0  0  0  0  0  0  0  0  0  0
    0.7310   14.5520   -6.6290 H   0  0  0  0  0  0  0  0  0  0  0  0
    1.6385   16.3705   -7.1950 H   0  0  0  0  0  0  0  0  0  0  0  0
    2.0202   14.3292  -10.0847 H   0  0  0  0  0  0  0  0  0  0  0  0
    0.8637   15.0909  -11.2288 H   0  0  0  0  0  0  0  0  0  0  0  0
    2.5887   15.5919  -11.2288 H   0  0  0  0  0  0  0  0  0  0  0  0
    2.0200   18.2894   -9.0068 H   0  0  0  0  0  0  0  0  0  0  0  0
    2.7805   17.6913  -10.5203 H   0  0  0  0  0  0  0  0  0  0  0  0
    1.0569   18.1972  -10.5203 H   0  0  0  0  0  0  0  0  0  0  0  0
    1.6393   15.0524   -5.5393 H   0  0  0  0  0  0  0  0  0  0  0  0
   -0.0608   13.3725   -5.1896 H   0  0  0  0  0  0  0  0  0  0  0  0
    1.1339   12.1577   -4.6856 H   0  0  0  0  0  0  0  0  0  0  0  0
   -0.6127   13.5948   -2.9387 H   0  0  0  0  0  0  0  0  0  0  0  0
    0.8004   12.6921   -2.3989 H   0  0  0  0  0  0  0  0  0  0  0  0
   -0.2429   16.4799   -2.5060 H   0  0  0  0  0  0  0  0  0  0  0  0
    0.8083   16.6397   -3.9537 H   0  0  0  0  0  0  0  0  0  0  0  0
   -0.5472   15.4610   -3.9537 H   0  0  0  0  0  0  0  0  0  0  0  0
    2.0734   14.1904   -0.9837 H   0  0  0  0  0  0  0  0  0  0  0  0
   -0.4640   14.5472   -0.7152 H   0  0  0  0  0  0  0  0  0  0  0  0
    0.6980   14.8856    0.6721 H   0  0  0  0  0  0  0  0  0  0  0  0
   -1.2390   16.6368    0.3196 H   0  0  0  0  0  0  0  0  0  0  0  0
    1.7126   17.9532   -2.1014 H   0  0  0  0  0  0  0  0  0  0  0  0
    2.7356   18.5474    0.7436 H   0  0  0  0  0  0  0  0  0  0  0  0
    3.5988   18.8881   -0.8211 H   0  0  0  0  0  0  0  0  0  0  0  0
    2.5780   20.9229    0.1468 H   0  0  0  0  0  0  0  0  0  0  0  0
    1.8786   20.4777   -1.4592 H   0  0  0  0  0  0  0  0  0  0  0  0
    0.0942   21.1362    0.0035 H   0  0  0  0  0  0  0  0  0  0  0  0
    1.5580   19.5540    1.7820 H   0  0  0  0  0  0  0  0  0  0  0  0
   -1.4556   20.3199   -1.8424 H   0  0  0  0  0  0  0  0  0  0  0  0
    0.1808   19.8308   -2.3989 H   0  0  0  0  0  0  0  0  0  0  0  0
   -1.1617   18.6374   -2.3989 H   0  0  0  0  0  0  0  0  0  0  0  0
   -1.4706   19.0673    1.4511 H   0  0  0  0  0  0  0  0  0  0  0  0
   -2.2834   19.9533    0.1166 H   0  0  0  0  0  0  0  0  0  0  0  0
   -2.2565   18.1572    0.1166 H   0  0  0  0  0  0  0  0  0  0  0  0
    2.5359   16.3138    1.1447 H   0  0  0  0  0  0  0  0  0  0  0  0
    3.5248   15.0073    0.4087 H   0  0  0  0  0  0  0  0  0  0  0  0
    4.1285   16.6991    0.4087 H   0  0  0  0  0  0  0  0  0  0  0  0
    4.0843   17.3705   -2.1506 H   0  0  0  0  0  0  0  0  0  0  0  0
    4.4050   15.5794   -1.7984 H   0  0  0  0  0  0  0  0  0  0  0  0
    2.6760   16.7516   -3.9943 H   0  0  0  0  0  0  0  0  0  0  0  0
    4.2189   15.8220   -4.1468 H   0  0  0  0  0  0  0  0  0  0  0  0
    3.4412   13.5293   -1.9302 H   0  0  0  0  0  0  0  0  0  0  0  0
    3.1016   12.5351   -3.3872 H   0  0  0  0  0  0  0  0  0  0  0  0
    4.4799   13.6870   -3.3872 H   0  0  0  0  0  0  0  0  0  0  0  0
  1  2  1  0
  2  3  1  0
  3  4  1  0
  4  5  1  0
  5  6  1  0
  6  7  1  0
  7  8  1  0
  7  9  1  0
  2 10  1  0
 10 11  1  0
 11 12  1  0
 12 13  1  0
 13 14  1  6
 13 15  1  0
 15 16  1  0
 16 17  1  0
 17 18  2  0
 18 19  1  0
 19 20  1  0
 20 21  1  0
 21 22  1  0
 22 23  1  0
 22 24  1  0
 24 25  1  0
 24 26  1  0
 19 27  1  0
 27 28  1  1
 27 29  1  0
 29 30  1  0
 30 31  1  0
 31 32  1  1
  7  5  1  0
 31 10  1  0
 31 13  1  0
 27 15  1  0
 24 18  1  0
  1 33  1  0
  1 34  1  0
  1 35  1  0
  2 36  1  6
  3 37  1  0
  3 38  1  0
  4 39  1  0
  4 40  1  0
  5 41  1  1
  8 42  1  0
  8 43  1  0
  8 44  1  0
  9 45  1  0
  9 46  1  0
  9 47  1  0
 10 48  1  6
 11 49  1  0
 11 50  1  0
 12 51  1  0
 12 52  1  0
 14 53  1  0
 14 54  1  0
 14 55  1  0
 15 56  1  1
 16 57  1  0
 16 58  1  0
 17 59  1  0
 19 60  1  6
 20 61  1  0
 20 62  1  0
 21 63  1  0
 21 64  1  0
 22 65  1  1
 23 66  1  0
 25 67  1  0
 25 68  1  0
 25 69  1  0
 26 70  1  0
 26 71  1  0
 26 72  1  0
 28 73  1  0
 28 74  1  0
 28 75  1  0
 29 76  1  0
 29 77  1  0
 30 78  1  0
 30 79  1  0
 32 80  1  0
 32 81  1  0
 32 82  1  0
M  END
>  <meeko>  (17) 
{"is_sidechain": [false], "intermolecular_energy": 2.731, "internal_energy": -0.839}

$$$$
EPH_relaxed_0001_pdb2pqr_Repair_321_r2_0001_out
     RDKit          3D

 82 86  0  0  0  0  0  0  0  0999 V2000
    0.6760    8.5350   -0.1140 C   0  0  0  0  0  0  0  0  0  0  0  0
   -0.3080    9.2480   -1.0460 C   0  0  2  0  0  0  0  0  0  0  0  0
   -0.9880    8.2730   -2.0290 C   0  0  0  0  0  0  0  0  0  0  0  0
   -2.5120    8.2250   -1.8910 C   0  0  0  0  0  0  0  0  0  0  0  0
   -3.1040    7.0940   -2.6770 C   0  0  2  0  0  0  0  0  0  0  0  0
   -4.1320    7.4800   -3.5990 O   0  0  0  0  0  0  0  0  0  0  0  0
   -4.5380    6.6250   -2.5180 C   0  0  0  0  0  0  0  0  0  0  0  0
   -5.4680    7.2770   -1.5430 C   0  0  0  0  0  0  0  0  0  0  0  0
   -4.8870    5.2340   -2.9470 C   0  0  0  0  0  0  0  0  0  0  0  0
    0.4120   10.3480   -1.8180 C   0  0  1  0  0  0  0  0  0  0  0  0
    0.1360   10.2860   -3.3440 C   0  0  0  0  0  0  0  0  0  0  0  0
    0.1020   11.7500   -3.8520 C   0  0  0  0  0  0  0  0  0  0  0  0
    0.6840   12.5810   -2.6850 C   0  0  1  0  0  0  0  0  0  0  0  0
    2.2320   12.4370   -2.8210 C   0  0  0  0  0  0  0  0  0  0  0  0
    0.2470   14.0810   -2.6210 C   0  0  2  0  0  0  0  0  0  0  0  0
    0.6750   14.9380   -3.8250 C   0  0  0  0  0  0  0  0  0  0  0  0
    2.0020   15.6090   -3.6910 C   0  0  0  0  0  0  0  0  0  0  0  0
    2.6880   15.7630   -2.5430 C   0  0  0  0  0  0  0  0  0  0  0  0
    2.0890   15.3210   -1.2020 C   0  0  1  0  0  0  0  0  0  0  0  0
    2.2950   16.4410   -0.1490 C   0  0  0  0  0  0  0  0  0  0  0  0
    3.7550   16.8660   -0.0240 C   0  0  0  0  0  0  0  0  0  0  0  0
    4.2970   17.3530   -1.3650 C   0  0  2  0  0  0  0  0  0  0  0  0
    3.6250   18.5650   -1.7210 O   0  0  0  0  0  0  0  0  0  0  0  0
    4.1360   16.3110   -2.5070 C   0  0  0  0  0  0  0  0  0  0  0  0
    5.1000   15.1230   -2.2670 C   0  0  0  0  0  0  0  0  0  0  0  0
    4.5920   16.9800   -3.8310 C   0  0  0  0  0  0  0  0  0  0  0  0
    0.5890   14.7980   -1.2520 C   0  0  1  0  0  0  0  0  0  0  0  0
   -0.3980   15.9980   -1.1180 C   0  0  0  0  0  0  0  0  0  0  0  0
    0.3280   13.8680   -0.0080 C   0  0  0  0  0  0  0  0  0  0  0  0
    0.6670   12.3740   -0.1740 C   0  0  0  0  0  0  0  0  0  0  0  0
    0.0590   11.8140   -1.4630 C   0  0  2  0  0  0  0  0  0  0  0  0
   -1.4990   11.9250   -1.3460 C   0  0  0  0  0  0  0  0  0  0  0  0
    0.4005    8.7346    0.9321 H   0  0  0  0  0  0  0  0  0  0  0  0
    0.6402    7.4518   -0.3023 H   0  0  0  0  0  0  0  0  0  0  0  0
    1.6941    8.9064   -0.3023 H   0  0  0  0  0  0  0  0  0  0  0  0
   -1.0974    9.6886   -0.4193 H   0  0  0  0  0  0  0  0  0  0  0  0
   -0.7416    8.5853   -3.0545 H   0  0  0  0  0  0  0  0  0  0  0  0
   -0.6117    7.2660   -1.7958 H   0  0  0  0  0  0  0  0  0  0  0  0
   -2.7700    8.0951   -0.8296 H   0  0  0  0  0  0  0  0  0  0  0  0
   -2.9219    9.1672   -2.2836 H   0  0  0  0  0  0  0  0  0  0  0  0
   -2.1458    6.5538   -2.6665 H   0  0  0  0  0  0  0  0  0  0  0  0
   -5.1427    7.0489   -0.5173 H   0  0  0  0  0  0  0  0  0  0  0  0
   -5.4568    8.3660   -1.6976 H   0  0  0  0  0  0  0  0  0  0  0  0
   -6.4880    6.8952   -1.6976 H   0  0  0  0  0  0  0  0  0  0  0  0
   -5.0448    4.6050   -2.0585 H   0  0  0  0  0  0  0  0  0  0  0  0
   -5.8075    5.2560   -3.5489 H   0  0  0  0  0  0  0  0  0  0  0  0
   -4.0652    4.8188   -3.5489 H   0  0  0  0  0  0  0  0  0  0  0  0
    1.4496   10.1295   -1.5252 H   0  0  0  0  0  0  0  0  0  0  0  0
    0.9364    9.7275   -3.8513 H   0  0  0  0  0  0  0  0  0  0  0  0
   -0.8144    9.7732   -3.5530 H   0  0  0  0  0  0  0  0  0  0  0  0
    0.7202   11.8623   -4.7549 H   0  0  0  0  0  0  0  0  0  0  0  0
   -0.9127   12.0723   -4.1284 H   0  0  0  0  0  0  0  0  0  0  0  0
    2.6857   12.3948   -1.8198 H   0  0  0  0  0  0  0  0  0  0  0  0
    2.4675   11.5131   -3.3695 H   0  0  0  0  0  0  0  0  0  0  0  0
    2.6339   13.3016   -3.3695 H   0  0  0  0  0  0  0  0  0  0  0  0
   -0.8491   14.0091   -2.6797 H   0  0  0  0  0  0  0  0  0  0  0  0
    0.7117   14.2861   -4.7103 H   0  0  0  0  0  0  0  0  0  0  0  0
   -0.0677   15.7456   -3.9029 H   0  0  0  0  0  0  0  0  0  0  0  0
    2.4576   16.0115   -4.6077 H   0  0  0  0  0  0  0  0  0  0  0  0
    2.6448   14.4204   -0.9021 H   0  0  0  0  0  0  0  0  0  0  0  0
    1.6971   17.3161   -0.4436 H   0  0  0  0  0  0  0  0  0  0  0  0
    1.9784   16.0439    0.8267 H   0  0  0  0  0  0  0  0  0  0  0  0
    3.8315   17.6796    0.7123 H   0  0  0  0  0  0  0  0  0  0  0  0
    4.3474   15.9976    0.3001 H   0  0  0  0  0  0  0  0  0  0  0  0
    5.3776   17.5188   -1.2429 H   0  0  0  0  0  0  0  0  0  0  0  0
    3.1760   18.4140   -2.5690 H   0  0  0  0  0  0  0  0  0  0  0  0
    5.2270   14.9665   -1.1856 H   0  0  0  0  0  0  0  0  0  0  0  0
    4.6815   14.2134   -2.7225 H   0  0  0  0  0  0  0  0  0  0  0  0
    6.0763   15.3452   -2.7225 H   0  0  0  0  0  0  0  0  0  0  0  0
    5.1981   17.8692   -3.6028 H   0  0  0  0  0  0  0  0  0  0  0  0
    5.1927   16.2667   -4.4143 H   0  0  0  0  0  0  0  0  0  0  0  0
    3.7084   17.2784   -4.4143 H   0  0  0  0  0  0  0  0  0  0  0  0
   -0.5734   16.2113   -0.0532 H   0  0  0  0  0  0  0  0  0  0  0  0
    0.0353   16.8851   -1.6031 H   0  0  0  0  0  0  0  0  0  0  0  0
   -1.3520   15.7440   -1.6031 H   0  0  0  0  0  0  0  0  0  0  0  0
    0.9288   14.2546    0.8284 H   0  0  0  0  0  0  0  0  0  0  0  0
   -0.7598   13.9002    0.1522 H   0  0  0  0  0  0  0  0  0  0  0  0
    1.7599   12.2549   -0.2103 H   0  0  0  0  0  0  0  0  0  0  0  0
    0.2477   11.8222    0.6802 H   0  0  0  0  0  0  0  0  0  0  0  0
   -1.7864   11.9455   -0.2844 H   0  0  0  0  0  0  0  0  0  0  0  0
   -1.8385   12.8496   -1.8357 H   0  0  0  0  0  0  0  0  0  0  0  0
   -1.9662   11.0579   -1.8357 H   0  0  0  0  0  0  0  0  0  0  0  0
  1  2  1  0
  2  3  1  0
  3  4  1  0
  4  5  1  0
  5  6  1  0
  6  7  1  0
  7  8  1  0
  7  9  1  0
  2 10  1  0
 10 11  1  0
 11 12  1  0
 12 13  1  0
 13 14  1  1
 13 15  1  0
 15 16  1  0
 16 17  1  0
 17 18  2  0
 18 19  1  0
 19 20  1  0
 20 21  1  0
 21 22  1  0
 22 23  1  0
 22 24  1  0
 24 25  1  0
 24 26  1  0
 19 27  1  0
 27 28  1  1
 27 29  1  0
 29 30  1  0
 30 31  1  0
 31 32  1  1
  7  5  1  0
 31 10  1  0
 31 13  1  0
 27 15  1  0
 24 18  1  0
  1 33  1  0
  1 34  1  0
  1 35  1  0
  2 36  1  1
  3 37  1  0
  3 38  1  0
  4 39  1  0
  4 40  1  0
  5 41  1  6
  8 42  1  0
  8 43  1  0
  8 44  1  0
  9 45  1  0
  9 46  1  0
  9 47  1  0
 10 48  1  6
 11 49  1  0
 11 50  1  0
 12 51  1  0
 12 52  1  0
 14 53  1  0
 14 54  1  0
 14 55  1  0
 15 56  1  6
 16 57  1  0
 16 58  1  0
 17 59  1  0
 19 60  1  1
 20 61  1  0
 20 62  1  0
 21 63  1  0
 21 64  1  0
 22 65  1  1
 23 66  1  0
 25 67  1  0
 25 68  1  0
 25 69  1  0
 26 70  1  0
 26 71  1  0
 26 72  1  0
 28 73  1  0
 28 74  1  0
 28 75  1  0
 29 76  1  0
 29 77  1  0
 30 78  1  0
 30 79  1  0
 32 80  1  0
 32 81  1  0
 32 82  1  0
M  END
>  <meeko>  (18) 
{"is_sidechain": [false], "intermolecular_energy": 2.731, "internal_energy": -0.839}

$$$$
