EPH_relaxed_0001_pdb2pqr_Repair_10_r2_0001_out
     RDKit          3D

 82 86  0  0  0  0  0  0  0  0999 V2000
   -1.6360    8.5670   -1.8130 C   0  0  0  0  0  0  0  0  0  0  0  0
   -2.0490    9.1420   -0.4550 C   0  0  2  0  0  0  0  0  0  0  0  0
   -3.5390    9.5370   -0.4210 C   0  0  0  0  0  0  0  0  0  0  0  0
   -4.4880    8.3460   -0.2640 C   0  0  0  0  0  0  0  0  0  0  0  0
   -5.1560    7.9960   -1.5590 C   0  0  2  0  0  0  0  0  0  0  0  0
   -6.3660    8.7170   -1.8230 O   0  0  0  0  0  0  0  0  0  0  0  0
   -6.5010    7.2980   -1.6450 C   0  0  0  0  0  0  0  0  0  0  0  0
   -7.2570    6.9080   -0.4140 C   0  0  0  0  0  0  0  0  0  0  0  0
   -6.8460    6.5630   -2.9020 C   0  0  0  0  0  0  0  0  0  0  0  0
   -1.1820   10.3490   -0.1160 C   0  0  1  0  0  0  0  0  0  0  0  0
   -0.1270   10.0380    0.9790 C   0  0  0  0  0  0  0  0  0  0  0  0
    1.1360   10.8670    0.6310 C   0  0  0  0  0  0  0  0  0  0  0  0
    0.6610   11.8690   -0.4470 C   0  0  1  0  0  0  0  0  0  0  0  0
   -0.0290   13.0200    0.3520 C   0  0  0  0  0  0  0  0  0  0  0  0
    1.7600   12.4160   -1.4140 C   0  0  2  0  0  0  0  0  0  0  0  0
    2.8780   13.2290   -0.7390 C   0  0  0  0  0  0  0  0  0  0  0  0
    2.6300   14.6980   -0.6430 C   0  0  0  0  0  0  0  0  0  0  0  0
    1.6920   15.3790   -1.3270 C   0  0  0  0  0  0  0  0  0  0  0  0
    0.8240   14.6810   -2.3820 C   0  0  1  0  0  0  0  0  0  0  0  0
    0.7700   15.5500   -3.6660 C   0  0  0  0  0  0  0  0  0  0  0  0
    0.3120   16.9780   -3.3870 C   0  0  0  0  0  0  0  0  0  0  0  0
    1.2340   17.6580   -2.3770 C   0  0  2  0  0  0  0  0  0  0  0  0
    2.5230   17.8300   -2.9740 O   0  0  0  0  0  0  0  0  0  0  0  0
    1.3740   16.8680   -1.0460 C   0  0  0  0  0  0  0  0  0  0  0  0
    0.0450   16.9410   -0.2550 C   0  0  0  0  0  0  0  0  0  0  0  0
    2.4380   17.5880   -0.1740 C   0  0  0  0  0  0  0  0  0  0  0  0
    1.1890   13.1640   -2.6870 C   0  0  1  0  0  0  0  0  0  0  0  0
    2.2990   13.0930   -3.7800 C   0  0  0  0  0  0  0  0  0  0  0  0
   -0.0740   12.4420   -3.2890 C   0  0  0  0  0  0  0  0  0  0  0  0
   -1.0620   11.8180   -2.2850 C   0  0  0  0  0  0  0  0  0  0  0  0
   -0.3260   10.9520   -1.2580 C   0  0  2  0  0  0  0  0  0  0  0  0
    0.3600    9.7730   -2.0290 C   0  0  0  0  0  0  0  0  0  0  0  0
   -1.0006    7.6824   -1.6587 H   0  0  0  0  0  0  0  0  0  0  0  0
   -2.5348    8.2788   -2.3778 H   0  0  0  0  0  0  0  0  0  0  0  0
   -1.0759    9.3267   -2.3778 H   0  0  0  0  0  0  0  0  0  0  0  0
   -1.8991    8.3539    0.2976 H   0  0  0  0  0  0  0  0  0  0  0  0
   -3.6976   10.2214    0.4255 H   0  0  0  0  0  0  0  0  0  0  0  0
   -3.7693   10.0061   -1.3889 H   0  0  0  0  0  0  0  0  0  0  0  0
   -3.9136    7.4762    0.0874 H   0  0  0  0  0  0  0  0  0  0  0  0
   -5.2680    8.6219    0.4609 H   0  0  0  0  0  0  0  0  0  0  0  0
   -4.1844    7.7867   -2.0303 H   0  0  0  0  0  0  0  0  0  0  0  0
   -6.6840    7.2036    0.4772 H   0  0  0  0  0  0  0  0  0  0  0  0
   -8.2331    7.4150   -0.4071 H   0  0  0  0  0  0  0  0  0  0  0  0
   -7.4096    5.8187   -0.4071 H   0  0  0  0  0  0  0  0  0  0  0  0
   -7.3007    5.5943   -2.6473 H   0  0  0  0  0  0  0  0  0  0  0  0
   -7.5585    7.1588   -3.4914 H   0  0  0  0  0  0  0  0  0  0  0  0
   -5.9324    6.3956   -3.4914 H   0  0  0  0  0  0  0  0  0  0  0  0
   -1.9652   11.0609    0.1838 H   0  0  0  0  0  0  0  0  0  0  0  0
   -0.5105   10.3289    1.9681 H   0  0  0  0  0  0  0  0  0  0  0  0
    0.1029    8.9628    1.0122 H   0  0  0  0  0  0  0  0  0  0  0  0
    1.5078   11.3993    1.5189 H   0  0  0  0  0  0  0  0  0  0  0  0
    1.9646   10.2358    0.2773 H   0  0  0  0  0  0  0  0  0  0  0  0
    0.0818   12.8352    1.4307 H   0  0  0  0  0  0  0  0  0  0  0  0
    0.4429   13.9795    0.0940 H   0  0  0  0  0  0  0  0  0  0  0  0
   -1.0977   13.0559    0.0940 H   0  0  0  0  0  0  0  0  0  0  0  0
    2.2382   11.4929   -1.7734 H   0  0  0  0  0  0  0  0  0  0  0  0
    3.0127   12.8398    0.2810 H   0  0  0  0  0  0  0  0  0  0  0  0
    3.7666   13.1117   -1.3766 H   0  0  0  0  0  0  0  0  0  0  0  0
    3.2678   15.2724    0.0449 H   0  0  0  0  0  0  0  0  0  0  0  0
   -0.1815   14.6004   -1.9433 H   0  0  0  0  0  0  0  0  0  0  0  0
    1.7749   15.5828   -4.1121 H   0  0  0  0  0  0  0  0  0  0  0  0
    0.0388   15.0922   -4.3485 H   0  0  0  0  0  0  0  0  0  0  0  0
    0.3228   17.5499   -4.3266 H   0  0  0  0  0  0  0  0  0  0  0  0
   -0.7049   16.9458   -2.9688 H   0  0  0  0  0  0  0  0  0  0  0  0
    0.7835   18.6277   -2.1186 H   0  0  0  0  0  0  0  0  0  0  0  0
    2.9720   16.9680   -2.9590 H   0  0  0  0  0  0  0  0  0  0  0  0
    0.2593   16.9292    0.8239 H   0  0  0  0  0  0  0  0  0  0  0  0
   -0.4850   17.8696   -0.5134 H   0  0  0  0  0  0  0  0  0  0  0  0
   -0.5835   16.0760   -0.5134 H   0  0  0  0  0  0  0  0  0  0  0  0
    2.2069   17.4316    0.8900 H   0  0  0  0  0  0  0  0  0  0  0  0
    3.4338   17.1774   -0.3971 H   0  0  0  0  0  0  0  0  0  0  0  0
    2.4271   18.6651   -0.3971 H   0  0  0  0  0  0  0  0  0  0  0  0
    3.2854   13.0299   -3.2973 H   0  0  0  0  0  0  0  0  0  0  0  0
    2.1400   12.2032   -4.4069 H   0  0  0  0  0  0  0  0  0  0  0  0
    2.2546   13.9958   -4.4069 H   0  0  0  0  0  0  0  0  0  0  0  0
   -0.6281   13.1824   -3.8847 H   0  0  0  0  0  0  0  0  0  0  0  0
    0.3262   11.5938   -3.8639 H   0  0  0  0  0  0  0  0  0  0  0  0
   -1.5974   12.6225   -1.7596 H   0  0  0  0  0  0  0  0  0  0  0  0
   -1.7691   11.1821   -2.8378 H   0  0  0  0  0  0  0  0  0  0  0  0
    0.7772    9.0560   -1.3066 H   0  0  0  0  0  0  0  0  0  0  0  0
   -0.3841    9.2660   -2.6608 H   0  0  0  0  0  0  0  0  0  0  0  0
    1.1685   10.1693   -2.6608 H   0  0  0  0  0  0  0  0  0  0  0  0
  1  2  1  0
  2  3  1  0
  3  4  1  0
  4  5  1  0
  5  6  1  0
  6  7  1  0
  7  8  1  0
  7  9  1  0
  2 10  1  0
 10 11  1  0
 11 12  1  0
 12 13  1  0
 13 14  1  1
 13 15  1  0
 15 16  1  0
 16 17  1  0
 17 18  2  0
 18 19  1  0
 19 20  1  0
 20 21  1  0
 21 22  1  0
 22 23  1  0
 22 24  1  0
 24 25  1  0
 24 26  1  0
 19 27  1  0
 27 28  1  6
 27 29  1  0
 29 30  1  0
 30 31  1  0
 31 32  1  6
  7  5  1  0
 31 10  1  0
 31 13  1  0
 27 15  1  0
 24 18  1  0
  1 33  1  0
  1 34  1  0
  1 35  1  0
  2 36  1  1
  3 37  1  0
  3 38  1  0
  4 39  1  0
  4 40  1  0
  5 41  1  6
  8 42  1  0
  8 43  1  0
  8 44  1  0
  9 45  1  0
  9 46  1  0
  9 47  1  0
 10 48  1  1
 11 49  1  0
 11 50  1  0
 12 51  1  0
 12 52  1  0
 14 53  1  0
 14 54  1  0
 14 55  1  0
 15 56  1  6
 16 57  1  0
 16 58  1  0
 17 59  1  0
 19 60  1  1
 20 61  1  0
 20 62  1  0
 21 63  1  0
 21 64  1  0
 22 65  1  1
 23 66  1  0
 25 67  1  0
 25 68  1  0
 25 69  1  0
 26 70  1  0
 26 71  1  0
 26 72  1  0
 28 73  1  0
 28 74  1  0
 28 75  1  0
 29 76  1  0
 29 77  1  0
 30 78  1  0
 30 79  1  0
 32 80  1  0
 32 81  1  0
 32 82  1  0
M  END
>  <meeko>  (1) 
{"is_sidechain": [false], "intermolecular_energy": 2.731, "internal_energy": -0.839}

$$$$
EPH_relaxed_0001_pdb2pqr_Repair_10_r2_0001_out
     RDKit          3D

 82 86  0  0  0  0  0  0  0  0999 V2000
    1.9150   19.6700   -0.4990 C   0  0  0  0  0  0  0  0  0  0  0  0
    2.3500   18.4210    0.2720 C   0  0  2  0  0  0  0  0  0  0  0  0
    3.7970   18.0050   -0.0630 C   0  0  0  0  0  0  0  0  0  0  0  0
    4.7990   18.3100    1.0530 C   0  0  0  0  0  0  0  0  0  0  0  0
    4.1610   19.0610    2.1820 C   0  0  2  0  0  0  0  0  0  0  0  0
    4.9070   20.1940    2.6440 O   0  0  0  0  0  0  0  0  0  0  0  0
    4.7420   19.1190    3.5820 C   0  0  0  0  0  0  0  0  0  0  0  0
    6.0150   18.4130    3.9290 C   0  0  0  0  0  0  0  0  0  0  0  0
    3.8290   19.4480    4.7220 C   0  0  0  0  0  0  0  0  0  0  0  0
    1.3960   17.2690   -0.0230 C   0  0  1  0  0  0  0  0  0  0  0  0
    0.1260   17.7270   -0.7890 C   0  0  0  0  0  0  0  0  0  0  0  0
   -0.2570   16.5730   -1.7500 C   0  0  0  0  0  0  0  0  0  0  0  0
    0.5930   15.3710   -1.2750 C   0  0  1  0  0  0  0  0  0  0  0  0
   -0.1880   14.7850   -0.0570 C   0  0  0  0  0  0  0  0  0  0  0  0
    0.9000   14.2750   -2.3460 C   0  0  2  0  0  0  0  0  0  0  0  0
   -0.3350   13.5490   -2.9100 C   0  0  0  0  0  0  0  0  0  0  0  0
   -0.7410   12.3170   -2.1720 C   0  0  0  0  0  0  0  0  0  0  0  0
    0.0170   11.6530   -1.2800 C   0  0  0  0  0  0  0  0  0  0  0  0
    1.4650   12.0780   -1.0070 C   0  0  1  0  0  0  0  0  0  0  0  0
    2.3820   10.8260   -1.0120 C   0  0  0  0  0  0  0  0  0  0  0  0
    1.9000    9.7450   -0.0500 C   0  0  0  0  0  0  0  0  0  0  0  0
    0.4780    9.3070   -0.3900 C   0  0  2  0  0  0  0  0  0  0  0  0
    0.4900    8.6460   -1.6590 O   0  0  0  0  0  0  0  0  0  0  0  0
   -0.5340   10.4860   -0.4250 C   0  0  0  0  0  0  0  0  0  0  0  0
   -0.7740   11.0080    1.0130 C   0  0  0  0  0  0  0  0  0  0  0  0
   -1.8980    9.9300   -0.9170 C   0  0  0  0  0  0  0  0  0  0  0  0
    2.0280   13.2500   -1.9210 C   0  0  1  0  0  0  0  0  0  0  0  0
    2.6150   12.6610   -3.2400 C   0  0  0  0  0  0  0  0  0  0  0  0
    3.2250   13.9530   -1.1770 C   0  0  0  0  0  0  0  0  0  0  0  0
    2.8670   15.1080   -0.2220 C   0  0  0  0  0  0  0  0  0  0  0  0
    1.9300   16.1100   -0.9010 C   0  0  2  0  0  0  0  0  0  0  0  0
    2.6960   16.7340   -2.1180 C   0  0  0  0  0  0  0  0  0  0  0  0
    1.6390   20.4624    0.2123 H   0  0  0  0  0  0  0  0  0  0  0  0
    2.7449   20.0179   -1.1316 H   0  0  0  0  0  0  0  0  0  0  0  0
    1.0485   19.4271   -1.1316 H   0  0  0  0  0  0  0  0  0  0  0  0
    2.3169   18.6665    1.3437 H   0  0  0  0  0  0  0  0  0  0  0  0
    3.8112   16.9222   -0.2560 H   0  0  0  0  0  0  0  0  0  0  0  0
    4.1051   18.5919   -0.9408 H   0  0  0  0  0  0  0  0  0  0  0  0
    5.2023   17.3620    1.4386 H   0  0  0  0  0  0  0  0  0  0  0  0
    5.5989   18.9375    0.6330 H   0  0  0  0  0  0  0  0  0  0  0  0
    3.1559   18.8132    1.8100 H   0  0  0  0  0  0  0  0  0  0  0  0
    6.1166   18.3566    5.0228 H   0  0  0  0  0  0  0  0  0  0  0  0
    5.9965   17.3963    3.5096 H   0  0  0  0  0  0  0  0  0  0  0  0
    6.8677   18.9671    3.5096 H   0  0  0  0  0  0  0  0  0  0  0  0
    4.3483   19.2609    5.6735 H   0  0  0  0  0  0  0  0  0  0  0  0
    3.5384   20.5074    4.6651 H   0  0  0  0  0  0  0  0  0  0  0  0
    2.9294   18.8175    4.6651 H   0  0  0  0  0  0  0  0  0  0  0  0
    1.2159   16.9115    1.0016 H   0  0  0  0  0  0  0  0  0  0  0  0
   -0.6943   17.9190   -0.0817 H   0  0  0  0  0  0  0  0  0  0  0  0
    0.3139   18.6577   -1.3445 H   0  0  0  0  0  0  0  0  0  0  0  0
   -1.3302   16.3440   -1.6735 H   0  0  0  0  0  0  0  0  0  0  0  0
   -0.0678   16.8273   -2.8034 H   0  0  0  0  0  0  0  0  0  0  0  0
    0.2758   15.1330    0.8778 H   0  0  0  0  0  0  0  0  0  0  0  0
   -1.2341   15.1229   -0.0952 H   0  0  0  0  0  0  0  0  0  0  0  0
   -0.1560   13.6861   -0.0952 H   0  0  0  0  0  0  0  0  0  0  0  0
    1.3052   14.8679   -3.1793 H   0  0  0  0  0  0  0  0  0  0  0  0
   -1.1811   14.2517   -2.8903 H   0  0  0  0  0  0  0  0  0  0  0  0
   -0.0594   13.2206   -3.9230 H   0  0  0  0  0  0  0  0  0  0  0  0
   -1.7457   11.9175   -2.3745 H   0  0  0  0  0  0  0  0  0  0  0  0
    1.4638   12.5361   -0.0069 H   0  0  0  0  0  0  0  0  0  0  0  0
    2.4035   10.4086   -2.0295 H   0  0  0  0  0  0  0  0  0  0  0  0
    3.3827   11.1434   -0.6837 H   0  0  0  0  0  0  0  0  0  0  0  0
    2.5708    8.8760   -0.1197 H   0  0  0  0  0  0  0  0  0  0  0  0
    1.9066   10.1550    0.9707 H   0  0  0  0  0  0  0  0  0  0  0  0
    0.1422    8.6286    0.4081 H   0  0  0  0  0  0  0  0  0  0  0  0
   -0.0750    9.1570   -2.2630 H   0  0  0  0  0  0  0  0  0  0  0  0
   -0.4285   10.2566    1.7383 H   0  0  0  0  0  0  0  0  0  0  0  0
   -0.2160   11.9443    1.1611 H   0  0  0  0  0  0  0  0  0  0  0  0
   -1.8480   11.1939    1.1611 H   0  0  0  0  0  0  0  0  0  0  0  0
   -2.5243    9.6747   -0.0495 H   0  0  0  0  0  0  0  0  0  0  0  0
   -2.4069   10.6924   -1.5250 H   0  0  0  0  0  0  0  0  0  0  0  0
   -1.7289    9.0290   -1.5250 H   0  0  0  0  0  0  0  0  0  0  0  0
    3.3723   11.9011   -2.9971 H   0  0  0  0  0  0  0  0  0  0  0  0
    1.8072   12.1992   -3.8267 H   0  0  0  0  0  0  0  0  0  0  0  0
    3.0796   13.4672   -3.8267 H   0  0  0  0  0  0  0  0  0  0  0  0
    3.7484   13.1849   -0.5888 H   0  0  0  0  0  0  0  0  0  0  0  0
    3.8279   14.4141   -1.9732 H   0  0  0  0  0  0  0  0  0  0  0  0
    2.3698   14.6972    0.6691 H   0  0  0  0  0  0  0  0  0  0  0  0
    3.7934   15.6297    0.0601 H   0  0  0  0  0  0  0  0  0  0  0  0
    3.4994   17.3885   -1.7490 H   0  0  0  0  0  0  0  0  0  0  0  0
    3.1303   15.9294   -2.7295 H   0  0  0  0  0  0  0  0  0  0  0  0
    1.9958   17.3220   -2.7295 H   0  0  0  0  0  0  0  0  0  0  0  0
  1  2  1  0
  2  3  1  0
  3  4  1  0
  4  5  1  0
  5  6  1  0
  6  7  1  0
  7  8  1  0
  7  9  1  0
  2 10  1  0
 10 11  1  0
 11 12  1  0
 12 13  1  0
 13 14  1  1
 13 15  1  0
 15 16  1  0
 16 17  1  0
 17 18  2  0
 18 19  1  0
 19 20  1  0
 20 21  1  0
 21 22  1  0
 22 23  1  0
 22 24  1  0
 24 25  1  0
 24 26  1  0
 19 27  1  0
 27 28  1  6
 27 29  1  0
 29 30  1  0
 30 31  1  0
 31 32  1  6
  7  5  1  0
 31 10  1  0
 31 13  1  0
 27 15  1  0
 24 18  1  0
  1 33  1  0
  1 34  1  0
  1 35  1  0
  2 36  1  1
  3 37  1  0
  3 38  1  0
  4 39  1  0
  4 40  1  0
  5 41  1  1
  8 42  1  0
  8 43  1  0
  8 44  1  0
  9 45  1  0
  9 46  1  0
  9 47  1  0
 10 48  1  1
 11 49  1  0
 11 50  1  0
 12 51  1  0
 12 52  1  0
 14 53  1  0
 14 54  1  0
 14 55  1  0
 15 56  1  6
 16 57  1  0
 16 58  1  0
 17 59  1  0
 19 60  1  1
 20 61  1  0
 20 62  1  0
 21 63  1  0
 21 64  1  0
 22 65  1  1
 23 66  1  0
 25 67  1  0
 25 68  1  0
 25 69  1  0
 26 70  1  0
 26 71  1  0
 26 72  1  0
 28 73  1  0
 28 74  1  0
 28 75  1  0
 29 76  1  0
 29 77  1  0
 30 78  1  0
 30 79  1  0
 32 80  1  0
 32 81  1  0
 32 82  1  0
M  END
>  <meeko>  (2) 
{"is_sidechain": [false], "intermolecular_energy": 2.731, "internal_energy": -0.839}

$$$$
EPH_relaxed_0001_pdb2pqr_Repair_10_r2_0001_out
     RDKit          3D

 82 86  0  0  0  0  0  0  0  0999 V2000
    0.4080   18.4300    0.0110 C   0  0  0  0  0  0  0  0  0  0  0  0
    1.5010   17.3860   -0.2370 C   0  0  2  0  0  0  0  0  0  0  0  0
    2.6970   17.9720   -1.0130 C   0  0  0  0  0  0  0  0  0  0  0  0
    3.9350   18.2130   -0.1450 C   0  0  0  0  0  0  0  0  0  0  0  0
    3.5650   18.6680    1.2340 C   0  0  2  0  0  0  0  0  0  0  0  0
    3.8260   20.0520    1.4980 O   0  0  0  0  0  0  0  0  0  0  0  0
    4.5820   19.1060    2.2710 C   0  0  0  0  0  0  0  0  0  0  0  0
    6.0490   19.1100    1.9730 C   0  0  0  0  0  0  0  0  0  0  0  0
    4.1950   19.0630    3.7170 C   0  0  0  0  0  0  0  0  0  0  0  0
    0.9210   16.1960   -0.9930 C   0  0  1  0  0  0  0  0  0  0  0  0
    0.7600   16.4740   -2.5110 C   0  0  0  0  0  0  0  0  0  0  0  0
    1.0460   15.1380   -3.2430 C   0  0  0  0  0  0  0  0  0  0  0  0
    1.0340   14.0700   -2.1250 C   0  0  1  0  0  0  0  0  0  0  0  0
   -0.4770   13.7600   -1.8820 C   0  0  0  0  0  0  0  0  0  0  0  0
    1.8530   12.7680   -2.4040 C   0  0  2  0  0  0  0  0  0  0  0  0
    1.3660   11.9350   -3.6030 C   0  0  0  0  0  0  0  0  0  0  0  0
    0.3480   10.8900   -3.2820 C   0  0  0  0  0  0  0  0  0  0  0  0
    0.0540   10.4370   -2.0490 C   0  0  0  0  0  0  0  0  0  0  0  0
    0.8460   10.9150   -0.8250 C   0  0  1  0  0  0  0  0  0  0  0  0
    1.2290    9.6940    0.0530 C   0  0  0  0  0  0  0  0  0  0  0  0
    0.0200    8.8460    0.4340 C   0  0  0  0  0  0  0  0  0  0  0  0
   -0.7070    8.3420   -0.8100 C   0  0  2  0  0  0  0  0  0  0  0  0
    0.1440    7.4210   -1.5000 O   0  0  0  0  0  0  0  0  0  0  0  0
   -1.1340    9.4830   -1.7750 C   0  0  0  0  0  0  0  0  0  0  0  0
   -2.2800   10.3040   -1.1350 C   0  0  0  0  0  0  0  0  0  0  0  0
   -1.7280    8.8300   -3.0520 C   0  0  0  0  0  0  0  0  0  0  0  0
    2.0860   11.8620   -1.1270 C   0  0  1  0  0  0  0  0  0  0  0  0
    3.3540   11.0030   -1.4160 C   0  0  0  0  0  0  0  0  0  0  0  0
    2.4090   12.7120    0.1580 C   0  0  0  0  0  0  0  0  0  0  0  0
    1.6550   14.0460    0.3170 C   0  0  0  0  0  0  0  0  0  0  0  0
    1.7310   14.8750   -0.9680 C   0  0  2  0  0  0  0  0  0  0  0  0
    3.2370   15.2220   -1.2260 C   0  0  0  0  0  0  0  0  0  0  0  0
    0.2678   18.5639    1.0938 H   0  0  0  0  0  0  0  0  0  0  0  0
    0.7060   19.3874   -0.4413 H   0  0  0  0  0  0  0  0  0  0  0  0
   -0.5347   18.0884   -0.4413 H   0  0  0  0  0  0  0  0  0  0  0  0
    1.8737   17.0566    0.7441 H   0  0  0  0  0  0  0  0  0  0  0  0
    2.9671   17.2706   -1.8162 H   0  0  0  0  0  0  0  0  0  0  0  0
    2.3802   18.9516   -1.4003 H   0  0  0  0  0  0  0  0  0  0  0  0
    4.5057   17.2756   -0.0700 H   0  0  0  0  0  0  0  0  0  0  0  0
    4.5362   19.0039   -0.6173 H   0  0  0  0  0  0  0  0  0  0  0  0
    2.7336   17.9489    1.2737 H   0  0  0  0  0  0  0  0  0  0  0  0
    6.6148   19.1115    2.9163 H   0  0  0  0  0  0  0  0  0  0  0  0
    6.3076   18.2126    1.3918 H   0  0  0  0  0  0  0  0  0  0  0  0
    6.3027   20.0088    1.3918 H   0  0  0  0  0  0  0  0  0  0  0  0
    5.0955   19.1631    4.3407 H   0  0  0  0  0  0  0  0  0  0  0  0
    3.5034   19.8898    3.9362 H   0  0  0  0  0  0  0  0  0  0  0  0
    3.7018   18.1045    3.9362 H   0  0  0  0  0  0  0  0  0  0  0  0
   -0.0228   16.0692   -0.4424 H   0  0  0  0  0  0  0  0  0  0  0  0
   -0.2638   16.8130   -2.7275 H   0  0  0  0  0  0  0  0  0  0  0  0
    1.4511   17.2625   -2.8436 H   0  0  0  0  0  0  0  0  0  0  0  0
    0.2646   14.9286   -3.9884 H   0  0  0  0  0  0  0  0  0  0  0  0
    2.0000   15.1582   -3.7902 H   0  0  0  0  0  0  0  0  0  0  0  0
   -0.6737   13.7196   -0.8005 H   0  0  0  0  0  0  0  0  0  0  0  0
   -1.0914   14.5508   -2.3372 H   0  0  0  0  0  0  0  0  0  0  0  0
   -0.7304   12.7912   -2.3372 H   0  0  0  0  0  0  0  0  0  0  0  0
    2.8359   13.1661   -2.6963 H   0  0  0  0  0  0  0  0  0  0  0  0
    0.9258   12.6237   -4.3391 H   0  0  0  0  0  0  0  0  0  0  0  0
    2.2485   11.3956   -3.9775 H   0  0  0  0  0  0  0  0  0  0  0  0
   -0.2085   10.4537   -4.1246 H   0  0  0  0  0  0  0  0  0  0  0  0
    0.1703   11.5796   -0.2667 H   0  0  0  0  0  0  0  0  0  0  0  0
    1.9381    9.0660   -0.5062 H   0  0  0  0  0  0  0  0  0  0  0  0
    1.6743   10.0777    0.9828 H   0  0  0  0  0  0  0  0  0  0  0  0
    0.3578    7.9837    1.0276 H   0  0  0  0  0  0  0  0  0  0  0  0
   -0.6743    9.4673    1.0187 H   0  0  0  0  0  0  0  0  0  0  0  0
   -1.6332    7.8524   -0.4749 H   0  0  0  0  0  0  0  0  0  0  0  0
    0.7330    7.9390   -2.0740 H   0  0  0  0  0  0  0  0  0  0  0  0
   -2.2029   10.2488   -0.0391 H   0  0  0  0  0  0  0  0  0  0  0  0
   -2.2026   11.3534   -1.4556 H   0  0  0  0  0  0  0  0  0  0  0  0
   -3.2487    9.8932   -1.4556 H   0  0  0  0  0  0  0  0  0  0  0  0
   -2.4423    8.0447   -2.7639 H   0  0  0  0  0  0  0  0  0  0  0  0
   -2.2457    9.5957   -3.6485 H   0  0  0  0  0  0  0  0  0  0  0  0
   -0.9169    8.3869   -3.6485 H   0  0  0  0  0  0  0  0  0  0  0  0
    3.8115   10.6931   -0.4649 H   0  0  0  0  0  0  0  0  0  0  0  0
    3.0690   10.1113   -1.9935 H   0  0  0  0  0  0  0  0  0  0  0  0
    4.0764   11.5984   -1.9935 H   0  0  0  0  0  0  0  0  0  0  0  0
    2.1748   12.0909    1.0352 H   0  0  0  0  0  0  0  0  0  0  0  0
    3.4686   12.9906    0.0595 H   0  0  0  0  0  0  0  0  0  0  0  0
    0.6001   13.8377    0.5490 H   0  0  0  0  0  0  0  0  0  0  0  0
    2.1226   14.6183    1.1318 H   0  0  0  0  0  0  0  0  0  0  0  0
    3.7558   15.3415   -0.2634 H   0  0  0  0  0  0  0  0  0  0  0  0
    3.7079   14.4088   -1.7978 H   0  0  0  0  0  0  0  0  0  0  0  0
    3.3046   16.1592   -1.7978 H   0  0  0  0  0  0  0  0  0  0  0  0
  1  2  1  0
  2  3  1  0
  3  4  1  0
  4  5  1  0
  5  6  1  0
  6  7  1  0
  7  8  1  0
  7  9  1  0
  2 10  1  0
 10 11  1  0
 11 12  1  0
 12 13  1  0
 13 14  1  1
 13 15  1  0
 15 16  1  0
 16 17  1  0
 17 18  2  0
 18 19  1  0
 19 20  1  0
 20 21  1  0
 21 22  1  0
 22 23  1  0
 22 24  1  0
 24 25  1  0
 24 26  1  0
 19 27  1  0
 27 28  1  6
 27 29  1  0
 29 30  1  0
 30 31  1  0
 31 32  1  6
  7  5  1  0
 31 10  1  0
 31 13  1  0
 27 15  1  0
 24 18  1  0
  1 33  1  0
  1 34  1  0
  1 35  1  0
  2 36  1  1
  3 37  1  0
  3 38  1  0
  4 39  1  0
  4 40  1  0
  5 41  1  1
  8 42  1  0
  8 43  1  0
  8 44  1  0
  9 45  1  0
  9 46  1  0
  9 47  1  0
 10 48  1  1
 11 49  1  0
 11 50  1  0
 12 51  1  0
 12 52  1  0
 14 53  1  0
 14 54  1  0
 14 55  1  0
 15 56  1  6
 16 57  1  0
 16 58  1  0
 17 59  1  0
 19 60  1  1
 20 61  1  0
 20 62  1  0
 21 63  1  0
 21 64  1  0
 22 65  1  1
 23 66  1  0
 25 67  1  0
 25 68  1  0
 25 69  1  0
 26 70  1  0
 26 71  1  0
 26 72  1  0
 28 73  1  0
 28 74  1  0
 28 75  1  0
 29 76  1  0
 29 77  1  0
 30 78  1  0
 30 79  1  0
 32 80  1  0
 32 81  1  0
 32 82  1  0
M  END
>  <meeko>  (3) 
{"is_sidechain": [false], "intermolecular_energy": 2.731, "internal_energy": -0.839}

$$$$
EPH_relaxed_0001_pdb2pqr_Repair_10_r2_0001_out
     RDKit          3D

 82 86  0  0  0  0  0  0  0  0999 V2000
    2.1920   18.0590   -2.6400 C   0  0  0  0  0  0  0  0  0  0  0  0
    0.6690   17.8990   -2.6630 C   0  0  2  0  0  0  0  0  0  0  0  0
    0.0170   18.3620   -1.3440 C   0  0  0  0  0  0  0  0  0  0  0  0
    0.7890   17.9370   -0.0930 C   0  0  0  0  0  0  0  0  0  0  0  0
    1.3150   19.1190    0.6630 C   0  0  2  0  0  0  0  0  0  0  0  0
    2.2090   19.9560   -0.0810 O   0  0  0  0  0  0  0  0  0  0  0  0
    2.7710   19.2810    1.0560 C   0  0  0  0  0  0  0  0  0  0  0  0
    3.7940   18.2460    0.7050 C   0  0  0  0  0  0  0  0  0  0  0  0
    3.1080   20.1940    2.1930 C   0  0  0  0  0  0  0  0  0  0  0  0
    0.3030   16.4460   -2.9420 C   0  0  1  0  0  0  0  0  0  0  0  0
    0.3650   16.0950   -4.4530 C   0  0  0  0  0  0  0  0  0  0  0  0
    0.8580   14.6290   -4.5520 C   0  0  0  0  0  0  0  0  0  0  0  0
    0.7460   14.0820   -3.1090 C   0  0  1  0  0  0  0  0  0  0  0  0
   -0.7580   13.6970   -2.9410 C   0  0  0  0  0  0  0  0  0  0  0  0
    1.6900   12.8890   -2.7470 C   0  0  2  0  0  0  0  0  0  0  0  0
    1.4600   11.6040   -3.5610 C   0  0  0  0  0  0  0  0  0  0  0  0
    0.4830   10.6420   -2.9710 C   0  0  0  0  0  0  0  0  0  0  0  0
    0.0310   10.6650   -1.7030 C   0  0  0  0  0  0  0  0  0  0  0  0
    0.5820   11.6750   -0.6880 C   0  0  1  0  0  0  0  0  0  0  0  0
    0.9090   10.9460    0.6420 C   0  0  0  0  0  0  0  0  0  0  0  0
   -0.2810   10.1620    1.1870 C   0  0  0  0  0  0  0  0  0  0  0  0
   -0.7640    9.1290    0.1720 C   0  0  2  0  0  0  0  0  0  0  0  0
    0.2490    8.1320    0.0120 O   0  0  0  0  0  0  0  0  0  0  0  0
   -1.1140    9.7450   -1.2110 C   0  0  0  0  0  0  0  0  0  0  0  0
   -2.4030   10.5950   -1.0920 C   0  0  0  0  0  0  0  0  0  0  0  0
   -1.4500    8.5810   -2.1820 C   0  0  0  0  0  0  0  0  0  0  0  0
    1.7830   12.5830   -1.1970 C   0  0  1  0  0  0  0  0  0  0  0  0
    3.1400   11.8500   -0.9680 C   0  0  0  0  0  0  0  0  0  0  0  0
    1.8370   13.8970   -0.3300 C   0  0  0  0  0  0  0  0  0  0  0  0
    0.9730   15.0800   -0.8070 C   0  0  0  0  0  0  0  0  0  0  0  0
    1.1920   15.3530   -2.2980 C   0  0  2  0  0  0  0  0  0  0  0  0
    2.6910   15.7630   -2.4950 C   0  0  0  0  0  0  0  0  0  0  0  0
    2.5411   18.0957   -1.5975 H   0  0  0  0  0  0  0  0  0  0  0  0
    2.6582   17.2049   -3.1530 H   0  0  0  0  0  0  0  0  0  0  0  0
    2.4705   18.9913   -3.1530 H   0  0  0  0  0  0  0  0  0  0  0  0
    0.2809   18.5413   -3.4673 H   0  0  0  0  0  0  0  0  0  0  0  0
   -0.0479   19.4600   -1.3556 H   0  0  0  0  0  0  0  0  0  0  0  0
   -0.9719   17.8833   -1.2892 H   0  0  0  0  0  0  0  0  0  0  0  0
    0.1168   17.3647    0.5632 H   0  0  0  0  0  0  0  0  0  0  0  0
    1.6458   17.3248   -0.4108 H   0  0  0  0  0  0  0  0  0  0  0  0
    0.3823   19.1931    1.2415 H   0  0  0  0  0  0  0  0  0  0  0  0
    4.2155   17.8195    1.6272 H   0  0  0  0  0  0  0  0  0  0  0  0
    3.3203   17.4476    0.1149 H   0  0  0  0  0  0  0  0  0  0  0  0
    4.5979   18.7103    0.1149 H   0  0  0  0  0  0  0  0  0  0  0  0
    2.9177   19.6785    3.1459 H   0  0  0  0  0  0  0  0  0  0  0  0
    4.1696   20.4762    2.1344 H   0  0  0  0  0  0  0  0  0  0  0  0
    2.4844   21.0983    2.1344 H   0  0  0  0  0  0  0  0  0  0  0  0
   -0.7041   16.4205   -2.5003 H   0  0  0  0  0  0  0  0  0  0  0  0
   -0.6332   16.1902   -4.9052 H   0  0  0  0  0  0  0  0  0  0  0  0
    1.0421   16.7763   -4.9891 H   0  0  0  0  0  0  0  0  0  0  0  0
    0.2211   14.0504   -5.2373 H   0  0  0  0  0  0  0  0  0  0  0  0
    1.8824   14.5588   -4.9467 H   0  0  0  0  0  0  0  0  0  0  0  0
   -1.0031   13.6343   -1.8705 H   0  0  0  0  0  0  0  0  0  0  0  0
   -1.3879   14.4629   -3.4171 H   0  0  0  0  0  0  0  0  0  0  0  0
   -0.9425   12.7227   -3.4171 H   0  0  0  0  0  0  0  0  0  0  0  0
    2.6756   13.2662   -3.0575 H   0  0  0  0  0  0  0  0  0  0  0  0
    1.0930   11.8935   -4.5567 H   0  0  0  0  0  0  0  0  0  0  0  0
    2.4272   11.0805   -3.5831 H   0  0  0  0  0  0  0  0  0  0  0  0
    0.0999    9.8471   -3.6277 H   0  0  0  0  0  0  0  0  0  0  0  0
   -0.2196   12.4101   -0.5235 H   0  0  0  0  0  0  0  0  0  0  0  0
    1.7407   10.2478    0.4662 H   0  0  0  0  0  0  0  0  0  0  0  0
    1.1737   11.7116    1.3862 H   0  0  0  0  0  0  0  0  0  0  0  0
    0.0203    9.6459    2.1105 H   0  0  0  0  0  0  0  0  0  0  0  0
   -1.1019   10.8655    1.3902 H   0  0  0  0  0  0  0  0  0  0  0  0
   -1.6940    8.6915    0.5641 H   0  0  0  0  0  0  0  0  0  0  0  0
   -0.1910    7.3030   -0.2420 H   0  0  0  0  0  0  0  0  0  0  0  0
   -2.6417   10.7524   -0.0298 H   0  0  0  0  0  0  0  0  0  0  0  0
   -2.2470   11.5680   -1.5808 H   0  0  0  0  0  0  0  0  0  0  0  0
   -3.2359   10.0684   -1.5808 H   0  0  0  0  0  0  0  0  0  0  0  0
   -1.7092    7.6830   -1.6021 H   0  0  0  0  0  0  0  0  0  0  0  0
   -2.3023    8.8668   -2.8159 H   0  0  0  0  0  0  0  0  0  0  0  0
   -0.5765    8.3686   -2.8159 H   0  0  0  0  0  0  0  0  0  0  0  0
    3.3251   11.7500    0.1117 H   0  0  0  0  0  0  0  0  0  0  0  0
    3.0993   10.8512   -1.4271 H   0  0  0  0  0  0  0  0  0  0  0  0
    3.9530   12.4317   -1.4271 H   0  0  0  0  0  0  0  0  0  0  0  0
    1.5125   13.6373    0.6884 H   0  0  0  0  0  0  0  0  0  0  0  0
    2.8760   14.2500   -0.4068 H   0  0  0  0  0  0  0  0  0  0  0  0
   -0.0875   14.8427   -0.6366 H   0  0  0  0  0  0  0  0  0  0  0  0
    1.2629   15.9769   -0.2400 H   0  0  0  0  0  0  0  0  0  0  0  0
    3.1677   15.8934   -1.5123 H   0  0  0  0  0  0  0  0  0  0  0  0
    3.2159   14.9754   -3.0555 H   0  0  0  0  0  0  0  0  0  0  0  0
    2.7420   16.7081   -3.0555 H   0  0  0  0  0  0  0  0  0  0  0  0
  1  2  1  0
  2  3  1  0
  3  4  1  0
  4  5  1  0
  5  6  1  0
  6  7  1  0
  7  8  1  0
  7  9  1  0
  2 10  1  0
 10 11  1  0
 11 12  1  0
 12 13  1  0
 13 14  1  1
 13 15  1  0
 15 16  1  0
 16 17  1  0
 17 18  2  0
 18 19  1  0
 19 20  1  0
 20 21  1  0
 21 22  1  0
 22 23  1  0
 22 24  1  0
 24 25  1  0
 24 26  1  0
 19 27  1  0
 27 28  1  6
 27 29  1  0
 29 30  1  0
 30 31  1  0
 31 32  1  1
  7  5  1  0
 31 10  1  0
 31 13  1  0
 27 15  1  0
 24 18  1  0
  1 33  1  0
  1 34  1  0
  1 35  1  0
  2 36  1  6
  3 37  1  0
  3 38  1  0
  4 39  1  0
  4 40  1  0
  5 41  1  1
  8 42  1  0
  8 43  1  0
  8 44  1  0
  9 45  1  0
  9 46  1  0
  9 47  1  0
 10 48  1  1
 11 49  1  0
 11 50  1  0
 12 51  1  0
 12 52  1  0
 14 53  1  0
 14 54  1  0
 14 55  1  0
 15 56  1  6
 16 57  1  0
 16 58  1  0
 17 59  1  0
 19 60  1  1
 20 61  1  0
 20 62  1  0
 21 63  1  0
 21 64  1  0
 22 65  1  1
 23 66  1  0
 25 67  1  0
 25 68  1  0
 25 69  1  0
 26 70  1  0
 26 71  1  0
 26 72  1  0
 28 73  1  0
 28 74  1  0
 28 75  1  0
 29 76  1  0
 29 77  1  0
 30 78  1  0
 30 79  1  0
 32 80  1  0
 32 81  1  0
 32 82  1  0
M  END
>  <meeko>  (4) 
{"is_sidechain": [false], "intermolecular_energy": 2.731, "internal_energy": -0.839}

$$$$
EPH_relaxed_0001_pdb2pqr_Repair_10_r2_0001_out
     RDKit          3D

 82 86  0  0  0  0  0  0  0  0999 V2000
    2.4420   18.0940   -2.6410 C   0  0  0  0  0  0  0  0  0  0  0  0
    1.1700   17.6970   -1.8870 C   0  0  2  0  0  0  0  0  0  0  0  0
    1.3700   17.7180   -0.3580 C   0  0  0  0  0  0  0  0  0  0  0  0
    1.0310   19.0640    0.2880 C   0  0  0  0  0  0  0  0  0  0  0  0
   -0.4250   19.1620    0.6320 C   0  0  2  0  0  0  0  0  0  0  0  0
   -1.2750   18.2700   -0.1010 O   0  0  0  0  0  0  0  0  0  0  0  0
   -1.4800   19.6740   -0.3300 C   0  0  0  0  0  0  0  0  0  0  0  0
   -1.1230   20.1220   -1.7130 C   0  0  0  0  0  0  0  0  0  0  0  0
   -2.7670   20.1940    0.2290 C   0  0  0  0  0  0  0  0  0  0  0  0
    0.7120   16.3130   -2.3330 C   0  0  1  0  0  0  0  0  0  0  0  0
    0.8190   16.1140   -3.8680 C   0  0  0  0  0  0  0  0  0  0  0  0
    1.2080   14.6320   -4.1020 C   0  0  0  0  0  0  0  0  0  0  0  0
    0.9880   13.9500   -2.7310 C   0  0  1  0  0  0  0  0  0  0  0  0
   -0.5460   13.6690   -2.6640 C   0  0  0  0  0  0  0  0  0  0  0  0
    1.8240   12.6570   -2.4590 C   0  0  2  0  0  0  0  0  0  0  0  0
    1.5390   11.4840   -3.4130 C   0  0  0  0  0  0  0  0  0  0  0  0
    0.4660   10.5460   -2.9670 C   0  0  0  0  0  0  0  0  0  0  0  0
   -0.0430   10.4740   -1.7230 C   0  0  0  0  0  0  0  0  0  0  0  0
    0.5330   11.3290   -0.5860 C   0  0  1  0  0  0  0  0  0  0  0  0
    0.7410   10.4450    0.6710 C   0  0  0  0  0  0  0  0  0  0  0  0
   -0.5280    9.7040    1.0830 C   0  0  0  0  0  0  0  0  0  0  0  0
   -1.0370    8.8210   -0.0540 C   0  0  2  0  0  0  0  0  0  0  0  0
   -0.0930    7.7690   -0.2780 O   0  0  0  0  0  0  0  0  0  0  0  0
   -1.2740    9.6010   -1.3770 C   0  0  0  0  0  0  0  0  0  0  0  0
   -2.5010   10.5320   -1.2190 C   0  0  0  0  0  0  0  0  0  0  0  0
   -1.6490    8.5720   -2.4770 C   0  0  0  0  0  0  0  0  0  0  0  0
    1.8200   12.1880   -0.9480 C   0  0  1  0  0  0  0  0  0  0  0  0
    3.1060   11.3310   -0.7450 C   0  0  0  0  0  0  0  0  0  0  0  0
    1.9290   13.3970    0.0540 C   0  0  0  0  0  0  0  0  0  0  0  0
    1.1780   14.6870   -0.3290 C   0  0  0  0  0  0  0  0  0  0  0  0
    1.4860   15.0930   -1.7730 C   0  0  2  0  0  0  0  0  0  0  0  0
    3.0190   15.4040   -1.8650 C   0  0  0  0  0  0  0  0  0  0  0  0
    3.2342   18.3412   -1.9190 H   0  0  0  0  0  0  0  0  0  0  0  0
    2.7704   17.2556   -3.2729 H   0  0  0  0  0  0  0  0  0  0  0  0
    2.2353   18.9704   -3.2729 H   0  0  0  0  0  0  0  0  0  0  0  0
    0.3966   18.4409   -2.1289 H   0  0  0  0  0  0  0  0  0  0  0  0
    0.7246   16.9466    0.0874 H   0  0  0  0  0  0  0  0  0  0  0  0
    2.4377   17.5310   -0.1706 H   0  0  0  0  0  0  0  0  0  0  0  0
    1.6232   19.1773    1.2080 H   0  0  0  0  0  0  0  0  0  0  0  0
    1.2677   19.8602   -0.4332 H   0  0  0  0  0  0  0  0  0  0  0  0
   -0.1849   19.4268    1.6723 H   0  0  0  0  0  0  0  0  0  0  0  0
   -0.4384   20.9811   -1.6549 H   0  0  0  0  0  0  0  0  0  0  0  0
   -0.6317   19.2973   -2.2502 H   0  0  0  0  0  0  0  0  0  0  0  0
   -2.0365   20.4168   -2.2502 H   0  0  0  0  0  0  0  0  0  0  0  0
   -2.7231   20.1763    1.3280 H   0  0  0  0  0  0  0  0  0  0  0  0
   -2.9255   21.2267   -0.1150 H   0  0  0  0  0  0  0  0  0  0  0  0
   -3.5984   19.5612   -0.1150 H   0  0  0  0  0  0  0  0  0  0  0  0
   -0.3142   16.3222   -1.9369 H   0  0  0  0  0  0  0  0  0  0  0  0
   -0.1473   16.3318   -4.3463 H   0  0  0  0  0  0  0  0  0  0  0  0
    1.5686   16.7919   -4.3023 H   0  0  0  0  0  0  0  0  0  0  0  0
    0.5639   14.1779   -4.8695 H   0  0  0  0  0  0  0  0  0  0  0  0
    2.2422   14.5237   -4.4608 H   0  0  0  0  0  0  0  0  0  0  0  0
   -0.8625   13.6110   -1.6121 H   0  0  0  0  0  0  0  0  0  0  0  0
   -1.0901   14.4824   -3.1663 H   0  0  0  0  0  0  0  0  0  0  0  0
   -0.7664   12.7155   -3.1663 H   0  0  0  0  0  0  0  0  0  0  0  0
    2.8486   12.9858   -2.6874 H   0  0  0  0  0  0  0  0  0  0  0  0
    1.2424   11.9018   -4.3864 H   0  0  0  0  0  0  0  0  0  0  0  0
    2.4648   10.8913   -3.4520 H   0  0  0  0  0  0  0  0  0  0  0  0
    0.0568    9.8552   -3.7190 H   0  0  0  0  0  0  0  0  0  0  0  0
   -0.2188   12.1044   -0.3771 H   0  0  0  0  0  0  0  0  0  0  0  0
    1.5267    9.7058    0.4559 H   0  0  0  0  0  0  0  0  0  0  0  0
    1.0247   11.1079    1.5017 H   0  0  0  0  0  0  0  0  0  0  0  0
   -0.3093    9.0741    1.9579 H   0  0  0  0  0  0  0  0  0  0  0  0
   -1.3038   10.4446    1.3270 H   0  0  0  0  0  0  0  0  0  0  0  0
   -2.0144    8.4197    0.2521 H   0  0  0  0  0  0  0  0  0  0  0  0
    0.2980    7.9070   -1.1570 H   0  0  0  0  0  0  0  0  0  0  0  0
   -2.7073   10.6885   -0.1499 H   0  0  0  0  0  0  0  0  0  0  0  0
   -2.2908   11.5000   -1.6974 H   0  0  0  0  0  0  0  0  0  0  0  0
   -3.3766   10.0690   -1.6974 H   0  0  0  0  0  0  0  0  0  0  0  0
   -1.9892    7.6384   -2.0051 H   0  0  0  0  0  0  0  0  0  0  0  0
   -2.4556    8.9817   -3.1027 H   0  0  0  0  0  0  0  0  0  0  0  0
   -0.7679    8.3667   -3.1027 H   0  0  0  0  0  0  0  0  0  0  0  0
    3.2961   11.2043    0.3310 H   0  0  0  0  0  0  0  0  0  0  0  0
    2.9667   10.3446   -1.2114 H   0  0  0  0  0  0  0  0  0  0  0  0
    3.9628   11.8393   -1.2114 H   0  0  0  0  0  0  0  0  0  0  0  0
    1.5380   13.0603    1.0255 H   0  0  0  0  0  0  0  0  0  0  0  0
    2.9936   13.6737    0.0563 H   0  0  0  0  0  0  0  0  0  0  0  0
    0.0960   14.5175   -0.2260 H   0  0  0  0  0  0  0  0  0  0  0  0
    1.5067   15.4958    0.3402 H   0  0  0  0  0  0  0  0  0  0  0  0
    3.4374   15.4889   -0.8512 H   0  0  0  0  0  0  0  0  0  0  0  0
    3.5265   14.5905   -2.4042 H   0  0  0  0  0  0  0  0  0  0  0  0
    3.1693   16.3509   -2.4042 H   0  0  0  0  0  0  0  0  0  0  0  0
  1  2  1  0
  2  3  1  0
  3  4  1  0
  4  5  1  0
  5  6  1  0
  6  7  1  0
  7  8  1  0
  7  9  1  0
  2 10  1  0
 10 11  1  0
 11 12  1  0
 12 13  1  0
 13 14  1  1
 13 15  1  0
 15 16  1  0
 16 17  1  0
 17 18  2  0
 18 19  1  0
 19 20  1  0
 20 21  1  0
 21 22  1  0
 22 23  1  0
 22 24  1  0
 24 25  1  0
 24 26  1  0
 19 27  1  0
 27 28  1  6
 27 29  1  0
 29 30  1  0
 30 31  1  0
 31 32  1  1
  7  5  1  0
 31 10  1  0
 31 13  1  0
 27 15  1  0
 24 18  1  0
  1 33  1  0
  1 34  1  0
  1 35  1  0
  2 36  1  1
  3 37  1  0
  3 38  1  0
  4 39  1  0
  4 40  1  0
  5 41  1  1
  8 42  1  0
  8 43  1  0
  8 44  1  0
  9 45  1  0
  9 46  1  0
  9 47  1  0
 10 48  1  1
 11 49  1  0
 11 50  1  0
 12 51  1  0
 12 52  1  0
 14 53  1  0
 14 54  1  0
 14 55  1  0
 15 56  1  6
 16 57  1  0
 16 58  1  0
 17 59  1  0
 19 60  1  1
 20 61  1  0
 20 62  1  0
 21 63  1  0
 21 64  1  0
 22 65  1  1
 23 66  1  0
 25 67  1  0
 25 68  1  0
 25 69  1  0
 26 70  1  0
 26 71  1  0
 26 72  1  0
 28 73  1  0
 28 74  1  0
 28 75  1  0
 29 76  1  0
 29 77  1  0
 30 78  1  0
 30 79  1  0
 32 80  1  0
 32 81  1  0
 32 82  1  0
M  END
>  <meeko>  (5) 
{"is_sidechain": [false], "intermolecular_energy": 2.731, "internal_energy": -0.839}

$$$$
EPH_relaxed_0001_pdb2pqr_Repair_10_r2_0001_out
     RDKit          3D

 82 86  0  0  0  0  0  0  0  0999 V2000
    3.6550   17.8080    0.7900 C   0  0  0  0  0  0  0  0  0  0  0  0
    2.7410   18.1560   -0.3890 C   0  0  2  0  0  0  0  0  0  0  0  0
    2.0300   19.5110   -0.1920 C   0  0  0  0  0  0  0  0  0  0  0  0
    0.9850   19.5010    0.9270 C   0  0  0  0  0  0  0  0  0  0  0  0
   -0.3080   20.1140    0.4830 C   0  0  2  0  0  0  0  0  0  0  0  0
   -1.3150   20.1910    1.5010 O   0  0  0  0  0  0  0  0  0  0  0  0
   -1.6090   19.3400    0.3810 C   0  0  0  0  0  0  0  0  0  0  0  0
   -1.6810   17.8850    0.7250 C   0  0  0  0  0  0  0  0  0  0  0  0
   -2.6890   19.8690   -0.5100 C   0  0  0  0  0  0  0  0  0  0  0  0
    1.7100   17.0520   -0.5910 C   0  0  1  0  0  0  0  0  0  0  0  0
    0.4830   17.5240   -1.4160 C   0  0  0  0  0  0  0  0  0  0  0  0
    0.0280   16.3140   -2.2720 C   0  0  0  0  0  0  0  0  0  0  0  0
    0.7860   15.1060   -1.6740 C   0  0  1  0  0  0  0  0  0  0  0  0
   -0.0450   14.6910   -0.4200 C   0  0  0  0  0  0  0  0  0  0  0  0
    1.0240   13.8950   -2.6350 C   0  0  2  0  0  0  0  0  0  0  0  0
   -0.2530   13.2080   -3.1470 C   0  0  0  0  0  0  0  0  0  0  0  0
   -0.7530   12.0810   -2.3060 C   0  0  0  0  0  0  0  0  0  0  0  0
   -0.0520   11.4520   -1.3440 C   0  0  0  0  0  0  0  0  0  0  0  0
    1.4210   11.7990   -1.0890 C   0  0  1  0  0  0  0  0  0  0  0  0
    2.2460   10.4920   -0.9630 C   0  0  0  0  0  0  0  0  0  0  0  0
    1.6800    9.5410    0.0870 C   0  0  0  0  0  0  0  0  0  0  0  0
    0.2340    9.1730   -0.2340 C   0  0  2  0  0  0  0  0  0  0  0  0
    0.2110    8.3970   -1.4360 O   0  0  0  0  0  0  0  0  0  0  0  0
   -0.6920   10.4110   -0.3930 C   0  0  0  0  0  0  0  0  0  0  0  0
   -0.9070   11.0810    0.9860 C   0  0  0  0  0  0  0  0  0  0  0  0
   -2.0870    9.9080   -0.8530 C   0  0  0  0  0  0  0  0  0  0  0  0
    2.0730   12.8390   -2.0980 C   0  0  1  0  0  0  0  0  0  0  0  0
    2.6290   12.0900   -3.3480 C   0  0  0  0  0  0  0  0  0  0  0  0
    3.3100   13.5230   -1.4040 C   0  0  0  0  0  0  0  0  0  0  0  0
    3.0260   14.7840   -0.5660 C   0  0  0  0  0  0  0  0  0  0  0  0
    2.1680   15.7820   -1.3500 C   0  0  2  0  0  0  0  0  0  0  0  0
    2.9880   16.2330   -2.6060 C   0  0  0  0  0  0  0  0  0  0  0  0
    3.1278   18.0087    1.7343 H   0  0  0  0  0  0  0  0  0  0  0  0
    3.9272   16.7433    0.7411 H   0  0  0  0  0  0  0  0  0  0  0  0
    4.5663   18.4221    0.7411 H   0  0  0  0  0  0  0  0  0  0  0  0
    3.3741   18.2419   -1.2845 H   0  0  0  0  0  0  0  0  0  0  0  0
    2.7892   20.2698    0.0486 H   0  0  0  0  0  0  0  0  0  0  0  0
    1.4965   19.7331   -1.1280 H   0  0  0  0  0  0  0  0  0  0  0  0
    0.7999   18.4607    1.2327 H   0  0  0  0  0  0  0  0  0  0  0  0
    1.3757   20.0949    1.7665 H   0  0  0  0  0  0  0  0  0  0  0  0
    0.2188   20.7685   -0.2270 H   0  0  0  0  0  0  0  0  0  0  0  0
   -1.6869   17.7666    1.8186 H   0  0  0  0  0  0  0  0  0  0  0  0
   -2.6016   17.4539    0.3046 H   0  0  0  0  0  0  0  0  0  0  0  0
   -0.8075   17.3652    0.3046 H   0  0  0  0  0  0  0  0  0  0  0  0
   -3.5080   20.2702    0.1050 H   0  0  0  0  0  0  0  0  0  0  0  0
   -2.2813   20.6694   -1.1449 H   0  0  0  0  0  0  0  0  0  0  0  0
   -3.0714   19.0562   -1.1449 H   0  0  0  0  0  0  0  0  0  0  0  0
    1.4954   16.8056    0.4594 H   0  0  0  0  0  0  0  0  0  0  0  0
   -0.3281   17.8382   -0.7427 H   0  0  0  0  0  0  0  0  0  0  0  0
    0.7415   18.3833   -2.0523 H   0  0  0  0  0  0  0  0  0  0  0  0
   -1.0594   16.1685   -2.1917 H   0  0  0  0  0  0  0  0  0  0  0  0
    0.2445   16.4545   -3.3413 H   0  0  0  0  0  0  0  0  0  0  0  0
    0.5053   14.9658    0.4919 H   0  0  0  0  0  0  0  0  0  0  0  0
   -1.0143   15.2108   -0.4340 H   0  0  0  0  0  0  0  0  0  0  0  0
   -0.2118   13.6038   -0.4340 H   0  0  0  0  0  0  0  0  0  0  0  0
    1.4767   14.3764   -3.5143 H   0  0  0  0  0  0  0  0  0  0  0  0
   -1.0471   13.9670   -3.2048 H   0  0  0  0  0  0  0  0  0  0  0  0
    0.0084   12.7678   -4.1206 H   0  0  0  0  0  0  0  0  0  0  0  0
   -1.7813   11.7350   -2.4875 H   0  0  0  0  0  0  0  0  0  0  0  0
    1.4441   12.3477   -0.1359 H   0  0  0  0  0  0  0  0  0  0  0  0
    2.2477    9.9809   -1.9371 H   0  0  0  0  0  0  0  0  0  0  0  0
    3.2632   10.7686   -0.6488 H   0  0  0  0  0  0  0  0  0  0  0  0
    2.2885    8.6249    0.1084 H   0  0  0  0  0  0  0  0  0  0  0  0
    1.7059   10.0426    1.0656 H   0  0  0  0  0  0  0  0  0  0  0  0
   -0.1564    8.5966    0.6177 H   0  0  0  0  0  0  0  0  0  0  0  0
    0.3770    7.4710   -1.1910 H   0  0  0  0  0  0  0  0  0  0  0  0
   -0.6757   10.3601    1.7840 H   0  0  0  0  0  0  0  0  0  0  0  0
   -0.2439   11.9539    1.0769 H   0  0  0  0  0  0  0  0  0  0  0  0
   -1.9542   11.4051    1.0769 H   0  0  0  0  0  0  0  0  0  0  0  0
   -2.7055    9.6850    0.0289 H   0  0  0  0  0  0  0  0  0  0  0  0
   -2.5766   10.6862   -1.4569 H   0  0  0  0  0  0  0  0  0  0  0  0
   -1.9673    8.9964   -1.4569 H   0  0  0  0  0  0  0  0  0  0  0  0
    3.2551   11.2465   -3.0216 H   0  0  0  0  0  0  0  0  0  0  0  0
    1.7908   11.7123   -3.9520 H   0  0  0  0  0  0  0  0  0  0  0  0
    3.2332   12.7829   -3.9520 H   0  0  0  0  0  0  0  0  0  0  0  0
    3.7724   12.7786   -0.7391 H   0  0  0  0  0  0  0  0  0  0  0  0
    3.9514   13.8644   -2.2299 H   0  0  0  0  0  0  0  0  0  0  0  0
    2.4927   14.4938    0.3513 H   0  0  0  0  0  0  0  0  0  0  0  0
    3.9844   15.2639   -0.3189 H   0  0  0  0  0  0  0  0  0  0  0  0
    3.9086   16.7394   -2.2804 H   0  0  0  0  0  0  0  0  0  0  0  0
    3.2485   15.3512   -3.2098 H   0  0  0  0  0  0  0  0  0  0  0  0
    2.3828   16.9252   -3.2098 H   0  0  0  0  0  0  0  0  0  0  0  0
  1  2  1  0
  2  3  1  0
  3  4  1  0
  4  5  1  0
  5  6  1  0
  6  7  1  0
  7  8  1  0
  7  9  1  0
  2 10  1  0
 10 11  1  0
 11 12  1  0
 12 13  1  0
 13 14  1  1
 13 15  1  0
 15 16  1  0
 16 17  1  0
 17 18  2  0
 18 19  1  0
 19 20  1  0
 20 21  1  0
 21 22  1  0
 22 23  1  0
 22 24  1  0
 24 25  1  0
 24 26  1  0
 19 27  1  0
 27 28  1  6
 27 29  1  0
 29 30  1  0
 30 31  1  0
 31 32  1  6
  7  5  1  0
 31 10  1  0
 31 13  1  0
 27 15  1  0
 24 18  1  0
  1 33  1  0
  1 34  1  0
  1 35  1  0
  2 36  1  6
  3 37  1  0
  3 38  1  0
  4 39  1  0
  4 40  1  0
  5 41  1  6
  8 42  1  0
  8 43  1  0
  8 44  1  0
  9 45  1  0
  9 46  1  0
  9 47  1  0
 10 48  1  1
 11 49  1  0
 11 50  1  0
 12 51  1  0
 12 52  1  0
 14 53  1  0
 14 54  1  0
 14 55  1  0
 15 56  1  6
 16 57  1  0
 16 58  1  0
 17 59  1  0
 19 60  1  1
 20 61  1  0
 20 62  1  0
 21 63  1  0
 21 64  1  0
 22 65  1  1
 23 66  1  0
 25 67  1  0
 25 68  1  0
 25 69  1  0
 26 70  1  0
 26 71  1  0
 26 72  1  0
 28 73  1  0
 28 74  1  0
 28 75  1  0
 29 76  1  0
 29 77  1  0
 30 78  1  0
 30 79  1  0
 32 80  1  0
 32 81  1  0
 32 82  1  0
M  END
>  <meeko>  (6) 
{"is_sidechain": [false], "intermolecular_energy": 2.731, "internal_energy": -0.839}

$$$$
EPH_relaxed_0001_pdb2pqr_Repair_10_r2_0001_out
     RDKit          3D

 82 86  0  0  0  0  0  0  0  0999 V2000
   -5.1190    5.9330   -1.7770 C   0  0  0  0  0  0  0  0  0  0  0  0
   -5.4440    7.4290   -1.8110 C   0  0  2  0  0  0  0  0  0  0  0  0
   -5.2270    8.1010   -0.4400 C   0  0  0  0  0  0  0  0  0  0  0  0
   -4.1750    9.2140   -0.4610 C   0  0  0  0  0  0  0  0  0  0  0  0
   -2.8140    8.6840   -0.7960 C   0  0  2  0  0  0  0  0  0  0  0  0
   -1.7940    9.0080    0.1570 O   0  0  0  0  0  0  0  0  0  0  0  0
   -1.6360    9.5700   -1.1550 C   0  0  0  0  0  0  0  0  0  0  0  0
   -1.7660   11.0600   -1.1990 C   0  0  0  0  0  0  0  0  0  0  0  0
   -0.5040    8.9750   -1.9340 C   0  0  0  0  0  0  0  0  0  0  0  0
   -6.8820    7.6380   -2.2710 C   0  0  1  0  0  0  0  0  0  0  0  0
   -7.1850    6.9350   -3.6220 C   0  0  0  0  0  0  0  0  0  0  0  0
   -8.6550    6.4450   -3.5510 C   0  0  0  0  0  0  0  0  0  0  0  0
   -9.2460    7.1640   -2.3160 C   0  0  1  0  0  0  0  0  0  0  0  0
   -9.6140    8.5940   -2.8220 C   0  0  0  0  0  0  0  0  0  0  0  0
  -10.4630    6.4640   -1.6270 C   0  0  2  0  0  0  0  0  0  0  0  0
  -11.7180    6.3220   -2.5060 C   0  0  0  0  0  0  0  0  0  0  0  0
  -12.6840    7.4570   -2.4250 C   0  0  0  0  0  0  0  0  0  0  0  0
  -12.6960    8.4090   -1.4740 C   0  0  0  0  0  0  0  0  0  0  0  0
  -11.7280    8.3460   -0.2850 C   0  0  1  0  0  0  0  0  0  0  0  0
  -12.5030    8.6210    1.0300 C   0  0  0  0  0  0  0  0  0  0  0  0
  -13.2880    9.9290    0.9850 C   0  0  0  0  0  0  0  0  0  0  0  0
  -14.2810    9.9290   -0.1750 C   0  0  2  0  0  0  0  0  0  0  0  0
  -15.2870    8.9440    0.0790 O   0  0  0  0  0  0  0  0  0  0  0  0
  -13.6150    9.6530   -1.5520 C   0  0  0  0  0  0  0  0  0  0  0  0
  -12.7510   10.8700   -1.9660 C   0  0  0  0  0  0  0  0  0  0  0  0
  -14.7420    9.5400   -2.6130 C   0  0  0  0  0  0  0  0  0  0  0  0
  -10.8200    7.0450   -0.1980 C   0  0  1  0  0  0  0  0  0  0  0  0
  -11.5800    5.9160    0.5630 C   0  0  0  0  0  0  0  0  0  0  0  0
   -9.5370    7.3690    0.6540 C   0  0  0  0  0  0  0  0  0  0  0  0
   -8.3260    7.9460   -0.1040 C   0  0  0  0  0  0  0  0  0  0  0  0
   -8.0090    7.1100   -1.3480 C   0  0  2  0  0  0  0  0  0  0  0  0
   -7.6130    5.6720   -0.8690 C   0  0  0  0  0  0  0  0  0  0  0  0
   -5.0461    5.5973   -0.7320 H   0  0  0  0  0  0  0  0  0  0  0  0
   -5.9164    5.3729   -2.2873 H   0  0  0  0  0  0  0  0  0  0  0  0
   -4.1611    5.7542   -2.2873 H   0  0  0  0  0  0  0  0  0  0  0  0
   -4.7529    7.9019   -2.5242 H   0  0  0  0  0  0  0  0  0  0  0  0
   -6.1832    8.5328   -0.1094 H   0  0  0  0  0  0  0  0  0  0  0  0
   -4.8592    7.3231    0.2453 H   0  0  0  0  0  0  0  0  0  0  0  0
   -4.4620    9.9616   -1.2152 H   0  0  0  0  0  0  0  0  0  0  0  0
   -4.1308    9.6630    0.5422 H   0  0  0  0  0  0  0  0  0  0  0  0
   -3.2526    7.8039   -1.2890 H   0  0  0  0  0  0  0  0  0  0  0  0
   -1.8005   11.4555   -0.1731 H   0  0  0  0  0  0  0  0  0  0  0  0
   -0.9018   11.4880   -1.7281 H   0  0  0  0  0  0  0  0  0  0  0  0
   -2.6913   11.3319   -1.7281 H   0  0  0  0  0  0  0  0  0  0  0  0
    0.2508    8.5783   -1.2390 H   0  0  0  0  0  0  0  0  0  0  0  0
   -0.8835    8.1598   -2.5676 H   0  0  0  0  0  0  0  0  0  0  0  0
   -0.0477    9.7498   -2.5676 H   0  0  0  0  0  0  0  0  0  0  0  0
   -6.9068    8.7372   -2.3034 H   0  0  0  0  0  0  0  0  0  0  0  0
   -7.0617    7.6439   -4.4540 H   0  0  0  0  0  0  0  0  0  0  0  0
   -6.4962    6.0947   -3.7935 H   0  0  0  0  0  0  0  0  0  0  0  0
   -9.2025    6.7258   -4.4628 H   0  0  0  0  0  0  0  0  0  0  0  0
   -8.7266    5.3503   -3.4706 H   0  0  0  0  0  0  0  0  0  0  0  0
   -9.7842    9.2555   -1.9598 H   0  0  0  0  0  0  0  0  0  0  0  0
   -8.7887    8.9910   -3.4314 H   0  0  0  0  0  0  0  0  0  0  0  0
  -10.5284    8.5433   -3.4314 H   0  0  0  0  0  0  0  0  0  0  0  0
  -10.0905    5.4406   -1.4721 H   0  0  0  0  0  0  0  0  0  0  0  0
  -11.3915    6.2274   -3.5522 H   0  0  0  0  0  0  0  0  0  0  0  0
  -12.2544    5.4380   -2.1306 H   0  0  0  0  0  0  0  0  0  0  0  0
  -13.4519    7.5207   -3.2100 H   0  0  0  0  0  0  0  0  0  0  0  0
  -10.9873    9.1415   -0.4543 H   0  0  0  0  0  0  0  0  0  0  0  0
  -13.2065    7.7935    1.2041 H   0  0  0  0  0  0  0  0  0  0  0  0
  -11.7648    8.7028    1.8414 H   0  0  0  0  0  0  0  0  0  0  0  0
  -13.8379   10.0517    1.9298 H   0  0  0  0  0  0  0  0  0  0  0  0
  -12.5803   10.7588    0.8418 H   0  0  0  0  0  0  0  0  0  0  0  0
  -14.7180   10.9367   -0.2347 H   0  0  0  0  0  0  0  0  0  0  0  0
  -15.4340    8.9150    1.0400 H   0  0  0  0  0  0  0  0  0  0  0  0
  -12.3860   11.3841   -1.0646 H   0  0  0  0  0  0  0  0  0  0  0  0
  -11.8943   10.5252   -2.5637 H   0  0  0  0  0  0  0  0  0  0  0  0
  -13.3591   11.5650   -2.5637 H   0  0  0  0  0  0  0  0  0  0  0  0
  -15.7137    9.4426   -2.1068 H   0  0  0  0  0  0  0  0  0  0  0  0
  -14.7451   10.4423   -3.2421 H   0  0  0  0  0  0  0  0  0  0  0  0
  -14.5659    8.6550   -3.2421 H   0  0  0  0  0  0  0  0  0  0  0  0
  -11.4761    6.0704    1.6471 H   0  0  0  0  0  0  0  0  0  0  0  0
  -12.6451    5.9421    0.2894 H   0  0  0  0  0  0  0  0  0  0  0  0
  -11.1550    4.9390    0.2894 H   0  0  0  0  0  0  0  0  0  0  0  0
   -9.8253    8.0987    1.4250 H   0  0  0  0  0  0  0  0  0  0  0  0
   -9.1969    6.3976    1.0421 H   0  0  0  0  0  0  0  0  0  0  0  0
   -8.5522    8.9776   -0.4117 H   0  0  0  0  0  0  0  0  0  0  0  0
   -7.4522    7.9264    0.5639 H   0  0  0  0  0  0  0  0  0  0  0  0
   -7.6045    5.6412    0.2305 H   0  0  0  0  0  0  0  0  0  0  0  0
   -8.3441    4.9441   -1.2506 H   0  0  0  0  0  0  0  0  0  0  0  0
   -6.6123    5.4210   -1.2506 H   0  0  0  0  0  0  0  0  0  0  0  0
  1  2  1  0
  2  3  1  0
  3  4  1  0
  4  5  1  0
  5  6  1  0
  6  7  1  0
  7  8  1  0
  7  9  1  0
  2 10  1  0
 10 11  1  0
 11 12  1  0
 12 13  1  0
 13 14  1  6
 13 15  1  0
 15 16  1  0
 16 17  1  0
 17 18  2  0
 18 19  1  0
 19 20  1  0
 20 21  1  0
 21 22  1  0
 22 23  1  0
 22 24  1  0
 24 25  1  0
 24 26  1  0
 19 27  1  0
 27 28  1  1
 27 29  1  0
 29 30  1  0
 30 31  1  0
 31 32  1  1
  7  5  1  0
 31 10  1  0
 31 13  1  0
 27 15  1  0
 24 18  1  0
  1 33  1  0
  1 34  1  0
  1 35  1  0
  2 36  1  6
  3 37  1  0
  3 38  1  0
  4 39  1  0
  4 40  1  0
  5 41  1  6
  8 42  1  0
  8 43  1  0
  8 44  1  0
  9 45  1  0
  9 46  1  0
  9 47  1  0
 10 48  1  6
 11 49  1  0
 11 50  1  0
 12 51  1  0
 12 52  1  0
 14 53  1  0
 14 54  1  0
 14 55  1  0
 15 56  1  1
 16 57  1  0
 16 58  1  0
 17 59  1  0
 19 60  1  6
 20 61  1  0
 20 62  1  0
 21 63  1  0
 21 64  1  0
 22 65  1  6
 23 66  1  0
 25 67  1  0
 25 68  1  0
 25 69  1  0
 26 70  1  0
 26 71  1  0
 26 72  1  0
 28 73  1  0
 28 74  1  0
 28 75  1  0
 29 76  1  0
 29 77  1  0
 30 78  1  0
 30 79  1  0
 32 80  1  0
 32 81  1  0
 32 82  1  0
M  END
>  <meeko>  (7) 
{"is_sidechain": [false], "intermolecular_energy": 2.731, "internal_energy": -0.839}

$$$$
EPH_relaxed_0001_pdb2pqr_Repair_10_r2_0001_out
     RDKit          3D

 82 86  0  0  0  0  0  0  0  0999 V2000
    0.4340    8.7930   -2.3400 C   0  0  0  0  0  0  0  0  0  0  0  0
    1.1670    9.9320   -3.0540 C   0  0  2  0  0  0  0  0  0  0  0  0
    2.6710    9.9560   -2.7170 C   0  0  0  0  0  0  0  0  0  0  0  0
    3.5350   10.6000   -3.8040 C   0  0  0  0  0  0  0  0  0  0  0  0
    4.9360   10.8400   -3.3290 C   0  0  2  0  0  0  0  0  0  0  0  0
    5.5420   12.0390   -3.8300 O   0  0  0  0  0  0  0  0  0  0  0  0
    6.1470   10.8030   -4.2420 C   0  0  0  0  0  0  0  0  0  0  0  0
    6.0130   10.5170   -5.7050 C   0  0  0  0  0  0  0  0  0  0  0  0
    7.4940   10.5600   -3.6350 C   0  0  0  0  0  0  0  0  0  0  0  0
    0.5300   11.2680   -2.6920 C   0  0  1  0  0  0  0  0  0  0  0  0
   -0.8460   11.1040   -1.9910 C   0  0  0  0  0  0  0  0  0  0  0  0
   -0.9580   12.2480   -0.9520 C   0  0  0  0  0  0  0  0  0  0  0  0
    0.1920   13.2180   -1.3130 C   0  0  1  0  0  0  0  0  0  0  0  0
   -0.3600   14.0700   -2.4990 C   0  0  0  0  0  0  0  0  0  0  0  0
    0.7260   14.1190   -0.1530 C   0  0  2  0  0  0  0  0  0  0  0  0
   -0.3020   15.1000    0.4380 C   0  0  0  0  0  0  0  0  0  0  0  0
   -0.3470   16.4440   -0.2100 C   0  0  0  0  0  0  0  0  0  0  0  0
    0.5930   16.9490   -1.0310 C   0  0  0  0  0  0  0  0  0  0  0  0
    1.8930   16.1810   -1.3050 C   0  0  1  0  0  0  0  0  0  0  0  0
    3.1000   17.1480   -1.1830 C   0  0  0  0  0  0  0  0  0  0  0  0
    2.9530   18.3820   -2.0670 C   0  0  0  0  0  0  0  0  0  0  0  0
    1.6790   19.1500   -1.7250 C   0  0  2  0  0  0  0  0  0  0  0  0
    1.8090   19.6950   -0.4090 O   0  0  0  0  0  0  0  0  0  0  0  0
    0.3970   18.2750   -1.8050 C   0  0  0  0  0  0  0  0  0  0  0  0
    0.0900   17.9340   -3.2840 C   0  0  0  0  0  0  0  0  0  0  0  0
   -0.7970   19.1310   -1.3010 C   0  0  0  0  0  0  0  0  0  0  0  0
    2.0970   14.8430   -0.4730 C   0  0  1  0  0  0  0  0  0  0  0  0
    2.7610   15.1650    0.9010 C   0  0  0  0  0  0  0  0  0  0  0  0
    3.1020   13.9070   -1.2430 C   0  0  0  0  0  0  0  0  0  0  0  0
    2.4980   12.9540   -2.2920 C   0  0  0  0  0  0  0  0  0  0  0  0
    1.3070   12.1840   -1.7140 C   0  0  2  0  0  0  0  0  0  0  0  0
    1.8360   11.3000   -0.5330 C   0  0  0  0  0  0  0  0  0  0  0  0
    0.5202    8.9269   -1.2516 H   0  0  0  0  0  0  0  0  0  0  0  0
   -0.6277    8.8029   -2.6277 H   0  0  0  0  0  0  0  0  0  0  0  0
    0.8829    7.8309   -2.6277 H   0  0  0  0  0  0  0  0  0  0  0  0
    1.0744    9.7578   -4.1362 H   0  0  0  0  0  0  0  0  0  0  0  0
    2.8087   10.5214   -1.7836 H   0  0  0  0  0  0  0  0  0  0  0  0
    2.9967    8.9093   -2.6257 H   0  0  0  0  0  0  0  0  0  0  0  0
    3.5643    9.9327   -4.6780 H   0  0  0  0  0  0  0  0  0  0  0  0
    3.0902   11.5717   -4.0646 H   0  0  0  0  0  0  0  0  0  0  0  0
    4.7196   10.3471   -2.3697 H   0  0  0  0  0  0  0  0  0  0  0  0
    5.5501    9.5290   -5.8446 H   0  0  0  0  0  0  0  0  0  0  0  0
    5.3819   11.2870   -6.1728 H   0  0  0  0  0  0  0  0  0  0  0  0
    7.0085   10.5249   -6.1728 H   0  0  0  0  0  0  0  0  0  0  0  0
    7.4101   10.5751   -2.5383 H   0  0  0  0  0  0  0  0  0  0  0  0
    7.8713    9.5793   -3.9604 H   0  0  0  0  0  0  0  0  0  0  0  0
    8.1902   11.3470   -3.9604 H   0  0  0  0  0  0  0  0  0  0  0  0
    0.4903   11.7296   -3.6897 H   0  0  0  0  0  0  0  0  0  0  0  0
   -1.6584   11.1814   -2.7286 H   0  0  0  0  0  0  0  0  0  0  0  0
   -0.9269   10.1203   -1.5054 H   0  0  0  0  0  0  0  0  0  0  0  0
   -1.9319   12.7529   -1.0339 H   0  0  0  0  0  0  0  0  0  0  0  0
   -0.8843   11.8806    0.0822 H   0  0  0  0  0  0  0  0  0  0  0  0
   -0.9180   14.9313   -2.1032 H   0  0  0  0  0  0  0  0  0  0  0  0
    0.4783   14.4279   -3.1148 H   0  0  0  0  0  0  0  0  0  0  0  0
   -1.0292   13.4511   -3.1148 H   0  0  0  0  0  0  0  0  0  0  0  0
    0.9294   13.3850    0.6406 H   0  0  0  0  0  0  0  0  0  0  0  0
   -1.2989   14.6444    0.3451 H   0  0  0  0  0  0  0  0  0  0  0  0
    0.0076   15.2745    1.4790 H   0  0  0  0  0  0  0  0  0  0  0  0
   -1.2226   17.0755    0.0012 H   0  0  0  0  0  0  0  0  0  0  0  0
    1.8147   15.8088   -2.3371 H   0  0  0  0  0  0  0  0  0  0  0  0
    3.1869   17.4729   -0.1357 H   0  0  0  0  0  0  0  0  0  0  0  0
    3.9974   16.6050   -1.5145 H   0  0  0  0  0  0  0  0  0  0  0  0
    3.8215   19.0395   -1.9144 H   0  0  0  0  0  0  0  0  0  0  0  0
    2.8959   18.0571   -3.1164 H   0  0  0  0  0  0  0  0  0  0  0  0
    1.5619   19.9466   -2.4745 H   0  0  0  0  0  0  0  0  0  0  0  0
    2.3920   19.1050    0.0980 H   0  0  0  0  0  0  0  0  0  0  0  0
   -0.6454   17.1171   -3.3269 H   0  0  0  0  0  0  0  0  0  0  0  0
   -0.3188   18.8223   -3.7878 H   0  0  0  0  0  0  0  0  0  0  0  0
    1.0162   17.6204   -3.7878 H   0  0  0  0  0  0  0  0  0  0  0  0
   -0.8054   19.1370   -0.2010 H   0  0  0  0  0  0  0  0  0  0  0  0
   -0.6923   20.1611   -1.6725 H   0  0  0  0  0  0  0  0  0  0  0  0
   -1.7389   18.7012   -1.6725 H   0  0  0  0  0  0  0  0  0  0  0  0
    2.0950   14.8420    1.7147 H   0  0  0  0  0  0  0  0  0  0  0  0
    3.7200   14.6319    0.9787 H   0  0  0  0  0  0  0  0  0  0  0  0
    2.9363   16.2482    0.9787 H   0  0  0  0  0  0  0  0  0  0  0  0
    3.8291   14.5517   -1.7585 H   0  0  0  0  0  0  0  0  0  0  0  0
    3.5331   13.2512   -0.4723 H   0  0  0  0  0  0  0  0  0  0  0  0
    2.1602   13.5410   -3.1588 H   0  0  0  0  0  0  0  0  0  0  0  0
    3.2698   12.2304   -2.5932 H   0  0  0  0  0  0  0  0  0  0  0  0
    1.5585   11.7638    0.4250 H   0  0  0  0  0  0  0  0  0  0  0  0
    1.3897   10.2967   -0.5976 H   0  0  0  0  0  0  0  0  0  0  0  0
    2.9311   11.2191   -0.5976 H   0  0  0  0  0  0  0  0  0  0  0  0
  1  2  1  0
  2  3  1  0
  3  4  1  0
  4  5  1  0
  5  6  1  0
  6  7  1  0
  7  8  1  0
  7  9  1  0
  2 10  1  0
 10 11  1  0
 11 12  1  0
 12 13  1  0
 13 14  1  6
 13 15  1  0
 15 16  1  0
 16 17  1  0
 17 18  2  0
 18 19  1  0
 19 20  1  0
 20 21  1  0
 21 22  1  0
 22 23  1  0
 22 24  1  0
 24 25  1  0
 24 26  1  0
 19 27  1  0
 27 28  1  1
 27 29  1  0
 29 30  1  0
 30 31  1  0
 31 32  1  1
  7  5  1  0
 31 10  1  0
 31 13  1  0
 27 15  1  0
 24 18  1  0
  1 33  1  0
  1 34  1  0
  1 35  1  0
  2 36  1  6
  3 37  1  0
  3 38  1  0
  4 39  1  0
  4 40  1  0
  5 41  1  1
  8 42  1  0
  8 43  1  0
  8 44  1  0
  9 45  1  0
  9 46  1  0
  9 47  1  0
 10 48  1  6
 11 49  1  0
 11 50  1  0
 12 51  1  0
 12 52  1  0
 14 53  1  0
 14 54  1  0
 14 55  1  0
 15 56  1  1
 16 57  1  0
 16 58  1  0
 17 59  1  0
 19 60  1  6
 20 61  1  0
 20 62  1  0
 21 63  1  0
 21 64  1  0
 22 65  1  6
 23 66  1  0
 25 67  1  0
 25 68  1  0
 25 69  1  0
 26 70  1  0
 26 71  1  0
 26 72  1  0
 28 73  1  0
 28 74  1  0
 28 75  1  0
 29 76  1  0
 29 77  1  0
 30 78  1  0
 30 79  1  0
 32 80  1  0
 32 81  1  0
 32 82  1  0
M  END
>  <meeko>  (8) 
{"is_sidechain": [false], "intermolecular_energy": 2.731, "internal_energy": -0.839}

$$$$
EPH_relaxed_0001_pdb2pqr_Repair_10_r2_0001_out
     RDKit          3D

 82 86  0  0  0  0  0  0  0  0999 V2000
   -0.5700   10.5510   -4.1280 C   0  0  0  0  0  0  0  0  0  0  0  0
    0.7200   10.3900   -3.3200 C   0  0  2  0  0  0  0  0  0  0  0  0
    0.7860    9.0310   -2.5950 C   0  0  0  0  0  0  0  0  0  0  0  0
   -0.5480    8.5960   -1.9810 C   0  0  0  0  0  0  0  0  0  0  0  0
   -0.6360    8.9610   -0.5310 C   0  0  2  0  0  0  0  0  0  0  0  0
   -1.9610    8.9240    0.0160 O   0  0  0  0  0  0  0  0  0  0  0  0
   -1.3280   10.2130   -0.0240 C   0  0  0  0  0  0  0  0  0  0  0  0
   -1.9770   11.1810   -0.9630 C   0  0  0  0  0  0  0  0  0  0  0  0
   -0.9520   10.7420    1.3250 C   0  0  0  0  0  0  0  0  0  0  0  0
    0.8470   11.5260   -2.3120 C   0  0  1  0  0  0  0  0  0  0  0  0
    1.9190   11.2440   -1.2250 C   0  0  0  0  0  0  0  0  0  0  0  0
    2.5740   12.6060   -0.8800 C   0  0  0  0  0  0  0  0  0  0  0  0
    1.6440   13.6610   -1.5230 C   0  0  1  0  0  0  0  0  0  0  0  0
    0.4670   13.8280   -0.5120 C   0  0  0  0  0  0  0  0  0  0  0  0
    2.3000   15.0350   -1.8780 C   0  0  2  0  0  0  0  0  0  0  0  0
    2.8460   15.8270   -0.6770 C   0  0  0  0  0  0  0  0  0  0  0  0
    1.8790   16.7700   -0.0420 C   0  0  0  0  0  0  0  0  0  0  0  0
    0.7200   17.1860   -0.5860 C   0  0  0  0  0  0  0  0  0  0  0  0
    0.3270   16.7760   -2.0110 C   0  0  1  0  0  0  0  0  0  0  0  0
   -0.1750   18.0210   -2.7880 C   0  0  0  0  0  0  0  0  0  0  0  0
   -1.2990   18.7520   -2.0600 C   0  0  0  0  0  0  0  0  0  0  0  0
   -0.8510   19.1940   -0.6690 C   0  0  2  0  0  0  0  0  0  0  0  0
    0.1630   20.1940   -0.8080 O   0  0  0  0  0  0  0  0  0  0  0  0
   -0.3150   18.0250    0.2030 C   0  0  0  0  0  0  0  0  0  0  0  0
   -1.4880   17.0960    0.6050 C   0  0  0  0  0  0  0  0  0  0  0  0
    0.2340   18.6270    1.5240 C   0  0  0  0  0  0  0  0  0  0  0  0
    1.4170   15.9500   -2.8200 C   0  0  1  0  0  0  0  0  0  0  0  0
    2.3980   16.9260   -3.5400 C   0  0  0  0  0  0  0  0  0  0  0  0
    0.7000   15.1260   -3.9540 C   0  0  0  0  0  0  0  0  0  0  0  0
    0.1800   13.7260   -3.5720 C   0  0  0  0  0  0  0  0  0  0  0  0
    1.2630   12.9160   -2.8540 C   0  0  2  0  0  0  0  0  0  0  0  0
    2.4510   12.7130   -3.8550 C   0  0  0  0  0  0  0  0  0  0  0  0
   -1.4223   10.6574   -3.4407 H   0  0  0  0  0  0  0  0  0  0  0  0
   -0.4962   11.4469   -4.7620 H   0  0  0  0  0  0  0  0  0  0  0  0
   -0.7186    9.6644   -4.7620 H   0  0  0  0  0  0  0  0  0  0  0  0
    1.5608   10.4263   -4.0284 H   0  0  0  0  0  0  0  0  0  0  0  0
    1.1009    8.2656   -3.3196 H   0  0  0  0  0  0  0  0  0  0  0  0
    1.5004    9.1429   -1.7661 H   0  0  0  0  0  0  0  0  0  0  0  0
   -1.3678    9.0898   -2.5232 H   0  0  0  0  0  0  0  0  0  0  0  0
   -0.6230    7.5017   -2.0642 H   0  0  0  0  0  0  0  0  0  0  0  0
    0.3627    8.5412   -0.3401 H   0  0  0  0  0  0  0  0  0  0  0  0
   -2.4983   11.9586   -0.3855 H   0  0  0  0  0  0  0  0  0  0  0  0
   -1.2088   11.6481   -1.5968 H   0  0  0  0  0  0  0  0  0  0  0  0
   -2.7008   10.6478   -1.5968 H   0  0  0  0  0  0  0  0  0  0  0  0
   -1.4013   10.1098    2.1050 H   0  0  0  0  0  0  0  0  0  0  0  0
    0.1429   10.7321    1.4306 H   0  0  0  0  0  0  0  0  0  0  0  0
   -1.3213   11.7728    1.4306 H   0  0  0  0  0  0  0  0  0  0  0  0
   -0.1890   11.5610   -1.9439 H   0  0  0  0  0  0  0  0  0  0  0  0
    1.4468   10.8131   -0.3299 H   0  0  0  0  0  0  0  0  0  0  0  0
    2.6689   10.5250   -1.5865 H   0  0  0  0  0  0  0  0  0  0  0  0
    2.6259   12.7469    0.2097 H   0  0  0  0  0  0  0  0  0  0  0  0
    3.6065   12.6782   -1.2524 H   0  0  0  0  0  0  0  0  0  0  0  0
    0.8557   13.7729    0.5156 H   0  0  0  0  0  0  0  0  0  0  0  0
   -0.0160   14.8037   -0.6695 H   0  0  0  0  0  0  0  0  0  0  0  0
   -0.2683   13.0252   -0.6695 H   0  0  0  0  0  0  0  0  0  0  0  0
    3.1817   14.7319   -2.4617 H   0  0  0  0  0  0  0  0  0  0  0  0
    3.1687   15.1051    0.0877 H   0  0  0  0  0  0  0  0  0  0  0  0
    3.6642   16.4488   -1.0693 H   0  0  0  0  0  0  0  0  0  0  0  0
    2.1350   17.1580    0.9550 H   0  0  0  0  0  0  0  0  0  0  0  0
   -0.4910   16.0484   -1.9037 H   0  0  0  0  0  0  0  0  0  0  0  0
    0.6674   18.7153   -2.9233 H   0  0  0  0  0  0  0  0  0  0  0  0
   -0.5730   17.6738   -3.7529 H   0  0  0  0  0  0  0  0  0  0  0  0
   -1.5891   19.6383   -2.6434 H   0  0  0  0  0  0  0  0  0  0  0  0
   -2.1522   18.0661   -1.9527 H   0  0  0  0  0  0  0  0  0  0  0  0
   -1.7347   19.5928   -0.1493 H   0  0  0  0  0  0  0  0  0  0  0  0
    0.5440   20.1060   -1.6990 H   0  0  0  0  0  0  0  0  0  0  0  0
   -1.5547   17.0432    1.7017 H   0  0  0  0  0  0  0  0  0  0  0  0
   -2.4287   17.4967    0.1993 H   0  0  0  0  0  0  0  0  0  0  0  0
   -1.3134   16.0885    0.1993 H   0  0  0  0  0  0  0  0  0  0  0  0
   -0.2311   18.1170    2.3805 H   0  0  0  0  0  0  0  0  0  0  0  0
    1.3247   18.4901    1.5639 H   0  0  0  0  0  0  0  0  0  0  0  0
   -0.0025   19.7005    1.5639 H   0  0  0  0  0  0  0  0  0  0  0  0
    2.9679   17.4930   -2.7892 H   0  0  0  0  0  0  0  0  0  0  0  0
    3.0924   16.3499   -4.1692 H   0  0  0  0  0  0  0  0  0  0  0  0
    1.8255   17.6233   -4.1692 H   0  0  0  0  0  0  0  0  0  0  0  0
   -0.1600   15.7171   -4.3020 H   0  0  0  0  0  0  0  0  0  0  0  0
    1.4746   14.9481   -4.7145 H   0  0  0  0  0  0  0  0  0  0  0  0
   -0.6890   13.8342   -2.9064 H   0  0  0  0  0  0  0  0  0  0  0  0
   -0.1035   13.1941   -4.4922 H   0  0  0  0  0  0  0  0  0  0  0  0
    3.3822   12.5539   -3.2915 H   0  0  0  0  0  0  0  0  0  0  0  0
    2.2512   11.8360   -4.4882 H   0  0  0  0  0  0  0  0  0  0  0  0
    2.5537   13.6066   -4.4882 H   0  0  0  0  0  0  0  0  0  0  0  0
  1  2  1  0
  2  3  1  0
  3  4  1  0
  4  5  1  0
  5  6  1  0
  6  7  1  0
  7  8  1  0
  7  9  1  0
  2 10  1  0
 10 11  1  0
 11 12  1  0
 12 13  1  0
 13 14  1  1
 13 15  1  0
 15 16  1  0
 16 17  1  0
 17 18  2  0
 18 19  1  0
 19 20  1  0
 20 21  1  0
 21 22  1  0
 22 23  1  0
 22 24  1  0
 24 25  1  0
 24 26  1  0
 19 27  1  0
 27 28  1  6
 27 29  1  0
 29 30  1  0
 30 31  1  0
 31 32  1  6
  7  5  1  0
 31 10  1  0
 31 13  1  0
 27 15  1  0
 24 18  1  0
  1 33  1  0
  1 34  1  0
  1 35  1  0
  2 36  1  6
  3 37  1  0
  3 38  1  0
  4 39  1  0
  4 40  1  0
  5 41  1  1
  8 42  1  0
  8 43  1  0
  8 44  1  0
  9 45  1  0
  9 46  1  0
  9 47  1  0
 10 48  1  1
 11 49  1  0
 11 50  1  0
 12 51  1  0
 12 52  1  0
 14 53  1  0
 14 54  1  0
 14 55  1  0
 15 56  1  6
 16 57  1  0
 16 58  1  0
 17 59  1  0
 19 60  1  1
 20 61  1  0
 20 62  1  0
 21 63  1  0
 21 64  1  0
 22 65  1  1
 23 66  1  0
 25 67  1  0
 25 68  1  0
 25 69  1  0
 26 70  1  0
 26 71  1  0
 26 72  1  0
 28 73  1  0
 28 74  1  0
 28 75  1  0
 29 76  1  0
 29 77  1  0
 30 78  1  0
 30 79  1  0
 32 80  1  0
 32 81  1  0
 32 82  1  0
M  END
>  <meeko>  (9) 
{"is_sidechain": [false], "intermolecular_energy": 2.731, "internal_energy": -0.839}

$$$$
EPH_relaxed_0001_pdb2pqr_Repair_10_r2_0001_out
     RDKit          3D

 82 86  0  0  0  0  0  0  0  0999 V2000
    2.4650   19.2220   -0.9400 C   0  0  0  0  0  0  0  0  0  0  0  0
    2.3250   18.2230   -2.0920 C   0  0  2  0  0  0  0  0  0  0  0  0
    0.9270   18.2760   -2.7400 C   0  0  0  0  0  0  0  0  0  0  0  0
    0.1010   19.4970   -2.3240 C   0  0  0  0  0  0  0  0  0  0  0  0
   -1.1590   19.0990   -1.6180 C   0  0  2  0  0  0  0  0  0  0  0  0
   -2.0090   20.1930   -1.2470 O   0  0  0  0  0  0  0  0  0  0  0  0
   -1.4460   19.4310   -0.1660 C   0  0  0  0  0  0  0  0  0  0  0  0
   -0.4640   20.1930    0.6690 C   0  0  0  0  0  0  0  0  0  0  0  0
   -2.4490   18.6020    0.5740 C   0  0  0  0  0  0  0  0  0  0  0  0
    2.6140   16.8120   -1.5950 C   0  0  1  0  0  0  0  0  0  0  0  0
    3.3840   16.8000   -0.2470 C   0  0  0  0  0  0  0  0  0  0  0  0
    2.8700   15.5740    0.5510 C   0  0  0  0  0  0  0  0  0  0  0  0
    2.0770   14.7400   -0.4830 C   0  0  1  0  0  0  0  0  0  0  0  0
    3.1610   13.9350   -1.2660 C   0  0  0  0  0  0  0  0  0  0  0  0
    0.9650   13.8030    0.0910 C   0  0  2  0  0  0  0  0  0  0  0  0
    1.4680   12.6940    1.0310 C   0  0  0  0  0  0  0  0  0  0  0  0
    1.8170   11.4040    0.3650 C   0  0  0  0  0  0  0  0  0  0  0  0
    1.4660   11.0490   -0.8850 C   0  0  0  0  0  0  0  0  0  0  0  0
    0.5560   11.9470   -1.7320 C   0  0  1  0  0  0  0  0  0  0  0  0
   -0.5510   11.0840   -2.3950 C   0  0  0  0  0  0  0  0  0  0  0  0
    0.0180    9.9130   -3.1900 C   0  0  0  0  0  0  0  0  0  0  0  0
    0.8690    9.0120   -2.3000 C   0  0  2  0  0  0  0  0  0  0  0  0
    0.0210    8.3810   -1.3350 O   0  0  0  0  0  0  0  0  0  0  0  0
    2.0120    9.7730   -1.5720 C   0  0  0  0  0  0  0  0  0  0  0  0
    3.0910   10.1970   -2.5980 C   0  0  0  0  0  0  0  0  0  0  0  0
    2.7050    8.7790   -0.6000 C   0  0  0  0  0  0  0  0  0  0  0  0
   -0.0280   13.2310   -1.0000 C   0  0  1  0  0  0  0  0  0  0  0  0
   -1.3470   12.8640   -0.2540 C   0  0  0  0  0  0  0  0  0  0  0  0
   -0.4140   14.3080   -2.0810 C   0  0  0  0  0  0  0  0  0  0  0  0
    0.6970   15.2810   -2.5200 C   0  0  0  0  0  0  0  0  0  0  0  0
    1.3990   15.8960   -1.3060 C   0  0  2  0  0  0  0  0  0  0  0  0
    0.3370   16.7300   -0.5110 C   0  0  0  0  0  0  0  0  0  0  0  0
    2.3902   18.6885    0.0191 H   0  0  0  0  0  0  0  0  0  0  0  0
    3.4421   19.7229   -1.0058 H   0  0  0  0  0  0  0  0  0  0  0  0
    1.6632   19.9722   -1.0058 H   0  0  0  0  0  0  0  0  0  0  0  0
    3.0578   18.5033   -2.8630 H   0  0  0  0  0  0  0  0  0  0  0  0
    1.0514   18.2969   -3.8327 H   0  0  0  0  0  0  0  0  0  0  0  0
    0.3797   17.3857   -2.3966 H   0  0  0  0  0  0  0  0  0  0  0  0
    0.7046   20.1230   -1.6504 H   0  0  0  0  0  0  0  0  0  0  0  0
   -0.1756   20.0501   -3.2337 H   0  0  0  0  0  0  0  0  0  0  0  0
   -1.2038   18.1553   -2.1814 H   0  0  0  0  0  0  0  0  0  0  0  0
   -0.6804   20.0251    1.7343 H   0  0  0  0  0  0  0  0  0  0  0  0
    0.5555   19.8473    0.4430 H   0  0  0  0  0  0  0  0  0  0  0  0
   -0.5457   21.2664    0.4430 H   0  0  0  0  0  0  0  0  0  0  0  0
   -2.2995   18.7256    1.6568 H   0  0  0  0  0  0  0  0  0  0  0  0
   -3.4645   18.9279    0.3045 H   0  0  0  0  0  0  0  0  0  0  0  0
   -2.3201   17.5433    0.3045 H   0  0  0  0  0  0  0  0  0  0  0  0
    3.1790   16.4257   -2.4561 H   0  0  0  0  0  0  0  0  0  0  0  0
    4.4649   16.7074   -0.4290 H   0  0  0  0  0  0  0  0  0  0  0  0
    3.2171   17.7329    0.3114 H   0  0  0  0  0  0  0  0  0  0  0  0
    3.7120   14.9928    0.9550 H   0  0  0  0  0  0  0  0  0  0  0  0
    2.2524   15.8664    1.4130 H   0  0  0  0  0  0  0  0  0  0  0  0
    3.8333   13.4357   -0.5528 H   0  0  0  0  0  0  0  0  0  0  0  0
    2.6713   13.1799   -1.8985 H   0  0  0  0  0  0  0  0  0  0  0  0
    3.7423   14.6220   -1.8985 H   0  0  0  0  0  0  0  0  0  0  0  0
    0.3821   14.4886    0.7235 H   0  0  0  0  0  0  0  0  0  0  0  0
    2.3669   13.0655    1.5448 H   0  0  0  0  0  0  0  0  0  0  0  0
    0.6333   12.4695    1.7113 H   0  0  0  0  0  0  0  0  0  0  0  0
    2.4113   10.6827    0.9450 H   0  0  0  0  0  0  0  0  0  0  0  0
    1.2004   12.3881   -2.5068 H   0  0  0  0  0  0  0  0  0  0  0  0
   -1.2092   10.6888   -1.6072 H   0  0  0  0  0  0  0  0  0  0  0  0
   -1.1012   11.7281   -3.0967 H   0  0  0  0  0  0  0  0  0  0  0  0
   -0.8120    9.3250   -3.6088 H   0  0  0  0  0  0  0  0  0  0  0  0
    0.6524   10.3109   -3.9958 H   0  0  0  0  0  0  0  0  0  0  0  0
    1.3517    8.2681   -2.9509 H   0  0  0  0  0  0  0  0  0  0  0  0
    0.4840    7.5930   -1.0060 H   0  0  0  0  0  0  0  0  0  0  0  0
    3.9863   10.5488   -2.0644 H   0  0  0  0  0  0  0  0  0  0  0  0
    3.3552    9.3358   -3.2293 H   0  0  0  0  0  0  0  0  0  0  0  0
    2.6982   11.0077   -3.2293 H   0  0  0  0  0  0  0  0  0  0  0  0
    2.4974    9.0767    0.4384 H   0  0  0  0  0  0  0  0  0  0  0  0
    2.3174    7.7646   -0.7751 H   0  0  0  0  0  0  0  0  0  0  0  0
    3.7909    8.7919   -0.7751 H   0  0  0  0  0  0  0  0  0  0  0  0
   -1.1791   12.9107    0.8321 H   0  0  0  0  0  0  0  0  0  0  0  0
   -2.1370   13.5765   -0.5339 H   0  0  0  0  0  0  0  0  0  0  0  0
   -1.6555   11.8459   -0.5339 H   0  0  0  0  0  0  0  0  0  0  0  0
   -0.7594   13.7713   -2.9769 H   0  0  0  0  0  0  0  0  0  0  0  0
   -1.1754   14.9391   -1.5994 H   0  0  0  0  0  0  0  0  0  0  0  0
    1.4360   14.7342   -3.1241 H   0  0  0  0  0  0  0  0  0  0  0  0
    0.2412   16.0907   -3.1087 H   0  0  0  0  0  0  0  0  0  0  0  0
    0.5023   16.6002    0.5687 H   0  0  0  0  0  0  0  0  0  0  0  0
    0.4363   17.7940   -0.7718 H   0  0  0  0  0  0  0  0  0  0  0  0
   -0.6731   16.3813   -0.7718 H   0  0  0  0  0  0  0  0  0  0  0  0
  1  2  1  0
  2  3  1  0
  3  4  1  0
  4  5  1  0
  5  6  1  0
  6  7  1  0
  7  8  1  0
  7  9  1  0
  2 10  1  0
 10 11  1  0
 11 12  1  0
 12 13  1  0
 13 14  1  6
 13 15  1  0
 15 16  1  0
 16 17  1  0
 17 18  2  0
 18 19  1  0
 19 20  1  0
 20 21  1  0
 21 22  1  0
 22 23  1  0
 22 24  1  0
 24 25  1  0
 24 26  1  0
 19 27  1  0
 27 28  1  1
 27 29  1  0
 29 30  1  0
 30 31  1  0
 31 32  1  1
  7  5  1  0
 31 10  1  0
 31 13  1  0
 27 15  1  0
 24 18  1  0
  1 33  1  0
  1 34  1  0
  1 35  1  0
  2 36  1  6
  3 37  1  0
  3 38  1  0
  4 39  1  0
  4 40  1  0
  5 41  1  6
  8 42  1  0
  8 43  1  0
  8 44  1  0
  9 45  1  0
  9 46  1  0
  9 47  1  0
 10 48  1  6
 11 49  1  0
 11 50  1  0
 12 51  1  0
 12 52  1  0
 14 53  1  0
 14 54  1  0
 14 55  1  0
 15 56  1  1
 16 57  1  0
 16 58  1  0
 17 59  1  0
 19 60  1  6
 20 61  1  0
 20 62  1  0
 21 63  1  0
 21 64  1  0
 22 65  1  6
 23 66  1  0
 25 67  1  0
 25 68  1  0
 25 69  1  0
 26 70  1  0
 26 71  1  0
 26 72  1  0
 28 73  1  0
 28 74  1  0
 28 75  1  0
 29 76  1  0
 29 77  1  0
 30 78  1  0
 30 79  1  0
 32 80  1  0
 32 81  1  0
 32 82  1  0
M  END
>  <meeko>  (10) 
{"is_sidechain": [false], "intermolecular_energy": 2.731, "internal_energy": -0.839}

$$$$
EPH_relaxed_0001_pdb2pqr_Repair_10_r2_0001_out
     RDKit          3D

 82 86  0  0  0  0  0  0  0  0999 V2000
   -5.0010    8.7010   -0.1930 C   0  0  0  0  0  0  0  0  0  0  0  0
   -5.2620    7.6110   -1.2360 C   0  0  2  0  0  0  0  0  0  0  0  0
   -4.2070    7.6190   -2.3610 C   0  0  0  0  0  0  0  0  0  0  0  0
   -2.7640    7.6780   -1.8510 C   0  0  0  0  0  0  0  0  0  0  0  0
   -2.0830    8.9480   -2.2620 C   0  0  2  0  0  0  0  0  0  0  0  0
   -0.6630    8.9560   -2.0670 O   0  0  0  0  0  0  0  0  0  0  0  0
   -1.4160    9.8950   -1.2820 C   0  0  0  0  0  0  0  0  0  0  0  0
   -1.3980    9.6120    0.1880 C   0  0  0  0  0  0  0  0  0  0  0  0
   -1.2130   11.3210   -1.6890 C   0  0  0  0  0  0  0  0  0  0  0  0
   -6.6560    7.7820   -1.8290 C   0  0  1  0  0  0  0  0  0  0  0  0
   -6.8040    7.1010   -3.2150 C   0  0  0  0  0  0  0  0  0  0  0  0
   -8.2550    6.5610   -3.2960 C   0  0  0  0  0  0  0  0  0  0  0  0
   -8.9870    7.2310   -2.1100 C   0  0  1  0  0  0  0  0  0  0  0  0
   -9.3550    8.6590   -2.6210 C   0  0  0  0  0  0  0  0  0  0  0  0
  -10.2380    6.4760   -1.5540 C   0  0  2  0  0  0  0  0  0  0  0  0
  -11.3970    6.3120   -2.5520 C   0  0  0  0  0  0  0  0  0  0  0  0
  -12.4070    7.4120   -2.5430 C   0  0  0  0  0  0  0  0  0  0  0  0
  -12.5430    8.3410   -1.5790 C   0  0  0  0  0  0  0  0  0  0  0  0
  -11.6910    8.2840   -0.3040 C   0  0  1  0  0  0  0  0  0  0  0  0
  -12.5970    8.5020    0.9350 C   0  0  0  0  0  0  0  0  0  0  0  0
  -13.4200    9.7840    0.8400 C   0  0  0  0  0  0  0  0  0  0  0  0
  -14.2970    9.7770   -0.4090 C   0  0  2  0  0  0  0  0  0  0  0  0
  -15.2870    8.7540   -0.2720 O   0  0  0  0  0  0  0  0  0  0  0  0
  -13.4930    9.5550   -1.7210 C   0  0  0  0  0  0  0  0  0  0  0  0
  -12.6370   10.8090   -2.0260 C   0  0  0  0  0  0  0  0  0  0  0  0
  -14.5100    9.4290   -2.8880 C   0  0  0  0  0  0  0  0  0  0  0  0
  -10.7500    7.0110   -0.1560 C   0  0  1  0  0  0  0  0  0  0  0  0
  -11.5390    5.8410    0.5070 C   0  0  0  0  0  0  0  0  0  0  0  0
   -9.5660    7.3580    0.8220 C   0  0  0  0  0  0  0  0  0  0  0  0
   -8.3100    7.9930    0.1950 C   0  0  0  0  0  0  0  0  0  0  0  0
   -7.8460    7.1970   -1.0280 C   0  0  2  0  0  0  0  0  0  0  0  0
   -7.4470    5.7620   -0.5420 C   0  0  0  0  0  0  0  0  0  0  0  0
   -5.1030    8.2750    0.8160 H   0  0  0  0  0  0  0  0  0  0  0  0
   -3.9828    9.0964   -0.3228 H   0  0  0  0  0  0  0  0  0  0  0  0
   -5.7297    9.5147   -0.3228 H   0  0  0  0  0  0  0  0  0  0  0  0
   -5.1919    6.6399   -0.7241 H   0  0  0  0  0  0  0  0  0  0  0  0
   -4.3276    6.7022   -2.9568 H   0  0  0  0  0  0  0  0  0  0  0  0
   -4.3760    8.5300   -2.9539 H   0  0  0  0  0  0  0  0  0  0  0  0
   -2.7712    7.6165   -0.7527 H   0  0  0  0  0  0  0  0  0  0  0  0
   -2.2104    6.8345   -2.2892 H   0  0  0  0  0  0  0  0  0  0  0  0
   -2.8211    9.1127   -3.0608 H   0  0  0  0  0  0  0  0  0  0  0  0
   -1.4582   10.5590    0.7445 H   0  0  0  0  0  0  0  0  0  0  0  0
   -2.2576    8.9775    0.4498 H   0  0  0  0  0  0  0  0  0  0  0  0
   -0.4649    9.0916    0.4498 H   0  0  0  0  0  0  0  0  0  0  0  0
   -1.1235   11.9495   -0.7907 H   0  0  0  0  0  0  0  0  0  0  0  0
   -0.2940   11.4042   -2.2877 H   0  0  0  0  0  0  0  0  0  0  0  0
   -2.0723   11.6573   -2.2877 H   0  0  0  0  0  0  0  0  0  0  0  0
   -6.7161    8.8803   -1.8439 H   0  0  0  0  0  0  0  0  0  0  0  0
   -6.6268    7.8325   -4.0172 H   0  0  0  0  0  0  0  0  0  0  0  0
   -6.0729    6.2879   -3.3354 H   0  0  0  0  0  0  0  0  0  0  0  0
   -8.7221    6.8443   -4.2507 H   0  0  0  0  0  0  0  0  0  0  0  0
   -8.2951    5.4629   -3.2445 H   0  0  0  0  0  0  0  0  0  0  0  0
   -9.5262    9.3233   -1.7611 H   0  0  0  0  0  0  0  0  0  0  0  0
   -8.5294    9.0542   -3.2310 H   0  0  0  0  0  0  0  0  0  0  0  0
  -10.2688    8.6060   -3.2310 H   0  0  0  0  0  0  0  0  0  0  0  0
   -9.8453    5.4628   -1.3828 H   0  0  0  0  0  0  0  0  0  0  0  0
  -10.9687    6.2521   -3.5634 H   0  0  0  0  0  0  0  0  0  0  0  0
  -11.9350    5.4024   -2.2468 H   0  0  0  0  0  0  0  0  0  0  0  0
  -13.0984    7.4676   -3.3968 H   0  0  0  0  0  0  0  0  0  0  0  0
  -10.9666    9.1078   -0.3852 H   0  0  0  0  0  0  0  0  0  0  0  0
  -13.2841    7.6477    1.0241 H   0  0  0  0  0  0  0  0  0  0  0  0
  -11.9433    8.5893    1.8154 H   0  0  0  0  0  0  0  0  0  0  0  0
  -14.0613    9.8670    1.7299 H   0  0  0  0  0  0  0  0  0  0  0  0
  -12.7316   10.6400    0.7812 H   0  0  0  0  0  0  0  0  0  0  0  0
  -14.7621   10.7705   -0.4908 H   0  0  0  0  0  0  0  0  0  0  0  0
  -15.9880    8.9340   -0.9210 H   0  0  0  0  0  0  0  0  0  0  0  0
  -12.3192   11.2746   -1.0814 H   0  0  0  0  0  0  0  0  0  0  0  0
  -11.7501   10.5152   -2.6066 H   0  0  0  0  0  0  0  0  0  0  0  0
  -13.2337   11.5279   -2.6066 H   0  0  0  0  0  0  0  0  0  0  0  0
  -15.5235    9.3034   -2.4792 H   0  0  0  0  0  0  0  0  0  0  0  0
  -14.4739   10.3385   -3.5057 H   0  0  0  0  0  0  0  0  0  0  0  0
  -14.2530    8.5558   -3.5057 H   0  0  0  0  0  0  0  0  0  0  0  0
  -11.4780    5.9315    1.6016 H   0  0  0  0  0  0  0  0  0  0  0  0
  -12.5925    5.8852    0.1936 H   0  0  0  0  0  0  0  0  0  0  0  0
  -11.1032    4.8809    0.1936 H   0  0  0  0  0  0  0  0  0  0  0  0
   -9.9522    8.0594    1.5763 H   0  0  0  0  0  0  0  0  0  0  0  0
   -9.2299    6.3899    1.2217 H   0  0  0  0  0  0  0  0  0  0  0  0
   -8.5431    9.0229   -0.1132 H   0  0  0  0  0  0  0  0  0  0  0  0
   -7.5037    7.9882    0.9432 H   0  0  0  0  0  0  0  0  0  0  0  0
   -7.4398    5.7361    0.5577 H   0  0  0  0  0  0  0  0  0  0  0  0
   -8.1758    5.0306   -0.9212 H   0  0  0  0  0  0  0  0  0  0  0  0
   -6.4452    5.5118   -0.9212 H   0  0  0  0  0  0  0  0  0  0  0  0
  1  2  1  0
  2  3  1  0
  3  4  1  0
  4  5  1  0
  5  6  1  0
  6  7  1  0
  7  8  1  0
  7  9  1  0
  2 10  1  0
 10 11  1  0
 11 12  1  0
 12 13  1  0
 13 14  1  6
 13 15  1  0
 15 16  1  0
 16 17  1  0
 17 18  2  0
 18 19  1  0
 19 20  1  0
 20 21  1  0
 21 22  1  0
 22 23  1  0
 22 24  1  0
 24 25  1  0
 24 26  1  0
 19 27  1  0
 27 28  1  1
 27 29  1  0
 29 30  1  0
 30 31  1  0
 31 32  1  1
  7  5  1  0
 31 10  1  0
 31 13  1  0
 27 15  1  0
 24 18  1  0
  1 33  1  0
  1 34  1  0
  1 35  1  0
  2 36  1  1
  3 37  1  0
  3 38  1  0
  4 39  1  0
  4 40  1  0
  5 41  1  6
  8 42  1  0
  8 43  1  0
  8 44  1  0
  9 45  1  0
  9 46  1  0
  9 47  1  0
 10 48  1  6
 11 49  1  0
 11 50  1  0
 12 51  1  0
 12 52  1  0
 14 53  1  0
 14 54  1  0
 14 55  1  0
 15 56  1  1
 16 57  1  0
 16 58  1  0
 17 59  1  0
 19 60  1  6
 20 61  1  0
 20 62  1  0
 21 63  1  0
 21 64  1  0
 22 65  1  6
 23 66  1  0
 25 67  1  0
 25 68  1  0
 25 69  1  0
 26 70  1  0
 26 71  1  0
 26 72  1  0
 28 73  1  0
 28 74  1  0
 28 75  1  0
 29 76  1  0
 29 77  1  0
 30 78  1  0
 30 79  1  0
 32 80  1  0
 32 81  1  0
 32 82  1  0
M  END
>  <meeko>  (11) 
{"is_sidechain": [false], "intermolecular_energy": 2.731, "internal_energy": -0.839}

$$$$
EPH_relaxed_0001_pdb2pqr_Repair_10_r2_0001_out
     RDKit          3D

 82 86  0  0  0  0  0  0  0  0999 V2000
    0.0520    9.4310   -2.6530 C   0  0  0  0  0  0  0  0  0  0  0  0
    1.1530   10.4300   -3.0210 C   0  0  2  0  0  0  0  0  0  0  0  0
    2.5460    9.7680   -3.0670 C   0  0  0  0  0  0  0  0  0  0  0  0
    3.5290   10.4680   -4.0090 C   0  0  0  0  0  0  0  0  0  0  0  0
    4.8880   10.6030   -3.3920 C   0  0  2  0  0  0  0  0  0  0  0  0
    5.5040   11.8850   -3.5740 O   0  0  0  0  0  0  0  0  0  0  0  0
    6.1610   10.7710   -4.2000 C   0  0  0  0  0  0  0  0  0  0  0  0
    6.1360   10.8130   -5.6960 C   0  0  0  0  0  0  0  0  0  0  0  0
    7.4660   10.4050   -3.5640 C   0  0  0  0  0  0  0  0  0  0  0  0
    1.1590   11.5870   -2.0290 C   0  0  1  0  0  0  0  0  0  0  0  0
    2.2190   11.4090   -0.9090 C   0  0  0  0  0  0  0  0  0  0  0  0
    2.7520   12.8240   -0.5690 C   0  0  0  0  0  0  0  0  0  0  0  0
    1.7590   13.7910   -1.2560 C   0  0  1  0  0  0  0  0  0  0  0  0
    0.5430   13.8770   -0.2800 C   0  0  0  0  0  0  0  0  0  0  0  0
    2.3110   15.2080   -1.6160 C   0  0  2  0  0  0  0  0  0  0  0  0
    2.7570   16.0600   -0.4150 C   0  0  0  0  0  0  0  0  0  0  0  0
    1.6990   16.9310    0.1770 C   0  0  0  0  0  0  0  0  0  0  0  0
    0.5270   17.2430   -0.4050 C   0  0  0  0  0  0  0  0  0  0  0  0
    0.2090   16.7810   -1.8330 C   0  0  1  0  0  0  0  0  0  0  0  0
   -0.3690   17.9700   -2.6450 C   0  0  0  0  0  0  0  0  0  0  0  0
   -1.5690   18.6180   -1.9610 C   0  0  0  0  0  0  0  0  0  0  0  0
   -1.1980   19.1160   -0.5660 C   0  0  2  0  0  0  0  0  0  0  0  0
   -0.2650   20.1930   -0.6940 O   0  0  0  0  0  0  0  0  0  0  0  0
   -0.5950   18.0070    0.3410 C   0  0  0  0  0  0  0  0  0  0  0  0
   -1.7000   16.9920    0.7260 C   0  0  0  0  0  0  0  0  0  0  0  0
   -0.1350   18.6710    1.6660 C   0  0  0  0  0  0  0  0  0  0  0  0
    1.3850   16.0340   -2.5980 C   0  0  1  0  0  0  0  0  0  0  0  0
    2.3040   17.0760   -3.3070 C   0  0  0  0  0  0  0  0  0  0  0  0
    0.7690   15.1380   -3.7370 C   0  0  0  0  0  0  0  0  0  0  0  0
    0.3530   13.7070   -3.3460 C   0  0  0  0  0  0  0  0  0  0  0  0
    1.4770   12.9980   -2.5840 C   0  0  2  0  0  0  0  0  0  0  0  0
    2.7060   12.8770   -3.5480 C   0  0  0  0  0  0  0  0  0  0  0  0
   -0.0270    9.3593   -1.5582 H   0  0  0  0  0  0  0  0  0  0  0  0
   -0.9074    9.7733   -3.0683 H   0  0  0  0  0  0  0  0  0  0  0  0
    0.2997    8.4430   -3.0683 H   0  0  0  0  0  0  0  0  0  0  0  0
    0.9329   10.8076   -4.0305 H   0  0  0  0  0  0  0  0  0  0  0  0
    2.9697    9.7795   -2.0519 H   0  0  0  0  0  0  0  0  0  0  0  0
    2.4043    8.7470   -3.4510 H   0  0  0  0  0  0  0  0  0  0  0  0
    3.6148    9.8807   -4.9351 H   0  0  0  0  0  0  0  0  0  0  0  0
    3.1450   11.4777   -4.2164 H   0  0  0  0  0  0  0  0  0  0  0  0
    4.6143    9.9112   -2.5818 H   0  0  0  0  0  0  0  0  0  0  0  0
    5.5997   11.7140   -6.0286 H   0  0  0  0  0  0  0  0  0  0  0  0
    7.1667   10.8373   -6.0794 H   0  0  0  0  0  0  0  0  0  0  0  0
    5.6232    9.9186   -6.0794 H   0  0  0  0  0  0  0  0  0  0  0  0
    7.3614   10.4343   -2.4694 H   0  0  0  0  0  0  0  0  0  0  0  0
    7.7552    9.3911   -3.8777 H   0  0  0  0  0  0  0  0  0  0  0  0
    8.2402   11.1207   -3.8777 H   0  0  0  0  0  0  0  0  0  0  0  0
    0.1138   11.5433   -1.6890 H   0  0  0  0  0  0  0  0  0  0  0  0
    1.7579   10.9541   -0.0199 H   0  0  0  0  0  0  0  0  0  0  0  0
    3.0345   10.7483   -1.2383 H   0  0  0  0  0  0  0  0  0  0  0  0
    2.7604   12.9846    0.5192 H   0  0  0  0  0  0  0  0  0  0  0  0
    3.7859   12.9740   -0.9133 H   0  0  0  0  0  0  0  0  0  0  0  0
    0.9040   13.8515    0.7587 H   0  0  0  0  0  0  0  0  0  0  0  0
   -0.0024   14.8160   -0.4556 H   0  0  0  0  0  0  0  0  0  0  0  0
   -0.1292   13.0241   -0.4556 H   0  0  0  0  0  0  0  0  0  0  0  0
    3.2308   14.9683   -2.1697 H   0  0  0  0  0  0  0  0  0  0  0  0
    3.1153   15.3786    0.3707 H   0  0  0  0  0  0  0  0  0  0  0  0
    3.5331   16.7401   -0.7959 H   0  0  0  0  0  0  0  0  0  0  0  0
    1.8943   17.3535    1.1737 H   0  0  0  0  0  0  0  0  0  0  0  0
   -0.5505   15.9913   -1.7353 H   0  0  0  0  0  0  0  0  0  0  0  0
    0.4182   18.7283   -2.7685 H   0  0  0  0  0  0  0  0  0  0  0  0
   -0.7094   17.5777   -3.6146 H   0  0  0  0  0  0  0  0  0  0  0  0
   -1.9130   19.4688   -2.5674 H   0  0  0  0  0  0  0  0  0  0  0  0
   -2.3668   17.8668   -1.8652 H   0  0  0  0  0  0  0  0  0  0  0  0
   -2.1255   19.4497   -0.0778 H   0  0  0  0  0  0  0  0  0  0  0  0
    0.2020   20.0780   -1.5400 H   0  0  0  0  0  0  0  0  0  0  0  0
   -1.7717   16.9261    1.8217 H   0  0  0  0  0  0  0  0  0  0  0  0
   -2.6641   17.3260    0.3149 H   0  0  0  0  0  0  0  0  0  0  0  0
   -1.4489   16.0031    0.3149 H   0  0  0  0  0  0  0  0  0  0  0  0
   -0.5306   18.1000    2.5189 H   0  0  0  0  0  0  0  0  0  0  0  0
    0.9641   18.6804    1.7092 H   0  0  0  0  0  0  0  0  0  0  0  0
   -0.5125   19.7033    1.7092 H   0  0  0  0  0  0  0  0  0  0  0  0
    2.8318   17.6745   -2.5499 H   0  0  0  0  0  0  0  0  0  0  0  0
    3.0377   16.5501   -3.9355 H   0  0  0  0  0  0  0  0  0  0  0  0
    1.6905   17.7383   -3.9355 H   0  0  0  0  0  0  0  0  0  0  0  0
   -0.1256   15.6523   -4.1180 H   0  0  0  0  0  0  0  0  0  0  0  0
    1.5767   15.0122   -4.4731 H   0  0  0  0  0  0  0  0  0  0  0  0
   -0.5410   13.7541   -2.7068 H   0  0  0  0  0  0  0  0  0  0  0  0
    0.1403   13.1403   -4.2645 H   0  0  0  0  0  0  0  0  0  0  0  0
    3.6287   12.7862   -2.9561 H   0  0  0  0  0  0  0  0  0  0  0  0
    2.5881   11.9861   -4.1824 H   0  0  0  0  0  0  0  0  0  0  0  0
    2.7641   13.7738   -4.1824 H   0  0  0  0  0  0  0  0  0  0  0  0
  1  2  1  0
  2  3  1  0
  3  4  1  0
  4  5  1  0
  5  6  1  0
  6  7  1  0
  7  8  1  0
  7  9  1  0
  2 10  1  0
 10 11  1  0
 11 12  1  0
 12 13  1  0
 13 14  1  1
 13 15  1  0
 15 16  1  0
 16 17  1  0
 17 18  2  0
 18 19  1  0
 19 20  1  0
 20 21  1  0
 21 22  1  0
 22 23  1  0
 22 24  1  0
 24 25  1  0
 24 26  1  0
 19 27  1  0
 27 28  1  6
 27 29  1  0
 29 30  1  0
 30 31  1  0
 31 32  1  6
  7  5  1  0
 31 10  1  0
 31 13  1  0
 27 15  1  0
 24 18  1  0
  1 33  1  0
  1 34  1  0
  1 35  1  0
  2 36  1  6
  3 37  1  0
  3 38  1  0
  4 39  1  0
  4 40  1  0
  5 41  1  1
  8 42  1  0
  8 43  1  0
  8 44  1  0
  9 45  1  0
  9 46  1  0
  9 47  1  0
 10 48  1  1
 11 49  1  0
 11 50  1  0
 12 51  1  0
 12 52  1  0
 14 53  1  0
 14 54  1  0
 14 55  1  0
 15 56  1  6
 16 57  1  0
 16 58  1  0
 17 59  1  0
 19 60  1  1
 20 61  1  0
 20 62  1  0
 21 63  1  0
 21 64  1  0
 22 65  1  1
 23 66  1  0
 25 67  1  0
 25 68  1  0
 25 69  1  0
 26 70  1  0
 26 71  1  0
 26 72  1  0
 28 73  1  0
 28 74  1  0
 28 75  1  0
 29 76  1  0
 29 77  1  0
 30 78  1  0
 30 79  1  0
 32 80  1  0
 32 81  1  0
 32 82  1  0
M  END
>  <meeko>  (12) 
{"is_sidechain": [false], "intermolecular_energy": 2.731, "internal_energy": -0.839}

$$$$
EPH_relaxed_0001_pdb2pqr_Repair_10_r2_0001_out
     RDKit          3D

 82 86  0  0  0  0  0  0  0  0999 V2000
   -3.7480    7.2050   -3.4570 C   0  0  0  0  0  0  0  0  0  0  0  0
   -3.7800    7.2830   -1.9280 C   0  0  2  0  0  0  0  0  0  0  0  0
   -5.1990    7.0670   -1.3660 C   0  0  0  0  0  0  0  0  0  0  0  0
   -6.3130    7.3750   -2.3710 C   0  0  0  0  0  0  0  0  0  0  0  0
   -7.6380    7.5490   -1.6930 C   0  0  2  0  0  0  0  0  0  0  0  0
   -8.1740    6.3540   -1.1100 O   0  0  0  0  0  0  0  0  0  0  0  0
   -8.9240    6.9200   -2.1960 C   0  0  0  0  0  0  0  0  0  0  0  0
   -8.9470    6.0700   -3.4280 C   0  0  0  0  0  0  0  0  0  0  0  0
  -10.2280    7.5250   -1.7780 C   0  0  0  0  0  0  0  0  0  0  0  0
   -3.2350    8.6280   -1.4650 C   0  0  1  0  0  0  0  0  0  0  0  0
   -3.8600    9.0960   -0.1240 C   0  0  0  0  0  0  0  0  0  0  0  0
   -2.7480    9.8490    0.6500 C   0  0  0  0  0  0  0  0  0  0  0  0
   -1.6320   10.0780   -0.3960 C   0  0  1  0  0  0  0  0  0  0  0  0
   -2.0910   11.3310   -1.2050 C   0  0  0  0  0  0  0  0  0  0  0  0
   -0.1830   10.2530    0.1660 C   0  0  2  0  0  0  0  0  0  0  0  0
    0.0200   11.4770    1.0770 C   0  0  0  0  0  0  0  0  0  0  0  0
    0.4410   12.7280    0.3790 C   0  0  0  0  0  0  0  0  0  0  0  0
    0.9230   12.7990   -0.8760 C   0  0  0  0  0  0  0  0  0  0  0  0
    1.1770   11.5280   -1.6950 C   0  0  1  0  0  0  0  0  0  0  0  0
    2.5720   11.6160   -2.3680 C   0  0  0  0  0  0  0  0  0  0  0  0
    2.7450   12.8870   -3.1940 C   0  0  0  0  0  0  0  0  0  0  0  0
    2.5420   14.1290   -2.3310 C   0  0  2  0  0  0  0  0  0  0  0  0
    3.6030   14.2050   -1.3750 O   0  0  0  0  0  0  0  0  0  0  0  0
    1.1730   14.1480   -1.5950 C   0  0  0  0  0  0  0  0  0  0  0  0
    0.0340   14.3700   -2.6210 C   0  0  0  0  0  0  0  0  0  0  0  0
    1.1540   15.3810   -0.6520 C   0  0  0  0  0  0  0  0  0  0  0  0
    0.9540   10.1530   -0.9300 C   0  0  1  0  0  0  0  0  0  0  0  0
    2.2590    9.7430   -0.1810 C   0  0  0  0  0  0  0  0  0  0  0  0
    0.6710    9.0180   -1.9840 C   0  0  0  0  0  0  0  0  0  0  0  0
   -0.7960    8.8150   -2.4090 C   0  0  0  0  0  0  0  0  0  0  0  0
   -1.7140    8.7220   -1.1870 C   0  0  2  0  0  0  0  0  0  0  0  0
   -1.2890    7.4570   -0.3650 C   0  0  0  0  0  0  0  0  0  0  0  0
   -3.3473    6.2283   -3.7660 H   0  0  0  0  0  0  0  0  0  0  0  0
   -4.7678    7.3244   -3.8517 H   0  0  0  0  0  0  0  0  0  0  0  0
   -3.1059    8.0062   -3.8517 H   0  0  0  0  0  0  0  0  0  0  0  0
   -3.1450    6.4722   -1.5414 H   0  0  0  0  0  0  0  0  0  0  0  0
   -5.2930    6.0162   -1.0547 H   0  0  0  0  0  0  0  0  0  0  0  0
   -5.3218    7.7663   -0.5258 H   0  0  0  0  0  0  0  0  0  0  0  0
   -6.0627    8.3019   -2.9078 H   0  0  0  0  0  0  0  0  0  0  0  0
   -6.3922    6.5262   -3.0662 H   0  0  0  0  0  0  0  0  0  0  0  0
   -7.3831    8.5803   -1.4078 H   0  0  0  0  0  0  0  0  0  0  0  0
   -8.9757    5.0086   -3.1407 H   0  0  0  0  0  0  0  0  0  0  0  0
   -9.8389    6.3127   -4.0243 H   0  0  0  0  0  0  0  0  0  0  0  0
   -8.0433    6.2641   -4.0243 H   0  0  0  0  0  0  0  0  0  0  0  0
  -10.2847    7.5513   -0.6798 H   0  0  0  0  0  0  0  0  0  0  0  0
  -10.3007    8.5488   -2.1735 H   0  0  0  0  0  0  0  0  0  0  0  0
  -11.0567    6.9194   -2.1735 H   0  0  0  0  0  0  0  0  0  0  0  0
   -3.4964    9.2430   -2.3387 H   0  0  0  0  0  0  0  0  0  0  0  0
   -4.7092    9.7682   -0.3162 H   0  0  0  0  0  0  0  0  0  0  0  0
   -4.2347    8.2402    0.4567 H   0  0  0  0  0  0  0  0  0  0  0  0
   -3.1237   10.8090    1.0337 H   0  0  0  0  0  0  0  0  0  0  0  0
   -2.3915    9.2837    1.5237 H   0  0  0  0  0  0  0  0  0  0  0  0
   -2.3838   12.1303   -0.5082 H   0  0  0  0  0  0  0  0  0  0  0  0
   -1.2630   11.6819   -1.8385 H   0  0  0  0  0  0  0  0  0  0  0  0
   -2.9497   11.0641   -1.8385 H   0  0  0  0  0  0  0  0  0  0  0  0
   -0.0752    9.3739    0.8183 H   0  0  0  0  0  0  0  0  0  0  0  0
   -0.9306   11.6787    1.5924 H   0  0  0  0  0  0  0  0  0  0  0  0
    0.8434   11.2164    1.7582 H   0  0  0  0  0  0  0  0  0  0  0  0
    0.3496   13.6713    0.9374 H   0  0  0  0  0  0  0  0  0  0  0  0
    0.3918   11.5009   -2.4649 H   0  0  0  0  0  0  0  0  0  0  0  0
    3.3433   11.5975   -1.5840 H   0  0  0  0  0  0  0  0  0  0  0  0
    2.6675   10.7589   -3.0509 H   0  0  0  0  0  0  0  0  0  0  0  0
    3.7596   12.9053   -3.6185 H   0  0  0  0  0  0  0  0  0  0  0  0
    1.9927   12.8898   -3.9965 H   0  0  0  0  0  0  0  0  0  0  0  0
    2.5488   15.0005   -3.0021 H   0  0  0  0  0  0  0  0  0  0  0  0
    3.6140   13.3680   -0.8810 H   0  0  0  0  0  0  0  0  0  0  0  0
   -0.9099   14.5540   -2.0869 H   0  0  0  0  0  0  0  0  0  0  0  0
    0.2733   15.2384   -3.2524 H   0  0  0  0  0  0  0  0  0  0  0  0
   -0.0703   13.4753   -3.2524 H   0  0  0  0  0  0  0  0  0  0  0  0
    1.1592   15.0423    0.3945 H   0  0  0  0  0  0  0  0  0  0  0  0
    2.0427   16.0010   -0.8412 H   0  0  0  0  0  0  0  0  0  0  0  0
    0.2466   15.9733   -0.8412 H   0  0  0  0  0  0  0  0  0  0  0  0
    2.0906    9.7959    0.9048 H   0  0  0  0  0  0  0  0  0  0  0  0
    2.5342    8.7151   -0.4597 H   0  0  0  0  0  0  0  0  0  0  0  0
    3.0726   10.4288   -0.4597 H   0  0  0  0  0  0  0  0  0  0  0  0
    1.2504    9.2524   -2.8892 H   0  0  0  0  0  0  0  0  0  0  0  0
    0.9578    8.0817   -1.4829 H   0  0  0  0  0  0  0  0  0  0  0  0
   -1.1110    9.6654   -3.0316 H   0  0  0  0  0  0  0  0  0  0  0  0
   -0.8698    7.8746   -2.9749 H   0  0  0  0  0  0  0  0  0  0  0  0
   -1.3628    7.6767    0.7103 H   0  0  0  0  0  0  0  0  0  0  0  0
   -1.9543    6.6172   -0.6142 H   0  0  0  0  0  0  0  0  0  0  0  0
   -0.2516    7.1893   -0.6142 H   0  0  0  0  0  0  0  0  0  0  0  0
  1  2  1  0
  2  3  1  0
  3  4  1  0
  4  5  1  0
  5  6  1  0
  6  7  1  0
  7  8  1  0
  7  9  1  0
  2 10  1  0
 10 11  1  0
 11 12  1  0
 12 13  1  0
 13 14  1  6
 13 15  1  0
 15 16  1  0
 16 17  1  0
 17 18  2  0
 18 19  1  0
 19 20  1  0
 20 21  1  0
 21 22  1  0
 22 23  1  0
 22 24  1  0
 24 25  1  0
 24 26  1  0
 19 27  1  0
 27 28  1  1
 27 29  1  0
 29 30  1  0
 30 31  1  0
 31 32  1  1
  7  5  1  0
 31 10  1  0
 31 13  1  0
 27 15  1  0
 24 18  1  0
  1 33  1  0
  1 34  1  0
  1 35  1  0
  2 36  1  1
  3 37  1  0
  3 38  1  0
  4 39  1  0
  4 40  1  0
  5 41  1  1
  8 42  1  0
  8 43  1  0
  8 44  1  0
  9 45  1  0
  9 46  1  0
  9 47  1  0
 10 48  1  6
 11 49  1  0
 11 50  1  0
 12 51  1  0
 12 52  1  0
 14 53  1  0
 14 54  1  0
 14 55  1  0
 15 56  1  1
 16 57  1  0
 16 58  1  0
 17 59  1  0
 19 60  1  6
 20 61  1  0
 20 62  1  0
 21 63  1  0
 21 64  1  0
 22 65  1  6
 23 66  1  0
 25 67  1  0
 25 68  1  0
 25 69  1  0
 26 70  1  0
 26 71  1  0
 26 72  1  0
 28 73  1  0
 28 74  1  0
 28 75  1  0
 29 76  1  0
 29 77  1  0
 30 78  1  0
 30 79  1  0
 32 80  1  0
 32 81  1  0
 32 82  1  0
M  END
>  <meeko>  (13) 
{"is_sidechain": [false], "intermolecular_energy": 2.731, "internal_energy": -0.839}

$$$$
EPH_relaxed_0001_pdb2pqr_Repair_10_r2_0001_out
     RDKit          3D

 82 86  0  0  0  0  0  0  0  0999 V2000
   -0.9340   16.4040   -5.9100 C   0  0  0  0  0  0  0  0  0  0  0  0
    0.1720   15.7080   -6.7090 C   0  0  2  0  0  0  0  0  0  0  0  0
   -0.2180   15.5060   -8.1860 C   0  0  0  0  0  0  0  0  0  0  0  0
    0.4370   16.5080   -9.1390 C   0  0  0  0  0  0  0  0  0  0  0  0
    1.8440   16.1150   -9.4760 C   0  0  2  0  0  0  0  0  0  0  0  0
    2.3470   16.6760  -10.6960 O   0  0  0  0  0  0  0  0  0  0  0  0
    2.2070   15.2460  -10.6660 C   0  0  0  0  0  0  0  0  0  0  0  0
    1.1600   14.7170  -11.5950 C   0  0  0  0  0  0  0  0  0  0  0  0
    3.5130   14.5140  -10.6440 C   0  0  0  0  0  0  0  0  0  0  0  0
    0.5080   14.3660   -6.0700 C   0  0  1  0  0  0  0  0  0  0  0  0
    1.7350   13.6800   -6.7300 C   0  0  0  0  0  0  0  0  0  0  0  0
    2.4910   12.9330   -5.6020 C   0  0  0  0  0  0  0  0  0  0  0  0
    1.5080   12.9330   -4.4070 C   0  0  1  0  0  0  0  0  0  0  0  0
    0.5230   11.7580   -4.6980 C   0  0  0  0  0  0  0  0  0  0  0  0
    2.1480   12.8120   -2.9860 C   0  0  2  0  0  0  0  0  0  0  0  0
    2.9170   11.5050   -2.7260 C   0  0  0  0  0  0  0  0  0  0  0  0
    2.1070   10.3920   -2.1480 C   0  0  0  0  0  0  0  0  0  0  0  0
    0.8900   10.5210   -1.5860 C   0  0  0  0  0  0  0  0  0  0  0  0
    0.2500   11.9030   -1.4020 C   0  0  1  0  0  0  0  0  0  0  0  0
   -0.3260   12.0190    0.0340 C   0  0  0  0  0  0  0  0  0  0  0  0
   -1.2840   10.8820    0.3740 C   0  0  0  0  0  0  0  0  0  0  0  0
   -0.5940    9.5270    0.2350 C   0  0  2  0  0  0  0  0  0  0  0  0
    0.4210    9.4220    1.2390 O   0  0  0  0  0  0  0  0  0  0  0  0
    0.0340    9.3000   -1.1690 C   0  0  0  0  0  0  0  0  0  0  0  0
   -1.0910    9.1140   -2.2170 C   0  0  0  0  0  0  0  0  0  0  0  0
    0.8180    7.9610   -1.1300 C   0  0  0  0  0  0  0  0  0  0  0  0
    1.1570   13.1460   -1.7980 C   0  0  1  0  0  0  0  0  0  0  0  0
    2.0420   13.5670   -0.5850 C   0  0  0  0  0  0  0  0  0  0  0  0
    0.2300   14.3770   -2.1210 C   0  0  0  0  0  0  0  0  0  0  0  0
   -0.2730   14.5070   -3.5710 C   0  0  0  0  0  0  0  0  0  0  0  0
    0.8820   14.3670   -4.5670 C   0  0  2  0  0  0  0  0  0  0  0  0
    1.8790   15.5490   -4.3130 C   0  0  0  0  0  0  0  0  0  0  0  0
   -0.7409   16.2825   -4.8339 H   0  0  0  0  0  0  0  0  0  0  0  0
   -0.9493   17.4748   -6.1611 H   0  0  0  0  0  0  0  0  0  0  0  0
   -1.9061   15.9545   -6.1611 H   0  0  0  0  0  0  0  0  0  0  0  0
    1.0567   16.3614   -6.6884 H   0  0  0  0  0  0  0  0  0  0  0  0
    0.0822   14.4920   -8.4886 H   0  0  0  0  0  0  0  0  0  0  0  0
   -1.3049   15.6608   -8.2550 H   0  0  0  0  0  0  0  0  0  0  0  0
   -0.1520   16.5548  -10.0669 H   0  0  0  0  0  0  0  0  0  0  0  0
    0.4650   17.4878   -8.6399 H   0  0  0  0  0  0  0  0  0  0  0  0
    2.1075   16.0539   -8.4098 H   0  0  0  0  0  0  0  0  0  0  0  0
    0.3288   14.2970  -11.0096 H   0  0  0  0  0  0  0  0  0  0  0  0
    0.7858   15.5342  -12.2292 H   0  0  0  0  0  0  0  0  0  0  0  0
    1.5958   13.9309  -12.2292 H   0  0  0  0  0  0  0  0  0  0  0  0
    3.8195   14.3422   -9.6016 H   0  0  0  0  0  0  0  0  0  0  0  0
    3.4003   13.5475  -11.1571 H   0  0  0  0  0  0  0  0  0  0  0  0
    4.2786   15.1145  -11.1571 H   0  0  0  0  0  0  0  0  0  0  0  0
   -0.4502   13.8467   -6.2190 H   0  0  0  0  0  0  0  0  0  0  0  0
    1.4022   12.9674   -7.4991 H   0  0  0  0  0  0  0  0  0  0  0  0
    2.3858   14.4204   -7.2181 H   0  0  0  0  0  0  0  0  0  0  0  0
    2.7287   11.9039   -5.9093 H   0  0  0  0  0  0  0  0  0  0  0  0
    3.4495   13.4123   -5.3538 H   0  0  0  0  0  0  0  0  0  0  0  0
    0.1673   11.3337   -3.7475 H   0  0  0  0  0  0  0  0  0  0  0  0
   -0.3346   12.1330   -5.2758 H   0  0  0  0  0  0  0  0  0  0  0  0
    1.0420   10.9790   -5.2758 H   0  0  0  0  0  0  0  0  0  0  0  0
    2.9076   13.6075   -3.0009 H   0  0  0  0  0  0  0  0  0  0  0  0
    3.3341   11.1599   -3.6836 H   0  0  0  0  0  0  0  0  0  0  0  0
    3.6820   11.7469   -1.9735 H   0  0  0  0  0  0  0  0  0  0  0  0
    2.5407    9.3818   -2.1842 H   0  0  0  0  0  0  0  0  0  0  0  0
   -0.5657   11.9609   -2.1377 H   0  0  0  0  0  0  0  0  0  0  0  0
    0.5082   12.0033    0.7508 H   0  0  0  0  0  0  0  0  0  0  0  0
   -0.8918   12.9606    0.0915 H   0  0  0  0  0  0  0  0  0  0  0  0
   -1.6335   11.0034    1.4099 H   0  0  0  0  0  0  0  0  0  0  0  0
   -2.1327   10.9171   -0.3249 H   0  0  0  0  0  0  0  0  0  0  0  0
   -1.3624    8.7505    0.3636 H   0  0  0  0  0  0  0  0  0  0  0  0
    0.3760   10.2230    1.7880 H   0  0  0  0  0  0  0  0  0  0  0  0
   -2.0497    8.9555   -1.7015 H   0  0  0  0  0  0  0  0  0  0  0  0
   -1.1577   10.0133   -2.8469 H   0  0  0  0  0  0  0  0  0  0  0  0
   -0.8647    8.2411   -2.8469 H   0  0  0  0  0  0  0  0  0  0  0  0
    0.9900    7.6672   -0.0840 H   0  0  0  0  0  0  0  0  0  0  0  0
    0.2347    7.1796   -1.6392 H   0  0  0  0  0  0  0  0  0  0  0  0
    1.7849    8.0872   -1.6392 H   0  0  0  0  0  0  0  0  0  0  0  0
    1.5216   13.3194    0.3520 H   0  0  0  0  0  0  0  0  0  0  0  0
    3.0001   13.0282   -0.6257 H   0  0  0  0  0  0  0  0  0  0  0  0
    2.2285   14.6503   -0.6257 H   0  0  0  0  0  0  0  0  0  0  0  0
   -0.6524   14.3094   -1.4676 H   0  0  0  0  0  0  0  0  0  0  0  0
    0.8604   15.2630   -1.9549 H   0  0  0  0  0  0  0  0  0  0  0  0
   -1.0144   13.7183   -3.7667 H   0  0  0  0  0  0  0  0  0  0  0  0
   -0.7260   15.5014   -3.6971 H   0  0  0  0  0  0  0  0  0  0  0  0
    2.0039   15.6971   -3.2302 H   0  0  0  0  0  0  0  0  0  0  0  0
    2.8530   15.3107   -4.7653 H   0  0  0  0  0  0  0  0  0  0  0  0
    1.4799   16.4689   -4.7653 H   0  0  0  0  0  0  0  0  0  0  0  0
  1  2  1  0
  2  3  1  0
  3  4  1  0
  4  5  1  0
  5  6  1  0
  6  7  1  0
  7  8  1  0
  7  9  1  0
  2 10  1  0
 10 11  1  0
 11 12  1  0
 12 13  1  0
 13 14  1  6
 13 15  1  0
 15 16  1  0
 16 17  1  0
 17 18  2  0
 18 19  1  0
 19 20  1  0
 20 21  1  0
 21 22  1  0
 22 23  1  0
 22 24  1  0
 24 25  1  0
 24 26  1  0
 19 27  1  0
 27 28  1  1
 27 29  1  0
 29 30  1  0
 30 31  1  0
 31 32  1  6
  7  5  1  0
 31 10  1  0
 31 13  1  0
 27 15  1  0
 24 18  1  0
  1 33  1  0
  1 34  1  0
  1 35  1  0
  2 36  1  6
  3 37  1  0
  3 38  1  0
  4 39  1  0
  4 40  1  0
  5 41  1  1
  8 42  1  0
  8 43  1  0
  8 44  1  0
  9 45  1  0
  9 46  1  0
  9 47  1  0
 10 48  1  1
 11 49  1  0
 11 50  1  0
 12 51  1  0
 12 52  1  0
 14 53  1  0
 14 54  1  0
 14 55  1  0
 15 56  1  6
 16 57  1  0
 16 58  1  0
 17 59  1  0
 19 60  1  6
 20 61  1  0
 20 62  1  0
 21 63  1  0
 21 64  1  0
 22 65  1  1
 23 66  1  0
 25 67  1  0
 25 68  1  0
 25 69  1  0
 26 70  1  0
 26 71  1  0
 26 72  1  0
 28 73  1  0
 28 74  1  0
 28 75  1  0
 29 76  1  0
 29 77  1  0
 30 78  1  0
 30 79  1  0
 32 80  1  0
 32 81  1  0
 32 82  1  0
M  END
>  <meeko>  (14) 
{"is_sidechain": [false], "intermolecular_energy": 2.731, "internal_energy": -0.839}

$$$$
EPH_relaxed_0001_pdb2pqr_Repair_10_r2_0001_out
     RDKit          3D

 82 86  0  0  0  0  0  0  0  0999 V2000
   -1.9270    7.7660   -2.0050 C   0  0  0  0  0  0  0  0  0  0  0  0
   -2.2480    8.5210   -0.7120 C   0  0  2  0  0  0  0  0  0  0  0  0
   -3.7610    8.5470   -0.4160 C   0  0  0  0  0  0  0  0  0  0  0  0
   -4.5580    7.4920   -1.1880 C   0  0  0  0  0  0  0  0  0  0  0  0
   -6.0300    7.7720   -1.1500 C   0  0  2  0  0  0  0  0  0  0  0  0
   -6.8470    6.6380   -0.8290 O   0  0  0  0  0  0  0  0  0  0  0  0
   -7.0180    7.1900   -2.1450 C   0  0  0  0  0  0  0  0  0  0  0  0
   -6.5720    6.2830   -3.2480 C   0  0  0  0  0  0  0  0  0  0  0  0
   -8.3290    7.8860   -2.3410 C   0  0  0  0  0  0  0  0  0  0  0  0
   -1.7090    9.9440   -0.7930 C   0  0  1  0  0  0  0  0  0  0  0  0
   -1.2600   10.4920    0.5880 C   0  0  0  0  0  0  0  0  0  0  0  0
   -0.0310   11.4010    0.3310 C   0  0  0  0  0  0  0  0  0  0  0  0
   -0.0160   11.6120   -1.2010 C   0  0  1  0  0  0  0  0  0  0  0  0
   -1.0630   12.7400   -1.4620 C   0  0  0  0  0  0  0  0  0  0  0  0
    1.3710   11.9530   -1.8380 C   0  0  2  0  0  0  0  0  0  0  0  0
    2.0010   13.2730   -1.3600 C   0  0  0  0  0  0  0  0  0  0  0  0
    1.6490   14.4780   -2.1680 C   0  0  0  0  0  0  0  0  0  0  0  0
    1.0930   14.4620   -3.3930 C   0  0  0  0  0  0  0  0  0  0  0  0
    0.8520   13.1400   -4.1330 C   0  0  1  0  0  0  0  0  0  0  0  0
    1.3430   13.2690   -5.5980 C   0  0  0  0  0  0  0  0  0  0  0  0
    0.7240   14.4620   -6.3200 C   0  0  0  0  0  0  0  0  0  0  0  0
    1.0350   15.7640   -5.5870 C   0  0  2  0  0  0  0  0  0  0  0  0
    2.4410   16.0160   -5.6700 O   0  0  0  0  0  0  0  0  0  0  0  0
    0.5930   15.7490   -4.0970 C   0  0  0  0  0  0  0  0  0  0  0  0
   -0.9530   15.7790   -4.0110 C   0  0  0  0  0  0  0  0  0  0  0  0
    1.0910   17.0630   -3.4370 C   0  0  0  0  0  0  0  0  0  0  0  0
    1.4070   11.8340   -3.4160 C   0  0  1  0  0  0  0  0  0  0  0  0
    2.8970   11.6020   -3.8110 C   0  0  0  0  0  0  0  0  0  0  0  0
    0.6080   10.5820   -3.9390 C   0  0  0  0  0  0  0  0  0  0  0  0
   -0.6910   10.2250   -3.1940 C   0  0  0  0  0  0  0  0  0  0  0  0
   -0.4610   10.1820   -1.6800 C   0  0  2  0  0  0  0  0  0  0  0  0
    0.5720    9.0410   -1.3850 C   0  0  0  0  0  0  0  0  0  0  0  0
   -1.5075    6.7793   -1.7590 H   0  0  0  0  0  0  0  0  0  0  0  0
   -2.8480    7.6367   -2.5924 H   0  0  0  0  0  0  0  0  0  0  0  0
   -1.1949    8.3396   -2.5924 H   0  0  0  0  0  0  0  0  0  0  0  0
   -1.7585    7.9849    0.1144 H   0  0  0  0  0  0  0  0  0  0  0  0
   -3.9072    8.3736    0.6604 H   0  0  0  0  0  0  0  0  0  0  0  0
   -4.1343    9.5305   -0.7375 H   0  0  0  0  0  0  0  0  0  0  0  0
   -4.2228    7.4880   -2.2357 H   0  0  0  0  0  0  0  0  0  0  0  0
   -4.3824    6.5149   -0.7143 H   0  0  0  0  0  0  0  0  0  0  0  0
   -5.8498    8.8007   -0.8046 H   0  0  0  0  0  0  0  0  0  0  0  0
   -6.1253    5.3746   -2.8177 H   0  0  0  0  0  0  0  0  0  0  0  0
   -7.4374    6.0075   -3.8687 H   0  0  0  0  0  0  0  0  0  0  0  0
   -5.8254    6.8001   -3.8687 H   0  0  0  0  0  0  0  0  0  0  0  0
   -8.7700    8.1201   -1.3608 H   0  0  0  0  0  0  0  0  0  0  0  0
   -8.1690    8.8179   -2.9031 H   0  0  0  0  0  0  0  0  0  0  0  0
   -9.0113    7.2313   -2.9031 H   0  0  0  0  0  0  0  0  0  0  0  0
   -2.5835   10.4481   -1.2302 H   0  0  0  0  0  0  0  0  0  0  0  0
   -2.0726   11.0745    1.0466 H   0  0  0  0  0  0  0  0  0  0  0  0
   -1.0070    9.6711    1.2751 H   0  0  0  0  0  0  0  0  0  0  0  0
   -0.1425   12.3621    0.8544 H   0  0  0  0  0  0  0  0  0  0  0  0
    0.9036   10.9533    0.6998 H   0  0  0  0  0  0  0  0  0  0  0  0
   -1.4269   13.1320   -0.5008 H   0  0  0  0  0  0  0  0  0  0  0  0
   -0.5917   13.5524   -2.0346 H   0  0  0  0  0  0  0  0  0  0  0  0
   -1.9082   12.3304   -2.0346 H   0  0  0  0  0  0  0  0  0  0  0  0
    2.0149   11.1534   -1.4430 H   0  0  0  0  0  0  0  0  0  0  0  0
    1.6736   13.4505   -0.3250 H   0  0  0  0  0  0  0  0  0  0  0  0
    3.0887   13.1453   -1.4628 H   0  0  0  0  0  0  0  0  0  0  0  0
    1.8622   15.4618   -1.7244 H   0  0  0  0  0  0  0  0  0  0  0  0
   -0.2357   12.9767   -4.1178 H   0  0  0  0  0  0  0  0  0  0  0  0
    2.4365   13.3879   -5.5941 H   0  0  0  0  0  0  0  0  0  0  0  0
    1.0364   12.3587   -6.1341 H   0  0  0  0  0  0  0  0  0  0  0  0
    1.1319   14.5168   -7.3401 H   0  0  0  0  0  0  0  0  0  0  0  0
   -0.3673   14.3273   -6.3491 H   0  0  0  0  0  0  0  0  0  0  0  0
    0.4593   16.5634   -6.0764 H   0  0  0  0  0  0  0  0  0  0  0  0
    2.8110   15.4040   -6.3290 H   0  0  0  0  0  0  0  0  0  0  0  0
   -1.2614   15.7850   -2.9551 H   0  0  0  0  0  0  0  0  0  0  0  0
   -1.3304   16.6846   -4.5084 H   0  0  0  0  0  0  0  0  0  0  0  0
   -1.3652   14.8887   -4.5084 H   0  0  0  0  0  0  0  0  0  0  0  0
    1.0524   16.9611   -2.3424 H   0  0  0  0  0  0  0  0  0  0  0  0
    2.1266   17.2612   -3.7505 H   0  0  0  0  0  0  0  0  0  0  0  0
    0.4469   17.8978   -3.7505 H   0  0  0  0  0  0  0  0  0  0  0  0
    3.5071   11.5070   -2.9007 H   0  0  0  0  0  0  0  0  0  0  0  0
    2.9795   10.6802   -4.4055 H   0  0  0  0  0  0  0  0  0  0  0  0
    3.2558   12.4551   -4.4055 H   0  0  0  0  0  0  0  0  0  0  0  0
    0.3471   10.7698   -4.9910 H   0  0  0  0  0  0  0  0  0  0  0  0
    1.2778    9.7250   -3.7752 H   0  0  0  0  0  0  0  0  0  0  0  0
   -1.4555   10.9828   -3.4204 H   0  0  0  0  0  0  0  0  0  0  0  0
   -1.0239    9.2307   -3.5265 H   0  0  0  0  0  0  0  0  0  0  0  0
    0.6827    8.9188   -0.2974 H   0  0  0  0  0  0  0  0  0  0  0  0
    0.2134    8.0989   -1.8253 H   0  0  0  0  0  0  0  0  0  0  0  0
    1.5450    9.3045   -1.8253 H   0  0  0  0  0  0  0  0  0  0  0  0
  1  2  1  0
  2  3  1  0
  3  4  1  0
  4  5  1  0
  5  6  1  0
  6  7  1  0
  7  8  1  0
  7  9  1  0
  2 10  1  0
 10 11  1  0
 11 12  1  0
 12 13  1  0
 13 14  1  1
 13 15  1  0
 15 16  1  0
 16 17  1  0
 17 18  2  0
 18 19  1  0
 19 20  1  0
 20 21  1  0
 21 22  1  0
 22 23  1  0
 22 24  1  0
 24 25  1  0
 24 26  1  0
 19 27  1  0
 27 28  1  6
 27 29  1  0
 29 30  1  0
 30 31  1  0
 31 32  1  6
  7  5  1  0
 31 10  1  0
 31 13  1  0
 27 15  1  0
 24 18  1  0
  1 33  1  0
  1 34  1  0
  1 35  1  0
  2 36  1  1
  3 37  1  0
  3 38  1  0
  4 39  1  0
  4 40  1  0
  5 41  1  1
  8 42  1  0
  8 43  1  0
  8 44  1  0
  9 45  1  0
  9 46  1  0
  9 47  1  0
 10 48  1  6
 11 49  1  0
 11 50  1  0
 12 51  1  0
 12 52  1  0
 14 53  1  0
 14 54  1  0
 14 55  1  0
 15 56  1  1
 16 57  1  0
 16 58  1  0
 17 59  1  0
 19 60  1  6
 20 61  1  0
 20 62  1  0
 21 63  1  0
 21 64  1  0
 22 65  1  6
 23 66  1  0
 25 67  1  0
 25 68  1  0
 25 69  1  0
 26 70  1  0
 26 71  1  0
 26 72  1  0
 28 73  1  0
 28 74  1  0
 28 75  1  0
 29 76  1  0
 29 77  1  0
 30 78  1  0
 30 79  1  0
 32 80  1  0
 32 81  1  0
 32 82  1  0
M  END
>  <meeko>  (15) 
{"is_sidechain": [false], "intermolecular_energy": 2.731, "internal_energy": -0.839}

$$$$
EPH_relaxed_0001_pdb2pqr_Repair_10_r2_0001_out
     RDKit          3D

 82 86  0  0  0  0  0  0  0  0999 V2000
    2.8890   11.3990   -5.3870 C   0  0  0  0  0  0  0  0  0  0  0  0
    1.8880   11.0900   -4.2710 C   0  0  2  0  0  0  0  0  0  0  0  0
    0.7710   10.1350   -4.7400 C   0  0  0  0  0  0  0  0  0  0  0  0
   -0.3050    9.8790   -3.6810 C   0  0  0  0  0  0  0  0  0  0  0  0
    0.2270    9.0710   -2.5350 C   0  0  2  0  0  0  0  0  0  0  0  0
   -0.6240    7.9970   -2.1140 O   0  0  0  0  0  0  0  0  0  0  0  0
   -0.4130    9.0500   -1.1600 C   0  0  0  0  0  0  0  0  0  0  0  0
   -1.6390    9.8520   -0.8570 C   0  0  0  0  0  0  0  0  0  0  0  0
    0.4240    8.6420    0.0120 C   0  0  0  0  0  0  0  0  0  0  0  0
    1.2790   12.3840   -3.7450 C   0  0  1  0  0  0  0  0  0  0  0  0
   -0.2620   12.2980   -3.5840 C   0  0  0  0  0  0  0  0  0  0  0  0
   -0.6300   13.1470   -2.3400 C   0  0  0  0  0  0  0  0  0  0  0  0
    0.6500   13.9560   -2.0270 C   0  0  1  0  0  0  0  0  0  0  0  0
    0.6160   15.1620   -3.0170 C   0  0  0  0  0  0  0  0  0  0  0  0
    0.8240   14.4290   -0.5470 C   0  0  2  0  0  0  0  0  0  0  0  0
   -0.2590   15.3980   -0.0400 C   0  0  0  0  0  0  0  0  0  0  0  0
    0.0360   16.8470   -0.2430 C   0  0  0  0  0  0  0  0  0  0  0  0
    1.2410   17.3640   -0.5470 C   0  0  0  0  0  0  0  0  0  0  0  0
    2.4860   16.4710   -0.6200 C   0  0  1  0  0  0  0  0  0  0  0  0
    3.6530   17.1460    0.1480 C   0  0  0  0  0  0  0  0  0  0  0  0
    3.9260   18.5670   -0.3330 C   0  0  0  0  0  0  0  0  0  0  0  0
    2.6820   19.4400   -0.1900 C   0  0  2  0  0  0  0  0  0  0  0  0
    2.3930   19.6070    1.2010 O   0  0  0  0  0  0  0  0  0  0  0  0
    1.4370   18.8560   -0.9160 C   0  0  0  0  0  0  0  0  0  0  0  0
    1.6340   18.9550   -2.4490 C   0  0  0  0  0  0  0  0  0  0  0  0
    0.2200   19.7560   -0.5750 C   0  0  0  0  0  0  0  0  0  0  0  0
    2.2760   14.9530   -0.2000 C   0  0  1  0  0  0  0  0  0  0  0  0
    2.4490   14.7990    1.3420 C   0  0  0  0  0  0  0  0  0  0  0  0
    3.4030   14.0750   -0.8630 C   0  0  0  0  0  0  0  0  0  0  0  0
    3.1220   13.5380   -2.2790 C   0  0  0  0  0  0  0  0  0  0  0  0
    1.7440   12.8740   -2.3500 C   0  0  2  0  0  0  0  0  0  0  0  0
    1.7560   11.6430   -1.3800 C   0  0  0  0  0  0  0  0  0  0  0  0
    3.8513   11.6960   -4.9445 H   0  0  0  0  0  0  0  0  0  0  0  0
    3.0325   10.5033   -6.0092 H   0  0  0  0  0  0  0  0  0  0  0  0
    2.5026   12.2197   -6.0092 H   0  0  0  0  0  0  0  0  0  0  0  0
    2.4387   10.5836   -3.4646 H   0  0  0  0  0  0  0  0  0  0  0  0
    0.2887   10.5733   -5.6262 H   0  0  0  0  0  0  0  0  0  0  0  0
    1.2459    9.1667   -4.9564 H   0  0  0  0  0  0  0  0  0  0  0  0
   -0.6663   10.8451   -3.2988 H   0  0  0  0  0  0  0  0  0  0  0  0
   -1.1215    9.3115   -4.1514 H   0  0  0  0  0  0  0  0  0  0  0  0
    1.2627    9.2405   -2.8646 H   0  0  0  0  0  0  0  0  0  0  0  0
   -1.7637    9.9336    0.2329 H   0  0  0  0  0  0  0  0  0  0  0  0
   -1.5357   10.8577   -1.2905 H   0  0  0  0  0  0  0  0  0  0  0  0
   -2.5191    9.3544   -1.2905 H   0  0  0  0  0  0  0  0  0  0  0  0
   -0.1009    8.8979    0.9442 H   0  0  0  0  0  0  0  0  0  0  0  0
    0.6004    7.5568   -0.0235 H   0  0  0  0  0  0  0  0  0  0  0  0
    1.3875    9.1715   -0.0235 H   0  0  0  0  0  0  0  0  0  0  0  0
    1.6258   13.0795   -4.5234 H   0  0  0  0  0  0  0  0  0  0  0  0
   -0.7594   12.7013   -4.4784 H   0  0  0  0  0  0  0  0  0  0  0  0
   -0.5886   11.2548   -3.4608 H   0  0  0  0  0  0  0  0  0  0  0  0
   -1.4700   13.8208   -2.5644 H   0  0  0  0  0  0  0  0  0  0  0  0
   -0.9487   12.5254   -1.4903 H   0  0  0  0  0  0  0  0  0  0  0  0
    0.5895   16.1029   -2.4479 H   0  0  0  0  0  0  0  0  0  0  0  0
    1.5151   15.1418   -3.6505 H   0  0  0  0  0  0  0  0  0  0  0  0
   -0.2805   15.0912   -3.6505 H   0  0  0  0  0  0  0  0  0  0  0  0
    0.6783   13.4959    0.0170 H   0  0  0  0  0  0  0  0  0  0  0  0
   -1.1966   15.1651   -0.5660 H   0  0  0  0  0  0  0  0  0  0  0  0
   -0.3154   15.2486    1.0483 H   0  0  0  0  0  0  0  0  0  0  0  0
   -0.8018   17.5516   -0.1351 H   0  0  0  0  0  0  0  0  0  0  0  0
    2.7395   16.3891   -1.6873 H   0  0  0  0  0  0  0  0  0  0  0  0
    3.3987   17.1787    1.2177 H   0  0  0  0  0  0  0  0  0  0  0  0
    4.5605   16.5518   -0.0348 H   0  0  0  0  0  0  0  0  0  0  0  0
    4.7403   18.9998    0.2666 H   0  0  0  0  0  0  0  0  0  0  0  0
    4.2085   18.5298   -1.3955 H   0  0  0  0  0  0  0  0  0  0  0  0
    2.9003   20.4059   -0.6689 H   0  0  0  0  0  0  0  0  0  0  0  0
    1.5280   20.0450    1.2720 H   0  0  0  0  0  0  0  0  0  0  0  0
    2.5979   19.4394   -2.6643 H   0  0  0  0  0  0  0  0  0  0  0  0
    1.6253   17.9455   -2.8858 H   0  0  0  0  0  0  0  0  0  0  0  0
    0.8187   19.5505   -2.8858 H   0  0  0  0  0  0  0  0  0  0  0  0
    0.1157   19.8332    0.5173 H   0  0  0  0  0  0  0  0  0  0  0  0
    0.3748   20.7586   -1.0003 H   0  0  0  0  0  0  0  0  0  0  0  0
   -0.6933   19.3143   -1.0003 H   0  0  0  0  0  0  0  0  0  0  0  0
    1.7236   15.4447    1.8586 H   0  0  0  0  0  0  0  0  0  0  0  0
    2.2755   13.7510    1.6276 H   0  0  0  0  0  0  0  0  0  0  0  0
    3.4699   15.0927    1.6276 H   0  0  0  0  0  0  0  0  0  0  0  0
    4.3152   14.6876   -0.9143 H   0  0  0  0  0  0  0  0  0  0  0  0
    3.4833   13.1812   -0.2268 H   0  0  0  0  0  0  0  0  0  0  0  0
    3.1562   14.3733   -2.9940 H   0  0  0  0  0  0  0  0  0  0  0  0
    3.8864   12.7870   -2.5274 H   0  0  0  0  0  0  0  0  0  0  0  0
    1.7526   11.9968   -0.3385 H   0  0  0  0  0  0  0  0  0  0  0  0
    0.8638   11.0253   -1.5604 H   0  0  0  0  0  0  0  0  0  0  0  0
    2.6600   11.0428   -1.5604 H   0  0  0  0  0  0  0  0  0  0  0  0
  1  2  1  0
  2  3  1  0
  3  4  1  0
  4  5  1  0
  5  6  1  0
  6  7  1  0
  7  8  1  0
  7  9  1  0
  2 10  1  0
 10 11  1  0
 11 12  1  0
 12 13  1  0
 13 14  1  6
 13 15  1  0
 15 16  1  0
 16 17  1  0
 17 18  2  0
 18 19  1  0
 19 20  1  0
 20 21  1  0
 21 22  1  0
 22 23  1  0
 22 24  1  0
 24 25  1  0
 24 26  1  0
 19 27  1  0
 27 28  1  1
 27 29  1  0
 29 30  1  0
 30 31  1  0
 31 32  1  1
  7  5  1  0
 31 10  1  0
 31 13  1  0
 27 15  1  0
 24 18  1  0
  1 33  1  0
  1 34  1  0
  1 35  1  0
  2 36  1  1
  3 37  1  0
  3 38  1  0
  4 39  1  0
  4 40  1  0
  5 41  1  1
  8 42  1  0
  8 43  1  0
  8 44  1  0
  9 45  1  0
  9 46  1  0
  9 47  1  0
 10 48  1  6
 11 49  1  0
 11 50  1  0
 12 51  1  0
 12 52  1  0
 14 53  1  0
 14 54  1  0
 14 55  1  0
 15 56  1  1
 16 57  1  0
 16 58  1  0
 17 59  1  0
 19 60  1  6
 20 61  1  0
 20 62  1  0
 21 63  1  0
 21 64  1  0
 22 65  1  6
 23 66  1  0
 25 67  1  0
 25 68  1  0
 25 69  1  0
 26 70  1  0
 26 71  1  0
 26 72  1  0
 28 73  1  0
 28 74  1  0
 28 75  1  0
 29 76  1  0
 29 77  1  0
 30 78  1  0
 30 79  1  0
 32 80  1  0
 32 81  1  0
 32 82  1  0
M  END
>  <meeko>  (16) 
{"is_sidechain": [false], "intermolecular_energy": 2.731, "internal_energy": -0.839}

$$$$
EPH_relaxed_0001_pdb2pqr_Repair_10_r2_0001_out
     RDKit          3D

 82 86  0  0  0  0  0  0  0  0999 V2000
    0.5800    9.3590   -0.1070 C   0  0  0  0  0  0  0  0  0  0  0  0
   -0.5840   10.3460   -0.2310 C   0  0  2  0  0  0  0  0  0  0  0  0
   -1.1290   10.4240   -1.6710 C   0  0  0  0  0  0  0  0  0  0  0  0
   -0.1730    9.8530   -2.7220 C   0  0  0  0  0  0  0  0  0  0  0  0
   -0.0280   10.7720   -3.8970 C   0  0  2  0  0  0  0  0  0  0  0  0
    0.6060   10.1860   -5.0420 O   0  0  0  0  0  0  0  0  0  0  0  0
    1.3100   11.2680   -4.4120 C   0  0  0  0  0  0  0  0  0  0  0  0
    2.5950   10.8610   -3.7620 C   0  0  0  0  0  0  0  0  0  0  0  0
    1.3430   12.5220   -5.2290 C   0  0  0  0  0  0  0  0  0  0  0  0
   -0.1450   11.7280    0.2370 C   0  0  1  0  0  0  0  0  0  0  0  0
    0.9190   11.6680    1.3650 C   0  0  0  0  0  0  0  0  0  0  0  0
    1.8730   12.8700    1.1450 C   0  0  0  0  0  0  0  0  0  0  0  0
    1.1440   13.7620    0.1130 C   0  0  1  0  0  0  0  0  0  0  0  0
    0.1070   14.5770    0.9480 C   0  0  0  0  0  0  0  0  0  0  0  0
    2.0500   14.6970   -0.7540 C   0  0  2  0  0  0  0  0  0  0  0  0
    2.8390   15.7560    0.0360 C   0  0  0  0  0  0  0  0  0  0  0  0
    2.1440   17.0650    0.2180 C   0  0  0  0  0  0  0  0  0  0  0  0
    1.0640   17.4790   -0.4700 C   0  0  0  0  0  0  0  0  0  0  0  0
    0.4890   16.6370   -1.6160 C   0  0  1  0  0  0  0  0  0  0  0  0
    0.2090   17.5490   -2.8390 C   0  0  0  0  0  0  0  0  0  0  0  0
   -0.6780   18.7400   -2.4890 C   0  0  0  0  0  0  0  0  0  0  0  0
   -0.0450   19.5860   -1.3870 C   0  0  2  0  0  0  0  0  0  0  0  0
    1.1460   20.1930   -1.8970 O   0  0  0  0  0  0  0  0  0  0  0  0
    0.2910   18.7710   -0.1060 C   0  0  0  0  0  0  0  0  0  0  0  0
   -1.0190   18.3680    0.6130 C   0  0  0  0  0  0  0  0  0  0  0  0
    1.0520   19.7090    0.8700 C   0  0  0  0  0  0  0  0  0  0  0  0
    1.3160   15.3350   -2.0020 C   0  0  1  0  0  0  0  0  0  0  0  0
    2.4270   15.6980   -3.0340 C   0  0  0  0  0  0  0  0  0  0  0  0
    0.3590   14.3130   -2.7210 C   0  0  0  0  0  0  0  0  0  0  0  0
   -0.4180   13.3360   -1.8170 C   0  0  0  0  0  0  0  0  0  0  0  0
    0.5170   12.6570   -0.8120 C   0  0  2  0  0  0  0  0  0  0  0  0
    1.5580   11.8120   -1.6230 C   0  0  0  0  0  0  0  0  0  0  0  0
    0.7947    9.1770    0.9564 H   0  0  0  0  0  0  0  0  0  0  0  0
    0.3099    8.4105   -0.5941 H   0  0  0  0  0  0  0  0  0  0  0  0
    1.4716    9.7805   -0.5941 H   0  0  0  0  0  0  0  0  0  0  0  0
   -1.3993    9.9787    0.4096 H   0  0  0  0  0  0  0  0  0  0  0  0
   -2.0723    9.8600   -1.7165 H   0  0  0  0  0  0  0  0  0  0  0  0
   -1.2660   11.4899   -1.9059 H   0  0  0  0  0  0  0  0  0  0  0  0
    0.8150    9.7041   -2.2618 H   0  0  0  0  0  0  0  0  0  0  0  0
   -0.5882    8.8998   -3.0814 H   0  0  0  0  0  0  0  0  0  0  0  0
   -0.9564   11.2977   -3.6293 H   0  0  0  0  0  0  0  0  0  0  0  0
    2.4804   10.8973   -2.6686 H   0  0  0  0  0  0  0  0  0  0  0  0
    2.8534    9.8370   -4.0698 H   0  0  0  0  0  0  0  0  0  0  0  0
    3.3958   11.5495   -4.0698 H   0  0  0  0  0  0  0  0  0  0  0  0
    1.3660   13.3949   -4.5601 H   0  0  0  0  0  0  0  0  0  0  0  0
    2.2415   12.5226   -5.8636 H   0  0  0  0  0  0  0  0  0  0  0  0
    0.4458   12.5699   -5.8636 H   0  0  0  0  0  0  0  0  0  0  0  0
   -1.1198   12.1372    0.5409 H   0  0  0  0  0  0  0  0  0  0  0  0
    0.4328   11.7455    2.3487 H   0  0  0  0  0  0  0  0  0  0  0  0
    1.4701   10.7164    1.3376 H   0  0  0  0  0  0  0  0  0  0  0  0
    2.0330   13.4163    2.0863 H   0  0  0  0  0  0  0  0  0  0  0  0
    2.8675   12.5552    0.7959 H   0  0  0  0  0  0  0  0  0  0  0  0
    0.2996   14.4256    2.0204 H   0  0  0  0  0  0  0  0  0  0  0  0
    0.2003   15.6460    0.7060 H   0  0  0  0  0  0  0  0  0  0  0  0
   -0.9096   14.2337    0.7060 H   0  0  0  0  0  0  0  0  0  0  0  0
    2.8015   13.9976   -1.1491 H   0  0  0  0  0  0  0  0  0  0  0  0
    3.0557   15.3447    1.0330 H   0  0  0  0  0  0  0  0  0  0  0  0
    3.7399   15.9698   -0.5578 H   0  0  0  0  0  0  0  0  0  0  0  0
    2.5490   17.7487    0.9787 H   0  0  0  0  0  0  0  0  0  0  0  0
   -0.4555   16.2166   -1.2404 H   0  0  0  0  0  0  0  0  0  0  0  0
    1.1678   17.9248   -3.2256 H   0  0  0  0  0  0  0  0  0  0  0  0
   -0.3220   16.9464   -3.5906 H   0  0  0  0  0  0  0  0  0  0  0  0
   -0.8163   19.3618   -3.3858 H   0  0  0  0  0  0  0  0  0  0  0  0
   -1.6468   18.3628   -2.1296 H   0  0  0  0  0  0  0  0  0  0  0  0
   -0.7823   20.3467   -1.0910 H   0  0  0  0  0  0  0  0  0  0  0  0
    1.4780   20.8050   -1.2190 H   0  0  0  0  0  0  0  0  0  0  0  0
   -0.8689   18.4142    1.7017 H   0  0  0  0  0  0  0  0  0  0  0  0
   -1.8237   19.0601    0.3241 H   0  0  0  0  0  0  0  0  0  0  0  0
   -1.2955   17.3433    0.3241 H   0  0  0  0  0  0  0  0  0  0  0  0
    0.8210   19.4243    1.9071 H   0  0  0  0  0  0  0  0  0  0  0  0
    2.1345   19.6177    0.6971 H   0  0  0  0  0  0  0  0  0  0  0  0
    0.7395   20.7494    0.6971 H   0  0  0  0  0  0  0  0  0  0  0  0
    3.3407   15.9966   -2.4993 H   0  0  0  0  0  0  0  0  0  0  0  0
    2.6410   14.8230   -3.6654 H   0  0  0  0  0  0  0  0  0  0  0  0
    2.0831   16.5305   -3.6654 H   0  0  0  0  0  0  0  0  0  0  0  0
   -0.3783   14.8940   -3.2945 H   0  0  0  0  0  0  0  0  0  0  0  0
    1.0198   13.6787   -3.3301 H   0  0  0  0  0  0  0  0  0  0  0  0
   -1.1928   13.8919   -1.2688 H   0  0  0  0  0  0  0  0  0  0  0  0
   -0.8750   12.5609   -2.4498 H   0  0  0  0  0  0  0  0  0  0  0  0
    2.2183   11.2760   -0.9254 H   0  0  0  0  0  0  0  0  0  0  0  0
    1.0272   11.0861   -2.2565 H   0  0  0  0  0  0  0  0  0  0  0  0
    2.1593   12.4807   -2.2565 H   0  0  0  0  0  0  0  0  0  0  0  0
  1  2  1  0
  2  3  1  0
  3  4  1  0
  4  5  1  0
  5  6  1  0
  6  7  1  0
  7  8  1  0
  7  9  1  0
  2 10  1  0
 10 11  1  0
 11 12  1  0
 12 13  1  0
 13 14  1  1
 13 15  1  0
 15 16  1  0
 16 17  1  0
 17 18  2  0
 18 19  1  0
 19 20  1  0
 20 21  1  0
 21 22  1  0
 22 23  1  0
 22 24  1  0
 24 25  1  0
 24 26  1  0
 19 27  1  0
 27 28  1  6
 27 29  1  0
 29 30  1  0
 30 31  1  0
 31 32  1  6
  7  5  1  0
 31 10  1  0
 31 13  1  0
 27 15  1  0
 24 18  1  0
  1 33  1  0
  1 34  1  0
  1 35  1  0
  2 36  1  1
  3 37  1  0
  3 38  1  0
  4 39  1  0
  4 40  1  0
  5 41  1  6
  8 42  1  0
  8 43  1  0
  8 44  1  0
  9 45  1  0
  9 46  1  0
  9 47  1  0
 10 48  1  1
 11 49  1  0
 11 50  1  0
 12 51  1  0
 12 52  1  0
 14 53  1  0
 14 54  1  0
 14 55  1  0
 15 56  1  6
 16 57  1  0
 16 58  1  0
 17 59  1  0
 19 60  1  1
 20 61  1  0
 20 62  1  0
 21 63  1  0
 21 64  1  0
 22 65  1  1
 23 66  1  0
 25 67  1  0
 25 68  1  0
 25 69  1  0
 26 70  1  0
 26 71  1  0
 26 72  1  0
 28 73  1  0
 28 74  1  0
 28 75  1  0
 29 76  1  0
 29 77  1  0
 30 78  1  0
 30 79  1  0
 32 80  1  0
 32 81  1  0
 32 82  1  0
M  END
>  <meeko>  (17) 
{"is_sidechain": [false], "intermolecular_energy": 2.731, "internal_energy": -0.839}

$$$$
EPH_relaxed_0001_pdb2pqr_Repair_10_r2_0001_out
     RDKit          3D

 82 86  0  0  0  0  0  0  0  0999 V2000
   -1.6840   14.9220    0.5350 C   0  0  0  0  0  0  0  0  0  0  0  0
   -0.3440   15.6090    0.2580 C   0  0  2  0  0  0  0  0  0  0  0  0
   -0.4270   16.5850   -0.9320 C   0  0  0  0  0  0  0  0  0  0  0  0
   -0.0220   18.0200   -0.5820 C   0  0  0  0  0  0  0  0  0  0  0  0
    1.3920   18.0920   -0.0900 C   0  0  2  0  0  0  0  0  0  0  0  0
    2.0810   19.3030   -0.4260 O   0  0  0  0  0  0  0  0  0  0  0  0
    2.5980   18.0970   -1.0110 C   0  0  0  0  0  0  0  0  0  0  0  0
    2.4450   18.0280   -2.4980 C   0  0  0  0  0  0  0  0  0  0  0  0
    3.9240   17.6780   -0.4560 C   0  0  0  0  0  0  0  0  0  0  0  0
    0.7330   14.5630   -0.0000 C   0  0  1  0  0  0  0  0  0  0  0  0
    0.8540   13.5320    1.1540 C   0  0  0  0  0  0  0  0  0  0  0  0
    1.2110   12.1710    0.5020 C   0  0  0  0  0  0  0  0  0  0  0  0
    1.6090   12.5260   -0.9500 C   0  0  1  0  0  0  0  0  0  0  0  0
    3.0890   13.0120   -0.8530 C   0  0  0  0  0  0  0  0  0  0  0  0
    1.4420   11.3880   -2.0090 C   0  0  2  0  0  0  0  0  0  0  0  0
    2.3110   10.1410   -1.7700 C   0  0  0  0  0  0  0  0  0  0  0  0
    3.6550   10.1660   -2.4200 C   0  0  0  0  0  0  0  0  0  0  0  0
    4.0370   11.0130   -3.3930 C   0  0  0  0  0  0  0  0  0  0  0  0
    3.0440   12.0070   -4.0080 C   0  0  1  0  0  0  0  0  0  0  0  0
    3.1640   11.9720   -5.5540 C   0  0  0  0  0  0  0  0  0  0  0  0
    4.5940   12.2040   -6.0340 C   0  0  0  0  0  0  0  0  0  0  0  0
    5.5420   11.1600   -5.4490 C   0  0  2  0  0  0  0  0  0  0  0  0
    5.2090    9.8790   -5.9910 O   0  0  0  0  0  0  0  0  0  0  0  0
    5.5000   11.0970   -3.8960 C   0  0  0  0  0  0  0  0  0  0  0  0
    6.1440   12.3760   -3.3050 C   0  0  0  0  0  0  0  0  0  0  0  0
    6.3930    9.9120   -3.4420 C   0  0  0  0  0  0  0  0  0  0  0  0
    1.5390   11.8810   -3.5100 C   0  0  1  0  0  0  0  0  0  0  0  0
    0.7800   10.8290   -4.3740 C   0  0  0  0  0  0  0  0  0  0  0  0
    0.8060   13.2560   -3.7370 C   0  0  0  0  0  0  0  0  0  0  0  0
    0.9080   14.2930   -2.6030 C   0  0  0  0  0  0  0  0  0  0  0  0
    0.5650   13.6620   -1.2500 C   0  0  2  0  0  0  0  0  0  0  0  0
   -0.9260   13.1840   -1.3090 C   0  0  0  0  0  0  0  0  0  0  0  0
   -1.8379   14.8431    1.6213 H   0  0  0  0  0  0  0  0  0  0  0  0
   -2.4981   15.5139    0.0913 H   0  0  0  0  0  0  0  0  0  0  0  0
   -1.6786   13.9154    0.0913 H   0  0  0  0  0  0  0  0  0  0  0  0
   -0.0836   16.1978    1.1499 H   0  0  0  0  0  0  0  0  0  0  0  0
    0.2398   16.2203   -1.7272 H   0  0  0  0  0  0  0  0  0  0  0  0
   -1.4801   16.6167   -1.2483 H   0  0  0  0  0  0  0  0  0  0  0  0
   -0.1193   18.6472   -1.4804 H   0  0  0  0  0  0  0  0  0  0  0  0
   -0.6834   18.3770    0.2212 H   0  0  0  0  0  0  0  0  0  0  0  0
    1.1410   17.4873    0.7939 H   0  0  0  0  0  0  0  0  0  0  0  0
    1.4681   17.5874   -2.7460 H   0  0  0  0  0  0  0  0  0  0  0  0
    2.5080   19.0417   -2.9205 H   0  0  0  0  0  0  0  0  0  0  0  0
    3.2465   17.4042   -2.9205 H   0  0  0  0  0  0  0  0  0  0  0  0
    3.8822   17.6912    0.6431 H   0  0  0  0  0  0  0  0  0  0  0  0
    4.1614   16.6611   -0.8017 H   0  0  0  0  0  0  0  0  0  0  0  0
    4.7026   18.3739   -0.8017 H   0  0  0  0  0  0  0  0  0  0  0  0
    1.6039   15.2231   -0.1256 H   0  0  0  0  0  0  0  0  0  0  0  0
    1.6469   13.8369    1.8528 H   0  0  0  0  0  0  0  0  0  0  0  0
   -0.0851   13.4634    1.7226 H   0  0  0  0  0  0  0  0  0  0  0  0
    2.0512   11.6961    1.0298 H   0  0  0  0  0  0  0  0  0  0  0  0
    0.3751   11.4571    0.5426 H   0  0  0  0  0  0  0  0  0  0  0  0
    3.3755   13.1061    0.2049 H   0  0  0  0  0  0  0  0  0  0  0  0
    3.7475   12.2829   -1.3478 H   0  0  0  0  0  0  0  0  0  0  0  0
    3.1871   13.9895   -1.3478 H   0  0  0  0  0  0  0  0  0  0  0  0
    0.4037   11.0638   -1.8452 H   0  0  0  0  0  0  0  0  0  0  0  0
    2.4599   10.0333   -0.6855 H   0  0  0  0  0  0  0  0  0  0  0  0
    1.7681    9.2999   -2.2259 H   0  0  0  0  0  0  0  0  0  0  0  0
    4.3954    9.4297   -2.0741 H   0  0  0  0  0  0  0  0  0  0  0  0
    3.3371   12.9991   -3.6341 H   0  0  0  0  0  0  0  0  0  0  0  0
    2.8269   10.9880   -5.9119 H   0  0  0  0  0  0  0  0  0  0  0  0
    2.5403   12.7838   -5.9564 H   0  0  0  0  0  0  0  0  0  0  0  0
    4.6202   12.1392   -7.1318 H   0  0  0  0  0  0  0  0  0  0  0  0
    4.9193   13.2002   -5.6997 H   0  0  0  0  0  0  0  0  0  0  0  0
    6.5658   11.4533   -5.7241 H   0  0  0  0  0  0  0  0  0  0  0  0
    6.0040    9.3210   -5.9380 H   0  0  0  0  0  0  0  0  0  0  0  0
    6.1185   12.3253   -2.2065 H   0  0  0  0  0  0  0  0  0  0  0  0
    7.1876   12.4515   -3.6444 H   0  0  0  0  0  0  0  0  0  0  0  0
    5.5832   13.2593   -3.6444 H   0  0  0  0  0  0  0  0  0  0  0  0
    6.4214    9.8743   -2.3430 H   0  0  0  0  0  0  0  0  0  0  0  0
    5.9780    8.9703   -3.8306 H   0  0  0  0  0  0  0  0  0  0  0  0
    7.4126   10.0514   -3.8306 H   0  0  0  0  0  0  0  0  0  0  0  0
    0.2651   10.1153   -3.7141 H   0  0  0  0  0  0  0  0  0  0  0  0
    0.0413   11.3401   -5.0088 H   0  0  0  0  0  0  0  0  0  0  0  0
    1.4980   10.2891   -5.0088 H   0  0  0  0  0  0  0  0  0  0  0  0
    1.2284   13.7125   -4.6443 H   0  0  0  0  0  0  0  0  0  0  0  0
   -0.2630   13.0049   -3.8020 H   0  0  0  0  0  0  0  0  0  0  0  0
    1.9346   14.6865   -2.5666 H   0  0  0  0  0  0  0  0  0  0  0  0
    0.1917   15.1034   -2.8035 H   0  0  0  0  0  0  0  0  0  0  0  0
   -1.3121   13.0602   -0.2865 H   0  0  0  0  0  0  0  0  0  0  0  0
   -1.5305   13.9334   -1.8410 H   0  0  0  0  0  0  0  0  0  0  0  0
   -0.9821   12.2228   -1.8410 H   0  0  0  0  0  0  0  0  0  0  0  0
  1  2  1  0
  2  3  1  0
  3  4  1  0
  4  5  1  0
  5  6  1  0
  6  7  1  0
  7  8  1  0
  7  9  1  0
  2 10  1  0
 10 11  1  0
 11 12  1  0
 12 13  1  0
 13 14  1  1
 13 15  1  0
 15 16  1  0
 16 17  1  0
 17 18  2  0
 18 19  1  0
 19 20  1  0
 20 21  1  0
 21 22  1  0
 22 23  1  0
 22 24  1  0
 24 25  1  0
 24 26  1  0
 19 27  1  0
 27 28  1  6
 27 29  1  0
 29 30  1  0
 30 31  1  0
 31 32  1  6
  7  5  1  0
 31 10  1  0
 31 13  1  0
 27 15  1  0
 24 18  1  0
  1 33  1  0
  1 34  1  0
  1 35  1  0
  2 36  1  1
  3 37  1  0
  3 38  1  0
  4 39  1  0
  4 40  1  0
  5 41  1  1
  8 42  1  0
  8 43  1  0
  8 44  1  0
  9 45  1  0
  9 46  1  0
  9 47  1  0
 10 48  1  6
 11 49  1  0
 11 50  1  0
 12 51  1  0
 12 52  1  0
 14 53  1  0
 14 54  1  0
 14 55  1  0
 15 56  1  6
 16 57  1  0
 16 58  1  0
 17 59  1  0
 19 60  1  1
 20 61  1  0
 20 62  1  0
 21 63  1  0
 21 64  1  0
 22 65  1  1
 23 66  1  0
 25 67  1  0
 25 68  1  0
 25 69  1  0
 26 70  1  0
 26 71  1  0
 26 72  1  0
 28 73  1  0
 28 74  1  0
 28 75  1  0
 29 76  1  0
 29 77  1  0
 30 78  1  0
 30 79  1  0
 32 80  1  0
 32 81  1  0
 32 82  1  0
M  END
>  <meeko>  (18) 
{"is_sidechain": [false], "intermolecular_energy": 2.731, "internal_energy": -0.839}

$$$$
EPH_relaxed_0001_pdb2pqr_Repair_10_r2_0001_out
     RDKit          3D

 82 86  0  0  0  0  0  0  0  0999 V2000
    0.9570   14.9500   -2.6660 C   0  0  0  0  0  0  0  0  0  0  0  0
    1.1910   14.2780   -4.0220 C   0  0  2  0  0  0  0  0  0  0  0  0
    0.4580   15.0080   -5.1660 C   0  0  0  0  0  0  0  0  0  0  0  0
    0.9390   14.6040   -6.5620 C   0  0  0  0  0  0  0  0  0  0  0  0
    0.7300   15.7020   -7.5600 C   0  0  2  0  0  0  0  0  0  0  0  0
    0.3880   15.2550   -8.8790 O   0  0  0  0  0  0  0  0  0  0  0  0
    1.6450   15.9390   -8.7470 C   0  0  0  0  0  0  0  0  0  0  0  0
    2.8390   15.0720   -8.9970 C   0  0  0  0  0  0  0  0  0  0  0  0
    1.6610   17.2960   -9.3780 C   0  0  0  0  0  0  0  0  0  0  0  0
    0.7450   12.8220   -3.9640 C   0  0  1  0  0  0  0  0  0  0  0  0
    1.8750   11.8350   -4.3610 C   0  0  0  0  0  0  0  0  0  0  0  0
    1.6900   10.5680   -3.4860 C   0  0  0  0  0  0  0  0  0  0  0  0
    0.2840   10.7270   -2.8620 C   0  0  1  0  0  0  0  0  0  0  0  0
   -0.7040   10.2560   -3.9760 C   0  0  0  0  0  0  0  0  0  0  0  0
    0.0360    9.9730   -1.5150 C   0  0  2  0  0  0  0  0  0  0  0  0
    0.1440    8.4400   -1.5950 C   0  0  0  0  0  0  0  0  0  0  0  0
   -1.1300    7.7260   -1.9040 C   0  0  0  0  0  0  0  0  0  0  0  0
   -2.3630    8.2600   -1.8290 C   0  0  0  0  0  0  0  0  0  0  0  0
   -2.5740    9.6860   -1.3040 C   0  0  1  0  0  0  0  0  0  0  0  0
   -3.7420    9.6950   -0.2830 C   0  0  0  0  0  0  0  0  0  0  0  0
   -5.0210    9.0870   -0.8510 C   0  0  0  0  0  0  0  0  0  0  0  0
   -4.7850    7.6500   -1.3080 C   0  0  2  0  0  0  0  0  0  0  0  0
   -4.5110    6.8400   -0.1610 O   0  0  0  0  0  0  0  0  0  0  0  0
   -3.6240    7.5150   -2.3330 C   0  0  0  0  0  0  0  0  0  0  0  0
   -4.0480    8.1390   -3.6860 C   0  0  0  0  0  0  0  0  0  0  0  0
   -3.3990    6.0030   -2.6030 C   0  0  0  0  0  0  0  0  0  0  0  0
   -1.2770   10.4210   -0.7540 C   0  0  1  0  0  0  0  0  0  0  0  0
   -1.0620   10.0670    0.7500 C   0  0  0  0  0  0  0  0  0  0  0  0
   -1.5030   11.9780   -0.8160 C   0  0  0  0  0  0  0  0  0  0  0  0
   -1.1270   12.6830   -2.1330 C   0  0  0  0  0  0  0  0  0  0  0  0
    0.2760   12.2750   -2.5920 C   0  0  2  0  0  0  0  0  0  0  0  0
    1.2940   12.7560   -1.5020 C   0  0  0  0  0  0  0  0  0  0  0  0
    1.2030   14.2436   -1.8594 H   0  0  0  0  0  0  0  0  0  0  0  0
    1.5982   15.8399   -2.5823 H   0  0  0  0  0  0  0  0  0  0  0  0
   -0.0982   15.2492   -2.5823 H   0  0  0  0  0  0  0  0  0  0  0  0
    2.2690   14.3287   -4.2349 H   0  0  0  0  0  0  0  0  0  0  0  0
   -0.6159   14.7824   -5.0900 H   0  0  0  0  0  0  0  0  0  0  0  0
    0.6708   16.0811   -5.0508 H   0  0  0  0  0  0  0  0  0  0  0  0
    2.0117   14.3653   -6.5141 H   0  0  0  0  0  0  0  0  0  0  0  0
    0.3546   13.7303   -6.8863 H   0  0  0  0  0  0  0  0  0  0  0  0
    0.3489   16.3736   -6.7766 H   0  0  0  0  0  0  0  0  0  0  0  0
    3.2717   14.7578   -8.0357 H   0  0  0  0  0  0  0  0  0  0  0  0
    2.5337   14.1837   -9.5695 H   0  0  0  0  0  0  0  0  0  0  0  0
    3.5892   15.6372   -9.5695 H   0  0  0  0  0  0  0  0  0  0  0  0
    1.6701   18.0657   -8.5922 H   0  0  0  0  0  0  0  0  0  0  0  0
    2.5604   17.3993  -10.0028 H   0  0  0  0  0  0  0  0  0  0  0  0
    0.7643   17.4204  -10.0028 H   0  0  0  0  0  0  0  0  0  0  0  0
   -0.1035   12.8616   -4.6629 H   0  0  0  0  0  0  0  0  0  0  0  0
    1.7935   11.5747   -5.4266 H   0  0  0  0  0  0  0  0  0  0  0  0
    2.8662   12.2843   -4.2010 H   0  0  0  0  0  0  0  0  0  0  0  0
    1.7404    9.6589   -4.1033 H   0  0  0  0  0  0  0  0  0  0  0  0
    2.4763   10.4693   -2.7231 H   0  0  0  0  0  0  0  0  0  0  0  0
   -1.6037    9.8271   -3.5107 H   0  0  0  0  0  0  0  0  0  0  0  0
   -0.9886   11.1153   -4.6010 H   0  0  0  0  0  0  0  0  0  0  0  0
   -0.2156    9.4939   -4.6010 H   0  0  0  0  0  0  0  0  0  0  0  0
    0.8883   10.3003   -0.9015 H   0  0  0  0  0  0  0  0  0  0  0  0
    0.8723    8.1912   -2.3810 H   0  0  0  0  0  0  0  0  0  0  0  0
    0.4457    8.1036   -0.5921 H   0  0  0  0  0  0  0  0  0  0  0  0
   -1.0546    6.6749   -2.2196 H   0  0  0  0  0  0  0  0  0  0  0  0
   -2.8398   10.2961   -2.1799 H   0  0  0  0  0  0  0  0  0  0  0  0
   -3.4402    9.1171    0.6030 H   0  0  0  0  0  0  0  0  0  0  0  0
   -3.9552   10.7439   -0.0292 H   0  0  0  0  0  0  0  0  0  0  0  0
   -5.7993    9.0944   -0.0737 H   0  0  0  0  0  0  0  0  0  0  0  0
   -5.3386    9.6839   -1.7186 H   0  0  0  0  0  0  0  0  0  0  0  0
   -5.6975    7.3141   -1.8224 H   0  0  0  0  0  0  0  0  0  0  0  0
   -5.0930    6.0620   -0.2040 H   0  0  0  0  0  0  0  0  0  0  0  0
   -4.6574    9.0359   -3.5012 H   0  0  0  0  0  0  0  0  0  0  0  0
   -3.1509    8.4169   -4.2588 H   0  0  0  0  0  0  0  0  0  0  0  0
   -4.6367    7.4073   -4.2588 H   0  0  0  0  0  0  0  0  0  0  0  0
   -3.3193    5.4674   -1.6455 H   0  0  0  0  0  0  0  0  0  0  0  0
   -4.2475    5.6029   -3.1774 H   0  0  0  0  0  0  0  0  0  0  0  0
   -2.4708    5.8673   -3.1774 H   0  0  0  0  0  0  0  0  0  0  0  0
   -1.5305   10.8384    1.3789 H   0  0  0  0  0  0  0  0  0  0  0  0
   -1.5196    9.0903    0.9658 H   0  0  0  0  0  0  0  0  0  0  0  0
    0.0157   10.0227    0.9658 H   0  0  0  0  0  0  0  0  0  0  0  0
   -2.5707   12.1668   -0.6306 H   0  0  0  0  0  0  0  0  0  0  0  0
   -0.8224   12.3977   -0.0606 H   0  0  0  0  0  0  0  0  0  0  0  0
   -1.8546   12.4058   -2.9100 H   0  0  0  0  0  0  0  0  0  0  0  0
   -1.1387   13.7700   -1.9647 H   0  0  0  0  0  0  0  0  0  0  0  0
    0.8800   12.5604   -0.5018 H   0  0  0  0  0  0  0  0  0  0  0  0
    2.2420   12.2106   -1.6195 H   0  0  0  0  0  0  0  0  0  0  0  0
    1.4746   13.8347   -1.6195 H   0  0  0  0  0  0  0  0  0  0  0  0
  1  2  1  0
  2  3  1  0
  3  4  1  0
  4  5  1  0
  5  6  1  0
  6  7  1  0
  7  8  1  0
  7  9  1  0
  2 10  1  0
 10 11  1  0
 11 12  1  0
 12 13  1  0
 13 14  1  6
 13 15  1  0
 15 16  1  0
 16 17  1  0
 17 18  2  0
 18 19  1  0
 19 20  1  0
 20 21  1  0
 21 22  1  0
 22 23  1  0
 22 24  1  0
 24 25  1  0
 24 26  1  0
 19 27  1  0
 27 28  1  1
 27 29  1  0
 29 30  1  0
 30 31  1  0
 31 32  1  1
  7  5  1  0
 31 10  1  0
 31 13  1  0
 27 15  1  0
 24 18  1  0
  1 33  1  0
  1 34  1  0
  1 35  1  0
  2 36  1  6
  3 37  1  0
  3 38  1  0
  4 39  1  0
  4 40  1  0
  5 41  1  1
  8 42  1  0
  8 43  1  0
  8 44  1  0
  9 45  1  0
  9 46  1  0
  9 47  1  0
 10 48  1  6
 11 49  1  0
 11 50  1  0
 12 51  1  0
 12 52  1  0
 14 53  1  0
 14 54  1  0
 14 55  1  0
 15 56  1  1
 16 57  1  0
 16 58  1  0
 17 59  1  0
 19 60  1  6
 20 61  1  0
 20 62  1  0
 21 63  1  0
 21 64  1  0
 22 65  1  6
 23 66  1  0
 25 67  1  0
 25 68  1  0
 25 69  1  0
 26 70  1  0
 26 71  1  0
 26 72  1  0
 28 73  1  0
 28 74  1  0
 28 75  1  0
 29 76  1  0
 29 77  1  0
 30 78  1  0
 30 79  1  0
 32 80  1  0
 32 81  1  0
 32 82  1  0
M  END
>  <meeko>  (19) 
{"is_sidechain": [false], "intermolecular_energy": 2.731, "internal_energy": -0.839}

$$$$
