EPH_relaxed_0001_pdb2pqr_Repair_253_r2_0001_out
     RDKit          3D

 82 86  0  0  0  0  0  0  0  0999 V2000
    1.4430   19.5070   -1.1850 C   0  0  0  0  0  0  0  0  0  0  0  0
    1.9580   18.4100   -0.2480 C   0  0  2  0  0  0  0  0  0  0  0  0
    3.3850   17.9570   -0.6140 C   0  0  0  0  0  0  0  0  0  0  0  0
    4.3840   18.0750    0.5400 C   0  0  0  0  0  0  0  0  0  0  0  0
    3.7860   18.7810    1.7200 C   0  0  2  0  0  0  0  0  0  0  0  0
    4.1840   20.1510    1.8620 O   0  0  0  0  0  0  0  0  0  0  0  0
    4.5990   19.2580    2.9090 C   0  0  0  0  0  0  0  0  0  0  0  0
    6.0790   19.0480    2.9780 C   0  0  0  0  0  0  0  0  0  0  0  0
    3.8960   19.4870    4.2110 C   0  0  0  0  0  0  0  0  0  0  0  0
    1.0100   17.2170   -0.2740 C   0  0  1  0  0  0  0  0  0  0  0  0
   -0.4310   17.6080   -0.6980 C   0  0  0  0  0  0  0  0  0  0  0  0
   -0.9960   16.4170   -1.5140 C   0  0  0  0  0  0  0  0  0  0  0  0
   -0.0030   15.2600   -1.2530 C   0  0  1  0  0  0  0  0  0  0  0  0
   -0.4240   14.6750    0.1320 C   0  0  0  0  0  0  0  0  0  0  0  0
    0.0680   14.1500   -2.3510 C   0  0  2  0  0  0  0  0  0  0  0  0
   -1.2370   13.3650   -2.5710 C   0  0  0  0  0  0  0  0  0  0  0  0
   -1.3910   12.1360   -1.7370 C   0  0  0  0  0  0  0  0  0  0  0  0
   -0.4030   11.5240   -1.0580 C   0  0  0  0  0  0  0  0  0  0  0  0
    1.0480   12.0090   -1.1680 C   0  0  1  0  0  0  0  0  0  0  0  0
    1.9850   10.7930   -1.3880 C   0  0  0  0  0  0  0  0  0  0  0  0
    1.8090    9.7180   -0.3200 C   0  0  0  0  0  0  0  0  0  0  0  0
    0.3670    9.2190   -0.2810 C   0  0  2  0  0  0  0  0  0  0  0  0
    0.0850    8.5280   -1.5010 O   0  0  0  0  0  0  0  0  0  0  0  0
   -0.6700   10.3580   -0.0730 C   0  0  0  0  0  0  0  0  0  0  0  0
   -0.5590   10.9070    1.3710 C   0  0  0  0  0  0  0  0  0  0  0  0
   -2.0890    9.7400   -0.1950 C   0  0  0  0  0  0  0  0  0  0  0  0
    1.3100   13.1790   -2.2120 C   0  0  1  0  0  0  0  0  0  0  0  0
    1.5680   12.5800   -3.6290 C   0  0  0  0  0  0  0  0  0  0  0  0
    2.6250   13.9440   -1.8070 C   0  0  0  0  0  0  0  0  0  0  0  0
    2.4730   15.1080   -0.8100 C   0  0  0  0  0  0  0  0  0  0  0  0
    1.3520   16.0580   -1.2430 C   0  0  2  0  0  0  0  0  0  0  0  0
    1.7570   16.6790   -2.6230 C   0  0  0  0  0  0  0  0  0  0  0  0
    1.0502   20.3438   -0.5888 H   0  0  0  0  0  0  0  0  0  0  0  0
    2.2675   19.8641   -1.8195 H   0  0  0  0  0  0  0  0  0  0  0  0
    0.6415   19.1008   -1.8195 H   0  0  0  0  0  0  0  0  0  0  0  0
    1.9959   18.8325    0.7669 H   0  0  0  0  0  0  0  0  0  0  0  0
    3.3444   16.9047   -0.9317 H   0  0  0  0  0  0  0  0  0  0  0  0
    3.7384   18.6241   -1.4141 H   0  0  0  0  0  0  0  0  0  0  0  0
    4.6941   17.0655    0.8479 H   0  0  0  0  0  0  0  0  0  0  0  0
    5.2458   18.6618    0.1894 H   0  0  0  0  0  0  0  0  0  0  0  0
    2.8696   18.1769    1.6476 H   0  0  0  0  0  0  0  0  0  0  0  0
    6.3943   19.0033    4.0309 H   0  0  0  0  0  0  0  0  0  0  0  0
    6.3391   18.1039    2.4769 H   0  0  0  0  0  0  0  0  0  0  0  0
    6.5915   19.8824    2.4769 H   0  0  0  0  0  0  0  0  0  0  0  0
    4.5813   19.2638    5.0420 H   0  0  0  0  0  0  0  0  0  0  0  0
    3.5733   20.5367    4.2738 H   0  0  0  0  0  0  0  0  0  0  0  0
    3.0169   18.8288    4.2738 H   0  0  0  0  0  0  0  0  0  0  0  0
    1.1111   16.8785    0.7677 H   0  0  0  0  0  0  0  0  0  0  0  0
   -1.0525   17.7862    0.1919 H   0  0  0  0  0  0  0  0  0  0  0  0
   -0.4299   18.5312   -1.2960 H   0  0  0  0  0  0  0  0  0  0  0  0
   -2.0041   16.1500   -1.1642 H   0  0  0  0  0  0  0  0  0  0  0  0
   -1.0910   16.6521   -2.5844 H   0  0  0  0  0  0  0  0  0  0  0  0
    0.0145   15.2843    0.9360 H   0  0  0  0  0  0  0  0  0  0  0  0
   -1.5206   14.6889    0.2179 H   0  0  0  0  0  0  0  0  0  0  0  0
   -0.0626   13.6396    0.2179 H   0  0  0  0  0  0  0  0  0  0  0  0
    0.2222   14.7363   -3.2689 H   0  0  0  0  0  0  0  0  0  0  0  0
   -2.0792   14.0360   -2.3461 H   0  0  0  0  0  0  0  0  0  0  0  0
   -1.2132   13.0223   -3.6160 H   0  0  0  0  0  0  0  0  0  0  0  0
   -2.3961   11.6937   -1.6721 H   0  0  0  0  0  0  0  0  0  0  0  0
    1.2820   12.4907   -0.2071 H   0  0  0  0  0  0  0  0  0  0  0  0
    1.7655   10.3521   -2.3716 H   0  0  0  0  0  0  0  0  0  0  0  0
    3.0219   11.1555   -1.3291 H   0  0  0  0  0  0  0  0  0  0  0  0
    2.4763    8.8733   -0.5460 H   0  0  0  0  0  0  0  0  0  0  0  0
    2.0569   10.1524    0.6597 H   0  0  0  0  0  0  0  0  0  0  0  0
    0.2735    8.5481    0.5857 H   0  0  0  0  0  0  0  0  0  0  0  0
    0.1750    7.5760   -1.3270 H   0  0  0  0  0  0  0  0  0  0  0  0
   -0.7243   10.0892    2.0879 H   0  0  0  0  0  0  0  0  0  0  0  0
    0.4434   11.3328    1.5253 H   0  0  0  0  0  0  0  0  0  0  0  0
   -1.3172   11.6888    1.5253 H   0  0  0  0  0  0  0  0  0  0  0  0
   -2.4988    9.5615    0.8101 H   0  0  0  0  0  0  0  0  0  0  0  0
   -2.7454   10.4338   -0.7408 H   0  0  0  0  0  0  0  0  0  0  0  0
   -2.0281    8.7869   -0.7408 H   0  0  0  0  0  0  0  0  0  0  0  0
    2.0013   11.5740   -3.5285 H   0  0  0  0  0  0  0  0  0  0  0  0
    0.6174   12.5165   -4.1789 H   0  0  0  0  0  0  0  0  0  0  0  0
    2.2672   13.2271   -4.1789 H   0  0  0  0  0  0  0  0  0  0  0  0
    3.3122   13.2106   -1.3598 H   0  0  0  0  0  0  0  0  0  0  0  0
    2.9861   14.4073   -2.7370 H   0  0  0  0  0  0  0  0  0  0  0  0
    2.2362   14.7015    0.1843 H   0  0  0  0  0  0  0  0  0  0  0  0
    3.4178   15.6706   -0.7810 H   0  0  0  0  0  0  0  0  0  0  0  0
    2.3509   17.5896   -2.4552 H   0  0  0  0  0  0  0  0  0  0  0  0
    2.3546   15.9511   -3.1914 H   0  0  0  0  0  0  0  0  0  0  0  0
    0.8500   16.9324   -3.1914 H   0  0  0  0  0  0  0  0  0  0  0  0
  1  2  1  0
  2  3  1  0
  3  4  1  0
  4  5  1  0
  5  6  1  0
  6  7  1  0
  7  8  1  0
  7  9  1  0
  2 10  1  0
 10 11  1  0
 11 12  1  0
 12 13  1  0
 13 14  1  1
 13 15  1  0
 15 16  1  0
 16 17  1  0
 17 18  2  0
 18 19  1  0
 19 20  1  0
 20 21  1  0
 21 22  1  0
 22 23  1  0
 22 24  1  0
 24 25  1  0
 24 26  1  0
 19 27  1  0
 27 28  1  6
 27 29  1  0
 29 30  1  0
 30 31  1  0
 31 32  1  6
  7  5  1  0
 31 10  1  0
 31 13  1  0
 27 15  1  0
 24 18  1  0
  1 33  1  0
  1 34  1  0
  1 35  1  0
  2 36  1  1
  3 37  1  0
  3 38  1  0
  4 39  1  0
  4 40  1  0
  5 41  1  1
  8 42  1  0
  8 43  1  0
  8 44  1  0
  9 45  1  0
  9 46  1  0
  9 47  1  0
 10 48  1  1
 11 49  1  0
 11 50  1  0
 12 51  1  0
 12 52  1  0
 14 53  1  0
 14 54  1  0
 14 55  1  0
 15 56  1  6
 16 57  1  0
 16 58  1  0
 17 59  1  0
 19 60  1  1
 20 61  1  0
 20 62  1  0
 21 63  1  0
 21 64  1  0
 22 65  1  1
 23 66  1  0
 25 67  1  0
 25 68  1  0
 25 69  1  0
 26 70  1  0
 26 71  1  0
 26 72  1  0
 28 73  1  0
 28 74  1  0
 28 75  1  0
 29 76  1  0
 29 77  1  0
 30 78  1  0
 30 79  1  0
 32 80  1  0
 32 81  1  0
 32 82  1  0
M  END
>  <meeko>  (1) 
{"is_sidechain": [false], "intermolecular_energy": 2.731, "internal_energy": -0.839}

$$$$
EPH_relaxed_0001_pdb2pqr_Repair_253_r2_0001_out
     RDKit          3D

 82 86  0  0  0  0  0  0  0  0999 V2000
   -1.6800    8.5540   -1.7720 C   0  0  0  0  0  0  0  0  0  0  0  0
   -2.1320    9.1010   -0.4150 C   0  0  2  0  0  0  0  0  0  0  0  0
   -3.6400    9.4240   -0.3920 C   0  0  0  0  0  0  0  0  0  0  0  0
   -4.5320    8.1870   -0.2580 C   0  0  0  0  0  0  0  0  0  0  0  0
   -5.2180    7.8560   -1.5480 C   0  0  2  0  0  0  0  0  0  0  0  0
   -6.3430    8.6880   -1.8590 O   0  0  0  0  0  0  0  0  0  0  0  0
   -6.6280    7.2990   -1.6280 C   0  0  0  0  0  0  0  0  0  0  0  0
   -7.4350    7.0410   -0.3950 C   0  0  0  0  0  0  0  0  0  0  0  0
   -7.0340    6.5540   -2.8610 C   0  0  0  0  0  0  0  0  0  0  0  0
   -1.3270   10.3460   -0.0610 C   0  0  1  0  0  0  0  0  0  0  0  0
   -0.3170   10.0980    1.0910 C   0  0  0  0  0  0  0  0  0  0  0  0
    0.9300   10.9660    0.7870 C   0  0  0  0  0  0  0  0  0  0  0  0
    0.4730   11.9270   -0.3360 C   0  0  1  0  0  0  0  0  0  0  0  0
   -0.2960   13.0670    0.4020 C   0  0  0  0  0  0  0  0  0  0  0  0
    1.5980   12.4940   -1.2610 C   0  0  2  0  0  0  0  0  0  0  0  0
    2.6510   13.3620   -0.5500 C   0  0  0  0  0  0  0  0  0  0  0  0
    2.3450   14.8220   -0.4990 C   0  0  0  0  0  0  0  0  0  0  0  0
    1.4190   15.4540   -1.2440 C   0  0  0  0  0  0  0  0  0  0  0  0
    0.6300   14.7020   -2.3240 C   0  0  1  0  0  0  0  0  0  0  0  0
    0.6080   15.5410   -3.6280 C   0  0  0  0  0  0  0  0  0  0  0  0
    0.0860   16.9570   -3.4040 C   0  0  0  0  0  0  0  0  0  0  0  0
    0.9310   17.6920   -2.3670 C   0  0  2  0  0  0  0  0  0  0  0  0
    2.2410   17.9000   -2.9030 O   0  0  0  0  0  0  0  0  0  0  0  0
    1.0340   16.9360   -1.0130 C   0  0  0  0  0  0  0  0  0  0  0  0
   -0.3350   16.9750   -0.2890 C   0  0  0  0  0  0  0  0  0  0  0  0
    2.0260   17.7130   -0.1060 C   0  0  0  0  0  0  0  0  0  0  0  0
    1.0650   13.1940   -2.5760 C   0  0  1  0  0  0  0  0  0  0  0  0
    2.2290   13.1420   -3.6120 C   0  0  0  0  0  0  0  0  0  0  0  0
   -0.1400   12.4130   -3.2230 C   0  0  0  0  0  0  0  0  0  0  0  0
   -1.1530   11.7730   -2.2540 C   0  0  0  0  0  0  0  0  0  0  0  0
   -0.4380   10.9570   -1.1730 C   0  0  2  0  0  0  0  0  0  0  0  0
    0.3270    9.7890   -1.8830 C   0  0  0  0  0  0  0  0  0  0  0  0
   -0.9864    7.7146   -1.6164 H   0  0  0  0  0  0  0  0  0  0  0  0
   -2.5568    8.2051   -2.3372 H   0  0  0  0  0  0  0  0  0  0  0  0
   -1.1721    9.3494   -2.3372 H   0  0  0  0  0  0  0  0  0  0  0  0
   -1.9509    8.3164    0.3344 H   0  0  0  0  0  0  0  0  0  0  0  0
   -3.8396   10.0901    0.4603 H   0  0  0  0  0  0  0  0  0  0  0  0
   -3.8832    9.8929   -1.3569 H   0  0  0  0  0  0  0  0  0  0  0  0
   -3.9112    7.3311    0.0455 H   0  0  0  0  0  0  0  0  0  0  0  0
   -5.3040    8.4011    0.4958 H   0  0  0  0  0  0  0  0  0  0  0  0
   -4.2683    7.5274   -1.9953 H   0  0  0  0  0  0  0  0  0  0  0  0
   -6.8186    7.2381    0.4945 H   0  0  0  0  0  0  0  0  0  0  0  0
   -8.3134    7.7031   -0.3865 H   0  0  0  0  0  0  0  0  0  0  0  0
   -7.7664    5.9921   -0.3865 H   0  0  0  0  0  0  0  0  0  0  0  0
   -7.5423    5.6213   -2.5752 H   0  0  0  0  0  0  0  0  0  0  0  0
   -7.7177    7.1764   -3.4570 H   0  0  0  0  0  0  0  0  0  0  0  0
   -6.1404    6.3168   -3.4570 H   0  0  0  0  0  0  0  0  0  0  0  0
   -2.1497   11.0337    0.1844 H   0  0  0  0  0  0  0  0  0  0  0  0
   -0.7597   10.3948    2.0533 H   0  0  0  0  0  0  0  0  0  0  0  0
   -0.0498    9.0332    1.1595 H   0  0  0  0  0  0  0  0  0  0  0  0
    1.2372   11.5304    1.6798 H   0  0  0  0  0  0  0  0  0  0  0  0
    1.7977   10.3592    0.4890 H   0  0  0  0  0  0  0  0  0  0  0  0
   -0.2024   12.9283    1.4892 H   0  0  0  0  0  0  0  0  0  0  0  0
    0.1308   14.0404    0.1185 H   0  0  0  0  0  0  0  0  0  0  0  0
   -1.3584   13.0359    0.1185 H   0  0  0  0  0  0  0  0  0  0  0  0
    2.1256   11.5819   -1.5767 H   0  0  0  0  0  0  0  0  0  0  0  0
    2.7489   12.9990    0.4837 H   0  0  0  0  0  0  0  0  0  0  0  0
    3.5741   13.2651   -1.1404 H   0  0  0  0  0  0  0  0  0  0  0  0
    2.9255   15.4335    0.2074 H   0  0  0  0  0  0  0  0  0  0  0  0
   -0.3925   14.5930   -1.9334 H   0  0  0  0  0  0  0  0  0  0  0  0
    1.6318   15.6014   -4.0257 H   0  0  0  0  0  0  0  0  0  0  0  0
   -0.0720   15.0424   -4.3344 H   0  0  0  0  0  0  0  0  0  0  0  0
    0.1226   17.5088   -4.3549 H   0  0  0  0  0  0  0  0  0  0  0  0
   -0.9483   16.8956   -3.0346 H   0  0  0  0  0  0  0  0  0  0  0  0
    0.4326   18.6492   -2.1542 H   0  0  0  0  0  0  0  0  0  0  0  0
    2.8570   17.3380   -2.4020 H   0  0  0  0  0  0  0  0  0  0  0  0
   -0.1745   16.9704    0.7992 H   0  0  0  0  0  0  0  0  0  0  0  0
   -0.8757   17.8889   -0.5761 H   0  0  0  0  0  0  0  0  0  0  0  0
   -0.9269   16.0934   -0.5761 H   0  0  0  0  0  0  0  0  0  0  0  0
    1.7833   17.5229    0.9499 H   0  0  0  0  0  0  0  0  0  0  0  0
    3.0526   17.3762   -0.3127 H   0  0  0  0  0  0  0  0  0  0  0  0
    1.9449   18.7904   -0.3127 H   0  0  0  0  0  0  0  0  0  0  0  0
    3.1912   13.0990   -3.0806 H   0  0  0  0  0  0  0  0  0  0  0  0
    2.1184   12.2479   -4.2432 H   0  0  0  0  0  0  0  0  0  0  0  0
    2.1986   14.0424   -4.2432 H   0  0  0  0  0  0  0  0  0  0  0  0
   -0.6906   13.1199   -3.8611 H   0  0  0  0  0  0  0  0  0  0  0  0
    0.3184   11.5690   -3.7593 H   0  0  0  0  0  0  0  0  0  0  0  0
   -1.7429   12.5676   -1.7737 H   0  0  0  0  0  0  0  0  0  0  0  0
   -1.8079   11.0993   -2.8261 H   0  0  0  0  0  0  0  0  0  0  0  0
    0.7636    9.1223   -1.1248 H   0  0  0  0  0  0  0  0  0  0  0  0
   -0.3740    9.2201   -2.5114 H   0  0  0  0  0  0  0  0  0  0  0  0
    1.1286   10.2043   -2.5114 H   0  0  0  0  0  0  0  0  0  0  0  0
  1  2  1  0
  2  3  1  0
  3  4  1  0
  4  5  1  0
  5  6  1  0
  6  7  1  0
  7  8  1  0
  7  9  1  0
  2 10  1  0
 10 11  1  0
 11 12  1  0
 12 13  1  0
 13 14  1  1
 13 15  1  0
 15 16  1  0
 16 17  1  0
 17 18  2  0
 18 19  1  0
 19 20  1  0
 20 21  1  0
 21 22  1  0
 22 23  1  0
 22 24  1  0
 24 25  1  0
 24 26  1  0
 19 27  1  0
 27 28  1  6
 27 29  1  0
 29 30  1  0
 30 31  1  0
 31 32  1  6
  7  5  1  0
 31 10  1  0
 31 13  1  0
 27 15  1  0
 24 18  1  0
  1 33  1  0
  1 34  1  0
  1 35  1  0
  2 36  1  1
  3 37  1  0
  3 38  1  0
  4 39  1  0
  4 40  1  0
  5 41  1  6
  8 42  1  0
  8 43  1  0
  8 44  1  0
  9 45  1  0
  9 46  1  0
  9 47  1  0
 10 48  1  1
 11 49  1  0
 11 50  1  0
 12 51  1  0
 12 52  1  0
 14 53  1  0
 14 54  1  0
 14 55  1  0
 15 56  1  6
 16 57  1  0
 16 58  1  0
 17 59  1  0
 19 60  1  1
 20 61  1  0
 20 62  1  0
 21 63  1  0
 21 64  1  0
 22 65  1  1
 23 66  1  0
 25 67  1  0
 25 68  1  0
 25 69  1  0
 26 70  1  0
 26 71  1  0
 26 72  1  0
 28 73  1  0
 28 74  1  0
 28 75  1  0
 29 76  1  0
 29 77  1  0
 30 78  1  0
 30 79  1  0
 32 80  1  0
 32 81  1  0
 32 82  1  0
M  END
>  <meeko>  (2) 
{"is_sidechain": [false], "intermolecular_energy": 2.731, "internal_energy": -0.839}

$$$$
EPH_relaxed_0001_pdb2pqr_Repair_253_r2_0001_out
     RDKit          3D

 82 86  0  0  0  0  0  0  0  0999 V2000
    1.5140   18.6970   -2.4450 C   0  0  0  0  0  0  0  0  0  0  0  0
    0.0070   18.4650   -2.3090 C   0  0  2  0  0  0  0  0  0  0  0  0
   -0.5180   18.8580   -0.9140 C   0  0  0  0  0  0  0  0  0  0  0  0
    0.3260   18.3080    0.2390 C   0  0  0  0  0  0  0  0  0  0  0  0
    1.0970   19.3920    0.9290 C   0  0  2  0  0  0  0  0  0  0  0  0
    1.9670   20.1460    0.0740 O   0  0  0  0  0  0  0  0  0  0  0  0
    2.6040   19.3690    1.1000 C   0  0  0  0  0  0  0  0  0  0  0  0
    3.4310   18.2350    0.5800 C   0  0  0  0  0  0  0  0  0  0  0  0
    3.2130   20.1940    2.1910 C   0  0  0  0  0  0  0  0  0  0  0  0
   -0.3220   17.0050   -2.5970 C   0  0  1  0  0  0  0  0  0  0  0  0
   -0.6270   16.7450   -4.0960 C   0  0  0  0  0  0  0  0  0  0  0  0
   -0.0800   15.3320   -4.4260 C   0  0  0  0  0  0  0  0  0  0  0  0
    0.2160   14.6980   -3.0470 C   0  0  1  0  0  0  0  0  0  0  0  0
   -1.1660   14.1820   -2.5370 C   0  0  0  0  0  0  0  0  0  0  0  0
    1.2980   13.5690   -3.0240 C   0  0  2  0  0  0  0  0  0  0  0  0
    0.9510   12.3170   -3.8480 C   0  0  0  0  0  0  0  0  0  0  0  0
    0.2220   11.2460   -3.1060 C   0  0  0  0  0  0  0  0  0  0  0  0
    0.1090   11.1600   -1.7680 C   0  0  0  0  0  0  0  0  0  0  0  0
    0.8340   12.1530   -0.8500 C   0  0  1  0  0  0  0  0  0  0  0  0
    1.5370   11.3800    0.2970 C   0  0  0  0  0  0  0  0  0  0  0  0
    0.5790   10.4720    1.0620 C   0  0  0  0  0  0  0  0  0  0  0  0
   -0.0780    9.4610    0.1260 C   0  0  2  0  0  0  0  0  0  0  0  0
    0.9230    8.5610   -0.3570 O   0  0  0  0  0  0  0  0  0  0  0  0
   -0.8100   10.1230   -1.0750 C   0  0  0  0  0  0  0  0  0  0  0  0
   -2.0780   10.8560   -0.5720 C   0  0  0  0  0  0  0  0  0  0  0  0
   -1.3060    8.9920   -2.0150 C   0  0  0  0  0  0  0  0  0  0  0  0
    1.8030   13.1850   -1.5740 C   0  0  1  0  0  0  0  0  0  0  0  0
    3.2180   12.5530   -1.7490 C   0  0  0  0  0  0  0  0  0  0  0  0
    1.9910   14.4470   -0.6520 C   0  0  0  0  0  0  0  0  0  0  0  0
    0.9590   15.5800   -0.8060 C   0  0  0  0  0  0  0  0  0  0  0  0
    0.7700   15.9530   -2.2800 C   0  0  2  0  0  0  0  0  0  0  0  0
    2.1390   16.4960   -2.8140 C   0  0  0  0  0  0  0  0  0  0  0  0
    1.9660   18.7666   -1.4446 H   0  0  0  0  0  0  0  0  0  0  0  0
    1.9661   17.8579   -2.9941 H   0  0  0  0  0  0  0  0  0  0  0  0
    1.6928   19.6332   -2.9941 H   0  0  0  0  0  0  0  0  0  0  0  0
   -0.4947   19.1114   -3.0442 H   0  0  0  0  0  0  0  0  0  0  0  0
   -0.5287   19.9557   -0.8436 H   0  0  0  0  0  0  0  0  0  0  0  0
   -1.5225   18.4210   -0.8139 H   0  0  0  0  0  0  0  0  0  0  0  0
   -0.3399   17.8245    0.9689 H   0  0  0  0  0  0  0  0  0  0  0  0
    1.0456   17.5874   -0.1767 H   0  0  0  0  0  0  0  0  0  0  0  0
    0.2758   19.5529    1.6430 H   0  0  0  0  0  0  0  0  0  0  0  0
    3.8459   17.6661    1.4251 H   0  0  0  0  0  0  0  0  0  0  0  0
    2.8018   17.5735   -0.0336 H   0  0  0  0  0  0  0  0  0  0  0  0
    4.2531   18.6320   -0.0336 H   0  0  0  0  0  0  0  0  0  0  0  0
    2.9133   19.7880    3.1684 H   0  0  0  0  0  0  0  0  0  0  0  0
    4.3091   20.1666    2.1030 H   0  0  0  0  0  0  0  0  0  0  0  0
    2.8639   21.2334    2.1030 H   0  0  0  0  0  0  0  0  0  0  0  0
   -1.1788   16.8733   -1.9198 H   0  0  0  0  0  0  0  0  0  0  0  0
   -1.7119   16.7821   -4.2737 H   0  0  0  0  0  0  0  0  0  0  0  0
   -0.1568   17.5089   -4.7327 H   0  0  0  0  0  0  0  0  0  0  0  0
   -0.8313   14.7422   -4.9716 H   0  0  0  0  0  0  0  0  0  0  0  0
    0.8119   15.3690   -5.0688 H   0  0  0  0  0  0  0  0  0  0  0  0
   -1.1732   14.1793   -1.4370 H   0  0  0  0  0  0  0  0  0  0  0  0
   -1.9635   14.8429   -2.9073 H   0  0  0  0  0  0  0  0  0  0  0  0
   -1.3352   13.1601   -2.9073 H   0  0  0  0  0  0  0  0  0  0  0  0
    2.1450   14.0426   -3.5419 H   0  0  0  0  0  0  0  0  0  0  0  0
    0.3233   12.6310   -4.6950 H   0  0  0  0  0  0  0  0  0  0  0  0
    1.9123   11.8765   -4.1509 H   0  0  0  0  0  0  0  0  0  0  0  0
   -0.2639   10.4608   -3.7038 H   0  0  0  0  0  0  0  0  0  0  0  0
    0.0545   12.8087   -0.4347 H   0  0  0  0  0  0  0  0  0  0  0  0
    2.3398   10.7633   -0.1334 H   0  0  0  0  0  0  0  0  0  0  0  0
    1.9331   12.1216    1.0063 H   0  0  0  0  0  0  0  0  0  0  0  0
    1.1386    9.9318    1.8398 H   0  0  0  0  0  0  0  0  0  0  0  0
   -0.2072   11.0934    1.5156 H   0  0  0  0  0  0  0  0  0  0  0  0
   -0.8458    8.9267    0.7048 H   0  0  0  0  0  0  0  0  0  0  0  0
    0.4700    7.8400   -0.8270 H   0  0  0  0  0  0  0  0  0  0  0  0
   -2.0866   10.8610    0.5280 H   0  0  0  0  0  0  0  0  0  0  0  0
   -2.0746   11.8914   -0.9433 H   0  0  0  0  0  0  0  0  0  0  0  0
   -2.9735   10.3363   -0.9433 H   0  0  0  0  0  0  0  0  0  0  0  0
   -1.6755    8.1496   -1.4118 H   0  0  0  0  0  0  0  0  0  0  0  0
   -2.1196    9.3731   -2.6497 H   0  0  0  0  0  0  0  0  0  0  0  0
   -0.4745    8.6517   -2.6497 H   0  0  0  0  0  0  0  0  0  0  0  0
    3.6569   12.3570   -0.7596 H   0  0  0  0  0  0  0  0  0  0  0  0
    3.1313   11.6081   -2.3054 H   0  0  0  0  0  0  0  0  0  0  0  0
    3.8638   13.2482   -2.3054 H   0  0  0  0  0  0  0  0  0  0  0  0
    1.9553   14.1042    0.3926 H   0  0  0  0  0  0  0  0  0  0  0  0
    2.9505   14.8880   -0.9601 H   0  0  0  0  0  0  0  0  0  0  0  0
   -0.0046   15.2477   -0.3925 H   0  0  0  0  0  0  0  0  0  0  0  0
    1.3258   16.4645   -0.2646 H   0  0  0  0  0  0  0  0  0  0  0  0
    2.7880   16.7534   -1.9640 H   0  0  0  0  0  0  0  0  0  0  0  0
    2.6263   15.7231   -3.4265 H   0  0  0  0  0  0  0  0  0  0  0  0
    1.9640   17.3928   -3.4265 H   0  0  0  0  0  0  0  0  0  0  0  0
  1  2  1  0
  2  3  1  0
  3  4  1  0
  4  5  1  0
  5  6  1  0
  6  7  1  0
  7  8  1  0
  7  9  1  0
  2 10  1  0
 10 11  1  0
 11 12  1  0
 12 13  1  0
 13 14  1  1
 13 15  1  0
 15 16  1  0
 16 17  1  0
 17 18  2  0
 18 19  1  0
 19 20  1  0
 20 21  1  0
 21 22  1  0
 22 23  1  0
 22 24  1  0
 24 25  1  0
 24 26  1  0
 19 27  1  0
 27 28  1  6
 27 29  1  0
 29 30  1  0
 30 31  1  0
 31 32  1  6
  7  5  1  0
 31 10  1  0
 31 13  1  0
 27 15  1  0
 24 18  1  0
  1 33  1  0
  1 34  1  0
  1 35  1  0
  2 36  1  6
  3 37  1  0
  3 38  1  0
  4 39  1  0
  4 40  1  0
  5 41  1  1
  8 42  1  0
  8 43  1  0
  8 44  1  0
  9 45  1  0
  9 46  1  0
  9 47  1  0
 10 48  1  1
 11 49  1  0
 11 50  1  0
 12 51  1  0
 12 52  1  0
 14 53  1  0
 14 54  1  0
 14 55  1  0
 15 56  1  6
 16 57  1  0
 16 58  1  0
 17 59  1  0
 19 60  1  1
 20 61  1  0
 20 62  1  0
 21 63  1  0
 21 64  1  0
 22 65  1  1
 23 66  1  0
 25 67  1  0
 25 68  1  0
 25 69  1  0
 26 70  1  0
 26 71  1  0
 26 72  1  0
 28 73  1  0
 28 74  1  0
 28 75  1  0
 29 76  1  0
 29 77  1  0
 30 78  1  0
 30 79  1  0
 32 80  1  0
 32 81  1  0
 32 82  1  0
M  END
>  <meeko>  (3) 
{"is_sidechain": [false], "intermolecular_energy": 2.731, "internal_energy": -0.839}

$$$$
EPH_relaxed_0001_pdb2pqr_Repair_253_r2_0001_out
     RDKit          3D

 82 86  0  0  0  0  0  0  0  0999 V2000
    1.2130   20.1690   -1.0130 C   0  0  0  0  0  0  0  0  0  0  0  0
    1.3070   19.4110    0.3140 C   0  0  2  0  0  0  0  0  0  0  0  0
    2.7680   19.1460    0.7290 C   0  0  0  0  0  0  0  0  0  0  0  0
    3.3140   20.1570    1.7410 C   0  0  0  0  0  0  0  0  0  0  0  0
    4.6260   19.7150    2.3140 C   0  0  2  0  0  0  0  0  0  0  0  0
    4.6320   18.3800    2.8360 O   0  0  0  0  0  0  0  0  0  0  0  0
    4.8430   19.4330    3.7890 C   0  0  0  0  0  0  0  0  0  0  0  0
    3.7340   19.5850    4.7830 C   0  0  0  0  0  0  0  0  0  0  0  0
    6.2370   19.4870    4.3310 C   0  0  0  0  0  0  0  0  0  0  0  0
    0.5460   18.0940    0.2160 C   0  0  1  0  0  0  0  0  0  0  0  0
   -0.9890   18.2800    0.3450 C   0  0  0  0  0  0  0  0  0  0  0  0
   -1.6460   17.2270   -0.5840 C   0  0  0  0  0  0  0  0  0  0  0  0
   -0.4960   16.2620   -0.9560 C   0  0  1  0  0  0  0  0  0  0  0  0
   -0.3740   15.2950    0.2630 C   0  0  0  0  0  0  0  0  0  0  0  0
   -0.6580   15.4800   -2.3000 C   0  0  2  0  0  0  0  0  0  0  0  0
   -1.8640   14.5260   -2.3580 C   0  0  0  0  0  0  0  0  0  0  0  0
   -1.5950   13.1300   -1.9030 C   0  0  0  0  0  0  0  0  0  0  0  0
   -0.3770   12.5830   -1.7340 C   0  0  0  0  0  0  0  0  0  0  0  0
    0.8930   13.3590   -2.1040 C   0  0  1  0  0  0  0  0  0  0  0  0
    1.8430   12.4410   -2.9180 C   0  0  0  0  0  0  0  0  0  0  0  0
    2.1490   11.1310   -2.1980 C   0  0  0  0  0  0  0  0  0  0  0  0
    0.8650   10.3610   -1.8990 C   0  0  2  0  0  0  0  0  0  0  0  0
    0.2840    9.9350   -3.1350 O   0  0  0  0  0  0  0  0  0  0  0  0
   -0.1730   11.1890   -1.0910 C   0  0  0  0  0  0  0  0  0  0  0  0
    0.3370   11.3920    0.3570 C   0  0  0  0  0  0  0  0  0  0  0  0
   -1.4730   10.3470   -0.9800 C   0  0  0  0  0  0  0  0  0  0  0  0
    0.6650   14.7700   -2.8000 C   0  0  1  0  0  0  0  0  0  0  0  0
    0.5170   14.5860   -4.3410 C   0  0  0  0  0  0  0  0  0  0  0  0
    1.9430   15.6640   -2.5800 C   0  0  0  0  0  0  0  0  0  0  0  0
    1.9890   16.5050   -1.2900 C   0  0  0  0  0  0  0  0  0  0  0  0
    0.6870   17.2880   -1.0990 C   0  0  2  0  0  0  0  0  0  0  0  0
    0.5480   18.2850   -2.3000 C   0  0  0  0  0  0  0  0  0  0  0  0
    1.0799   21.2425   -0.8134 H   0  0  0  0  0  0  0  0  0  0  0  0
    2.1371   20.0151   -1.5895 H   0  0  0  0  0  0  0  0  0  0  0  0
    0.3545   19.7940   -1.5895 H   0  0  0  0  0  0  0  0  0  0  0  0
    0.8533   20.0451    1.0899 H   0  0  0  0  0  0  0  0  0  0  0  0
    2.8255   18.1423    1.1754 H   0  0  0  0  0  0  0  0  0  0  0  0
    3.3816   19.2374   -0.1794 H   0  0  0  0  0  0  0  0  0  0  0  0
    3.4529   21.1253    1.2379 H   0  0  0  0  0  0  0  0  0  0  0  0
    2.5909   20.2411    2.5656 H   0  0  0  0  0  0  0  0  0  0  0  0
    5.1768   20.3367    1.5928 H   0  0  0  0  0  0  0  0  0  0  0  0
    4.1446   19.5287    5.8019 H   0  0  0  0  0  0  0  0  0  0  0  0
    3.2432   20.5588    4.6387 H   0  0  0  0  0  0  0  0  0  0  0  0
    2.9993   18.7792    4.6387 H   0  0  0  0  0  0  0  0  0  0  0  0
    6.2032   19.4857    5.4305 H   0  0  0  0  0  0  0  0  0  0  0  0
    6.8009   18.6100    3.9804 H   0  0  0  0  0  0  0  0  0  0  0  0
    6.7314   20.4050    3.9804 H   0  0  0  0  0  0  0  0  0  0  0  0
    1.0175   17.5462    1.0452 H   0  0  0  0  0  0  0  0  0  0  0  0
   -1.3044   18.1162    1.3860 H   0  0  0  0  0  0  0  0  0  0  0  0
   -1.2889   19.2995    0.0611 H   0  0  0  0  0  0  0  0  0  0  0  0
   -2.4479   16.6901   -0.0561 H   0  0  0  0  0  0  0  0  0  0  0  0
   -2.1094   17.6846   -1.4705 H   0  0  0  0  0  0  0  0  0  0  0  0
   -0.4467   15.8715    1.1970 H   0  0  0  0  0  0  0  0  0  0  0  0
   -1.1857   14.5536    0.2256 H   0  0  0  0  0  0  0  0  0  0  0  0
    0.5964   14.7784    0.2256 H   0  0  0  0  0  0  0  0  0  0  0  0
   -0.8787   16.2849   -3.0166 H   0  0  0  0  0  0  0  0  0  0  0  0
   -2.6586   14.9436   -1.7222 H   0  0  0  0  0  0  0  0  0  0  0  0
   -2.1426   14.4518   -3.4195 H   0  0  0  0  0  0  0  0  0  0  0  0
   -2.4664   12.4943   -1.6875 H   0  0  0  0  0  0  0  0  0  0  0  0
    1.3677   13.6365   -1.1513 H   0  0  0  0  0  0  0  0  0  0  0  0
    1.3690   12.2104   -3.8835 H   0  0  0  0  0  0  0  0  0  0  0  0
    2.7933   12.9785   -3.0519 H   0  0  0  0  0  0  0  0  0  0  0  0
    2.7993   10.5134   -2.8349 H   0  0  0  0  0  0  0  0  0  0  0  0
    2.6502   11.3617   -1.2464 H   0  0  0  0  0  0  0  0  0  0  0  0
    1.1362    9.5001   -1.2702 H   0  0  0  0  0  0  0  0  0  0  0  0
   -0.5990    9.5790   -2.9380 H   0  0  0  0  0  0  0  0  0  0  0  0
   -0.4432   11.0814    1.0675 H   0  0  0  0  0  0  0  0  0  0  0  0
    1.2404   10.7849    0.5161 H   0  0  0  0  0  0  0  0  0  0  0  0
    0.5761   12.4539    0.5161 H   0  0  0  0  0  0  0  0  0  0  0  0
   -1.7177   10.1885    0.0806 H   0  0  0  0  0  0  0  0  0  0  0  0
   -2.2993   10.8819   -1.4710 H   0  0  0  0  0  0  0  0  0  0  0  0
   -1.3228    9.3742   -1.4710 H   0  0  0  0  0  0  0  0  0  0  0  0
   -0.1603   13.7439   -4.5463 H   0  0  0  0  0  0  0  0  0  0  0  0
    0.1036   15.5050   -4.7820 H   0  0  0  0  0  0  0  0  0  0  0  0
    1.5033   14.3792   -4.7820 H   0  0  0  0  0  0  0  0  0  0  0  0
    2.8182   14.9977   -2.5742 H   0  0  0  0  0  0  0  0  0  0  0  0
    1.9265   16.3964   -3.4005 H   0  0  0  0  0  0  0  0  0  0  0  0
    2.1360   15.8359   -0.4294 H   0  0  0  0  0  0  0  0  0  0  0  0
    2.8205   17.2210   -1.3677 H   0  0  0  0  0  0  0  0  0  0  0  0
    0.4057   19.3055   -1.9148 H   0  0  0  0  0  0  0  0  0  0  0  0
    1.4599   18.2487   -2.9141 H   0  0  0  0  0  0  0  0  0  0  0  0
   -0.3192   18.0007   -2.9141 H   0  0  0  0  0  0  0  0  0  0  0  0
  1  2  1  0
  2  3  1  0
  3  4  1  0
  4  5  1  0
  5  6  1  0
  6  7  1  0
  7  8  1  0
  7  9  1  0
  2 10  1  0
 10 11  1  0
 11 12  1  0
 12 13  1  0
 13 14  1  1
 13 15  1  0
 15 16  1  0
 16 17  1  0
 17 18  2  0
 18 19  1  0
 19 20  1  0
 20 21  1  0
 21 22  1  0
 22 23  1  0
 22 24  1  0
 24 25  1  0
 24 26  1  0
 19 27  1  0
 27 28  1  6
 27 29  1  0
 29 30  1  0
 30 31  1  0
 31 32  1  6
  7  5  1  0
 31 10  1  0
 31 13  1  0
 27 15  1  0
 24 18  1  0
  1 33  1  0
  1 34  1  0
  1 35  1  0
  2 36  1  1
  3 37  1  0
  3 38  1  0
  4 39  1  0
  4 40  1  0
  5 41  1  6
  8 42  1  0
  8 43  1  0
  8 44  1  0
  9 45  1  0
  9 46  1  0
  9 47  1  0
 10 48  1  1
 11 49  1  0
 11 50  1  0
 12 51  1  0
 12 52  1  0
 14 53  1  0
 14 54  1  0
 14 55  1  0
 15 56  1  6
 16 57  1  0
 16 58  1  0
 17 59  1  0
 19 60  1  1
 20 61  1  0
 20 62  1  0
 21 63  1  0
 21 64  1  0
 22 65  1  1
 23 66  1  0
 25 67  1  0
 25 68  1  0
 25 69  1  0
 26 70  1  0
 26 71  1  0
 26 72  1  0
 28 73  1  0
 28 74  1  0
 28 75  1  0
 29 76  1  0
 29 77  1  0
 30 78  1  0
 30 79  1  0
 32 80  1  0
 32 81  1  0
 32 82  1  0
M  END
>  <meeko>  (4) 
{"is_sidechain": [false], "intermolecular_energy": 2.731, "internal_energy": -0.839}

$$$$
EPH_relaxed_0001_pdb2pqr_Repair_253_r2_0001_out
     RDKit          3D

 82 86  0  0  0  0  0  0  0  0999 V2000
    3.5950   17.6570   -0.3770 C   0  0  0  0  0  0  0  0  0  0  0  0
    2.3830   17.9210   -1.2750 C   0  0  2  0  0  0  0  0  0  0  0  0
    1.7370   19.2920   -0.9900 C   0  0  0  0  0  0  0  0  0  0  0  0
    1.0080   19.3600    0.3550 C   0  0  0  0  0  0  0  0  0  0  0  0
   -0.2890   20.1040    0.2450 C   0  0  2  0  0  0  0  0  0  0  0  0
   -1.0330   20.1940    1.4670 O   0  0  0  0  0  0  0  0  0  0  0  0
   -1.6470   19.4460    0.4040 C   0  0  0  0  0  0  0  0  0  0  0  0
   -1.7760   17.9820    0.6870 C   0  0  0  0  0  0  0  0  0  0  0  0
   -2.8430   20.1200   -0.1940 C   0  0  0  0  0  0  0  0  0  0  0  0
    1.3530   16.8120   -1.0970 C   0  0  1  0  0  0  0  0  0  0  0  0
   -0.0730   17.2470   -1.5280 C   0  0  0  0  0  0  0  0  0  0  0  0
   -0.7550   15.9980   -2.1430 C   0  0  0  0  0  0  0  0  0  0  0  0
    0.1640   14.8180   -1.7480 C   0  0  1  0  0  0  0  0  0  0  0  0
   -0.2370   14.4700   -0.2810 C   0  0  0  0  0  0  0  0  0  0  0  0
    0.1100   13.5600   -2.6750 C   0  0  2  0  0  0  0  0  0  0  0  0
   -1.2550   12.8530   -2.7370 C   0  0  0  0  0  0  0  0  0  0  0  0
   -1.4590   11.7710   -1.7290 C   0  0  0  0  0  0  0  0  0  0  0  0
   -0.4900   11.1880   -0.9990 C   0  0  0  0  0  0  0  0  0  0  0  0
    0.9860   11.5420   -1.2250 C   0  0  1  0  0  0  0  0  0  0  0  0
    1.8260   10.2400   -1.2950 C   0  0  0  0  0  0  0  0  0  0  0  0
    1.6200    9.3440   -0.0770 C   0  0  0  0  0  0  0  0  0  0  0  0
    0.1490    8.9670    0.0800 C   0  0  2  0  0  0  0  0  0  0  0  0
   -0.2320    8.1320   -1.0180 O   0  0  0  0  0  0  0  0  0  0  0  0
   -0.7950   10.1990    0.1520 C   0  0  0  0  0  0  0  0  0  0  0  0
   -0.5850   10.9380    1.4970 C   0  0  0  0  0  0  0  0  0  0  0  0
   -2.2580    9.6790    0.1670 C   0  0  0  0  0  0  0  0  0  0  0  0
    1.2850   12.5270   -2.4360 C   0  0  1  0  0  0  0  0  0  0  0  0
    1.4400   11.7150   -3.7570 C   0  0  0  0  0  0  0  0  0  0  0  0
    2.6670   13.2400   -2.1880 C   0  0  0  0  0  0  0  0  0  0  0  0
    2.6400   14.5430   -1.3660 C   0  0  0  0  0  0  0  0  0  0  0  0
    1.5710   15.5040   -1.8970 C   0  0  2  0  0  0  0  0  0  0  0  0
    1.9610   15.8890   -3.3650 C   0  0  0  0  0  0  0  0  0  0  0  0
    3.2910   17.7232    0.6781 H   0  0  0  0  0  0  0  0  0  0  0  0
    3.9912   16.6515   -0.5820 H   0  0  0  0  0  0  0  0  0  0  0  0
    4.3735   18.4066   -0.5820 H   0  0  0  0  0  0  0  0  0  0  0  0
    2.7385   17.9340   -2.3159 H   0  0  0  0  0  0  0  0  0  0  0  0
    2.5277   20.0567   -0.9957 H   0  0  0  0  0  0  0  0  0  0  0  0
    0.9838   19.4621   -1.7734 H   0  0  0  0  0  0  0  0  0  0  0  0
    0.8036   18.3364    0.7020 H   0  0  0  0  0  0  0  0  0  0  0  0
    1.6519   19.8962    1.0676 H   0  0  0  0  0  0  0  0  0  0  0  0
    0.1261   20.7598   -0.5345 H   0  0  0  0  0  0  0  0  0  0  0  0
   -1.7904   17.8187    1.7747 H   0  0  0  0  0  0  0  0  0  0  0  0
   -2.7109   17.6045    0.2471 H   0  0  0  0  0  0  0  0  0  0  0  0
   -0.9215   17.4468    0.2471 H   0  0  0  0  0  0  0  0  0  0  0  0
   -3.4967   20.4884    0.6104 H   0  0  0  0  0  0  0  0  0  0  0  0
   -2.5145   20.9658   -0.8158 H   0  0  0  0  0  0  0  0  0  0  0  0
   -3.3964   19.4009   -0.8158 H   0  0  0  0  0  0  0  0  0  0  0  0
    1.4737   16.6190   -0.0208 H   0  0  0  0  0  0  0  0  0  0  0  0
   -0.6422   17.5979   -0.6545 H   0  0  0  0  0  0  0  0  0  0  0  0
   -0.0316   18.0721   -2.2542 H   0  0  0  0  0  0  0  0  0  0  0  0
   -1.7636   15.8613   -1.7259 H   0  0  0  0  0  0  0  0  0  0  0  0
   -0.8787   16.0840   -3.2326 H   0  0  0  0  0  0  0  0  0  0  0  0
    0.4053   15.0274    0.4167 H   0  0  0  0  0  0  0  0  0  0  0  0
   -1.2882   14.7470   -0.1127 H   0  0  0  0  0  0  0  0  0  0  0  0
   -0.1108   13.3903   -0.1127 H   0  0  0  0  0  0  0  0  0  0  0  0
    0.2664   13.9963   -3.6726 H   0  0  0  0  0  0  0  0  0  0  0  0
   -2.0376   13.6110   -2.5851 H   0  0  0  0  0  0  0  0  0  0  0  0
   -1.3001   12.3643   -3.7214 H   0  0  0  0  0  0  0  0  0  0  0  0
   -2.4892   11.4202   -1.5691 H   0  0  0  0  0  0  0  0  0  0  0  0
    1.2929   12.1375   -0.3526 H   0  0  0  0  0  0  0  0  0  0  0  0
    1.5356    9.6812   -2.1969 H   0  0  0  0  0  0  0  0  0  0  0  0
    2.8872   10.5285   -1.3214 H   0  0  0  0  0  0  0  0  0  0  0  0
    2.2155    8.4273   -0.1995 H   0  0  0  0  0  0  0  0  0  0  0  0
    1.9397    9.8930    0.8210 H   0  0  0  0  0  0  0  0  0  0  0  0
    0.0446    8.4363    1.0379 H   0  0  0  0  0  0  0  0  0  0  0  0
   -1.2000    8.0430   -0.9970 H   0  0  0  0  0  0  0  0  0  0  0  0
   -0.7814   10.2467    2.3298 H   0  0  0  0  0  0  0  0  0  0  0  0
    0.4517   11.3006    1.5582 H   0  0  0  0  0  0  0  0  0  0  0  0
   -1.2761   11.7916    1.5582 H   0  0  0  0  0  0  0  0  0  0  0  0
   -2.5940    9.5596    1.2076 H   0  0  0  0  0  0  0  0  0  0  0  0
   -2.9090   10.4008   -0.3480 H   0  0  0  0  0  0  0  0  0  0  0  0
   -2.3074    8.7082   -0.3480 H   0  0  0  0  0  0  0  0  0  0  0  0
    1.6413   10.6604   -3.5177 H   0  0  0  0  0  0  0  0  0  0  0  0
    0.5118   11.7873   -4.3429 H   0  0  0  0  0  0  0  0  0  0  0  0
    2.2763   12.1241   -4.3429 H   0  0  0  0  0  0  0  0  0  0  0  0
    3.3189   12.5277   -1.6610 H   0  0  0  0  0  0  0  0  0  0  0  0
    3.0202   13.5373   -3.1864 H   0  0  0  0  0  0  0  0  0  0  0  0
    2.4175   14.3017   -0.3161 H   0  0  0  0  0  0  0  0  0  0  0  0
    3.6225   15.0306   -1.4489 H   0  0  0  0  0  0  0  0  0  0  0  0
    2.7437   16.6617   -3.3458 H   0  0  0  0  0  0  0  0  0  0  0  0
    2.3375   14.9986   -3.8899 H   0  0  0  0  0  0  0  0  0  0  0  0
    1.0756   16.2770   -3.8899 H   0  0  0  0  0  0  0  0  0  0  0  0
  1  2  1  0
  2  3  1  0
  3  4  1  0
  4  5  1  0
  5  6  1  0
  6  7  1  0
  7  8  1  0
  7  9  1  0
  2 10  1  0
 10 11  1  0
 11 12  1  0
 12 13  1  0
 13 14  1  1
 13 15  1  0
 15 16  1  0
 16 17  1  0
 17 18  2  0
 18 19  1  0
 19 20  1  0
 20 21  1  0
 21 22  1  0
 22 23  1  0
 22 24  1  0
 24 25  1  0
 24 26  1  0
 19 27  1  0
 27 28  1  6
 27 29  1  0
 29 30  1  0
 30 31  1  0
 31 32  1  6
  7  5  1  0
 31 10  1  0
 31 13  1  0
 27 15  1  0
 24 18  1  0
  1 33  1  0
  1 34  1  0
  1 35  1  0
  2 36  1  6
  3 37  1  0
  3 38  1  0
  4 39  1  0
  4 40  1  0
  5 41  1  6
  8 42  1  0
  8 43  1  0
  8 44  1  0
  9 45  1  0
  9 46  1  0
  9 47  1  0
 10 48  1  1
 11 49  1  0
 11 50  1  0
 12 51  1  0
 12 52  1  0
 14 53  1  0
 14 54  1  0
 14 55  1  0
 15 56  1  6
 16 57  1  0
 16 58  1  0
 17 59  1  0
 19 60  1  1
 20 61  1  0
 20 62  1  0
 21 63  1  0
 21 64  1  0
 22 65  1  1
 23 66  1  0
 25 67  1  0
 25 68  1  0
 25 69  1  0
 26 70  1  0
 26 71  1  0
 26 72  1  0
 28 73  1  0
 28 74  1  0
 28 75  1  0
 29 76  1  0
 29 77  1  0
 30 78  1  0
 30 79  1  0
 32 80  1  0
 32 81  1  0
 32 82  1  0
M  END
>  <meeko>  (5) 
{"is_sidechain": [false], "intermolecular_energy": 2.731, "internal_energy": -0.839}

$$$$
EPH_relaxed_0001_pdb2pqr_Repair_253_r2_0001_out
     RDKit          3D

 82 86  0  0  0  0  0  0  0  0999 V2000
    1.9670   18.8920   -2.4570 C   0  0  0  0  0  0  0  0  0  0  0  0
    0.9230   18.4350   -1.4350 C   0  0  2  0  0  0  0  0  0  0  0  0
    1.5040   18.3480   -0.0100 C   0  0  0  0  0  0  0  0  0  0  0  0
    0.6710   19.0870    1.0410 C   0  0  0  0  0  0  0  0  0  0  0  0
   -0.4000   19.9250    0.4110 C   0  0  2  0  0  0  0  0  0  0  0  0
   -1.5260   20.1930    1.2560 O   0  0  0  0  0  0  0  0  0  0  0  0
   -1.7870   19.4040    0.0840 C   0  0  0  0  0  0  0  0  0  0  0  0
   -2.1780   17.9900    0.3770 C   0  0  0  0  0  0  0  0  0  0  0  0
   -2.5930   20.1180   -0.9560 C   0  0  0  0  0  0  0  0  0  0  0  0
    0.3480   17.0850   -1.8470 C   0  0  1  0  0  0  0  0  0  0  0  0
   -0.2000   17.0860   -3.2980 C   0  0  0  0  0  0  0  0  0  0  0  0
    0.0840   15.6800   -3.8850 C   0  0  0  0  0  0  0  0  0  0  0  0
    0.4790   14.8190   -2.6630 C   0  0  1  0  0  0  0  0  0  0  0  0
   -0.8770   14.4090   -2.0060 C   0  0  0  0  0  0  0  0  0  0  0  0
    1.3780   13.5740   -2.9550 C   0  0  2  0  0  0  0  0  0  0  0  0
    0.7410   12.5080   -3.8640 C   0  0  0  0  0  0  0  0  0  0  0  0
   -0.0220   11.4390   -3.1540 C   0  0  0  0  0  0  0  0  0  0  0  0
    0.0450   11.1740   -1.8360 C   0  0  0  0  0  0  0  0  0  0  0  0
    1.0290   11.9250   -0.9310 C   0  0  1  0  0  0  0  0  0  0  0  0
    1.7690   10.9120   -0.0170 C   0  0  0  0  0  0  0  0  0  0  0  0
    0.8090   10.0270    0.7720 C   0  0  0  0  0  0  0  0  0  0  0  0
   -0.1140    9.2520   -0.1650 C   0  0  2  0  0  0  0  0  0  0  0  0
    0.6680    8.3160   -0.9130 O   0  0  0  0  0  0  0  0  0  0  0  0
   -0.9060   10.1680   -1.1410 C   0  0  0  0  0  0  0  0  0  0  0  0
   -1.9700   10.9710   -0.3530 C   0  0  0  0  0  0  0  0  0  0  0  0
   -1.6890    9.2560   -2.1230 C   0  0  0  0  0  0  0  0  0  0  0  0
    2.0240   12.9230   -1.6660 C   0  0  1  0  0  0  0  0  0  0  0  0
    3.2930   12.1540   -2.1430 C   0  0  0  0  0  0  0  0  0  0  0  0
    2.5210   14.0040   -0.6350 C   0  0  0  0  0  0  0  0  0  0  0  0
    1.6520   15.2670   -0.4780 C   0  0  0  0  0  0  0  0  0  0  0  0
    1.3120   15.8710   -1.8440 C   0  0  2  0  0  0  0  0  0  0  0  0
    2.6550   16.3130   -2.5190 C   0  0  0  0  0  0  0  0  0  0  0  0
    2.8514   19.2791   -1.9297 H   0  0  0  0  0  0  0  0  0  0  0  0
    2.2601   18.0399   -3.0879 H   0  0  0  0  0  0  0  0  0  0  0  0
    1.5398   19.6854   -3.0879 H   0  0  0  0  0  0  0  0  0  0  0  0
    0.1233   19.1901   -1.4192 H   0  0  0  0  0  0  0  0  0  0  0  0
    1.5632   17.2877    0.2767 H   0  0  0  0  0  0  0  0  0  0  0  0
    2.4915   18.8319   -0.0356 H   0  0  0  0  0  0  0  0  0  0  0  0
    0.2003   18.3484    1.7066 H   0  0  0  0  0  0  0  0  0  0  0  0
    1.3416   19.7536    1.6031 H   0  0  0  0  0  0  0  0  0  0  0  0
    0.3454   20.4663   -0.1901 H   0  0  0  0  0  0  0  0  0  0  0  0
   -2.2197   17.8392    1.4658 H   0  0  0  0  0  0  0  0  0  0  0  0
   -3.1666   17.7849   -0.0597 H   0  0  0  0  0  0  0  0  0  0  0  0
   -1.4352   17.3062   -0.0597 H   0  0  0  0  0  0  0  0  0  0  0  0
   -3.3297   20.7706   -0.4648 H   0  0  0  0  0  0  0  0  0  0  0  0
   -1.9252   20.7263   -1.5837 H   0  0  0  0  0  0  0  0  0  0  0  0
   -3.1163   19.3817   -1.5837 H   0  0  0  0  0  0  0  0  0  0  0  0
   -0.4147   16.9630   -1.0638 H   0  0  0  0  0  0  0  0  0  0  0  0
   -1.2822   17.2831   -3.2939 H   0  0  0  0  0  0  0  0  0  0  0  0
    0.2813   17.8700   -3.9011 H   0  0  0  0  0  0  0  0  0  0  0  0
   -0.8148   15.2738   -4.3719 H   0  0  0  0  0  0  0  0  0  0  0  0
    0.8714   15.7001   -4.6529 H   0  0  0  0  0  0  0  0  0  0  0  0
   -0.7777   14.4390   -0.9109 H   0  0  0  0  0  0  0  0  0  0  0  0
   -1.6642   15.1093   -2.3221 H   0  0  0  0  0  0  0  0  0  0  0  0
   -1.1443   13.3899   -2.3221 H   0  0  0  0  0  0  0  0  0  0  0  0
    2.2021   14.0107   -3.5382 H   0  0  0  0  0  0  0  0  0  0  0  0
    0.0515   13.0171   -4.5535 H   0  0  0  0  0  0  0  0  0  0  0  0
    1.5757   12.0013   -4.3706 H   0  0  0  0  0  0  0  0  0  0  0  0
   -0.6960   10.8151   -3.7593 H   0  0  0  0  0  0  0  0  0  0  0  0
    0.4195   12.6052   -0.3179 H   0  0  0  0  0  0  0  0  0  0  0  0
    2.4054   10.2705   -0.6443 H   0  0  0  0  0  0  0  0  0  0  0  0
    2.3640   11.4880    0.7070 H   0  0  0  0  0  0  0  0  0  0  0  0
    1.3901    9.3142    1.3756 H   0  0  0  0  0  0  0  0  0  0  0  0
    0.1933   10.6678    1.4203 H   0  0  0  0  0  0  0  0  0  0  0  0
   -0.8601    8.7378    0.4586 H   0  0  0  0  0  0  0  0  0  0  0  0
    0.3960    7.4230   -0.6410 H   0  0  0  0  0  0  0  0  0  0  0  0
   -1.8007   10.8432    0.7264 H   0  0  0  0  0  0  0  0  0  0  0  0
   -1.8915   12.0370   -0.6128 H   0  0  0  0  0  0  0  0  0  0  0  0
   -2.9736   10.6032   -0.6128 H   0  0  0  0  0  0  0  0  0  0  0  0
   -2.3014    8.5427   -1.5518 H   0  0  0  0  0  0  0  0  0  0  0  0
   -2.3417    9.8745   -2.7566 H   0  0  0  0  0  0  0  0  0  0  0  0
   -0.9788    8.7044   -2.7566 H   0  0  0  0  0  0  0  0  0  0  0  0
    3.8630   11.8086   -1.2679 H   0  0  0  0  0  0  0  0  0  0  0  0
    2.9903   11.2872   -2.7489 H   0  0  0  0  0  0  0  0  0  0  0  0
    3.9213   12.8235   -2.7489 H   0  0  0  0  0  0  0  0  0  0  0  0
    2.5845   13.5193    0.3504 H   0  0  0  0  0  0  0  0  0  0  0  0
    3.4805   14.3632   -1.0353 H   0  0  0  0  0  0  0  0  0  0  0  0
    0.7190   14.9999    0.0398 H   0  0  0  0  0  0  0  0  0  0  0  0
    2.2157   16.0108    0.1042 H   0  0  0  0  0  0  0  0  0  0  0  0
    3.3937   16.5561   -1.7411 H   0  0  0  0  0  0  0  0  0  0  0  0
    3.0379   15.4935   -3.1449 H   0  0  0  0  0  0  0  0  0  0  0  0
    2.4763   17.1997   -3.1449 H   0  0  0  0  0  0  0  0  0  0  0  0
  1  2  1  0
  2  3  1  0
  3  4  1  0
  4  5  1  0
  5  6  1  0
  6  7  1  0
  7  8  1  0
  7  9  1  0
  2 10  1  0
 10 11  1  0
 11 12  1  0
 12 13  1  0
 13 14  1  1
 13 15  1  0
 15 16  1  0
 16 17  1  0
 17 18  2  0
 18 19  1  0
 19 20  1  0
 20 21  1  0
 21 22  1  0
 22 23  1  0
 22 24  1  0
 24 25  1  0
 24 26  1  0
 19 27  1  0
 27 28  1  6
 27 29  1  0
 29 30  1  0
 30 31  1  0
 31 32  1  6
  7  5  1  0
 31 10  1  0
 31 13  1  0
 27 15  1  0
 24 18  1  0
  1 33  1  0
  1 34  1  0
  1 35  1  0
  2 36  1  1
  3 37  1  0
  3 38  1  0
  4 39  1  0
  4 40  1  0
  5 41  1  6
  8 42  1  0
  8 43  1  0
  8 44  1  0
  9 45  1  0
  9 46  1  0
  9 47  1  0
 10 48  1  1
 11 49  1  0
 11 50  1  0
 12 51  1  0
 12 52  1  0
 14 53  1  0
 14 54  1  0
 14 55  1  0
 15 56  1  6
 16 57  1  0
 16 58  1  0
 17 59  1  0
 19 60  1  1
 20 61  1  0
 20 62  1  0
 21 63  1  0
 21 64  1  0
 22 65  1  1
 23 66  1  0
 25 67  1  0
 25 68  1  0
 25 69  1  0
 26 70  1  0
 26 71  1  0
 26 72  1  0
 28 73  1  0
 28 74  1  0
 28 75  1  0
 29 76  1  0
 29 77  1  0
 30 78  1  0
 30 79  1  0
 32 80  1  0
 32 81  1  0
 32 82  1  0
M  END
>  <meeko>  (6) 
{"is_sidechain": [false], "intermolecular_energy": 2.731, "internal_energy": -0.839}

$$$$
EPH_relaxed_0001_pdb2pqr_Repair_253_r2_0001_out
     RDKit          3D

 82 86  0  0  0  0  0  0  0  0999 V2000
    0.2150    8.9830   -1.9450 C   0  0  0  0  0  0  0  0  0  0  0  0
    1.0550    9.5970   -0.8220 C   0  0  2  0  0  0  0  0  0  0  0  0
    0.2770    9.6770    0.5070 C   0  0  0  0  0  0  0  0  0  0  0  0
    0.9720   10.5230    1.5770 C   0  0  0  0  0  0  0  0  0  0  0  0
    0.0680   11.5920    2.1120 C   0  0  2  0  0  0  0  0  0  0  0  0
    0.6000   12.9210    2.0320 O   0  0  0  0  0  0  0  0  0  0  0  0
    0.3790   12.4060    3.3550 C   0  0  0  0  0  0  0  0  0  0  0  0
    1.6340   12.1840    4.1390 C   0  0  0  0  0  0  0  0  0  0  0  0
   -0.7520   13.0670    4.0780 C   0  0  0  0  0  0  0  0  0  0  0  0
    1.5330   10.9850   -1.2300 C   0  0  1  0  0  0  0  0  0  0  0  0
    2.4930   10.9520   -2.4490 C   0  0  0  0  0  0  0  0  0  0  0  0
    2.2090   12.2310   -3.2770 C   0  0  0  0  0  0  0  0  0  0  0  0
    1.3430   13.1140   -2.3480 C   0  0  1  0  0  0  0  0  0  0  0  0
    2.3630   13.8080   -1.3910 C   0  0  0  0  0  0  0  0  0  0  0  0
    0.4120   14.1540   -3.0520 C   0  0  2  0  0  0  0  0  0  0  0  0
    1.1410   15.2300   -3.8750 C   0  0  0  0  0  0  0  0  0  0  0  0
    1.4940   16.4730   -3.1270 C   0  0  0  0  0  0  0  0  0  0  0  0
    0.9920   16.8370   -1.9330 C   0  0  0  0  0  0  0  0  0  0  0  0
   -0.1070   16.0090   -1.2550 C   0  0  1  0  0  0  0  0  0  0  0  0
   -1.2230   16.9540   -0.7380 C   0  0  0  0  0  0  0  0  0  0  0  0
   -0.6830   18.0580    0.1660 C   0  0  0  0  0  0  0  0  0  0  0  0
    0.3640   18.8960   -0.5620 C   0  0  2  0  0  0  0  0  0  0  0  0
   -0.2750   19.6140   -1.6220 O   0  0  0  0  0  0  0  0  0  0  0  0
    1.5350   18.0490   -1.1360 C   0  0  0  0  0  0  0  0  0  0  0  0
    2.4090   17.5150    0.0250 C   0  0  0  0  0  0  0  0  0  0  0  0
    2.4460   18.9940   -1.9660 C   0  0  0  0  0  0  0  0  0  0  0  0
   -0.6810   14.7930   -2.1020 C   0  0  1  0  0  0  0  0  0  0  0  0
   -1.8380   15.2850   -3.0240 C   0  0  0  0  0  0  0  0  0  0  0  0
   -1.3130   13.7360   -1.1220 C   0  0  0  0  0  0  0  0  0  0  0  0
   -0.3660   12.6620   -0.5520 C   0  0  0  0  0  0  0  0  0  0  0  0
    0.4550   12.0090   -1.6680 C   0  0  2  0  0  0  0  0  0  0  0  0
   -0.5420   11.2830   -2.6340 C   0  0  0  0  0  0  0  0  0  0  0  0
   -0.6004    8.3870   -1.5091 H   0  0  0  0  0  0  0  0  0  0  0  0
   -0.2091    9.7855   -2.5664 H   0  0  0  0  0  0  0  0  0  0  0  0
    0.8509    8.3353   -2.5664 H   0  0  0  0  0  0  0  0  0  0  0  0
    1.9212    8.9390   -0.6586 H   0  0  0  0  0  0  0  0  0  0  0  0
   -0.7112   10.1159    0.3050 H   0  0  0  0  0  0  0  0  0  0  0  0
    0.2085    8.6525    0.9016 H   0  0  0  0  0  0  0  0  0  0  0  0
    1.2788    9.8679    2.4057 H   0  0  0  0  0  0  0  0  0  0  0  0
    1.8439   11.0102    1.1161 H   0  0  0  0  0  0  0  0  0  0  0  0
   -0.8233   11.0251    1.8050 H   0  0  0  0  0  0  0  0  0  0  0  0
    1.4064   12.2243    5.2145 H   0  0  0  0  0  0  0  0  0  0  0  0
    2.0526   11.1979    3.8894 H   0  0  0  0  0  0  0  0  0  0  0  0
    2.3655   12.9667    3.8894 H   0  0  0  0  0  0  0  0  0  0  0  0
   -0.5965   12.9761    5.1632 H   0  0  0  0  0  0  0  0  0  0  0  0
   -0.7923   14.1308    3.8012 H   0  0  0  0  0  0  0  0  0  0  0  0
   -1.6987   12.5800    3.8012 H   0  0  0  0  0  0  0  0  0  0  0  0
    1.9946   11.3059   -0.2845 H   0  0  0  0  0  0  0  0  0  0  0  0
    3.5386   10.9463   -2.1076 H   0  0  0  0  0  0  0  0  0  0  0  0
    2.3329   10.0469   -3.0532 H   0  0  0  0  0  0  0  0  0  0  0  0
    3.1478   12.7430   -3.5348 H   0  0  0  0  0  0  0  0  0  0  0  0
    1.7049   12.0079   -4.2289 H   0  0  0  0  0  0  0  0  0  0  0  0
    2.0770   13.6134   -0.3468 H   0  0  0  0  0  0  0  0  0  0  0  0
    3.3705   13.4072   -1.5760 H   0  0  0  0  0  0  0  0  0  0  0  0
    2.3601   14.8923   -1.5760 H   0  0  0  0  0  0  0  0  0  0  0  0
   -0.1256   13.5327   -3.7834 H   0  0  0  0  0  0  0  0  0  0  0  0
    2.0719   14.7898   -4.2617 H   0  0  0  0  0  0  0  0  0  0  0  0
    0.4391   15.5379   -4.6640 H   0  0  0  0  0  0  0  0  0  0  0  0
    2.2270   17.1488   -3.5917 H   0  0  0  0  0  0  0  0  0  0  0  0
    0.3748   15.5013   -0.4064 H   0  0  0  0  0  0  0  0  0  0  0  0
   -1.7205   17.4180   -1.6024 H   0  0  0  0  0  0  0  0  0  0  0  0
   -1.9238   16.3491   -0.1439 H   0  0  0  0  0  0  0  0  0  0  0  0
   -1.5141   18.7091    0.4747 H   0  0  0  0  0  0  0  0  0  0  0  0
   -0.2116   17.5931    1.0445 H   0  0  0  0  0  0  0  0  0  0  0  0
    0.8054   19.5844    0.1737 H   0  0  0  0  0  0  0  0  0  0  0  0
   -0.7110   20.3890   -1.2310 H   0  0  0  0  0  0  0  0  0  0  0  0
    1.9523   17.7940    0.9861 H   0  0  0  0  0  0  0  0  0  0  0  0
    2.4795   16.4194   -0.0431 H   0  0  0  0  0  0  0  0  0  0  0  0
    3.4161   17.9522   -0.0431 H   0  0  0  0  0  0  0  0  0  0  0  0
    3.0458   19.6162   -1.2854 H   0  0  0  0  0  0  0  0  0  0  0  0
    3.1154   18.3942   -2.6002 H   0  0  0  0  0  0  0  0  0  0  0  0
    1.8221   19.6409   -2.6002 H   0  0  0  0  0  0  0  0  0  0  0  0
   -2.6745   15.6407   -2.4045 H   0  0  0  0  0  0  0  0  0  0  0  0
   -1.4764   16.1072   -3.6590 H   0  0  0  0  0  0  0  0  0  0  0  0
   -2.1794   14.4542   -3.6590 H   0  0  0  0  0  0  0  0  0  0  0  0
   -1.7424   14.2860   -0.2716 H   0  0  0  0  0  0  0  0  0  0  0  0
   -2.0436   13.1817   -1.7295 H   0  0  0  0  0  0  0  0  0  0  0  0
    0.3178   13.1316    0.1705 H   0  0  0  0  0  0  0  0  0  0  0  0
   -0.9706   11.8857   -0.0603 H   0  0  0  0  0  0  0  0  0  0  0  0
   -1.2923   10.7366   -2.0436 H   0  0  0  0  0  0  0  0  0  0  0  0
   -1.0456   12.0273   -3.2683 H   0  0  0  0  0  0  0  0  0  0  0  0
    0.0118   10.5752   -3.2683 H   0  0  0  0  0  0  0  0  0  0  0  0
  1  2  1  0
  2  3  1  0
  3  4  1  0
  4  5  1  0
  5  6  1  0
  6  7  1  0
  7  8  1  0
  7  9  1  0
  2 10  1  0
 10 11  1  0
 11 12  1  0
 12 13  1  0
 13 14  1  1
 13 15  1  0
 15 16  1  0
 16 17  1  0
 17 18  2  0
 18 19  1  0
 19 20  1  0
 20 21  1  0
 21 22  1  0
 22 23  1  0
 22 24  1  0
 24 25  1  0
 24 26  1  0
 19 27  1  0
 27 28  1  6
 27 29  1  0
 29 30  1  0
 30 31  1  0
 31 32  1  6
  7  5  1  0
 31 10  1  0
 31 13  1  0
 27 15  1  0
 24 18  1  0
  1 33  1  0
  1 34  1  0
  1 35  1  0
  2 36  1  1
  3 37  1  0
  3 38  1  0
  4 39  1  0
  4 40  1  0
  5 41  1  6
  8 42  1  0
  8 43  1  0
  8 44  1  0
  9 45  1  0
  9 46  1  0
  9 47  1  0
 10 48  1  1
 11 49  1  0
 11 50  1  0
 12 51  1  0
 12 52  1  0
 14 53  1  0
 14 54  1  0
 14 55  1  0
 15 56  1  6
 16 57  1  0
 16 58  1  0
 17 59  1  0
 19 60  1  1
 20 61  1  0
 20 62  1  0
 21 63  1  0
 21 64  1  0
 22 65  1  1
 23 66  1  0
 25 67  1  0
 25 68  1  0
 25 69  1  0
 26 70  1  0
 26 71  1  0
 26 72  1  0
 28 73  1  0
 28 74  1  0
 28 75  1  0
 29 76  1  0
 29 77  1  0
 30 78  1  0
 30 79  1  0
 32 80  1  0
 32 81  1  0
 32 82  1  0
M  END
>  <meeko>  (7) 
{"is_sidechain": [false], "intermolecular_energy": 2.731, "internal_energy": -0.839}

$$$$
EPH_relaxed_0001_pdb2pqr_Repair_253_r2_0001_out
     RDKit          3D

 82 86  0  0  0  0  0  0  0  0999 V2000
    2.5200   10.6970   -0.4230 C   0  0  0  0  0  0  0  0  0  0  0  0
    2.0650   10.7360   -1.8840 C   0  0  2  0  0  0  0  0  0  0  0  0
    3.0540   10.0130   -2.8200 C   0  0  0  0  0  0  0  0  0  0  0  0
    3.8910   10.9610   -3.6820 C   0  0  0  0  0  0  0  0  0  0  0  0
    5.3160   11.0160   -3.2230 C   0  0  2  0  0  0  0  0  0  0  0  0
    6.0600   12.1410   -3.7090 O   0  0  0  0  0  0  0  0  0  0  0  0
    6.5030   10.8490   -4.1540 C   0  0  0  0  0  0  0  0  0  0  0  0
    6.3170   10.6130   -5.6200 C   0  0  0  0  0  0  0  0  0  0  0  0
    7.8160   10.4280   -3.5720 C   0  0  0  0  0  0  0  0  0  0  0  0
    1.8840   12.1810   -2.3340 C   0  0  1  0  0  0  0  0  0  0  0  0
    1.7680   12.3170   -3.8760 C   0  0  0  0  0  0  0  0  0  0  0  0
    0.7760   13.4760   -4.1500 C   0  0  0  0  0  0  0  0  0  0  0  0
    0.6120   14.1800   -2.7820 C   0  0  1  0  0  0  0  0  0  0  0  0
    1.8590   15.1100   -2.6570 C   0  0  0  0  0  0  0  0  0  0  0  0
   -0.7200   14.9700   -2.5670 C   0  0  2  0  0  0  0  0  0  0  0  0
   -0.9410   16.1510   -3.5280 C   0  0  0  0  0  0  0  0  0  0  0  0
   -0.4140   17.4650   -3.0540 C   0  0  0  0  0  0  0  0  0  0  0  0
   -0.0440   17.7500   -1.7910 C   0  0  0  0  0  0  0  0  0  0  0  0
   -0.2330   16.7260   -0.6650 C   0  0  1  0  0  0  0  0  0  0  0  0
   -0.8660   17.4230    0.5680 C   0  0  0  0  0  0  0  0  0  0  0  0
   -0.0740   18.6460    1.0190 C   0  0  0  0  0  0  0  0  0  0  0  0
    0.0420   19.6670   -0.1100 C   0  0  2  0  0  0  0  0  0  0  0  0
   -1.2580   20.1940   -0.3900 O   0  0  0  0  0  0  0  0  0  0  0  0
    0.6580   19.0760   -1.4090 C   0  0  0  0  0  0  0  0  0  0  0  0
    2.1620   18.7830   -1.1850 C   0  0  0  0  0  0  0  0  0  0  0  0
    0.5880   20.1690   -2.5100 C   0  0  0  0  0  0  0  0  0  0  0  0
   -0.9910   15.3870   -1.0650 C   0  0  1  0  0  0  0  0  0  0  0  0
   -2.5320   15.5870   -0.9290 C   0  0  0  0  0  0  0  0  0  0  0  0
   -0.5990   14.2510   -0.0480 C   0  0  0  0  0  0  0  0  0  0  0  0
    0.6600   13.4270   -0.3780 C   0  0  0  0  0  0  0  0  0  0  0  0
    0.6270   12.9310   -1.8270 C   0  0  2  0  0  0  0  0  0  0  0  0
   -0.6060   11.9760   -1.9770 C   0  0  0  0  0  0  0  0  0  0  0  0
    1.6427   10.7722    0.2364 H   0  0  0  0  0  0  0  0  0  0  0  0
    3.0454    9.7505   -0.2277 H   0  0  0  0  0  0  0  0  0  0  0  0
    3.1988   11.5403   -0.2277 H   0  0  0  0  0  0  0  0  0  0  0  0
    1.1039   10.2044   -1.9451 H   0  0  0  0  0  0  0  0  0  0  0  0
    3.7370    9.4095   -2.2041 H   0  0  0  0  0  0  0  0  0  0  0  0
    2.4546    9.3983   -3.5077 H   0  0  0  0  0  0  0  0  0  0  0  0
    3.8657   10.6108   -4.7244 H   0  0  0  0  0  0  0  0  0  0  0  0
    3.4637   11.9708   -3.5945 H   0  0  0  0  0  0  0  0  0  0  0  0
    5.0513   10.5333   -2.2706 H   0  0  0  0  0  0  0  0  0  0  0  0
    5.6425    9.7572   -5.7710 H   0  0  0  0  0  0  0  0  0  0  0  0
    5.8805   11.5101   -6.0833 H   0  0  0  0  0  0  0  0  0  0  0  0
    7.2913   10.3982   -6.0833 H   0  0  0  0  0  0  0  0  0  0  0  0
    7.7536   10.4480   -2.4740 H   0  0  0  0  0  0  0  0  0  0  0  0
    8.0555    9.4080   -3.9071 H   0  0  0  0  0  0  0  0  0  0  0  0
    8.6039   11.1185   -3.9071 H   0  0  0  0  0  0  0  0  0  0  0  0
    2.7901   12.6252   -1.8962 H   0  0  0  0  0  0  0  0  0  0  0  0
    2.7514   12.5495   -4.3107 H   0  0  0  0  0  0  0  0  0  0  0  0
    1.4143   11.3793   -4.3294 H   0  0  0  0  0  0  0  0  0  0  0  0
    1.1870   14.1705   -4.8975 H   0  0  0  0  0  0  0  0  0  0  0  0
   -0.1830   13.1182   -4.5530 H   0  0  0  0  0  0  0  0  0  0  0  0
    2.0854   15.2788   -1.5939 H   0  0  0  0  0  0  0  0  0  0  0  0
    2.7222   14.6334   -3.1445 H   0  0  0  0  0  0  0  0  0  0  0  0
    1.6483   16.0733   -3.1445 H   0  0  0  0  0  0  0  0  0  0  0  0
   -1.4826   14.2232   -2.8328 H   0  0  0  0  0  0  0  0  0  0  0  0
   -0.4476   15.9106   -4.4813 H   0  0  0  0  0  0  0  0  0  0  0  0
   -2.0307   16.2732   -3.6150 H   0  0  0  0  0  0  0  0  0  0  0  0
   -0.3200   18.2683   -3.7996 H   0  0  0  0  0  0  0  0  0  0  0  0
    0.7741   16.3627   -0.4124 H   0  0  0  0  0  0  0  0  0  0  0  0
   -1.8868   17.7400    0.3084 H   0  0  0  0  0  0  0  0  0  0  0  0
   -0.8652   16.7002    1.3972 H   0  0  0  0  0  0  0  0  0  0  0  0
   -0.5861   19.1113    1.8741 H   0  0  0  0  0  0  0  0  0  0  0  0
    0.9376   18.3232    1.3060 H   0  0  0  0  0  0  0  0  0  0  0  0
    0.7264   20.4585    0.2294 H   0  0  0  0  0  0  0  0  0  0  0  0
   -1.1650   20.8370   -1.1140 H   0  0  0  0  0  0  0  0  0  0  0  0
    2.3709   18.7423   -0.1058 H   0  0  0  0  0  0  0  0  0  0  0  0
    2.4200   17.8177   -1.6451 H   0  0  0  0  0  0  0  0  0  0  0  0
    2.7635   19.5809   -1.6451 H   0  0  0  0  0  0  0  0  0  0  0  0
    0.5245   21.1608   -2.0385 H   0  0  0  0  0  0  0  0  0  0  0  0
    1.4913   20.1176   -3.1357 H   0  0  0  0  0  0  0  0  0  0  0  0
   -0.3013   20.0028   -3.1357 H   0  0  0  0  0  0  0  0  0  0  0  0
   -2.8046   15.6224    0.1361 H   0  0  0  0  0  0  0  0  0  0  0  0
   -2.8235   16.5305   -1.4136 H   0  0  0  0  0  0  0  0  0  0  0  0
   -3.0547   14.7492   -1.4136 H   0  0  0  0  0  0  0  0  0  0  0  0
   -0.4402   14.7229    0.9329 H   0  0  0  0  0  0  0  0  0  0  0  0
   -1.4310   13.5323   -0.0848 H   0  0  0  0  0  0  0  0  0  0  0  0
    1.5502   14.0568   -0.2335 H   0  0  0  0  0  0  0  0  0  0  0  0
    0.6929   12.5542    0.2906 H   0  0  0  0  0  0  0  0  0  0  0  0
   -0.9730   11.6917   -0.9798 H   0  0  0  0  0  0  0  0  0  0  0  0
   -1.4053   12.4930   -2.5283 H   0  0  0  0  0  0  0  0  0  0  0  0
   -0.3053   11.0728   -2.5283 H   0  0  0  0  0  0  0  0  0  0  0  0
  1  2  1  0
  2  3  1  0
  3  4  1  0
  4  5  1  0
  5  6  1  0
  6  7  1  0
  7  8  1  0
  7  9  1  0
  2 10  1  0
 10 11  1  0
 11 12  1  0
 12 13  1  0
 13 14  1  1
 13 15  1  0
 15 16  1  0
 16 17  1  0
 17 18  2  0
 18 19  1  0
 19 20  1  0
 20 21  1  0
 21 22  1  0
 22 23  1  0
 22 24  1  0
 24 25  1  0
 24 26  1  0
 19 27  1  0
 27 28  1  6
 27 29  1  0
 29 30  1  0
 30 31  1  0
 31 32  1  1
  7  5  1  0
 31 10  1  0
 31 13  1  0
 27 15  1  0
 24 18  1  0
  1 33  1  0
  1 34  1  0
  1 35  1  0
  2 36  1  1
  3 37  1  0
  3 38  1  0
  4 39  1  0
  4 40  1  0
  5 41  1  1
  8 42  1  0
  8 43  1  0
  8 44  1  0
  9 45  1  0
  9 46  1  0
  9 47  1  0
 10 48  1  1
 11 49  1  0
 11 50  1  0
 12 51  1  0
 12 52  1  0
 14 53  1  0
 14 54  1  0
 14 55  1  0
 15 56  1  6
 16 57  1  0
 16 58  1  0
 17 59  1  0
 19 60  1  1
 20 61  1  0
 20 62  1  0
 21 63  1  0
 21 64  1  0
 22 65  1  1
 23 66  1  0
 25 67  1  0
 25 68  1  0
 25 69  1  0
 26 70  1  0
 26 71  1  0
 26 72  1  0
 28 73  1  0
 28 74  1  0
 28 75  1  0
 29 76  1  0
 29 77  1  0
 30 78  1  0
 30 79  1  0
 32 80  1  0
 32 81  1  0
 32 82  1  0
M  END
>  <meeko>  (8) 
{"is_sidechain": [false], "intermolecular_energy": 2.731, "internal_energy": -0.839}

$$$$
EPH_relaxed_0001_pdb2pqr_Repair_253_r2_0001_out
     RDKit          3D

 82 86  0  0  0  0  0  0  0  0999 V2000
    0.9460    8.8000   -2.1480 C   0  0  0  0  0  0  0  0  0  0  0  0
    1.3150    9.5910   -0.8900 C   0  0  2  0  0  0  0  0  0  0  0  0
    0.1570    9.6410    0.1260 C   0  0  0  0  0  0  0  0  0  0  0  0
   -1.1100    8.9240   -0.3500 C   0  0  0  0  0  0  0  0  0  0  0  0
   -2.3400    9.7390   -0.0870 C   0  0  2  0  0  0  0  0  0  0  0  0
   -3.1730    9.2420    0.9690 O   0  0  0  0  0  0  0  0  0  0  0  0
   -3.7480    9.2370   -0.3470 C   0  0  0  0  0  0  0  0  0  0  0  0
   -3.9990    7.8670   -0.8960 C   0  0  0  0  0  0  0  0  0  0  0  0
   -4.8430   10.2410   -0.5310 C   0  0  0  0  0  0  0  0  0  0  0  0
    1.7360   11.0060   -1.2700 C   0  0  1  0  0  0  0  0  0  0  0  0
    2.6520   11.0400   -2.5230 C   0  0  0  0  0  0  0  0  0  0  0  0
    2.2980   12.3350   -3.3000 C   0  0  0  0  0  0  0  0  0  0  0  0
    1.4410   13.1600   -2.3120 C   0  0  1  0  0  0  0  0  0  0  0  0
    2.4730   13.8570   -1.3700 C   0  0  0  0  0  0  0  0  0  0  0  0
    0.4540   14.1910   -2.9490 C   0  0  2  0  0  0  0  0  0  0  0  0
    1.1190   15.3160   -3.7630 C   0  0  0  0  0  0  0  0  0  0  0  0
    1.4610   16.5460   -2.9890 C   0  0  0  0  0  0  0  0  0  0  0  0
    0.9920   16.8560   -1.7660 C   0  0  0  0  0  0  0  0  0  0  0  0
   -0.0560   15.9730   -1.0770 C   0  0  1  0  0  0  0  0  0  0  0  0
   -1.1810   16.8660   -0.4910 C   0  0  0  0  0  0  0  0  0  0  0  0
   -0.6430   17.9580    0.4290 C   0  0  0  0  0  0  0  0  0  0  0  0
    0.3520   18.8500   -0.3090 C   0  0  2  0  0  0  0  0  0  0  0  0
   -0.3470   19.5800   -1.3220 O   0  0  0  0  0  0  0  0  0  0  0  0
    1.5260   18.0600   -0.9510 C   0  0  0  0  0  0  0  0  0  0  0  0
    2.4580   17.5180    0.1610 C   0  0  0  0  0  0  0  0  0  0  0  0
    2.3770   19.0580   -1.7820 C   0  0  0  0  0  0  0  0  0  0  0  0
   -0.6230   14.7660   -1.9420 C   0  0  1  0  0  0  0  0  0  0  0  0
   -1.8270   15.2500   -2.8050 C   0  0  0  0  0  0  0  0  0  0  0  0
   -1.1870   13.6600   -0.9730 C   0  0  0  0  0  0  0  0  0  0  0  0
   -0.1870   12.6000   -0.4730 C   0  0  0  0  0  0  0  0  0  0  0  0
    0.6130   12.0070   -1.6370 C   0  0  2  0  0  0  0  0  0  0  0  0
   -0.3970   11.2810   -2.5900 C   0  0  0  0  0  0  0  0  0  0  0  0
    0.4974    7.8384   -1.8581 H   0  0  0  0  0  0  0  0  0  0  0  0
    0.2238    9.3764   -2.7449 H   0  0  0  0  0  0  0  0  0  0  0  0
    1.8517    8.6170   -2.7449 H   0  0  0  0  0  0  0  0  0  0  0  0
    2.1550    9.0702   -0.4071 H   0  0  0  0  0  0  0  0  0  0  0  0
    0.4938    9.1679    1.0602 H   0  0  0  0  0  0  0  0  0  0  0  0
   -0.1051   10.7004    0.2634 H   0  0  0  0  0  0  0  0  0  0  0  0
   -1.0297    8.7384   -1.4313 H   0  0  0  0  0  0  0  0  0  0  0  0
   -1.1991    7.9793    0.2065 H   0  0  0  0  0  0  0  0  0  0  0  0
   -1.8197   10.6623   -0.3816 H   0  0  0  0  0  0  0  0  0  0  0  0
   -4.1290    7.1574   -0.0656 H   0  0  0  0  0  0  0  0  0  0  0  0
   -4.9096    7.8804   -1.5129 H   0  0  0  0  0  0  0  0  0  0  0  0
   -3.1428    7.5566   -1.5129 H   0  0  0  0  0  0  0  0  0  0  0  0
   -5.2052   10.5731    0.4532 H   0  0  0  0  0  0  0  0  0  0  0  0
   -4.4573   11.1058   -1.0907 H   0  0  0  0  0  0  0  0  0  0  0  0
   -5.6712    9.7819   -1.0907 H   0  0  0  0  0  0  0  0  0  0  0  0
    2.2216   11.3127   -0.3318 H   0  0  0  0  0  0  0  0  0  0  0  0
    3.7091   11.0573   -2.2193 H   0  0  0  0  0  0  0  0  0  0  0  0
    2.4985   10.1488   -3.1492 H   0  0  0  0  0  0  0  0  0  0  0  0
    3.2103   12.8844   -3.5754 H   0  0  0  0  0  0  0  0  0  0  0  0
    1.7661   12.1257   -4.2398 H   0  0  0  0  0  0  0  0  0  0  0  0
    2.1969   13.6705   -0.3217 H   0  0  0  0  0  0  0  0  0  0  0  0
    3.4773   13.4515   -1.5624 H   0  0  0  0  0  0  0  0  0  0  0  0
    2.4719   14.9401   -1.5624 H   0  0  0  0  0  0  0  0  0  0  0  0
   -0.0894   13.5745   -3.6802 H   0  0  0  0  0  0  0  0  0  0  0  0
    2.0482   14.9181   -4.1970 H   0  0  0  0  0  0  0  0  0  0  0  0
    0.3789   15.6257   -4.5155 H   0  0  0  0  0  0  0  0  0  0  0  0
    2.1549   17.2592   -3.4578 H   0  0  0  0  0  0  0  0  0  0  0  0
    0.4713   15.4545   -0.2627 H   0  0  0  0  0  0  0  0  0  0  0  0
   -1.7231   17.3408   -1.3221 H   0  0  0  0  0  0  0  0  0  0  0  0
   -1.8411   16.2210    0.1075 H   0  0  0  0  0  0  0  0  0  0  0  0
   -1.4818   18.5732    0.7868 H   0  0  0  0  0  0  0  0  0  0  0  0
   -0.1274   17.4818    1.2760 H   0  0  0  0  0  0  0  0  0  0  0  0
    0.7996   19.5278    0.4328 H   0  0  0  0  0  0  0  0  0  0  0  0
   -1.0360   20.1070   -0.8830 H   0  0  0  0  0  0  0  0  0  0  0  0
    2.0350   17.7640    1.1462 H   0  0  0  0  0  0  0  0  0  0  0  0
    2.5490   16.4261    0.0633 H   0  0  0  0  0  0  0  0  0  0  0  0
    3.4520   17.9789    0.0633 H   0  0  0  0  0  0  0  0  0  0  0  0
    2.9381   19.7160   -1.1022 H   0  0  0  0  0  0  0  0  0  0  0  0
    3.0813   18.4997   -2.4163 H   0  0  0  0  0  0  0  0  0  0  0  0
    1.7145   19.6653   -2.4163 H   0  0  0  0  0  0  0  0  0  0  0  0
   -2.6431   15.5781   -2.1445 H   0  0  0  0  0  0  0  0  0  0  0  0
   -1.5089   16.0901   -3.4398 H   0  0  0  0  0  0  0  0  0  0  0  0
   -2.1788   14.4234   -3.4398 H   0  0  0  0  0  0  0  0  0  0  0  0
   -1.6005   14.1700   -0.0905 H   0  0  0  0  0  0  0  0  0  0  0  0
   -1.9236   13.1023   -1.5700 H   0  0  0  0  0  0  0  0  0  0  0  0
    0.5080   13.0689    0.2391 H   0  0  0  0  0  0  0  0  0  0  0  0
   -0.7496   11.7899    0.0139 H   0  0  0  0  0  0  0  0  0  0  0  0
   -1.1455   10.7430   -1.9898 H   0  0  0  0  0  0  0  0  0  0  0  0
   -0.9015   12.0245   -3.2246 H   0  0  0  0  0  0  0  0  0  0  0  0
    0.1470   10.5659   -3.2246 H   0  0  0  0  0  0  0  0  0  0  0  0
  1  2  1  0
  2  3  1  0
  3  4  1  0
  4  5  1  0
  5  6  1  0
  6  7  1  0
  7  8  1  0
  7  9  1  0
  2 10  1  0
 10 11  1  0
 11 12  1  0
 12 13  1  0
 13 14  1  1
 13 15  1  0
 15 16  1  0
 16 17  1  0
 17 18  2  0
 18 19  1  0
 19 20  1  0
 20 21  1  0
 21 22  1  0
 22 23  1  0
 22 24  1  0
 24 25  1  0
 24 26  1  0
 19 27  1  0
 27 28  1  6
 27 29  1  0
 29 30  1  0
 30 31  1  0
 31 32  1  6
  7  5  1  0
 31 10  1  0
 31 13  1  0
 27 15  1  0
 24 18  1  0
  1 33  1  0
  1 34  1  0
  1 35  1  0
  2 36  1  1
  3 37  1  0
  3 38  1  0
  4 39  1  0
  4 40  1  0
  5 41  1  1
  8 42  1  0
  8 43  1  0
  8 44  1  0
  9 45  1  0
  9 46  1  0
  9 47  1  0
 10 48  1  1
 11 49  1  0
 11 50  1  0
 12 51  1  0
 12 52  1  0
 14 53  1  0
 14 54  1  0
 14 55  1  0
 15 56  1  6
 16 57  1  0
 16 58  1  0
 17 59  1  0
 19 60  1  1
 20 61  1  0
 20 62  1  0
 21 63  1  0
 21 64  1  0
 22 65  1  1
 23 66  1  0
 25 67  1  0
 25 68  1  0
 25 69  1  0
 26 70  1  0
 26 71  1  0
 26 72  1  0
 28 73  1  0
 28 74  1  0
 28 75  1  0
 29 76  1  0
 29 77  1  0
 30 78  1  0
 30 79  1  0
 32 80  1  0
 32 81  1  0
 32 82  1  0
M  END
>  <meeko>  (9) 
{"is_sidechain": [false], "intermolecular_energy": 2.731, "internal_energy": -0.839}

$$$$
EPH_relaxed_0001_pdb2pqr_Repair_253_r2_0001_out
     RDKit          3D

 82 86  0  0  0  0  0  0  0  0999 V2000
    1.7230    9.3630   -2.1340 C   0  0  0  0  0  0  0  0  0  0  0  0
    2.3130   10.1970   -0.9930 C   0  0  2  0  0  0  0  0  0  0  0  0
    1.5110   10.0410    0.3150 C   0  0  0  0  0  0  0  0  0  0  0  0
    0.3510    9.0470    0.2110 C   0  0  0  0  0  0  0  0  0  0  0  0
   -0.9780    9.7350    0.2930 C   0  0  2  0  0  0  0  0  0  0  0  0
   -2.0850    8.8670    0.5690 O   0  0  0  0  0  0  0  0  0  0  0  0
   -2.0950    9.5190   -0.7110 C   0  0  0  0  0  0  0  0  0  0  0  0
   -1.9330    8.5870   -1.8700 C   0  0  0  0  0  0  0  0  0  0  0  0
   -3.1510   10.5720   -0.8430 C   0  0  0  0  0  0  0  0  0  0  0  0
    2.3700   11.6650   -1.3970 C   0  0  1  0  0  0  0  0  0  0  0  0
    3.0900   11.8830   -2.7550 C   0  0  0  0  0  0  0  0  0  0  0  0
    2.3730   13.0640   -3.4570 C   0  0  0  0  0  0  0  0  0  0  0  0
    1.4920   13.6970   -2.3540 C   0  0  1  0  0  0  0  0  0  0  0  0
    2.4630   14.6070   -1.5380 C   0  0  0  0  0  0  0  0  0  0  0  0
    0.2340   14.4870   -2.8430 C   0  0  2  0  0  0  0  0  0  0  0  0
    0.5350   15.7190   -3.7130 C   0  0  0  0  0  0  0  0  0  0  0  0
    0.7030   17.0010   -2.9670 C   0  0  0  0  0  0  0  0  0  0  0  0
    0.3370   17.2160   -1.6890 C   0  0  0  0  0  0  0  0  0  0  0  0
   -0.4010   16.1360   -0.8890 C   0  0  1  0  0  0  0  0  0  0  0  0
   -1.6070   16.7730   -0.1490 C   0  0  0  0  0  0  0  0  0  0  0  0
   -1.2010   17.9630    0.7140 C   0  0  0  0  0  0  0  0  0  0  0  0
   -0.5220   19.0410   -0.1270 C   0  0  2  0  0  0  0  0  0  0  0  0
   -1.4840   19.5950   -1.0310 O   0  0  0  0  0  0  0  0  0  0  0  0
    0.7020   18.5140   -0.9270 C   0  0  0  0  0  0  0  0  0  0  0  0
    1.8620   18.1950    0.0490 C   0  0  0  0  0  0  0  0  0  0  0  0
    1.2070   19.6630   -1.8400 C   0  0  0  0  0  0  0  0  0  0  0  0
   -0.8030   14.8270   -1.6970 C   0  0  1  0  0  0  0  0  0  0  0  0
   -2.1830   15.0340   -2.3920 C   0  0  0  0  0  0  0  0  0  0  0  0
   -0.9900   13.6350   -0.6850 C   0  0  0  0  0  0  0  0  0  0  0  0
    0.2690   12.8180   -0.3340 C   0  0  0  0  0  0  0  0  0  0  0  0
    1.0210   12.4000   -1.6010 C   0  0  2  0  0  0  0  0  0  0  0  0
    0.0770   11.4650   -2.4320 C   0  0  0  0  0  0  0  0  0  0  0  0
    1.1355    8.5326   -1.7154 H   0  0  0  0  0  0  0  0  0  0  0  0
    1.0716    9.9974   -2.7531 H   0  0  0  0  0  0  0  0  0  0  0  0
    2.5381    8.9600   -2.7531 H   0  0  0  0  0  0  0  0  0  0  0  0
    3.3304    9.8245   -0.8030 H   0  0  0  0  0  0  0  0  0  0  0  0
    2.1958    9.6943    1.1030 H   0  0  0  0  0  0  0  0  0  0  0  0
    1.0726   11.0239    0.5424 H   0  0  0  0  0  0  0  0  0  0  0  0
    0.4199    8.5183   -0.7511 H   0  0  0  0  0  0  0  0  0  0  0  0
    0.4255    8.3438    1.0536 H   0  0  0  0  0  0  0  0  0  0  0  0
   -0.5081   10.6473    0.6890 H   0  0  0  0  0  0  0  0  0  0  0  0
   -1.7557    7.5670   -1.4983 H   0  0  0  0  0  0  0  0  0  0  0  0
   -2.8470    8.6006   -2.4819 H   0  0  0  0  0  0  0  0  0  0  0  0
   -1.0772    8.9082   -2.4819 H   0  0  0  0  0  0  0  0  0  0  0  0
   -3.4744   10.8945    0.1577 H   0  0  0  0  0  0  0  0  0  0  0  0
   -2.7431   11.4336   -1.3919 H   0  0  0  0  0  0  0  0  0  0  0  0
   -4.0114   10.1616   -1.3919 H   0  0  0  0  0  0  0  0  0  0  0  0
    2.8943   12.0767   -0.5220 H   0  0  0  0  0  0  0  0  0  0  0  0
    4.1490   12.1287   -2.5871 H   0  0  0  0  0  0  0  0  0  0  0  0
    3.0510   10.9739   -3.3730 H   0  0  0  0  0  0  0  0  0  0  0  0
    3.1048   13.7929   -3.8354 H   0  0  0  0  0  0  0  0  0  0  0  0
    1.7828   12.7367   -4.3256 H   0  0  0  0  0  0  0  0  0  0  0  0
    2.2955   14.4500   -0.4622 H   0  0  0  0  0  0  0  0  0  0  0  0
    3.5030   14.3508   -1.7884 H   0  0  0  0  0  0  0  0  0  0  0  0
    2.2747   15.6614   -1.7884 H   0  0  0  0  0  0  0  0  0  0  0  0
   -0.2549   13.7627   -3.5111 H   0  0  0  0  0  0  0  0  0  0  0  0
    1.4647   15.5243   -4.2678 H   0  0  0  0  0  0  0  0  0  0  0  0
   -0.3438   15.8565   -4.3601 H   0  0  0  0  0  0  0  0  0  0  0  0
    1.1647   17.8409   -3.5067 H   0  0  0  0  0  0  0  0  0  0  0  0
    0.3246   15.7504   -0.1577 H   0  0  0  0  0  0  0  0  0  0  0  0
   -2.3396   17.1127   -0.8959 H   0  0  0  0  0  0  0  0  0  0  0  0
   -2.0327   16.0076    0.5165 H   0  0  0  0  0  0  0  0  0  0  0  0
   -2.0988   18.3877    1.1868 H   0  0  0  0  0  0  0  0  0  0  0  0
   -0.4910   17.6157    1.4790 H   0  0  0  0  0  0  0  0  0  0  0  0
   -0.1394   19.8059    0.5647 H   0  0  0  0  0  0  0  0  0  0  0  0
   -2.2460   18.9920   -1.0540 H   0  0  0  0  0  0  0  0  0  0  0  0
    1.5066   18.2927    1.0854 H   0  0  0  0  0  0  0  0  0  0  0  0
    2.2134   17.1669   -0.1227 H   0  0  0  0  0  0  0  0  0  0  0  0
    2.6897   18.8989   -0.1227 H   0  0  0  0  0  0  0  0  0  0  0  0
    1.5718   20.4930   -1.2170 H   0  0  0  0  0  0  0  0  0  0  0  0
    2.0258   19.2938   -2.4750 H   0  0  0  0  0  0  0  0  0  0  0  0
    0.3813   20.0166   -2.4750 H   0  0  0  0  0  0  0  0  0  0  0  0
   -2.9648   15.1513   -1.6271 H   0  0  0  0  0  0  0  0  0  0  0  0
   -2.1457   15.9366   -3.0196 H   0  0  0  0  0  0  0  0  0  0  0  0
   -2.4122   14.1602   -3.0196 H   0  0  0  0  0  0  0  0  0  0  0  0
   -1.3875   14.0528    0.2517 H   0  0  0  0  0  0  0  0  0  0  0  0
   -1.6601   12.9269   -1.1946 H   0  0  0  0  0  0  0  0  0  0  0  0
    0.9330   13.4313    0.2929 H   0  0  0  0  0  0  0  0  0  0  0  0
   -0.0403   11.9110    0.2061 H   0  0  0  0  0  0  0  0  0  0  0  0
   -0.5346   10.8592   -1.7472 H   0  0  0  0  0  0  0  0  0  0  0  0
   -0.5805   12.0779   -3.0661 H   0  0  0  0  0  0  0  0  0  0  0  0
    0.6835   10.8016   -3.0661 H   0  0  0  0  0  0  0  0  0  0  0  0
  1  2  1  0
  2  3  1  0
  3  4  1  0
  4  5  1  0
  5  6  1  0
  6  7  1  0
  7  8  1  0
  7  9  1  0
  2 10  1  0
 10 11  1  0
 11 12  1  0
 12 13  1  0
 13 14  1  1
 13 15  1  0
 15 16  1  0
 16 17  1  0
 17 18  2  0
 18 19  1  0
 19 20  1  0
 20 21  1  0
 21 22  1  0
 22 23  1  0
 22 24  1  0
 24 25  1  0
 24 26  1  0
 19 27  1  0
 27 28  1  6
 27 29  1  0
 29 30  1  0
 30 31  1  0
 31 32  1  6
  7  5  1  0
 31 10  1  0
 31 13  1  0
 27 15  1  0
 24 18  1  0
  1 33  1  0
  1 34  1  0
  1 35  1  0
  2 36  1  1
  3 37  1  0
  3 38  1  0
  4 39  1  0
  4 40  1  0
  5 41  1  1
  8 42  1  0
  8 43  1  0
  8 44  1  0
  9 45  1  0
  9 46  1  0
  9 47  1  0
 10 48  1  1
 11 49  1  0
 11 50  1  0
 12 51  1  0
 12 52  1  0
 14 53  1  0
 14 54  1  0
 14 55  1  0
 15 56  1  6
 16 57  1  0
 16 58  1  0
 17 59  1  0
 19 60  1  1
 20 61  1  0
 20 62  1  0
 21 63  1  0
 21 64  1  0
 22 65  1  1
 23 66  1  0
 25 67  1  0
 25 68  1  0
 25 69  1  0
 26 70  1  0
 26 71  1  0
 26 72  1  0
 28 73  1  0
 28 74  1  0
 28 75  1  0
 29 76  1  0
 29 77  1  0
 30 78  1  0
 30 79  1  0
 32 80  1  0
 32 81  1  0
 32 82  1  0
M  END
>  <meeko>  (10) 
{"is_sidechain": [false], "intermolecular_energy": 2.731, "internal_energy": -0.839}

$$$$
EPH_relaxed_0001_pdb2pqr_Repair_253_r2_0001_out
     RDKit          3D

 82 86  0  0  0  0  0  0  0  0999 V2000
    0.0380    8.9510   -2.2820 C   0  0  0  0  0  0  0  0  0  0  0  0
    0.7730   10.1000   -2.9780 C   0  0  2  0  0  0  0  0  0  0  0  0
    2.2690   10.1400   -2.6080 C   0  0  0  0  0  0  0  0  0  0  0  0
    3.1810   10.5320   -3.7740 C   0  0  0  0  0  0  0  0  0  0  0  0
    4.5770   10.8240   -3.3130 C   0  0  2  0  0  0  0  0  0  0  0  0
    5.1430   12.0300   -3.8430 O   0  0  0  0  0  0  0  0  0  0  0  0
    5.7840   10.8040   -4.2320 C   0  0  0  0  0  0  0  0  0  0  0  0
    5.6500   10.4830   -5.6880 C   0  0  0  0  0  0  0  0  0  0  0  0
    7.1400   10.6150   -3.6280 C   0  0  0  0  0  0  0  0  0  0  0  0
    0.1130   11.4280   -2.6260 C   0  0  1  0  0  0  0  0  0  0  0  0
   -1.1790   11.2480   -1.7860 C   0  0  0  0  0  0  0  0  0  0  0  0
   -1.2430   12.4450   -0.8020 C   0  0  0  0  0  0  0  0  0  0  0  0
   -0.1790   13.4380   -1.3260 C   0  0  1  0  0  0  0  0  0  0  0  0
   -0.8810   14.1980   -2.4940 C   0  0  0  0  0  0  0  0  0  0  0  0
    0.4220   14.4250   -0.2730 C   0  0  2  0  0  0  0  0  0  0  0  0
   -0.5880   15.3950    0.3630 C   0  0  0  0  0  0  0  0  0  0  0  0
   -0.7560   16.6980   -0.3470 C   0  0  0  0  0  0  0  0  0  0  0  0
    0.0770   17.1920   -1.2810 C   0  0  0  0  0  0  0  0  0  0  0  0
    1.3790   16.4630   -1.6410 C   0  0  1  0  0  0  0  0  0  0  0  0
    2.5470   17.4830   -1.6890 C   0  0  0  0  0  0  0  0  0  0  0  0
    2.2590   18.6580   -2.6190 C   0  0  0  0  0  0  0  0  0  0  0  0
    0.9900   19.3920   -2.1950 C   0  0  2  0  0  0  0  0  0  0  0  0
    1.2210   20.0160   -0.9280 O   0  0  0  0  0  0  0  0  0  0  0  0
   -0.2530   18.4630   -2.1010 C   0  0  0  0  0  0  0  0  0  0  0  0
   -0.6840   18.0260   -3.5230 C   0  0  0  0  0  0  0  0  0  0  0  0
   -1.4300   19.2970   -1.5280 C   0  0  0  0  0  0  0  0  0  0  0  0
    1.7220   15.1830   -0.7640 C   0  0  1  0  0  0  0  0  0  0  0  0
    2.4990   15.6100    0.5190 C   0  0  0  0  0  0  0  0  0  0  0  0
    2.6900   14.2460   -1.5780 C   0  0  0  0  0  0  0  0  0  0  0  0
    2.0330   13.2110   -2.5110 C   0  0  0  0  0  0  0  0  0  0  0  0
    0.9380   12.4290   -1.7790 C   0  0  2  0  0  0  0  0  0  0  0  0
    1.6180   11.6360   -0.6110 C   0  0  0  0  0  0  0  0  0  0  0  0
    0.1160    9.0730   -1.1916 H   0  0  0  0  0  0  0  0  0  0  0  0
   -1.0216    8.9613   -2.5772 H   0  0  0  0  0  0  0  0  0  0  0  0
    0.4916    7.9933   -2.5772 H   0  0  0  0  0  0  0  0  0  0  0  0
    0.7057    9.9279   -4.0624 H   0  0  0  0  0  0  0  0  0  0  0  0
    2.4070   10.8714   -1.7980 H   0  0  0  0  0  0  0  0  0  0  0  0
    2.5530    9.1210   -2.3062 H   0  0  0  0  0  0  0  0  0  0  0  0
    3.2105    9.7038   -4.4973 H   0  0  0  0  0  0  0  0  0  0  0  0
    2.7746   11.4443   -4.2351 H   0  0  0  0  0  0  0  0  0  0  0  0
    4.3811   10.3450   -2.3424 H   0  0  0  0  0  0  0  0  0  0  0  0
    5.2286    9.4735   -5.8036 H   0  0  0  0  0  0  0  0  0  0  0  0
    4.9826   11.2158   -6.1651 H   0  0  0  0  0  0  0  0  0  0  0  0
    6.6403   10.5238   -6.1651 H   0  0  0  0  0  0  0  0  0  0  0  0
    7.0577   10.6265   -2.5311 H   0  0  0  0  0  0  0  0  0  0  0  0
    7.5556    9.6502   -3.9544 H   0  0  0  0  0  0  0  0  0  0  0  0
    7.8035   11.4293   -3.9544 H   0  0  0  0  0  0  0  0  0  0  0  0
   -0.0438   11.8306   -3.6376 H   0  0  0  0  0  0  0  0  0  0  0  0
   -2.0613   11.2500   -2.4429 H   0  0  0  0  0  0  0  0  0  0  0  0
   -1.1675   10.2910   -1.2438 H   0  0  0  0  0  0  0  0  0  0  0  0
   -2.2423   12.9045   -0.8139 H   0  0  0  0  0  0  0  0  0  0  0  0
   -1.0534   12.1408    0.2380 H   0  0  0  0  0  0  0  0  0  0  0  0
   -1.5727   14.9469   -2.0808 H   0  0  0  0  0  0  0  0  0  0  0  0
   -0.1228   14.7009   -3.1123 H   0  0  0  0  0  0  0  0  0  0  0  0
   -1.4424   13.4820   -3.1123 H   0  0  0  0  0  0  0  0  0  0  0  0
    0.7336   13.7471    0.5353 H   0  0  0  0  0  0  0  0  0  0  0  0
   -1.5674   14.8950    0.3919 H   0  0  0  0  0  0  0  0  0  0  0  0
   -0.1887   15.6403    1.3582 H   0  0  0  0  0  0  0  0  0  0  0  0
   -1.6349   17.3051   -0.0842 H   0  0  0  0  0  0  0  0  0  0  0  0
    1.2197   16.0308   -2.6399 H   0  0  0  0  0  0  0  0  0  0  0  0
    2.7189   17.8704   -0.6739 H   0  0  0  0  0  0  0  0  0  0  0  0
    3.4327   16.9588   -2.0773 H   0  0  0  0  0  0  0  0  0  0  0  0
    3.1070   19.3579   -2.5877 H   0  0  0  0  0  0  0  0  0  0  0  0
    2.1163   18.2713   -3.6388 H   0  0  0  0  0  0  0  0  0  0  0  0
    0.7653   20.1385   -2.9711 H   0  0  0  0  0  0  0  0  0  0  0  0
    0.5180   20.6730   -0.7910 H   0  0  0  0  0  0  0  0  0  0  0  0
   -1.4547   17.2446   -3.4486 H   0  0  0  0  0  0  0  0  0  0  0  0
   -1.0912   18.8922   -4.0651 H   0  0  0  0  0  0  0  0  0  0  0  0
    0.1877   17.6308   -4.0651 H   0  0  0  0  0  0  0  0  0  0  0  0
   -1.3957   19.2727   -0.4288 H   0  0  0  0  0  0  0  0  0  0  0  0
   -1.3450   20.3375   -1.8746 H   0  0  0  0  0  0  0  0  0  0  0  0
   -2.3835   18.8719   -1.8746 H   0  0  0  0  0  0  0  0  0  0  0  0
    1.9340   15.2995    1.4102 H   0  0  0  0  0  0  0  0  0  0  0  0
    3.4881   15.1287    0.5259 H   0  0  0  0  0  0  0  0  0  0  0  0
    2.6230   16.7030    0.5259 H   0  0  0  0  0  0  0  0  0  0  0  0
    3.3343   14.8891   -2.1956 H   0  0  0  0  0  0  0  0  0  0  0  0
    3.2219   13.6530   -0.8194 H   0  0  0  0  0  0  0  0  0  0  0  0
    1.5884   13.7331   -3.3710 H   0  0  0  0  0  0  0  0  0  0  0  0
    2.8045   12.5026   -2.8470 H   0  0  0  0  0  0  0  0  0  0  0  0
    1.2739   12.0373    0.3537 H   0  0  0  0  0  0  0  0  0  0  0  0
    1.3469   10.5724   -0.6834 H   0  0  0  0  0  0  0  0  0  0  0  0
    2.7105   11.7417   -0.6834 H   0  0  0  0  0  0  0  0  0  0  0  0
  1  2  1  0
  2  3  1  0
  3  4  1  0
  4  5  1  0
  5  6  1  0
  6  7  1  0
  7  8  1  0
  7  9  1  0
  2 10  1  0
 10 11  1  0
 11 12  1  0
 12 13  1  0
 13 14  1  6
 13 15  1  0
 15 16  1  0
 16 17  1  0
 17 18  2  0
 18 19  1  0
 19 20  1  0
 20 21  1  0
 21 22  1  0
 22 23  1  0
 22 24  1  0
 24 25  1  0
 24 26  1  0
 19 27  1  0
 27 28  1  1
 27 29  1  0
 29 30  1  0
 30 31  1  0
 31 32  1  1
  7  5  1  0
 31 10  1  0
 31 13  1  0
 27 15  1  0
 24 18  1  0
  1 33  1  0
  1 34  1  0
  1 35  1  0
  2 36  1  6
  3 37  1  0
  3 38  1  0
  4 39  1  0
  4 40  1  0
  5 41  1  1
  8 42  1  0
  8 43  1  0
  8 44  1  0
  9 45  1  0
  9 46  1  0
  9 47  1  0
 10 48  1  6
 11 49  1  0
 11 50  1  0
 12 51  1  0
 12 52  1  0
 14 53  1  0
 14 54  1  0
 14 55  1  0
 15 56  1  1
 16 57  1  0
 16 58  1  0
 17 59  1  0
 19 60  1  6
 20 61  1  0
 20 62  1  0
 21 63  1  0
 21 64  1  0
 22 65  1  6
 23 66  1  0
 25 67  1  0
 25 68  1  0
 25 69  1  0
 26 70  1  0
 26 71  1  0
 26 72  1  0
 28 73  1  0
 28 74  1  0
 28 75  1  0
 29 76  1  0
 29 77  1  0
 30 78  1  0
 30 79  1  0
 32 80  1  0
 32 81  1  0
 32 82  1  0
M  END
>  <meeko>  (11) 
{"is_sidechain": [false], "intermolecular_energy": 2.731, "internal_energy": -0.839}

$$$$
EPH_relaxed_0001_pdb2pqr_Repair_253_r2_0001_out
     RDKit          3D

 82 86  0  0  0  0  0  0  0  0999 V2000
   -3.6270   11.1220   -0.6960 C   0  0  0  0  0  0  0  0  0  0  0  0
   -2.1430   10.7450   -0.7200 C   0  0  2  0  0  0  0  0  0  0  0  0
   -1.8410    9.5220    0.1690 C   0  0  0  0  0  0  0  0  0  0  0  0
   -1.1640    8.3700   -0.5790 C   0  0  0  0  0  0  0  0  0  0  0  0
   -0.9290    8.7070   -2.0210 C   0  0  2  0  0  0  0  0  0  0  0  0
   -0.0190    7.8310   -2.6990 O   0  0  0  0  0  0  0  0  0  0  0  0
    0.4020    9.1980   -2.5590 C   0  0  0  0  0  0  0  0  0  0  0  0
    1.5860    9.3810   -1.6630 C   0  0  0  0  0  0  0  0  0  0  0  0
    0.4150    9.9600   -3.8470 C   0  0  0  0  0  0  0  0  0  0  0  0
   -1.2980   11.9330   -0.2770 C   0  0  1  0  0  0  0  0  0  0  0  0
   -0.0270   11.5030    0.5040 C   0  0  0  0  0  0  0  0  0  0  0  0
    1.0890   12.5130    0.1310 C   0  0  0  0  0  0  0  0  0  0  0  0
    0.3480   13.6700   -0.5790 C   0  0  1  0  0  0  0  0  0  0  0  0
   -0.2320   14.5440    0.5770 C   0  0  0  0  0  0  0  0  0  0  0  0
    1.1950   14.5220   -1.5790 C   0  0  2  0  0  0  0  0  0  0  0  0
    2.3770   15.2810   -0.9510 C   0  0  0  0  0  0  0  0  0  0  0  0
    2.0680   16.6610   -0.4730 C   0  0  0  0  0  0  0  0  0  0  0  0
    0.9730   17.3740   -0.7970 C   0  0  0  0  0  0  0  0  0  0  0  0
   -0.0480   16.8340   -1.8070 C   0  0  1  0  0  0  0  0  0  0  0  0
   -0.4120   17.9490   -2.8220 C   0  0  0  0  0  0  0  0  0  0  0  0
   -0.8860   19.2290   -2.1400 C   0  0  0  0  0  0  0  0  0  0  0  0
    0.1790   19.7670   -1.1880 C   0  0  2  0  0  0  0  0  0  0  0  0
    1.3090   20.1940   -1.9550 O   0  0  0  0  0  0  0  0  0  0  0  0
    0.6320   18.7270   -0.1250 C   0  0  0  0  0  0  0  0  0  0  0  0
   -0.5120   18.4900    0.8920 C   0  0  0  0  0  0  0  0  0  0  0  0
    1.8070   19.3470    0.6790 C   0  0  0  0  0  0  0  0  0  0  0  0
    0.3360   15.4650   -2.5160 C   0  0  1  0  0  0  0  0  0  0  0  0
    1.2030   15.7450   -3.7810 C   0  0  0  0  0  0  0  0  0  0  0  0
   -0.9790   14.7640   -3.0260 C   0  0  0  0  0  0  0  0  0  0  0  0
   -1.7050   13.8400   -2.0300 C   0  0  0  0  0  0  0  0  0  0  0  0
   -0.7270   12.8530   -1.3850 C   0  0  2  0  0  0  0  0  0  0  0  0
   -0.1440   11.9450   -2.5210 C   0  0  0  0  0  0  0  0  0  0  0  0
   -3.9666   11.2083    0.3467 H   0  0  0  0  0  0  0  0  0  0  0  0
   -3.7691   12.0848   -1.2087 H   0  0  0  0  0  0  0  0  0  0  0  0
   -4.2114   10.3438   -1.2087 H   0  0  0  0  0  0  0  0  0  0  0  0
   -1.8869   10.4724   -1.7545 H   0  0  0  0  0  0  0  0  0  0  0  0
   -1.1785    9.8421    0.9867 H   0  0  0  0  0  0  0  0  0  0  0  0
   -2.8070    9.1441    0.5352 H   0  0  0  0  0  0  0  0  0  0  0  0
   -0.1970    8.1542   -0.1012 H   0  0  0  0  0  0  0  0  0  0  0  0
   -1.8293    7.4950   -0.5354 H   0  0  0  0  0  0  0  0  0  0  0  0
   -1.9536    9.0942   -2.1225 H   0  0  0  0  0  0  0  0  0  0  0  0
    1.2623    9.3310   -0.6129 H   0  0  0  0  0  0  0  0  0  0  0  0
    2.3203    8.5857   -1.8587 H   0  0  0  0  0  0  0  0  0  0  0  0
    2.0459   10.3609   -1.8587 H   0  0  0  0  0  0  0  0  0  0  0  0
    0.4334   11.0391   -3.6344 H   0  0  0  0  0  0  0  0  0  0  0  0
    1.3086    9.6852   -4.4266 H   0  0  0  0  0  0  0  0  0  0  0  0
   -0.4874    9.7158   -4.4266 H   0  0  0  0  0  0  0  0  0  0  0  0
   -2.0453   12.4796    0.3170 H   0  0  0  0  0  0  0  0  0  0  0  0
   -0.2191   11.5332    1.5867 H   0  0  0  0  0  0  0  0  0  0  0  0
    0.2673   10.4752    0.2452 H   0  0  0  0  0  0  0  0  0  0  0  0
    1.6013   12.8764    1.0340 H   0  0  0  0  0  0  0  0  0  0  0  0
    1.8640   12.0614   -0.5058 H   0  0  0  0  0  0  0  0  0  0  0  0
    0.0564   14.1094    1.5454 H   0  0  0  0  0  0  0  0  0  0  0  0
    0.1678   15.5659    0.5001 H   0  0  0  0  0  0  0  0  0  0  0  0
   -1.3289   14.5727    0.5001 H   0  0  0  0  0  0  0  0  0  0  0  0
    1.6429   13.7520   -2.2243 H   0  0  0  0  0  0  0  0  0  0  0  0
    2.7379   14.6967   -0.0917 H   0  0  0  0  0  0  0  0  0  0  0  0
    3.1235   15.3964   -1.7507 H   0  0  0  0  0  0  0  0  0  0  0  0
    2.7966   17.1354    0.2009 H   0  0  0  0  0  0  0  0  0  0  0  0
   -0.9375   16.5574   -1.2219 H   0  0  0  0  0  0  0  0  0  0  0  0
    0.4777   18.1800   -3.4262 H   0  0  0  0  0  0  0  0  0  0  0  0
   -1.2387   17.5767   -3.4448 H   0  0  0  0  0  0  0  0  0  0  0  0
   -1.0993   19.9878   -2.9072 H   0  0  0  0  0  0  0  0  0  0  0  0
   -1.7929   19.0025   -1.5601 H   0  0  0  0  0  0  0  0  0  0  0  0
   -0.2665   20.6071   -0.6350 H   0  0  0  0  0  0  0  0  0  0  0  0
    1.4060   21.1530   -1.8260 H   0  0  0  0  0  0  0  0  0  0  0  0
   -0.1160   18.5720    1.9150 H   0  0  0  0  0  0  0  0  0  0  0  0
   -1.2984   19.2443    0.7416 H   0  0  0  0  0  0  0  0  0  0  0  0
   -0.9340   17.4854    0.7416 H   0  0  0  0  0  0  0  0  0  0  0  0
    1.6095   19.2428    1.7561 H   0  0  0  0  0  0  0  0  0  0  0  0
    2.7410   18.8243    0.4252 H   0  0  0  0  0  0  0  0  0  0  0  0
    1.9027   20.4130    0.4252 H   0  0  0  0  0  0  0  0  0  0  0  0
    2.2077   16.0695   -3.4724 H   0  0  0  0  0  0  0  0  0  0  0  0
    1.2825   14.8269   -4.3816 H   0  0  0  0  0  0  0  0  0  0  0  0
    0.7305   16.5362   -4.3816 H   0  0  0  0  0  0  0  0  0  0  0  0
   -1.6845   15.5547   -3.3213 H   0  0  0  0  0  0  0  0  0  0  0  0
   -0.6548   14.1056   -3.8454 H   0  0  0  0  0  0  0  0  0  0  0  0
   -2.1691   14.4528   -1.2432 H   0  0  0  0  0  0  0  0  0  0  0  0
   -2.4709   13.2691   -2.5754 H   0  0  0  0  0  0  0  0  0  0  0  0
    0.3987   11.0998   -2.0726 H   0  0  0  0  0  0  0  0  0  0  0  0
   -0.9665   11.5636   -3.1440 H   0  0  0  0  0  0  0  0  0  0  0  0
    0.5451   12.5341   -3.1440 H   0  0  0  0  0  0  0  0  0  0  0  0
  1  2  1  0
  2  3  1  0
  3  4  1  0
  4  5  1  0
  5  6  1  0
  6  7  1  0
  7  8  1  0
  7  9  1  0
  2 10  1  0
 10 11  1  0
 11 12  1  0
 12 13  1  0
 13 14  1  1
 13 15  1  0
 15 16  1  0
 16 17  1  0
 17 18  2  0
 18 19  1  0
 19 20  1  0
 20 21  1  0
 21 22  1  0
 22 23  1  0
 22 24  1  0
 24 25  1  0
 24 26  1  0
 19 27  1  0
 27 28  1  6
 27 29  1  0
 29 30  1  0
 30 31  1  0
 31 32  1  6
  7  5  1  0
 31 10  1  0
 31 13  1  0
 27 15  1  0
 24 18  1  0
  1 33  1  0
  1 34  1  0
  1 35  1  0
  2 36  1  6
  3 37  1  0
  3 38  1  0
  4 39  1  0
  4 40  1  0
  5 41  1  6
  8 42  1  0
  8 43  1  0
  8 44  1  0
  9 45  1  0
  9 46  1  0
  9 47  1  0
 10 48  1  1
 11 49  1  0
 11 50  1  0
 12 51  1  0
 12 52  1  0
 14 53  1  0
 14 54  1  0
 14 55  1  0
 15 56  1  6
 16 57  1  0
 16 58  1  0
 17 59  1  0
 19 60  1  1
 20 61  1  0
 20 62  1  0
 21 63  1  0
 21 64  1  0
 22 65  1  1
 23 66  1  0
 25 67  1  0
 25 68  1  0
 25 69  1  0
 26 70  1  0
 26 71  1  0
 26 72  1  0
 28 73  1  0
 28 74  1  0
 28 75  1  0
 29 76  1  0
 29 77  1  0
 30 78  1  0
 30 79  1  0
 32 80  1  0
 32 81  1  0
 32 82  1  0
M  END
>  <meeko>  (12) 
{"is_sidechain": [false], "intermolecular_energy": 2.731, "internal_energy": -0.839}

$$$$
EPH_relaxed_0001_pdb2pqr_Repair_253_r2_0001_out
     RDKit          3D

 82 86  0  0  0  0  0  0  0  0999 V2000
   -3.2970    7.3030   -3.1640 C   0  0  0  0  0  0  0  0  0  0  0  0
   -3.3510    7.4460   -1.6400 C   0  0  2  0  0  0  0  0  0  0  0  0
   -4.7360    7.0770   -1.0710 C   0  0  0  0  0  0  0  0  0  0  0  0
   -5.8300    6.9700   -2.1360 C   0  0  0  0  0  0  0  0  0  0  0  0
   -7.1880    7.2490   -1.5660 C   0  0  2  0  0  0  0  0  0  0  0  0
   -7.9030    6.0870   -1.1270 O   0  0  0  0  0  0  0  0  0  0  0  0
   -8.4800    6.8080   -2.2270 C   0  0  0  0  0  0  0  0  0  0  0  0
   -8.4770    6.0520   -3.5190 C   0  0  0  0  0  0  0  0  0  0  0  0
   -9.7450    7.5300   -1.8790 C   0  0  0  0  0  0  0  0  0  0  0  0
   -2.9850    8.8700   -1.2390 C   0  0  1  0  0  0  0  0  0  0  0  0
   -3.2000    9.1380    0.2750 C   0  0  0  0  0  0  0  0  0  0  0  0
   -2.0810   10.1140    0.7200 C   0  0  0  0  0  0  0  0  0  0  0  0
   -1.4670   10.6320   -0.6020 C   0  0  1  0  0  0  0  0  0  0  0  0
   -2.4350   11.7600   -1.0790 C   0  0  0  0  0  0  0  0  0  0  0  0
    0.0110   11.1340   -0.5270 C   0  0  2  0  0  0  0  0  0  0  0  0
    0.2440   12.3450    0.3920 C   0  0  0  0  0  0  0  0  0  0  0  0
    0.1200   13.6790   -0.2660 C   0  0  0  0  0  0  0  0  0  0  0  0
    0.1160   13.8980   -1.5940 C   0  0  0  0  0  0  0  0  0  0  0  0
    0.3430   12.7480   -2.5830 C   0  0  1  0  0  0  0  0  0  0  0  0
    1.3710   13.1860   -3.6600 C   0  0  0  0  0  0  0  0  0  0  0  0
    0.9710   14.4830   -4.3560 C   0  0  0  0  0  0  0  0  0  0  0  0
    0.8110   15.6170   -3.3470 C   0  0  2  0  0  0  0  0  0  0  0  0
    2.0930   15.9190   -2.7860 O   0  0  0  0  0  0  0  0  0  0  0  0
   -0.1930   15.2860   -2.2080 C   0  0  0  0  0  0  0  0  0  0  0  0
   -1.6330   15.2570   -2.7760 C   0  0  0  0  0  0  0  0  0  0  0  0
   -0.1540   16.4530   -1.1840 C   0  0  0  0  0  0  0  0  0  0  0  0
    0.6980   11.3390   -1.9380 C   0  0  1  0  0  0  0  0  0  0  0  0
    2.2370   11.2340   -1.7040 C   0  0  0  0  0  0  0  0  0  0  0  0
    0.3250   10.1980   -2.9570 C   0  0  0  0  0  0  0  0  0  0  0  0
   -1.1180    9.6610   -2.9010 C   0  0  0  0  0  0  0  0  0  0  0  0
   -1.5190    9.3180   -1.4630 C   0  0  2  0  0  0  0  0  0  0  0  0
   -0.5770    8.1700   -0.9650 C   0  0  0  0  0  0  0  0  0  0  0  0
   -2.9195    6.3034   -3.4253 H   0  0  0  0  0  0  0  0  0  0  0  0
   -4.3066    7.4342   -3.5806 H   0  0  0  0  0  0  0  0  0  0  0  0
   -2.6261    8.0687   -3.5806 H   0  0  0  0  0  0  0  0  0  0  0  0
   -2.6215    6.7410   -1.2148 H   0  0  0  0  0  0  0  0  0  0  0  0
   -4.6538    6.1070   -0.5588 H   0  0  0  0  0  0  0  0  0  0  0  0
   -5.0298    7.8883   -0.3887 H   0  0  0  0  0  0  0  0  0  0  0  0
   -5.6223    7.6973   -2.9347 H   0  0  0  0  0  0  0  0  0  0  0  0
   -5.8273    5.9423   -2.5282 H   0  0  0  0  0  0  0  0  0  0  0  0
   -6.8517    8.2228   -1.1805 H   0  0  0  0  0  0  0  0  0  0  0  0
   -8.4727    4.9717   -3.3117 H   0  0  0  0  0  0  0  0  0  0  0  0
   -9.3762    6.3108   -4.0974 H   0  0  0  0  0  0  0  0  0  0  0  0
   -7.5799    6.3179   -4.0974 H   0  0  0  0  0  0  0  0  0  0  0  0
   -9.8454    7.5873   -0.7851 H   0  0  0  0  0  0  0  0  0  0  0  0
   -9.7142    8.5465   -2.2981 H   0  0  0  0  0  0  0  0  0  0  0  0
  -10.6046    6.9865   -2.2981 H   0  0  0  0  0  0  0  0  0  0  0  0
   -3.6554    9.4281   -1.9092 H   0  0  0  0  0  0  0  0  0  0  0  0
   -4.1876    9.5924    0.4427 H   0  0  0  0  0  0  0  0  0  0  0  0
   -3.1597    8.2019    0.8513 H   0  0  0  0  0  0  0  0  0  0  0  0
   -2.5009   10.9454    1.3052 H   0  0  0  0  0  0  0  0  0  0  0  0
   -1.3342    9.6268    1.3642 H   0  0  0  0  0  0  0  0  0  0  0  0
   -2.8687   12.2654   -0.2035 H   0  0  0  0  0  0  0  0  0  0  0  0
   -1.8776   12.4896   -1.6848 H   0  0  0  0  0  0  0  0  0  0  0  0
   -3.2408   11.3198   -1.6848 H   0  0  0  0  0  0  0  0  0  0  0  0
    0.5219   10.2892   -0.0420 H   0  0  0  0  0  0  0  0  0  0  0  0
   -0.4923   12.2989    1.2079 H   0  0  0  0  0  0  0  0  0  0  0  0
    1.2868   12.2707    0.7342 H   0  0  0  0  0  0  0  0  0  0  0  0
    0.0238   14.5570    0.3896 H   0  0  0  0  0  0  0  0  0  0  0  0
   -0.6320   12.5553   -3.0544 H   0  0  0  0  0  0  0  0  0  0  0  0
    2.3481   13.3320   -3.1763 H   0  0  0  0  0  0  0  0  0  0  0  0
    1.4120   12.3956   -4.4239 H   0  0  0  0  0  0  0  0  0  0  0  0
    1.7495   14.7559   -5.0837 H   0  0  0  0  0  0  0  0  0  0  0  0
    0.0077   14.3263   -4.8635 H   0  0  0  0  0  0  0  0  0  0  0  0
    0.3992   16.4830   -3.8860 H   0  0  0  0  0  0  0  0  0  0  0  0
    1.9440   16.4150   -1.9640 H   0  0  0  0  0  0  0  0  0  0  0  0
   -2.3544   15.2425   -1.9457 H   0  0  0  0  0  0  0  0  0  0  0  0
   -1.8019   16.1519   -3.3929 H   0  0  0  0  0  0  0  0  0  0  0  0
   -1.7658   14.3560   -3.3929 H   0  0  0  0  0  0  0  0  0  0  0  0
   -0.1676   16.0451   -0.1625 H   0  0  0  0  0  0  0  0  0  0  0  0
    0.7643   17.0402   -1.3321 H   0  0  0  0  0  0  0  0  0  0  0  0
   -1.0310   17.1002   -1.3321 H   0  0  0  0  0  0  0  0  0  0  0  0
    2.4435   11.2199   -0.6236 H   0  0  0  0  0  0  0  0  0  0  0  0
    2.6151   10.3080   -2.1617 H   0  0  0  0  0  0  0  0  0  0  0  0
    2.7374   12.1001   -2.1617 H   0  0  0  0  0  0  0  0  0  0  0  0
    0.4956   10.5886   -3.9711 H   0  0  0  0  0  0  0  0  0  0  0  0
    0.9607    9.3445   -2.6788 H   0  0  0  0  0  0  0  0  0  0  0  0
   -1.8028   10.4276   -3.2926 H   0  0  0  0  0  0  0  0  0  0  0  0
   -1.1761    8.7464   -3.5094 H   0  0  0  0  0  0  0  0  0  0  0  0
   -0.5656    8.1562    0.1349 H   0  0  0  0  0  0  0  0  0  0  0  0
   -0.9462    7.2041   -1.3401 H   0  0  0  0  0  0  0  0  0  0  0  0
    0.4424    8.3435   -1.3401 H   0  0  0  0  0  0  0  0  0  0  0  0
  1  2  1  0
  2  3  1  0
  3  4  1  0
  4  5  1  0
  5  6  1  0
  6  7  1  0
  7  8  1  0
  7  9  1  0
  2 10  1  0
 10 11  1  0
 11 12  1  0
 12 13  1  0
 13 14  1  6
 13 15  1  0
 15 16  1  0
 16 17  1  0
 17 18  2  0
 18 19  1  0
 19 20  1  0
 20 21  1  0
 21 22  1  0
 22 23  1  0
 22 24  1  0
 24 25  1  0
 24 26  1  0
 19 27  1  0
 27 28  1  1
 27 29  1  0
 29 30  1  0
 30 31  1  0
 31 32  1  1
  7  5  1  0
 31 10  1  0
 31 13  1  0
 27 15  1  0
 24 18  1  0
  1 33  1  0
  1 34  1  0
  1 35  1  0
  2 36  1  1
  3 37  1  0
  3 38  1  0
  4 39  1  0
  4 40  1  0
  5 41  1  1
  8 42  1  0
  8 43  1  0
  8 44  1  0
  9 45  1  0
  9 46  1  0
  9 47  1  0
 10 48  1  6
 11 49  1  0
 11 50  1  0
 12 51  1  0
 12 52  1  0
 14 53  1  0
 14 54  1  0
 14 55  1  0
 15 56  1  1
 16 57  1  0
 16 58  1  0
 17 59  1  0
 19 60  1  6
 20 61  1  0
 20 62  1  0
 21 63  1  0
 21 64  1  0
 22 65  1  6
 23 66  1  0
 25 67  1  0
 25 68  1  0
 25 69  1  0
 26 70  1  0
 26 71  1  0
 26 72  1  0
 28 73  1  0
 28 74  1  0
 28 75  1  0
 29 76  1  0
 29 77  1  0
 30 78  1  0
 30 79  1  0
 32 80  1  0
 32 81  1  0
 32 82  1  0
M  END
>  <meeko>  (13) 
{"is_sidechain": [false], "intermolecular_energy": 2.731, "internal_energy": -0.839}

$$$$
EPH_relaxed_0001_pdb2pqr_Repair_253_r2_0001_out
     RDKit          3D

 82 86  0  0  0  0  0  0  0  0999 V2000
    2.3530   18.9900   -1.1870 C   0  0  0  0  0  0  0  0  0  0  0  0
    2.0530   17.9840   -2.3010 C   0  0  2  0  0  0  0  0  0  0  0  0
    0.5900   18.0680   -2.7810 C   0  0  0  0  0  0  0  0  0  0  0  0
   -0.1310   19.3440   -2.3370 C   0  0  0  0  0  0  0  0  0  0  0  0
   -1.3520   19.0360   -1.5250 C   0  0  2  0  0  0  0  0  0  0  0  0
   -2.1220   20.1830   -1.1440 O   0  0  0  0  0  0  0  0  0  0  0  0
   -1.5150   19.4440   -0.0720 C   0  0  0  0  0  0  0  0  0  0  0  0
   -0.4410   20.1940    0.6530 C   0  0  0  0  0  0  0  0  0  0  0  0
   -2.4950   18.6950    0.7760 C   0  0  0  0  0  0  0  0  0  0  0  0
    2.3640   16.5710   -1.8230 C   0  0  1  0  0  0  0  0  0  0  0  0
    3.4990   16.5340   -0.7660 C   0  0  0  0  0  0  0  0  0  0  0  0
    3.1520   15.3930    0.2250 C   0  0  0  0  0  0  0  0  0  0  0  0
    2.0200   14.6030   -0.4720 C   0  0  1  0  0  0  0  0  0  0  0  0
    2.7490   13.6690   -1.4880 C   0  0  0  0  0  0  0  0  0  0  0  0
    1.0600   13.7990    0.4650 C   0  0  2  0  0  0  0  0  0  0  0  0
    1.7310   12.6810    1.2820 C   0  0  0  0  0  0  0  0  0  0  0  0
    1.7570   11.3400    0.6260 C   0  0  0  0  0  0  0  0  0  0  0  0
    1.0190   10.9750   -0.4390 C   0  0  0  0  0  0  0  0  0  0  0  0
   -0.0290   11.9250   -1.0330 C   0  0  1  0  0  0  0  0  0  0  0  0
   -1.3490   11.1500   -1.2810 C   0  0  0  0  0  0  0  0  0  0  0  0
   -1.1440    9.9010   -2.1330 C   0  0  0  0  0  0  0  0  0  0  0  0
   -0.1400    8.9550   -1.4800 C   0  0  2  0  0  0  0  0  0  0  0  0
   -0.7070    8.4450   -0.2690 O   0  0  0  0  0  0  0  0  0  0  0  0
    1.2270    9.6280   -1.1740 C   0  0  0  0  0  0  0  0  0  0  0  0
    1.9780    9.9090   -2.4990 C   0  0  0  0  0  0  0  0  0  0  0  0
    2.0970    8.6090   -0.3900 C   0  0  0  0  0  0  0  0  0  0  0  0
   -0.2580   13.2860   -0.2450 C   0  0  1  0  0  0  0  0  0  0  0  0
   -1.3170   13.0760    0.8810 C   0  0  0  0  0  0  0  0  0  0  0  0
   -0.8640   14.3550   -1.2290 C   0  0  0  0  0  0  0  0  0  0  0  0
    0.1380   15.2000   -2.0390 C   0  0  0  0  0  0  0  0  0  0  0  0
    1.2210   15.7870   -1.1290 C   0  0  2  0  0  0  0  0  0  0  0  0
    0.5200   16.7490   -0.1100 C   0  0  0  0  0  0  0  0  0  0  0  0
    2.2092   18.5077   -0.2089 H   0  0  0  0  0  0  0  0  0  0  0  0
    3.3934   19.3360   -1.2758 H   0  0  0  0  0  0  0  0  0  0  0  0
    1.6720   19.8493   -1.2758 H   0  0  0  0  0  0  0  0  0  0  0  0
    2.6961   18.2367   -3.1569 H   0  0  0  0  0  0  0  0  0  0  0  0
    0.5824   18.0294   -3.8803 H   0  0  0  0  0  0  0  0  0  0  0  0
    0.0537   17.2213   -2.3277 H   0  0  0  0  0  0  0  0  0  0  0  0
    0.5577   19.9497   -1.7297 H   0  0  0  0  0  0  0  0  0  0  0  0
   -0.4468   19.8908   -3.2377 H   0  0  0  0  0  0  0  0  0  0  0  0
   -1.4807   18.0725   -2.0398 H   0  0  0  0  0  0  0  0  0  0  0  0
   -0.5897   20.0901    1.7379 H   0  0  0  0  0  0  0  0  0  0  0  0
    0.5421   19.7851    0.3769 H   0  0  0  0  0  0  0  0  0  0  0  0
   -0.4863   21.2578    0.3769 H   0  0  0  0  0  0  0  0  0  0  0  0
   -2.2682   18.8683    1.8383 H   0  0  0  0  0  0  0  0  0  0  0  0
   -3.5139   19.0467    0.5564 H   0  0  0  0  0  0  0  0  0  0  0  0
   -2.4231   17.6195    0.5564 H   0  0  0  0  0  0  0  0  0  0  0  0
    2.6120   16.1012   -2.7862 H   0  0  0  0  0  0  0  0  0  0  0  0
    4.4640   16.3315   -1.2536 H   0  0  0  0  0  0  0  0  0  0  0  0
    3.5831   17.4983   -0.2435 H   0  0  0  0  0  0  0  0  0  0  0  0
    4.0266   14.7484    0.3970 H   0  0  0  0  0  0  0  0  0  0  0  0
    2.8489   15.7744    1.2112 H   0  0  0  0  0  0  0  0  0  0  0  0
    3.3356   12.9174   -0.9394 H   0  0  0  0  0  0  0  0  0  0  0  0
    2.0046   13.1631   -2.1203 H   0  0  0  0  0  0  0  0  0  0  0  0
    3.4206   14.2683   -2.1203 H   0  0  0  0  0  0  0  0  0  0  0  0
    0.7523   14.5597    1.1976 H   0  0  0  0  0  0  0  0  0  0  0  0
    2.7700   12.9822    1.4812 H   0  0  0  0  0  0  0  0  0  0  0  0
    1.1246   12.5630    2.1921 H   0  0  0  0  0  0  0  0  0  0  0  0
    2.4372   10.5861    1.0490 H   0  0  0  0  0  0  0  0  0  0  0  0
    0.3847   12.2730   -1.9910 H   0  0  0  0  0  0  0  0  0  0  0  0
   -1.7688   10.8491   -0.3098 H   0  0  0  0  0  0  0  0  0  0  0  0
   -2.0305   11.8184   -1.8276 H   0  0  0  0  0  0  0  0  0  0  0  0
   -2.1067    9.3812   -2.2476 H   0  0  0  0  0  0  0  0  0  0  0  0
   -0.7526   10.2057   -3.1148 H   0  0  0  0  0  0  0  0  0  0  0  0
    0.0629    8.1447   -2.1957 H   0  0  0  0  0  0  0  0  0  0  0  0
    0.0060    8.3890    0.3890 H   0  0  0  0  0  0  0  0  0  0  0  0
    2.9868   10.2865   -2.2757 H   0  0  0  0  0  0  0  0  0  0  0  0
    2.0550    8.9789   -3.0812 H   0  0  0  0  0  0  0  0  0  0  0  0
    1.4256   10.6613   -3.0812 H   0  0  0  0  0  0  0  0  0  0  0  0
    1.9624    8.7666    0.6903 H   0  0  0  0  0  0  0  0  0  0  0  0
    1.7895    7.5860   -0.6524 H   0  0  0  0  0  0  0  0  0  0  0  0
    3.1556    8.7523   -0.6524 H   0  0  0  0  0  0  0  0  0  0  0  0
   -0.8316   13.1723    1.8634 H   0  0  0  0  0  0  0  0  0  0  0  0
   -2.1078   13.8348    0.7868 H   0  0  0  0  0  0  0  0  0  0  0  0
   -1.7584   12.0728    0.7868 H   0  0  0  0  0  0  0  0  0  0  0  0
   -1.5055   13.8216   -1.9459 H   0  0  0  0  0  0  0  0  0  0  0  0
   -1.3916   15.0734   -0.5844 H   0  0  0  0  0  0  0  0  0  0  0  0
    0.6133   14.5634   -2.7998 H   0  0  0  0  0  0  0  0  0  0  0  0
   -0.4065   16.0283   -2.5159 H   0  0  0  0  0  0  0  0  0  0  0  0
    0.7532   16.4290    0.9163 H   0  0  0  0  0  0  0  0  0  0  0  0
    0.8832   17.7756   -0.2655 H   0  0  0  0  0  0  0  0  0  0  0  0
   -0.5685   16.7177   -0.2655 H   0  0  0  0  0  0  0  0  0  0  0  0
  1  2  1  0
  2  3  1  0
  3  4  1  0
  4  5  1  0
  5  6  1  0
  6  7  1  0
  7  8  1  0
  7  9  1  0
  2 10  1  0
 10 11  1  0
 11 12  1  0
 12 13  1  0
 13 14  1  6
 13 15  1  0
 15 16  1  0
 16 17  1  0
 17 18  2  0
 18 19  1  0
 19 20  1  0
 20 21  1  0
 21 22  1  0
 22 23  1  0
 22 24  1  0
 24 25  1  0
 24 26  1  0
 19 27  1  0
 27 28  1  1
 27 29  1  0
 29 30  1  0
 30 31  1  0
 31 32  1  1
  7  5  1  0
 31 10  1  0
 31 13  1  0
 27 15  1  0
 24 18  1  0
  1 33  1  0
  1 34  1  0
  1 35  1  0
  2 36  1  6
  3 37  1  0
  3 38  1  0
  4 39  1  0
  4 40  1  0
  5 41  1  1
  8 42  1  0
  8 43  1  0
  8 44  1  0
  9 45  1  0
  9 46  1  0
  9 47  1  0
 10 48  1  6
 11 49  1  0
 11 50  1  0
 12 51  1  0
 12 52  1  0
 14 53  1  0
 14 54  1  0
 14 55  1  0
 15 56  1  1
 16 57  1  0
 16 58  1  0
 17 59  1  0
 19 60  1  6
 20 61  1  0
 20 62  1  0
 21 63  1  0
 21 64  1  0
 22 65  1  6
 23 66  1  0
 25 67  1  0
 25 68  1  0
 25 69  1  0
 26 70  1  0
 26 71  1  0
 26 72  1  0
 28 73  1  0
 28 74  1  0
 28 75  1  0
 29 76  1  0
 29 77  1  0
 30 78  1  0
 30 79  1  0
 32 80  1  0
 32 81  1  0
 32 82  1  0
M  END
>  <meeko>  (14) 
{"is_sidechain": [false], "intermolecular_energy": 2.731, "internal_energy": -0.839}

$$$$
EPH_relaxed_0001_pdb2pqr_Repair_253_r2_0001_out
     RDKit          3D

 82 86  0  0  0  0  0  0  0  0999 V2000
   -5.0320    6.1000   -1.8500 C   0  0  0  0  0  0  0  0  0  0  0  0
   -5.4150    7.5830   -1.8320 C   0  0  2  0  0  0  0  0  0  0  0  0
   -5.2250    8.2150   -0.4380 C   0  0  0  0  0  0  0  0  0  0  0  0
   -4.1630    9.3170   -0.4020 C   0  0  0  0  0  0  0  0  0  0  0  0
   -2.7880    8.7700   -0.6430 C   0  0  2  0  0  0  0  0  0  0  0  0
   -1.8050    9.1760    0.3180 O   0  0  0  0  0  0  0  0  0  0  0  0
   -1.6010    9.6320   -1.0290 C   0  0  0  0  0  0  0  0  0  0  0  0
   -1.7340   11.1130   -1.1970 C   0  0  0  0  0  0  0  0  0  0  0  0
   -0.4390    8.9840   -1.7150 C   0  0  0  0  0  0  0  0  0  0  0  0
   -6.8600    7.7520   -2.2880 C   0  0  1  0  0  0  0  0  0  0  0  0
   -7.1500    7.0330   -3.6320 C   0  0  0  0  0  0  0  0  0  0  0  0
   -8.6060    6.5070   -3.5520 C   0  0  0  0  0  0  0  0  0  0  0  0
   -9.2110    7.2180   -2.3190 C   0  0  1  0  0  0  0  0  0  0  0  0
   -9.6180    8.6350   -2.8330 C   0  0  0  0  0  0  0  0  0  0  0  0
  -10.4070    6.4920   -1.6200 C   0  0  2  0  0  0  0  0  0  0  0  0
  -11.6610    6.3120   -2.4930 C   0  0  0  0  0  0  0  0  0  0  0  0
  -12.6560    7.4230   -2.4160 C   0  0  0  0  0  0  0  0  0  0  0  0
  -12.6880    8.3800   -1.4700 C   0  0  0  0  0  0  0  0  0  0  0  0
  -11.7140    8.3500   -0.2860 C   0  0  1  0  0  0  0  0  0  0  0  0
  -12.4910    8.6130    1.0310 C   0  0  0  0  0  0  0  0  0  0  0  0
  -13.3080    9.9000    0.9800 C   0  0  0  0  0  0  0  0  0  0  0  0
  -14.3060    9.8680   -0.1750 C   0  0  2  0  0  0  0  0  0  0  0  0
  -15.2850    8.8590    0.0900 O   0  0  0  0  0  0  0  0  0  0  0  0
  -13.6390    9.6000   -1.5530 C   0  0  0  0  0  0  0  0  0  0  0  0
  -12.8080   10.8360   -1.9780 C   0  0  0  0  0  0  0  0  0  0  0  0
  -14.7670    9.4510   -2.6090 C   0  0  0  0  0  0  0  0  0  0  0  0
  -10.7730    7.0720   -0.1940 C   0  0  1  0  0  0  0  0  0  0  0  0
  -11.5010    5.9300    0.5780 C   0  0  0  0  0  0  0  0  0  0  0  0
   -9.4950    7.4350    0.6510 C   0  0  0  0  0  0  0  0  0  0  0  0
   -8.3030    8.0380   -0.1170 C   0  0  0  0  0  0  0  0  0  0  0  0
   -7.9690    7.2020   -1.3560 C   0  0  2  0  0  0  0  0  0  0  0  0
   -7.5340    5.7780   -0.8690 C   0  0  0  0  0  0  0  0  0  0  0  0
   -4.9373    5.7332   -0.8173 H   0  0  0  0  0  0  0  0  0  0  0  0
   -5.8115    5.5263   -2.3728 H   0  0  0  0  0  0  0  0  0  0  0  0
   -4.0722    5.9755   -2.3728 H   0  0  0  0  0  0  0  0  0  0  0  0
   -4.7421    8.1072   -2.5265 H   0  0  0  0  0  0  0  0  0  0  0  0
   -6.1849    8.6471   -0.1187 H   0  0  0  0  0  0  0  0  0  0  0  0
   -4.8811    7.4148    0.2338 H   0  0  0  0  0  0  0  0  0  0  0  0
   -4.3929   10.0592   -1.1806 H   0  0  0  0  0  0  0  0  0  0  0  0
   -4.1791    9.7763    0.5974 H   0  0  0  0  0  0  0  0  0  0  0  0
   -3.2048    7.8502   -1.0791 H   0  0  0  0  0  0  0  0  0  0  0  0
   -1.7770   11.5918   -0.2076 H   0  0  0  0  0  0  0  0  0  0  0  0
   -0.8668   11.4982   -1.7534 H   0  0  0  0  0  0  0  0  0  0  0  0
   -2.6559   11.3376   -1.7534 H   0  0  0  0  0  0  0  0  0  0  0  0
    0.2607    8.5938   -0.9613 H   0  0  0  0  0  0  0  0  0  0  0  0
   -0.7994    8.1566   -2.3439 H   0  0  0  0  0  0  0  0  0  0  0  0
    0.0755    9.7254   -2.3439 H   0  0  0  0  0  0  0  0  0  0  0  0
   -6.9134    8.8500   -2.3286 H   0  0  0  0  0  0  0  0  0  0  0  0
   -7.0477    7.7391   -4.4692 H   0  0  0  0  0  0  0  0  0  0  0  0
   -6.4409    6.2092   -3.8005 H   0  0  0  0  0  0  0  0  0  0  0  0
   -9.1638    6.7683   -4.4634 H   0  0  0  0  0  0  0  0  0  0  0  0
   -8.6493    5.4113   -3.4644 H   0  0  0  0  0  0  0  0  0  0  0  0
   -9.8078    9.2959   -1.9744 H   0  0  0  0  0  0  0  0  0  0  0  0
   -8.8032    9.0516   -3.4434 H   0  0  0  0  0  0  0  0  0  0  0  0
  -10.5297    8.5558   -3.4434 H   0  0  0  0  0  0  0  0  0  0  0  0
  -10.0075    5.4797   -1.4595 H   0  0  0  0  0  0  0  0  0  0  0  0
  -11.3360    6.2185   -3.5397 H   0  0  0  0  0  0  0  0  0  0  0  0
  -12.1732    5.4173   -2.1095 H   0  0  0  0  0  0  0  0  0  0  0  0
  -13.4280    7.4626   -3.1986 H   0  0  0  0  0  0  0  0  0  0  0  0
  -10.9947    9.1630   -0.4639 H   0  0  0  0  0  0  0  0  0  0  0  0
  -13.1729    7.7692    1.2128 H   0  0  0  0  0  0  0  0  0  0  0  0
  -11.7526    8.7176    1.8396 H   0  0  0  0  0  0  0  0  0  0  0  0
  -13.8565   10.0159    1.9264 H   0  0  0  0  0  0  0  0  0  0  0  0
  -12.6214   10.7456    0.8271 H   0  0  0  0  0  0  0  0  0  0  0  0
  -14.7691   10.8637   -0.2390 H   0  0  0  0  0  0  0  0  0  0  0  0
  -15.6920    9.0620    0.9490 H   0  0  0  0  0  0  0  0  0  0  0  0
  -12.4525   11.3648   -1.0813 H   0  0  0  0  0  0  0  0  0  0  0  0
  -11.9453   10.5094   -2.5773 H   0  0  0  0  0  0  0  0  0  0  0  0
  -13.4360   11.5116   -2.5773 H   0  0  0  0  0  0  0  0  0  0  0  0
  -15.7329    9.3234   -2.0983 H   0  0  0  0  0  0  0  0  0  0  0  0
  -14.8013   10.3524   -3.2385 H   0  0  0  0  0  0  0  0  0  0  0  0
  -14.5661    8.5716   -3.2385 H   0  0  0  0  0  0  0  0  0  0  0  0
  -11.3962    6.0945    1.6606 H   0  0  0  0  0  0  0  0  0  0  0  0
  -12.5676    5.9276    0.3091 H   0  0  0  0  0  0  0  0  0  0  0  0
  -11.0529    4.9621    0.3091 H   0  0  0  0  0  0  0  0  0  0  0  0
   -9.7988    8.1623    1.4183 H   0  0  0  0  0  0  0  0  0  0  0  0
   -9.1282    6.4757    1.0450 H   0  0  0  0  0  0  0  0  0  0  0  0
   -8.5579    9.0609   -0.4312 H   0  0  0  0  0  0  0  0  0  0  0  0
   -7.4261    8.0461    0.5471 H   0  0  0  0  0  0  0  0  0  0  0  0
   -7.5264    5.7530    0.2307 H   0  0  0  0  0  0  0  0  0  0  0  0
   -8.2441    5.0281   -1.2479 H   0  0  0  0  0  0  0  0  0  0  0  0
   -6.5261    5.5529   -1.2479 H   0  0  0  0  0  0  0  0  0  0  0  0
  1  2  1  0
  2  3  1  0
  3  4  1  0
  4  5  1  0
  5  6  1  0
  6  7  1  0
  7  8  1  0
  7  9  1  0
  2 10  1  0
 10 11  1  0
 11 12  1  0
 12 13  1  0
 13 14  1  6
 13 15  1  0
 15 16  1  0
 16 17  1  0
 17 18  2  0
 18 19  1  0
 19 20  1  0
 20 21  1  0
 21 22  1  0
 22 23  1  0
 22 24  1  0
 24 25  1  0
 24 26  1  0
 19 27  1  0
 27 28  1  1
 27 29  1  0
 29 30  1  0
 30 31  1  0
 31 32  1  1
  7  5  1  0
 31 10  1  0
 31 13  1  0
 27 15  1  0
 24 18  1  0
  1 33  1  0
  1 34  1  0
  1 35  1  0
  2 36  1  6
  3 37  1  0
  3 38  1  0
  4 39  1  0
  4 40  1  0
  5 41  1  6
  8 42  1  0
  8 43  1  0
  8 44  1  0
  9 45  1  0
  9 46  1  0
  9 47  1  0
 10 48  1  6
 11 49  1  0
 11 50  1  0
 12 51  1  0
 12 52  1  0
 14 53  1  0
 14 54  1  0
 14 55  1  0
 15 56  1  1
 16 57  1  0
 16 58  1  0
 17 59  1  0
 19 60  1  6
 20 61  1  0
 20 62  1  0
 21 63  1  0
 21 64  1  0
 22 65  1  6
 23 66  1  0
 25 67  1  0
 25 68  1  0
 25 69  1  0
 26 70  1  0
 26 71  1  0
 26 72  1  0
 28 73  1  0
 28 74  1  0
 28 75  1  0
 29 76  1  0
 29 77  1  0
 30 78  1  0
 30 79  1  0
 32 80  1  0
 32 81  1  0
 32 82  1  0
M  END
>  <meeko>  (15) 
{"is_sidechain": [false], "intermolecular_energy": 2.731, "internal_energy": -0.839}

$$$$
EPH_relaxed_0001_pdb2pqr_Repair_253_r2_0001_out
     RDKit          3D

 82 86  0  0  0  0  0  0  0  0999 V2000
    0.0470    9.3290   -1.9740 C   0  0  0  0  0  0  0  0  0  0  0  0
    1.1030   10.3060   -2.4980 C   0  0  2  0  0  0  0  0  0  0  0  0
    2.5070    9.6700   -2.5510 C   0  0  0  0  0  0  0  0  0  0  0  0
    3.3760   10.1930   -3.6980 C   0  0  0  0  0  0  0  0  0  0  0  0
    4.7450   10.5790   -3.2240 C   0  0  2  0  0  0  0  0  0  0  0  0
    5.2040   11.8530   -3.6950 O   0  0  0  0  0  0  0  0  0  0  0  0
    5.9440   10.7070   -4.1450 C   0  0  0  0  0  0  0  0  0  0  0  0
    5.8300   10.4480   -5.6150 C   0  0  0  0  0  0  0  0  0  0  0  0
    7.3150   10.6040   -3.5530 C   0  0  0  0  0  0  0  0  0  0  0  0
    1.1310   11.5570   -1.6280 C   0  0  1  0  0  0  0  0  0  0  0  0
    2.2790   11.5340   -0.5840 C   0  0  0  0  0  0  0  0  0  0  0  0
    2.7720   12.9950   -0.4280 C   0  0  0  0  0  0  0  0  0  0  0  0
    1.6870   13.8490   -1.1250 C   0  0  1  0  0  0  0  0  0  0  0  0
    0.5460   13.9880   -0.0690 C   0  0  0  0  0  0  0  0  0  0  0  0
    2.1450   15.2430   -1.6660 C   0  0  2  0  0  0  0  0  0  0  0  0
    2.6420   16.2280   -0.5930 C   0  0  0  0  0  0  0  0  0  0  0  0
    1.5940   17.1140   -0.0070 C   0  0  0  0  0  0  0  0  0  0  0  0
    0.3670   17.3210   -0.5220 C   0  0  0  0  0  0  0  0  0  0  0  0
   -0.0360   16.7060   -1.8680 C   0  0  1  0  0  0  0  0  0  0  0  0
   -0.7270   17.7830   -2.7440 C   0  0  0  0  0  0  0  0  0  0  0  0
   -1.9000   18.4510   -2.0330 C   0  0  0  0  0  0  0  0  0  0  0  0
   -1.4480   19.1020   -0.7280 C   0  0  2  0  0  0  0  0  0  0  0  0
   -0.5770   20.1940   -1.0360 O   0  0  0  0  0  0  0  0  0  0  0  0
   -0.7290   18.1140    0.2320 C   0  0  0  0  0  0  0  0  0  0  0  0
   -1.7540   17.1030    0.8020 C   0  0  0  0  0  0  0  0  0  0  0  0
   -0.2000   18.9270    1.4450 C   0  0  0  0  0  0  0  0  0  0  0  0
    1.1110   15.9300   -2.6470 C   0  0  1  0  0  0  0  0  0  0  0  0
    1.9260   16.9270   -3.5260 C   0  0  0  0  0  0  0  0  0  0  0  0
    0.4530   14.8990   -3.6390 C   0  0  0  0  0  0  0  0  0  0  0  0
    0.1330   13.5010   -3.0780 C   0  0  0  0  0  0  0  0  0  0  0  0
    1.3420   12.9160   -2.3420 C   0  0  2  0  0  0  0  0  0  0  0  0
    2.4990   12.7440   -3.3850 C   0  0  0  0  0  0  0  0  0  0  0  0
    0.0546    9.3361   -0.8740 H   0  0  0  0  0  0  0  0  0  0  0  0
   -0.9461    9.6338   -2.3357 H   0  0  0  0  0  0  0  0  0  0  0  0
    0.2738    8.3152   -2.3357 H   0  0  0  0  0  0  0  0  0  0  0  0
    0.8230   10.5750   -3.5272 H   0  0  0  0  0  0  0  0  0  0  0  0
    3.0205    9.8820   -1.6016 H   0  0  0  0  0  0  0  0  0  0  0  0
    2.3658    8.5922   -2.7199 H   0  0  0  0  0  0  0  0  0  0  0  0
    3.4714    9.4060   -4.4606 H   0  0  0  0  0  0  0  0  0  0  0  0
    2.8918   11.0885   -4.1147 H   0  0  0  0  0  0  0  0  0  0  0  0
    4.5959   10.0381   -2.2778 H   0  0  0  0  0  0  0  0  0  0  0  0
    5.3918    9.4525   -5.7790 H   0  0  0  0  0  0  0  0  0  0  0  0
    5.1852   11.2124   -6.0731 H   0  0  0  0  0  0  0  0  0  0  0  0
    6.8292   10.4888   -6.0731 H   0  0  0  0  0  0  0  0  0  0  0  0
    7.2418   10.6095   -2.4555 H   0  0  0  0  0  0  0  0  0  0  0  0
    7.7880    9.6678   -3.8843 H   0  0  0  0  0  0  0  0  0  0  0  0
    7.9226   11.4590   -3.8843 H   0  0  0  0  0  0  0  0  0  0  0  0
    0.1173   11.5081   -1.2037 H   0  0  0  0  0  0  0  0  0  0  0  0
    1.9072   11.1549    0.3794 H   0  0  0  0  0  0  0  0  0  0  0  0
    3.0964   10.8745   -0.9108 H   0  0  0  0  0  0  0  0  0  0  0  0
    2.8556   13.2653    0.6350 H   0  0  0  0  0  0  0  0  0  0  0  0
    3.7691   13.1480   -0.8666 H   0  0  0  0  0  0  0  0  0  0  0  0
    0.9745   13.9358    0.9428 H   0  0  0  0  0  0  0  0  0  0  0  0
    0.0383   14.9546   -0.2028 H   0  0  0  0  0  0  0  0  0  0  0  0
   -0.1789   13.1715   -0.2028 H   0  0  0  0  0  0  0  0  0  0  0  0
    3.0295   14.9836   -2.2663 H   0  0  0  0  0  0  0  0  0  0  0  0
    3.0887   15.6431    0.2246 H   0  0  0  0  0  0  0  0  0  0  0  0
    3.3560   16.8945   -1.0989 H   0  0  0  0  0  0  0  0  0  0  0  0
    1.8449   17.6428    0.9244 H   0  0  0  0  0  0  0  0  0  0  0  0
   -0.7495   15.9024   -1.6330 H   0  0  0  0  0  0  0  0  0  0  0  0
    0.0131   18.5541   -3.0040 H   0  0  0  0  0  0  0  0  0  0  0  0
   -1.1214   17.2818   -3.6402 H   0  0  0  0  0  0  0  0  0  0  0  0
   -2.3278   19.2220   -2.6907 H   0  0  0  0  0  0  0  0  0  0  0  0
   -2.6526   17.6833   -1.8001 H   0  0  0  0  0  0  0  0  0  0  0  0
   -2.3496   19.4493   -0.2022 H   0  0  0  0  0  0  0  0  0  0  0  0
    0.3260   19.9300   -0.7880 H   0  0  0  0  0  0  0  0  0  0  0  0
   -1.7249   17.1317    1.9012 H   0  0  0  0  0  0  0  0  0  0  0  0
   -2.7633   17.3690    0.4548 H   0  0  0  0  0  0  0  0  0  0  0  0
   -1.5019   16.0901    0.4548 H   0  0  0  0  0  0  0  0  0  0  0  0
   -0.5169   18.4400    2.3791 H   0  0  0  0  0  0  0  0  0  0  0  0
    0.8986   18.9686    1.4075 H   0  0  0  0  0  0  0  0  0  0  0  0
   -0.6070   19.9482    1.4075 H   0  0  0  0  0  0  0  0  0  0  0  0
    2.4877   17.6142   -2.8762 H   0  0  0  0  0  0  0  0  0  0  0  0
    2.6280   16.3667   -4.1610 H   0  0  0  0  0  0  0  0  0  0  0  0
    1.2373   17.5036   -4.1610 H   0  0  0  0  0  0  0  0  0  0  0  0
   -0.4901   15.3375   -3.9971 H   0  0  0  0  0  0  0  0  0  0  0  0
    1.2089   14.7291   -4.4198 H   0  0  0  0  0  0  0  0  0  0  0  0
   -0.7116   13.5790   -2.3776 H   0  0  0  0  0  0  0  0  0  0  0  0
   -0.1225   12.8365   -3.9166 H   0  0  0  0  0  0  0  0  0  0  0  0
    3.4524   12.6023   -2.8550 H   0  0  0  0  0  0  0  0  0  0  0  0
    2.2963   11.8661   -4.0161 H   0  0  0  0  0  0  0  0  0  0  0  0
    2.5604   13.6429   -4.0161 H   0  0  0  0  0  0  0  0  0  0  0  0
  1  2  1  0
  2  3  1  0
  3  4  1  0
  4  5  1  0
  5  6  1  0
  6  7  1  0
  7  8  1  0
  7  9  1  0
  2 10  1  0
 10 11  1  0
 11 12  1  0
 12 13  1  0
 13 14  1  1
 13 15  1  0
 15 16  1  0
 16 17  1  0
 17 18  2  0
 18 19  1  0
 19 20  1  0
 20 21  1  0
 21 22  1  0
 22 23  1  0
 22 24  1  0
 24 25  1  0
 24 26  1  0
 19 27  1  0
 27 28  1  6
 27 29  1  0
 29 30  1  0
 30 31  1  0
 31 32  1  6
  7  5  1  0
 31 10  1  0
 31 13  1  0
 27 15  1  0
 24 18  1  0
  1 33  1  0
  1 34  1  0
  1 35  1  0
  2 36  1  6
  3 37  1  0
  3 38  1  0
  4 39  1  0
  4 40  1  0
  5 41  1  1
  8 42  1  0
  8 43  1  0
  8 44  1  0
  9 45  1  0
  9 46  1  0
  9 47  1  0
 10 48  1  1
 11 49  1  0
 11 50  1  0
 12 51  1  0
 12 52  1  0
 14 53  1  0
 14 54  1  0
 14 55  1  0
 15 56  1  6
 16 57  1  0
 16 58  1  0
 17 59  1  0
 19 60  1  1
 20 61  1  0
 20 62  1  0
 21 63  1  0
 21 64  1  0
 22 65  1  1
 23 66  1  0
 25 67  1  0
 25 68  1  0
 25 69  1  0
 26 70  1  0
 26 71  1  0
 26 72  1  0
 28 73  1  0
 28 74  1  0
 28 75  1  0
 29 76  1  0
 29 77  1  0
 30 78  1  0
 30 79  1  0
 32 80  1  0
 32 81  1  0
 32 82  1  0
M  END
>  <meeko>  (16) 
{"is_sidechain": [false], "intermolecular_energy": 2.731, "internal_energy": -0.839}

$$$$
EPH_relaxed_0001_pdb2pqr_Repair_253_r2_0001_out
     RDKit          3D

 82 86  0  0  0  0  0  0  0  0999 V2000
    2.1420   18.5830   -3.3470 C   0  0  0  0  0  0  0  0  0  0  0  0
    1.0630   17.8850   -2.5140 C   0  0  2  0  0  0  0  0  0  0  0  0
    0.6990   18.6850   -1.2470 C   0  0  0  0  0  0  0  0  0  0  0  0
    1.5280   19.9590   -1.0640 C   0  0  0  0  0  0  0  0  0  0  0  0
    2.6320   19.7650   -0.0700 C   0  0  2  0  0  0  0  0  0  0  0  0
    2.4950   18.6020    0.7580 O   0  0  0  0  0  0  0  0  0  0  0  0
    2.4350   19.8700    1.4310 C   0  0  0  0  0  0  0  0  0  0  0  0
    1.0960   20.1830    2.0220 C   0  0  0  0  0  0  0  0  0  0  0  0
    3.6270   20.1530    2.2920 C   0  0  0  0  0  0  0  0  0  0  0  0
    1.5270   16.4850   -2.1310 C   0  0  1  0  0  0  0  0  0  0  0  0
    2.8660   16.4920   -1.3470 C   0  0  0  0  0  0  0  0  0  0  0  0
    2.7880   15.3350   -0.3170 C   0  0  0  0  0  0  0  0  0  0  0  0
    1.5640   14.5010   -0.7610 C   0  0  1  0  0  0  0  0  0  0  0  0
    2.0920   13.6000   -1.9220 C   0  0  0  0  0  0  0  0  0  0  0  0
    0.8640   13.6550    0.3530 C   0  0  2  0  0  0  0  0  0  0  0  0
    1.7400   12.5640    0.9910 C   0  0  0  0  0  0  0  0  0  0  0  0
    1.6780   11.2270    0.3300 C   0  0  0  0  0  0  0  0  0  0  0  0
    0.7410   10.8350   -0.5530 C   0  0  0  0  0  0  0  0  0  0  0  0
   -0.4480   11.7410   -0.8950 C   0  0  1  0  0  0  0  0  0  0  0  0
   -1.7590   10.9120   -0.8590 C   0  0  0  0  0  0  0  0  0  0  0  0
   -1.6940    9.6760   -1.7500 C   0  0  0  0  0  0  0  0  0  0  0  0
   -0.5340    8.7700   -1.3420 C   0  0  2  0  0  0  0  0  0  0  0  0
   -0.8040    8.2340   -0.0430 O   0  0  0  0  0  0  0  0  0  0  0  0
    0.8380    9.4990   -1.3310 C   0  0  0  0  0  0  0  0  0  0  0  0
    1.2710    9.8150   -2.7850 C   0  0  0  0  0  0  0  0  0  0  0  0
    1.8980    8.5150   -0.7670 C   0  0  0  0  0  0  0  0  0  0  0  0
   -0.5560   13.0890   -0.0590 C   0  0  1  0  0  0  0  0  0  0  0  0
   -1.3340   12.8320    1.2670 C   0  0  0  0  0  0  0  0  0  0  0  0
   -1.4030   14.1350   -0.8760 C   0  0  0  0  0  0  0  0  0  0  0  0
   -0.6350   15.0230   -1.8750 C   0  0  0  0  0  0  0  0  0  0  0  0
    0.5950   15.6530   -1.2140 C   0  0  2  0  0  0  0  0  0  0  0  0
    0.0940   16.5820   -0.0570 C   0  0  0  0  0  0  0  0  0  0  0  0
    2.8740   19.0565   -2.6762 H   0  0  0  0  0  0  0  0  0  0  0  0
    2.6514   17.8428   -3.9816 H   0  0  0  0  0  0  0  0  0  0  0  0
    1.6757   19.3510   -3.9816 H   0  0  0  0  0  0  0  0  0  0  0  0
    0.1569   17.8196   -3.1342 H   0  0  0  0  0  0  0  0  0  0  0  0
   -0.3625   18.9671   -1.3075 H   0  0  0  0  0  0  0  0  0  0  0  0
    0.9124   18.0361   -0.3848 H   0  0  0  0  0  0  0  0  0  0  0  0
    1.9663   20.2411   -2.0327 H   0  0  0  0  0  0  0  0  0  0  0  0
    0.8625   20.7494   -0.6867 H   0  0  0  0  0  0  0  0  0  0  0  0
    3.3596   20.2280   -0.7528 H   0  0  0  0  0  0  0  0  0  0  0  0
    1.1667   20.1665    3.1196 H   0  0  0  0  0  0  0  0  0  0  0  0
    0.7730   21.1809    1.6904 H   0  0  0  0  0  0  0  0  0  0  0  0
    0.3642   19.4317    1.6904 H   0  0  0  0  0  0  0  0  0  0  0  0
    3.3387   20.0846    3.3513 H   0  0  0  0  0  0  0  0  0  0  0  0
    4.4164   19.4173    2.0786 H   0  0  0  0  0  0  0  0  0  0  0  0
    4.0015   21.1650    2.0786 H   0  0  0  0  0  0  0  0  0  0  0  0
    1.5777   16.0283   -3.1304 H   0  0  0  0  0  0  0  0  0  0  0  0
    3.7087   16.3302   -2.0352 H   0  0  0  0  0  0  0  0  0  0  0  0
    3.0243   17.4577   -0.8447 H   0  0  0  0  0  0  0  0  0  0  0  0
    3.7039   14.7265   -0.3461 H   0  0  0  0  0  0  0  0  0  0  0  0
    2.6915   15.7011    0.7158 H   0  0  0  0  0  0  0  0  0  0  0  0
    2.6058   12.7232   -1.5010 H   0  0  0  0  0  0  0  0  0  0  0  0
    1.2462   13.2670   -2.5414 H   0  0  0  0  0  0  0  0  0  0  0  0
    2.7959   14.1752   -2.5414 H   0  0  0  0  0  0  0  0  0  0  0  0
    0.6935   14.4008    1.1434 H   0  0  0  0  0  0  0  0  0  0  0  0
    2.7844   12.9081    0.9640 H   0  0  0  0  0  0  0  0  0  0  0  0
    1.3497   12.4179    2.0090 H   0  0  0  0  0  0  0  0  0  0  0  0
    2.4640   10.5013    0.5861 H   0  0  0  0  0  0  0  0  0  0  0  0
   -0.2661   12.1077   -1.9160 H   0  0  0  0  0  0  0  0  0  0  0  0
   -1.9448   10.5908    0.1765 H   0  0  0  0  0  0  0  0  0  0  0  0
   -2.5698   11.5529   -1.2357 H   0  0  0  0  0  0  0  0  0  0  0  0
   -2.6369    9.1167   -1.6593 H   0  0  0  0  0  0  0  0  0  0  0  0
   -1.5378   10.0001   -2.7895 H   0  0  0  0  0  0  0  0  0  0  0  0
   -0.4584    7.9711   -2.0944 H   0  0  0  0  0  0  0  0  0  0  0  0
   -0.7400    8.9640    0.5960 H   0  0  0  0  0  0  0  0  0  0  0  0
    2.1595   10.4634   -2.7703 H   0  0  0  0  0  0  0  0  0  0  0  0
    1.5099    8.8775   -3.3084 H   0  0  0  0  0  0  0  0  0  0  0  0
    0.4510   10.3284   -3.3084 H   0  0  0  0  0  0  0  0  0  0  0  0
    1.8722    8.5389    0.3324 H   0  0  0  0  0  0  0  0  0  0  0  0
    1.6754    7.4962   -1.1169 H   0  0  0  0  0  0  0  0  0  0  0  0
    2.8975    8.8127   -1.1169 H   0  0  0  0  0  0  0  0  0  0  0  0
   -0.6793   13.0483    2.1241 H   0  0  0  0  0  0  0  0  0  0  0  0
   -2.2176   13.4860    1.3063 H   0  0  0  0  0  0  0  0  0  0  0  0
   -1.6542   11.7804    1.3063 H   0  0  0  0  0  0  0  0  0  0  0  0
   -2.1634   13.5776   -1.4426 H   0  0  0  0  0  0  0  0  0  0  0  0
   -1.8056   14.8296   -0.1240 H   0  0  0  0  0  0  0  0  0  0  0  0
   -0.3104   14.4082   -2.7275 H   0  0  0  0  0  0  0  0  0  0  0  0
   -1.3028   15.8287   -2.2141 H   0  0  0  0  0  0  0  0  0  0  0  0
    0.3404   16.1251    0.9128 H   0  0  0  0  0  0  0  0  0  0  0  0
    0.5854   17.5630   -0.1356 H   0  0  0  0  0  0  0  0  0  0  0  0
   -0.9957   16.7104   -0.1356 H   0  0  0  0  0  0  0  0  0  0  0  0
  1  2  1  0
  2  3  1  0
  3  4  1  0
  4  5  1  0
  5  6  1  0
  6  7  1  0
  7  8  1  0
  7  9  1  0
  2 10  1  0
 10 11  1  0
 11 12  1  0
 12 13  1  0
 13 14  1  6
 13 15  1  0
 15 16  1  0
 16 17  1  0
 17 18  2  0
 18 19  1  0
 19 20  1  0
 20 21  1  0
 21 22  1  0
 22 23  1  0
 22 24  1  0
 24 25  1  0
 24 26  1  0
 19 27  1  0
 27 28  1  1
 27 29  1  0
 29 30  1  0
 30 31  1  0
 31 32  1  1
  7  5  1  0
 31 10  1  0
 31 13  1  0
 27 15  1  0
 24 18  1  0
  1 33  1  0
  1 34  1  0
  1 35  1  0
  2 36  1  6
  3 37  1  0
  3 38  1  0
  4 39  1  0
  4 40  1  0
  5 41  1  6
  8 42  1  0
  8 43  1  0
  8 44  1  0
  9 45  1  0
  9 46  1  0
  9 47  1  0
 10 48  1  6
 11 49  1  0
 11 50  1  0
 12 51  1  0
 12 52  1  0
 14 53  1  0
 14 54  1  0
 14 55  1  0
 15 56  1  1
 16 57  1  0
 16 58  1  0
 17 59  1  0
 19 60  1  6
 20 61  1  0
 20 62  1  0
 21 63  1  0
 21 64  1  0
 22 65  1  6
 23 66  1  0
 25 67  1  0
 25 68  1  0
 25 69  1  0
 26 70  1  0
 26 71  1  0
 26 72  1  0
 28 73  1  0
 28 74  1  0
 28 75  1  0
 29 76  1  0
 29 77  1  0
 30 78  1  0
 30 79  1  0
 32 80  1  0
 32 81  1  0
 32 82  1  0
M  END
>  <meeko>  (17) 
{"is_sidechain": [false], "intermolecular_energy": 2.731, "internal_energy": -0.839}

$$$$
