EPH_relaxed_0001_pdb2pqr_Repair_204_r2_0001_out
     RDKit          3D

 82 86  0  0  0  0  0  0  0  0999 V2000
   -5.1410    5.8540   -1.7540 C   0  0  0  0  0  0  0  0  0  0  0  0
   -5.4490    7.3540   -1.7990 C   0  0  2  0  0  0  0  0  0  0  0  0
   -5.2270    8.0340   -0.4330 C   0  0  0  0  0  0  0  0  0  0  0  0
   -4.1820    9.1530   -0.4650 C   0  0  0  0  0  0  0  0  0  0  0  0
   -2.8190    8.6280   -0.8000 C   0  0  2  0  0  0  0  0  0  0  0  0
   -1.8020    8.9500    0.1580 O   0  0  0  0  0  0  0  0  0  0  0  0
   -1.6420    9.5190   -1.1510 C   0  0  0  0  0  0  0  0  0  0  0  0
   -1.7760   11.0100   -1.1870 C   0  0  0  0  0  0  0  0  0  0  0  0
   -0.5070    8.9320   -1.9300 C   0  0  0  0  0  0  0  0  0  0  0  0
   -6.8830    7.5750   -2.2650 C   0  0  1  0  0  0  0  0  0  0  0  0
   -7.1860    6.8800   -3.6190 C   0  0  0  0  0  0  0  0  0  0  0  0
   -8.6590    6.4020   -3.5560 C   0  0  0  0  0  0  0  0  0  0  0  0
   -9.2500    7.1200   -2.3210 C   0  0  1  0  0  0  0  0  0  0  0  0
   -9.6050    8.5550   -2.8230 C   0  0  0  0  0  0  0  0  0  0  0  0
  -10.4750    6.4270   -1.6390 C   0  0  2  0  0  0  0  0  0  0  0  0
  -11.7270    6.2980   -2.5240 C   0  0  0  0  0  0  0  0  0  0  0  0
  -12.6860    7.4400   -2.4440 C   0  0  0  0  0  0  0  0  0  0  0  0
  -12.6940    8.3890   -1.4880 C   0  0  0  0  0  0  0  0  0  0  0  0
  -11.7310    8.3140   -0.2960 C   0  0  1  0  0  0  0  0  0  0  0  0
  -12.5100    8.5900    1.0170 C   0  0  0  0  0  0  0  0  0  0  0  0
  -13.2840    9.9040    0.9730 C   0  0  0  0  0  0  0  0  0  0  0  0
  -14.2720    9.9160   -0.1910 C   0  0  2  0  0  0  0  0  0  0  0  0
  -15.2870    8.9380    0.0560 O   0  0  0  0  0  0  0  0  0  0  0  0
  -13.6030    9.6400   -1.5660 C   0  0  0  0  0  0  0  0  0  0  0  0
  -12.7280   10.8520   -1.9720 C   0  0  0  0  0  0  0  0  0  0  0  0
  -14.7270    9.5400   -2.6320 C   0  0  0  0  0  0  0  0  0  0  0  0
  -10.8340    7.0050   -0.2100 C   0  0  1  0  0  0  0  0  0  0  0  0
  -11.6060    5.8800    0.5440 C   0  0  0  0  0  0  0  0  0  0  0  0
   -9.5520    7.3160    0.6490 C   0  0  0  0  0  0  0  0  0  0  0  0
   -8.3340    7.8870   -0.1030 C   0  0  0  0  0  0  0  0  0  0  0  0
   -8.0170    7.0530   -1.3480 C   0  0  2  0  0  0  0  0  0  0  0  0
   -7.6350    5.6100   -0.8730 C   0  0  0  0  0  0  0  0  0  0  0  0
   -5.0734    5.5248   -0.7066 H   0  0  0  0  0  0  0  0  0  0  0  0
   -5.9440    5.2994   -2.2616 H   0  0  0  0  0  0  0  0  0  0  0  0
   -4.1844    5.6607   -2.2616 H   0  0  0  0  0  0  0  0  0  0  0  0
   -4.7506    7.8147   -2.5132 H   0  0  0  0  0  0  0  0  0  0  0  0
   -6.1836    8.4617   -0.0984 H   0  0  0  0  0  0  0  0  0  0  0  0
   -4.8498    7.2614    0.2532 H   0  0  0  0  0  0  0  0  0  0  0  0
   -4.4754    9.8934   -1.2238 H   0  0  0  0  0  0  0  0  0  0  0  0
   -4.1377    9.6100    0.5346 H   0  0  0  0  0  0  0  0  0  0  0  0
   -3.2540    7.7496   -1.2992 H   0  0  0  0  0  0  0  0  0  0  0  0
   -1.8110   11.3999   -0.1590 H   0  0  0  0  0  0  0  0  0  0  0  0
   -0.9132   11.4431   -1.7142 H   0  0  0  0  0  0  0  0  0  0  0  0
   -2.7022   11.2823   -1.7142 H   0  0  0  0  0  0  0  0  0  0  0  0
    0.2506    8.5402   -1.2353 H   0  0  0  0  0  0  0  0  0  0  0  0
   -0.8813    8.1144   -2.5636 H   0  0  0  0  0  0  0  0  0  0  0  0
   -0.0561    9.7099   -2.5636 H   0  0  0  0  0  0  0  0  0  0  0  0
   -6.8991    8.6745   -2.2949 H   0  0  0  0  0  0  0  0  0  0  0  0
   -7.0535    7.5910   -4.4478 H   0  0  0  0  0  0  0  0  0  0  0  0
   -6.5033    6.0348   -3.7908 H   0  0  0  0  0  0  0  0  0  0  0  0
   -9.2003    6.6909   -4.4690 H   0  0  0  0  0  0  0  0  0  0  0  0
   -8.7393    5.3076   -3.4801 H   0  0  0  0  0  0  0  0  0  0  0  0
   -9.7685    9.2158   -1.9589 H   0  0  0  0  0  0  0  0  0  0  0  0
   -8.7765    8.9459   -3.4319 H   0  0  0  0  0  0  0  0  0  0  0  0
  -10.5202    8.5145   -3.4319 H   0  0  0  0  0  0  0  0  0  0  0  0
  -10.1105    5.4006   -1.4854 H   0  0  0  0  0  0  0  0  0  0  0  0
  -11.3963    6.2046   -3.5689 H   0  0  0  0  0  0  0  0  0  0  0  0
  -12.2717    5.4171   -2.1535 H   0  0  0  0  0  0  0  0  0  0  0  0
  -13.4501    7.5123   -3.2320 H   0  0  0  0  0  0  0  0  0  0  0  0
  -10.9830    9.1038   -0.4594 H   0  0  0  0  0  0  0  0  0  0  0  0
  -13.2209    7.7675    1.1848 H   0  0  0  0  0  0  0  0  0  0  0  0
  -11.7751    8.6626    1.8322 H   0  0  0  0  0  0  0  0  0  0  0  0
  -13.8368   10.0280    1.9159 H   0  0  0  0  0  0  0  0  0  0  0  0
  -12.5690   10.7285    0.8354 H   0  0  0  0  0  0  0  0  0  0  0  0
  -14.7007   10.9273   -0.2493 H   0  0  0  0  0  0  0  0  0  0  0  0
  -15.2020    8.6520    0.9810 H   0  0  0  0  0  0  0  0  0  0  0  0
  -12.3618   11.3593   -1.0673 H   0  0  0  0  0  0  0  0  0  0  0  0
  -11.8722   10.5030   -2.5685 H   0  0  0  0  0  0  0  0  0  0  0  0
  -13.3286   11.5544   -2.5685 H   0  0  0  0  0  0  0  0  0  0  0  0
  -15.7019    9.4533   -2.1299 H   0  0  0  0  0  0  0  0  0  0  0  0
  -14.7174   10.4425   -3.2607 H   0  0  0  0  0  0  0  0  0  0  0  0
  -14.5582    8.6533   -3.2607 H   0  0  0  0  0  0  0  0  0  0  0  0
  -11.5038    6.0290    1.6291 H   0  0  0  0  0  0  0  0  0  0  0  0
  -12.6700    5.9168    0.2675 H   0  0  0  0  0  0  0  0  0  0  0  0
  -11.1889    4.9004    0.2675 H   0  0  0  0  0  0  0  0  0  0  0  0
   -9.8378    8.0449    1.4217 H   0  0  0  0  0  0  0  0  0  0  0  0
   -9.2207    6.3409    1.0355 H   0  0  0  0  0  0  0  0  0  0  0  0
   -8.5523    8.9209   -0.4086 H   0  0  0  0  0  0  0  0  0  0  0  0
   -7.4631    7.8593    0.5684 H   0  0  0  0  0  0  0  0  0  0  0  0
   -7.6261    5.5762    0.2264 H   0  0  0  0  0  0  0  0  0  0  0  0
   -8.3736    4.8904   -1.2559 H   0  0  0  0  0  0  0  0  0  0  0  0
   -6.6371    5.3501   -1.2559 H   0  0  0  0  0  0  0  0  0  0  0  0
  1  2  1  0
  2  3  1  0
  3  4  1  0
  4  5  1  0
  5  6  1  0
  6  7  1  0
  7  8  1  0
  7  9  1  0
  2 10  1  0
 10 11  1  0
 11 12  1  0
 12 13  1  0
 13 14  1  6
 13 15  1  0
 15 16  1  0
 16 17  1  0
 17 18  2  0
 18 19  1  0
 19 20  1  0
 20 21  1  0
 21 22  1  0
 22 23  1  0
 22 24  1  0
 24 25  1  0
 24 26  1  0
 19 27  1  0
 27 28  1  1
 27 29  1  0
 29 30  1  0
 30 31  1  0
 31 32  1  1
  7  5  1  0
 31 10  1  0
 31 13  1  0
 27 15  1  0
 24 18  1  0
  1 33  1  0
  1 34  1  0
  1 35  1  0
  2 36  1  6
  3 37  1  0
  3 38  1  0
  4 39  1  0
  4 40  1  0
  5 41  1  6
  8 42  1  0
  8 43  1  0
  8 44  1  0
  9 45  1  0
  9 46  1  0
  9 47  1  0
 10 48  1  6
 11 49  1  0
 11 50  1  0
 12 51  1  0
 12 52  1  0
 14 53  1  0
 14 54  1  0
 14 55  1  0
 15 56  1  1
 16 57  1  0
 16 58  1  0
 17 59  1  0
 19 60  1  6
 20 61  1  0
 20 62  1  0
 21 63  1  0
 21 64  1  0
 22 65  1  6
 23 66  1  0
 25 67  1  0
 25 68  1  0
 25 69  1  0
 26 70  1  0
 26 71  1  0
 26 72  1  0
 28 73  1  0
 28 74  1  0
 28 75  1  0
 29 76  1  0
 29 77  1  0
 30 78  1  0
 30 79  1  0
 32 80  1  0
 32 81  1  0
 32 82  1  0
M  END
>  <meeko>  (1) 
{"is_sidechain": [false], "intermolecular_energy": 2.731, "internal_energy": -0.839}

$$$$
EPH_relaxed_0001_pdb2pqr_Repair_204_r2_0001_out
     RDKit          3D

 82 86  0  0  0  0  0  0  0  0999 V2000
   -5.0130    8.5670   -0.5230 C   0  0  0  0  0  0  0  0  0  0  0  0
   -5.3520    7.4710   -1.5390 C   0  0  2  0  0  0  0  0  0  0  0  0
   -4.3550    7.4410   -2.7140 C   0  0  0  0  0  0  0  0  0  0  0  0
   -2.9270    7.0740   -2.3010 C   0  0  0  0  0  0  0  0  0  0  0  0
   -1.9410    8.1200   -2.7260 C   0  0  2  0  0  0  0  0  0  0  0  0
   -0.5950    7.8860   -2.2910 O   0  0  0  0  0  0  0  0  0  0  0  0
   -1.2400    9.0530   -1.7560 C   0  0  0  0  0  0  0  0  0  0  0  0
   -1.4980    8.9840   -0.2830 C   0  0  0  0  0  0  0  0  0  0  0  0
   -0.6840   10.3410   -2.2770 C   0  0  0  0  0  0  0  0  0  0  0  0
   -6.7690    7.6690   -2.0630 C   0  0  1  0  0  0  0  0  0  0  0  0
   -7.0020    6.9760   -3.4320 C   0  0  0  0  0  0  0  0  0  0  0  0
   -8.4680    6.4690   -3.4330 C   0  0  0  0  0  0  0  0  0  0  0  0
   -9.1230    7.1690   -2.2200 C   0  0  1  0  0  0  0  0  0  0  0  0
   -9.4840    8.6000   -2.7290 C   0  0  0  0  0  0  0  0  0  0  0  0
  -10.3620    6.4500   -1.5930 C   0  0  2  0  0  0  0  0  0  0  0  0
  -11.5740    6.3030   -2.5300 C   0  0  0  0  0  0  0  0  0  0  0  0
  -12.5560    7.4260   -2.4840 C   0  0  0  0  0  0  0  0  0  0  0  0
  -12.6220    8.3680   -1.5250 C   0  0  0  0  0  0  0  0  0  0  0  0
  -11.7090    8.3050   -0.2950 C   0  0  1  0  0  0  0  0  0  0  0  0
  -12.5470    8.5580    0.9860 C   0  0  0  0  0  0  0  0  0  0  0  0
  -13.3430    9.8580    0.9160 C   0  0  0  0  0  0  0  0  0  0  0  0
  -14.2820    9.8580   -0.2870 C   0  0  2  0  0  0  0  0  0  0  0  0
  -15.2870    8.8600   -0.0880 O   0  0  0  0  0  0  0  0  0  0  0  0
  -13.5510    9.6030   -1.6350 C   0  0  0  0  0  0  0  0  0  0  0  0
  -12.6830   10.8330   -1.9980 C   0  0  0  0  0  0  0  0  0  0  0  0
  -14.6270    9.4880   -2.7480 C   0  0  0  0  0  0  0  0  0  0  0  0
  -10.7910    7.0130   -0.1780 C   0  0  1  0  0  0  0  0  0  0  0  0
  -11.5720    5.8680    0.5380 C   0  0  0  0  0  0  0  0  0  0  0  0
   -9.5520    7.3430    0.7350 C   0  0  0  0  0  0  0  0  0  0  0  0
   -8.3150    7.9410    0.0380 C   0  0  0  0  0  0  0  0  0  0  0  0
   -7.9310    7.1200   -1.1970 C   0  0  2  0  0  0  0  0  0  0  0  0
   -7.5410    5.6820   -0.7130 C   0  0  0  0  0  0  0  0  0  0  0  0
   -5.1351    8.1724    0.4965 H   0  0  0  0  0  0  0  0  0  0  0  0
   -3.9723    8.8923   -0.6681 H   0  0  0  0  0  0  0  0  0  0  0  0
   -5.6883    9.4231   -0.6681 H   0  0  0  0  0  0  0  0  0  0  0  0
   -5.2795    6.5039   -1.0198 H   0  0  0  0  0  0  0  0  0  0  0  0
   -4.7054    6.7002   -3.4478 H   0  0  0  0  0  0  0  0  0  0  0  0
   -4.3177    8.4588   -3.1297 H   0  0  0  0  0  0  0  0  0  0  0  0
   -2.8878    6.9708   -1.2066 H   0  0  0  0  0  0  0  0  0  0  0  0
   -2.6590    6.1288   -2.7958 H   0  0  0  0  0  0  0  0  0  0  0  0
   -2.5028    8.3062   -3.6532 H   0  0  0  0  0  0  0  0  0  0  0  0
   -0.5754    9.2307    0.2628 H   0  0  0  0  0  0  0  0  0  0  0  0
   -2.2861    9.7029   -0.0147 H   0  0  0  0  0  0  0  0  0  0  0  0
   -1.8220    7.9676   -0.0147 H   0  0  0  0  0  0  0  0  0  0  0  0
   -0.4047   10.9881   -1.4324 H   0  0  0  0  0  0  0  0  0  0  0  0
    0.2053   10.1349   -2.8908 H   0  0  0  0  0  0  0  0  0  0  0  0
   -1.4439   10.8468   -2.8908 H   0  0  0  0  0  0  0  0  0  0  0  0
   -6.8045    8.7682   -2.0874 H   0  0  0  0  0  0  0  0  0  0  0  0
   -6.8490    7.6942   -4.2510 H   0  0  0  0  0  0  0  0  0  0  0  0
   -6.2965    6.1450   -3.5792 H   0  0  0  0  0  0  0  0  0  0  0  0
   -8.9764    6.7526   -4.3663 H   0  0  0  0  0  0  0  0  0  0  0  0
   -8.5306    5.3728   -3.3662 H   0  0  0  0  0  0  0  0  0  0  0  0
   -9.6515    9.2640   -1.8681 H   0  0  0  0  0  0  0  0  0  0  0  0
   -8.6566    8.9919   -3.3388 H   0  0  0  0  0  0  0  0  0  0  0  0
  -10.3983    8.5525   -3.3388 H   0  0  0  0  0  0  0  0  0  0  0  0
   -9.9847    5.4298   -1.4294 H   0  0  0  0  0  0  0  0  0  0  0  0
  -11.1987    6.2218   -3.5608 H   0  0  0  0  0  0  0  0  0  0  0  0
  -12.1170    5.4100   -2.1869 H   0  0  0  0  0  0  0  0  0  0  0  0
  -13.2876    7.4891   -3.3030 H   0  0  0  0  0  0  0  0  0  0  0  0
  -10.9708    9.1104   -0.4233 H   0  0  0  0  0  0  0  0  0  0  0  0
  -13.2487    7.7214    1.1195 H   0  0  0  0  0  0  0  0  0  0  0  0
  -11.8485    8.6388    1.8319 H   0  0  0  0  0  0  0  0  0  0  0  0
  -13.9363    9.9669    1.8359 H   0  0  0  0  0  0  0  0  0  0  0  0
  -12.6383   10.6962    0.8116 H   0  0  0  0  0  0  0  0  0  0  0  0
  -14.7277   10.8612   -0.3572 H   0  0  0  0  0  0  0  0  0  0  0  0
  -16.1330    9.2280   -0.3960 H   0  0  0  0  0  0  0  0  0  0  0  0
  -12.3373   11.3229   -1.0758 H   0  0  0  0  0  0  0  0  0  0  0  0
  -11.8137   10.5071   -2.5880 H   0  0  0  0  0  0  0  0  0  0  0  0
  -13.2814   11.5428   -2.5880 H   0  0  0  0  0  0  0  0  0  0  0  0
  -15.6205    9.3818   -2.2879 H   0  0  0  0  0  0  0  0  0  0  0  0
  -14.6069   10.3934   -3.3724 H   0  0  0  0  0  0  0  0  0  0  0  0
  -14.4160    8.6073   -3.3724 H   0  0  0  0  0  0  0  0  0  0  0  0
  -11.4873    5.9921    1.6277 H   0  0  0  0  0  0  0  0  0  0  0  0
  -12.6317    5.9084    0.2456 H   0  0  0  0  0  0  0  0  0  0  0  0
  -11.1477    4.8962    0.2456 H   0  0  0  0  0  0  0  0  0  0  0  0
   -9.8836    8.0618    1.4988 H   0  0  0  0  0  0  0  0  0  0  0  0
   -9.2186    6.3719    1.1296 H   0  0  0  0  0  0  0  0  0  0  0  0
   -8.5397    8.9725   -0.2712 H   0  0  0  0  0  0  0  0  0  0  0  0
   -7.4725    7.9259    0.7451 H   0  0  0  0  0  0  0  0  0  0  0  0
   -7.5336    5.6547    0.3866 H   0  0  0  0  0  0  0  0  0  0  0  0
   -8.2746    4.9557   -1.0929 H   0  0  0  0  0  0  0  0  0  0  0  0
   -6.5410    5.4259   -1.0929 H   0  0  0  0  0  0  0  0  0  0  0  0
  1  2  1  0
  2  3  1  0
  3  4  1  0
  4  5  1  0
  5  6  1  0
  6  7  1  0
  7  8  1  0
  7  9  1  0
  2 10  1  0
 10 11  1  0
 11 12  1  0
 12 13  1  0
 13 14  1  6
 13 15  1  0
 15 16  1  0
 16 17  1  0
 17 18  2  0
 18 19  1  0
 19 20  1  0
 20 21  1  0
 21 22  1  0
 22 23  1  0
 22 24  1  0
 24 25  1  0
 24 26  1  0
 19 27  1  0
 27 28  1  1
 27 29  1  0
 29 30  1  0
 30 31  1  0
 31 32  1  1
  7  5  1  0
 31 10  1  0
 31 13  1  0
 27 15  1  0
 24 18  1  0
  1 33  1  0
  1 34  1  0
  1 35  1  0
  2 36  1  1
  3 37  1  0
  3 38  1  0
  4 39  1  0
  4 40  1  0
  5 41  1  6
  8 42  1  0
  8 43  1  0
  8 44  1  0
  9 45  1  0
  9 46  1  0
  9 47  1  0
 10 48  1  6
 11 49  1  0
 11 50  1  0
 12 51  1  0
 12 52  1  0
 14 53  1  0
 14 54  1  0
 14 55  1  0
 15 56  1  1
 16 57  1  0
 16 58  1  0
 17 59  1  0
 19 60  1  6
 20 61  1  0
 20 62  1  0
 21 63  1  0
 21 64  1  0
 22 65  1  6
 23 66  1  0
 25 67  1  0
 25 68  1  0
 25 69  1  0
 26 70  1  0
 26 71  1  0
 26 72  1  0
 28 73  1  0
 28 74  1  0
 28 75  1  0
 29 76  1  0
 29 77  1  0
 30 78  1  0
 30 79  1  0
 32 80  1  0
 32 81  1  0
 32 82  1  0
M  END
>  <meeko>  (2) 
{"is_sidechain": [false], "intermolecular_energy": 2.731, "internal_energy": -0.839}

$$$$
EPH_relaxed_0001_pdb2pqr_Repair_204_r2_0001_out
     RDKit          3D

 82 86  0  0  0  0  0  0  0  0999 V2000
  -14.7120    6.3970   -0.5850 C   0  0  0  0  0  0  0  0  0  0  0  0
  -13.4060    6.8610    0.0670 C   0  0  2  0  0  0  0  0  0  0  0  0
  -13.5690    8.2080    0.7990 C   0  0  0  0  0  0  0  0  0  0  0  0
  -14.7320    9.0560    0.2780 C   0  0  0  0  0  0  0  0  0  0  0  0
  -14.2480   10.2750   -0.4470 C   0  0  2  0  0  0  0  0  0  0  0  0
  -15.2860   11.1580   -0.8920 O   0  0  0  0  0  0  0  0  0  0  0  0
  -14.5040   10.5300   -1.9200 C   0  0  0  0  0  0  0  0  0  0  0  0
  -15.2710    9.5560   -2.7590 C   0  0  0  0  0  0  0  0  0  0  0  0
  -13.6000   11.4720   -2.6510 C   0  0  0  0  0  0  0  0  0  0  0  0
  -12.3100    6.9700   -0.9860 C   0  0  1  0  0  0  0  0  0  0  0  0
  -12.5980    8.0760   -2.0360 C   0  0  0  0  0  0  0  0  0  0  0  0
  -11.2290    8.6910   -2.4260 C   0  0  0  0  0  0  0  0  0  0  0  0
  -10.1820    7.7100   -1.8480 C   0  0  1  0  0  0  0  0  0  0  0  0
  -10.1010    6.5510   -2.8910 C   0  0  0  0  0  0  0  0  0  0  0  0
   -8.7720    8.3080   -1.5380 C   0  0  2  0  0  0  0  0  0  0  0  0
   -8.0110    8.8540   -2.7590 C   0  0  0  0  0  0  0  0  0  0  0  0
   -7.1310    7.8690   -3.4550 C   0  0  0  0  0  0  0  0  0  0  0  0
   -6.7350    6.6840   -2.9540 C   0  0  0  0  0  0  0  0  0  0  0  0
   -7.0990    6.2730   -1.5210 C   0  0  1  0  0  0  0  0  0  0  0  0
   -5.8410    5.7100   -0.8090 C   0  0  0  0  0  0  0  0  0  0  0  0
   -5.1830    4.5770   -1.5920 C   0  0  0  0  0  0  0  0  0  0  0  0
   -4.7830    5.0410   -2.9900 C   0  0  2  0  0  0  0  0  0  0  0  0
   -3.7420    6.0160   -2.8720 O   0  0  0  0  0  0  0  0  0  0  0  0
   -5.9680    5.6380   -3.8000 C   0  0  0  0  0  0  0  0  0  0  0  0
   -6.9550    4.5080   -4.1870 C   0  0  0  0  0  0  0  0  0  0  0  0
   -5.4020    6.1950   -5.1340 C   0  0  0  0  0  0  0  0  0  0  0  0
   -7.8510    7.3720   -0.6540 C   0  0  1  0  0  0  0  0  0  0  0  0
   -6.8110    8.3020    0.0440 C   0  0  0  0  0  0  0  0  0  0  0  0
   -8.6520    6.6590    0.4980 C   0  0  0  0  0  0  0  0  0  0  0  0
  -10.0840    6.1980    0.1650 C   0  0  0  0  0  0  0  0  0  0  0  0
  -10.8840    7.3250   -0.4950 C   0  0  2  0  0  0  0  0  0  0  0  0
  -11.0020    8.4960    0.5390 C   0  0  0  0  0  0  0  0  0  0  0  0
  -15.4406    6.1381    0.1974 H   0  0  0  0  0  0  0  0  0  0  0  0
  -15.1173    7.2061   -1.2103 H   0  0  0  0  0  0  0  0  0  0  0  0
  -14.5160    5.5135   -1.2103 H   0  0  0  0  0  0  0  0  0  0  0  0
  -13.1259    6.1086    0.8189 H   0  0  0  0  0  0  0  0  0  0  0  0
  -13.7389    8.0045    1.8666 H   0  0  0  0  0  0  0  0  0  0  0  0
  -12.6481    8.7829    0.6220 H   0  0  0  0  0  0  0  0  0  0  0  0
  -15.3360    8.4476   -0.4113 H   0  0  0  0  0  0  0  0  0  0  0  0
  -15.3299    9.3850    1.1407 H   0  0  0  0  0  0  0  0  0  0  0  0
  -13.3285   10.2972    0.1564 H   0  0  0  0  0  0  0  0  0  0  0  0
  -15.8185    8.8608   -2.1056 H   0  0  0  0  0  0  0  0  0  0  0  0
  -15.9847   10.1014   -3.3940 H   0  0  0  0  0  0  0  0  0  0  0  0
  -14.5734    8.9901   -3.3940 H   0  0  0  0  0  0  0  0  0  0  0  0
  -13.0277   12.0684   -1.9252 H   0  0  0  0  0  0  0  0  0  0  0  0
  -12.9059   10.8982   -3.2826 H   0  0  0  0  0  0  0  0  0  0  0  0
  -14.2019   12.1419   -3.2826 H   0  0  0  0  0  0  0  0  0  0  0  0
  -12.3284    5.9422   -1.3774 H   0  0  0  0  0  0  0  0  0  0  0  0
  -13.0834    7.6401   -2.9217 H   0  0  0  0  0  0  0  0  0  0  0  0
  -13.2728    8.8424   -1.6270 H   0  0  0  0  0  0  0  0  0  0  0  0
  -11.1325    8.7621   -3.5195 H   0  0  0  0  0  0  0  0  0  0  0  0
  -11.1040    9.7120   -2.0362 H   0  0  0  0  0  0  0  0  0  0  0  0
  -10.0337    5.5877   -2.3642 H   0  0  0  0  0  0  0  0  0  0  0  0
  -11.0021    6.5618   -3.5218 H   0  0  0  0  0  0  0  0  0  0  0  0
   -9.2102    6.6870   -3.5218 H   0  0  0  0  0  0  0  0  0  0  0  0
   -9.0188    9.1862   -0.9233 H   0  0  0  0  0  0  0  0  0  0  0  0
   -8.7516    9.2205   -3.4851 H   0  0  0  0  0  0  0  0  0  0  0  0
   -7.3439    9.6399   -2.3752 H   0  0  0  0  0  0  0  0  0  0  0  0
   -6.7764    8.1339   -4.4620 H   0  0  0  0  0  0  0  0  0  0  0  0
   -7.8596    5.4838   -1.6146 H   0  0  0  0  0  0  0  0  0  0  0  0
   -5.1113    6.5240   -0.6863 H   0  0  0  0  0  0  0  0  0  0  0  0
   -6.1608    5.3032    0.1617 H   0  0  0  0  0  0  0  0  0  0  0  0
   -4.2846    4.2414   -1.0532 H   0  0  0  0  0  0  0  0  0  0  0  0
   -5.9040    3.7519   -1.6887 H   0  0  0  0  0  0  0  0  0  0  0  0
   -4.4378    4.1561   -3.5448 H   0  0  0  0  0  0  0  0  0  0  0  0
   -2.9520    5.5620   -2.5330 H   0  0  0  0  0  0  0  0  0  0  0  0
   -7.3590    4.0455   -3.2744 H   0  0  0  0  0  0  0  0  0  0  0  0
   -7.7798    4.9290   -4.7807 H   0  0  0  0  0  0  0  0  0  0  0  0
   -6.4269    3.7473   -4.7807 H   0  0  0  0  0  0  0  0  0  0  0  0
   -4.6332    6.9516   -4.9186 H   0  0  0  0  0  0  0  0  0  0  0  0
   -4.9559    5.3739   -5.7143 H   0  0  0  0  0  0  0  0  0  0  0  0
   -6.2159    6.6542   -5.7143 H   0  0  0  0  0  0  0  0  0  0  0  0
   -6.9125    8.2113    1.1355 H   0  0  0  0  0  0  0  0  0  0  0  0
   -5.7949    8.0057   -0.2557 H   0  0  0  0  0  0  0  0  0  0  0  0
   -6.9923    9.3447   -0.2557 H   0  0  0  0  0  0  0  0  0  0  0  0
   -8.0785    5.7709    0.8019 H   0  0  0  0  0  0  0  0  0  0  0  0
   -8.7697    7.4216    1.2819 H   0  0  0  0  0  0  0  0  0  0  0  0
  -10.0352    5.3410   -0.5229 H   0  0  0  0  0  0  0  0  0  0  0  0
  -10.5869    5.9129    1.1009 H   0  0  0  0  0  0  0  0  0  0  0  0
  -10.9610    8.0890    1.5601 H   0  0  0  0  0  0  0  0  0  0  0  0
  -10.1703    9.2006    0.3914 H   0  0  0  0  0  0  0  0  0  0  0  0
  -11.9576    9.0205    0.3914 H   0  0  0  0  0  0  0  0  0  0  0  0
  1  2  1  0
  2  3  1  0
  3  4  1  0
  4  5  1  0
  5  6  1  0
  6  7  1  0
  7  8  1  0
  7  9  1  0
  2 10  1  0
 10 11  1  0
 11 12  1  0
 12 13  1  0
 13 14  1  6
 13 15  1  0
 15 16  1  0
 16 17  1  0
 17 18  2  0
 18 19  1  0
 19 20  1  0
 20 21  1  0
 21 22  1  0
 22 23  1  0
 22 24  1  0
 24 25  1  0
 24 26  1  0
 19 27  1  0
 27 28  1  1
 27 29  1  0
 29 30  1  0
 30 31  1  0
 31 32  1  1
  7  5  1  0
 31 10  1  0
 31 13  1  0
 27 15  1  0
 24 18  1  0
  1 33  1  0
  1 34  1  0
  1 35  1  0
  2 36  1  1
  3 37  1  0
  3 38  1  0
  4 39  1  0
  4 40  1  0
  5 41  1  1
  8 42  1  0
  8 43  1  0
  8 44  1  0
  9 45  1  0
  9 46  1  0
  9 47  1  0
 10 48  1  6
 11 49  1  0
 11 50  1  0
 12 51  1  0
 12 52  1  0
 14 53  1  0
 14 54  1  0
 14 55  1  0
 15 56  1  1
 16 57  1  0
 16 58  1  0
 17 59  1  0
 19 60  1  6
 20 61  1  0
 20 62  1  0
 21 63  1  0
 21 64  1  0
 22 65  1  6
 23 66  1  0
 25 67  1  0
 25 68  1  0
 25 69  1  0
 26 70  1  0
 26 71  1  0
 26 72  1  0
 28 73  1  0
 28 74  1  0
 28 75  1  0
 29 76  1  0
 29 77  1  0
 30 78  1  0
 30 79  1  0
 32 80  1  0
 32 81  1  0
 32 82  1  0
M  END
>  <meeko>  (3) 
{"is_sidechain": [false], "intermolecular_energy": 2.731, "internal_energy": -0.839}

$$$$
EPH_relaxed_0001_pdb2pqr_Repair_204_r2_0001_out
     RDKit          3D

 82 86  0  0  0  0  0  0  0  0999 V2000
  -15.2100    8.6230    0.2590 C   0  0  0  0  0  0  0  0  0  0  0  0
  -14.3020    9.0080   -0.9120 C   0  0  2  0  0  0  0  0  0  0  0  0
  -14.5510    8.1280   -2.1540 C   0  0  0  0  0  0  0  0  0  0  0  0
  -14.6090    8.9170   -3.4650 C   0  0  0  0  0  0  0  0  0  0  0  0
  -15.2860   10.2420   -3.2860 C   0  0  2  0  0  0  0  0  0  0  0  0
  -15.0010   11.2030   -4.3110 O   0  0  0  0  0  0  0  0  0  0  0  0
  -14.5400   11.5290   -2.9900 C   0  0  0  0  0  0  0  0  0  0  0  0
  -13.0490   11.5540   -2.8550 C   0  0  0  0  0  0  0  0  0  0  0  0
  -15.2870   12.6590   -2.3520 C   0  0  0  0  0  0  0  0  0  0  0  0
  -12.8400    8.9120   -0.4900 C   0  0  1  0  0  0  0  0  0  0  0  0
  -12.6570    8.9910    1.0490 C   0  0  0  0  0  0  0  0  0  0  0  0
  -11.4670    8.0620    1.4060 C   0  0  0  0  0  0  0  0  0  0  0  0
  -10.8000    7.7430    0.0470 C   0  0  1  0  0  0  0  0  0  0  0  0
   -9.9040    8.9830   -0.2610 C   0  0  0  0  0  0  0  0  0  0  0  0
   -9.9870    6.4100   -0.0280 C   0  0  2  0  0  0  0  0  0  0  0  0
   -8.7730    6.3330    0.9140 C   0  0  0  0  0  0  0  0  0  0  0  0
   -7.4860    6.8220    0.3370 C   0  0  0  0  0  0  0  0  0  0  0  0
   -7.2470    7.0380   -0.9700 C   0  0  0  0  0  0  0  0  0  0  0  0
   -8.2990    6.6910   -2.0310 C   0  0  1  0  0  0  0  0  0  0  0  0
   -7.6250    5.9240   -3.1980 C   0  0  0  0  0  0  0  0  0  0  0  0
   -6.4330    6.6780   -3.7820 C   0  0  0  0  0  0  0  0  0  0  0  0
   -5.3830    6.9520   -2.7090 C   0  0  2  0  0  0  0  0  0  0  0  0
   -4.8180    5.7070   -2.2880 O   0  0  0  0  0  0  0  0  0  0  0  0
   -5.9490    7.7130   -1.4780 C   0  0  0  0  0  0  0  0  0  0  0  0
   -6.2830    9.1720   -1.8750 C   0  0  0  0  0  0  0  0  0  0  0  0
   -4.8230    7.8010   -0.4120 C   0  0  0  0  0  0  0  0  0  0  0  0
   -9.6080    5.9640   -1.4980 C   0  0  1  0  0  0  0  0  0  0  0  0
   -9.3770    4.4220   -1.4490 C   0  0  0  0  0  0  0  0  0  0  0  0
  -10.7820    6.2050   -2.5180 C   0  0  0  0  0  0  0  0  0  0  0  0
  -11.6240    7.4790   -2.3200 C   0  0  0  0  0  0  0  0  0  0  0  0
  -12.0760    7.6160   -0.8620 C   0  0  2  0  0  0  0  0  0  0  0  0
  -12.9990    6.3940   -0.5310 C   0  0  0  0  0  0  0  0  0  0  0  0
  -14.6972    8.8404    1.2075 H   0  0  0  0  0  0  0  0  0  0  0  0
  -16.1432    9.2029    0.2054 H   0  0  0  0  0  0  0  0  0  0  0  0
  -15.4420    7.5491    0.2054 H   0  0  0  0  0  0  0  0  0  0  0  0
  -14.5415   10.0452   -1.1891 H   0  0  0  0  0  0  0  0  0  0  0  0
  -13.7368    7.3920   -2.2272 H   0  0  0  0  0  0  0  0  0  0  0  0
  -15.5344    7.6535   -2.0202 H   0  0  0  0  0  0  0  0  0  0  0  0
  -13.5833    9.0866   -3.8245 H   0  0  0  0  0  0  0  0  0  0  0  0
  -15.1902    8.3309   -4.1921 H   0  0  0  0  0  0  0  0  0  0  0  0
  -16.1498    9.7621   -2.8027 H   0  0  0  0  0  0  0  0  0  0  0  0
  -12.7774   11.5586   -1.7891 H   0  0  0  0  0  0  0  0  0  0  0  0
  -12.6221   10.6629   -3.3384 H   0  0  0  0  0  0  0  0  0  0  0  0
  -12.6522   12.4589   -3.3384 H   0  0  0  0  0  0  0  0  0  0  0  0
  -15.2262   12.5671   -1.2575 H   0  0  0  0  0  0  0  0  0  0  0  0
  -14.8425   13.6153   -2.6649 H   0  0  0  0  0  0  0  0  0  0  0  0
  -16.3410   12.6247   -2.6649 H   0  0  0  0  0  0  0  0  0  0  0  0
  -12.4293    9.7647   -1.0506 H   0  0  0  0  0  0  0  0  0  0  0  0
  -12.4345   10.0249    1.3515 H   0  0  0  0  0  0  0  0  0  0  0  0
  -13.5728    8.6789    1.5724 H   0  0  0  0  0  0  0  0  0  0  0  0
  -10.7603    8.5756    2.0744 H   0  0  0  0  0  0  0  0  0  0  0  0
  -11.7909    7.1537    1.9353 H   0  0  0  0  0  0  0  0  0  0  0  0
   -9.5736    9.4403    0.6833 H   0  0  0  0  0  0  0  0  0  0  0  0
   -9.0254    8.6654   -0.8417 H   0  0  0  0  0  0  0  0  0  0  0  0
  -10.4814    9.7174   -0.8417 H   0  0  0  0  0  0  0  0  0  0  0  0
  -10.7079    5.6717    0.3531 H   0  0  0  0  0  0  0  0  0  0  0  0
   -8.9964    6.9363    1.8063 H   0  0  0  0  0  0  0  0  0  0  0  0
   -8.6231    5.2650    1.1304 H   0  0  0  0  0  0  0  0  0  0  0  0
   -6.6634    7.0228    1.0392 H   0  0  0  0  0  0  0  0  0  0  0  0
   -8.6921    7.6520   -2.3944 H   0  0  0  0  0  0  0  0  0  0  0  0
   -7.2775    4.9491   -2.8253 H   0  0  0  0  0  0  0  0  0  0  0  0
   -8.3717    5.8086   -3.9975 H   0  0  0  0  0  0  0  0  0  0  0  0
   -5.9811    6.0731   -4.5819 H   0  0  0  0  0  0  0  0  0  0  0  0
   -6.7870    7.6400   -4.1810 H   0  0  0  0  0  0  0  0  0  0  0  0
   -4.6178    7.6041   -3.1553 H   0  0  0  0  0  0  0  0  0  0  0  0
   -5.1650    5.0130   -2.8740 H   0  0  0  0  0  0  0  0  0  0  0  0
   -6.4214    9.7767   -0.9666 H   0  0  0  0  0  0  0  0  0  0  0  0
   -5.4569    9.5883   -2.4702 H   0  0  0  0  0  0  0  0  0  0  0  0
   -7.2079    9.1875   -2.4702 H   0  0  0  0  0  0  0  0  0  0  0  0
   -5.2668    7.7663    0.5939 H   0  0  0  0  0  0  0  0  0  0  0  0
   -4.1323    6.9541   -0.5374 H   0  0  0  0  0  0  0  0  0  0  0  0
   -4.2723    8.7449   -0.5374 H   0  0  0  0  0  0  0  0  0  0  0  0
   -9.3275    4.0918   -0.4009 H   0  0  0  0  0  0  0  0  0  0  0  0
  -10.2085    3.9104   -1.9558 H   0  0  0  0  0  0  0  0  0  0  0  0
   -8.4321    4.1765   -1.9558 H   0  0  0  0  0  0  0  0  0  0  0  0
  -10.3433    6.2495   -3.5257 H   0  0  0  0  0  0  0  0  0  0  0  0
  -11.4802    5.3707   -2.3552 H   0  0  0  0  0  0  0  0  0  0  0  0
  -11.0192    8.3562   -2.5933 H   0  0  0  0  0  0  0  0  0  0  0  0
  -12.5166    7.4127   -2.9594 H   0  0  0  0  0  0  0  0  0  0  0  0
  -13.0830    6.2829    0.5601 H   0  0  0  0  0  0  0  0  0  0  0  0
  -13.9977    6.5619   -0.9604 H   0  0  0  0  0  0  0  0  0  0  0  0
  -12.5644    5.4793   -0.9604 H   0  0  0  0  0  0  0  0  0  0  0  0
  1  2  1  0
  2  3  1  0
  3  4  1  0
  4  5  1  0
  5  6  1  0
  6  7  1  0
  7  8  1  0
  7  9  1  0
  2 10  1  0
 10 11  1  0
 11 12  1  0
 12 13  1  0
 13 14  1  6
 13 15  1  0
 15 16  1  0
 16 17  1  0
 17 18  2  0
 18 19  1  0
 19 20  1  0
 20 21  1  0
 21 22  1  0
 22 23  1  0
 22 24  1  0
 24 25  1  0
 24 26  1  0
 19 27  1  0
 27 28  1  1
 27 29  1  0
 29 30  1  0
 30 31  1  0
 31 32  1  1
  7  5  1  0
 31 10  1  0
 31 13  1  0
 27 15  1  0
 24 18  1  0
  1 33  1  0
  1 34  1  0
  1 35  1  0
  2 36  1  6
  3 37  1  0
  3 38  1  0
  4 39  1  0
  4 40  1  0
  5 41  1  1
  8 42  1  0
  8 43  1  0
  8 44  1  0
  9 45  1  0
  9 46  1  0
  9 47  1  0
 10 48  1  6
 11 49  1  0
 11 50  1  0
 12 51  1  0
 12 52  1  0
 14 53  1  0
 14 54  1  0
 14 55  1  0
 15 56  1  1
 16 57  1  0
 16 58  1  0
 17 59  1  0
 19 60  1  6
 20 61  1  0
 20 62  1  0
 21 63  1  0
 21 64  1  0
 22 65  1  6
 23 66  1  0
 25 67  1  0
 25 68  1  0
 25 69  1  0
 26 70  1  0
 26 71  1  0
 26 72  1  0
 28 73  1  0
 28 74  1  0
 28 75  1  0
 29 76  1  0
 29 77  1  0
 30 78  1  0
 30 79  1  0
 32 80  1  0
 32 81  1  0
 32 82  1  0
M  END
>  <meeko>  (4) 
{"is_sidechain": [false], "intermolecular_energy": 2.731, "internal_energy": -0.839}

$$$$
EPH_relaxed_0001_pdb2pqr_Repair_204_r2_0001_out
     RDKit          3D

 82 86  0  0  0  0  0  0  0  0999 V2000
   -5.0160    6.4340   -3.2780 C   0  0  0  0  0  0  0  0  0  0  0  0
   -5.8580    7.5700   -2.6900 C   0  0  2  0  0  0  0  0  0  0  0  0
   -5.2940    8.0740   -1.3460 C   0  0  0  0  0  0  0  0  0  0  0  0
   -3.7780    7.9130   -1.2150 C   0  0  0  0  0  0  0  0  0  0  0  0
   -3.1790    8.9800   -0.3500 C   0  0  2  0  0  0  0  0  0  0  0  0
   -2.9250   10.2210   -1.0190 O   0  0  0  0  0  0  0  0  0  0  0  0
   -1.7710    9.5150   -0.5350 C   0  0  0  0  0  0  0  0  0  0  0  0
   -0.8760    8.9980   -1.6160 C   0  0  0  0  0  0  0  0  0  0  0  0
   -1.1010   10.1810    0.6260 C   0  0  0  0  0  0  0  0  0  0  0  0
   -7.2990    7.1090   -2.5100 C   0  0  1  0  0  0  0  0  0  0  0  0
   -7.4850    5.5970   -2.8070 C   0  0  0  0  0  0  0  0  0  0  0  0
   -8.5690    5.0790   -1.8280 C   0  0  0  0  0  0  0  0  0  0  0  0
   -9.2040    6.3590   -1.2350 C   0  0  1  0  0  0  0  0  0  0  0  0
  -10.2270    6.8350   -2.3140 C   0  0  0  0  0  0  0  0  0  0  0  0
   -9.8730    6.2110    0.1700 C   0  0  2  0  0  0  0  0  0  0  0  0
  -11.0690    5.2450    0.2250 C   0  0  0  0  0  0  0  0  0  0  0  0
  -12.4020    5.8650   -0.0340 C   0  0  0  0  0  0  0  0  0  0  0  0
  -12.6680    7.1840   -0.0190 C   0  0  0  0  0  0  0  0  0  0  0  0
  -11.5890    8.2000    0.3780 C   0  0  1  0  0  0  0  0  0  0  0  0
  -12.1830    9.2220    1.3810 C   0  0  0  0  0  0  0  0  0  0  0  0
  -13.4490    9.8910    0.8540 C   0  0  0  0  0  0  0  0  0  0  0  0
  -14.5190    8.8530    0.5270 C   0  0  2  0  0  0  0  0  0  0  0  0
  -14.9490    8.2340    1.7430 O   0  0  0  0  0  0  0  0  0  0  0  0
  -14.0310    7.7640   -0.4700 C   0  0  0  0  0  0  0  0  0  0  0  0
  -13.8530    8.3880   -1.8760 C   0  0  0  0  0  0  0  0  0  0  0  0
  -15.1560    6.7030   -0.6050 C   0  0  0  0  0  0  0  0  0  0  0  0
  -10.2090    7.5870    0.8750 C   0  0  1  0  0  0  0  0  0  0  0  0
  -10.2770    7.2980    2.4060 C   0  0  0  0  0  0  0  0  0  0  0  0
   -9.0700    8.6560    0.6750 C   0  0  0  0  0  0  0  0  0  0  0  0
   -8.3650    8.6720   -0.6940 C   0  0  0  0  0  0  0  0  0  0  0  0
   -7.9250    7.2630   -1.1010 C   0  0  2  0  0  0  0  0  0  0  0  0
   -6.8780    6.7660   -0.0460 C   0  0  0  0  0  0  0  0  0  0  0  0
   -4.5773    5.8421   -2.4612 H   0  0  0  0  0  0  0  0  0  0  0  0
   -5.6545    5.7871   -3.8976 H   0  0  0  0  0  0  0  0  0  0  0  0
   -4.2114    6.8568   -3.8976 H   0  0  0  0  0  0  0  0  0  0  0  0
   -5.8226    8.4102   -3.3991 H   0  0  0  0  0  0  0  0  0  0  0  0
   -5.5397    9.1414   -1.2449 H   0  0  0  0  0  0  0  0  0  0  0  0
   -5.7515    7.4608   -0.5556 H   0  0  0  0  0  0  0  0  0  0  0  0
   -3.5611    6.9305   -0.7704 H   0  0  0  0  0  0  0  0  0  0  0  0
   -3.3366    7.9981   -2.2189 H   0  0  0  0  0  0  0  0  0  0  0  0
   -3.7126    8.5966    0.5322 H   0  0  0  0  0  0  0  0  0  0  0  0
   -0.0075    8.4963   -1.1643 H   0  0  0  0  0  0  0  0  0  0  0  0
   -1.4304    8.2810   -2.2394 H   0  0  0  0  0  0  0  0  0  0  0  0
   -0.5319    9.8364   -2.2394 H   0  0  0  0  0  0  0  0  0  0  0  0
   -1.5074    9.7770    1.5650 H   0  0  0  0  0  0  0  0  0  0  0  0
   -0.0184    9.9907    0.5831 H   0  0  0  0  0  0  0  0  0  0  0  0
   -1.2848   11.2647    0.5831 H   0  0  0  0  0  0  0  0  0  0  0  0
   -7.7979    7.7857   -3.2193 H   0  0  0  0  0  0  0  0  0  0  0  0
   -7.8137    5.4529   -3.8468 H   0  0  0  0  0  0  0  0  0  0  0  0
   -6.5400    5.0495   -2.6755 H   0  0  0  0  0  0  0  0  0  0  0  0
   -9.3232    4.4837   -2.3635 H   0  0  0  0  0  0  0  0  0  0  0  0
   -8.1497    4.4231   -1.0508 H   0  0  0  0  0  0  0  0  0  0  0  0
  -11.1171    7.2492   -1.8179 H   0  0  0  0  0  0  0  0  0  0  0  0
   -9.7634    7.6099   -2.9422 H   0  0  0  0  0  0  0  0  0  0  0  0
  -10.5212    5.9813   -2.9422 H   0  0  0  0  0  0  0  0  0  0  0  0
   -9.0772    5.7345    0.7613 H   0  0  0  0  0  0  0  0  0  0  0  0
  -10.9070    4.4602   -0.5286 H   0  0  0  0  0  0  0  0  0  0  0  0
  -11.1056    4.8646    1.2565 H   0  0  0  0  0  0  0  0  0  0  0  0
  -13.2382    5.1857   -0.2561 H   0  0  0  0  0  0  0  0  0  0  0  0
  -11.2999    8.7146   -0.5502 H   0  0  0  0  0  0  0  0  0  0  0  0
  -12.4249    8.6975    2.3172 H   0  0  0  0  0  0  0  0  0  0  0  0
  -11.4311   10.0090    1.5404 H   0  0  0  0  0  0  0  0  0  0  0  0
  -13.8373   10.5796    1.6189 H   0  0  0  0  0  0  0  0  0  0  0  0
  -13.1992   10.4394   -0.0662 H   0  0  0  0  0  0  0  0  0  0  0  0
  -15.3499    9.3797    0.0349 H   0  0  0  0  0  0  0  0  0  0  0  0
  -15.6040    7.5550    1.5120 H   0  0  0  0  0  0  0  0  0  0  0  0
  -13.5525    9.4413   -1.7743 H   0  0  0  0  0  0  0  0  0  0  0  0
  -13.0763    7.8366   -2.4262 H   0  0  0  0  0  0  0  0  0  0  0  0
  -14.8037    8.3294   -2.4262 H   0  0  0  0  0  0  0  0  0  0  0  0
  -15.4874    6.3905    0.3963 H   0  0  0  0  0  0  0  0  0  0  0  0
  -16.0052    7.1367   -1.1535 H   0  0  0  0  0  0  0  0  0  0  0  0
  -14.7727    5.8299   -1.1535 H   0  0  0  0  0  0  0  0  0  0  0  0
  -10.0598    8.2211    2.9634 H   0  0  0  0  0  0  0  0  0  0  0  0
  -11.2839    6.9402    2.6672 H   0  0  0  0  0  0  0  0  0  0  0  0
   -9.5353    6.5288    2.6672 H   0  0  0  0  0  0  0  0  0  0  0  0
   -9.5151    9.6497    0.8317 H   0  0  0  0  0  0  0  0  0  0  0  0
   -8.2878    8.3818    1.3982 H   0  0  0  0  0  0  0  0  0  0  0  0
   -9.0591    9.0650   -1.4515 H   0  0  0  0  0  0  0  0  0  0  0  0
   -7.4723    9.3106   -0.6211 H   0  0  0  0  0  0  0  0  0  0  0  0
   -7.2637    6.9491    0.9677 H   0  0  0  0  0  0  0  0  0  0  0  0
   -6.7029    5.6887   -0.1826 H   0  0  0  0  0  0  0  0  0  0  0  0
   -5.9326    7.3114   -0.1826 H   0  0  0  0  0  0  0  0  0  0  0  0
  1  2  1  0
  2  3  1  0
  3  4  1  0
  4  5  1  0
  5  6  1  0
  6  7  1  0
  7  8  1  0
  7  9  1  0
  2 10  1  0
 10 11  1  0
 11 12  1  0
 12 13  1  0
 13 14  1  6
 13 15  1  0
 15 16  1  0
 16 17  1  0
 17 18  2  0
 18 19  1  0
 19 20  1  0
 20 21  1  0
 21 22  1  0
 22 23  1  0
 22 24  1  0
 24 25  1  0
 24 26  1  0
 19 27  1  0
 27 28  1  1
 27 29  1  0
 29 30  1  0
 30 31  1  0
 31 32  1  1
  7  5  1  0
 31 10  1  0
 31 13  1  0
 27 15  1  0
 24 18  1  0
  1 33  1  0
  1 34  1  0
  1 35  1  0
  2 36  1  6
  3 37  1  0
  3 38  1  0
  4 39  1  0
  4 40  1  0
  5 41  1  1
  8 42  1  0
  8 43  1  0
  8 44  1  0
  9 45  1  0
  9 46  1  0
  9 47  1  0
 10 48  1  6
 11 49  1  0
 11 50  1  0
 12 51  1  0
 12 52  1  0
 14 53  1  0
 14 54  1  0
 14 55  1  0
 15 56  1  1
 16 57  1  0
 16 58  1  0
 17 59  1  0
 19 60  1  6
 20 61  1  0
 20 62  1  0
 21 63  1  0
 21 64  1  0
 22 65  1  6
 23 66  1  0
 25 67  1  0
 25 68  1  0
 25 69  1  0
 26 70  1  0
 26 71  1  0
 26 72  1  0
 28 73  1  0
 28 74  1  0
 28 75  1  0
 29 76  1  0
 29 77  1  0
 30 78  1  0
 30 79  1  0
 32 80  1  0
 32 81  1  0
 32 82  1  0
M  END
>  <meeko>  (5) 
{"is_sidechain": [false], "intermolecular_energy": 2.731, "internal_energy": -0.839}

$$$$
EPH_relaxed_0001_pdb2pqr_Repair_204_r2_0001_out
     RDKit          3D

 82 86  0  0  0  0  0  0  0  0999 V2000
  -14.1000    9.7110    0.8370 C   0  0  0  0  0  0  0  0  0  0  0  0
  -13.4160    9.2660   -0.4580 C   0  0  2  0  0  0  0  0  0  0  0  0
  -14.3130    8.3360   -1.3000 C   0  0  0  0  0  0  0  0  0  0  0  0
  -14.5260    8.8210   -2.7360 C   0  0  0  0  0  0  0  0  0  0  0  0
  -15.2400   10.1380   -2.7770 C   0  0  2  0  0  0  0  0  0  0  0  0
  -15.0280   10.8980   -3.9730 O   0  0  0  0  0  0  0  0  0  0  0  0
  -14.5270   11.4770   -2.7570 C   0  0  0  0  0  0  0  0  0  0  0  0
  -13.0350   11.5660   -2.6940 C   0  0  0  0  0  0  0  0  0  0  0  0
  -15.2870   12.6860   -2.3080 C   0  0  0  0  0  0  0  0  0  0  0  0
  -12.0990    8.5680   -0.1370 C   0  0  1  0  0  0  0  0  0  0  0  0
  -12.2540    7.4720    0.9510 C   0  0  0  0  0  0  0  0  0  0  0  0
  -11.2640    6.3360    0.5850 C   0  0  0  0  0  0  0  0  0  0  0  0
  -10.3460    6.9520   -0.4960 C   0  0  1  0  0  0  0  0  0  0  0  0
   -9.2920    7.7850    0.3000 C   0  0  0  0  0  0  0  0  0  0  0  0
   -9.6630    5.9450   -1.4780 C   0  0  2  0  0  0  0  0  0  0  0  0
   -8.7000    4.9420   -0.8190 C   0  0  0  0  0  0  0  0  0  0  0  0
   -7.2770    5.3870   -0.7320 C   0  0  0  0  0  0  0  0  0  0  0  0
   -6.7360    6.4140   -1.4130 C   0  0  0  0  0  0  0  0  0  0  0  0
   -7.5550    7.1880   -2.4550 C   0  0  1  0  0  0  0  0  0  0  0  0
   -6.7130    7.3700   -3.7440 C   0  0  0  0  0  0  0  0  0  0  0  0
   -5.3570    8.0150   -3.4720 C   0  0  0  0  0  0  0  0  0  0  0  0
   -4.5490    7.1870   -2.4760 C   0  0  2  0  0  0  0  0  0  0  0  0
   -4.2090    5.9370   -3.0860 O   0  0  0  0  0  0  0  0  0  0  0  0
   -5.3010    6.9290   -1.1410 C   0  0  0  0  0  0  0  0  0  0  0  0
   -5.4030    8.2500   -0.3380 C   0  0  0  0  0  0  0  0  0  0  0  0
   -4.4360    5.9660   -0.2840 C   0  0  0  0  0  0  0  0  0  0  0  0
   -9.0110    6.6230   -2.7510 C   0  0  1  0  0  0  0  0  0  0  0  0
   -8.9400    5.5220   -3.8540 C   0  0  0  0  0  0  0  0  0  0  0  0
   -9.9030    7.7810   -3.3360 C   0  0  0  0  0  0  0  0  0  0  0  0
  -10.6460    8.6660   -2.3180 C   0  0  0  0  0  0  0  0  0  0  0  0
  -11.3950    7.8110   -1.2910 C   0  0  2  0  0  0  0  0  0  0  0  0
  -12.4770    6.9790   -2.0600 C   0  0  0  0  0  0  0  0  0  0  0  0
  -13.5284    9.3391    1.7001 H   0  0  0  0  0  0  0  0  0  0  0  0
  -14.1418   10.8097    0.8708 H   0  0  0  0  0  0  0  0  0  0  0  0
  -15.1214    9.3040    0.8708 H   0  0  0  0  0  0  0  0  0  0  0  0
  -13.2229   10.1686   -1.0564 H   0  0  0  0  0  0  0  0  0  0  0  0
  -13.8453    7.3410   -1.3353 H   0  0  0  0  0  0  0  0  0  0  0  0
  -15.3010    8.3185   -0.8168 H   0  0  0  0  0  0  0  0  0  0  0  0
  -13.5463    8.9315   -3.2238 H   0  0  0  0  0  0  0  0  0  0  0  0
  -15.1462    8.0787   -3.2598 H   0  0  0  0  0  0  0  0  0  0  0  0
  -16.0680    9.7338   -2.1761 H   0  0  0  0  0  0  0  0  0  0  0  0
  -12.7129   11.5852   -1.6424 H   0  0  0  0  0  0  0  0  0  0  0  0
  -12.5940   10.6926   -3.1966 H   0  0  0  0  0  0  0  0  0  0  0  0
  -12.7010   12.4857   -3.1966 H   0  0  0  0  0  0  0  0  0  0  0  0
  -15.3076   12.7188   -1.2087 H   0  0  0  0  0  0  0  0  0  0  0  0
  -14.7955   13.5918   -2.6927 H   0  0  0  0  0  0  0  0  0  0  0  0
  -16.3163   12.6358   -2.6927 H   0  0  0  0  0  0  0  0  0  0  0  0
  -11.4974    9.4385    0.1635 H   0  0  0  0  0  0  0  0  0  0  0  0
  -12.0090    7.8837    1.9412 H   0  0  0  0  0  0  0  0  0  0  0  0
  -13.2877    7.0979    0.9906 H   0  0  0  0  0  0  0  0  0  0  0  0
  -10.6781    6.0329    1.4653 H   0  0  0  0  0  0  0  0  0  0  0  0
  -11.7796    5.4320    0.2287 H   0  0  0  0  0  0  0  0  0  0  0  0
   -9.4593    7.6528    1.3791 H   0  0  0  0  0  0  0  0  0  0  0  0
   -8.2802    7.4398    0.0408 H   0  0  0  0  0  0  0  0  0  0  0  0
   -9.3940    8.8491    0.0408 H   0  0  0  0  0  0  0  0  0  0  0  0
  -10.5153    5.3486   -1.8355 H   0  0  0  0  0  0  0  0  0  0  0  0
   -9.0584    4.7476    0.2026 H   0  0  0  0  0  0  0  0  0  0  0  0
   -8.7013    4.0505   -1.4633 H   0  0  0  0  0  0  0  0  0  0  0  0
   -6.6152    4.8281   -0.0540 H   0  0  0  0  0  0  0  0  0  0  0  0
   -7.7676    8.1699   -2.0070 H   0  0  0  0  0  0  0  0  0  0  0  0
   -6.5485    6.3825   -4.1999 H   0  0  0  0  0  0  0  0  0  0  0  0
   -7.2716    8.0385   -4.4156 H   0  0  0  0  0  0  0  0  0  0  0  0
   -4.7976    8.0888   -4.4162 H   0  0  0  0  0  0  0  0  0  0  0  0
   -5.5232    9.0147   -3.0443 H   0  0  0  0  0  0  0  0  0  0  0  0
   -3.6478    7.7640   -2.2213 H   0  0  0  0  0  0  0  0  0  0  0  0
   -3.4250    6.0850   -3.6420 H   0  0  0  0  0  0  0  0  0  0  0  0
   -5.3858    8.0267    0.7390 H   0  0  0  0  0  0  0  0  0  0  0  0
   -4.5524    8.8998   -0.5914 H   0  0  0  0  0  0  0  0  0  0  0  0
   -6.3433    8.7615   -0.5914 H   0  0  0  0  0  0  0  0  0  0  0  0
   -4.6143    6.1645    0.7832 H   0  0  0  0  0  0  0  0  0  0  0  0
   -4.7086    4.9254   -0.5140 H   0  0  0  0  0  0  0  0  0  0  0  0
   -3.3722    6.1258   -0.5140 H   0  0  0  0  0  0  0  0  0  0  0  0
   -8.8761    4.5315   -3.3798 H   0  0  0  0  0  0  0  0  0  0  0  0
   -9.8432    5.5713   -4.4800 H   0  0  0  0  0  0  0  0  0  0  0  0
   -8.0506    5.6869   -4.4800 H   0  0  0  0  0  0  0  0  0  0  0  0
   -9.2500    8.4355   -3.9321 H   0  0  0  0  0  0  0  0  0  0  0  0
  -10.6938    7.2743   -3.9087 H   0  0  0  0  0  0  0  0  0  0  0  0
   -9.9168    9.3013   -1.7939 H   0  0  0  0  0  0  0  0  0  0  0  0
  -11.3772    9.2845   -2.8591 H   0  0  0  0  0  0  0  0  0  0  0  0
  -13.1338    6.4740   -1.3364 H   0  0  0  0  0  0  0  0  0  0  0  0
  -13.0759    7.6514   -2.6918 H   0  0  0  0  0  0  0  0  0  0  0  0
  -11.9810    6.2274   -2.6918 H   0  0  0  0  0  0  0  0  0  0  0  0
  1  2  1  0
  2  3  1  0
  3  4  1  0
  4  5  1  0
  5  6  1  0
  6  7  1  0
  7  8  1  0
  7  9  1  0
  2 10  1  0
 10 11  1  0
 11 12  1  0
 12 13  1  0
 13 14  1  1
 13 15  1  0
 15 16  1  0
 16 17  1  0
 17 18  2  0
 18 19  1  0
 19 20  1  0
 20 21  1  0
 21 22  1  0
 22 23  1  0
 22 24  1  0
 24 25  1  0
 24 26  1  0
 19 27  1  0
 27 28  1  6
 27 29  1  0
 29 30  1  0
 30 31  1  0
 31 32  1  6
  7  5  1  0
 31 10  1  0
 31 13  1  0
 27 15  1  0
 24 18  1  0
  1 33  1  0
  1 34  1  0
  1 35  1  0
  2 36  1  6
  3 37  1  0
  3 38  1  0
  4 39  1  0
  4 40  1  0
  5 41  1  1
  8 42  1  0
  8 43  1  0
  8 44  1  0
  9 45  1  0
  9 46  1  0
  9 47  1  0
 10 48  1  1
 11 49  1  0
 11 50  1  0
 12 51  1  0
 12 52  1  0
 14 53  1  0
 14 54  1  0
 14 55  1  0
 15 56  1  6
 16 57  1  0
 16 58  1  0
 17 59  1  0
 19 60  1  1
 20 61  1  0
 20 62  1  0
 21 63  1  0
 21 64  1  0
 22 65  1  1
 23 66  1  0
 25 67  1  0
 25 68  1  0
 25 69  1  0
 26 70  1  0
 26 71  1  0
 26 72  1  0
 28 73  1  0
 28 74  1  0
 28 75  1  0
 29 76  1  0
 29 77  1  0
 30 78  1  0
 30 79  1  0
 32 80  1  0
 32 81  1  0
 32 82  1  0
M  END
>  <meeko>  (6) 
{"is_sidechain": [false], "intermolecular_energy": 2.731, "internal_energy": -0.839}

$$$$
EPH_relaxed_0001_pdb2pqr_Repair_204_r2_0001_out
     RDKit          3D

 82 86  0  0  0  0  0  0  0  0999 V2000
  -14.7870    9.4140    0.9320 C   0  0  0  0  0  0  0  0  0  0  0  0
  -13.9810    9.2030   -0.3530 C   0  0  2  0  0  0  0  0  0  0  0  0
  -14.4980    8.0040   -1.1730 C   0  0  0  0  0  0  0  0  0  0  0  0
  -15.2450    8.4070   -2.4470 C   0  0  0  0  0  0  0  0  0  0  0  0
  -15.0200    7.4240   -3.5560 C   0  0  2  0  0  0  0  0  0  0  0  0
  -13.8040    7.6180   -4.2900 O   0  0  0  0  0  0  0  0  0  0  0  0
  -15.0240    7.8040   -5.0250 C   0  0  0  0  0  0  0  0  0  0  0  0
  -15.2610    9.2150   -5.4650 C   0  0  0  0  0  0  0  0  0  0  0  0
  -15.2860    6.7350   -6.0400 C   0  0  0  0  0  0  0  0  0  0  0  0
  -12.5070    9.0060   -0.0150 C   0  0  1  0  0  0  0  0  0  0  0  0
  -12.2560    8.8760    1.5100 C   0  0  0  0  0  0  0  0  0  0  0  0
  -11.0880    7.8730    1.6880 C   0  0  0  0  0  0  0  0  0  0  0  0
  -10.4910    7.7140    0.2700 C   0  0  1  0  0  0  0  0  0  0  0  0
   -9.5630    8.9560    0.0840 C   0  0  0  0  0  0  0  0  0  0  0  0
   -9.7320    6.3780   -0.0150 C   0  0  2  0  0  0  0  0  0  0  0  0
   -8.4820    6.1400    0.8510 C   0  0  0  0  0  0  0  0  0  0  0  0
   -7.2040    6.6600    0.2830 C   0  0  0  0  0  0  0  0  0  0  0  0
   -7.0120    7.0380   -0.9950 C   0  0  0  0  0  0  0  0  0  0  0  0
   -8.1200    6.8670   -2.0410 C   0  0  1  0  0  0  0  0  0  0  0  0
   -7.5240    6.2400   -3.3290 C   0  0  0  0  0  0  0  0  0  0  0  0
   -6.3320    7.0260   -3.8650 C   0  0  0  0  0  0  0  0  0  0  0  0
   -5.2270    7.1240   -2.8160 C   0  0  2  0  0  0  0  0  0  0  0  0
   -4.6910    5.8170   -2.5860 O   0  0  0  0  0  0  0  0  0  0  0  0
   -5.7120    7.7330   -1.4700 C   0  0  0  0  0  0  0  0  0  0  0  0
   -6.0090    9.2420   -1.6590 C   0  0  0  0  0  0  0  0  0  0  0  0
   -4.5400    7.6450   -0.4560 C   0  0  0  0  0  0  0  0  0  0  0  0
   -9.4310    6.1170   -1.5470 C   0  0  1  0  0  0  0  0  0  0  0  0
   -9.2560    4.5760   -1.7100 C   0  0  0  0  0  0  0  0  0  0  0  0
  -10.6380    6.5270   -2.4720 C   0  0  0  0  0  0  0  0  0  0  0  0
  -11.4230    7.7900   -2.0700 C   0  0  0  0  0  0  0  0  0  0  0  0
  -11.8080    7.7480   -0.5880 C   0  0  2  0  0  0  0  0  0  0  0  0
  -12.7600    6.5220   -0.3760 C   0  0  0  0  0  0  0  0  0  0  0  0
  -14.1382    9.2441    1.8039 H   0  0  0  0  0  0  0  0  0  0  0  0
  -15.1734   10.4436    0.9576 H   0  0  0  0  0  0  0  0  0  0  0  0
  -15.6283    8.7058    0.9576 H   0  0  0  0  0  0  0  0  0  0  0  0
  -14.1039   10.1037   -0.9724 H   0  0  0  0  0  0  0  0  0  0  0  0
  -13.6374    7.3806   -1.4573 H   0  0  0  0  0  0  0  0  0  0  0  0
  -15.2148    7.4642   -0.5368 H   0  0  0  0  0  0  0  0  0  0  0  0
  -16.3218    8.4572   -2.2281 H   0  0  0  0  0  0  0  0  0  0  0  0
  -14.8631    9.3856   -2.7734 H   0  0  0  0  0  0  0  0  0  0  0  0
  -15.5459    6.6365   -2.9963 H   0  0  0  0  0  0  0  0  0  0  0  0
  -15.3695    9.8613   -4.5815 H   0  0  0  0  0  0  0  0  0  0  0  0
  -14.4081    9.5591   -6.0684 H   0  0  0  0  0  0  0  0  0  0  0  0
  -16.1795    9.2615   -6.0684 H   0  0  0  0  0  0  0  0  0  0  0  0
  -15.5175    5.7903   -5.5262 H   0  0  0  0  0  0  0  0  0  0  0  0
  -16.1388    7.0284   -6.6698 H   0  0  0  0  0  0  0  0  0  0  0  0
  -14.3942    6.6008   -6.6698 H   0  0  0  0  0  0  0  0  0  0  0  0
  -12.0893    9.9122   -0.4779 H   0  0  0  0  0  0  0  0  0  0  0  0
  -11.9832    9.8539    1.9335 H   0  0  0  0  0  0  0  0  0  0  0  0
  -13.1597    8.5256    2.0302 H   0  0  0  0  0  0  0  0  0  0  0  0
  -10.3355    8.2727    2.3836 H   0  0  0  0  0  0  0  0  0  0  0  0
  -11.4224    6.9137    2.1099 H   0  0  0  0  0  0  0  0  0  0  0  0
   -9.2712    9.3466    1.0700 H   0  0  0  0  0  0  0  0  0  0  0  0
   -8.6626    8.6606   -0.4745 H   0  0  0  0  0  0  0  0  0  0  0  0
  -10.1015    9.7357   -0.4745 H   0  0  0  0  0  0  0  0  0  0  0  0
  -10.4637    5.6197    0.3006 H   0  0  0  0  0  0  0  0  0  0  0  0
   -8.6447    6.6273    1.8237 H   0  0  0  0  0  0  0  0  0  0  0  0
   -8.3626    5.0486    0.9191 H   0  0  0  0  0  0  0  0  0  0  0  0
   -6.3458    6.7415    0.9663 H   0  0  0  0  0  0  0  0  0  0  0  0
   -8.4930    7.8791   -2.2567 H   0  0  0  0  0  0  0  0  0  0  0  0
   -7.1971    5.2143   -3.1031 H   0  0  0  0  0  0  0  0  0  0  0  0
   -8.3077    6.2547   -4.1008 H   0  0  0  0  0  0  0  0  0  0  0  0
   -5.9374    6.5177   -4.7572 H   0  0  0  0  0  0  0  0  0  0  0  0
   -6.6670    8.0427   -4.1182 H   0  0  0  0  0  0  0  0  0  0  0  0
   -4.4584    7.8049   -3.2104 H   0  0  0  0  0  0  0  0  0  0  0  0
   -4.1330    5.5900   -3.3490 H   0  0  0  0  0  0  0  0  0  0  0  0
   -6.1037    9.7232   -0.6744 H   0  0  0  0  0  0  0  0  0  0  0  0
   -5.1858    9.7105   -2.2184 H   0  0  0  0  0  0  0  0  0  0  0  0
   -6.9483    9.3636   -2.2184 H   0  0  0  0  0  0  0  0  0  0  0  0
   -4.9387    7.6749    0.5688 H   0  0  0  0  0  0  0  0  0  0  0  0
   -3.9926    6.7032   -0.6091 H   0  0  0  0  0  0  0  0  0  0  0  0
   -3.8581    8.4945   -0.6091 H   0  0  0  0  0  0  0  0  0  0  0  0
   -9.2026    4.1060   -0.7169 H   0  0  0  0  0  0  0  0  0  0  0  0
  -10.1134    4.1662   -2.2640 H   0  0  0  0  0  0  0  0  0  0  0  0
   -8.3286    4.3689   -2.2640 H   0  0  0  0  0  0  0  0  0  0  0  0
  -10.2408    6.6903   -3.4847 H   0  0  0  0  0  0  0  0  0  0  0  0
  -11.3592    5.7007   -2.3876 H   0  0  0  0  0  0  0  0  0  0  0  0
  -10.7978    8.6761   -2.2544 H   0  0  0  0  0  0  0  0  0  0  0  0
  -12.3436    7.8365   -2.6703 H   0  0  0  0  0  0  0  0  0  0  0  0
  -12.8967    6.3459    0.7012 H   0  0  0  0  0  0  0  0  0  0  0  0
  -13.7352    6.7305   -0.8402 H   0  0  0  0  0  0  0  0  0  0  0  0
  -12.3165    5.6288   -0.8402 H   0  0  0  0  0  0  0  0  0  0  0  0
  1  2  1  0
  2  3  1  0
  3  4  1  0
  4  5  1  0
  5  6  1  0
  6  7  1  0
  7  8  1  0
  7  9  1  0
  2 10  1  0
 10 11  1  0
 11 12  1  0
 12 13  1  0
 13 14  1  6
 13 15  1  0
 15 16  1  0
 16 17  1  0
 17 18  2  0
 18 19  1  0
 19 20  1  0
 20 21  1  0
 21 22  1  0
 22 23  1  0
 22 24  1  0
 24 25  1  0
 24 26  1  0
 19 27  1  0
 27 28  1  1
 27 29  1  0
 29 30  1  0
 30 31  1  0
 31 32  1  6
  7  5  1  0
 31 10  1  0
 31 13  1  0
 27 15  1  0
 24 18  1  0
  1 33  1  0
  1 34  1  0
  1 35  1  0
  2 36  1  6
  3 37  1  0
  3 38  1  0
  4 39  1  0
  4 40  1  0
  5 41  1  6
  8 42  1  0
  8 43  1  0
  8 44  1  0
  9 45  1  0
  9 46  1  0
  9 47  1  0
 10 48  1  6
 11 49  1  0
 11 50  1  0
 12 51  1  0
 12 52  1  0
 14 53  1  0
 14 54  1  0
 14 55  1  0
 15 56  1  1
 16 57  1  0
 16 58  1  0
 17 59  1  0
 19 60  1  6
 20 61  1  0
 20 62  1  0
 21 63  1  0
 21 64  1  0
 22 65  1  6
 23 66  1  0
 25 67  1  0
 25 68  1  0
 25 69  1  0
 26 70  1  0
 26 71  1  0
 26 72  1  0
 28 73  1  0
 28 74  1  0
 28 75  1  0
 29 76  1  0
 29 77  1  0
 30 78  1  0
 30 79  1  0
 32 80  1  0
 32 81  1  0
 32 82  1  0
M  END
>  <meeko>  (7) 
{"is_sidechain": [false], "intermolecular_energy": 2.731, "internal_energy": -0.839}

$$$$
EPH_relaxed_0001_pdb2pqr_Repair_204_r2_0001_out
     RDKit          3D

 82 86  0  0  0  0  0  0  0  0999 V2000
  -11.4900    8.9040   -2.6780 C   0  0  0  0  0  0  0  0  0  0  0  0
  -11.0960    7.6340   -1.9190 C   0  0  2  0  0  0  0  0  0  0  0  0
  -12.1800    7.1980   -0.9140 C   0  0  0  0  0  0  0  0  0  0  0  0
  -13.5910    7.6580   -1.2920 C   0  0  0  0  0  0  0  0  0  0  0  0
  -13.8350    9.0830   -0.8970 C   0  0  2  0  0  0  0  0  0  0  0  0
  -15.2130    9.4180   -0.6870 O   0  0  0  0  0  0  0  0  0  0  0  0
  -14.5580   10.0840   -1.7790 C   0  0  0  0  0  0  0  0  0  0  0  0
  -15.0820    9.7000   -3.1270 C   0  0  0  0  0  0  0  0  0  0  0  0
  -14.3250   11.5430   -1.5430 C   0  0  0  0  0  0  0  0  0  0  0  0
   -9.7720    7.8500   -1.1960 C   0  0  1  0  0  0  0  0  0  0  0  0
   -9.8750    7.5900    0.3300 C   0  0  0  0  0  0  0  0  0  0  0  0
   -8.5230    6.9750    0.7730 C   0  0  0  0  0  0  0  0  0  0  0  0
   -7.5780    7.2060   -0.4300 C   0  0  1  0  0  0  0  0  0  0  0  0
   -7.0970    8.6840   -0.2840 C   0  0  0  0  0  0  0  0  0  0  0  0
   -6.3730    6.2180   -0.5620 C   0  0  2  0  0  0  0  0  0  0  0  0
   -5.3700    6.2520    0.6040 C   0  0  0  0  0  0  0  0  0  0  0  0
   -4.2370    7.2120    0.4420 C   0  0  0  0  0  0  0  0  0  0  0  0
   -3.8730    7.8050   -0.7100 C   0  0  0  0  0  0  0  0  0  0  0  0
   -4.5690    7.4530   -2.0320 C   0  0  1  0  0  0  0  0  0  0  0  0
   -3.5010    7.2230   -3.1340 C   0  0  0  0  0  0  0  0  0  0  0  0
   -2.5430    8.4010   -3.2750 C   0  0  0  0  0  0  0  0  0  0  0  0
   -1.8270    8.6830   -1.9560 C   0  0  2  0  0  0  0  0  0  0  0  0
   -0.9630    7.5830   -1.6560 O   0  0  0  0  0  0  0  0  0  0  0  0
   -2.8020    8.9220   -0.7690 C   0  0  0  0  0  0  0  0  0  0  0  0
   -3.5250   10.2790   -0.9530 C   0  0  0  0  0  0  0  0  0  0  0  0
   -1.9550    9.0530    0.5250 C   0  0  0  0  0  0  0  0  0  0  0  0
   -5.6360    6.2780   -1.9610 C   0  0  1  0  0  0  0  0  0  0  0  0
   -4.9270    4.9020   -2.1500 C   0  0  0  0  0  0  0  0  0  0  0  0
   -6.6440    6.4260   -3.1620 C   0  0  0  0  0  0  0  0  0  0  0  0
   -7.8760    7.3210   -2.9290 C   0  0  0  0  0  0  0  0  0  0  0  0
   -8.5770    6.9570   -1.6170 C   0  0  2  0  0  0  0  0  0  0  0  0
   -9.0920    5.4820   -1.7430 C   0  0  0  0  0  0  0  0  0  0  0  0
  -11.7367    9.6992   -1.9591 H   0  0  0  0  0  0  0  0  0  0  0  0
  -10.6504    9.2288   -3.3101 H   0  0  0  0  0  0  0  0  0  0  0  0
  -12.3660    8.6965   -3.3101 H   0  0  0  0  0  0  0  0  0  0  0  0
  -10.9883    6.8269   -2.6586 H   0  0  0  0  0  0  0  0  0  0  0  0
  -12.1771    6.0996   -0.8548 H   0  0  0  0  0  0  0  0  0  0  0  0
  -11.9348    7.6709    0.0484 H   0  0  0  0  0  0  0  0  0  0  0  0
  -13.7169    7.5635   -2.3807 H   0  0  0  0  0  0  0  0  0  0  0  0
  -14.3129    7.0253   -0.7548 H   0  0  0  0  0  0  0  0  0  0  0  0
  -12.8710    9.1265   -0.3690 H   0  0  0  0  0  0  0  0  0  0  0  0
  -15.9640    9.0537   -3.0071 H   0  0  0  0  0  0  0  0  0  0  0  0
  -15.3645   10.6065   -3.6824 H   0  0  0  0  0  0  0  0  0  0  0  0
  -14.3027    9.1576   -3.6824 H   0  0  0  0  0  0  0  0  0  0  0  0
  -14.2937   11.7390   -0.4611 H   0  0  0  0  0  0  0  0  0  0  0  0
  -13.3681   11.8397   -1.9972 H   0  0  0  0  0  0  0  0  0  0  0  0
  -15.1419   12.1230   -1.9972 H   0  0  0  0  0  0  0  0  0  0  0  0
   -9.5780    8.8958   -1.4766 H   0  0  0  0  0  0  0  0  0  0  0  0
  -10.0539    8.5351    0.8637 H   0  0  0  0  0  0  0  0  0  0  0  0
  -10.7104    6.9119    0.5588 H   0  0  0  0  0  0  0  0  0  0  0  0
   -8.1406    7.4829    1.6706 H   0  0  0  0  0  0  0  0  0  0  0  0
   -8.6140    5.9104    1.0343 H   0  0  0  0  0  0  0  0  0  0  0  0
   -7.0140    8.9389    0.7828 H   0  0  0  0  0  0  0  0  0  0  0  0
   -6.1150    8.7993   -0.7660 H   0  0  0  0  0  0  0  0  0  0  0  0
   -7.8231    9.3552   -0.7660 H   0  0  0  0  0  0  0  0  0  0  0  0
   -6.8657    5.2363   -0.5027 H   0  0  0  0  0  0  0  0  0  0  0  0
   -5.9192    6.5250    1.5172 H   0  0  0  0  0  0  0  0  0  0  0  0
   -4.9172    5.2504    0.6458 H   0  0  0  0  0  0  0  0  0  0  0  0
   -3.6505    7.4548    1.3404 H   0  0  0  0  0  0  0  0  0  0  0  0
   -5.1902    8.3231   -2.2907 H   0  0  0  0  0  0  0  0  0  0  0  0
   -2.9198    6.3244   -2.8797 H   0  0  0  0  0  0  0  0  0  0  0  0
   -4.0293    7.1059   -4.0917 H   0  0  0  0  0  0  0  0  0  0  0  0
   -1.7956    8.1668   -4.0474 H   0  0  0  0  0  0  0  0  0  0  0  0
   -3.1220    9.2925   -3.5578 H   0  0  0  0  0  0  0  0  0  0  0  0
   -1.2545    9.6136   -2.0834 H   0  0  0  0  0  0  0  0  0  0  0  0
   -1.0670    7.3770   -0.7110 H   0  0  0  0  0  0  0  0  0  0  0  0
   -3.7541   10.7091    0.0332 H   0  0  0  0  0  0  0  0  0  0  0  0
   -2.8746   10.9683   -1.5114 H   0  0  0  0  0  0  0  0  0  0  0  0
   -4.4599   10.1236   -1.5114 H   0  0  0  0  0  0  0  0  0  0  0  0
   -2.6094    8.9518    1.4034 H   0  0  0  0  0  0  0  0  0  0  0  0
   -1.1904    8.2624    0.5444 H   0  0  0  0  0  0  0  0  0  0  0  0
   -1.4649   10.0376    0.5444 H   0  0  0  0  0  0  0  0  0  0  0  0
   -4.7027    4.4667   -1.1650 H   0  0  0  0  0  0  0  0  0  0  0  0
   -5.5875    4.2229   -2.7092 H   0  0  0  0  0  0  0  0  0  0  0  0
   -3.9907    5.0457   -2.7092 H   0  0  0  0  0  0  0  0  0  0  0  0
   -6.0870    6.8420   -4.0145 H   0  0  0  0  0  0  0  0  0  0  0  0
   -7.0486    5.4161   -3.3241 H   0  0  0  0  0  0  0  0  0  0  0  0
   -7.5543    8.3720   -2.8857 H   0  0  0  0  0  0  0  0  0  0  0  0
   -8.5824    7.1687   -3.7584 H   0  0  0  0  0  0  0  0  0  0  0  0
   -9.2400    5.0582   -0.7387 H   0  0  0  0  0  0  0  0  0  0  0  0
  -10.0467    5.4724   -2.2893 H   0  0  0  0  0  0  0  0  0  0  0  0
   -8.3508    4.8802   -2.2893 H   0  0  0  0  0  0  0  0  0  0  0  0
  1  2  1  0
  2  3  1  0
  3  4  1  0
  4  5  1  0
  5  6  1  0
  6  7  1  0
  7  8  1  0
  7  9  1  0
  2 10  1  0
 10 11  1  0
 11 12  1  0
 12 13  1  0
 13 14  1  6
 13 15  1  0
 15 16  1  0
 16 17  1  0
 17 18  2  0
 18 19  1  0
 19 20  1  0
 20 21  1  0
 21 22  1  0
 22 23  1  0
 22 24  1  0
 24 25  1  0
 24 26  1  0
 19 27  1  0
 27 28  1  6
 27 29  1  0
 29 30  1  0
 30 31  1  0
 31 32  1  6
  7  5  1  0
 31 10  1  0
 31 13  1  0
 27 15  1  0
 24 18  1  0
  1 33  1  0
  1 34  1  0
  1 35  1  0
  2 36  1  6
  3 37  1  0
  3 38  1  0
  4 39  1  0
  4 40  1  0
  5 41  1  1
  8 42  1  0
  8 43  1  0
  8 44  1  0
  9 45  1  0
  9 46  1  0
  9 47  1  0
 10 48  1  1
 11 49  1  0
 11 50  1  0
 12 51  1  0
 12 52  1  0
 14 53  1  0
 14 54  1  0
 14 55  1  0
 15 56  1  6
 16 57  1  0
 16 58  1  0
 17 59  1  0
 19 60  1  6
 20 61  1  0
 20 62  1  0
 21 63  1  0
 21 64  1  0
 22 65  1  6
 23 66  1  0
 25 67  1  0
 25 68  1  0
 25 69  1  0
 26 70  1  0
 26 71  1  0
 26 72  1  0
 28 73  1  0
 28 74  1  0
 28 75  1  0
 29 76  1  0
 29 77  1  0
 30 78  1  0
 30 79  1  0
 32 80  1  0
 32 81  1  0
 32 82  1  0
M  END
>  <meeko>  (8) 
{"is_sidechain": [false], "intermolecular_energy": 2.731, "internal_energy": -0.839}

$$$$
EPH_relaxed_0001_pdb2pqr_Repair_204_r2_0001_out
     RDKit          3D

 82 86  0  0  0  0  0  0  0  0999 V2000
  -11.2720    9.1270   -2.8130 C   0  0  0  0  0  0  0  0  0  0  0  0
  -10.7340    7.7730   -2.3400 C   0  0  2  0  0  0  0  0  0  0  0  0
  -11.7670    7.0020   -1.4930 C   0  0  0  0  0  0  0  0  0  0  0  0
  -13.2090    7.4690   -1.7060 C   0  0  0  0  0  0  0  0  0  0  0  0
  -13.6420    8.4350   -0.6440 C   0  0  2  0  0  0  0  0  0  0  0  0
  -13.0930    8.1810    0.6550 O   0  0  0  0  0  0  0  0  0  0  0  0
  -14.5180    8.0480    0.5320 C   0  0  0  0  0  0  0  0  0  0  0  0
  -15.0150    6.6470    0.7070 C   0  0  0  0  0  0  0  0  0  0  0  0
  -15.2870    9.1220    1.2360 C   0  0  0  0  0  0  0  0  0  0  0  0
   -9.4520    7.9740   -1.5410 C   0  0  1  0  0  0  0  0  0  0  0  0
   -9.6410    7.6960   -0.0260 C   0  0  0  0  0  0  0  0  0  0  0  0
   -8.3180    7.0680    0.4820 C   0  0  0  0  0  0  0  0  0  0  0  0
   -7.3060    7.3100   -0.6630 C   0  0  1  0  0  0  0  0  0  0  0  0
   -6.8280    8.7830   -0.4710 C   0  0  0  0  0  0  0  0  0  0  0  0
   -6.1010    6.3170   -0.7400 C   0  0  2  0  0  0  0  0  0  0  0  0
   -5.1640    6.3320    0.4800 C   0  0  0  0  0  0  0  0  0  0  0  0
   -4.0200    7.2880    0.3940 C   0  0  0  0  0  0  0  0  0  0  0  0
   -3.5890    7.8930   -0.7290 C   0  0  0  0  0  0  0  0  0  0  0  0
   -4.2120    7.5610   -2.0910 C   0  0  1  0  0  0  0  0  0  0  0  0
   -3.0860    7.3400   -3.1350 C   0  0  0  0  0  0  0  0  0  0  0  0
   -2.1160    8.5150   -3.2070 C   0  0  0  0  0  0  0  0  0  0  0  0
   -1.4740    8.7770   -1.8470 C   0  0  2  0  0  0  0  0  0  0  0  0
   -0.6330    7.6690   -1.5140 O   0  0  0  0  0  0  0  0  0  0  0  0
   -2.5120    9.0060   -0.7130 C   0  0  0  0  0  0  0  0  0  0  0  0
   -3.2180   10.3690   -0.9200 C   0  0  0  0  0  0  0  0  0  0  0  0
   -1.7380    9.1170    0.6280 C   0  0  0  0  0  0  0  0  0  0  0  0
   -5.2870    6.3910   -2.0950 C   0  0  1  0  0  0  0  0  0  0  0  0
   -4.5740    5.0140   -2.2620 C   0  0  0  0  0  0  0  0  0  0  0  0
   -6.2250    6.5590   -3.3480 C   0  0  0  0  0  0  0  0  0  0  0  0
   -7.4650    7.4570   -3.1730 C   0  0  0  0  0  0  0  0  0  0  0  0
   -8.2400    7.0800   -1.9070 C   0  0  2  0  0  0  0  0  0  0  0  0
   -8.7520    5.6100   -2.0790 C   0  0  0  0  0  0  0  0  0  0  0  0
  -11.5190    9.7487   -1.9398 H   0  0  0  0  0  0  0  0  0  0  0  0
  -10.5070    9.6340   -3.4194 H   0  0  0  0  0  0  0  0  0  0  0  0
  -12.1763    8.9707   -3.4194 H   0  0  0  0  0  0  0  0  0  0  0  0
  -10.5237    7.1691   -3.2350 H   0  0  0  0  0  0  0  0  0  0  0  0
  -11.7050    5.9356   -1.7557 H   0  0  0  0  0  0  0  0  0  0  0  0
  -11.5211    7.1893   -0.4373 H   0  0  0  0  0  0  0  0  0  0  0  0
  -13.2831    7.9610   -2.6870 H   0  0  0  0  0  0  0  0  0  0  0  0
  -13.8656    6.5878   -1.6562 H   0  0  0  0  0  0  0  0  0  0  0  0
  -13.7133    9.2491   -1.3803 H   0  0  0  0  0  0  0  0  0  0  0  0
  -15.0962    6.4181    1.7798 H   0  0  0  0  0  0  0  0  0  0  0  0
  -16.0035    6.5469    0.2349 H   0  0  0  0  0  0  0  0  0  0  0  0
  -14.3106    5.9464    0.2349 H   0  0  0  0  0  0  0  0  0  0  0  0
  -15.1914    8.9885    2.3237 H   0  0  0  0  0  0  0  0  0  0  0  0
  -14.8871   10.1063    0.9508 H   0  0  0  0  0  0  0  0  0  0  0  0
  -16.3476    9.0605    0.9508 H   0  0  0  0  0  0  0  0  0  0  0  0
   -9.2382    9.0225   -1.7958 H   0  0  0  0  0  0  0  0  0  0  0  0
   -9.8443    8.6354    0.5090 H   0  0  0  0  0  0  0  0  0  0  0  0
  -10.4914    7.0204    0.1485 H   0  0  0  0  0  0  0  0  0  0  0  0
   -7.9837    7.5616    1.4065 H   0  0  0  0  0  0  0  0  0  0  0  0
   -8.4284    6.0003    0.7223 H   0  0  0  0  0  0  0  0  0  0  0  0
   -6.7551    9.0077    0.6033 H   0  0  0  0  0  0  0  0  0  0  0  0
   -5.8417    8.9126   -0.9405 H   0  0  0  0  0  0  0  0  0  0  0  0
   -7.5503    9.4670   -0.9405 H   0  0  0  0  0  0  0  0  0  0  0  0
   -6.6006    5.3372   -0.7202 H   0  0  0  0  0  0  0  0  0  0  0  0
   -5.7620    6.5963    1.3646 H   0  0  0  0  0  0  0  0  0  0  0  0
   -4.7181    5.3279    0.5336 H   0  0  0  0  0  0  0  0  0  0  0  0
   -3.4842    7.5173    1.3269 H   0  0  0  0  0  0  0  0  0  0  0  0
   -4.8145    8.4374   -2.3719 H   0  0  0  0  0  0  0  0  0  0  0  0
   -2.5239    6.4350   -2.8611 H   0  0  0  0  0  0  0  0  0  0  0  0
   -3.5611    7.2384   -4.1219 H   0  0  0  0  0  0  0  0  0  0  0  0
   -1.3275    8.2865   -3.9392 H   0  0  0  0  0  0  0  0  0  0  0  0
   -2.6743    9.4129   -3.5104 H   0  0  0  0  0  0  0  0  0  0  0  0
   -0.8918    9.7066   -1.9302 H   0  0  0  0  0  0  0  0  0  0  0  0
    0.0590    7.6090   -2.1940 H   0  0  0  0  0  0  0  0  0  0  0  0
   -3.4489   10.8147    0.0588 H   0  0  0  0  0  0  0  0  0  0  0  0
   -2.5557   11.0432   -1.4829 H   0  0  0  0  0  0  0  0  0  0  0  0
   -4.1508   10.2170   -1.4829 H   0  0  0  0  0  0  0  0  0  0  0  0
   -2.4420    9.0160    1.4671 H   0  0  0  0  0  0  0  0  0  0  0  0
   -0.9843    8.3178    0.6836 H   0  0  0  0  0  0  0  0  0  0  0  0
   -1.2393   10.0959    0.6836 H   0  0  0  0  0  0  0  0  0  0  0  0
   -4.3553    4.5917   -1.2701 H   0  0  0  0  0  0  0  0  0  0  0  0
   -5.2295    4.3266   -2.8168 H   0  0  0  0  0  0  0  0  0  0  0  0
   -3.6343    5.1525   -2.8168 H   0  0  0  0  0  0  0  0  0  0  0  0
   -5.6194    6.9832   -4.1624 H   0  0  0  0  0  0  0  0  0  0  0  0
   -6.6240    5.5531   -3.5455 H   0  0  0  0  0  0  0  0  0  0  0  0
   -7.1422    8.5059   -3.0984 H   0  0  0  0  0  0  0  0  0  0  0  0
   -8.1243    7.3182   -4.0425 H   0  0  0  0  0  0  0  0  0  0  0  0
   -8.9093    5.1583   -1.0885 H   0  0  0  0  0  0  0  0  0  0  0  0
   -9.7013    5.6150   -2.6347 H   0  0  0  0  0  0  0  0  0  0  0  0
   -8.0050    5.0242   -2.6347 H   0  0  0  0  0  0  0  0  0  0  0  0
  1  2  1  0
  2  3  1  0
  3  4  1  0
  4  5  1  0
  5  6  1  0
  6  7  1  0
  7  8  1  0
  7  9  1  0
  2 10  1  0
 10 11  1  0
 11 12  1  0
 12 13  1  0
 13 14  1  6
 13 15  1  0
 15 16  1  0
 16 17  1  0
 17 18  2  0
 18 19  1  0
 19 20  1  0
 20 21  1  0
 21 22  1  0
 22 23  1  0
 22 24  1  0
 24 25  1  0
 24 26  1  0
 19 27  1  0
 27 28  1  6
 27 29  1  0
 29 30  1  0
 30 31  1  0
 31 32  1  6
  7  5  1  0
 31 10  1  0
 31 13  1  0
 27 15  1  0
 24 18  1  0
  1 33  1  0
  1 34  1  0
  1 35  1  0
  2 36  1  6
  3 37  1  0
  3 38  1  0
  4 39  1  0
  4 40  1  0
  5 41  1  6
  8 42  1  0
  8 43  1  0
  8 44  1  0
  9 45  1  0
  9 46  1  0
  9 47  1  0
 10 48  1  1
 11 49  1  0
 11 50  1  0
 12 51  1  0
 12 52  1  0
 14 53  1  0
 14 54  1  0
 14 55  1  0
 15 56  1  6
 16 57  1  0
 16 58  1  0
 17 59  1  0
 19 60  1  6
 20 61  1  0
 20 62  1  0
 21 63  1  0
 21 64  1  0
 22 65  1  6
 23 66  1  0
 25 67  1  0
 25 68  1  0
 25 69  1  0
 26 70  1  0
 26 71  1  0
 26 72  1  0
 28 73  1  0
 28 74  1  0
 28 75  1  0
 29 76  1  0
 29 77  1  0
 30 78  1  0
 30 79  1  0
 32 80  1  0
 32 81  1  0
 32 82  1  0
M  END
>  <meeko>  (9) 
{"is_sidechain": [false], "intermolecular_energy": 2.731, "internal_energy": -0.839}

$$$$
EPH_relaxed_0001_pdb2pqr_Repair_204_r2_0001_out
     RDKit          3D

 82 86  0  0  0  0  0  0  0  0999 V2000
   -5.1730    5.2510   -0.9750 C   0  0  0  0  0  0  0  0  0  0  0  0
   -5.5670    6.0930   -2.1920 C   0  0  2  0  0  0  0  0  0  0  0  0
   -4.3690    6.8730   -2.7710 C   0  0  0  0  0  0  0  0  0  0  0  0
   -3.4620    7.4900   -1.7030 C   0  0  0  0  0  0  0  0  0  0  0  0
   -2.2840    8.1870   -2.3120 C   0  0  2  0  0  0  0  0  0  0  0  0
   -1.0190    7.8430   -1.7300 O   0  0  0  0  0  0  0  0  0  0  0  0
   -1.4410    9.2080   -1.5700 C   0  0  0  0  0  0  0  0  0  0  0  0
   -1.7430    9.5900   -0.1550 C   0  0  0  0  0  0  0  0  0  0  0  0
   -0.6350   10.1850   -2.3680 C   0  0  0  0  0  0  0  0  0  0  0  0
   -6.6850    7.0580   -1.8160 C   0  0  1  0  0  0  0  0  0  0  0  0
   -6.4210    8.5020   -2.3210 C   0  0  0  0  0  0  0  0  0  0  0  0
   -7.8000    9.1020   -2.7000 C   0  0  0  0  0  0  0  0  0  0  0  0
   -8.8320    8.1210   -2.0960 C   0  0  1  0  0  0  0  0  0  0  0  0
   -8.9310    8.5190   -0.5900 C   0  0  0  0  0  0  0  0  0  0  0  0
  -10.2380    8.0900   -2.7800 C   0  0  2  0  0  0  0  0  0  0  0  0
  -11.0240    9.4110   -2.7140 C   0  0  0  0  0  0  0  0  0  0  0  0
  -11.9160    9.5630   -1.5260 C   0  0  0  0  0  0  0  0  0  0  0  0
  -12.2980    8.5700   -0.7020 C   0  0  0  0  0  0  0  0  0  0  0  0
  -11.9030    7.1150   -0.9870 C   0  0  1  0  0  0  0  0  0  0  0  0
  -13.1450    6.2000   -0.8180 C   0  0  0  0  0  0  0  0  0  0  0  0
  -13.8150    6.3670    0.5420 C   0  0  0  0  0  0  0  0  0  0  0  0
  -14.2450    7.8150    0.7630 C   0  0  2  0  0  0  0  0  0  0  0  0
  -15.2860    8.1340   -0.1650 O   0  0  0  0  0  0  0  0  0  0  0  0
  -13.0790    8.8310    0.6100 C   0  0  0  0  0  0  0  0  0  0  0  0
  -12.0970    8.6800    1.7980 C   0  0  0  0  0  0  0  0  0  0  0  0
  -13.6740   10.2610    0.7170 C   0  0  0  0  0  0  0  0  0  0  0  0
  -11.1380    6.8590   -2.3550 C   0  0  1  0  0  0  0  0  0  0  0  0
  -12.1660    6.6410   -3.5080 C   0  0  0  0  0  0  0  0  0  0  0  0
  -10.3100    5.5240   -2.2400 C   0  0  0  0  0  0  0  0  0  0  0  0
   -8.8840    5.6380   -1.6680 C   0  0  0  0  0  0  0  0  0  0  0  0
   -8.1010    6.7550   -2.3660 C   0  0  2  0  0  0  0  0  0  0  0  0
   -7.9660    6.3710   -3.8790 C   0  0  0  0  0  0  0  0  0  0  0  0
   -5.4280    5.7959   -0.0541 H   0  0  0  0  0  0  0  0  0  0  0  0
   -5.7175    4.2955   -0.9984 H   0  0  0  0  0  0  0  0  0  0  0  0
   -4.0905    5.0568   -0.9984 H   0  0  0  0  0  0  0  0  0  0  0  0
   -5.9191    5.4025   -2.9726 H   0  0  0  0  0  0  0  0  0  0  0  0
   -3.7675    6.1830   -3.3810 H   0  0  0  0  0  0  0  0  0  0  0  0
   -4.7818    7.7043   -3.3614 H   0  0  0  0  0  0  0  0  0  0  0  0
   -4.0438    8.2178   -1.1183 H   0  0  0  0  0  0  0  0  0  0  0  0
   -3.0867    6.6790   -1.0615 H   0  0  0  0  0  0  0  0  0  0  0  0
   -2.7761    8.2115   -3.2955 H   0  0  0  0  0  0  0  0  0  0  0  0
   -1.2088    8.9143    0.5292 H   0  0  0  0  0  0  0  0  0  0  0  0
   -1.4165   10.6252    0.0230 H   0  0  0  0  0  0  0  0  0  0  0  0
   -2.8256    9.5112    0.0230 H   0  0  0  0  0  0  0  0  0  0  0  0
   -0.0858   10.8508   -1.6860 H   0  0  0  0  0  0  0  0  0  0  0  0
    0.0793    9.6395   -3.0022 H   0  0  0  0  0  0  0  0  0  0  0  0
   -1.3063   10.7826   -3.0022 H   0  0  0  0  0  0  0  0  0  0  0  0
   -6.6726    6.9384   -0.7226 H   0  0  0  0  0  0  0  0  0  0  0  0
   -5.9524    9.1015   -1.5266 H   0  0  0  0  0  0  0  0  0  0  0  0
   -5.7399    8.5002   -3.1848 H   0  0  0  0  0  0  0  0  0  0  0  0
   -7.9189   10.1060   -2.2667 H   0  0  0  0  0  0  0  0  0  0  0  0
   -7.9203    9.2165   -3.7874 H   0  0  0  0  0  0  0  0  0  0  0  0
   -8.7127    7.6414    0.0363 H   0  0  0  0  0  0  0  0  0  0  0  0
   -8.2034    9.3148   -0.3725 H   0  0  0  0  0  0  0  0  0  0  0  0
   -9.9466    8.8812   -0.3725 H   0  0  0  0  0  0  0  0  0  0  0  0
   -9.9826    7.9473   -3.8404 H   0  0  0  0  0  0  0  0  0  0  0  0
  -10.2988   10.2380   -2.7027 H   0  0  0  0  0  0  0  0  0  0  0  0
  -11.6845    9.4168   -3.5936 H   0  0  0  0  0  0  0  0  0  0  0  0
  -12.2929   10.5727   -1.3057 H   0  0  0  0  0  0  0  0  0  0  0  0
  -11.1413    6.8539   -0.2376 H   0  0  0  0  0  0  0  0  0  0  0  0
  -13.8746    6.4476   -1.6031 H   0  0  0  0  0  0  0  0  0  0  0  0
  -12.8040    5.1571   -0.8959 H   0  0  0  0  0  0  0  0  0  0  0  0
  -14.7011    5.7169    0.5893 H   0  0  0  0  0  0  0  0  0  0  0  0
  -13.0939    6.0909    1.3254 H   0  0  0  0  0  0  0  0  0  0  0  0
  -14.5992    7.8986    1.8011 H   0  0  0  0  0  0  0  0  0  0  0  0
  -15.5450    9.0580   -0.0100 H   0  0  0  0  0  0  0  0  0  0  0  0
  -12.6508    8.7652    2.7446 H   0  0  0  0  0  0  0  0  0  0  0  0
  -11.6079    7.6961    1.7466 H   0  0  0  0  0  0  0  0  0  0  0  0
  -11.3348    9.4715    1.7466 H   0  0  0  0  0  0  0  0  0  0  0  0
  -13.7871   10.5327    1.7769 H   0  0  0  0  0  0  0  0  0  0  0  0
  -12.9990   10.9768    0.2250 H   0  0  0  0  0  0  0  0  0  0  0  0
  -14.6575   10.2867    0.2250 H   0  0  0  0  0  0  0  0  0  0  0  0
  -13.1574    6.4308   -3.0804 H   0  0  0  0  0  0  0  0  0  0  0  0
  -12.2190    7.5479   -4.1283 H   0  0  0  0  0  0  0  0  0  0  0  0
  -11.8464    5.7907   -4.1283 H   0  0  0  0  0  0  0  0  0  0  0  0
  -10.8744    4.8371   -1.5922 H   0  0  0  0  0  0  0  0  0  0  0  0
  -10.1778    5.1772   -3.2755 H   0  0  0  0  0  0  0  0  0  0  0  0
   -8.9444    5.8590   -0.5921 H   0  0  0  0  0  0  0  0  0  0  0  0
   -8.3612    4.6850   -1.8365 H   0  0  0  0  0  0  0  0  0  0  0  0
   -7.6023    5.3363   -3.9636 H   0  0  0  0  0  0  0  0  0  0  0  0
   -8.9478    6.4557   -4.3678 H   0  0  0  0  0  0  0  0  0  0  0  0
   -7.2532    7.0514   -4.3678 H   0  0  0  0  0  0  0  0  0  0  0  0
  1  2  1  0
  2  3  1  0
  3  4  1  0
  4  5  1  0
  5  6  1  0
  6  7  1  0
  7  8  1  0
  7  9  1  0
  2 10  1  0
 10 11  1  0
 11 12  1  0
 12 13  1  0
 13 14  1  1
 13 15  1  0
 15 16  1  0
 16 17  1  0
 17 18  2  0
 18 19  1  0
 19 20  1  0
 20 21  1  0
 21 22  1  0
 22 23  1  0
 22 24  1  0
 24 25  1  0
 24 26  1  0
 19 27  1  0
 27 28  1  6
 27 29  1  0
 29 30  1  0
 30 31  1  0
 31 32  1  6
  7  5  1  0
 31 10  1  0
 31 13  1  0
 27 15  1  0
 24 18  1  0
  1 33  1  0
  1 34  1  0
  1 35  1  0
  2 36  1  6
  3 37  1  0
  3 38  1  0
  4 39  1  0
  4 40  1  0
  5 41  1  6
  8 42  1  0
  8 43  1  0
  8 44  1  0
  9 45  1  0
  9 46  1  0
  9 47  1  0
 10 48  1  1
 11 49  1  0
 11 50  1  0
 12 51  1  0
 12 52  1  0
 14 53  1  0
 14 54  1  0
 14 55  1  0
 15 56  1  6
 16 57  1  0
 16 58  1  0
 17 59  1  0
 19 60  1  1
 20 61  1  0
 20 62  1  0
 21 63  1  0
 21 64  1  0
 22 65  1  1
 23 66  1  0
 25 67  1  0
 25 68  1  0
 25 69  1  0
 26 70  1  0
 26 71  1  0
 26 72  1  0
 28 73  1  0
 28 74  1  0
 28 75  1  0
 29 76  1  0
 29 77  1  0
 30 78  1  0
 30 79  1  0
 32 80  1  0
 32 81  1  0
 32 82  1  0
M  END
>  <meeko>  (10) 
{"is_sidechain": [false], "intermolecular_energy": 2.731, "internal_energy": -0.839}

$$$$
EPH_relaxed_0001_pdb2pqr_Repair_204_r2_0001_out
     RDKit          3D

 82 86  0  0  0  0  0  0  0  0999 V2000
    0.0650   14.5680   -4.2410 C   0  0  0  0  0  0  0  0  0  0  0  0
    1.1730   13.5440   -4.5060 C   0  0  2  0  0  0  0  0  0  0  0  0
    1.8230   13.7370   -5.8910 C   0  0  0  0  0  0  0  0  0  0  0  0
    1.2120   14.8820   -6.7030 C   0  0  0  0  0  0  0  0  0  0  0  0
    1.8740   15.0270   -8.0400 C   0  0  2  0  0  0  0  0  0  0  0  0
    2.2900   16.3610   -8.3600 O   0  0  0  0  0  0  0  0  0  0  0  0
    1.2650   15.8000   -9.1960 C   0  0  0  0  0  0  0  0  0  0  0  0
   -0.0630   16.4770   -9.0670 C   0  0  0  0  0  0  0  0  0  0  0  0
    1.7240   15.4870  -10.5860 C   0  0  0  0  0  0  0  0  0  0  0  0
    0.6140   12.1310   -4.3840 C   0  0  1  0  0  0  0  0  0  0  0  0
    1.6390   11.0460   -4.8080 C   0  0  0  0  0  0  0  0  0  0  0  0
    1.3980    9.8200   -3.8900 C   0  0  0  0  0  0  0  0  0  0  0  0
    0.0430   10.1090   -3.2020 C   0  0  1  0  0  0  0  0  0  0  0  0
   -1.0360    9.6940   -4.2510 C   0  0  0  0  0  0  0  0  0  0  0  0
   -0.1940    9.4110   -1.8230 C   0  0  2  0  0  0  0  0  0  0  0  0
   -0.2150    7.8730   -1.8650 C   0  0  0  0  0  0  0  0  0  0  0  0
   -1.5570    7.2590   -2.0890 C   0  0  0  0  0  0  0  0  0  0  0  0
   -2.7370    7.8930   -1.9680 C   0  0  0  0  0  0  0  0  0  0  0  0
   -2.8050    9.3440   -1.4740 C   0  0  1  0  0  0  0  0  0  0  0  0
   -3.9140    9.4740   -0.3970 C   0  0  0  0  0  0  0  0  0  0  0  0
   -5.2650    8.9600   -0.8840 C   0  0  0  0  0  0  0  0  0  0  0  0
   -5.1710    7.4970   -1.3110 C   0  0  2  0  0  0  0  0  0  0  0  0
   -4.9040    6.6960   -0.1560 O   0  0  0  0  0  0  0  0  0  0  0  0
   -4.0790    7.2430   -2.3880 C   0  0  0  0  0  0  0  0  0  0  0  0
   -4.5210    7.8660   -3.7350 C   0  0  0  0  0  0  0  0  0  0  0  0
   -3.9910    5.7110   -2.6260 C   0  0  0  0  0  0  0  0  0  0  0  0
   -1.4260    9.9840   -1.0110 C   0  0  1  0  0  0  0  0  0  0  0  0
   -1.1630    9.6500    0.4900 C   0  0  0  0  0  0  0  0  0  0  0  0
   -1.5280   11.5520   -1.1060 C   0  0  0  0  0  0  0  0  0  0  0  0
   -1.1660   12.1910   -2.4600 C   0  0  0  0  0  0  0  0  0  0  0  0
    0.1740   11.6590   -2.9760 C   0  0  2  0  0  0  0  0  0  0  0  0
    1.2830   12.0800   -1.9520 C   0  0  0  0  0  0  0  0  0  0  0  0
   -0.0685   14.6913   -3.1561 H   0  0  0  0  0  0  0  0  0  0  0  0
    0.3435   15.5336   -4.6883 H   0  0  0  0  0  0  0  0  0  0  0  0
   -0.8757   14.2144   -4.6883 H   0  0  0  0  0  0  0  0  0  0  0  0
    1.9565   13.7002   -3.7499 H   0  0  0  0  0  0  0  0  0  0  0  0
    2.8932   13.9463   -5.7463 H   0  0  0  0  0  0  0  0  0  0  0  0
    1.6496   12.8114   -6.4594 H   0  0  0  0  0  0  0  0  0  0  0  0
    0.1415   14.6798   -6.8551 H   0  0  0  0  0  0  0  0  0  0  0  0
    1.3603   15.8172   -6.1432 H   0  0  0  0  0  0  0  0  0  0  0  0
    2.2917   14.0118   -7.9699 H   0  0  0  0  0  0  0  0  0  0  0  0
   -0.3088   16.6023   -8.0022 H   0  0  0  0  0  0  0  0  0  0  0  0
   -0.0204   17.4634   -9.5520 H   0  0  0  0  0  0  0  0  0  0  0  0
   -0.8362   15.8630   -9.5520 H   0  0  0  0  0  0  0  0  0  0  0  0
    2.6321   14.8678  -10.5416 H   0  0  0  0  0  0  0  0  0  0  0  0
    0.9326   14.9396  -11.1189 H   0  0  0  0  0  0  0  0  0  0  0  0
    1.9446   16.4236  -11.1189 H   0  0  0  0  0  0  0  0  0  0  0  0
   -0.2639   12.2221   -5.0405 H   0  0  0  0  0  0  0  0  0  0  0  0
    1.4824   10.7677   -5.8606 H   0  0  0  0  0  0  0  0  0  0  0  0
    2.6700   11.4166   -4.7095 H   0  0  0  0  0  0  0  0  0  0  0  0
    1.3430    8.8953   -4.4833 H   0  0  0  0  0  0  0  0  0  0  0  0
    2.2121    9.6753   -3.1645 H   0  0  0  0  0  0  0  0  0  0  0  0
   -1.9399    9.3463   -3.7294 H   0  0  0  0  0  0  0  0  0  0  0  0
   -1.2866   10.5599   -4.8814 H   0  0  0  0  0  0  0  0  0  0  0  0
   -0.6418    8.8833   -4.8814 H   0  0  0  0  0  0  0  0  0  0  0  0
    0.7127    9.6816   -1.2620 H   0  0  0  0  0  0  0  0  0  0  0  0
    0.4484    7.5462   -2.6794 H   0  0  0  0  0  0  0  0  0  0  0  0
    0.1107    7.5372   -0.8694 H   0  0  0  0  0  0  0  0  0  0  0  0
   -1.5831    6.1978   -2.3775 H   0  0  0  0  0  0  0  0  0  0  0  0
   -3.0661    9.9520   -2.3527 H   0  0  0  0  0  0  0  0  0  0  0  0
   -3.6148    8.8947    0.4890 H   0  0  0  0  0  0  0  0  0  0  0  0
   -4.0281   10.5426   -0.1623 H   0  0  0  0  0  0  0  0  0  0  0  0
   -5.9993    9.0509   -0.0701 H   0  0  0  0  0  0  0  0  0  0  0  0
   -5.5764    9.5596   -1.7520 H   0  0  0  0  0  0  0  0  0  0  0  0
   -6.1330    7.2239   -1.7693 H   0  0  0  0  0  0  0  0  0  0  0  0
   -5.3200    7.1320    0.6070 H   0  0  0  0  0  0  0  0  0  0  0  0
   -5.1477    8.7493   -3.5424 H   0  0  0  0  0  0  0  0  0  0  0  0
   -3.6321    8.1653   -4.3097 H   0  0  0  0  0  0  0  0  0  0  0  0
   -5.0972    7.1259   -4.3097 H   0  0  0  0  0  0  0  0  0  0  0  0
   -3.9611    5.1906   -1.6574 H   0  0  0  0  0  0  0  0  0  0  0  0
   -4.8714    5.3771   -3.1946 H   0  0  0  0  0  0  0  0  0  0  0  0
   -3.0781    5.4801   -3.1946 H   0  0  0  0  0  0  0  0  0  0  0  0
   -1.7185   10.3555    1.1254 H   0  0  0  0  0  0  0  0  0  0  0  0
   -1.4982    8.6239    0.7015 H   0  0  0  0  0  0  0  0  0  0  0  0
   -0.0869    9.7352    0.7015 H   0  0  0  0  0  0  0  0  0  0  0  0
   -2.5656   11.8327   -0.8724 H   0  0  0  0  0  0  0  0  0  0  0  0
   -0.7769   11.9326   -0.3982 H   0  0  0  0  0  0  0  0  0  0  0  0
   -1.9528   11.9545   -3.1914 H   0  0  0  0  0  0  0  0  0  0  0  0
   -1.0822   13.2792   -2.3232 H   0  0  0  0  0  0  0  0  0  0  0  0
    0.9089   11.9380   -0.9274 H   0  0  0  0  0  0  0  0  0  0  0  0
    2.1780   11.4591   -2.1049 H   0  0  0  0  0  0  0  0  0  0  0  0
    1.5405   13.1384   -2.1049 H   0  0  0  0  0  0  0  0  0  0  0  0
  1  2  1  0
  2  3  1  0
  3  4  1  0
  4  5  1  0
  5  6  1  0
  6  7  1  0
  7  8  1  0
  7  9  1  0
  2 10  1  0
 10 11  1  0
 11 12  1  0
 12 13  1  0
 13 14  1  6
 13 15  1  0
 15 16  1  0
 16 17  1  0
 17 18  2  0
 18 19  1  0
 19 20  1  0
 20 21  1  0
 21 22  1  0
 22 23  1  0
 22 24  1  0
 24 25  1  0
 24 26  1  0
 19 27  1  0
 27 28  1  1
 27 29  1  0
 29 30  1  0
 30 31  1  0
 31 32  1  1
  7  5  1  0
 31 10  1  0
 31 13  1  0
 27 15  1  0
 24 18  1  0
  1 33  1  0
  1 34  1  0
  1 35  1  0
  2 36  1  1
  3 37  1  0
  3 38  1  0
  4 39  1  0
  4 40  1  0
  5 41  1  6
  8 42  1  0
  8 43  1  0
  8 44  1  0
  9 45  1  0
  9 46  1  0
  9 47  1  0
 10 48  1  6
 11 49  1  0
 11 50  1  0
 12 51  1  0
 12 52  1  0
 14 53  1  0
 14 54  1  0
 14 55  1  0
 15 56  1  1
 16 57  1  0
 16 58  1  0
 17 59  1  0
 19 60  1  6
 20 61  1  0
 20 62  1  0
 21 63  1  0
 21 64  1  0
 22 65  1  6
 23 66  1  0
 25 67  1  0
 25 68  1  0
 25 69  1  0
 26 70  1  0
 26 71  1  0
 26 72  1  0
 28 73  1  0
 28 74  1  0
 28 75  1  0
 29 76  1  0
 29 77  1  0
 30 78  1  0
 30 79  1  0
 32 80  1  0
 32 81  1  0
 32 82  1  0
M  END
>  <meeko>  (11) 
{"is_sidechain": [false], "intermolecular_energy": 2.731, "internal_energy": -0.839}

$$$$
EPH_relaxed_0001_pdb2pqr_Repair_204_r2_0001_out
     RDKit          3D

 82 86  0  0  0  0  0  0  0  0999 V2000
   -2.5730    9.1680    0.6550 C   0  0  0  0  0  0  0  0  0  0  0  0
   -3.1860    8.3650   -0.4960 C   0  0  2  0  0  0  0  0  0  0  0  0
   -2.4280    8.5790   -1.8210 C   0  0  0  0  0  0  0  0  0  0  0  0
   -0.9240    8.3120   -1.7190 C   0  0  0  0  0  0  0  0  0  0  0  0
   -0.1320    9.2740   -2.5530 C   0  0  2  0  0  0  0  0  0  0  0  0
    0.8600   10.0160   -1.8320 O   0  0  0  0  0  0  0  0  0  0  0  0
   -0.2160   10.7810   -2.3980 C   0  0  0  0  0  0  0  0  0  0  0  0
   -1.1140   11.4120   -1.3810 C   0  0  0  0  0  0  0  0  0  0  0  0
    0.1980   11.6430   -3.5500 C   0  0  0  0  0  0  0  0  0  0  0  0
   -4.6530    8.7420   -0.6690 C   0  0  1  0  0  0  0  0  0  0  0  0
   -4.8590    9.8900   -1.6920 C   0  0  0  0  0  0  0  0  0  0  0  0
   -6.1950    9.6030   -2.4240 C   0  0  0  0  0  0  0  0  0  0  0  0
   -6.8720    8.4980   -1.5800 C   0  0  1  0  0  0  0  0  0  0  0  0
   -7.5410    9.2550   -0.3910 C   0  0  0  0  0  0  0  0  0  0  0  0
   -7.8950    7.5840   -2.3320 C   0  0  2  0  0  0  0  0  0  0  0  0
   -9.1270    8.3110   -2.8960 C   0  0  0  0  0  0  0  0  0  0  0  0
  -10.3000    8.3880   -1.9760 C   0  0  0  0  0  0  0  0  0  0  0  0
  -10.4680    7.6540   -0.8600 C   0  0  0  0  0  0  0  0  0  0  0  0
   -9.4620    6.5600   -0.4790 C   0  0  1  0  0  0  0  0  0  0  0  0
  -10.2270    5.2710   -0.0780 C   0  0  0  0  0  0  0  0  0  0  0  0
  -11.2610    5.5200    1.0160 C   0  0  0  0  0  0  0  0  0  0  0  0
  -12.2770    6.5710    0.5760 C   0  0  2  0  0  0  0  0  0  0  0  0
  -13.0520    6.0400   -0.5030 O   0  0  0  0  0  0  0  0  0  0  0  0
  -11.6220    7.9110    0.1400 C   0  0  0  0  0  0  0  0  0  0  0  0
  -11.0390    8.6340    1.3790 C   0  0  0  0  0  0  0  0  0  0  0  0
  -12.7430    8.8330   -0.4130 C   0  0  0  0  0  0  0  0  0  0  0  0
   -8.3070    6.2810   -1.5340 C   0  0  1  0  0  0  0  0  0  0  0  0
   -8.7930    5.2460   -2.5940 C   0  0  0  0  0  0  0  0  0  0  0  0
   -7.0840    5.6190   -0.7950 C   0  0  0  0  0  0  0  0  0  0  0  0
   -6.0460    6.5750   -0.1770 C   0  0  0  0  0  0  0  0  0  0  0  0
   -5.6130    7.6420   -1.1870 C   0  0  2  0  0  0  0  0  0  0  0  0
   -4.9160    6.9120   -2.3850 C   0  0  0  0  0  0  0  0  0  0  0  0
   -2.8992    8.7407    1.6147 H   0  0  0  0  0  0  0  0  0  0  0  0
   -1.4759    9.1250    0.5885 H   0  0  0  0  0  0  0  0  0  0  0  0
   -2.9037   10.2150    0.5885 H   0  0  0  0  0  0  0  0  0  0  0  0
   -3.1038    7.2992   -0.2367 H   0  0  0  0  0  0  0  0  0  0  0  0
   -2.8508    7.9005   -2.5766 H   0  0  0  0  0  0  0  0  0  0  0  0
   -2.5490    9.6378   -2.0935 H   0  0  0  0  0  0  0  0  0  0  0  0
   -0.6146    8.4126   -0.6682 H   0  0  0  0  0  0  0  0  0  0  0  0
   -0.7303    7.2953   -2.0914 H   0  0  0  0  0  0  0  0  0  0  0  0
   -0.2141    8.6167   -3.4312 H   0  0  0  0  0  0  0  0  0  0  0  0
   -0.7573   11.1614   -0.3711 H   0  0  0  0  0  0  0  0  0  0  0  0
   -1.1061   12.5041   -1.5121 H   0  0  0  0  0  0  0  0  0  0  0  0
   -2.1388   11.0344   -1.5121 H   0  0  0  0  0  0  0  0  0  0  0  0
    0.6449   12.5734   -3.1697 H   0  0  0  0  0  0  0  0  0  0  0  0
    0.9363   11.1056   -4.1633 H   0  0  0  0  0  0  0  0  0  0  0  0
   -0.6830   11.8833   -4.1633 H   0  0  0  0  0  0  0  0  0  0  0  0
   -4.9010    8.9989    0.3714 H   0  0  0  0  0  0  0  0  0  0  0  0
   -4.9131   10.8569   -1.1704 H   0  0  0  0  0  0  0  0  0  0  0  0
   -4.0217    9.9396   -2.4036 H   0  0  0  0  0  0  0  0  0  0  0  0
   -6.8221   10.5062   -2.4562 H   0  0  0  0  0  0  0  0  0  0  0  0
   -6.0407    9.2948   -3.4686 H   0  0  0  0  0  0  0  0  0  0  0  0
   -7.1749    8.8407    0.5599 H   0  0  0  0  0  0  0  0  0  0  0  0
   -7.2869   10.3238   -0.4473 H   0  0  0  0  0  0  0  0  0  0  0  0
   -8.6329    9.1342   -0.4473 H   0  0  0  0  0  0  0  0  0  0  0  0
   -7.3175    7.2530   -3.2077 H   0  0  0  0  0  0  0  0  0  0  0  0
   -8.8278    9.3382   -3.1516 H   0  0  0  0  0  0  0  0  0  0  0  0
   -9.4586    7.7196   -3.7622 H   0  0  0  0  0  0  0  0  0  0  0  0
  -11.0941    9.1050   -2.2315 H   0  0  0  0  0  0  0  0  0  0  0  0
   -8.9040    6.9480    0.3859 H   0  0  0  0  0  0  0  0  0  0  0  0
  -10.7417    4.8759   -0.9662 H   0  0  0  0  0  0  0  0  0  0  0  0
   -9.4907    4.5549    0.3156 H   0  0  0  0  0  0  0  0  0  0  0  0
  -11.7876    4.5793    1.2347 H   0  0  0  0  0  0  0  0  0  0  0  0
  -10.7417    5.8872    1.9135 H   0  0  0  0  0  0  0  0  0  0  0  0
  -12.9116    6.8006    1.4447 H   0  0  0  0  0  0  0  0  0  0  0  0
  -13.0030    6.6730   -1.2390 H   0  0  0  0  0  0  0  0  0  0  0  0
  -11.4218    8.1592    2.2944 H   0  0  0  0  0  0  0  0  0  0  0  0
   -9.9413    8.5644    1.3614 H   0  0  0  0  0  0  0  0  0  0  0  0
  -11.3397    9.6920    1.3614 H   0  0  0  0  0  0  0  0  0  0  0  0
  -13.2928    9.2852    0.4256 H   0  0  0  0  0  0  0  0  0  0  0  0
  -12.2945    9.6270   -1.0281 H   0  0  0  0  0  0  0  0  0  0  0  0
  -13.4356    8.2397   -1.0281 H   0  0  0  0  0  0  0  0  0  0  0  0
   -9.2070    4.3644   -2.0827 H   0  0  0  0  0  0  0  0  0  0  0  0
   -9.5704    5.7034   -3.2236 H   0  0  0  0  0  0  0  0  0  0  0  0
   -7.9445    4.9400   -3.2236 H   0  0  0  0  0  0  0  0  0  0  0  0
   -7.4843    4.9930    0.0161 H   0  0  0  0  0  0  0  0  0  0  0  0
   -6.5393    5.0683   -1.5761 H   0  0  0  0  0  0  0  0  0  0  0  0
   -6.4892    7.0689    0.7003 H   0  0  0  0  0  0  0  0  0  0  0  0
   -5.1616    5.9902    0.1160 H   0  0  0  0  0  0  0  0  0  0  0  0
   -4.2051    6.1675   -1.9972 H   0  0  0  0  0  0  0  0  0  0  0  0
   -5.6763    6.4077   -2.9995 H   0  0  0  0  0  0  0  0  0  0  0  0
   -4.3771    7.6482   -2.9995 H   0  0  0  0  0  0  0  0  0  0  0  0
  1  2  1  0
  2  3  1  0
  3  4  1  0
  4  5  1  0
  5  6  1  0
  6  7  1  0
  7  8  1  0
  7  9  1  0
  2 10  1  0
 10 11  1  0
 11 12  1  0
 12 13  1  0
 13 14  1  1
 13 15  1  0
 15 16  1  0
 16 17  1  0
 17 18  2  0
 18 19  1  0
 19 20  1  0
 20 21  1  0
 21 22  1  0
 22 23  1  0
 22 24  1  0
 24 25  1  0
 24 26  1  0
 19 27  1  0
 27 28  1  6
 27 29  1  0
 29 30  1  0
 30 31  1  0
 31 32  1  6
  7  5  1  0
 31 10  1  0
 31 13  1  0
 27 15  1  0
 24 18  1  0
  1 33  1  0
  1 34  1  0
  1 35  1  0
  2 36  1  1
  3 37  1  0
  3 38  1  0
  4 39  1  0
  4 40  1  0
  5 41  1  6
  8 42  1  0
  8 43  1  0
  8 44  1  0
  9 45  1  0
  9 46  1  0
  9 47  1  0
 10 48  1  1
 11 49  1  0
 11 50  1  0
 12 51  1  0
 12 52  1  0
 14 53  1  0
 14 54  1  0
 14 55  1  0
 15 56  1  6
 16 57  1  0
 16 58  1  0
 17 59  1  0
 19 60  1  1
 20 61  1  0
 20 62  1  0
 21 63  1  0
 21 64  1  0
 22 65  1  1
 23 66  1  0
 25 67  1  0
 25 68  1  0
 25 69  1  0
 26 70  1  0
 26 71  1  0
 26 72  1  0
 28 73  1  0
 28 74  1  0
 28 75  1  0
 29 76  1  0
 29 77  1  0
 30 78  1  0
 30 79  1  0
 32 80  1  0
 32 81  1  0
 32 82  1  0
M  END
>  <meeko>  (12) 
{"is_sidechain": [false], "intermolecular_energy": 2.731, "internal_energy": -0.839}

$$$$
EPH_relaxed_0001_pdb2pqr_Repair_204_r2_0001_out
     RDKit          3D

 82 86  0  0  0  0  0  0  0  0999 V2000
   -4.8350    4.7040   -2.4070 C   0  0  0  0  0  0  0  0  0  0  0  0
   -5.7080    5.9020   -2.7900 C   0  0  2  0  0  0  0  0  0  0  0  0
   -4.8980    7.2120   -2.8640 C   0  0  0  0  0  0  0  0  0  0  0  0
   -3.6460    7.2120   -1.9820 C   0  0  0  0  0  0  0  0  0  0  0  0
   -2.5000    7.9140   -2.6450 C   0  0  2  0  0  0  0  0  0  0  0  0
   -1.2030    7.4520   -2.2460 O   0  0  0  0  0  0  0  0  0  0  0  0
   -1.5250    8.8090   -1.9030 C   0  0  0  0  0  0  0  0  0  0  0  0
   -1.6530    9.0520   -0.4320 C   0  0  0  0  0  0  0  0  0  0  0  0
   -0.7540    9.8270   -2.6830 C   0  0  0  0  0  0  0  0  0  0  0  0
   -6.8510    6.0530   -1.7930 C   0  0  1  0  0  0  0  0  0  0  0  0
   -6.3550    6.4000   -0.3640 C   0  0  0  0  0  0  0  0  0  0  0  0
   -7.4160    7.3410    0.2620 C   0  0  0  0  0  0  0  0  0  0  0  0
   -8.6350    7.2390   -0.6860 C   0  0  1  0  0  0  0  0  0  0  0  0
   -9.3650    5.9270   -0.2610 C   0  0  0  0  0  0  0  0  0  0  0  0
   -9.6070    8.4640   -0.6950 C   0  0  2  0  0  0  0  0  0  0  0  0
  -10.3070    8.7510    0.6440 C   0  0  0  0  0  0  0  0  0  0  0  0
  -11.6200    8.0680    0.8370 C   0  0  0  0  0  0  0  0  0  0  0  0
  -12.3490    7.4860   -0.1340 C   0  0  0  0  0  0  0  0  0  0  0  0
  -11.9110    7.5650   -1.6020 C   0  0  1  0  0  0  0  0  0  0  0  0
  -13.1280    7.9460   -2.4850 C   0  0  0  0  0  0  0  0  0  0  0  0
  -14.3160    7.0110   -2.2800 C   0  0  0  0  0  0  0  0  0  0  0  0
  -14.7580    7.0050   -0.8190 C   0  0  2  0  0  0  0  0  0  0  0  0
  -15.2860    8.2940   -0.4910 O   0  0  0  0  0  0  0  0  0  0  0  0
  -13.6130    6.6430    0.1670 C   0  0  0  0  0  0  0  0  0  0  0  0
  -13.2460    5.1460    0.0120 C   0  0  0  0  0  0  0  0  0  0  0  0
  -14.1550    6.8100    1.6120 C   0  0  0  0  0  0  0  0  0  0  0  0
  -10.6360    8.4660   -1.8970 C   0  0  1  0  0  0  0  0  0  0  0  0
  -11.0690    9.9480   -2.1100 C   0  0  0  0  0  0  0  0  0  0  0  0
   -9.9770    7.9970   -3.2490 C   0  0  0  0  0  0  0  0  0  0  0  0
   -8.9370    6.8650   -3.1590 C   0  0  0  0  0  0  0  0  0  0  0  0
   -7.8980    7.1600   -2.0720 C   0  0  2  0  0  0  0  0  0  0  0  0
   -7.1320    8.4630   -2.4840 C   0  0  0  0  0  0  0  0  0  0  0  0
   -4.7787    4.6268   -1.3112 H   0  0  0  0  0  0  0  0  0  0  0  0
   -5.2754    3.7833   -2.8173 H   0  0  0  0  0  0  0  0  0  0  0  0
   -3.8237    4.8412   -2.8173 H   0  0  0  0  0  0  0  0  0  0  0  0
   -6.1132    5.7072   -3.7939 H   0  0  0  0  0  0  0  0  0  0  0  0
   -4.5878    7.3701   -3.9074 H   0  0  0  0  0  0  0  0  0  0  0  0
   -5.5518    8.0157   -2.4943 H   0  0  0  0  0  0  0  0  0  0  0  0
   -3.8770    7.7224   -1.0354 H   0  0  0  0  0  0  0  0  0  0  0  0
   -3.3515    6.1670   -1.8052 H   0  0  0  0  0  0  0  0  0  0  0  0
   -3.0918    8.0659   -3.5597 H   0  0  0  0  0  0  0  0  0  0  0  0
   -1.2092    8.2096    0.1188 H   0  0  0  0  0  0  0  0  0  0  0  0
   -1.1273    9.9811   -0.1667 H   0  0  0  0  0  0  0  0  0  0  0  0
   -2.7166    9.1440   -0.1667 H   0  0  0  0  0  0  0  0  0  0  0  0
   -0.2387   10.5074   -1.9891 H   0  0  0  0  0  0  0  0  0  0  0  0
   -0.0123    9.3187   -3.3167 H   0  0  0  0  0  0  0  0  0  0  0  0
   -1.4442   10.4032   -3.3167 H   0  0  0  0  0  0  0  0  0  0  0  0
   -7.3161    5.0614   -1.8953 H   0  0  0  0  0  0  0  0  0  0  0  0
   -6.2600    5.4835    0.2369 H   0  0  0  0  0  0  0  0  0  0  0  0
   -5.3676    6.8839   -0.3955 H   0  0  0  0  0  0  0  0  0  0  0  0
   -7.6828    7.0061    1.2752 H   0  0  0  0  0  0  0  0  0  0  0  0
   -7.0507    8.3737    0.3626 H   0  0  0  0  0  0  0  0  0  0  0  0
   -9.3992    5.8655    0.8367 H   0  0  0  0  0  0  0  0  0  0  0  0
  -10.3900    5.9320   -0.6601 H   0  0  0  0  0  0  0  0  0  0  0  0
   -8.8204    5.0586   -0.6601 H   0  0  0  0  0  0  0  0  0  0  0  0
   -8.9212    9.3079   -0.8604 H   0  0  0  0  0  0  0  0  0  0  0  0
   -9.6352    8.4309    1.4541 H   0  0  0  0  0  0  0  0  0  0  0  0
  -10.5218    9.8298    0.6497 H   0  0  0  0  0  0  0  0  0  0  0  0
  -12.0264    8.0375    1.8587 H   0  0  0  0  0  0  0  0  0  0  0  0
  -11.5570    6.5584   -1.8692 H   0  0  0  0  0  0  0  0  0  0  0  0
  -13.4386    8.9709   -2.2338 H   0  0  0  0  0  0  0  0  0  0  0  0
  -12.8160    7.8634   -3.5366 H   0  0  0  0  0  0  0  0  0  0  0  0
  -15.1532    7.3492   -2.9083 H   0  0  0  0  0  0  0  0  0  0  0  0
  -14.0133    5.9912   -2.5600 H   0  0  0  0  0  0  0  0  0  0  0  0
  -15.5237    6.2228   -0.7103 H   0  0  0  0  0  0  0  0  0  0  0  0
  -14.8780    8.9400   -1.0920 H   0  0  0  0  0  0  0  0  0  0  0  0
  -13.1344    4.6909    1.0072 H   0  0  0  0  0  0  0  0  0  0  0  0
  -14.0438    4.6282   -0.5406 H   0  0  0  0  0  0  0  0  0  0  0  0
  -12.2992    5.0559   -0.5406 H   0  0  0  0  0  0  0  0  0  0  0  0
  -13.3604    6.5652    2.3322 H   0  0  0  0  0  0  0  0  0  0  0  0
  -14.4799    7.8499    1.7639 H   0  0  0  0  0  0  0  0  0  0  0  0
  -15.0088    6.1333    1.7639 H   0  0  0  0  0  0  0  0  0  0  0  0
  -11.2106   10.4327   -1.1327 H   0  0  0  0  0  0  0  0  0  0  0  0
  -10.2889   10.4805   -2.6738 H   0  0  0  0  0  0  0  0  0  0  0  0
  -12.0131    9.9767   -2.6738 H   0  0  0  0  0  0  0  0  0  0  0  0
  -10.7853    7.6543   -3.9118 H   0  0  0  0  0  0  0  0  0  0  0  0
   -9.4194    8.8714   -3.6157 H   0  0  0  0  0  0  0  0  0  0  0  0
   -9.4509    5.9224   -2.9193 H   0  0  0  0  0  0  0  0  0  0  0  0
   -8.4197    6.7862   -4.1266 H   0  0  0  0  0  0  0  0  0  0  0  0
   -6.8145    9.0031   -1.5798 H   0  0  0  0  0  0  0  0  0  0  0  0
   -6.2476    8.1952   -3.0807 H   0  0  0  0  0  0  0  0  0  0  0  0
   -7.7961    9.1056   -3.0807 H   0  0  0  0  0  0  0  0  0  0  0  0
  1  2  1  0
  2  3  1  0
  3  4  1  0
  4  5  1  0
  5  6  1  0
  6  7  1  0
  7  8  1  0
  7  9  1  0
  2 10  1  0
 10 11  1  0
 11 12  1  0
 12 13  1  0
 13 14  1  1
 13 15  1  0
 15 16  1  0
 16 17  1  0
 17 18  2  0
 18 19  1  0
 19 20  1  0
 20 21  1  0
 21 22  1  0
 22 23  1  0
 22 24  1  0
 24 25  1  0
 24 26  1  0
 19 27  1  0
 27 28  1  6
 27 29  1  0
 29 30  1  0
 30 31  1  0
 31 32  1  6
  7  5  1  0
 31 10  1  0
 31 13  1  0
 27 15  1  0
 24 18  1  0
  1 33  1  0
  1 34  1  0
  1 35  1  0
  2 36  1  6
  3 37  1  0
  3 38  1  0
  4 39  1  0
  4 40  1  0
  5 41  1  6
  8 42  1  0
  8 43  1  0
  8 44  1  0
  9 45  1  0
  9 46  1  0
  9 47  1  0
 10 48  1  1
 11 49  1  0
 11 50  1  0
 12 51  1  0
 12 52  1  0
 14 53  1  0
 14 54  1  0
 14 55  1  0
 15 56  1  6
 16 57  1  0
 16 58  1  0
 17 59  1  0
 19 60  1  6
 20 61  1  0
 20 62  1  0
 21 63  1  0
 21 64  1  0
 22 65  1  6
 23 66  1  0
 25 67  1  0
 25 68  1  0
 25 69  1  0
 26 70  1  0
 26 71  1  0
 26 72  1  0
 28 73  1  0
 28 74  1  0
 28 75  1  0
 29 76  1  0
 29 77  1  0
 30 78  1  0
 30 79  1  0
 32 80  1  0
 32 81  1  0
 32 82  1  0
M  END
>  <meeko>  (13) 
{"is_sidechain": [false], "intermolecular_energy": 2.731, "internal_energy": -0.839}

$$$$
EPH_relaxed_0001_pdb2pqr_Repair_204_r2_0001_out
     RDKit          3D

 82 86  0  0  0  0  0  0  0  0999 V2000
   -0.9500   11.8450   -1.9800 C   0  0  0  0  0  0  0  0  0  0  0  0
   -0.6800   10.3830   -1.6140 C   0  0  2  0  0  0  0  0  0  0  0  0
    0.7090    9.9120   -2.0900 C   0  0  0  0  0  0  0  0  0  0  0  0
    1.3450   10.8310   -3.1370 C   0  0  0  0  0  0  0  0  0  0  0  0
    2.8390   10.7100   -3.1470 C   0  0  2  0  0  0  0  0  0  0  0  0
    3.5410   11.9500   -2.9860 O   0  0  0  0  0  0  0  0  0  0  0  0
    3.7170   11.2800   -4.2450 C   0  0  0  0  0  0  0  0  0  0  0  0
    3.1320   12.0120   -5.4110 C   0  0  0  0  0  0  0  0  0  0  0  0
    5.0870   10.7060   -4.4350 C   0  0  0  0  0  0  0  0  0  0  0  0
   -1.7640    9.4900   -2.2050 C   0  0  1  0  0  0  0  0  0  0  0  0
   -1.1910    8.4010   -3.1510 C   0  0  0  0  0  0  0  0  0  0  0  0
   -2.0760    7.1410   -2.9710 C   0  0  0  0  0  0  0  0  0  0  0  0
   -3.3130    7.6420   -2.1900 C   0  0  1  0  0  0  0  0  0  0  0  0
   -4.2350    8.2890   -3.2700 C   0  0  0  0  0  0  0  0  0  0  0  0
   -4.0770    6.5710   -1.3450 C   0  0  2  0  0  0  0  0  0  0  0  0
   -4.6960    5.4200   -2.1570 C   0  0  0  0  0  0  0  0  0  0  0  0
   -6.0980    5.6470   -2.6200 C   0  0  0  0  0  0  0  0  0  0  0  0
   -6.9290    6.6000   -2.1580 C   0  0  0  0  0  0  0  0  0  0  0  0
   -6.5130    7.5130   -0.9970 C   0  0  1  0  0  0  0  0  0  0  0  0
   -7.6710    7.6020    0.0320 C   0  0  0  0  0  0  0  0  0  0  0  0
   -8.9880    8.0320   -0.6060 C   0  0  0  0  0  0  0  0  0  0  0  0
   -9.3980    7.0670   -1.7160 C   0  0  2  0  0  0  0  0  0  0  0  0
   -9.7060    5.7980   -1.1330 O   0  0  0  0  0  0  0  0  0  0  0  0
   -8.3050    6.8900   -2.8070 C   0  0  0  0  0  0  0  0  0  0  0  0
   -8.1850    8.1890   -3.6400 C   0  0  0  0  0  0  0  0  0  0  0  0
   -8.7850    5.7870   -3.7890 C   0  0  0  0  0  0  0  0  0  0  0  0
   -5.1170    7.1770   -0.3170 C   0  0  1  0  0  0  0  0  0  0  0  0
   -5.3130    6.1080    0.8010 C   0  0  0  0  0  0  0  0  0  0  0  0
   -4.5680    8.4700    0.3960 C   0  0  0  0  0  0  0  0  0  0  0  0
   -3.7200    9.4290   -0.4600 C   0  0  0  0  0  0  0  0  0  0  0  0
   -2.6260    8.6680   -1.2160 C   0  0  2  0  0  0  0  0  0  0  0  0
   -1.6700    8.0250   -0.1540 C   0  0  0  0  0  0  0  0  0  0  0  0
   -1.0597   12.4389   -1.0606 H   0  0  0  0  0  0  0  0  0  0  0  0
   -0.1089   12.2363   -2.5712 H   0  0  0  0  0  0  0  0  0  0  0  0
   -1.8754   11.9101   -2.5712 H   0  0  0  0  0  0  0  0  0  0  0  0
   -0.6953   10.3087   -0.5166 H   0  0  0  0  0  0  0  0  0  0  0  0
    1.3774    9.8645   -1.2177 H   0  0  0  0  0  0  0  0  0  0  0  0
    0.5699    8.9301   -2.5660 H   0  0  0  0  0  0  0  0  0  0  0  0
    0.9588   10.5601   -4.1307 H   0  0  0  0  0  0  0  0  0  0  0  0
    1.0869   11.8698   -2.8834 H   0  0  0  0  0  0  0  0  0  0  0  0
    2.7849    9.7110   -2.6897 H   0  0  0  0  0  0  0  0  0  0  0  0
    2.4839   12.8229   -5.0471 H   0  0  0  0  0  0  0  0  0  0  0  0
    3.9426   12.4364   -6.0216 H   0  0  0  0  0  0  0  0  0  0  0  0
    2.5393   11.3150   -6.0216 H   0  0  0  0  0  0  0  0  0  0  0  0
    5.5438   10.5146   -3.4528 H   0  0  0  0  0  0  0  0  0  0  0  0
    5.0147    9.7625   -4.9959 H   0  0  0  0  0  0  0  0  0  0  0  0
    5.7088   11.4193   -4.9959 H   0  0  0  0  0  0  0  0  0  0  0  0
   -2.3830   10.2540   -2.6980 H   0  0  0  0  0  0  0  0  0  0  0  0
   -1.2316    8.7464   -4.1946 H   0  0  0  0  0  0  0  0  0  0  0  0
   -0.1399    8.1828   -2.9109 H   0  0  0  0  0  0  0  0  0  0  0  0
   -2.3730    6.7321   -3.9481 H   0  0  0  0  0  0  0  0  0  0  0  0
   -1.5487    6.3326   -2.4434 H   0  0  0  0  0  0  0  0  0  0  0  0
   -5.0392    8.8533   -2.7752 H   0  0  0  0  0  0  0  0  0  0  0  0
   -3.6420    8.9701   -3.8981 H   0  0  0  0  0  0  0  0  0  0  0  0
   -4.6738    7.4997   -3.8981 H   0  0  0  0  0  0  0  0  0  0  0  0
   -3.2688    6.1182   -0.7520 H   0  0  0  0  0  0  0  0  0  0  0  0
   -4.0677    5.2540   -3.0445 H   0  0  0  0  0  0  0  0  0  0  0  0
   -4.7363    4.5559   -1.4776 H   0  0  0  0  0  0  0  0  0  0  0  0
   -6.4838    4.9793   -3.4044 H   0  0  0  0  0  0  0  0  0  0  0  0
   -6.3296    8.5033   -1.4393 H   0  0  0  0  0  0  0  0  0  0  0  0
   -7.8091    6.6133    0.4939 H   0  0  0  0  0  0  0  0  0  0  0  0
   -7.3972    8.3625    0.7781 H   0  0  0  0  0  0  0  0  0  0  0  0
   -9.7728    8.0484    0.1646 H   0  0  0  0  0  0  0  0  0  0  0  0
   -8.8561    9.0331   -1.0424 H   0  0  0  0  0  0  0  0  0  0  0  0
  -10.2771    7.4962   -2.2190 H   0  0  0  0  0  0  0  0  0  0  0  0
   -8.9040    5.2500   -1.1780 H   0  0  0  0  0  0  0  0  0  0  0  0
   -8.1052    9.0525   -2.9632 H   0  0  0  0  0  0  0  0  0  0  0  0
   -7.2879    8.1362   -4.2744 H   0  0  0  0  0  0  0  0  0  0  0  0
   -9.0766    8.3015   -4.2744 H   0  0  0  0  0  0  0  0  0  0  0  0
   -9.1600    4.9252   -3.2175 H   0  0  0  0  0  0  0  0  0  0  0  0
   -9.5910    6.1856   -4.4226 H   0  0  0  0  0  0  0  0  0  0  0  0
   -7.9439    5.4688   -4.4226 H   0  0  0  0  0  0  0  0  0  0  0  0
   -5.2250    6.5881    1.7868 H   0  0  0  0  0  0  0  0  0  0  0  0
   -6.3096    5.6529    0.7025 H   0  0  0  0  0  0  0  0  0  0  0  0
   -4.5427    5.3289    0.7025 H   0  0  0  0  0  0  0  0  0  0  0  0
   -5.4335    9.0359    0.7710 H   0  0  0  0  0  0  0  0  0  0  0  0
   -3.8854    8.1005    1.1754 H   0  0  0  0  0  0  0  0  0  0  0  0
   -4.3727    9.9361   -1.1858 H   0  0  0  0  0  0  0  0  0  0  0  0
   -3.2410   10.1624    0.2054 H   0  0  0  0  0  0  0  0  0  0  0  0
   -2.0295    8.2668    0.8571 H   0  0  0  0  0  0  0  0  0  0  0  0
   -1.6559    6.9331   -0.2868 H   0  0  0  0  0  0  0  0  0  0  0  0
   -0.6534    8.4236   -0.2868 H   0  0  0  0  0  0  0  0  0  0  0  0
  1  2  1  0
  2  3  1  0
  3  4  1  0
  4  5  1  0
  5  6  1  0
  6  7  1  0
  7  8  1  0
  7  9  1  0
  2 10  1  0
 10 11  1  0
 11 12  1  0
 12 13  1  0
 13 14  1  6
 13 15  1  0
 15 16  1  0
 16 17  1  0
 17 18  2  0
 18 19  1  0
 19 20  1  0
 20 21  1  0
 21 22  1  0
 22 23  1  0
 22 24  1  0
 24 25  1  0
 24 26  1  0
 19 27  1  0
 27 28  1  1
 27 29  1  0
 29 30  1  0
 30 31  1  0
 31 32  1  1
  7  5  1  0
 31 10  1  0
 31 13  1  0
 27 15  1  0
 24 18  1  0
  1 33  1  0
  1 34  1  0
  1 35  1  0
  2 36  1  1
  3 37  1  0
  3 38  1  0
  4 39  1  0
  4 40  1  0
  5 41  1  1
  8 42  1  0
  8 43  1  0
  8 44  1  0
  9 45  1  0
  9 46  1  0
  9 47  1  0
 10 48  1  6
 11 49  1  0
 11 50  1  0
 12 51  1  0
 12 52  1  0
 14 53  1  0
 14 54  1  0
 14 55  1  0
 15 56  1  1
 16 57  1  0
 16 58  1  0
 17 59  1  0
 19 60  1  6
 20 61  1  0
 20 62  1  0
 21 63  1  0
 21 64  1  0
 22 65  1  6
 23 66  1  0
 25 67  1  0
 25 68  1  0
 25 69  1  0
 26 70  1  0
 26 71  1  0
 26 72  1  0
 28 73  1  0
 28 74  1  0
 28 75  1  0
 29 76  1  0
 29 77  1  0
 30 78  1  0
 30 79  1  0
 32 80  1  0
 32 81  1  0
 32 82  1  0
M  END
>  <meeko>  (14) 
{"is_sidechain": [false], "intermolecular_energy": 2.731, "internal_energy": -0.839}

$$$$
EPH_relaxed_0001_pdb2pqr_Repair_204_r2_0001_out
     RDKit          3D

 82 86  0  0  0  0  0  0  0  0999 V2000
    0.7670   11.8220   -3.8380 C   0  0  0  0  0  0  0  0  0  0  0  0
    1.1820   11.0420   -2.5870 C   0  0  2  0  0  0  0  0  0  0  0  0
    2.6230   10.5030   -2.6900 C   0  0  0  0  0  0  0  0  0  0  0  0
    3.4730   11.2170   -3.7450 C   0  0  0  0  0  0  0  0  0  0  0  0
    4.9160   11.2770   -3.3450 C   0  0  2  0  0  0  0  0  0  0  0  0
    5.6890   12.2650   -4.0390 O   0  0  0  0  0  0  0  0  0  0  0  0
    6.0570   10.8950   -4.2700 C   0  0  0  0  0  0  0  0  0  0  0  0
    5.8040   10.4240   -5.6680 C   0  0  0  0  0  0  0  0  0  0  0  0
    7.3720   10.5140   -3.6650 C   0  0  0  0  0  0  0  0  0  0  0  0
    0.2110    9.8920   -2.3470 C   0  0  1  0  0  0  0  0  0  0  0  0
    0.8910    8.6670   -1.6790 C   0  0  0  0  0  0  0  0  0  0  0  0
   -0.1610    8.0320   -0.7340 C   0  0  0  0  0  0  0  0  0  0  0  0
   -1.4980    8.7010   -1.1320 C   0  0  1  0  0  0  0  0  0  0  0  0
   -1.9770    7.9190   -2.3950 C   0  0  0  0  0  0  0  0  0  0  0  0
   -2.6040    8.7470   -0.0280 C   0  0  2  0  0  0  0  0  0  0  0  0
   -3.1020    7.3730    0.4540 C   0  0  0  0  0  0  0  0  0  0  0  0
   -4.2680    6.8190   -0.2940 C   0  0  0  0  0  0  0  0  0  0  0  0
   -5.0690    7.5150   -1.1220 C   0  0  0  0  0  0  0  0  0  0  0  0
   -4.8960    9.0300   -1.2960 C   0  0  1  0  0  0  0  0  0  0  0  0
   -6.2810    9.7230   -1.2110 C   0  0  0  0  0  0  0  0  0  0  0  0
   -7.2910    9.1350   -2.1910 C   0  0  0  0  0  0  0  0  0  0  0  0
   -7.4800    7.6400   -1.9480 C   0  0  2  0  0  0  0  0  0  0  0  0
   -8.1030    7.4550   -0.6730 O   0  0  0  0  0  0  0  0  0  0  0  0
   -6.1500    6.8380   -2.0000 C   0  0  0  0  0  0  0  0  0  0  0  0
   -5.6290    6.7870   -3.4580 C   0  0  0  0  0  0  0  0  0  0  0  0
   -6.4610    5.3700   -1.5990 C   0  0  0  0  0  0  0  0  0  0  0  0
   -3.8110    9.7160   -0.3590 C   0  0  1  0  0  0  0  0  0  0  0  0
   -4.4560   10.1050    1.0050 C   0  0  0  0  0  0  0  0  0  0  0  0
   -3.3330   11.0600   -1.0250 C   0  0  0  0  0  0  0  0  0  0  0  0
   -2.1580   10.9660   -2.0170 C   0  0  0  0  0  0  0  0  0  0  0  0
   -0.9990   10.1640   -1.4180 C   0  0  2  0  0  0  0  0  0  0  0  0
   -0.4810   10.9380   -0.1580 C   0  0  0  0  0  0  0  0  0  0  0  0
    0.2697   12.7566   -3.5392 H   0  0  0  0  0  0  0  0  0  0  0  0
    1.6595   12.0567   -4.4366 H   0  0  0  0  0  0  0  0  0  0  0  0
    0.0737   11.2129   -4.4366 H   0  0  0  0  0  0  0  0  0  0  0  0
    1.1510   11.7388   -1.7364 H   0  0  0  0  0  0  0  0  0  0  0  0
    3.1101   10.6244   -1.7112 H   0  0  0  0  0  0  0  0  0  0  0  0
    2.5510    9.4485   -2.9948 H   0  0  0  0  0  0  0  0  0  0  0  0
    3.3893   10.6737   -4.6978 H   0  0  0  0  0  0  0  0  0  0  0  0
    3.1014   12.2475   -3.8454 H   0  0  0  0  0  0  0  0  0  0  0  0
    4.6679   10.9765   -2.3163 H   0  0  0  0  0  0  0  0  0  0  0  0
    5.2836    9.4553   -5.6400 H   0  0  0  0  0  0  0  0  0  0  0  0
    5.1800   11.1603   -6.1957 H   0  0  0  0  0  0  0  0  0  0  0  0
    6.7624   10.3103   -6.1957 H   0  0  0  0  0  0  0  0  0  0  0  0
    7.2915   10.5373   -2.5682 H   0  0  0  0  0  0  0  0  0  0  0  0
    7.6455    9.4997   -3.9911 H   0  0  0  0  0  0  0  0  0  0  0  0
    8.1454   11.2250   -3.9911 H   0  0  0  0  0  0  0  0  0  0  0  0
   -0.1366    9.7257   -3.3773 H   0  0  0  0  0  0  0  0  0  0  0  0
    1.1996    7.9405   -2.4451 H   0  0  0  0  0  0  0  0  0  0  0  0
    1.7905    8.9692   -1.1226 H   0  0  0  0  0  0  0  0  0  0  0  0
   -0.2115    6.9435   -0.8847 H   0  0  0  0  0  0  0  0  0  0  0  0
    0.0836    8.1878    0.3271 H   0  0  0  0  0  0  0  0  0  0  0  0
   -2.5279    7.0197   -2.0824 H   0  0  0  0  0  0  0  0  0  0  0  0
   -2.6362    8.5622   -2.9964 H   0  0  0  0  0  0  0  0  0  0  0  0
   -1.1045    7.6240   -2.9964 H   0  0  0  0  0  0  0  0  0  0  0  0
   -2.0671    9.1866    0.8255 H   0  0  0  0  0  0  0  0  0  0  0  0
   -2.2700    6.6591    0.3636 H   0  0  0  0  0  0  0  0  0  0  0  0
   -3.4462    7.5200    1.4884 H   0  0  0  0  0  0  0  0  0  0  0  0
   -4.4921    5.7508   -0.1571 H   0  0  0  0  0  0  0  0  0  0  0  0
   -4.4684    9.1739   -2.2992 H   0  0  0  0  0  0  0  0  0  0  0  0
   -6.6717    9.6058   -0.1894 H   0  0  0  0  0  0  0  0  0  0  0  0
   -6.1406   10.7823   -1.4721 H   0  0  0  0  0  0  0  0  0  0  0  0
   -8.2568    9.6456   -2.0623 H   0  0  0  0  0  0  0  0  0  0  0  0
   -6.9129    9.2795   -3.2138 H   0  0  0  0  0  0  0  0  0  0  0  0
   -8.1128    7.2517   -2.7597 H   0  0  0  0  0  0  0  0  0  0  0  0
   -7.5390    6.8580   -0.1540 H   0  0  0  0  0  0  0  0  0  0  0  0
   -4.5342    6.6798   -3.4526 H   0  0  0  0  0  0  0  0  0  0  0  0
   -6.0789    5.9286   -3.9783 H   0  0  0  0  0  0  0  0  0  0  0  0
   -5.9039    7.7163   -3.9783 H   0  0  0  0  0  0  0  0  0  0  0  0
   -6.4789    5.2854   -0.5024 H   0  0  0  0  0  0  0  0  0  0  0  0
   -7.4408    5.0786   -2.0053 H   0  0  0  0  0  0  0  0  0  0  0  0
   -5.6835    4.7063   -2.0053 H   0  0  0  0  0  0  0  0  0  0  0  0
   -3.8304    9.7277    1.8273 H   0  0  0  0  0  0  0  0  0  0  0  0
   -4.5326   11.2001    1.0753 H   0  0  0  0  0  0  0  0  0  0  0  0
   -5.4603    9.6619    1.0753 H   0  0  0  0  0  0  0  0  0  0  0  0
   -4.1909   11.4868   -1.5652 H   0  0  0  0  0  0  0  0  0  0  0  0
   -2.9583   11.6751   -0.1936 H   0  0  0  0  0  0  0  0  0  0  0  0
   -2.5019   10.4697   -2.9365 H   0  0  0  0  0  0  0  0  0  0  0  0
   -1.8034   11.9834   -2.2387 H   0  0  0  0  0  0  0  0  0  0  0  0
   -0.8236   10.4260    0.7533 H   0  0  0  0  0  0  0  0  0  0  0  0
    0.6186   10.9661   -0.1714 H   0  0  0  0  0  0  0  0  0  0  0  0
   -0.8743   11.9652   -0.1714 H   0  0  0  0  0  0  0  0  0  0  0  0
  1  2  1  0
  2  3  1  0
  3  4  1  0
  4  5  1  0
  5  6  1  0
  6  7  1  0
  7  8  1  0
  7  9  1  0
  2 10  1  0
 10 11  1  0
 11 12  1  0
 12 13  1  0
 13 14  1  6
 13 15  1  0
 15 16  1  0
 16 17  1  0
 17 18  2  0
 18 19  1  0
 19 20  1  0
 20 21  1  0
 21 22  1  0
 22 23  1  0
 22 24  1  0
 24 25  1  0
 24 26  1  0
 19 27  1  0
 27 28  1  1
 27 29  1  0
 29 30  1  0
 30 31  1  0
 31 32  1  1
  7  5  1  0
 31 10  1  0
 31 13  1  0
 27 15  1  0
 24 18  1  0
  1 33  1  0
  1 34  1  0
  1 35  1  0
  2 36  1  1
  3 37  1  0
  3 38  1  0
  4 39  1  0
  4 40  1  0
  5 41  1  1
  8 42  1  0
  8 43  1  0
  8 44  1  0
  9 45  1  0
  9 46  1  0
  9 47  1  0
 10 48  1  6
 11 49  1  0
 11 50  1  0
 12 51  1  0
 12 52  1  0
 14 53  1  0
 14 54  1  0
 14 55  1  0
 15 56  1  1
 16 57  1  0
 16 58  1  0
 17 59  1  0
 19 60  1  6
 20 61  1  0
 20 62  1  0
 21 63  1  0
 21 64  1  0
 22 65  1  6
 23 66  1  0
 25 67  1  0
 25 68  1  0
 25 69  1  0
 26 70  1  0
 26 71  1  0
 26 72  1  0
 28 73  1  0
 28 74  1  0
 28 75  1  0
 29 76  1  0
 29 77  1  0
 30 78  1  0
 30 79  1  0
 32 80  1  0
 32 81  1  0
 32 82  1  0
M  END
>  <meeko>  (15) 
{"is_sidechain": [false], "intermolecular_energy": 2.731, "internal_energy": -0.839}

$$$$
EPH_relaxed_0001_pdb2pqr_Repair_204_r2_0001_out
     RDKit          3D

 82 86  0  0  0  0  0  0  0  0999 V2000
   -5.2100    7.9880   -0.2380 C   0  0  0  0  0  0  0  0  0  0  0  0
   -5.5130    7.2880   -1.5650 C   0  0  2  0  0  0  0  0  0  0  0  0
   -4.4920    7.6520   -2.6610 C   0  0  0  0  0  0  0  0  0  0  0  0
   -4.6470    6.8310   -3.9440 C   0  0  0  0  0  0  0  0  0  0  0  0
   -5.5610    5.6600   -3.7460 C   0  0  2  0  0  0  0  0  0  0  0  0
   -5.0860    4.4280   -4.3040 O   0  0  0  0  0  0  0  0  0  0  0  0
   -6.2870    4.9640   -4.8820 C   0  0  0  0  0  0  0  0  0  0  0  0
   -6.1320    5.4150   -6.3000 C   0  0  0  0  0  0  0  0  0  0  0  0
   -7.5150    4.1680   -4.5650 C   0  0  0  0  0  0  0  0  0  0  0  0
   -6.9220    7.6400   -2.0280 C   0  0  1  0  0  0  0  0  0  0  0  0
   -7.2340    7.1080   -3.4520 C   0  0  0  0  0  0  0  0  0  0  0  0
   -8.7330    6.7120   -3.4640 C   0  0  0  0  0  0  0  0  0  0  0  0
   -9.3100    7.3310   -2.1700 C   0  0  1  0  0  0  0  0  0  0  0  0
   -9.5720    8.8290   -2.5240 C   0  0  0  0  0  0  0  0  0  0  0  0
  -10.5860    6.6440   -1.5850 C   0  0  2  0  0  0  0  0  0  0  0  0
  -11.8240    6.6810   -2.4980 C   0  0  0  0  0  0  0  0  0  0  0  0
  -12.7180    7.8620   -2.3140 C   0  0  0  0  0  0  0  0  0  0  0  0
  -12.6940    8.7040   -1.2640 C   0  0  0  0  0  0  0  0  0  0  0  0
  -11.7640    8.4500   -0.0710 C   0  0  1  0  0  0  0  0  0  0  0  0
  -12.5550    8.6330    1.2510 C   0  0  0  0  0  0  0  0  0  0  0  0
  -13.2530    9.9870    1.3330 C   0  0  0  0  0  0  0  0  0  0  0  0
  -14.2120   10.1780    0.1620 C   0  0  2  0  0  0  0  0  0  0  0  0
  -15.2860    9.2400    0.2870 O   0  0  0  0  0  0  0  0  0  0  0  0
  -13.5290   10.0080   -1.2240 C   0  0  0  0  0  0  0  0  0  0  0  0
  -12.5790   11.2020   -1.4860 C   0  0  0  0  0  0  0  0  0  0  0  0
  -14.6330   10.0850   -2.3130 C   0  0  0  0  0  0  0  0  0  0  0  0
  -10.9440    7.0900   -0.1090 C   0  0  1  0  0  0  0  0  0  0  0  0
  -11.7940    5.9380    0.5100 C   0  0  0  0  0  0  0  0  0  0  0  0
   -9.6650    7.2340    0.7980 C   0  0  0  0  0  0  0  0  0  0  0  0
   -8.4010    7.8090    0.1310 C   0  0  0  0  0  0  0  0  0  0  0  0
   -8.1040    7.0920   -1.1900 C   0  0  2  0  0  0  0  0  0  0  0  0
   -7.8140    5.5870   -0.8630 C   0  0  0  0  0  0  0  0  0  0  0  0
   -5.4946    7.3305    0.5967 H   0  0  0  0  0  0  0  0  0  0  0  0
   -4.1346    8.2115   -0.1785 H   0  0  0  0  0  0  0  0  0  0  0  0
   -5.7831    8.9250   -0.1785 H   0  0  0  0  0  0  0  0  0  0  0  0
   -5.4379    6.2043   -1.3918 H   0  0  0  0  0  0  0  0  0  0  0  0
   -4.6166    8.7157   -2.9122 H   0  0  0  0  0  0  0  0  0  0  0  0
   -3.4934    7.4304   -2.2563 H   0  0  0  0  0  0  0  0  0  0  0  0
   -5.0607    7.4767   -4.7326 H   0  0  0  0  0  0  0  0  0  0  0  0
   -3.6556    6.4479   -4.2277 H   0  0  0  0  0  0  0  0  0  0  0  0
   -5.9110    6.0660   -2.7854 H   0  0  0  0  0  0  0  0  0  0  0  0
   -5.7745    6.4552   -6.3169 H   0  0  0  0  0  0  0  0  0  0  0  0
   -5.4044    4.7688   -6.8128 H   0  0  0  0  0  0  0  0  0  0  0  0
   -7.1031    5.3526   -6.8128 H   0  0  0  0  0  0  0  0  0  0  0  0
   -7.6315    4.0925   -3.4738 H   0  0  0  0  0  0  0  0  0  0  0  0
   -8.3964    4.6670   -4.9942 H   0  0  0  0  0  0  0  0  0  0  0  0
   -7.4193    3.1597   -4.9942 H   0  0  0  0  0  0  0  0  0  0  0  0
   -6.8751    8.7356   -1.9419 H   0  0  0  0  0  0  0  0  0  0  0  0
   -7.0436    7.8923   -4.1994 H   0  0  0  0  0  0  0  0  0  0  0  0
   -6.5963    6.2467   -3.7000 H   0  0  0  0  0  0  0  0  0  0  0  0
   -9.2368    7.1251   -4.3503 H   0  0  0  0  0  0  0  0  0  0  0  0
   -8.8763    5.6222   -3.5051 H   0  0  0  0  0  0  0  0  0  0  0  0
   -9.6740    9.4124   -1.5970 H   0  0  0  0  0  0  0  0  0  0  0  0
   -8.7286    9.2197   -3.1122 H   0  0  0  0  0  0  0  0  0  0  0  0
  -10.4980    8.9102   -3.1122 H   0  0  0  0  0  0  0  0  0  0  0  0
  -10.2824    5.5879   -1.5351 H   0  0  0  0  0  0  0  0  0  0  0  0
  -11.4766    6.6772   -3.5417 H   0  0  0  0  0  0  0  0  0  0  0  0
  -12.4255    5.7999   -2.2301 H   0  0  0  0  0  0  0  0  0  0  0  0
  -13.4586    8.0610   -3.1026 H   0  0  0  0  0  0  0  0  0  0  0  0
  -10.9697    9.2080   -0.1378 H   0  0  0  0  0  0  0  0  0  0  0  0
  -13.3144    7.8402    1.3201 H   0  0  0  0  0  0  0  0  0  0  0  0
  -11.8351    8.5779    2.0809 H   0  0  0  0  0  0  0  0  0  0  0  0
  -13.8188   10.0439    2.2746 H   0  0  0  0  0  0  0  0  0  0  0  0
  -12.4898   10.7783    1.2944 H   0  0  0  0  0  0  0  0  0  0  0  0
  -14.5816   11.2132    0.2047 H   0  0  0  0  0  0  0  0  0  0  0  0
  -15.5510    8.9740   -0.6100 H   0  0  0  0  0  0  0  0  0  0  0  0
  -12.2447   11.6221   -0.5259 H   0  0  0  0  0  0  0  0  0  0  0  0
  -11.7058   10.8569   -2.0591 H   0  0  0  0  0  0  0  0  0  0  0  0
  -13.1115   11.9753   -2.0591 H   0  0  0  0  0  0  0  0  0  0  0  0
  -15.6194   10.1538   -1.8310 H   0  0  0  0  0  0  0  0  0  0  0  0
  -14.4684   10.9738   -2.9398 H   0  0  0  0  0  0  0  0  0  0  0  0
  -14.5934    9.1819   -2.9398 H   0  0  0  0  0  0  0  0  0  0  0  0
  -11.7495    5.9984    1.6074 H   0  0  0  0  0  0  0  0  0  0  0  0
  -12.8387    6.0348    0.1796 H   0  0  0  0  0  0  0  0  0  0  0  0
  -11.3933    4.9683    0.1796 H   0  0  0  0  0  0  0  0  0  0  0  0
   -9.9262    7.8928    1.6393 H   0  0  0  0  0  0  0  0  0  0  0  0
   -9.3974    6.2059    1.0831 H   0  0  0  0  0  0  0  0  0  0  0  0
   -8.5543    8.8801   -0.0674 H   0  0  0  0  0  0  0  0  0  0  0  0
   -7.5481    7.6615    0.8098 H   0  0  0  0  0  0  0  0  0  0  0  0
   -7.7871    5.4474    0.2278 H   0  0  0  0  0  0  0  0  0  0  0  0
   -8.6076    4.9587   -1.2936 H   0  0  0  0  0  0  0  0  0  0  0  0
   -6.8438    5.2986   -1.2936 H   0  0  0  0  0  0  0  0  0  0  0  0
  1  2  1  0
  2  3  1  0
  3  4  1  0
  4  5  1  0
  5  6  1  0
  6  7  1  0
  7  8  1  0
  7  9  1  0
  2 10  1  0
 10 11  1  0
 11 12  1  0
 12 13  1  0
 13 14  1  6
 13 15  1  0
 15 16  1  0
 16 17  1  0
 17 18  2  0
 18 19  1  0
 19 20  1  0
 20 21  1  0
 21 22  1  0
 22 23  1  0
 22 24  1  0
 24 25  1  0
 24 26  1  0
 19 27  1  0
 27 28  1  1
 27 29  1  0
 29 30  1  0
 30 31  1  0
 31 32  1  1
  7  5  1  0
 31 10  1  0
 31 13  1  0
 27 15  1  0
 24 18  1  0
  1 33  1  0
  1 34  1  0
  1 35  1  0
  2 36  1  1
  3 37  1  0
  3 38  1  0
  4 39  1  0
  4 40  1  0
  5 41  1  1
  8 42  1  0
  8 43  1  0
  8 44  1  0
  9 45  1  0
  9 46  1  0
  9 47  1  0
 10 48  1  6
 11 49  1  0
 11 50  1  0
 12 51  1  0
 12 52  1  0
 14 53  1  0
 14 54  1  0
 14 55  1  0
 15 56  1  1
 16 57  1  0
 16 58  1  0
 17 59  1  0
 19 60  1  1
 20 61  1  0
 20 62  1  0
 21 63  1  0
 21 64  1  0
 22 65  1  6
 23 66  1  0
 25 67  1  0
 25 68  1  0
 25 69  1  0
 26 70  1  0
 26 71  1  0
 26 72  1  0
 28 73  1  0
 28 74  1  0
 28 75  1  0
 29 76  1  0
 29 77  1  0
 30 78  1  0
 30 79  1  0
 32 80  1  0
 32 81  1  0
 32 82  1  0
M  END
>  <meeko>  (16) 
{"is_sidechain": [false], "intermolecular_energy": 2.731, "internal_energy": -0.839}

$$$$
EPH_relaxed_0001_pdb2pqr_Repair_204_r2_0001_out
     RDKit          3D

 82 86  0  0  0  0  0  0  0  0999 V2000
   -5.0500    5.4700   -1.4500 C   0  0  0  0  0  0  0  0  0  0  0  0
   -5.2980    6.7350   -0.6240 C   0  0  2  0  0  0  0  0  0  0  0  0
   -6.8020    7.0400   -0.4670 C   0  0  0  0  0  0  0  0  0  0  0  0
   -7.7100    6.0470   -1.1960 C   0  0  0  0  0  0  0  0  0  0  0  0
   -8.8860    6.7300   -1.8260 C   0  0  2  0  0  0  0  0  0  0  0  0
   -8.9820    8.1340   -1.5490 O   0  0  0  0  0  0  0  0  0  0  0  0
  -10.0400    7.3120   -1.0310 C   0  0  0  0  0  0  0  0  0  0  0  0
  -10.0760    7.2350    0.4630 C   0  0  0  0  0  0  0  0  0  0  0  0
  -11.3540    7.5150   -1.7200 C   0  0  0  0  0  0  0  0  0  0  0  0
   -4.5900    7.9220   -1.2660 C   0  0  1  0  0  0  0  0  0  0  0  0
   -5.4880    9.1860   -1.3370 C   0  0  0  0  0  0  0  0  0  0  0  0
   -4.5570   10.4090   -1.1300 C   0  0  0  0  0  0  0  0  0  0  0  0
   -3.1270    9.8390   -1.2780 C   0  0  1  0  0  0  0  0  0  0  0  0
   -2.8850    9.7570   -2.8180 C   0  0  0  0  0  0  0  0  0  0  0  0
   -1.9890   10.6330   -0.5570 C   0  0  2  0  0  0  0  0  0  0  0  0
   -1.7790   12.0720   -1.0580 C   0  0  0  0  0  0  0  0  0  0  0  0
   -0.7950   12.2230   -2.1700 C   0  0  0  0  0  0  0  0  0  0  0  0
    0.1010   11.2940   -2.5540 C   0  0  0  0  0  0  0  0  0  0  0  0
    0.2510    9.9780   -1.7800 C   0  0  1  0  0  0  0  0  0  0  0  0
    1.7560    9.6900   -1.5370 C   0  0  0  0  0  0  0  0  0  0  0  0
    2.5700    9.7040   -2.8270 C   0  0  0  0  0  0  0  0  0  0  0  0
    2.4420   11.0490   -3.5380 C   0  0  2  0  0  0  0  0  0  0  0  0
    3.0660   12.0560   -2.7360 O   0  0  0  0  0  0  0  0  0  0  0  0
    0.9680   11.4510   -3.8270 C   0  0  0  0  0  0  0  0  0  0  0  0
    0.3850   10.5320   -4.9290 C   0  0  0  0  0  0  0  0  0  0  0  0
    0.9720   12.8870   -4.4170 C   0  0  0  0  0  0  0  0  0  0  0  0
   -0.6170    9.8500   -0.4550 C   0  0  1  0  0  0  0  0  0  0  0  0
    0.1580   10.4660    0.7500 C   0  0  0  0  0  0  0  0  0  0  0  0
   -0.8210    8.3260   -0.1200 C   0  0  0  0  0  0  0  0  0  0  0  0
   -2.0320    7.6280   -0.7690 C   0  0  0  0  0  0  0  0  0  0  0  0
   -3.3100    8.4480   -0.5690 C   0  0  2  0  0  0  0  0  0  0  0  0
   -3.5910    8.5290    0.9700 C   0  0  0  0  0  0  0  0  0  0  0  0
   -4.8830    4.6180   -0.7746 H   0  0  0  0  0  0  0  0  0  0  0  0
   -5.9258    5.2688   -2.0844 H   0  0  0  0  0  0  0  0  0  0  0  0
   -4.1631    5.6144   -2.0844 H   0  0  0  0  0  0  0  0  0  0  0  0
   -4.8899    6.5589    0.3822 H   0  0  0  0  0  0  0  0  0  0  0  0
   -7.0512    7.0168    0.6042 H   0  0  0  0  0  0  0  0  0  0  0  0
   -6.9786    8.0279   -0.9174 H   0  0  0  0  0  0  0  0  0  0  0  0
   -7.1282    5.5422   -1.9813 H   0  0  0  0  0  0  0  0  0  0  0  0
   -8.0883    5.3235   -0.4588 H   0  0  0  0  0  0  0  0  0  0  0  0
   -8.8536    6.0446   -2.6858 H   0  0  0  0  0  0  0  0  0  0  0  0
   -9.6463    8.1541    0.8880 H   0  0  0  0  0  0  0  0  0  0  0  0
  -11.1177    7.1275    0.7996 H   0  0  0  0  0  0  0  0  0  0  0  0
   -9.4905    6.3668    0.7996 H   0  0  0  0  0  0  0  0  0  0  0  0
  -12.1473    7.6376   -0.9679 H   0  0  0  0  0  0  0  0  0  0  0  0
  -11.3028    8.4159   -2.3491 H   0  0  0  0  0  0  0  0  0  0  0  0
  -11.5771    6.6407   -2.3491 H   0  0  0  0  0  0  0  0  0  0  0  0
   -4.3339    7.4796   -2.2400 H   0  0  0  0  0  0  0  0  0  0  0  0
   -5.9799    9.2464   -2.3190 H   0  0  0  0  0  0  0  0  0  0  0  0
   -6.2752    9.1547   -0.5693 H   0  0  0  0  0  0  0  0  0  0  0  0
   -4.7498   11.1775   -1.8930 H   0  0  0  0  0  0  0  0  0  0  0  0
   -4.7146   10.8934   -0.1550 H   0  0  0  0  0  0  0  0  0  0  0  0
   -1.8592    9.4094   -3.0100 H   0  0  0  0  0  0  0  0  0  0  0  0
   -3.6009    9.0513   -3.2646 H   0  0  0  0  0  0  0  0  0  0  0  0
   -3.0244   10.7525   -3.2646 H   0  0  0  0  0  0  0  0  0  0  0  0
   -2.3795   10.7277    0.4670 H   0  0  0  0  0  0  0  0  0  0  0  0
   -2.7489   12.4549   -1.4082 H   0  0  0  0  0  0  0  0  0  0  0  0
   -1.3649   12.6329   -0.2072 H   0  0  0  0  0  0  0  0  0  0  0  0
   -0.8023   13.1740   -2.7228 H   0  0  0  0  0  0  0  0  0  0  0  0
   -0.1800    9.1959   -2.4223 H   0  0  0  0  0  0  0  0  0  0  0  0
    2.1569   10.4576   -0.8588 H   0  0  0  0  0  0  0  0  0  0  0  0
    1.8372    8.6830   -1.1019 H   0  0  0  0  0  0  0  0  0  0  0  0
    3.6281    9.5228   -2.5870 H   0  0  0  0  0  0  0  0  0  0  0  0
    2.1865    8.9168   -3.4928 H   0  0  0  0  0  0  0  0  0  0  0  0
    2.9393   10.9543   -4.5146 H   0  0  0  0  0  0  0  0  0  0  0  0
    3.7790   11.6290   -2.2300 H   0  0  0  0  0  0  0  0  0  0  0  0
   -0.1483    9.6913   -4.4611 H   0  0  0  0  0  0  0  0  0  0  0  0
   -0.3138   11.1071   -5.5543 H   0  0  0  0  0  0  0  0  0  0  0  0
    1.2030   10.1449   -5.5543 H   0  0  0  0  0  0  0  0  0  0  0  0
    0.9740   13.6203   -3.5971 H   0  0  0  0  0  0  0  0  0  0  0  0
    1.8705   13.0266   -5.0360 H   0  0  0  0  0  0  0  0  0  0  0  0
    0.0743   13.0316   -5.0360 H   0  0  0  0  0  0  0  0  0  0  0  0
   -0.2871   10.1122    1.6917 H   0  0  0  0  0  0  0  0  0  0  0  0
    1.2127   10.1570    0.7041 H   0  0  0  0  0  0  0  0  0  0  0  0
    0.0950   11.5632    0.7041 H   0  0  0  0  0  0  0  0  0  0  0  0
    0.0840    7.7903   -0.4424 H   0  0  0  0  0  0  0  0  0  0  0  0
   -1.0154    8.2927    0.9622 H   0  0  0  0  0  0  0  0  0  0  0  0
   -1.8447    7.5107   -1.8466 H   0  0  0  0  0  0  0  0  0  0  0  0
   -2.1675    6.6459   -0.2924 H   0  0  0  0  0  0  0  0  0  0  0  0
   -2.6778    8.2658    1.5238 H   0  0  0  0  0  0  0  0  0  0  0  0
   -3.8975    9.5521    1.2334 H   0  0  0  0  0  0  0  0  0  0  0  0
   -4.3950    7.8261    1.2334 H   0  0  0  0  0  0  0  0  0  0  0  0
  1  2  1  0
  2  3  1  0
  3  4  1  0
  4  5  1  0
  5  6  1  0
  6  7  1  0
  7  8  1  0
  7  9  1  0
  2 10  1  0
 10 11  1  0
 11 12  1  0
 12 13  1  0
 13 14  1  6
 13 15  1  0
 15 16  1  0
 16 17  1  0
 17 18  2  0
 18 19  1  0
 19 20  1  0
 20 21  1  0
 21 22  1  0
 22 23  1  0
 22 24  1  0
 24 25  1  0
 24 26  1  0
 19 27  1  0
 27 28  1  1
 27 29  1  0
 29 30  1  0
 30 31  1  0
 31 32  1  1
  7  5  1  0
 31 10  1  0
 31 13  1  0
 27 15  1  0
 24 18  1  0
  1 33  1  0
  1 34  1  0
  1 35  1  0
  2 36  1  1
  3 37  1  0
  3 38  1  0
  4 39  1  0
  4 40  1  0
  5 41  1  6
  8 42  1  0
  8 43  1  0
  8 44  1  0
  9 45  1  0
  9 46  1  0
  9 47  1  0
 10 48  1  6
 11 49  1  0
 11 50  1  0
 12 51  1  0
 12 52  1  0
 14 53  1  0
 14 54  1  0
 14 55  1  0
 15 56  1  1
 16 57  1  0
 16 58  1  0
 17 59  1  0
 19 60  1  6
 20 61  1  0
 20 62  1  0
 21 63  1  0
 21 64  1  0
 22 65  1  6
 23 66  1  0
 25 67  1  0
 25 68  1  0
 25 69  1  0
 26 70  1  0
 26 71  1  0
 26 72  1  0
 28 73  1  0
 28 74  1  0
 28 75  1  0
 29 76  1  0
 29 77  1  0
 30 78  1  0
 30 79  1  0
 32 80  1  0
 32 81  1  0
 32 82  1  0
M  END
>  <meeko>  (17) 
{"is_sidechain": [false], "intermolecular_energy": 2.731, "internal_energy": -0.839}

$$$$
