EPH_relaxed_0001_pdb2pqr_Repair_375_r2_0001_out
     RDKit          3D

 82 86  0  0  0  0  0  0  0  0999 V2000
   -1.6100    8.5920   -1.7670 C   0  0  0  0  0  0  0  0  0  0  0  0
   -1.9740    9.1460   -0.3870 C   0  0  2  0  0  0  0  0  0  0  0  0
   -3.4650    9.5250   -0.2880 C   0  0  0  0  0  0  0  0  0  0  0  0
   -4.4120    8.3240   -0.3640 C   0  0  0  0  0  0  0  0  0  0  0  0
   -4.7460    7.9700   -1.7810 C   0  0  2  0  0  0  0  0  0  0  0  0
   -6.1460    7.9890   -2.0900 O   0  0  0  0  0  0  0  0  0  0  0  0
   -5.4950    6.7100   -2.1750 C   0  0  0  0  0  0  0  0  0  0  0  0
   -5.9560    5.7240   -1.1480 C   0  0  0  0  0  0  0  0  0  0  0  0
   -5.3510    6.1990   -3.5740 C   0  0  0  0  0  0  0  0  0  0  0  0
   -1.1070   10.3580   -0.0670 C   0  0  1  0  0  0  0  0  0  0  0  0
   -0.0240   10.0530    1.0030 C   0  0  0  0  0  0  0  0  0  0  0  0
    1.2250   10.8900    0.6260 C   0  0  0  0  0  0  0  0  0  0  0  0
    0.7190   11.8890   -0.4400 C   0  0  1  0  0  0  0  0  0  0  0  0
    0.0410   13.0350    0.3760 C   0  0  0  0  0  0  0  0  0  0  0  0
    1.7920   12.4440   -1.4320 C   0  0  2  0  0  0  0  0  0  0  0  0
    2.9200   13.2630   -0.7830 C   0  0  0  0  0  0  0  0  0  0  0  0
    2.6660   14.7300   -0.6790 C   0  0  0  0  0  0  0  0  0  0  0  0
    1.7080   15.4060   -1.3410 C   0  0  0  0  0  0  0  0  0  0  0  0
    0.8200   14.7030   -2.3760 C   0  0  1  0  0  0  0  0  0  0  0  0
    0.7300   15.5730   -3.6580 C   0  0  0  0  0  0  0  0  0  0  0  0
    0.2710   16.9980   -3.3660 C   0  0  0  0  0  0  0  0  0  0  0  0
    1.2120   17.6840   -2.3790 C   0  0  2  0  0  0  0  0  0  0  0  0
    2.4860   17.8630   -3.0050 O   0  0  0  0  0  0  0  0  0  0  0  0
    1.3880   16.8930   -1.0520 C   0  0  0  0  0  0  0  0  0  0  0  0
    0.0770   16.9570   -0.2300 C   0  0  0  0  0  0  0  0  0  0  0  0
    2.4680   17.6190   -0.2040 C   0  0  0  0  0  0  0  0  0  0  0  0
    1.1870   13.1890   -2.6900 C   0  0  1  0  0  0  0  0  0  0  0  0
    2.2710   13.1260   -3.8090 C   0  0  0  0  0  0  0  0  0  0  0  0
   -0.0860   12.4600   -3.2630 C   0  0  0  0  0  0  0  0  0  0  0  0
   -1.0460   11.8290   -2.2370 C   0  0  0  0  0  0  0  0  0  0  0  0
   -0.2810   10.9670   -1.2280 C   0  0  2  0  0  0  0  0  0  0  0  0
    0.3930    9.7930   -2.0160 C   0  0  0  0  0  0  0  0  0  0  0  0
   -1.0095    7.6780   -1.6485 H   0  0  0  0  0  0  0  0  0  0  0  0
   -2.5301    8.3568   -2.3220 H   0  0  0  0  0  0  0  0  0  0  0  0
   -1.0289    9.3431   -2.3220 H   0  0  0  0  0  0  0  0  0  0  0  0
   -1.7858    8.3498    0.3483 H   0  0  0  0  0  0  0  0  0  0  0  0
   -3.6301   10.0372    0.6714 H   0  0  0  0  0  0  0  0  0  0  0  0
   -3.6912   10.1678   -1.1515 H   0  0  0  0  0  0  0  0  0  0  0  0
   -3.9300    7.4592    0.1153 H   0  0  0  0  0  0  0  0  0  0  0  0
   -5.3461    8.5909    0.1519 H   0  0  0  0  0  0  0  0  0  0  0  0
   -3.8025    8.4093   -2.1371 H   0  0  0  0  0  0  0  0  0  0  0  0
   -5.7675    6.1272   -0.1421 H   0  0  0  0  0  0  0  0  0  0  0  0
   -7.0333    5.5404   -1.2735 H   0  0  0  0  0  0  0  0  0  0  0  0
   -5.4061    4.7796   -1.2735 H   0  0  0  0  0  0  0  0  0  0  0  0
   -5.0527    5.1405   -3.5488 H   0  0  0  0  0  0  0  0  0  0  0  0
   -6.3117    6.2968   -4.1008 H   0  0  0  0  0  0  0  0  0  0  0  0
   -4.5827    6.7840   -4.1008 H   0  0  0  0  0  0  0  0  0  0  0  0
   -1.8878   11.0643    0.2517 H   0  0  0  0  0  0  0  0  0  0  0  0
   -0.3859   10.3410    2.0011 H   0  0  0  0  0  0  0  0  0  0  0  0
    0.2134    8.9793    1.0299 H   0  0  0  0  0  0  0  0  0  0  0  0
    1.6139   11.4245    1.5052 H   0  0  0  0  0  0  0  0  0  0  0  0
    2.0490   10.2641    0.2528 H   0  0  0  0  0  0  0  0  0  0  0  0
    0.1577   12.8377    1.4518 H   0  0  0  0  0  0  0  0  0  0  0  0
    0.5168   13.9946    0.1255 H   0  0  0  0  0  0  0  0  0  0  0  0
   -1.0291   13.0799    0.1255 H   0  0  0  0  0  0  0  0  0  0  0  0
    2.2675   11.5242   -1.8032 H   0  0  0  0  0  0  0  0  0  0  0  0
    3.0813   12.8734    0.2330 H   0  0  0  0  0  0  0  0  0  0  0  0
    3.7937   13.1521   -1.4421 H   0  0  0  0  0  0  0  0  0  0  0  0
    3.3159   15.3074   -0.0050 H   0  0  0  0  0  0  0  0  0  0  0  0
   -0.1745   14.6156   -1.9142 H   0  0  0  0  0  0  0  0  0  0  0  0
    1.7236   15.6119   -4.1284 H   0  0  0  0  0  0  0  0  0  0  0  0
   -0.0147   15.1117   -4.3233 H   0  0  0  0  0  0  0  0  0  0  0  0
    0.2551   17.5704   -4.3052 H   0  0  0  0  0  0  0  0  0  0  0  0
   -0.7346   16.9584   -2.9220 H   0  0  0  0  0  0  0  0  0  0  0  0
    0.7623   18.6515   -2.1111 H   0  0  0  0  0  0  0  0  0  0  0  0
    2.3290   18.2370   -3.8880 H   0  0  0  0  0  0  0  0  0  0  0  0
    0.3164   16.9453    0.8436 H   0  0  0  0  0  0  0  0  0  0  0  0
   -0.4645   17.8827   -0.4749 H   0  0  0  0  0  0  0  0  0  0  0  0
   -0.5521   16.0885   -0.4749 H   0  0  0  0  0  0  0  0  0  0  0  0
    2.2530   17.4745    0.8651 H   0  0  0  0  0  0  0  0  0  0  0  0
    3.4590   17.2029   -0.4383 H   0  0  0  0  0  0  0  0  0  0  0  0
    2.4568   18.6937   -0.4383 H   0  0  0  0  0  0  0  0  0  0  0  0
    3.2689   13.0680   -3.3499 H   0  0  0  0  0  0  0  0  0  0  0  0
    2.1023   12.2361   -4.4333 H   0  0  0  0  0  0  0  0  0  0  0  0
    2.2065   14.0294   -4.4333 H   0  0  0  0  0  0  0  0  0  0  0  0
   -0.6584   13.1978   -3.8444 H   0  0  0  0  0  0  0  0  0  0  0  0
    0.3055   11.6149   -3.8483 H   0  0  0  0  0  0  0  0  0  0  0  0
   -1.5742   12.6297   -1.6987 H   0  0  0  0  0  0  0  0  0  0  0  0
   -1.7615   11.1888   -2.7738 H   0  0  0  0  0  0  0  0  0  0  0  0
    0.8105    9.0657   -1.3042 H   0  0  0  0  0  0  0  0  0  0  0  0
   -0.3580    9.2972   -2.6486 H   0  0  0  0  0  0  0  0  0  0  0  0
    1.1998   10.1916   -2.6486 H   0  0  0  0  0  0  0  0  0  0  0  0
  1  2  1  0
  2  3  1  0
  3  4  1  0
  4  5  1  0
  5  6  1  0
  6  7  1  0
  7  8  1  0
  7  9  1  0
  2 10  1  0
 10 11  1  0
 11 12  1  0
 12 13  1  0
 13 14  1  1
 13 15  1  0
 15 16  1  0
 16 17  1  0
 17 18  2  0
 18 19  1  0
 19 20  1  0
 20 21  1  0
 21 22  1  0
 22 23  1  0
 22 24  1  0
 24 25  1  0
 24 26  1  0
 19 27  1  0
 27 28  1  6
 27 29  1  0
 29 30  1  0
 30 31  1  0
 31 32  1  6
  7  5  1  0
 31 10  1  0
 31 13  1  0
 27 15  1  0
 24 18  1  0
  1 33  1  0
  1 34  1  0
  1 35  1  0
  2 36  1  1
  3 37  1  0
  3 38  1  0
  4 39  1  0
  4 40  1  0
  5 41  1  6
  8 42  1  0
  8 43  1  0
  8 44  1  0
  9 45  1  0
  9 46  1  0
  9 47  1  0
 10 48  1  1
 11 49  1  0
 11 50  1  0
 12 51  1  0
 12 52  1  0
 14 53  1  0
 14 54  1  0
 14 55  1  0
 15 56  1  6
 16 57  1  0
 16 58  1  0
 17 59  1  0
 19 60  1  1
 20 61  1  0
 20 62  1  0
 21 63  1  0
 21 64  1  0
 22 65  1  1
 23 66  1  0
 25 67  1  0
 25 68  1  0
 25 69  1  0
 26 70  1  0
 26 71  1  0
 26 72  1  0
 28 73  1  0
 28 74  1  0
 28 75  1  0
 29 76  1  0
 29 77  1  0
 30 78  1  0
 30 79  1  0
 32 80  1  0
 32 81  1  0
 32 82  1  0
M  END
>  <meeko>  (1) 
{"is_sidechain": [false], "intermolecular_energy": 2.731, "internal_energy": -0.839}

$$$$
EPH_relaxed_0001_pdb2pqr_Repair_375_r2_0001_out
     RDKit          3D

 82 86  0  0  0  0  0  0  0  0999 V2000
    4.3220   17.3470   -0.5760 C   0  0  0  0  0  0  0  0  0  0  0  0
    2.9600   17.9700   -0.2590 C   0  0  2  0  0  0  0  0  0  0  0  0
    2.9730   18.7490    1.0720 C   0  0  0  0  0  0  0  0  0  0  0  0
    4.3140   18.6880    1.8070 C   0  0  0  0  0  0  0  0  0  0  0  0
    4.2040   19.2140    3.2070 C   0  0  2  0  0  0  0  0  0  0  0  0
    5.1890   20.1940    3.5570 O   0  0  0  0  0  0  0  0  0  0  0  0
    5.2420   18.9550    4.2820 C   0  0  0  0  0  0  0  0  0  0  0  0
    6.4660   18.1400    4.0050 C   0  0  0  0  0  0  0  0  0  0  0  0
    4.8320   19.0770    5.7170 C   0  0  0  0  0  0  0  0  0  0  0  0
    1.8890   16.8860   -0.2170 C   0  0  1  0  0  0  0  0  0  0  0  0
    0.4640   17.4440   -0.4720 C   0  0  0  0  0  0  0  0  0  0  0  0
   -0.3100   16.3530   -1.2560 C   0  0  0  0  0  0  0  0  0  0  0  0
    0.5720   15.0880   -1.1380 C   0  0  1  0  0  0  0  0  0  0  0  0
    0.2360   14.4950    0.2660 C   0  0  0  0  0  0  0  0  0  0  0  0
    0.4060   14.0220   -2.2690 C   0  0  2  0  0  0  0  0  0  0  0  0
   -0.9930   13.3900   -2.3700 C   0  0  0  0  0  0  0  0  0  0  0  0
   -1.1920   12.1510   -1.5610 C   0  0  0  0  0  0  0  0  0  0  0  0
   -0.2120   11.4100   -1.0100 C   0  0  0  0  0  0  0  0  0  0  0  0
    1.2640   11.7440   -1.2620 C   0  0  1  0  0  0  0  0  0  0  0  0
    2.0350   10.4460   -1.6170 C   0  0  0  0  0  0  0  0  0  0  0  0
    1.8550    9.3530   -0.5690 C   0  0  0  0  0  0  0  0  0  0  0  0
    0.3790    9.0080   -0.3880 C   0  0  2  0  0  0  0  0  0  0  0  0
   -0.1030    8.4000   -1.5910 O   0  0  0  0  0  0  0  0  0  0  0  0
   -0.5000   10.2400   -0.0370 C   0  0  0  0  0  0  0  0  0  0  0  0
   -0.1800   10.7150    1.4020 C   0  0  0  0  0  0  0  0  0  0  0  0
   -1.9830    9.7810   -0.0230 C   0  0  0  0  0  0  0  0  0  0  0  0
    1.5420   12.9210   -2.2940 C   0  0  1  0  0  0  0  0  0  0  0  0
    1.5840   12.3560   -3.7460 C   0  0  0  0  0  0  0  0  0  0  0  0
    2.9680   13.5250   -2.0110 C   0  0  0  0  0  0  0  0  0  0  0  0
    3.0490   14.6580   -0.9690 C   0  0  0  0  0  0  0  0  0  0  0  0
    1.9990   15.7370   -1.2500 C   0  0  2  0  0  0  0  0  0  0  0  0
    2.3250   16.3680   -2.6470 C   0  0  0  0  0  0  0  0  0  0  0  0
    4.8435   17.1085    0.3627 H   0  0  0  0  0  0  0  0  0  0  0  0
    4.1770   16.4257   -1.1592 H   0  0  0  0  0  0  0  0  0  0  0  0
    4.9242   18.0592   -1.1592 H   0  0  0  0  0  0  0  0  0  0  0  0
    2.7309   18.6883   -1.0600 H   0  0  0  0  0  0  0  0  0  0  0  0
    2.7408   19.8031    0.8598 H   0  0  0  0  0  0  0  0  0  0  0  0
    2.2253   18.2785    1.7274 H   0  0  0  0  0  0  0  0  0  0  0  0
    4.6525   17.6420    1.8448 H   0  0  0  0  0  0  0  0  0  0  0  0
    5.0332   19.3158    1.2605 H   0  0  0  0  0  0  0  0  0  0  0  0
    3.1110   19.0912    3.1923 H   0  0  0  0  0  0  0  0  0  0  0  0
    6.9257   17.8339    4.9563 H   0  0  0  0  0  0  0  0  0  0  0  0
    6.1882   17.2459    3.4275 H   0  0  0  0  0  0  0  0  0  0  0  0
    7.1838   18.7411    3.4275 H   0  0  0  0  0  0  0  0  0  0  0  0
    5.6842   18.8234    6.3647 H   0  0  0  0  0  0  0  0  0  0  0  0
    4.5115   20.1094    5.9203 H   0  0  0  0  0  0  0  0  0  0  0  0
    3.9992   18.3878    5.9203 H   0  0  0  0  0  0  0  0  0  0  0  0
    2.0602   16.4973    0.7977 H   0  0  0  0  0  0  0  0  0  0  0  0
   -0.0383   17.6514    0.4844 H   0  0  0  0  0  0  0  0  0  0  0  0
    0.5042   18.3850   -1.0402 H   0  0  0  0  0  0  0  0  0  0  0  0
   -1.2991   16.1800   -0.8068 H   0  0  0  0  0  0  0  0  0  0  0  0
   -0.4900   16.6399   -2.3026 H   0  0  0  0  0  0  0  0  0  0  0  0
    0.6170   15.1674    1.0488 H   0  0  0  0  0  0  0  0  0  0  0  0
   -0.8543   14.3926    0.3694 H   0  0  0  0  0  0  0  0  0  0  0  0
    0.7085   13.5071    0.3694 H   0  0  0  0  0  0  0  0  0  0  0  0
    0.5269   14.6251   -3.1809 H   0  0  0  0  0  0  0  0  0  0  0  0
   -1.7284   14.1365   -2.0353 H   0  0  0  0  0  0  0  0  0  0  0  0
   -1.1170   13.0907   -3.4212 H   0  0  0  0  0  0  0  0  0  0  0  0
   -2.2272   11.8149   -1.4015 H   0  0  0  0  0  0  0  0  0  0  0  0
    1.6475   12.1595   -0.3185 H   0  0  0  0  0  0  0  0  0  0  0  0
    1.6679   10.0712   -2.5838 H   0  0  0  0  0  0  0  0  0  0  0  0
    3.1057   10.6948   -1.6590 H   0  0  0  0  0  0  0  0  0  0  0  0
    2.3982    8.4524   -0.8912 H   0  0  0  0  0  0  0  0  0  0  0  0
    2.2503    9.7182    0.3904 H   0  0  0  0  0  0  0  0  0  0  0  0
    0.3041    8.3169    0.4645 H   0  0  0  0  0  0  0  0  0  0  0  0
   -1.0560    8.2420   -1.4800 H   0  0  0  0  0  0  0  0  0  0  0  0
   -0.6426   10.0283    2.1262 H   0  0  0  0  0  0  0  0  0  0  0  0
    0.9098   10.7252    1.5509 H   0  0  0  0  0  0  0  0  0  0  0  0
   -0.5799   11.7288    1.5509 H   0  0  0  0  0  0  0  0  0  0  0  0
   -2.3243    9.6754    1.0174 H   0  0  0  0  0  0  0  0  0  0  0  0
   -2.6033   10.5292   -0.5382 H   0  0  0  0  0  0  0  0  0  0  0  0
   -2.0722    8.8132   -0.5382 H   0  0  0  0  0  0  0  0  0  0  0  0
    1.6655   11.2596   -3.7106 H   0  0  0  0  0  0  0  0  0  0  0  0
    0.6624   12.6382   -4.2761 H   0  0  0  0  0  0  0  0  0  0  0  0
    2.4537   12.7714   -4.2761 H   0  0  0  0  0  0  0  0  0  0  0  0
    3.6132   12.7053   -1.6620 H   0  0  0  0  0  0  0  0  0  0  0  0
    3.2793   13.9847   -2.9606 H   0  0  0  0  0  0  0  0  0  0  0  0
    2.8749   14.2386    0.0329 H   0  0  0  0  0  0  0  0  0  0  0  0
    4.0472   15.1165   -1.0262 H   0  0  0  0  0  0  0  0  0  0  0  0
    2.8256   17.3370   -2.5038 H   0  0  0  0  0  0  0  0  0  0  0  0
    2.9870   15.6927   -3.2089 H   0  0  0  0  0  0  0  0  0  0  0  0
    1.3912   16.5172   -3.2089 H   0  0  0  0  0  0  0  0  0  0  0  0
  1  2  1  0
  2  3  1  0
  3  4  1  0
  4  5  1  0
  5  6  1  0
  6  7  1  0
  7  8  1  0
  7  9  1  0
  2 10  1  0
 10 11  1  0
 11 12  1  0
 12 13  1  0
 13 14  1  1
 13 15  1  0
 15 16  1  0
 16 17  1  0
 17 18  2  0
 18 19  1  0
 19 20  1  0
 20 21  1  0
 21 22  1  0
 22 23  1  0
 22 24  1  0
 24 25  1  0
 24 26  1  0
 19 27  1  0
 27 28  1  6
 27 29  1  0
 29 30  1  0
 30 31  1  0
 31 32  1  6
  7  5  1  0
 31 10  1  0
 31 13  1  0
 27 15  1  0
 24 18  1  0
  1 33  1  0
  1 34  1  0
  1 35  1  0
  2 36  1  6
  3 37  1  0
  3 38  1  0
  4 39  1  0
  4 40  1  0
  5 41  1  1
  8 42  1  0
  8 43  1  0
  8 44  1  0
  9 45  1  0
  9 46  1  0
  9 47  1  0
 10 48  1  1
 11 49  1  0
 11 50  1  0
 12 51  1  0
 12 52  1  0
 14 53  1  0
 14 54  1  0
 14 55  1  0
 15 56  1  6
 16 57  1  0
 16 58  1  0
 17 59  1  0
 19 60  1  1
 20 61  1  0
 20 62  1  0
 21 63  1  0
 21 64  1  0
 22 65  1  1
 23 66  1  0
 25 67  1  0
 25 68  1  0
 25 69  1  0
 26 70  1  0
 26 71  1  0
 26 72  1  0
 28 73  1  0
 28 74  1  0
 28 75  1  0
 29 76  1  0
 29 77  1  0
 30 78  1  0
 30 79  1  0
 32 80  1  0
 32 81  1  0
 32 82  1  0
M  END
>  <meeko>  (2) 
{"is_sidechain": [false], "intermolecular_energy": 2.731, "internal_energy": -0.839}

$$$$
EPH_relaxed_0001_pdb2pqr_Repair_375_r2_0001_out
     RDKit          3D

 82 86  0  0  0  0  0  0  0  0999 V2000
    2.3580   18.0690   -2.6950 C   0  0  0  0  0  0  0  0  0  0  0  0
    1.0540   17.6960   -1.9840 C   0  0  2  0  0  0  0  0  0  0  0  0
    1.1910   17.7610   -0.4490 C   0  0  0  0  0  0  0  0  0  0  0  0
    0.8400   19.1290    0.1430 C   0  0  0  0  0  0  0  0  0  0  0  0
   -0.6040   19.2090    0.5350 C   0  0  2  0  0  0  0  0  0  0  0  0
   -1.4620   18.2850   -0.1480 O   0  0  0  0  0  0  0  0  0  0  0  0
   -1.7010   19.6790   -0.4030 C   0  0  0  0  0  0  0  0  0  0  0  0
   -1.3990   20.1010   -1.8060 C   0  0  0  0  0  0  0  0  0  0  0  0
   -2.9770   20.1900    0.1890 C   0  0  0  0  0  0  0  0  0  0  0  0
    0.6110   16.3010   -2.4080 C   0  0  1  0  0  0  0  0  0  0  0  0
    0.7260   16.0780   -3.9400 C   0  0  0  0  0  0  0  0  0  0  0  0
    1.1290   14.5950   -4.1470 C   0  0  0  0  0  0  0  0  0  0  0  0
    0.9100   13.9350   -2.7660 C   0  0  1  0  0  0  0  0  0  0  0  0
   -0.6210   13.6400   -2.7010 C   0  0  0  0  0  0  0  0  0  0  0  0
    1.7570   12.6540   -2.4700 C   0  0  2  0  0  0  0  0  0  0  0  0
    1.4870   11.4630   -3.4050 C   0  0  0  0  0  0  0  0  0  0  0  0
    0.4210   10.5220   -2.9480 C   0  0  0  0  0  0  0  0  0  0  0  0
   -0.0920   10.4660   -1.7050 C   0  0  0  0  0  0  0  0  0  0  0  0
    0.4710   11.3440   -0.5800 C   0  0  1  0  0  0  0  0  0  0  0  0
    0.6820   10.4830    0.6930 C   0  0  0  0  0  0  0  0  0  0  0  0
   -0.5810    9.7380    1.1110 C   0  0  0  0  0  0  0  0  0  0  0  0
   -1.0770    8.8310   -0.0120 C   0  0  2  0  0  0  0  0  0  0  0  0
   -0.1230    7.7850   -0.2150 O   0  0  0  0  0  0  0  0  0  0  0  0
   -1.3160    9.5870   -1.3490 C   0  0  0  0  0  0  0  0  0  0  0  0
   -2.5530   10.5100   -1.2120 C   0  0  0  0  0  0  0  0  0  0  0  0
   -1.6770    8.5370   -2.4340 C   0  0  0  0  0  0  0  0  0  0  0  0
    1.7510   12.2100   -0.9510 C   0  0  1  0  0  0  0  0  0  0  0  0
    3.0450   11.3680   -0.7290 C   0  0  0  0  0  0  0  0  0  0  0  0
    1.8450   13.4370    0.0310 C   0  0  0  0  0  0  0  0  0  0  0  0
    1.0830   14.7130   -0.3760 C   0  0  0  0  0  0  0  0  0  0  0  0
    1.3940   15.0980   -1.8250 C   0  0  2  0  0  0  0  0  0  0  0  0
    2.9240   15.4210   -1.9170 C   0  0  0  0  0  0  0  0  0  0  0  0
    3.1332   18.2907   -1.9467 H   0  0  0  0  0  0  0  0  0  0  0  0
    2.6858   17.2286   -3.3245 H   0  0  0  0  0  0  0  0  0  0  0  0
    2.1918   18.9556   -3.3245 H   0  0  0  0  0  0  0  0  0  0  0  0
    0.2933   18.4334   -2.2798 H   0  0  0  0  0  0  0  0  0  0  0  0
    0.5197   17.0093   -0.0083 H   0  0  0  0  0  0  0  0  0  0  0  0
    2.2481   17.5699   -0.2122 H   0  0  0  0  0  0  0  0  0  0  0  0
    1.4614   19.3020    1.0340 H   0  0  0  0  0  0  0  0  0  0  0  0
    1.0300   19.8938   -0.6244 H   0  0  0  0  0  0  0  0  0  0  0  0
   -0.3338   19.5024    1.5601 H   0  0  0  0  0  0  0  0  0  0  0  0
   -0.7589   20.9954   -1.7901 H   0  0  0  0  0  0  0  0  0  0  0  0
   -0.8776   19.2862   -2.3298 H   0  0  0  0  0  0  0  0  0  0  0  0
   -2.3384   20.3316   -2.3298 H   0  0  0  0  0  0  0  0  0  0  0  0
   -2.9088   20.1627    1.2865 H   0  0  0  0  0  0  0  0  0  0  0  0
   -3.1461   21.2252   -0.1422 H   0  0  0  0  0  0  0  0  0  0  0  0
   -3.8139   19.5577   -0.1422 H   0  0  0  0  0  0  0  0  0  0  0  0
   -0.4166   16.3065   -2.0156 H   0  0  0  0  0  0  0  0  0  0  0  0
   -0.2402   16.2793   -4.4257 H   0  0  0  0  0  0  0  0  0  0  0  0
    1.4710   16.7553   -4.3830 H   0  0  0  0  0  0  0  0  0  0  0  0
    0.4918   14.1221   -4.9088 H   0  0  0  0  0  0  0  0  0  0  0  0
    2.1655   14.4897   -4.5000 H   0  0  0  0  0  0  0  0  0  0  0  0
   -0.9383   13.5789   -1.6495 H   0  0  0  0  0  0  0  0  0  0  0  0
   -1.1719   14.4485   -3.2038 H   0  0  0  0  0  0  0  0  0  0  0  0
   -0.8320   12.6847   -3.2038 H   0  0  0  0  0  0  0  0  0  0  0  0
    2.7792   12.9884   -2.7006 H   0  0  0  0  0  0  0  0  0  0  0  0
    1.1905   11.8617   -4.3864 H   0  0  0  0  0  0  0  0  0  0  0  0
    2.4185   10.8785   -3.4301 H   0  0  0  0  0  0  0  0  0  0  0  0
    0.0214    9.8150   -3.6900 H   0  0  0  0  0  0  0  0  0  0  0  0
   -0.2893   12.1150   -0.3866 H   0  0  0  0  0  0  0  0  0  0  0  0
    1.4755    9.7477    0.4938 H   0  0  0  0  0  0  0  0  0  0  0  0
    0.9561   11.1621    1.5138 H   0  0  0  0  0  0  0  0  0  0  0  0
   -0.3606    9.1253    1.9976 H   0  0  0  0  0  0  0  0  0  0  0  0
   -1.3646   10.4758    1.3380 H   0  0  0  0  0  0  0  0  0  0  0  0
   -2.0514    8.4251    0.2976 H   0  0  0  0  0  0  0  0  0  0  0  0
    0.2940    7.5960    0.6430 H   0  0  0  0  0  0  0  0  0  0  0  0
   -2.7722   10.6736   -0.1466 H   0  0  0  0  0  0  0  0  0  0  0  0
   -2.3454   11.4757   -1.6961 H   0  0  0  0  0  0  0  0  0  0  0  0
   -3.4196   10.0360   -1.6961 H   0  0  0  0  0  0  0  0  0  0  0  0
   -1.9979    7.6036   -1.9485 H   0  0  0  0  0  0  0  0  0  0  0  0
   -2.4938    8.9237   -3.0611 H   0  0  0  0  0  0  0  0  0  0  0  0
   -0.7951    8.3397   -3.0611 H   0  0  0  0  0  0  0  0  0  0  0  0
    3.2255   11.2506    0.3497 H   0  0  0  0  0  0  0  0  0  0  0  0
    2.9212   10.3770   -1.1901 H   0  0  0  0  0  0  0  0  0  0  0  0
    3.9009   11.8826   -1.1901 H   0  0  0  0  0  0  0  0  0  0  0  0
    1.4540   13.1129    1.0068 H   0  0  0  0  0  0  0  0  0  0  0  0
    2.9069   13.7240    0.0319 H   0  0  0  0  0  0  0  0  0  0  0  0
    0.0023   14.5344   -0.2751 H   0  0  0  0  0  0  0  0  0  0  0  0
    1.4002   15.5359    0.2815 H   0  0  0  0  0  0  0  0  0  0  0  0
    3.3417   15.5092   -0.9032 H   0  0  0  0  0  0  0  0  0  0  0  0
    3.4379   14.6115   -2.4562 H   0  0  0  0  0  0  0  0  0  0  0  0
    3.0668   16.3691   -2.4562 H   0  0  0  0  0  0  0  0  0  0  0  0
  1  2  1  0
  2  3  1  0
  3  4  1  0
  4  5  1  0
  5  6  1  0
  6  7  1  0
  7  8  1  0
  7  9  1  0
  2 10  1  0
 10 11  1  0
 11 12  1  0
 12 13  1  0
 13 14  1  1
 13 15  1  0
 15 16  1  0
 16 17  1  0
 17 18  2  0
 18 19  1  0
 19 20  1  0
 20 21  1  0
 21 22  1  0
 22 23  1  0
 22 24  1  0
 24 25  1  0
 24 26  1  0
 19 27  1  0
 27 28  1  6
 27 29  1  0
 29 30  1  0
 30 31  1  0
 31 32  1  1
  7  5  1  0
 31 10  1  0
 31 13  1  0
 27 15  1  0
 24 18  1  0
  1 33  1  0
  1 34  1  0
  1 35  1  0
  2 36  1  6
  3 37  1  0
  3 38  1  0
  4 39  1  0
  4 40  1  0
  5 41  1  1
  8 42  1  0
  8 43  1  0
  8 44  1  0
  9 45  1  0
  9 46  1  0
  9 47  1  0
 10 48  1  1
 11 49  1  0
 11 50  1  0
 12 51  1  0
 12 52  1  0
 14 53  1  0
 14 54  1  0
 14 55  1  0
 15 56  1  6
 16 57  1  0
 16 58  1  0
 17 59  1  0
 19 60  1  1
 20 61  1  0
 20 62  1  0
 21 63  1  0
 21 64  1  0
 22 65  1  1
 23 66  1  0
 25 67  1  0
 25 68  1  0
 25 69  1  0
 26 70  1  0
 26 71  1  0
 26 72  1  0
 28 73  1  0
 28 74  1  0
 28 75  1  0
 29 76  1  0
 29 77  1  0
 30 78  1  0
 30 79  1  0
 32 80  1  0
 32 81  1  0
 32 82  1  0
M  END
>  <meeko>  (3) 
{"is_sidechain": [false], "intermolecular_energy": 2.731, "internal_energy": -0.839}

$$$$
EPH_relaxed_0001_pdb2pqr_Repair_375_r2_0001_out
     RDKit          3D

 82 86  0  0  0  0  0  0  0  0999 V2000
    0.4010   18.4110   -0.0420 C   0  0  0  0  0  0  0  0  0  0  0  0
    1.4900   17.3570   -0.2630 C   0  0  2  0  0  0  0  0  0  0  0  0
    2.6980   17.9230   -1.0350 C   0  0  0  0  0  0  0  0  0  0  0  0
    3.9300   18.1640   -0.1590 C   0  0  0  0  0  0  0  0  0  0  0  0
    3.5520   18.6360    1.2120 C   0  0  2  0  0  0  0  0  0  0  0  0
    3.8050   20.0260    1.4570 O   0  0  0  0  0  0  0  0  0  0  0  0
    4.5620   19.0940    2.2470 C   0  0  0  0  0  0  0  0  0  0  0  0
    6.0300   19.1010    1.9550 C   0  0  0  0  0  0  0  0  0  0  0  0
    4.1690   19.0690    3.6910 C   0  0  0  0  0  0  0  0  0  0  0  0
    0.9100   16.1600   -1.0070 C   0  0  1  0  0  0  0  0  0  0  0  0
    0.7740   16.4130   -2.5320 C   0  0  0  0  0  0  0  0  0  0  0  0
    1.0580   15.0610   -3.2370 C   0  0  0  0  0  0  0  0  0  0  0  0
    1.0190   14.0130   -2.1000 C   0  0  1  0  0  0  0  0  0  0  0  0
   -0.4970   13.7210   -1.8750 C   0  0  0  0  0  0  0  0  0  0  0  0
    1.8300   12.6990   -2.3450 C   0  0  2  0  0  0  0  0  0  0  0  0
    1.3530   11.8500   -3.5360 C   0  0  0  0  0  0  0  0  0  0  0  0
    0.3220   10.8200   -3.2120 C   0  0  0  0  0  0  0  0  0  0  0  0
    0.0050   10.3910   -1.9770 C   0  0  0  0  0  0  0  0  0  0  0  0
    0.7830   10.8830   -0.7490 C   0  0  1  0  0  0  0  0  0  0  0  0
    1.1410    9.6740    0.1550 C   0  0  0  0  0  0  0  0  0  0  0  0
   -0.0810    8.8440    0.5330 C   0  0  0  0  0  0  0  0  0  0  0  0
   -0.7940    8.3240   -0.7130 C   0  0  2  0  0  0  0  0  0  0  0  0
    0.0580    7.3840   -1.3740 O   0  0  0  0  0  0  0  0  0  0  0  0
   -1.1960    9.4520   -1.7040 C   0  0  0  0  0  0  0  0  0  0  0  0
   -2.3440   10.2960   -1.0950 C   0  0  0  0  0  0  0  0  0  0  0  0
   -1.7770    8.7830   -2.9780 C   0  0  0  0  0  0  0  0  0  0  0  0
    2.0360   11.8140   -1.0490 C   0  0  1  0  0  0  0  0  0  0  0  0
    3.3000   10.9370   -1.3040 C   0  0  0  0  0  0  0  0  0  0  0  0
    2.3480   12.6830    0.2260 C   0  0  0  0  0  0  0  0  0  0  0  0
    1.6040   14.0260    0.3510 C   0  0  0  0  0  0  0  0  0  0  0  0
    1.7070   14.8320   -0.9480 C   0  0  2  0  0  0  0  0  0  0  0  0
    3.2200   15.1600   -1.1880 C   0  0  0  0  0  0  0  0  0  0  0  0
    0.2478   18.5593    1.0371 H   0  0  0  0  0  0  0  0  0  0  0  0
    0.7111   19.3607   -0.5022 H   0  0  0  0  0  0  0  0  0  0  0  0
   -0.5381   18.0700   -0.5022 H   0  0  0  0  0  0  0  0  0  0  0  0
    1.8507   17.0406    0.7268 H   0  0  0  0  0  0  0  0  0  0  0  0
    2.9692   17.2095   -1.8270 H   0  0  0  0  0  0  0  0  0  0  0  0
    2.3932   18.9005   -1.4371 H   0  0  0  0  0  0  0  0  0  0  0  0
    4.4931   17.2233   -0.0694 H   0  0  0  0  0  0  0  0  0  0  0  0
    4.5408   18.9457   -0.6343 H   0  0  0  0  0  0  0  0  0  0  0  0
    2.7244   17.9129    1.2587 H   0  0  0  0  0  0  0  0  0  0  0  0
    6.5919   19.1037    2.9006 H   0  0  0  0  0  0  0  0  0  0  0  0
    6.2927   18.2041    1.3749 H   0  0  0  0  0  0  0  0  0  0  0  0
    6.2842   20.0004    1.3749 H   0  0  0  0  0  0  0  0  0  0  0  0
    5.0713   19.1264    4.3176 H   0  0  0  0  0  0  0  0  0  0  0  0
    3.5164   19.9274    3.9083 H   0  0  0  0  0  0  0  0  0  0  0  0
    3.6305   18.1348    3.9083 H   0  0  0  0  0  0  0  0  0  0  0  0
   -0.0428   16.0518   -0.4681 H   0  0  0  0  0  0  0  0  0  0  0  0
   -0.2432   16.7577   -2.7695 H   0  0  0  0  0  0  0  0  0  0  0  0
    1.4776   17.1890   -2.8679 H   0  0  0  0  0  0  0  0  0  0  0  0
    0.2857   14.8459   -3.9902 H   0  0  0  0  0  0  0  0  0  0  0  0
    2.0200   15.0624   -3.7705 H   0  0  0  0  0  0  0  0  0  0  0  0
   -0.7064   13.6807   -0.7959 H   0  0  0  0  0  0  0  0  0  0  0  0
   -1.0966   14.5202   -2.3352 H   0  0  0  0  0  0  0  0  0  0  0  0
   -0.7568   12.7563   -2.3352 H   0  0  0  0  0  0  0  0  0  0  0  0
    2.8206   13.0826   -2.6305 H   0  0  0  0  0  0  0  0  0  0  0  0
    0.9293   12.5297   -4.2900 H   0  0  0  0  0  0  0  0  0  0  0  0
    2.2359   11.2967   -3.8885 H   0  0  0  0  0  0  0  0  0  0  0  0
   -0.2253   10.3736   -4.0553 H   0  0  0  0  0  0  0  0  0  0  0  0
    0.1057   11.5631   -0.2117 H   0  0  0  0  0  0  0  0  0  0  0  0
    1.8520    9.0298   -0.3830 H   0  0  0  0  0  0  0  0  0  0  0  0
    1.5762   10.0696    1.0845 H   0  0  0  0  0  0  0  0  0  0  0  0
    0.2400    7.9896    1.1470 H   0  0  0  0  0  0  0  0  0  0  0  0
   -0.7782    9.4819    1.0961 H   0  0  0  0  0  0  0  0  0  0  0  0
   -1.7292    7.8480   -0.3831 H   0  0  0  0  0  0  0  0  0  0  0  0
    0.2450    7.7310   -2.2630 H   0  0  0  0  0  0  0  0  0  0  0  0
   -2.2873   10.2543    0.0027 H   0  0  0  0  0  0  0  0  0  0  0  0
   -2.2478   11.3401   -1.4277 H   0  0  0  0  0  0  0  0  0  0  0  0
   -3.3119    9.8928   -1.4277 H   0  0  0  0  0  0  0  0  0  0  0  0
   -2.4726    7.9821   -2.6869 H   0  0  0  0  0  0  0  0  0  0  0  0
   -2.3133    9.5353   -3.5751 H   0  0  0  0  0  0  0  0  0  0  0  0
   -0.9570    8.3574   -3.5751 H   0  0  0  0  0  0  0  0  0  0  0  0
    3.7365   10.6341   -0.3408 H   0  0  0  0  0  0  0  0  0  0  0  0
    3.0155   10.0412   -1.8755 H   0  0  0  0  0  0  0  0  0  0  0  0
    4.0395   11.5171   -1.8755 H   0  0  0  0  0  0  0  0  0  0  0  0
    2.0953   12.0792    1.1101 H   0  0  0  0  0  0  0  0  0  0  0  0
    3.4114   12.9504    0.1385 H   0  0  0  0  0  0  0  0  0  0  0  0
    0.5439   13.8312    0.5707 H   0  0  0  0  0  0  0  0  0  0  0  0
    2.0644   14.6082    1.1629 H   0  0  0  0  0  0  0  0  0  0  0  0
    3.7294   15.2704   -0.2193 H   0  0  0  0  0  0  0  0  0  0  0  0
    3.6868   14.3422   -1.7566 H   0  0  0  0  0  0  0  0  0  0  0  0
    3.3062   16.0977   -1.7566 H   0  0  0  0  0  0  0  0  0  0  0  0
  1  2  1  0
  2  3  1  0
  3  4  1  0
  4  5  1  0
  5  6  1  0
  6  7  1  0
  7  8  1  0
  7  9  1  0
  2 10  1  0
 10 11  1  0
 11 12  1  0
 12 13  1  0
 13 14  1  1
 13 15  1  0
 15 16  1  0
 16 17  1  0
 17 18  2  0
 18 19  1  0
 19 20  1  0
 20 21  1  0
 21 22  1  0
 22 23  1  0
 22 24  1  0
 24 25  1  0
 24 26  1  0
 19 27  1  0
 27 28  1  6
 27 29  1  0
 29 30  1  0
 30 31  1  0
 31 32  1  6
  7  5  1  0
 31 10  1  0
 31 13  1  0
 27 15  1  0
 24 18  1  0
  1 33  1  0
  1 34  1  0
  1 35  1  0
  2 36  1  1
  3 37  1  0
  3 38  1  0
  4 39  1  0
  4 40  1  0
  5 41  1  1
  8 42  1  0
  8 43  1  0
  8 44  1  0
  9 45  1  0
  9 46  1  0
  9 47  1  0
 10 48  1  1
 11 49  1  0
 11 50  1  0
 12 51  1  0
 12 52  1  0
 14 53  1  0
 14 54  1  0
 14 55  1  0
 15 56  1  6
 16 57  1  0
 16 58  1  0
 17 59  1  0
 19 60  1  1
 20 61  1  0
 20 62  1  0
 21 63  1  0
 21 64  1  0
 22 65  1  1
 23 66  1  0
 25 67  1  0
 25 68  1  0
 25 69  1  0
 26 70  1  0
 26 71  1  0
 26 72  1  0
 28 73  1  0
 28 74  1  0
 28 75  1  0
 29 76  1  0
 29 77  1  0
 30 78  1  0
 30 79  1  0
 32 80  1  0
 32 81  1  0
 32 82  1  0
M  END
>  <meeko>  (4) 
{"is_sidechain": [false], "intermolecular_energy": 2.731, "internal_energy": -0.839}

$$$$
EPH_relaxed_0001_pdb2pqr_Repair_375_r2_0001_out
     RDKit          3D

 82 86  0  0  0  0  0  0  0  0999 V2000
    2.1570   18.0350   -2.5780 C   0  0  0  0  0  0  0  0  0  0  0  0
    0.6350   17.8810   -2.6330 C   0  0  2  0  0  0  0  0  0  0  0  0
   -0.0440   18.3470   -1.3290 C   0  0  0  0  0  0  0  0  0  0  0  0
    0.7160   17.9430   -0.0620 C   0  0  0  0  0  0  0  0  0  0  0  0
    1.3000   19.1330    0.6370 C   0  0  2  0  0  0  0  0  0  0  0  0
    2.2230   19.8970   -0.1510 O   0  0  0  0  0  0  0  0  0  0  0  0
    2.7660   19.2480    1.0100 C   0  0  0  0  0  0  0  0  0  0  0  0
    3.7390   18.1540    0.6970 C   0  0  0  0  0  0  0  0  0  0  0  0
    3.1540   20.1940    2.1030 C   0  0  0  0  0  0  0  0  0  0  0  0
    0.2690   16.4290   -2.9200 C   0  0  1  0  0  0  0  0  0  0  0  0
    0.3270   16.0870   -4.4330 C   0  0  0  0  0  0  0  0  0  0  0  0
    0.8210   14.6210   -4.5410 C   0  0  0  0  0  0  0  0  0  0  0  0
    0.7140   14.0660   -3.1020 C   0  0  1  0  0  0  0  0  0  0  0  0
   -0.7890   13.6790   -2.9320 C   0  0  0  0  0  0  0  0  0  0  0  0
    1.6600   12.8730   -2.7490 C   0  0  2  0  0  0  0  0  0  0  0  0
    1.4290   11.5920   -3.5690 C   0  0  0  0  0  0  0  0  0  0  0  0
    0.4540   10.6260   -2.9830 C   0  0  0  0  0  0  0  0  0  0  0  0
    0.0050   10.6410   -1.7140 C   0  0  0  0  0  0  0  0  0  0  0  0
    0.5580   11.6450   -0.6950 C   0  0  1  0  0  0  0  0  0  0  0  0
    0.8880   10.9090    0.6310 C   0  0  0  0  0  0  0  0  0  0  0  0
   -0.3000   10.1210    1.1740 C   0  0  0  0  0  0  0  0  0  0  0  0
   -0.7850    9.0930    0.1540 C   0  0  2  0  0  0  0  0  0  0  0  0
    0.2290    8.0980   -0.0140 O   0  0  0  0  0  0  0  0  0  0  0  0
   -1.1380    9.7170   -1.2240 C   0  0  0  0  0  0  0  0  0  0  0  0
   -2.4280   10.5660   -1.0970 C   0  0  0  0  0  0  0  0  0  0  0  0
   -1.4760    8.5580   -2.2010 C   0  0  0  0  0  0  0  0  0  0  0  0
    1.7570   12.5580   -1.2010 C   0  0  1  0  0  0  0  0  0  0  0  0
    3.1140   11.8240   -0.9800 C   0  0  0  0  0  0  0  0  0  0  0  0
    1.8110   13.8660   -0.3260 C   0  0  0  0  0  0  0  0  0  0  0  0
    0.9450   15.0510   -0.7940 C   0  0  0  0  0  0  0  0  0  0  0  0
    1.1600   15.3330   -2.2840 C   0  0  2  0  0  0  0  0  0  0  0  0
    2.6580   15.7460   -2.4820 C   0  0  0  0  0  0  0  0  0  0  0  0
    2.4845   18.0681   -1.5284 H   0  0  0  0  0  0  0  0  0  0  0  0
    2.6305   17.1802   -3.0830 H   0  0  0  0  0  0  0  0  0  0  0  0
    2.4497   18.9673   -3.0830 H   0  0  0  0  0  0  0  0  0  0  0  0
    0.2671   18.5250   -3.4453 H   0  0  0  0  0  0  0  0  0  0  0  0
   -0.1237   19.4439   -1.3515 H   0  0  0  0  0  0  0  0  0  0  0  0
   -1.0274   17.8561   -1.2849 H   0  0  0  0  0  0  0  0  0  0  0  0
    0.0224   17.4325    0.6223 H   0  0  0  0  0  0  0  0  0  0  0  0
    1.5417   17.2778   -0.3548 H   0  0  0  0  0  0  0  0  0  0  0  0
    0.3773   19.2733    1.2193 H   0  0  0  0  0  0  0  0  0  0  0  0
    4.1214   17.7241    1.6345 H   0  0  0  0  0  0  0  0  0  0  0  0
    3.2341   17.3702    0.1133 H   0  0  0  0  0  0  0  0  0  0  0  0
    4.5764   18.5640    0.1133 H   0  0  0  0  0  0  0  0  0  0  0  0
    2.9617   19.7250    3.0793 H   0  0  0  0  0  0  0  0  0  0  0  0
    4.2237   20.4353    2.0165 H   0  0  0  0  0  0  0  0  0  0  0  0
    2.5618   21.1169    2.0165 H   0  0  0  0  0  0  0  0  0  0  0  0
   -0.7372   16.4001   -2.4764 H   0  0  0  0  0  0  0  0  0  0  0  0
   -0.6725   16.1841   -4.8820 H   0  0  0  0  0  0  0  0  0  0  0  0
    1.0018   16.7718   -4.9674 H   0  0  0  0  0  0  0  0  0  0  0  0
    0.1825   14.0457   -5.2275 H   0  0  0  0  0  0  0  0  0  0  0  0
    1.8444   14.5540   -4.9387 H   0  0  0  0  0  0  0  0  0  0  0  0
   -1.0326   13.6163   -1.8612 H   0  0  0  0  0  0  0  0  0  0  0  0
   -1.4206   14.4438   -3.4075 H   0  0  0  0  0  0  0  0  0  0  0  0
   -0.9727   12.7043   -3.4075 H   0  0  0  0  0  0  0  0  0  0  0  0
    2.6442   13.2535   -3.0598 H   0  0  0  0  0  0  0  0  0  0  0  0
    1.0600   11.8866   -4.5625 H   0  0  0  0  0  0  0  0  0  0  0  0
    2.3965   11.0692   -3.5949 H   0  0  0  0  0  0  0  0  0  0  0  0
    0.0698    9.8350   -3.6438 H   0  0  0  0  0  0  0  0  0  0  0  0
   -0.2440   12.3785   -0.5252 H   0  0  0  0  0  0  0  0  0  0  0  0
    1.7200   10.2126    0.4501 H   0  0  0  0  0  0  0  0  0  0  0  0
    1.1531   11.6710    1.3788 H   0  0  0  0  0  0  0  0  0  0  0  0
    0.0038    9.5998    2.0938 H   0  0  0  0  0  0  0  0  0  0  0  0
   -1.1209   10.8228    1.3829 H   0  0  0  0  0  0  0  0  0  0  0  0
   -1.7138    8.6522    0.5453 H   0  0  0  0  0  0  0  0  0  0  0  0
    0.1580    7.7550   -0.9210 H   0  0  0  0  0  0  0  0  0  0  0  0
   -2.6622   10.7202   -0.0333 H   0  0  0  0  0  0  0  0  0  0  0  0
   -2.2750   11.5405   -1.5837 H   0  0  0  0  0  0  0  0  0  0  0  0
   -3.2625   10.0400   -1.5837 H   0  0  0  0  0  0  0  0  0  0  0  0
   -1.7385    7.6581   -1.6255 H   0  0  0  0  0  0  0  0  0  0  0  0
   -2.3267    8.8490   -2.8348 H   0  0  0  0  0  0  0  0  0  0  0  0
   -0.6022    8.3461   -2.8348 H   0  0  0  0  0  0  0  0  0  0  0  0
    3.3039   11.7213    0.0986 H   0  0  0  0  0  0  0  0  0  0  0  0
    3.0706   10.8263   -1.4413 H   0  0  0  0  0  0  0  0  0  0  0  0
    3.9252   12.4063   -1.4413 H   0  0  0  0  0  0  0  0  0  0  0  0
    1.4884   13.5994    0.6913 H   0  0  0  0  0  0  0  0  0  0  0  0
    2.8495   14.2206   -0.4022 H   0  0  0  0  0  0  0  0  0  0  0  0
   -0.1149   14.8119   -0.6224 H   0  0  0  0  0  0  0  0  0  0  0  0
    1.2357   15.9448   -0.2226 H   0  0  0  0  0  0  0  0  0  0  0  0
    3.1350   15.8775   -1.4996 H   0  0  0  0  0  0  0  0  0  0  0  0
    3.1842   14.9594   -3.0427 H   0  0  0  0  0  0  0  0  0  0  0  0
    2.7067   16.6911   -3.0427 H   0  0  0  0  0  0  0  0  0  0  0  0
  1  2  1  0
  2  3  1  0
  3  4  1  0
  4  5  1  0
  5  6  1  0
  6  7  1  0
  7  8  1  0
  7  9  1  0
  2 10  1  0
 10 11  1  0
 11 12  1  0
 12 13  1  0
 13 14  1  1
 13 15  1  0
 15 16  1  0
 16 17  1  0
 17 18  2  0
 18 19  1  0
 19 20  1  0
 20 21  1  0
 21 22  1  0
 22 23  1  0
 22 24  1  0
 24 25  1  0
 24 26  1  0
 19 27  1  0
 27 28  1  6
 27 29  1  0
 29 30  1  0
 30 31  1  0
 31 32  1  1
  7  5  1  0
 31 10  1  0
 31 13  1  0
 27 15  1  0
 24 18  1  0
  1 33  1  0
  1 34  1  0
  1 35  1  0
  2 36  1  6
  3 37  1  0
  3 38  1  0
  4 39  1  0
  4 40  1  0
  5 41  1  1
  8 42  1  0
  8 43  1  0
  8 44  1  0
  9 45  1  0
  9 46  1  0
  9 47  1  0
 10 48  1  1
 11 49  1  0
 11 50  1  0
 12 51  1  0
 12 52  1  0
 14 53  1  0
 14 54  1  0
 14 55  1  0
 15 56  1  6
 16 57  1  0
 16 58  1  0
 17 59  1  0
 19 60  1  1
 20 61  1  0
 20 62  1  0
 21 63  1  0
 21 64  1  0
 22 65  1  1
 23 66  1  0
 25 67  1  0
 25 68  1  0
 25 69  1  0
 26 70  1  0
 26 71  1  0
 26 72  1  0
 28 73  1  0
 28 74  1  0
 28 75  1  0
 29 76  1  0
 29 77  1  0
 30 78  1  0
 30 79  1  0
 32 80  1  0
 32 81  1  0
 32 82  1  0
M  END
>  <meeko>  (5) 
{"is_sidechain": [false], "intermolecular_energy": 2.731, "internal_energy": -0.839}

$$$$
EPH_relaxed_0001_pdb2pqr_Repair_375_r2_0001_out
     RDKit          3D

 82 86  0  0  0  0  0  0  0  0999 V2000
    3.7560   17.5750    0.5810 C   0  0  0  0  0  0  0  0  0  0  0  0
    2.8280   17.8540   -0.6040 C   0  0  2  0  0  0  0  0  0  0  0  0
    2.1760   19.2480   -0.5150 C   0  0  0  0  0  0  0  0  0  0  0  0
    1.3460   19.4590    0.7540 C   0  0  0  0  0  0  0  0  0  0  0  0
    0.0430   20.1380    0.4580 C   0  0  2  0  0  0  0  0  0  0  0  0
   -0.8700   20.1890    1.5630 O   0  0  0  0  0  0  0  0  0  0  0  0
   -1.2900   19.4130    0.4290 C   0  0  0  0  0  0  0  0  0  0  0  0
   -1.3860   17.9440    0.7000 C   0  0  0  0  0  0  0  0  0  0  0  0
   -2.4210   20.0260   -0.3360 C   0  0  0  0  0  0  0  0  0  0  0  0
    1.7510   16.7790   -0.6850 C   0  0  1  0  0  0  0  0  0  0  0  0
    0.4580   17.2800   -1.3810 C   0  0  0  0  0  0  0  0  0  0  0  0
   -0.1190   16.0780   -2.1730 C   0  0  0  0  0  0  0  0  0  0  0  0
    0.6640   14.8530   -1.6460 C   0  0  1  0  0  0  0  0  0  0  0  0
   -0.0420   14.4710   -0.3070 C   0  0  0  0  0  0  0  0  0  0  0  0
    0.7650   13.6290   -2.6140 C   0  0  2  0  0  0  0  0  0  0  0  0
   -0.5790   12.9760   -2.9830 C   0  0  0  0  0  0  0  0  0  0  0  0
   -1.0190   11.8700   -2.0820 C   0  0  0  0  0  0  0  0  0  0  0  0
   -0.2380   11.2270   -1.1940 C   0  0  0  0  0  0  0  0  0  0  0  0
    1.2630   11.5330   -1.0980 C   0  0  1  0  0  0  0  0  0  0  0  0
    2.0600   10.2030   -1.0480 C   0  0  0  0  0  0  0  0  0  0  0  0
    1.5810    9.2760    0.0660 C   0  0  0  0  0  0  0  0  0  0  0  0
    0.0990    8.9490   -0.0970 C   0  0  2  0  0  0  0  0  0  0  0  0
   -0.0720    8.1660   -1.2820 O   0  0  0  0  0  0  0  0  0  0  0  0
   -0.8030   10.2120   -0.1700 C   0  0  0  0  0  0  0  0  0  0  0  0
   -0.8520   10.8980    1.2180 C   0  0  0  0  0  0  0  0  0  0  0  0
   -2.2520    9.7470   -0.4760 C   0  0  0  0  0  0  0  0  0  0  0  0
    1.8340   12.5460   -2.1810 C   0  0  1  0  0  0  0  0  0  0  0  0
    2.2340   11.7730   -3.4750 C   0  0  0  0  0  0  0  0  0  0  0  0
    3.1560   13.1990   -1.6280 C   0  0  0  0  0  0  0  0  0  0  0  0
    2.9980   14.4740   -0.7770 C   0  0  0  0  0  0  0  0  0  0  0  0
    2.0910   15.4900   -1.4760 C   0  0  2  0  0  0  0  0  0  0  0  0
    2.7850   15.9100   -2.8160 C   0  0  0  0  0  0  0  0  0  0  0  0
    3.2094   17.7393    1.5214 H   0  0  0  0  0  0  0  0  0  0  0  0
    4.1041   16.5325    0.5366 H   0  0  0  0  0  0  0  0  0  0  0  0
    4.6213   18.2527    0.5366 H   0  0  0  0  0  0  0  0  0  0  0  0
    3.4416   17.8345   -1.5167 H   0  0  0  0  0  0  0  0  0  0  0  0
    2.9726   20.0062   -0.5391 H   0  0  0  0  0  0  0  0  0  0  0  0
    1.4872   19.3359   -1.3681 H   0  0  0  0  0  0  0  0  0  0  0  0
    1.1418   18.4805    1.2131 H   0  0  0  0  0  0  0  0  0  0  0  0
    1.9206   20.1026    1.4364 H   0  0  0  0  0  0  0  0  0  0  0  0
    0.5309   20.8146   -0.2591 H   0  0  0  0  0  0  0  0  0  0  0  0
   -1.3973   17.7715    1.7863 H   0  0  0  0  0  0  0  0  0  0  0  0
   -2.3119   17.5490    0.2564 H   0  0  0  0  0  0  0  0  0  0  0  0
   -0.5194   17.4319    0.2564 H   0  0  0  0  0  0  0  0  0  0  0  0
   -3.1641   20.4288    0.3680 H   0  0  0  0  0  0  0  0  0  0  0  0
   -2.0371   20.8395   -0.9691 H   0  0  0  0  0  0  0  0  0  0  0  0
   -2.8930   19.2603   -0.9691 H   0  0  0  0  0  0  0  0  0  0  0  0
    1.6415   16.5466    0.3846 H   0  0  0  0  0  0  0  0  0  0  0  0
   -0.2686   17.6220   -0.6292 H   0  0  0  0  0  0  0  0  0  0  0  0
    0.6723   18.1269   -2.0495 H   0  0  0  0  0  0  0  0  0  0  0  0
   -1.1955   15.9646   -1.9773 H   0  0  0  0  0  0  0  0  0  0  0  0
   -0.0131   16.2050   -3.2605 H   0  0  0  0  0  0  0  0  0  0  0  0
    0.5745   14.8046    0.5407 H   0  0  0  0  0  0  0  0  0  0  0  0
   -1.0264   14.9596   -0.2591 H   0  0  0  0  0  0  0  0  0  0  0  0
   -0.1716   13.3797   -0.2591 H   0  0  0  0  0  0  0  0  0  0  0  0
    1.1368   14.0915   -3.5402 H   0  0  0  0  0  0  0  0  0  0  0  0
   -1.3529   13.7575   -2.9649 H   0  0  0  0  0  0  0  0  0  0  0  0
   -0.4347   12.5218   -3.9744 H   0  0  0  0  0  0  0  0  0  0  0  0
   -2.0704   11.5537   -2.1495 H   0  0  0  0  0  0  0  0  0  0  0  0
    1.4015   12.0867   -0.1577 H   0  0  0  0  0  0  0  0  0  0  0  0
    1.9438    9.6857   -2.0118 H   0  0  0  0  0  0  0  0  0  0  0  0
    3.1125   10.4514   -0.8466 H   0  0  0  0  0  0  0  0  0  0  0  0
    2.1616    8.3423    0.0322 H   0  0  0  0  0  0  0  0  0  0  0  0
    1.7249    9.7832    1.0314 H   0  0  0  0  0  0  0  0  0  0  0  0
   -0.2161    8.3909    0.7970 H   0  0  0  0  0  0  0  0  0  0  0  0
   -0.6390    7.4090   -1.0550 H   0  0  0  0  0  0  0  0  0  0  0  0
   -0.7974   10.1335    2.0070 H   0  0  0  0  0  0  0  0  0  0  0  0
   -0.0008   11.5878    1.3163 H   0  0  0  0  0  0  0  0  0  0  0  0
   -1.7926   11.4598    1.3163 H   0  0  0  0  0  0  0  0  0  0  0  0
   -2.7889    9.5747    0.4685 H   0  0  0  0  0  0  0  0  0  0  0  0
   -2.7714   10.5236   -1.0567 H   0  0  0  0  0  0  0  0  0  0  0  0
   -2.2225    8.8132   -1.0567 H   0  0  0  0  0  0  0  0  0  0  0  0
    2.7235   10.8270   -3.2004 H   0  0  0  0  0  0  0  0  0  0  0  0
    1.3326   11.5606   -4.0687 H   0  0  0  0  0  0  0  0  0  0  0  0
    2.9280   12.3862   -4.0687 H   0  0  0  0  0  0  0  0  0  0  0  0
    3.6650   12.4462   -1.0082 H   0  0  0  0  0  0  0  0  0  0  0  0
    3.7155   13.5161   -2.5204 H   0  0  0  0  0  0  0  0  0  0  0  0
    2.5567   14.2060    0.1943 H   0  0  0  0  0  0  0  0  0  0  0  0
    3.9903   14.9275   -0.6369 H   0  0  0  0  0  0  0  0  0  0  0  0
    3.7065   16.4677   -2.5926 H   0  0  0  0  0  0  0  0  0  0  0  0
    3.0330   15.0103   -3.3982 H   0  0  0  0  0  0  0  0  0  0  0  0
    2.1029   16.5470   -3.3982 H   0  0  0  0  0  0  0  0  0  0  0  0
  1  2  1  0
  2  3  1  0
  3  4  1  0
  4  5  1  0
  5  6  1  0
  6  7  1  0
  7  8  1  0
  7  9  1  0
  2 10  1  0
 10 11  1  0
 11 12  1  0
 12 13  1  0
 13 14  1  1
 13 15  1  0
 15 16  1  0
 16 17  1  0
 17 18  2  0
 18 19  1  0
 19 20  1  0
 20 21  1  0
 21 22  1  0
 22 23  1  0
 22 24  1  0
 24 25  1  0
 24 26  1  0
 19 27  1  0
 27 28  1  6
 27 29  1  0
 29 30  1  0
 30 31  1  0
 31 32  1  6
  7  5  1  0
 31 10  1  0
 31 13  1  0
 27 15  1  0
 24 18  1  0
  1 33  1  0
  1 34  1  0
  1 35  1  0
  2 36  1  6
  3 37  1  0
  3 38  1  0
  4 39  1  0
  4 40  1  0
  5 41  1  6
  8 42  1  0
  8 43  1  0
  8 44  1  0
  9 45  1  0
  9 46  1  0
  9 47  1  0
 10 48  1  1
 11 49  1  0
 11 50  1  0
 12 51  1  0
 12 52  1  0
 14 53  1  0
 14 54  1  0
 14 55  1  0
 15 56  1  6
 16 57  1  0
 16 58  1  0
 17 59  1  0
 19 60  1  1
 20 61  1  0
 20 62  1  0
 21 63  1  0
 21 64  1  0
 22 65  1  1
 23 66  1  0
 25 67  1  0
 25 68  1  0
 25 69  1  0
 26 70  1  0
 26 71  1  0
 26 72  1  0
 28 73  1  0
 28 74  1  0
 28 75  1  0
 29 76  1  0
 29 77  1  0
 30 78  1  0
 30 79  1  0
 32 80  1  0
 32 81  1  0
 32 82  1  0
M  END
>  <meeko>  (6) 
{"is_sidechain": [false], "intermolecular_energy": 2.731, "internal_energy": -0.839}

$$$$
EPH_relaxed_0001_pdb2pqr_Repair_375_r2_0001_out
     RDKit          3D

 82 86  0  0  0  0  0  0  0  0999 V2000
    0.4500    8.8130   -2.3670 C   0  0  0  0  0  0  0  0  0  0  0  0
    1.1900    9.9550   -3.0690 C   0  0  2  0  0  0  0  0  0  0  0  0
    2.6910    9.9770   -2.7190 C   0  0  0  0  0  0  0  0  0  0  0  0
    3.5710   10.5820   -3.8160 C   0  0  0  0  0  0  0  0  0  0  0  0
    4.9660   10.8350   -3.3310 C   0  0  2  0  0  0  0  0  0  0  0  0
    5.5580   12.0480   -3.8150 O   0  0  0  0  0  0  0  0  0  0  0  0
    6.1820   10.8250   -4.2380 C   0  0  0  0  0  0  0  0  0  0  0  0
    6.0590   10.5550   -5.7050 C   0  0  0  0  0  0  0  0  0  0  0  0
    7.5290   10.5930   -3.6280 C   0  0  0  0  0  0  0  0  0  0  0  0
    0.5510   11.2900   -2.7050 C   0  0  1  0  0  0  0  0  0  0  0  0
   -0.8320   11.1230   -2.0210 C   0  0  0  0  0  0  0  0  0  0  0  0
   -0.9540   12.2620   -0.9750 C   0  0  0  0  0  0  0  0  0  0  0  0
    0.2010   13.2320   -1.3180 C   0  0  1  0  0  0  0  0  0  0  0  0
   -0.3380   14.0920   -2.5040 C   0  0  0  0  0  0  0  0  0  0  0  0
    0.7230   14.1250   -0.1470 C   0  0  2  0  0  0  0  0  0  0  0  0
   -0.3100   15.1040    0.4390 C   0  0  0  0  0  0  0  0  0  0  0  0
   -0.3460   16.4520   -0.2010 C   0  0  0  0  0  0  0  0  0  0  0  0
    0.6040   16.9600   -1.0080 C   0  0  0  0  0  0  0  0  0  0  0  0
    1.9060   16.1930   -1.2730 C   0  0  1  0  0  0  0  0  0  0  0  0
    3.1130   17.1570   -1.1320 C   0  0  0  0  0  0  0  0  0  0  0  0
    2.9770   18.3970   -2.0100 C   0  0  0  0  0  0  0  0  0  0  0  0
    1.7010   19.1640   -1.6770 C   0  0  2  0  0  0  0  0  0  0  0  0
    1.8170   19.7010   -0.3560 O   0  0  0  0  0  0  0  0  0  0  0  0
    0.4180   18.2920   -1.7760 C   0  0  0  0  0  0  0  0  0  0  0  0
    0.1270   17.9600   -3.2610 C   0  0  0  0  0  0  0  0  0  0  0  0
   -0.7800   19.1460   -1.2800 C   0  0  0  0  0  0  0  0  0  0  0  0
    2.0980   14.8490   -0.4470 C   0  0  1  0  0  0  0  0  0  0  0  0
    2.7480   15.1620    0.9350 C   0  0  0  0  0  0  0  0  0  0  0  0
    3.1100   13.9160   -1.2120 C   0  0  0  0  0  0  0  0  0  0  0  0
    2.5170   12.9700   -2.2740 C   0  0  0  0  0  0  0  0  0  0  0  0
    1.3190   12.1990   -1.7130 C   0  0  2  0  0  0  0  0  0  0  0  0
    1.8330   11.3070   -0.5330 C   0  0  0  0  0  0  0  0  0  0  0  0
    0.5314    8.9386   -1.2772 H   0  0  0  0  0  0  0  0  0  0  0  0
   -0.6102    8.8284   -2.6597 H   0  0  0  0  0  0  0  0  0  0  0  0
    0.8973    7.8516   -2.6597 H   0  0  0  0  0  0  0  0  0  0  0  0
    1.1065    9.7858   -4.1527 H   0  0  0  0  0  0  0  0  0  0  0  0
    2.8247   10.5684   -1.8012 H   0  0  0  0  0  0  0  0  0  0  0  0
    3.0070    8.9307   -2.5946 H   0  0  0  0  0  0  0  0  0  0  0  0
    3.6101    9.8853   -4.6663 H   0  0  0  0  0  0  0  0  0  0  0  0
    3.1321   11.5452   -4.1154 H   0  0  0  0  0  0  0  0  0  0  0  0
    4.7516   10.3279   -2.3787 H   0  0  0  0  0  0  0  0  0  0  0  0
    5.6075    9.5638   -5.8588 H   0  0  0  0  0  0  0  0  0  0  0  0
    5.4222   11.3237   -6.1672 H   0  0  0  0  0  0  0  0  0  0  0  0
    7.0569   10.5790   -6.1672 H   0  0  0  0  0  0  0  0  0  0  0  0
    7.4424   10.6079   -2.5315 H   0  0  0  0  0  0  0  0  0  0  0  0
    7.9148    9.6152   -3.9521 H   0  0  0  0  0  0  0  0  0  0  0  0
    8.2197   11.3854   -3.9521 H   0  0  0  0  0  0  0  0  0  0  0  0
    0.5229   11.7586   -3.6998 H   0  0  0  0  0  0  0  0  0  0  0  0
   -1.6361   11.2060   -2.7670 H   0  0  0  0  0  0  0  0  0  0  0  0
   -0.9197   10.1363   -1.5427 H   0  0  0  0  0  0  0  0  0  0  0  0
   -1.9262   12.7688   -1.0643 H   0  0  0  0  0  0  0  0  0  0  0  0
   -0.8922   11.8884    0.0578 H   0  0  0  0  0  0  0  0  0  0  0  0
   -0.8831   14.9617   -2.1083 H   0  0  0  0  0  0  0  0  0  0  0  0
    0.5056   14.4372   -3.1197 H   0  0  0  0  0  0  0  0  0  0  0  0
   -1.0164   13.4832   -3.1197 H   0  0  0  0  0  0  0  0  0  0  0  0
    0.9163   13.3854    0.6440 H   0  0  0  0  0  0  0  0  0  0  0  0
   -1.3065   14.6505    0.3325 H   0  0  0  0  0  0  0  0  0  0  0  0
   -0.0114   15.2715    1.4844 H   0  0  0  0  0  0  0  0  0  0  0  0
   -1.2229   17.0836    0.0042 H   0  0  0  0  0  0  0  0  0  0  0  0
    1.8395   15.8285   -2.3087 H   0  0  0  0  0  0  0  0  0  0  0  0
    3.1893   17.4752   -0.0818 H   0  0  0  0  0  0  0  0  0  0  0  0
    4.0131   16.6148   -1.4572 H   0  0  0  0  0  0  0  0  0  0  0  0
    3.8446   19.0525   -1.8440 H   0  0  0  0  0  0  0  0  0  0  0  0
    2.9308   18.0788   -3.0620 H   0  0  0  0  0  0  0  0  0  0  0  0
    1.5938   19.9650   -2.4233 H   0  0  0  0  0  0  0  0  0  0  0  0
    2.4650   20.4250   -0.3880 H   0  0  0  0  0  0  0  0  0  0  0  0
   -0.5971   17.1339   -3.3169 H   0  0  0  0  0  0  0  0  0  0  0  0
   -0.2897   18.8472   -3.7602 H   0  0  0  0  0  0  0  0  0  0  0  0
    1.0612   17.6632   -3.7602 H   0  0  0  0  0  0  0  0  0  0  0  0
   -0.7931   19.1554   -0.1801 H   0  0  0  0  0  0  0  0  0  0  0  0
   -0.6765   20.1752   -1.6542 H   0  0  0  0  0  0  0  0  0  0  0  0
   -1.7192   18.7125   -1.6542 H   0  0  0  0  0  0  0  0  0  0  0  0
    2.0725   14.8367    1.7400 H   0  0  0  0  0  0  0  0  0  0  0  0
    3.7047   14.6258    1.0201 H   0  0  0  0  0  0  0  0  0  0  0  0
    2.9254   16.2443    1.0201 H   0  0  0  0  0  0  0  0  0  0  0  0
    3.8437   14.5629   -1.7152 H   0  0  0  0  0  0  0  0  0  0  0  0
    3.5309   13.2545   -0.4405 H   0  0  0  0  0  0  0  0  0  0  0  0
    2.1897   13.5624   -3.1411 H   0  0  0  0  0  0  0  0  0  0  0  0
    3.2911   12.2474   -2.5717 H   0  0  0  0  0  0  0  0  0  0  0  0
    1.5632   11.7752    0.4251 H   0  0  0  0  0  0  0  0  0  0  0  0
    1.3702   10.3112   -0.5976 H   0  0  0  0  0  0  0  0  0  0  0  0
    2.9266   11.2080   -0.5976 H   0  0  0  0  0  0  0  0  0  0  0  0
  1  2  1  0
  2  3  1  0
  3  4  1  0
  4  5  1  0
  5  6  1  0
  6  7  1  0
  7  8  1  0
  7  9  1  0
  2 10  1  0
 10 11  1  0
 11 12  1  0
 12 13  1  0
 13 14  1  6
 13 15  1  0
 15 16  1  0
 16 17  1  0
 17 18  2  0
 18 19  1  0
 19 20  1  0
 20 21  1  0
 21 22  1  0
 22 23  1  0
 22 24  1  0
 24 25  1  0
 24 26  1  0
 19 27  1  0
 27 28  1  1
 27 29  1  0
 29 30  1  0
 30 31  1  0
 31 32  1  1
  7  5  1  0
 31 10  1  0
 31 13  1  0
 27 15  1  0
 24 18  1  0
  1 33  1  0
  1 34  1  0
  1 35  1  0
  2 36  1  6
  3 37  1  0
  3 38  1  0
  4 39  1  0
  4 40  1  0
  5 41  1  1
  8 42  1  0
  8 43  1  0
  8 44  1  0
  9 45  1  0
  9 46  1  0
  9 47  1  0
 10 48  1  6
 11 49  1  0
 11 50  1  0
 12 51  1  0
 12 52  1  0
 14 53  1  0
 14 54  1  0
 14 55  1  0
 15 56  1  1
 16 57  1  0
 16 58  1  0
 17 59  1  0
 19 60  1  6
 20 61  1  0
 20 62  1  0
 21 63  1  0
 21 64  1  0
 22 65  1  6
 23 66  1  0
 25 67  1  0
 25 68  1  0
 25 69  1  0
 26 70  1  0
 26 71  1  0
 26 72  1  0
 28 73  1  0
 28 74  1  0
 28 75  1  0
 29 76  1  0
 29 77  1  0
 30 78  1  0
 30 79  1  0
 32 80  1  0
 32 81  1  0
 32 82  1  0
M  END
>  <meeko>  (7) 
{"is_sidechain": [false], "intermolecular_energy": 2.731, "internal_energy": -0.839}

$$$$
EPH_relaxed_0001_pdb2pqr_Repair_375_r2_0001_out
     RDKit          3D

 82 86  0  0  0  0  0  0  0  0999 V2000
    0.1480   17.7710   -2.5420 C   0  0  0  0  0  0  0  0  0  0  0  0
   -0.0890   16.8880   -1.3140 C   0  0  2  0  0  0  0  0  0  0  0  0
   -0.1250   17.7080   -0.0080 C   0  0  0  0  0  0  0  0  0  0  0  0
    0.5010   19.0990   -0.1370 C   0  0  0  0  0  0  0  0  0  0  0  0
    1.6460   19.2820    0.8130 C   0  0  2  0  0  0  0  0  0  0  0  0
    2.6570   20.1940    0.3640 O   0  0  0  0  0  0  0  0  0  0  0  0
    3.0620   18.8240    0.5150 C   0  0  0  0  0  0  0  0  0  0  0  0
    3.4080   18.1450   -0.7740 C   0  0  0  0  0  0  0  0  0  0  0  0
    3.9960   18.5940    1.6620 C   0  0  0  0  0  0  0  0  0  0  0  0
    0.9920   15.8170   -1.2270 C   0  0  1  0  0  0  0  0  0  0  0  0
    1.1910   15.2850    0.2170 C   0  0  0  0  0  0  0  0  0  0  0  0
    1.5390   13.7790    0.0950 C   0  0  0  0  0  0  0  0  0  0  0  0
    1.8530   13.5710   -1.4050 C   0  0  1  0  0  0  0  0  0  0  0  0
    3.3270   14.0540   -1.5760 C   0  0  0  0  0  0  0  0  0  0  0  0
    1.6510   12.1230   -1.9590 C   0  0  2  0  0  0  0  0  0  0  0  0
    2.5540   11.0510   -1.3240 C   0  0  0  0  0  0  0  0  0  0  0  0
    3.8610   10.8300   -2.0110 C   0  0  0  0  0  0  0  0  0  0  0  0
    4.1770   11.2560   -3.2480 C   0  0  0  0  0  0  0  0  0  0  0  0
    3.1340   11.9560   -4.1300 C   0  0  1  0  0  0  0  0  0  0  0  0
    3.1750   11.3510   -5.5580 C   0  0  0  0  0  0  0  0  0  0  0  0
    4.5720   11.3850   -6.1680 C   0  0  0  0  0  0  0  0  0  0  0  0
    5.5680   10.6290   -5.2920 C   0  0  2  0  0  0  0  0  0  0  0  0
    5.2310    9.2390   -5.3050 O   0  0  0  0  0  0  0  0  0  0  0  0
    5.6090   11.1440   -3.8260 C   0  0  0  0  0  0  0  0  0  0  0  0
    6.2600   12.5490   -3.7860 C   0  0  0  0  0  0  0  0  0  0  0  0
    6.5460   10.2080   -3.0170 C   0  0  0  0  0  0  0  0  0  0  0  0
    1.6610   12.0260   -3.5380 C   0  0  1  0  0  0  0  0  0  0  0  0
    0.8760   10.7310   -3.9100 C   0  0  0  0  0  0  0  0  0  0  0  0
    0.8920   13.2220   -4.2160 C   0  0  0  0  0  0  0  0  0  0  0  0
    1.0340   14.6050   -3.5520 C   0  0  0  0  0  0  0  0  0  0  0  0
    0.7740   14.5190   -2.0450 C   0  0  2  0  0  0  0  0  0  0  0  0
   -0.7090   14.0570   -1.8410 C   0  0  0  0  0  0  0  0  0  0  0  0
    0.4204   18.7859   -2.2168 H   0  0  0  0  0  0  0  0  0  0  0  0
    0.9644   17.3479   -3.1458 H   0  0  0  0  0  0  0  0  0  0  0  0
   -0.7705   17.8136   -3.1458 H   0  0  0  0  0  0  0  0  0  0  0  0
   -1.0739   16.4127   -1.4331 H   0  0  0  0  0  0  0  0  0  0  0  0
   -1.1747   17.8267    0.2986 H   0  0  0  0  0  0  0  0  0  0  0  0
    0.4695   17.1557    0.7347 H   0  0  0  0  0  0  0  0  0  0  0  0
    0.8669   19.2312   -1.1659 H   0  0  0  0  0  0  0  0  0  0  0  0
   -0.2693   19.8456    0.1065 H   0  0  0  0  0  0  0  0  0  0  0  0
    0.9850   19.1215    1.6774 H   0  0  0  0  0  0  0  0  0  0  0  0
    3.8980   17.1833   -0.5618 H   0  0  0  0  0  0  0  0  0  0  0  0
    2.4898   17.9687   -1.3535 H   0  0  0  0  0  0  0  0  0  0  0  0
    4.0903   18.7842   -1.3535 H   0  0  0  0  0  0  0  0  0  0  0  0
    3.4532   18.7277    2.6094 H   0  0  0  0  0  0  0  0  0  0  0  0
    4.3958   17.5706    1.6097 H   0  0  0  0  0  0  0  0  0  0  0  0
    4.8253   19.3148    1.6097 H   0  0  0  0  0  0  0  0  0  0  0  0
    1.8438   16.3809   -1.6350 H   0  0  0  0  0  0  0  0  0  0  0  0
    2.0130   15.8250    0.7097 H   0  0  0  0  0  0  0  0  0  0  0  0
    0.2836   15.4330    0.8209 H   0  0  0  0  0  0  0  0  0  0  0  0
    2.4147   13.5316    0.7129 H   0  0  0  0  0  0  0  0  0  0  0  0
    0.7202   13.1323    0.4432 H   0  0  0  0  0  0  0  0  0  0  0  0
    3.7813   14.2029   -0.5853 H   0  0  0  0  0  0  0  0  0  0  0  0
    3.8990   13.2963   -2.1316 H   0  0  0  0  0  0  0  0  0  0  0  0
    3.3397   15.0033   -2.1316 H   0  0  0  0  0  0  0  0  0  0  0  0
    0.6282   11.8849   -1.6318 H   0  0  0  0  0  0  0  0  0  0  0  0
    2.7619   11.3525   -0.2868 H   0  0  0  0  0  0  0  0  0  0  0  0
    2.0033   10.1022   -1.4049 H   0  0  0  0  0  0  0  0  0  0  0  0
    4.6313   10.2714   -1.4591 H   0  0  0  0  0  0  0  0  0  0  0  0
    3.4261   13.0159   -4.1653 H   0  0  0  0  0  0  0  0  0  0  0  0
    2.8377   10.3052   -5.5076 H   0  0  0  0  0  0  0  0  0  0  0  0
    2.5171   11.9585   -6.1968 H   0  0  0  0  0  0  0  0  0  0  0  0
    4.5416   10.9184   -7.1637 H   0  0  0  0  0  0  0  0  0  0  0  0
    4.8965   12.4333   -6.2445 H   0  0  0  0  0  0  0  0  0  0  0  0
    6.5708   10.7981   -5.7113 H   0  0  0  0  0  0  0  0  0  0  0  0
    4.9240    9.0190   -6.2000 H   0  0  0  0  0  0  0  0  0  0  0  0
    6.4028   12.8573   -2.7398 H   0  0  0  0  0  0  0  0  0  0  0  0
    7.2346   12.5161   -4.2949 H   0  0  0  0  0  0  0  0  0  0  0  0
    5.6048   13.2713   -4.2949 H   0  0  0  0  0  0  0  0  0  0  0  0
    6.3849   10.3689   -1.9408 H   0  0  0  0  0  0  0  0  0  0  0  0
    6.3239    9.1604   -3.2684 H   0  0  0  0  0  0  0  0  0  0  0  0
    7.5934   10.4312   -3.2684 H   0  0  0  0  0  0  0  0  0  0  0  0
    0.5632   10.2149   -2.9903 H   0  0  0  0  0  0  0  0  0  0  0  0
   -0.0125   10.9979   -4.5010 H   0  0  0  0  0  0  0  0  0  0  0  0
    1.5236   10.0667   -4.5010 H   0  0  0  0  0  0  0  0  0  0  0  0
    1.2583   13.3099   -5.2495 H   0  0  0  0  0  0  0  0  0  0  0  0
   -0.1742   12.9671   -4.1248 H   0  0  0  0  0  0  0  0  0  0  0  0
    2.0536   14.9820   -3.7203 H   0  0  0  0  0  0  0  0  0  0  0  0
    0.2934   15.2856   -3.9974 H   0  0  0  0  0  0  0  0  0  0  0  0
   -0.9272   13.9890   -0.7650 H   0  0  0  0  0  0  0  0  0  0  0  0
   -1.3877   14.7863   -2.3074 H   0  0  0  0  0  0  0  0  0  0  0  0
   -0.8534   13.0713   -2.3074 H   0  0  0  0  0  0  0  0  0  0  0  0
  1  2  1  0
  2  3  1  0
  3  4  1  0
  4  5  1  0
  5  6  1  0
  6  7  1  0
  7  8  1  0
  7  9  1  0
  2 10  1  0
 10 11  1  0
 11 12  1  0
 12 13  1  0
 13 14  1  1
 13 15  1  0
 15 16  1  0
 16 17  1  0
 17 18  2  0
 18 19  1  0
 19 20  1  0
 20 21  1  0
 21 22  1  0
 22 23  1  0
 22 24  1  0
 24 25  1  0
 24 26  1  0
 19 27  1  0
 27 28  1  1
 27 29  1  0
 29 30  1  0
 30 31  1  0
 31 32  1  6
  7  5  1  0
 31 10  1  0
 31 13  1  0
 27 15  1  0
 24 18  1  0
  1 33  1  0
  1 34  1  0
  1 35  1  0
  2 36  1  6
  3 37  1  0
  3 38  1  0
  4 39  1  0
  4 40  1  0
  5 41  1  1
  8 42  1  0
  8 43  1  0
  8 44  1  0
  9 45  1  0
  9 46  1  0
  9 47  1  0
 10 48  1  6
 11 49  1  0
 11 50  1  0
 12 51  1  0
 12 52  1  0
 14 53  1  0
 14 54  1  0
 14 55  1  0
 15 56  1  1
 16 57  1  0
 16 58  1  0
 17 59  1  0
 19 60  1  6
 20 61  1  0
 20 62  1  0
 21 63  1  0
 21 64  1  0
 22 65  1  6
 23 66  1  0
 25 67  1  0
 25 68  1  0
 25 69  1  0
 26 70  1  0
 26 71  1  0
 26 72  1  0
 28 73  1  0
 28 74  1  0
 28 75  1  0
 29 76  1  0
 29 77  1  0
 30 78  1  0
 30 79  1  0
 32 80  1  0
 32 81  1  0
 32 82  1  0
M  END
>  <meeko>  (8) 
{"is_sidechain": [false], "intermolecular_energy": 2.731, "internal_energy": -0.839}

$$$$
EPH_relaxed_0001_pdb2pqr_Repair_375_r2_0001_out
     RDKit          3D

 82 86  0  0  0  0  0  0  0  0999 V2000
    1.5740   10.7810   -4.4570 C   0  0  0  0  0  0  0  0  0  0  0  0
    0.9250   10.3780   -3.1300 C   0  0  2  0  0  0  0  0  0  0  0  0
   -0.5430    9.9410   -3.3100 C   0  0  0  0  0  0  0  0  0  0  0  0
   -0.9450    8.7540   -2.4300 C   0  0  0  0  0  0  0  0  0  0  0  0
   -0.4700    8.9250   -1.0190 C   0  0  2  0  0  0  0  0  0  0  0  0
   -1.3980    8.4860   -0.0180 O   0  0  0  0  0  0  0  0  0  0  0  0
   -1.1030    9.8920   -0.0350 C   0  0  0  0  0  0  0  0  0  0  0  0
   -2.2630   10.7530   -0.4240 C   0  0  0  0  0  0  0  0  0  0  0  0
   -0.2930   10.3520    1.1370 C   0  0  0  0  0  0  0  0  0  0  0  0
    1.0070   11.5330   -2.1390 C   0  0  1  0  0  0  0  0  0  0  0  0
    2.0880   11.3090   -1.0480 C   0  0  0  0  0  0  0  0  0  0  0  0
    2.6900   12.7000   -0.7230 C   0  0  0  0  0  0  0  0  0  0  0  0
    1.7200   13.7080   -1.3830 C   0  0  1  0  0  0  0  0  0  0  0  0
    0.5370   13.8450   -0.3740 C   0  0  0  0  0  0  0  0  0  0  0  0
    2.3220   15.1010   -1.7580 C   0  0  2  0  0  0  0  0  0  0  0  0
    2.8370   15.9320   -0.5700 C   0  0  0  0  0  0  0  0  0  0  0  0
    1.8340   16.8470    0.0510 C   0  0  0  0  0  0  0  0  0  0  0  0
    0.6600   17.2090   -0.5000 C   0  0  0  0  0  0  0  0  0  0  0  0
    0.2840   16.7630   -1.9180 C   0  0  1  0  0  0  0  0  0  0  0  0
   -0.2650   17.9760   -2.7140 C   0  0  0  0  0  0  0  0  0  0  0  0
   -1.4170   18.6730   -1.9980 C   0  0  0  0  0  0  0  0  0  0  0  0
   -0.9880   19.1540   -0.6140 C   0  0  2  0  0  0  0  0  0  0  0  0
   -0.0130   20.1900   -0.7680 O   0  0  0  0  0  0  0  0  0  0  0  0
   -0.4080   18.0190    0.2760 C   0  0  0  0  0  0  0  0  0  0  0  0
   -1.5440   17.0520    0.6920 C   0  0  0  0  0  0  0  0  0  0  0  0
    0.1170   18.6620    1.5880 C   0  0  0  0  0  0  0  0  0  0  0  0
    1.4060   15.9670   -2.7150 C   0  0  1  0  0  0  0  0  0  0  0  0
    2.3490   16.9690   -3.4490 C   0  0  0  0  0  0  0  0  0  0  0  0
    0.7220   15.0980   -3.8360 C   0  0  0  0  0  0  0  0  0  0  0  0
    0.2560   13.6860   -3.4330 C   0  0  0  0  0  0  0  0  0  0  0  0
    1.3690   12.9290   -2.7020 C   0  0  2  0  0  0  0  0  0  0  0  0
    2.5650   12.7570   -3.7000 C   0  0  0  0  0  0  0  0  0  0  0  0
    2.4930   11.3516   -4.2573 H   0  0  0  0  0  0  0  0  0  0  0  0
    1.8214    9.8774   -5.0335 H   0  0  0  0  0  0  0  0  0  0  0  0
    0.8738   11.4034   -5.0335 H   0  0  0  0  0  0  0  0  0  0  0  0
    1.4811    9.5130   -2.7394 H   0  0  0  0  0  0  0  0  0  0  0  0
   -1.1920   10.7934   -3.0607 H   0  0  0  0  0  0  0  0  0  0  0  0
   -0.6562    9.6185   -4.3556 H   0  0  0  0  0  0  0  0  0  0  0  0
   -2.0415    8.6661   -2.4290 H   0  0  0  0  0  0  0  0  0  0  0  0
   -0.4776    7.8475   -2.8420 H   0  0  0  0  0  0  0  0  0  0  0  0
    0.5738    8.7612   -1.3249 H   0  0  0  0  0  0  0  0  0  0  0  0
   -2.7638   11.1247    0.4821 H   0  0  0  0  0  0  0  0  0  0  0  0
   -1.9037   11.6049   -1.0200 H   0  0  0  0  0  0  0  0  0  0  0  0
   -2.9743   10.1625   -1.0200 H   0  0  0  0  0  0  0  0  0  0  0  0
   -0.8006   10.0637    2.0693 H   0  0  0  0  0  0  0  0  0  0  0  0
    0.7019    9.8841    1.1014 H   0  0  0  0  0  0  0  0  0  0  0  0
   -0.1851   11.4461    1.1014 H   0  0  0  0  0  0  0  0  0  0  0  0
   -0.0297   11.5335   -1.7712 H   0  0  0  0  0  0  0  0  0  0  0  0
    1.6320   10.8736   -0.1466 H   0  0  0  0  0  0  0  0  0  0  0  0
    2.8654   10.6143   -1.3989 H   0  0  0  0  0  0  0  0  0  0  0  0
    2.7351   12.8593    0.3645 H   0  0  0  0  0  0  0  0  0  0  0  0
    3.7196   12.8065   -1.0952 H   0  0  0  0  0  0  0  0  0  0  0  0
    0.9251   13.8001    0.6543 H   0  0  0  0  0  0  0  0  0  0  0  0
    0.0294   14.8079   -0.5326 H   0  0  0  0  0  0  0  0  0  0  0  0
   -0.1772   13.0236   -0.5326 H   0  0  0  0  0  0  0  0  0  0  0  0
    3.2153   14.8225   -2.3364 H   0  0  0  0  0  0  0  0  0  0  0  0
    3.1874   15.2352    0.2057 H   0  0  0  0  0  0  0  0  0  0  0  0
    3.6306   16.5787   -0.9725 H   0  0  0  0  0  0  0  0  0  0  0  0
    2.0743   17.2601    1.0418 H   0  0  0  0  0  0  0  0  0  0  0  0
   -0.5056   16.0063   -1.7995 H   0  0  0  0  0  0  0  0  0  0  0  0
    0.5499   18.7005   -2.8590 H   0  0  0  0  0  0  0  0  0  0  0  0
   -0.6478   17.5994   -3.6740 H   0  0  0  0  0  0  0  0  0  0  0  0
   -1.7414   19.5380   -2.5952 H   0  0  0  0  0  0  0  0  0  0  0  0
   -2.2425   17.9557   -1.8801 H   0  0  0  0  0  0  0  0  0  0  0  0
   -1.8866   19.5271   -0.1009 H   0  0  0  0  0  0  0  0  0  0  0  0
   -0.4440   21.0340   -0.5500 H   0  0  0  0  0  0  0  0  0  0  0  0
   -1.6008   17.0036    1.7895 H   0  0  0  0  0  0  0  0  0  0  0  0
   -2.5012   17.4167    0.2910 H   0  0  0  0  0  0  0  0  0  0  0  0
   -1.3368   16.0489    0.2910 H   0  0  0  0  0  0  0  0  0  0  0  0
   -0.3133   18.1350    2.4524 H   0  0  0  0  0  0  0  0  0  0  0  0
    1.2138   18.5853    1.6206 H   0  0  0  0  0  0  0  0  0  0  0  0
   -0.1776   19.7213    1.6206 H   0  0  0  0  0  0  0  0  0  0  0  0
    2.9052   17.5600   -2.7065 H   0  0  0  0  0  0  0  0  0  0  0  0
    3.0575   16.4113   -4.0791 H   0  0  0  0  0  0  0  0  0  0  0  0
    1.7494   17.6424   -4.0791 H   0  0  0  0  0  0  0  0  0  0  0  0
   -0.1598   15.6501   -4.1933 H   0  0  0  0  0  0  0  0  0  0  0  0
    1.5038   14.9379   -4.5931 H   0  0  0  0  0  0  0  0  0  0  0  0
   -0.6172   13.7710   -2.7694 H   0  0  0  0  0  0  0  0  0  0  0  0
   -0.0061   13.1296   -4.3450 H   0  0  0  0  0  0  0  0  0  0  0  0
    3.4985   12.6227   -3.1339 H   0  0  0  0  0  0  0  0  0  0  0  0
    2.3901   11.8748   -4.3333 H   0  0  0  0  0  0  0  0  0  0  0  0
    2.6458   13.6528   -4.3333 H   0  0  0  0  0  0  0  0  0  0  0  0
  1  2  1  0
  2  3  1  0
  3  4  1  0
  4  5  1  0
  5  6  1  0
  6  7  1  0
  7  8  1  0
  7  9  1  0
  2 10  1  0
 10 11  1  0
 11 12  1  0
 12 13  1  0
 13 14  1  1
 13 15  1  0
 15 16  1  0
 16 17  1  0
 17 18  2  0
 18 19  1  0
 19 20  1  0
 20 21  1  0
 21 22  1  0
 22 23  1  0
 22 24  1  0
 24 25  1  0
 24 26  1  0
 19 27  1  0
 27 28  1  6
 27 29  1  0
 29 30  1  0
 30 31  1  0
 31 32  1  6
  7  5  1  0
 31 10  1  0
 31 13  1  0
 27 15  1  0
 24 18  1  0
  1 33  1  0
  1 34  1  0
  1 35  1  0
  2 36  1  1
  3 37  1  0
  3 38  1  0
  4 39  1  0
  4 40  1  0
  5 41  1  6
  8 42  1  0
  8 43  1  0
  8 44  1  0
  9 45  1  0
  9 46  1  0
  9 47  1  0
 10 48  1  1
 11 49  1  0
 11 50  1  0
 12 51  1  0
 12 52  1  0
 14 53  1  0
 14 54  1  0
 14 55  1  0
 15 56  1  6
 16 57  1  0
 16 58  1  0
 17 59  1  0
 19 60  1  1
 20 61  1  0
 20 62  1  0
 21 63  1  0
 21 64  1  0
 22 65  1  1
 23 66  1  0
 25 67  1  0
 25 68  1  0
 25 69  1  0
 26 70  1  0
 26 71  1  0
 26 72  1  0
 28 73  1  0
 28 74  1  0
 28 75  1  0
 29 76  1  0
 29 77  1  0
 30 78  1  0
 30 79  1  0
 32 80  1  0
 32 81  1  0
 32 82  1  0
M  END
>  <meeko>  (9) 
{"is_sidechain": [false], "intermolecular_energy": 2.731, "internal_energy": -0.839}

$$$$
EPH_relaxed_0001_pdb2pqr_Repair_375_r2_0001_out
     RDKit          3D

 82 86  0  0  0  0  0  0  0  0999 V2000
    3.5590   18.5210   -2.4060 C   0  0  0  0  0  0  0  0  0  0  0  0
    2.2950   17.7020   -2.6810 C   0  0  2  0  0  0  0  0  0  0  0  0
    1.0130   18.4610   -2.2830 C   0  0  0  0  0  0  0  0  0  0  0  0
    1.1390   19.2340   -0.9670 C   0  0  0  0  0  0  0  0  0  0  0  0
   -0.1130   19.9930   -0.6490 C   0  0  2  0  0  0  0  0  0  0  0  0
   -0.3510   20.1940    0.7510 O   0  0  0  0  0  0  0  0  0  0  0  0
   -1.3080   19.3780    0.0550 C   0  0  0  0  0  0  0  0  0  0  0  0
   -1.3090   17.9440    0.4830 C   0  0  0  0  0  0  0  0  0  0  0  0
   -2.6470   20.0270   -0.1090 C   0  0  0  0  0  0  0  0  0  0  0  0
    2.3660   16.3730   -1.9390 C   0  0  1  0  0  0  0  0  0  0  0  0
    2.7280   16.5440   -0.4400 C   0  0  0  0  0  0  0  0  0  0  0  0
    1.9530   15.4480    0.3360 C   0  0  0  0  0  0  0  0  0  0  0  0
    1.4400   14.4850   -0.7590 C   0  0  1  0  0  0  0  0  0  0  0  0
    2.6580   13.5670   -1.0890 C   0  0  0  0  0  0  0  0  0  0  0  0
    0.1670   13.6490   -0.4030 C   0  0  2  0  0  0  0  0  0  0  0  0
    0.3340   12.6790    0.7800 C   0  0  0  0  0  0  0  0  0  0  0  0
    0.7910   11.3040    0.4170 C   0  0  0  0  0  0  0  0  0  0  0  0
    0.7850   10.7790   -0.8220 C   0  0  0  0  0  0  0  0  0  0  0  0
    0.1910   11.5570   -2.0040 C   0  0  1  0  0  0  0  0  0  0  0  0
   -0.7280   10.6200   -2.8310 C   0  0  0  0  0  0  0  0  0  0  0  0
   -0.0190    9.3430   -3.2700 C   0  0  0  0  0  0  0  0  0  0  0  0
    0.5070    8.5680   -2.0640 C   0  0  2  0  0  0  0  0  0  0  0  0
   -0.6070    8.0890   -1.3040 O   0  0  0  0  0  0  0  0  0  0  0  0
    1.4380    9.4140   -1.1510 C   0  0  0  0  0  0  0  0  0  0  0  0
    2.7790    9.6790   -1.8780 C   0  0  0  0  0  0  0  0  0  0  0  0
    1.7830    8.5610    0.1000 C   0  0  0  0  0  0  0  0  0  0  0  0
   -0.5090   12.9370   -1.6440 C   0  0  1  0  0  0  0  0  0  0  0  0
   -2.0000   12.6920   -1.2590 C   0  0  0  0  0  0  0  0  0  0  0  0
   -0.5260   13.8540   -2.9240 C   0  0  0  0  0  0  0  0  0  0  0  0
    0.7090   14.7450   -3.1560 C   0  0  0  0  0  0  0  0  0  0  0  0
    1.0740   15.5180   -1.8860 C   0  0  2  0  0  0  0  0  0  0  0  0
   -0.1240   16.4670   -1.5420 C   0  0  0  0  0  0  0  0  0  0  0  0
    3.7054   18.6158   -1.3199 H   0  0  0  0  0  0  0  0  0  0  0  0
    4.4283   18.0140   -2.8503 H   0  0  0  0  0  0  0  0  0  0  0  0
    3.4515   19.5215   -2.8503 H   0  0  0  0  0  0  0  0  0  0  0  0
    2.2471   17.5204   -3.7648 H   0  0  0  0  0  0  0  0  0  0  0  0
    0.7696   19.1752   -3.0834 H   0  0  0  0  0  0  0  0  0  0  0  0
    0.2247   17.7074   -2.1391 H   0  0  0  0  0  0  0  0  0  0  0  0
    1.3409   18.5221   -0.1531 H   0  0  0  0  0  0  0  0  0  0  0  0
    1.9616   19.9569   -1.0709 H   0  0  0  0  0  0  0  0  0  0  0  0
   -0.0238   20.5765   -1.5772 H   0  0  0  0  0  0  0  0  0  0  0  0
   -1.3090   17.8893    1.5816 H   0  0  0  0  0  0  0  0  0  0  0  0
   -2.2075   17.4450    0.0910 H   0  0  0  0  0  0  0  0  0  0  0  0
   -0.4112   17.4437    0.0910 H   0  0  0  0  0  0  0  0  0  0  0  0
   -3.0772   20.2355    0.8817 H   0  0  0  0  0  0  0  0  0  0  0  0
   -2.5321   20.9694   -0.6646 H   0  0  0  0  0  0  0  0  0  0  0  0
   -3.3156   19.3530   -0.6646 H   0  0  0  0  0  0  0  0  0  0  0  0
    3.1298   15.8641   -2.5453 H   0  0  0  0  0  0  0  0  0  0  0  0
    3.8109   16.4166   -0.2951 H   0  0  0  0  0  0  0  0  0  0  0  0
    2.4576   17.5479   -0.0807 H   0  0  0  0  0  0  0  0  0  0  0  0
    2.6198   14.9217    1.0348 H   0  0  0  0  0  0  0  0  0  0  0  0
    1.1350   15.8648    0.9420 H   0  0  0  0  0  0  0  0  0  0  0  0
    3.1193   13.2193   -0.1529 H   0  0  0  0  0  0  0  0  0  0  0  0
    2.3160   12.7001   -1.6734 H   0  0  0  0  0  0  0  0  0  0  0  0
    3.3972   14.1345   -1.6734 H   0  0  0  0  0  0  0  0  0  0  0  0
   -0.5350   14.4226   -0.0583 H   0  0  0  0  0  0  0  0  0  0  0  0
    1.0717   13.1108    1.4723 H   0  0  0  0  0  0  0  0  0  0  0  0
   -0.6669   12.5610    1.2209 H   0  0  0  0  0  0  0  0  0  0  0  0
    1.1642   10.6663    1.2319 H   0  0  0  0  0  0  0  0  0  0  0  0
    1.0458   11.8777   -2.6176 H   0  0  0  0  0  0  0  0  0  0  0  0
   -1.5979   10.3466   -2.2158 H   0  0  0  0  0  0  0  0  0  0  0  0
   -1.0286   11.1637   -3.7388 H   0  0  0  0  0  0  0  0  0  0  0  0
   -0.7281    8.7097   -3.8234 H   0  0  0  0  0  0  0  0  0  0  0  0
    0.8329    9.6169   -3.9098 H   0  0  0  0  0  0  0  0  0  0  0  0
    1.1156    7.7350   -2.4458 H   0  0  0  0  0  0  0  0  0  0  0  0
   -0.3480    8.0960   -0.3660 H   0  0  0  0  0  0  0  0  0  0  0  0
    3.5743    9.8362   -1.1345 H   0  0  0  0  0  0  0  0  0  0  0  0
    3.0318    8.8134   -2.5080 H   0  0  0  0  0  0  0  0  0  0  0  0
    2.6836   10.5757   -2.5080 H   0  0  0  0  0  0  0  0  0  0  0  0
    1.5512    9.1341    1.0099 H   0  0  0  0  0  0  0  0  0  0  0  0
    1.1885    7.6356    0.0881 H   0  0  0  0  0  0  0  0  0  0  0  0
    2.8537    8.3091    0.0881 H   0  0  0  0  0  0  0  0  0  0  0  0
   -2.0979   12.6759   -0.1635 H   0  0  0  0  0  0  0  0  0  0  0  0
   -2.6226   13.4999   -1.6710 H   0  0  0  0  0  0  0  0  0  0  0  0
   -2.3313   11.7274   -1.6710 H   0  0  0  0  0  0  0  0  0  0  0  0
   -0.6335   13.1991   -3.8012 H   0  0  0  0  0  0  0  0  0  0  0  0
   -1.3602   14.5534   -2.7662 H   0  0  0  0  0  0  0  0  0  0  0  0
    1.5595   14.1118   -3.4487 H   0  0  0  0  0  0  0  0  0  0  0  0
    0.4752   15.4680   -3.9514 H   0  0  0  0  0  0  0  0  0  0  0  0
   -0.2259   16.5477   -0.4497 H   0  0  0  0  0  0  0  0  0  0  0  0
    0.0640   17.4638   -1.9674 H   0  0  0  0  0  0  0  0  0  0  0  0
   -1.0513   16.0558   -1.9674 H   0  0  0  0  0  0  0  0  0  0  0  0
  1  2  1  0
  2  3  1  0
  3  4  1  0
  4  5  1  0
  5  6  1  0
  6  7  1  0
  7  8  1  0
  7  9  1  0
  2 10  1  0
 10 11  1  0
 11 12  1  0
 12 13  1  0
 13 14  1  6
 13 15  1  0
 15 16  1  0
 16 17  1  0
 17 18  2  0
 18 19  1  0
 19 20  1  0
 20 21  1  0
 21 22  1  0
 22 23  1  0
 22 24  1  0
 24 25  1  0
 24 26  1  0
 19 27  1  0
 27 28  1  1
 27 29  1  0
 29 30  1  0
 30 31  1  0
 31 32  1  1
  7  5  1  0
 31 10  1  0
 31 13  1  0
 27 15  1  0
 24 18  1  0
  1 33  1  0
  1 34  1  0
  1 35  1  0
  2 36  1  6
  3 37  1  0
  3 38  1  0
  4 39  1  0
  4 40  1  0
  5 41  1  6
  8 42  1  0
  8 43  1  0
  8 44  1  0
  9 45  1  0
  9 46  1  0
  9 47  1  0
 10 48  1  6
 11 49  1  0
 11 50  1  0
 12 51  1  0
 12 52  1  0
 14 53  1  0
 14 54  1  0
 14 55  1  0
 15 56  1  1
 16 57  1  0
 16 58  1  0
 17 59  1  0
 19 60  1  6
 20 61  1  0
 20 62  1  0
 21 63  1  0
 21 64  1  0
 22 65  1  6
 23 66  1  0
 25 67  1  0
 25 68  1  0
 25 69  1  0
 26 70  1  0
 26 71  1  0
 26 72  1  0
 28 73  1  0
 28 74  1  0
 28 75  1  0
 29 76  1  0
 29 77  1  0
 30 78  1  0
 30 79  1  0
 32 80  1  0
 32 81  1  0
 32 82  1  0
M  END
>  <meeko>  (10) 
{"is_sidechain": [false], "intermolecular_energy": 2.731, "internal_energy": -0.839}

$$$$
EPH_relaxed_0001_pdb2pqr_Repair_375_r2_0001_out
     RDKit          3D

 82 86  0  0  0  0  0  0  0  0999 V2000
   -0.8520   16.3540   -5.8370 C   0  0  0  0  0  0  0  0  0  0  0  0
    0.2310   15.6480   -6.6580 C   0  0  2  0  0  0  0  0  0  0  0  0
   -0.1820   15.4710   -8.1330 C   0  0  0  0  0  0  0  0  0  0  0  0
    0.4540   16.4950   -9.0770 C   0  0  0  0  0  0  0  0  0  0  0  0
    1.8550   16.1120   -9.4480 C   0  0  2  0  0  0  0  0  0  0  0  0
    2.3210   16.6670  -10.6850 O   0  0  0  0  0  0  0  0  0  0  0  0
    2.1960   15.2360  -10.6390 C   0  0  0  0  0  0  0  0  0  0  0  0
    1.1300   14.6890  -11.5360 C   0  0  0  0  0  0  0  0  0  0  0  0
    3.5090   14.5160  -10.6450 C   0  0  0  0  0  0  0  0  0  0  0  0
    0.5500   14.2920   -6.0410 C   0  0  1  0  0  0  0  0  0  0  0  0
    1.8160   13.6380   -6.6570 C   0  0  0  0  0  0  0  0  0  0  0  0
    2.5240   12.8680   -5.5130 C   0  0  0  0  0  0  0  0  0  0  0  0
    1.4830   12.8240   -4.3690 C   0  0  1  0  0  0  0  0  0  0  0  0
    0.5270   11.6470   -4.7410 C   0  0  0  0  0  0  0  0  0  0  0  0
    2.0530   12.6700   -2.9220 C   0  0  2  0  0  0  0  0  0  0  0  0
    2.8230   11.3640   -2.6590 C   0  0  0  0  0  0  0  0  0  0  0  0
    1.9980   10.2280   -2.1530 C   0  0  0  0  0  0  0  0  0  0  0  0
    0.7530   10.3280   -1.6500 C   0  0  0  0  0  0  0  0  0  0  0  0
    0.0890   11.6980   -1.4600 C   0  0  1  0  0  0  0  0  0  0  0  0
   -0.5590   11.7680   -0.0520 C   0  0  0  0  0  0  0  0  0  0  0  0
   -1.5200   10.6120    0.2090 C   0  0  0  0  0  0  0  0  0  0  0  0
   -0.8080    9.2690    0.0680 C   0  0  2  0  0  0  0  0  0  0  0  0
    0.1570    9.1460    1.1170 O   0  0  0  0  0  0  0  0  0  0  0  0
   -0.1090    9.0880   -1.3090 C   0  0  0  0  0  0  0  0  0  0  0  0
   -1.1770    8.9190   -2.4170 C   0  0  0  0  0  0  0  0  0  0  0  0
    0.6880    7.7560   -1.2680 C   0  0  0  0  0  0  0  0  0  0  0  0
    1.0000   12.9610   -1.7760 C   0  0  1  0  0  0  0  0  0  0  0  0
    1.8180   13.3570   -0.5100 C   0  0  0  0  0  0  0  0  0  0  0  0
    0.0760   14.1910   -2.1110 C   0  0  0  0  0  0  0  0  0  0  0  0
   -0.3560   14.3560   -3.5810 C   0  0  0  0  0  0  0  0  0  0  0  0
    0.8490   14.2550   -4.5210 C   0  0  2  0  0  0  0  0  0  0  0  0
    1.8180   15.4400   -4.1850 C   0  0  0  0  0  0  0  0  0  0  0  0
   -0.6455   16.2194   -4.7650 H   0  0  0  0  0  0  0  0  0  0  0  0
   -0.8537   17.4272   -6.0782 H   0  0  0  0  0  0  0  0  0  0  0  0
   -1.8347   15.9225   -6.0782 H   0  0  0  0  0  0  0  0  0  0  0  0
    1.1277   16.2849   -6.6398 H   0  0  0  0  0  0  0  0  0  0  0  0
    0.1182   14.4643   -8.4594 H   0  0  0  0  0  0  0  0  0  0  0  0
   -1.2706   15.6208   -8.1824 H   0  0  0  0  0  0  0  0  0  0  0  0
   -0.1520   16.5603   -9.9927 H   0  0  0  0  0  0  0  0  0  0  0  0
    0.4896   17.4641   -8.5578 H   0  0  0  0  0  0  0  0  0  0  0  0
    2.1462   16.0626   -8.3884 H   0  0  0  0  0  0  0  0  0  0  0  0
    0.3159   14.2712  -10.9255 H   0  0  0  0  0  0  0  0  0  0  0  0
    0.7353   15.4960  -12.1709 H   0  0  0  0  0  0  0  0  0  0  0  0
    1.5554   13.8978  -12.1709 H   0  0  0  0  0  0  0  0  0  0  0  0
    3.8341   14.3377   -9.6094 H   0  0  0  0  0  0  0  0  0  0  0  0
    3.3968   13.5532  -11.1650 H   0  0  0  0  0  0  0  0  0  0  0  0
    4.2605   15.1282  -11.1650 H   0  0  0  0  0  0  0  0  0  0  0  0
   -0.3932   13.7669   -6.2524 H   0  0  0  0  0  0  0  0  0  0  0  0
    1.5305   12.9435   -7.4609 H   0  0  0  0  0  0  0  0  0  0  0  0
    2.4813   14.3985   -7.0917 H   0  0  0  0  0  0  0  0  0  0  0  0
    2.7893   11.8505   -5.8359 H   0  0  0  0  0  0  0  0  0  0  0  0
    3.4629   13.3507   -5.2041 H   0  0  0  0  0  0  0  0  0  0  0  0
    0.1467   11.1788   -3.8211 H   0  0  0  0  0  0  0  0  0  0  0  0
   -0.3168   12.0327   -5.3320 H   0  0  0  0  0  0  0  0  0  0  0  0
    1.0775   10.9002   -5.3320 H   0  0  0  0  0  0  0  0  0  0  0  0
    2.8035   13.4730   -2.8778 H   0  0  0  0  0  0  0  0  0  0  0  0
    3.2914   11.0496   -3.6033 H   0  0  0  0  0  0  0  0  0  0  0  0
    3.5467   11.5927   -1.8627 H   0  0  0  0  0  0  0  0  0  0  0  0
    2.4449    9.2237   -2.1945 H   0  0  0  0  0  0  0  0  0  0  0  0
   -0.6897   11.7681   -2.2338 H   0  0  0  0  0  0  0  0  0  0  0  0
    0.2388   11.7408    0.7049 H   0  0  0  0  0  0  0  0  0  0  0  0
   -1.1379   12.7017    0.0026 H   0  0  0  0  0  0  0  0  0  0  0  0
   -1.9219   10.7011    1.2290 H   0  0  0  0  0  0  0  0  0  0  0  0
   -2.3335   10.6577   -0.5300 H   0  0  0  0  0  0  0  0  0  0  0  0
   -1.5727    8.4814    0.1378 H   0  0  0  0  0  0  0  0  0  0  0  0
    0.9990    8.8780    0.7130 H   0  0  0  0  0  0  0  0  0  0  0  0
   -2.1630    8.7630   -1.9551 H   0  0  0  0  0  0  0  0  0  0  0  0
   -1.2038    9.8241   -3.0416 H   0  0  0  0  0  0  0  0  0  0  0  0
   -0.9230    8.0499   -3.0416 H   0  0  0  0  0  0  0  0  0  0  0  0
    0.8621    7.4650   -0.2216 H   0  0  0  0  0  0  0  0  0  0  0  0
    0.1125    6.9686   -1.7767 H   0  0  0  0  0  0  0  0  0  0  0  0
    1.6539    7.8909   -1.7767 H   0  0  0  0  0  0  0  0  0  0  0  0
    1.2522   13.0831    0.3927 H   0  0  0  0  0  0  0  0  0  0  0  0
    2.7810   12.8253   -0.5145 H   0  0  0  0  0  0  0  0  0  0  0  0
    1.9983   14.4421   -0.5145 H   0  0  0  0  0  0  0  0  0  0  0  0
   -0.8369   14.0963   -1.5046 H   0  0  0  0  0  0  0  0  0  0  0  0
    0.6869   15.0785   -1.8894 H   0  0  0  0  0  0  0  0  0  0  0  0
   -1.0777   13.5656   -3.8349 H   0  0  0  0  0  0  0  0  0  0  0  0
   -0.8137   15.3488   -3.7028 H   0  0  0  0  0  0  0  0  0  0  0  0
    1.9040   15.5451   -3.0934 H   0  0  0  0  0  0  0  0  0  0  0  0
    2.8104   15.2348   -4.6129 H   0  0  0  0  0  0  0  0  0  0  0  0
    1.4198   16.3719   -4.6129 H   0  0  0  0  0  0  0  0  0  0  0  0
  1  2  1  0
  2  3  1  0
  3  4  1  0
  4  5  1  0
  5  6  1  0
  6  7  1  0
  7  8  1  0
  7  9  1  0
  2 10  1  0
 10 11  1  0
 11 12  1  0
 12 13  1  0
 13 14  1  6
 13 15  1  0
 15 16  1  0
 16 17  1  0
 17 18  2  0
 18 19  1  0
 19 20  1  0
 20 21  1  0
 21 22  1  0
 22 23  1  0
 22 24  1  0
 24 25  1  0
 24 26  1  0
 19 27  1  0
 27 28  1  1
 27 29  1  0
 29 30  1  0
 30 31  1  0
 31 32  1  1
  7  5  1  0
 31 10  1  0
 31 13  1  0
 27 15  1  0
 24 18  1  0
  1 33  1  0
  1 34  1  0
  1 35  1  0
  2 36  1  6
  3 37  1  0
  3 38  1  0
  4 39  1  0
  4 40  1  0
  5 41  1  1
  8 42  1  0
  8 43  1  0
  8 44  1  0
  9 45  1  0
  9 46  1  0
  9 47  1  0
 10 48  1  1
 11 49  1  0
 11 50  1  0
 12 51  1  0
 12 52  1  0
 14 53  1  0
 14 54  1  0
 14 55  1  0
 15 56  1  6
 16 57  1  0
 16 58  1  0
 17 59  1  0
 19 60  1  6
 20 61  1  0
 20 62  1  0
 21 63  1  0
 21 64  1  0
 22 65  1  1
 23 66  1  0
 25 67  1  0
 25 68  1  0
 25 69  1  0
 26 70  1  0
 26 71  1  0
 26 72  1  0
 28 73  1  0
 28 74  1  0
 28 75  1  0
 29 76  1  0
 29 77  1  0
 30 78  1  0
 30 79  1  0
 32 80  1  0
 32 81  1  0
 32 82  1  0
M  END
>  <meeko>  (11) 
{"is_sidechain": [false], "intermolecular_energy": 2.731, "internal_energy": -0.839}

$$$$
EPH_relaxed_0001_pdb2pqr_Repair_375_r2_0001_out
     RDKit          3D

 82 86  0  0  0  0  0  0  0  0999 V2000
    0.0590    9.4350   -2.5470 C   0  0  0  0  0  0  0  0  0  0  0  0
    1.1830   10.4090   -2.9100 C   0  0  2  0  0  0  0  0  0  0  0  0
    2.5640    9.7230   -2.9230 C   0  0  0  0  0  0  0  0  0  0  0  0
    3.5410   10.3250   -3.9360 C   0  0  0  0  0  0  0  0  0  0  0  0
    4.9130   10.4880   -3.3550 C   0  0  2  0  0  0  0  0  0  0  0  0
    5.4770   11.7970   -3.5090 O   0  0  0  0  0  0  0  0  0  0  0  0
    6.1540   10.7300   -4.1940 C   0  0  0  0  0  0  0  0  0  0  0  0
    6.0810   10.8220   -5.6860 C   0  0  0  0  0  0  0  0  0  0  0  0
    7.4890   10.3910   -3.6090 C   0  0  0  0  0  0  0  0  0  0  0  0
    1.1920   11.5800   -1.9340 C   0  0  1  0  0  0  0  0  0  0  0  0
    2.2660   11.4240   -0.8240 C   0  0  0  0  0  0  0  0  0  0  0  0
    2.7930   12.8480   -0.5100 C   0  0  0  0  0  0  0  0  0  0  0  0
    1.7850   13.7980   -1.1980 C   0  0  1  0  0  0  0  0  0  0  0  0
    0.5810   13.8890   -0.2090 C   0  0  0  0  0  0  0  0  0  0  0  0
    2.3240   15.2140   -1.5840 C   0  0  2  0  0  0  0  0  0  0  0  0
    2.7780   16.0850   -0.4000 C   0  0  0  0  0  0  0  0  0  0  0  0
    1.7210   16.9570    0.1930 C   0  0  0  0  0  0  0  0  0  0  0  0
    0.5400   17.2530   -0.3800 C   0  0  0  0  0  0  0  0  0  0  0  0
    0.2090   16.7700   -1.7980 C   0  0  1  0  0  0  0  0  0  0  0  0
   -0.3870   17.9440   -2.6190 C   0  0  0  0  0  0  0  0  0  0  0  0
   -1.5830   18.5920   -1.9300 C   0  0  0  0  0  0  0  0  0  0  0  0
   -1.2000   19.1120   -0.5470 C   0  0  2  0  0  0  0  0  0  0  0  0
   -0.2750   20.1930   -0.7010 O   0  0  0  0  0  0  0  0  0  0  0  0
   -0.5790   18.0190    0.3680 C   0  0  0  0  0  0  0  0  0  0  0  0
   -1.6720   17.0030    0.7800 C   0  0  0  0  0  0  0  0  0  0  0  0
   -0.1080   18.7050    1.6790 C   0  0  0  0  0  0  0  0  0  0  0  0
    1.3810   16.0210   -2.5660 C   0  0  1  0  0  0  0  0  0  0  0  0
    2.2850   17.0580   -3.3000 C   0  0  0  0  0  0  0  0  0  0  0  0
    0.7590   15.1040   -3.6850 C   0  0  0  0  0  0  0  0  0  0  0  0
    0.3570   13.6760   -3.2700 C   0  0  0  0  0  0  0  0  0  0  0  0
    1.4940   12.9850   -2.5120 C   0  0  2  0  0  0  0  0  0  0  0  0
    2.7130   12.8590   -3.4880 C   0  0  0  0  0  0  0  0  0  0  0  0
   -0.0244    9.3628   -1.4525 H   0  0  0  0  0  0  0  0  0  0  0  0
   -0.8913    9.8000   -2.9638 H   0  0  0  0  0  0  0  0  0  0  0  0
    0.2851    8.4424   -2.9638 H   0  0  0  0  0  0  0  0  0  0  0  0
    0.9869   10.7757   -3.9284 H   0  0  0  0  0  0  0  0  0  0  0  0
    3.0055    9.8123   -1.9195 H   0  0  0  0  0  0  0  0  0  0  0  0
    2.3999    8.6760   -3.2179 H   0  0  0  0  0  0  0  0  0  0  0  0
    3.6012    9.6610   -4.8110 H   0  0  0  0  0  0  0  0  0  0  0  0
    3.1691   11.3203   -4.2207 H   0  0  0  0  0  0  0  0  0  0  0  0
    4.6892    9.7590   -2.5623 H   0  0  0  0  0  0  0  0  0  0  0  0
    5.4205   11.6544   -5.9701 H   0  0  0  0  0  0  0  0  0  0  0  0
    7.0880   10.9979   -6.0922 H   0  0  0  0  0  0  0  0  0  0  0  0
    5.6809    9.8813   -6.0922 H   0  0  0  0  0  0  0  0  0  0  0  0
    7.4232   10.4077   -2.5111 H   0  0  0  0  0  0  0  0  0  0  0  0
    7.7915    9.3875   -3.9429 H   0  0  0  0  0  0  0  0  0  0  0  0
    8.2336   11.1286   -3.9429 H   0  0  0  0  0  0  0  0  0  0  0  0
    0.1510   11.5346   -1.5814 H   0  0  0  0  0  0  0  0  0  0  0  0
    1.8184   10.9784    0.0766 H   0  0  0  0  0  0  0  0  0  0  0  0
    3.0821   10.7640   -1.1533 H   0  0  0  0  0  0  0  0  0  0  0  0
    2.8134   13.0238    0.5757 H   0  0  0  0  0  0  0  0  0  0  0  0
    3.8215   13.0005   -0.8689 H   0  0  0  0  0  0  0  0  0  0  0  0
    0.9534   13.8609    0.8256 H   0  0  0  0  0  0  0  0  0  0  0  0
    0.0382   14.8307   -0.3778 H   0  0  0  0  0  0  0  0  0  0  0  0
   -0.0972   13.0396   -0.3778 H   0  0  0  0  0  0  0  0  0  0  0  0
    3.2387   14.9725   -2.1453 H   0  0  0  0  0  0  0  0  0  0  0  0
    3.1501   15.4167    0.3905 H   0  0  0  0  0  0  0  0  0  0  0  0
    3.5448   16.7652   -0.7993 H   0  0  0  0  0  0  0  0  0  0  0  0
    1.9249   17.3943    1.1815 H   0  0  0  0  0  0  0  0  0  0  0  0
   -0.5438   15.9765   -1.6814 H   0  0  0  0  0  0  0  0  0  0  0  0
    0.3932   18.7062   -2.7617 H   0  0  0  0  0  0  0  0  0  0  0  0
   -0.7356   17.5364   -3.5794 H   0  0  0  0  0  0  0  0  0  0  0  0
   -1.9407   19.4317   -2.5440 H   0  0  0  0  0  0  0  0  0  0  0  0
   -2.3736   17.8360   -1.8143 H   0  0  0  0  0  0  0  0  0  0  0  0
   -2.1239   19.4470   -0.0528 H   0  0  0  0  0  0  0  0  0  0  0  0
   -0.5090   20.8750   -0.0480 H   0  0  0  0  0  0  0  0  0  0  0  0
   -1.7287   16.9503    1.8773 H   0  0  0  0  0  0  0  0  0  0  0  0
   -2.6434   17.3262    0.3777 H   0  0  0  0  0  0  0  0  0  0  0  0
   -1.4205   16.0106    0.3777 H   0  0  0  0  0  0  0  0  0  0  0  0
   -0.4924   18.1451    2.5443 H   0  0  0  0  0  0  0  0  0  0  0  0
    0.9914   18.7195    1.7107 H   0  0  0  0  0  0  0  0  0  0  0  0
   -0.4894   19.7363    1.7107 H   0  0  0  0  0  0  0  0  0  0  0  0
    2.8184   17.6698   -2.5576 H   0  0  0  0  0  0  0  0  0  0  0  0
    3.0142   16.5277   -3.9301 H   0  0  0  0  0  0  0  0  0  0  0  0
    1.6602   17.7080   -3.9301 H   0  0  0  0  0  0  0  0  0  0  0  0
   -0.1432   15.6067   -4.0636 H   0  0  0  0  0  0  0  0  0  0  0  0
    1.5601   14.9728   -4.4273 H   0  0  0  0  0  0  0  0  0  0  0  0
   -0.5298   13.7260   -2.6211 H   0  0  0  0  0  0  0  0  0  0  0  0
    0.1373   13.0955   -4.1782 H   0  0  0  0  0  0  0  0  0  0  0  0
    3.6410   12.7631   -2.9052 H   0  0  0  0  0  0  0  0  0  0  0  0
    2.5846   11.9693   -4.1221 H   0  0  0  0  0  0  0  0  0  0  0  0
    2.7693   13.7561   -4.1221 H   0  0  0  0  0  0  0  0  0  0  0  0
  1  2  1  0
  2  3  1  0
  3  4  1  0
  4  5  1  0
  5  6  1  0
  6  7  1  0
  7  8  1  0
  7  9  1  0
  2 10  1  0
 10 11  1  0
 11 12  1  0
 12 13  1  0
 13 14  1  1
 13 15  1  0
 15 16  1  0
 16 17  1  0
 17 18  2  0
 18 19  1  0
 19 20  1  0
 20 21  1  0
 21 22  1  0
 22 23  1  0
 22 24  1  0
 24 25  1  0
 24 26  1  0
 19 27  1  0
 27 28  1  6
 27 29  1  0
 29 30  1  0
 30 31  1  0
 31 32  1  6
  7  5  1  0
 31 10  1  0
 31 13  1  0
 27 15  1  0
 24 18  1  0
  1 33  1  0
  1 34  1  0
  1 35  1  0
  2 36  1  6
  3 37  1  0
  3 38  1  0
  4 39  1  0
  4 40  1  0
  5 41  1  1
  8 42  1  0
  8 43  1  0
  8 44  1  0
  9 45  1  0
  9 46  1  0
  9 47  1  0
 10 48  1  1
 11 49  1  0
 11 50  1  0
 12 51  1  0
 12 52  1  0
 14 53  1  0
 14 54  1  0
 14 55  1  0
 15 56  1  6
 16 57  1  0
 16 58  1  0
 17 59  1  0
 19 60  1  1
 20 61  1  0
 20 62  1  0
 21 63  1  0
 21 64  1  0
 22 65  1  1
 23 66  1  0
 25 67  1  0
 25 68  1  0
 25 69  1  0
 26 70  1  0
 26 71  1  0
 26 72  1  0
 28 73  1  0
 28 74  1  0
 28 75  1  0
 29 76  1  0
 29 77  1  0
 30 78  1  0
 30 79  1  0
 32 80  1  0
 32 81  1  0
 32 82  1  0
M  END
>  <meeko>  (12) 
{"is_sidechain": [false], "intermolecular_energy": 2.731, "internal_energy": -0.839}

$$$$
EPH_relaxed_0001_pdb2pqr_Repair_375_r2_0001_out
     RDKit          3D

 82 86  0  0  0  0  0  0  0  0999 V2000
   -3.8780    7.3130   -3.5860 C   0  0  0  0  0  0  0  0  0  0  0  0
   -3.6480    7.2440   -2.0730 C   0  0  2  0  0  0  0  0  0  0  0  0
   -4.9210    6.8280   -1.3110 C   0  0  0  0  0  0  0  0  0  0  0  0
   -5.9990    6.2090   -2.2040 C   0  0  0  0  0  0  0  0  0  0  0  0
   -7.3770    6.6090   -1.7690 C   0  0  2  0  0  0  0  0  0  0  0  0
   -8.2890    5.5170   -1.5930 O   0  0  0  0  0  0  0  0  0  0  0  0
   -8.6090    6.4480   -2.6400 C   0  0  0  0  0  0  0  0  0  0  0  0
   -8.5210    5.8690   -4.0170 C   0  0  0  0  0  0  0  0  0  0  0  0
   -9.8070    7.2960   -2.3480 C   0  0  0  0  0  0  0  0  0  0  0  0
   -3.1510    8.5920   -1.5620 C   0  0  1  0  0  0  0  0  0  0  0  0
   -3.8200    9.0070   -0.2250 C   0  0  0  0  0  0  0  0  0  0  0  0
   -2.7470    9.7680    0.5950 C   0  0  0  0  0  0  0  0  0  0  0  0
   -1.6140   10.0550   -0.4180 C   0  0  1  0  0  0  0  0  0  0  0  0
   -2.0890   11.3170   -1.2040 C   0  0  0  0  0  0  0  0  0  0  0  0
   -0.1840   10.2540    0.1830 C   0  0  2  0  0  0  0  0  0  0  0  0
   -0.0360   11.4580    1.1300 C   0  0  0  0  0  0  0  0  0  0  0  0
    0.3670   12.7380    0.4760 C   0  0  0  0  0  0  0  0  0  0  0  0
    0.8750   12.8560   -0.7650 C   0  0  0  0  0  0  0  0  0  0  0  0
    1.1830   11.6150   -1.6110 C   0  0  1  0  0  0  0  0  0  0  0  0
    2.5910   11.7580   -2.2480 C   0  0  0  0  0  0  0  0  0  0  0  0
    2.7470   13.0550   -3.0360 C   0  0  0  0  0  0  0  0  0  0  0  0
    2.4900   14.2680   -2.1460 C   0  0  2  0  0  0  0  0  0  0  0  0
    3.5260   14.3470   -1.1630 O   0  0  0  0  0  0  0  0  0  0  0  0
    1.1040   14.2300   -1.4430 C   0  0  0  0  0  0  0  0  0  0  0  0
   -0.0170   14.4480   -2.4890 C   0  0  0  0  0  0  0  0  0  0  0  0
    1.0290   15.4360   -0.4680 C   0  0  0  0  0  0  0  0  0  0  0  0
    0.9800   10.2140   -0.8870 C   0  0  1  0  0  0  0  0  0  0  0  0
    2.2790    9.8200   -0.1190 C   0  0  0  0  0  0  0  0  0  0  0  0
    0.7540    9.1000   -1.9770 C   0  0  0  0  0  0  0  0  0  0  0  0
   -0.6970    8.8690   -2.4430 C   0  0  0  0  0  0  0  0  0  0  0  0
   -1.6400    8.7190   -1.2450 C   0  0  2  0  0  0  0  0  0  0  0  0
   -1.2000    7.4440   -0.4470 C   0  0  0  0  0  0  0  0  0  0  0  0
   -4.9141    7.6238   -3.7856 H   0  0  0  0  0  0  0  0  0  0  0  0
   -3.1844    8.0426   -4.0294 H   0  0  0  0  0  0  0  0  0  0  0  0
   -3.7006    6.3221   -4.0294 H   0  0  0  0  0  0  0  0  0  0  0  0
   -2.8864    6.4722   -1.8880 H   0  0  0  0  0  0  0  0  0  0  0  0
   -4.6410    6.0914   -0.5435 H   0  0  0  0  0  0  0  0  0  0  0  0
   -5.3497    7.7438   -0.8779 H   0  0  0  0  0  0  0  0  0  0  0  0
   -5.8404    6.5452   -3.2393 H   0  0  0  0  0  0  0  0  0  0  0  0
   -5.9199    5.1145   -2.1282 H   0  0  0  0  0  0  0  0  0  0  0  0
   -6.9770    7.4668   -1.2085 H   0  0  0  0  0  0  0  0  0  0  0  0
   -8.3560    4.7836   -3.9485 H   0  0  0  0  0  0  0  0  0  0  0  0
   -9.4591    6.0639   -4.5574 H   0  0  0  0  0  0  0  0  0  0  0  0
   -7.6832    6.3338   -4.5574 H   0  0  0  0  0  0  0  0  0  0  0  0
   -9.9354    7.3869   -1.2593 H   0  0  0  0  0  0  0  0  0  0  0  0
   -9.6642    8.2953   -2.7850 H   0  0  0  0  0  0  0  0  0  0  0  0
  -10.7020    6.8292   -2.7850 H   0  0  0  0  0  0  0  0  0  0  0  0
   -3.4087    9.2231   -2.4253 H   0  0  0  0  0  0  0  0  0  0  0  0
   -4.6823    9.6615   -0.4201 H   0  0  0  0  0  0  0  0  0  0  0  0
   -4.1853    8.1264    0.3238 H   0  0  0  0  0  0  0  0  0  0  0  0
   -3.1574   10.7069    0.9951 H   0  0  0  0  0  0  0  0  0  0  0  0
   -2.3954    9.1889    1.4616 H   0  0  0  0  0  0  0  0  0  0  0  0
   -2.3846   12.1023   -0.4927 H   0  0  0  0  0  0  0  0  0  0  0  0
   -1.2680   11.6855   -1.8366 H   0  0  0  0  0  0  0  0  0  0  0  0
   -2.9492   11.0527   -1.8366 H   0  0  0  0  0  0  0  0  0  0  0  0
   -0.0674    9.3610    0.8146 H   0  0  0  0  0  0  0  0  0  0  0  0
   -1.0037   11.6203    1.6272 H   0  0  0  0  0  0  0  0  0  0  0  0
    0.7782   11.2012    1.8237 H   0  0  0  0  0  0  0  0  0  0  0  0
    0.2379   13.6629    1.0573 H   0  0  0  0  0  0  0  0  0  0  0  0
    0.4174   11.5879   -2.4004 H   0  0  0  0  0  0  0  0  0  0  0  0
    3.3442   11.7394   -1.4466 H   0  0  0  0  0  0  0  0  0  0  0  0
    2.7266   10.9221   -2.9501 H   0  0  0  0  0  0  0  0  0  0  0  0
    3.7700   13.1123   -3.4361 H   0  0  0  0  0  0  0  0  0  0  0  0
    2.0129   13.0587   -3.8552 H   0  0  0  0  0  0  0  0  0  0  0  0
    2.4887   15.1572   -2.7936 H   0  0  0  0  0  0  0  0  0  0  0  0
    3.3510   15.1290   -0.6120 H   0  0  0  0  0  0  0  0  0  0  0  0
   -0.9700   14.6333   -1.9719 H   0  0  0  0  0  0  0  0  0  0  0  0
    0.2328   15.3144   -3.1190 H   0  0  0  0  0  0  0  0  0  0  0  0
   -0.1101   13.5511   -3.1190 H   0  0  0  0  0  0  0  0  0  0  0  0
    1.0517   15.0708    0.5694 H   0  0  0  0  0  0  0  0  0  0  0  0
    1.8875   16.1016   -0.6413 H   0  0  0  0  0  0  0  0  0  0  0  0
    0.0947   15.9901   -0.6413 H   0  0  0  0  0  0  0  0  0  0  0  0
    2.0957    9.8756    0.9642 H   0  0  0  0  0  0  0  0  0  0  0  0
    2.5681    8.7938   -0.3898 H   0  0  0  0  0  0  0  0  0  0  0  0
    3.0894   10.5127   -0.3898 H   0  0  0  0  0  0  0  0  0  0  0  0
    1.3481    9.3741   -2.8613 H   0  0  0  0  0  0  0  0  0  0  0  0
    1.0548    8.1587   -1.4938 H   0  0  0  0  0  0  0  0  0  0  0  0
   -1.0207    9.7269   -3.0507 H   0  0  0  0  0  0  0  0  0  0  0  0
   -0.7321    7.9427   -3.0353 H   0  0  0  0  0  0  0  0  0  0  0  0
   -1.2693    7.6449    0.6323 H   0  0  0  0  0  0  0  0  0  0  0  0
   -1.8599    6.6031   -0.7066 H   0  0  0  0  0  0  0  0  0  0  0  0
   -0.1619    7.1891   -0.7066 H   0  0  0  0  0  0  0  0  0  0  0  0
  1  2  1  0
  2  3  1  0
  3  4  1  0
  4  5  1  0
  5  6  1  0
  6  7  1  0
  7  8  1  0
  7  9  1  0
  2 10  1  0
 10 11  1  0
 11 12  1  0
 12 13  1  0
 13 14  1  6
 13 15  1  0
 15 16  1  0
 16 17  1  0
 17 18  2  0
 18 19  1  0
 19 20  1  0
 20 21  1  0
 21 22  1  0
 22 23  1  0
 22 24  1  0
 24 25  1  0
 24 26  1  0
 19 27  1  0
 27 28  1  1
 27 29  1  0
 29 30  1  0
 30 31  1  0
 31 32  1  1
  7  5  1  0
 31 10  1  0
 31 13  1  0
 27 15  1  0
 24 18  1  0
  1 33  1  0
  1 34  1  0
  1 35  1  0
  2 36  1  6
  3 37  1  0
  3 38  1  0
  4 39  1  0
  4 40  1  0
  5 41  1  1
  8 42  1  0
  8 43  1  0
  8 44  1  0
  9 45  1  0
  9 46  1  0
  9 47  1  0
 10 48  1  6
 11 49  1  0
 11 50  1  0
 12 51  1  0
 12 52  1  0
 14 53  1  0
 14 54  1  0
 14 55  1  0
 15 56  1  1
 16 57  1  0
 16 58  1  0
 17 59  1  0
 19 60  1  6
 20 61  1  0
 20 62  1  0
 21 63  1  0
 21 64  1  0
 22 65  1  6
 23 66  1  0
 25 67  1  0
 25 68  1  0
 25 69  1  0
 26 70  1  0
 26 71  1  0
 26 72  1  0
 28 73  1  0
 28 74  1  0
 28 75  1  0
 29 76  1  0
 29 77  1  0
 30 78  1  0
 30 79  1  0
 32 80  1  0
 32 81  1  0
 32 82  1  0
M  END
>  <meeko>  (13) 
{"is_sidechain": [false], "intermolecular_energy": 2.731, "internal_energy": -0.839}

$$$$
EPH_relaxed_0001_pdb2pqr_Repair_375_r2_0001_out
     RDKit          3D

 82 86  0  0  0  0  0  0  0  0999 V2000
   -2.1730    7.8460   -2.0280 C   0  0  0  0  0  0  0  0  0  0  0  0
   -2.2060    8.5060   -0.6460 C   0  0  2  0  0  0  0  0  0  0  0  0
   -3.6250    8.5190   -0.0430 C   0  0  0  0  0  0  0  0  0  0  0  0
   -4.7400    8.4690   -1.0910 C   0  0  0  0  0  0  0  0  0  0  0  0
   -5.6760    7.3240   -0.8510 C   0  0  2  0  0  0  0  0  0  0  0  0
   -5.1120    6.0280   -1.0900 O   0  0  0  0  0  0  0  0  0  0  0  0
   -6.1910    6.4190   -1.9540 C   0  0  0  0  0  0  0  0  0  0  0  0
   -5.7870    6.6200   -3.3810 C   0  0  0  0  0  0  0  0  0  0  0  0
   -7.4570    5.6550   -1.7190 C   0  0  0  0  0  0  0  0  0  0  0  0
   -1.6650    9.9280   -0.7360 C   0  0  1  0  0  0  0  0  0  0  0  0
   -1.1950   10.4760    0.6370 C   0  0  0  0  0  0  0  0  0  0  0  0
    0.0310   11.3830    0.3610 C   0  0  0  0  0  0  0  0  0  0  0  0
    0.0250   11.5930   -1.1710 C   0  0  1  0  0  0  0  0  0  0  0  0
   -1.0240   12.7220   -1.4170 C   0  0  0  0  0  0  0  0  0  0  0  0
    1.4020   11.9310   -1.8290 C   0  0  2  0  0  0  0  0  0  0  0  0
    2.0420   13.2500   -1.3610 C   0  0  0  0  0  0  0  0  0  0  0  0
    1.6800   14.4550   -2.1640 C   0  0  0  0  0  0  0  0  0  0  0  0
    1.1060   14.4400   -3.3820 C   0  0  0  0  0  0  0  0  0  0  0  0
    0.8520   13.1170   -4.1160 C   0  0  1  0  0  0  0  0  0  0  0  0
    1.3210   13.2440   -5.5890 C   0  0  0  0  0  0  0  0  0  0  0  0
    0.6940   14.4370   -6.3030 C   0  0  0  0  0  0  0  0  0  0  0  0
    1.0170   15.7400   -5.5750 C   0  0  2  0  0  0  0  0  0  0  0  0
    2.4220   15.9890   -5.6790 O   0  0  0  0  0  0  0  0  0  0  0  0
    0.5980   15.7260   -4.0780 C   0  0  0  0  0  0  0  0  0  0  0  0
   -0.9470   15.7600   -3.9700 C   0  0  0  0  0  0  0  0  0  0  0  0
    1.1070   17.0400   -3.4280 C   0  0  0  0  0  0  0  0  0  0  0  0
    1.4140   11.8110   -3.4060 C   0  0  1  0  0  0  0  0  0  0  0  0
    2.8990   11.5760   -3.8230 C   0  0  0  0  0  0  0  0  0  0  0  0
    0.6070   10.5600   -3.9170 C   0  0  0  0  0  0  0  0  0  0  0  0
   -0.6830   10.2050   -3.1520 C   0  0  0  0  0  0  0  0  0  0  0  0
   -0.4300   10.1630   -1.6420 C   0  0  2  0  0  0  0  0  0  0  0  0
    0.6050    9.0210   -1.3620 C   0  0  0  0  0  0  0  0  0  0  0  0
   -2.1184    6.7536   -1.9114 H   0  0  0  0  0  0  0  0  0  0  0  0
   -3.0855    8.1104   -2.5825 H   0  0  0  0  0  0  0  0  0  0  0  0
   -1.2914    8.2001   -2.5825 H   0  0  0  0  0  0  0  0  0  0  0  0
   -1.5689    7.9078    0.0220 H   0  0  0  0  0  0  0  0  0  0  0  0
   -3.7297    7.6455    0.6173 H   0  0  0  0  0  0  0  0  0  0  0  0
   -3.7353    9.4702    0.4984 H   0  0  0  0  0  0  0  0  0  0  0  0
   -5.3094    9.4093   -1.0506 H   0  0  0  0  0  0  0  0  0  0  0  0
   -4.2759    8.3309   -2.0787 H   0  0  0  0  0  0  0  0  0  0  0  0
   -6.1894    7.8812   -0.0536 H   0  0  0  0  0  0  0  0  0  0  0  0
   -4.8027    7.1097   -3.4179 H   0  0  0  0  0  0  0  0  0  0  0  0
   -5.7306    5.6449   -3.8869 H   0  0  0  0  0  0  0  0  0  0  0  0
   -6.5307    7.2531   -3.8869 H   0  0  0  0  0  0  0  0  0  0  0  0
   -7.6277    5.5520   -0.6372 H   0  0  0  0  0  0  0  0  0  0  0  0
   -8.3008    6.1948   -2.1736 H   0  0  0  0  0  0  0  0  0  0  0  0
   -7.3727    4.6569   -2.1736 H   0  0  0  0  0  0  0  0  0  0  0  0
   -2.5448   10.4336   -1.1606 H   0  0  0  0  0  0  0  0  0  0  0  0
   -1.9999   11.0599    1.1073 H   0  0  0  0  0  0  0  0  0  0  0  0
   -0.9329    9.6553    1.3209 H   0  0  0  0  0  0  0  0  0  0  0  0
   -0.0718   12.3447    0.8850 H   0  0  0  0  0  0  0  0  0  0  0  0
    0.9701   10.9339    0.7165 H   0  0  0  0  0  0  0  0  0  0  0  0
   -1.3817   13.1070   -0.4507 H   0  0  0  0  0  0  0  0  0  0  0  0
   -0.5569   13.5387   -1.9869 H   0  0  0  0  0  0  0  0  0  0  0  0
   -1.8728   12.3160   -1.9869 H   0  0  0  0  0  0  0  0  0  0  0  0
    2.0503   11.1303   -1.4435 H   0  0  0  0  0  0  0  0  0  0  0  0
    1.7308   13.4285   -0.3212 H   0  0  0  0  0  0  0  0  0  0  0  0
    3.1278   13.1202   -1.4801 H   0  0  0  0  0  0  0  0  0  0  0  0
    1.9008   15.4385   -1.7235 H   0  0  0  0  0  0  0  0  0  0  0  0
   -0.2355   12.9549   -4.0836 H   0  0  0  0  0  0  0  0  0  0  0  0
    2.4147   13.3607   -5.6017 H   0  0  0  0  0  0  0  0  0  0  0  0
    1.0041   12.3339   -6.1194 H   0  0  0  0  0  0  0  0  0  0  0  0
    1.0879   14.4904   -7.3287 H   0  0  0  0  0  0  0  0  0  0  0  0
   -0.3978   14.3038   -6.3168 H   0  0  0  0  0  0  0  0  0  0  0  0
    0.4347   16.5399   -6.0557 H   0  0  0  0  0  0  0  0  0  0  0  0
    2.8740   15.3910   -5.0590 H   0  0  0  0  0  0  0  0  0  0  0  0
   -1.2404   15.7665   -2.9099 H   0  0  0  0  0  0  0  0  0  0  0  0
   -1.3291   16.6668   -4.4617 H   0  0  0  0  0  0  0  0  0  0  0  0
   -1.3686   14.8709   -4.4617 H   0  0  0  0  0  0  0  0  0  0  0  0
    1.0704   16.9454   -2.3327 H   0  0  0  0  0  0  0  0  0  0  0  0
    2.1432   17.2286   -3.7453 H   0  0  0  0  0  0  0  0  0  0  0  0
    0.4682   17.8774   -3.7453 H   0  0  0  0  0  0  0  0  0  0  0  0
    3.5218   11.4774   -2.9216 H   0  0  0  0  0  0  0  0  0  0  0  0
    2.9707   10.6553   -4.4207 H   0  0  0  0  0  0  0  0  0  0  0  0
    3.2515   12.4295   -4.4207 H   0  0  0  0  0  0  0  0  0  0  0  0
    0.3313   10.7474   -4.9653 H   0  0  0  0  0  0  0  0  0  0  0  0
    1.2781    9.7022   -3.7630 H   0  0  0  0  0  0  0  0  0  0  0  0
   -1.4497   10.9637   -3.3676 H   0  0  0  0  0  0  0  0  0  0  0  0
   -1.0228    9.2111   -3.4788 H   0  0  0  0  0  0  0  0  0  0  0  0
    0.7228    8.8910   -0.2761 H   0  0  0  0  0  0  0  0  0  0  0  0
    0.2440    8.0819   -1.8067 H   0  0  0  0  0  0  0  0  0  0  0  0
    1.5750    9.2881   -1.8067 H   0  0  0  0  0  0  0  0  0  0  0  0
  1  2  1  0
  2  3  1  0
  3  4  1  0
  4  5  1  0
  5  6  1  0
  6  7  1  0
  7  8  1  0
  7  9  1  0
  2 10  1  0
 10 11  1  0
 11 12  1  0
 12 13  1  0
 13 14  1  1
 13 15  1  0
 15 16  1  0
 16 17  1  0
 17 18  2  0
 18 19  1  0
 19 20  1  0
 20 21  1  0
 21 22  1  0
 22 23  1  0
 22 24  1  0
 24 25  1  0
 24 26  1  0
 19 27  1  0
 27 28  1  6
 27 29  1  0
 29 30  1  0
 30 31  1  0
 31 32  1  6
  7  5  1  0
 31 10  1  0
 31 13  1  0
 27 15  1  0
 24 18  1  0
  1 33  1  0
  1 34  1  0
  1 35  1  0
  2 36  1  1
  3 37  1  0
  3 38  1  0
  4 39  1  0
  4 40  1  0
  5 41  1  1
  8 42  1  0
  8 43  1  0
  8 44  1  0
  9 45  1  0
  9 46  1  0
  9 47  1  0
 10 48  1  6
 11 49  1  0
 11 50  1  0
 12 51  1  0
 12 52  1  0
 14 53  1  0
 14 54  1  0
 14 55  1  0
 15 56  1  1
 16 57  1  0
 16 58  1  0
 17 59  1  0
 19 60  1  6
 20 61  1  0
 20 62  1  0
 21 63  1  0
 21 64  1  0
 22 65  1  6
 23 66  1  0
 25 67  1  0
 25 68  1  0
 25 69  1  0
 26 70  1  0
 26 71  1  0
 26 72  1  0
 28 73  1  0
 28 74  1  0
 28 75  1  0
 29 76  1  0
 29 77  1  0
 30 78  1  0
 30 79  1  0
 32 80  1  0
 32 81  1  0
 32 82  1  0
M  END
>  <meeko>  (14) 
{"is_sidechain": [false], "intermolecular_energy": 2.731, "internal_energy": -0.839}

$$$$
EPH_relaxed_0001_pdb2pqr_Repair_375_r2_0001_out
     RDKit          3D

 82 86  0  0  0  0  0  0  0  0999 V2000
    2.8890   11.3260   -5.3120 C   0  0  0  0  0  0  0  0  0  0  0  0
    1.8650   11.0290   -4.2130 C   0  0  2  0  0  0  0  0  0  0  0  0
    0.7480   10.0850   -4.7000 C   0  0  0  0  0  0  0  0  0  0  0  0
   -0.3410    9.8270   -3.6540 C   0  0  0  0  0  0  0  0  0  0  0  0
    0.1730    9.0080   -2.5090 C   0  0  2  0  0  0  0  0  0  0  0  0
   -0.6950    7.9450   -2.0970 O   0  0  0  0  0  0  0  0  0  0  0  0
   -0.4730    8.9900   -1.1370 C   0  0  0  0  0  0  0  0  0  0  0  0
   -1.6900    9.8090   -0.8370 C   0  0  0  0  0  0  0  0  0  0  0  0
    0.3520    8.5650    0.0370 C   0  0  0  0  0  0  0  0  0  0  0  0
    1.2590   12.3310   -3.7010 C   0  0  1  0  0  0  0  0  0  0  0  0
   -0.2820   12.2490   -3.5350 C   0  0  0  0  0  0  0  0  0  0  0  0
   -0.6450   13.1140   -2.3010 C   0  0  0  0  0  0  0  0  0  0  0  0
    0.6370   13.9240   -2.0010 C   0  0  1  0  0  0  0  0  0  0  0  0
    0.6020   15.1180   -3.0050 C   0  0  0  0  0  0  0  0  0  0  0  0
    0.8160   14.4150   -0.5270 C   0  0  2  0  0  0  0  0  0  0  0  0
   -0.2640   15.3910   -0.0290 C   0  0  0  0  0  0  0  0  0  0  0  0
    0.0320   16.8370   -0.2500 C   0  0  0  0  0  0  0  0  0  0  0  0
    1.2370   17.3490   -0.5630 C   0  0  0  0  0  0  0  0  0  0  0  0
    2.4810   16.4540   -0.6290 C   0  0  1  0  0  0  0  0  0  0  0  0
    3.6510   17.1360    0.1280 C   0  0  0  0  0  0  0  0  0  0  0  0
    3.9240   18.5510   -0.3710 C   0  0  0  0  0  0  0  0  0  0  0  0
    2.6810   19.4270   -0.2350 C   0  0  2  0  0  0  0  0  0  0  0  0
    2.3970   19.6110    1.1550 O   0  0  0  0  0  0  0  0  0  0  0  0
    1.4340   18.8360   -0.9500 C   0  0  0  0  0  0  0  0  0  0  0  0
    1.6270   18.9170   -2.4850 C   0  0  0  0  0  0  0  0  0  0  0  0
    0.2190   19.7420   -0.6170 C   0  0  0  0  0  0  0  0  0  0  0  0
    2.2700   14.9410   -0.1900 C   0  0  1  0  0  0  0  0  0  0  0  0
    2.4460   14.8050    1.3530 C   0  0  0  0  0  0  0  0  0  0  0  0
    3.3940   14.0540   -0.8450 C   0  0  0  0  0  0  0  0  0  0  0  0
    3.1080   13.5000   -2.2540 C   0  0  0  0  0  0  0  0  0  0  0  0
    1.7290   12.8370   -2.3140 C   0  0  2  0  0  0  0  0  0  0  0  0
    1.7410   11.6180   -1.3290 C   0  0  0  0  0  0  0  0  0  0  0  0
    3.8491   11.6045   -4.8530 H   0  0  0  0  0  0  0  0  0  0  0  0
    3.0270   10.4309   -5.9362 H   0  0  0  0  0  0  0  0  0  0  0  0
    2.5266   12.1560   -5.9362 H   0  0  0  0  0  0  0  0  0  0  0  0
    2.3959   10.5190   -3.3957 H   0  0  0  0  0  0  0  0  0  0  0  0
    0.2775   10.5329   -5.5877 H   0  0  0  0  0  0  0  0  0  0  0  0
    1.2195    9.1155   -4.9184 H   0  0  0  0  0  0  0  0  0  0  0  0
   -0.7009   10.7923   -3.2685 H   0  0  0  0  0  0  0  0  0  0  0  0
   -1.1552    9.2673   -4.1376 H   0  0  0  0  0  0  0  0  0  0  0  0
    1.2125    9.1647   -2.8328 H   0  0  0  0  0  0  0  0  0  0  0  0
   -1.8156    9.8935    0.2525 H   0  0  0  0  0  0  0  0  0  0  0  0
   -1.5728   10.8127   -1.2716 H   0  0  0  0  0  0  0  0  0  0  0  0
   -2.5757    9.3224   -1.2716 H   0  0  0  0  0  0  0  0  0  0  0  0
   -0.1691    8.8335    0.9678 H   0  0  0  0  0  0  0  0  0  0  0  0
    0.5045    7.4761    0.0031 H   0  0  0  0  0  0  0  0  0  0  0  0
    1.3271    9.0730    0.0031 H   0  0  0  0  0  0  0  0  0  0  0  0
    1.6042   13.0169   -4.4886 H   0  0  0  0  0  0  0  0  0  0  0  0
   -0.7812   12.6417   -4.4331 H   0  0  0  0  0  0  0  0  0  0  0  0
   -0.6099   11.2080   -3.3981 H   0  0  0  0  0  0  0  0  0  0  0  0
   -1.4842   13.7867   -2.5318 H   0  0  0  0  0  0  0  0  0  0  0  0
   -0.9628   12.5035   -1.4429 H   0  0  0  0  0  0  0  0  0  0  0  0
    0.5742   16.0656   -2.4470 H   0  0  0  0  0  0  0  0  0  0  0  0
    1.5013   15.0914   -3.6379 H   0  0  0  0  0  0  0  0  0  0  0  0
   -0.2942   15.0388   -3.6379 H   0  0  0  0  0  0  0  0  0  0  0  0
    0.6708   13.4890    0.0487 H   0  0  0  0  0  0  0  0  0  0  0  0
   -1.2033   15.1530   -0.5497 H   0  0  0  0  0  0  0  0  0  0  0  0
   -0.3176   15.2548    1.0612 H   0  0  0  0  0  0  0  0  0  0  0  0
   -0.8048   17.5438   -0.1486 H   0  0  0  0  0  0  0  0  0  0  0  0
    2.7316   16.3599   -1.6959 H   0  0  0  0  0  0  0  0  0  0  0  0
    3.3998   17.1817    1.1980 H   0  0  0  0  0  0  0  0  0  0  0  0
    4.5573   16.5384   -0.0497 H   0  0  0  0  0  0  0  0  0  0  0  0
    4.7404   18.9902    0.2210 H   0  0  0  0  0  0  0  0  0  0  0  0
    4.2034   18.5007   -1.4337 H   0  0  0  0  0  0  0  0  0  0  0  0
    2.8981   20.3869   -0.7263 H   0  0  0  0  0  0  0  0  0  0  0  0
    1.9690   20.4780    1.2550 H   0  0  0  0  0  0  0  0  0  0  0  0
    2.6202   19.3338   -2.7082 H   0  0  0  0  0  0  0  0  0  0  0  0
    1.5465   17.9092   -2.9184 H   0  0  0  0  0  0  0  0  0  0  0  0
    0.8514   19.5655   -2.9184 H   0  0  0  0  0  0  0  0  0  0  0  0
    0.1103   19.8230    0.4746 H   0  0  0  0  0  0  0  0  0  0  0  0
    0.3796   20.7426   -1.0448 H   0  0  0  0  0  0  0  0  0  0  0  0
   -0.6942   19.3026   -1.0448 H   0  0  0  0  0  0  0  0  0  0  0  0
    1.6752   15.4007    1.8639 H   0  0  0  0  0  0  0  0  0  0  0  0
    2.3443   13.7485    1.6419 H   0  0  0  0  0  0  0  0  0  0  0  0
    3.4427   15.1699    1.6419 H   0  0  0  0  0  0  0  0  0  0  0  0
    4.3067   14.6650   -0.9064 H   0  0  0  0  0  0  0  0  0  0  0  0
    3.4754   13.1680   -0.1981 H   0  0  0  0  0  0  0  0  0  0  0  0
    3.1415   14.3265   -2.9791 H   0  0  0  0  0  0  0  0  0  0  0  0
    3.8706   12.7447   -2.4948 H   0  0  0  0  0  0  0  0  0  0  0  0
    1.7374   11.9846   -0.2919 H   0  0  0  0  0  0  0  0  0  0  0  0
    0.8489   10.9981   -1.5019 H   0  0  0  0  0  0  0  0  0  0  0  0
    2.6451   11.0158   -1.5019 H   0  0  0  0  0  0  0  0  0  0  0  0
  1  2  1  0
  2  3  1  0
  3  4  1  0
  4  5  1  0
  5  6  1  0
  6  7  1  0
  7  8  1  0
  7  9  1  0
  2 10  1  0
 10 11  1  0
 11 12  1  0
 12 13  1  0
 13 14  1  6
 13 15  1  0
 15 16  1  0
 16 17  1  0
 17 18  2  0
 18 19  1  0
 19 20  1  0
 20 21  1  0
 21 22  1  0
 22 23  1  0
 22 24  1  0
 24 25  1  0
 24 26  1  0
 19 27  1  0
 27 28  1  1
 27 29  1  0
 29 30  1  0
 30 31  1  0
 31 32  1  1
  7  5  1  0
 31 10  1  0
 31 13  1  0
 27 15  1  0
 24 18  1  0
  1 33  1  0
  1 34  1  0
  1 35  1  0
  2 36  1  1
  3 37  1  0
  3 38  1  0
  4 39  1  0
  4 40  1  0
  5 41  1  1
  8 42  1  0
  8 43  1  0
  8 44  1  0
  9 45  1  0
  9 46  1  0
  9 47  1  0
 10 48  1  6
 11 49  1  0
 11 50  1  0
 12 51  1  0
 12 52  1  0
 14 53  1  0
 14 54  1  0
 14 55  1  0
 15 56  1  1
 16 57  1  0
 16 58  1  0
 17 59  1  0
 19 60  1  6
 20 61  1  0
 20 62  1  0
 21 63  1  0
 21 64  1  0
 22 65  1  6
 23 66  1  0
 25 67  1  0
 25 68  1  0
 25 69  1  0
 26 70  1  0
 26 71  1  0
 26 72  1  0
 28 73  1  0
 28 74  1  0
 28 75  1  0
 29 76  1  0
 29 77  1  0
 30 78  1  0
 30 79  1  0
 32 80  1  0
 32 81  1  0
 32 82  1  0
M  END
>  <meeko>  (15) 
{"is_sidechain": [false], "intermolecular_energy": 2.731, "internal_energy": -0.839}

$$$$
EPH_relaxed_0001_pdb2pqr_Repair_375_r2_0001_out
     RDKit          3D

 82 86  0  0  0  0  0  0  0  0999 V2000
    0.9150   14.8740   -2.6520 C   0  0  0  0  0  0  0  0  0  0  0  0
    1.1700   14.1890   -3.9970 C   0  0  2  0  0  0  0  0  0  0  0  0
    0.4710   14.9170   -5.1620 C   0  0  0  0  0  0  0  0  0  0  0  0
    1.0640   14.5930   -6.5350 C   0  0  0  0  0  0  0  0  0  0  0  0
    0.8350   15.7040   -7.5150 C   0  0  2  0  0  0  0  0  0  0  0  0
    0.3790   15.2790   -8.8060 O   0  0  0  0  0  0  0  0  0  0  0  0
    1.6730   15.9040   -8.7640 C   0  0  0  0  0  0  0  0  0  0  0  0
    2.8040   14.9830   -9.1010 C   0  0  0  0  0  0  0  0  0  0  0  0
    1.7070   17.2620   -9.3930 C   0  0  0  0  0  0  0  0  0  0  0  0
    0.7070   12.7380   -3.9370 C   0  0  1  0  0  0  0  0  0  0  0  0
    1.8220   11.7380   -4.3450 C   0  0  0  0  0  0  0  0  0  0  0  0
    1.6290   10.4720   -3.4700 C   0  0  0  0  0  0  0  0  0  0  0  0
    0.2300   10.6470   -2.8340 C   0  0  1  0  0  0  0  0  0  0  0  0
   -0.7730   10.1900   -3.9390 C   0  0  0  0  0  0  0  0  0  0  0  0
   -0.0140    9.8950   -1.4860 C   0  0  2  0  0  0  0  0  0  0  0  0
    0.0740    8.3610   -1.5690 C   0  0  0  0  0  0  0  0  0  0  0  0
   -1.2110    7.6630   -1.8670 C   0  0  0  0  0  0  0  0  0  0  0  0
   -2.4370    8.2110   -1.7800 C   0  0  0  0  0  0  0  0  0  0  0  0
   -2.6260    9.6390   -1.2520 C   0  0  1  0  0  0  0  0  0  0  0  0
   -3.7850    9.6600   -0.2200 C   0  0  0  0  0  0  0  0  0  0  0  0
   -5.0760    9.0690   -0.7780 C   0  0  0  0  0  0  0  0  0  0  0  0
   -4.8620    7.6300   -1.2400 C   0  0  2  0  0  0  0  0  0  0  0  0
   -4.5870    6.8150   -0.0960 O   0  0  0  0  0  0  0  0  0  0  0  0
   -3.7110    7.4820   -2.2740 C   0  0  0  0  0  0  0  0  0  0  0  0
   -4.1400    8.1130   -3.6220 C   0  0  0  0  0  0  0  0  0  0  0  0
   -3.5070    5.9680   -2.5490 C   0  0  0  0  0  0  0  0  0  0  0  0
   -1.3150   10.3570   -0.7120 C   0  0  1  0  0  0  0  0  0  0  0  0
   -1.0920    9.9990    0.7890 C   0  0  0  0  0  0  0  0  0  0  0  0
   -1.5230   11.9170   -0.7700 C   0  0  0  0  0  0  0  0  0  0  0  0
   -1.1500   12.6190   -2.0900 C   0  0  0  0  0  0  0  0  0  0  0  0
    0.2440   12.1950   -2.5620 C   0  0  2  0  0  0  0  0  0  0  0  0
    1.2770   12.6620   -1.4800 C   0  0  0  0  0  0  0  0  0  0  0  0
    1.1718   14.1841   -1.8346 H   0  0  0  0  0  0  0  0  0  0  0  0
    1.5367   15.7784   -2.5774 H   0  0  0  0  0  0  0  0  0  0  0  0
   -0.1467   15.1517   -2.5774 H   0  0  0  0  0  0  0  0  0  0  0  0
    2.2528   14.2267   -4.1871 H   0  0  0  0  0  0  0  0  0  0  0  0
   -0.5903   14.6278   -5.1652 H   0  0  0  0  0  0  0  0  0  0  0  0
    0.6120   15.9955   -4.9976 H   0  0  0  0  0  0  0  0  0  0  0  0
    2.1466   14.4312   -6.4264 H   0  0  0  0  0  0  0  0  0  0  0  0
    0.5665   13.6900   -6.9185 H   0  0  0  0  0  0  0  0  0  0  0  0
    0.5423   16.3891   -6.7057 H   0  0  0  0  0  0  0  0  0  0  0  0
    3.2621   14.6100   -8.1731 H   0  0  0  0  0  0  0  0  0  0  0  0
    2.4234   14.1347   -9.6888 H   0  0  0  0  0  0  0  0  0  0  0  0
    3.5576   15.5276   -9.6888 H   0  0  0  0  0  0  0  0  0  0  0  0
    1.7262   18.0302   -8.6060 H   0  0  0  0  0  0  0  0  0  0  0  0
    2.6077   17.3543  -10.0176 H   0  0  0  0  0  0  0  0  0  0  0  0
    0.8120   17.3993  -10.0176 H   0  0  0  0  0  0  0  0  0  0  0  0
   -0.1471   12.7885   -4.6284 H   0  0  0  0  0  0  0  0  0  0  0  0
    1.7285   11.4802   -5.4103 H   0  0  0  0  0  0  0  0  0  0  0  0
    2.8199   12.1751   -4.1929 H   0  0  0  0  0  0  0  0  0  0  0  0
    1.6633    9.5633   -4.0889 H   0  0  0  0  0  0  0  0  0  0  0  0
    2.4204   10.3629   -2.7138 H   0  0  0  0  0  0  0  0  0  0  0  0
   -1.6768    9.7782   -3.4662 H   0  0  0  0  0  0  0  0  0  0  0  0
   -1.0469   11.0522   -4.5648 H   0  0  0  0  0  0  0  0  0  0  0  0
   -0.3022    9.4176   -4.5648 H   0  0  0  0  0  0  0  0  0  0  0  0
    0.8480   10.2119   -0.8806 H   0  0  0  0  0  0  0  0  0  0  0  0
    0.7918    8.1043   -2.3620 H   0  0  0  0  0  0  0  0  0  0  0  0
    0.3805    8.0197   -0.5692 H   0  0  0  0  0  0  0  0  0  0  0  0
   -1.1509    6.6116   -2.1847 H   0  0  0  0  0  0  0  0  0  0  0  0
   -2.8919   10.2538   -2.1245 H   0  0  0  0  0  0  0  0  0  0  0  0
   -3.4824    9.0764    0.6620 H   0  0  0  0  0  0  0  0  0  0  0  0
   -3.9831   10.7107    0.0382 H   0  0  0  0  0  0  0  0  0  0  0  0
   -5.8474    9.0845    0.0060 H   0  0  0  0  0  0  0  0  0  0  0  0
   -5.3935    9.6716   -1.6418 H   0  0  0  0  0  0  0  0  0  0  0  0
   -5.7829    7.3068   -1.7475 H   0  0  0  0  0  0  0  0  0  0  0  0
   -3.6400    6.8990    0.1050 H   0  0  0  0  0  0  0  0  0  0  0  0
   -4.7490    9.0087   -3.4302 H   0  0  0  0  0  0  0  0  0  0  0  0
   -3.2451    8.3942   -4.1965 H   0  0  0  0  0  0  0  0  0  0  0  0
   -4.7306    7.3842   -4.1965 H   0  0  0  0  0  0  0  0  0  0  0  0
   -3.4343    5.4283   -1.5933 H   0  0  0  0  0  0  0  0  0  0  0  0
   -4.3612    5.5815   -3.1243 H   0  0  0  0  0  0  0  0  0  0  0  0
   -2.5810    5.8213   -3.1243 H   0  0  0  0  0  0  0  0  0  0  0  0
   -1.5674   10.7623    1.4225 H   0  0  0  0  0  0  0  0  0  0  0  0
   -1.5380    9.0162    1.0017 H   0  0  0  0  0  0  0  0  0  0  0  0
   -0.0133    9.9659    1.0017 H   0  0  0  0  0  0  0  0  0  0  0  0
   -2.5867   12.1184   -0.5750 H   0  0  0  0  0  0  0  0  0  0  0  0
   -0.8310   12.3277   -0.0200 H   0  0  0  0  0  0  0  0  0  0  0  0
   -1.8877   12.3513   -2.8608 H   0  0  0  0  0  0  0  0  0  0  0  0
   -1.1472   13.7058   -1.9204 H   0  0  0  0  0  0  0  0  0  0  0  0
    0.8662   12.4763   -0.4766 H   0  0  0  0  0  0  0  0  0  0  0  0
    2.2149   12.1004   -1.6020 H   0  0  0  0  0  0  0  0  0  0  0  0
    1.4749   13.7371   -1.6020 H   0  0  0  0  0  0  0  0  0  0  0  0
  1  2  1  0
  2  3  1  0
  3  4  1  0
  4  5  1  0
  5  6  1  0
  6  7  1  0
  7  8  1  0
  7  9  1  0
  2 10  1  0
 10 11  1  0
 11 12  1  0
 12 13  1  0
 13 14  1  6
 13 15  1  0
 15 16  1  0
 16 17  1  0
 17 18  2  0
 18 19  1  0
 19 20  1  0
 20 21  1  0
 21 22  1  0
 22 23  1  0
 22 24  1  0
 24 25  1  0
 24 26  1  0
 19 27  1  0
 27 28  1  1
 27 29  1  0
 29 30  1  0
 30 31  1  0
 31 32  1  1
  7  5  1  0
 31 10  1  0
 31 13  1  0
 27 15  1  0
 24 18  1  0
  1 33  1  0
  1 34  1  0
  1 35  1  0
  2 36  1  6
  3 37  1  0
  3 38  1  0
  4 39  1  0
  4 40  1  0
  5 41  1  1
  8 42  1  0
  8 43  1  0
  8 44  1  0
  9 45  1  0
  9 46  1  0
  9 47  1  0
 10 48  1  6
 11 49  1  0
 11 50  1  0
 12 51  1  0
 12 52  1  0
 14 53  1  0
 14 54  1  0
 14 55  1  0
 15 56  1  1
 16 57  1  0
 16 58  1  0
 17 59  1  0
 19 60  1  6
 20 61  1  0
 20 62  1  0
 21 63  1  0
 21 64  1  0
 22 65  1  6
 23 66  1  0
 25 67  1  0
 25 68  1  0
 25 69  1  0
 26 70  1  0
 26 71  1  0
 26 72  1  0
 28 73  1  0
 28 74  1  0
 28 75  1  0
 29 76  1  0
 29 77  1  0
 30 78  1  0
 30 79  1  0
 32 80  1  0
 32 81  1  0
 32 82  1  0
M  END
>  <meeko>  (16) 
{"is_sidechain": [false], "intermolecular_energy": 2.731, "internal_energy": -0.839}

$$$$
EPH_relaxed_0001_pdb2pqr_Repair_375_r2_0001_out
     RDKit          3D

 82 86  0  0  0  0  0  0  0  0999 V2000
   -0.7490   18.5720   -2.7590 C   0  0  0  0  0  0  0  0  0  0  0  0
    0.2740   18.1650   -1.6940 C   0  0  2  0  0  0  0  0  0  0  0  0
    1.4570   19.1510   -1.6180 C   0  0  0  0  0  0  0  0  0  0  0  0
    1.4430   20.0330   -0.3670 C   0  0  0  0  0  0  0  0  0  0  0  0
    1.9680   19.3020    0.8320 C   0  0  2  0  0  0  0  0  0  0  0  0
    2.3780   20.1460    1.9160 O   0  0  0  0  0  0  0  0  0  0  0  0
    3.4140   19.3730    1.2880 C   0  0  0  0  0  0  0  0  0  0  0  0
    4.4250   20.1930    0.5510 C   0  0  0  0  0  0  0  0  0  0  0  0
    3.9470   18.2690    2.1480 C   0  0  0  0  0  0  0  0  0  0  0  0
    0.7870   16.7580   -1.9770 C   0  0  1  0  0  0  0  0  0  0  0  0
    2.2950   16.7340   -2.3430 C   0  0  0  0  0  0  0  0  0  0  0  0
    2.8760   15.4220   -1.7560 C   0  0  0  0  0  0  0  0  0  0  0  0
    1.6350   14.5850   -1.3670 C   0  0  1  0  0  0  0  0  0  0  0  0
    1.1620   13.9260   -2.7010 C   0  0  0  0  0  0  0  0  0  0  0  0
    1.8450   13.5210   -0.2410 C   0  0  2  0  0  0  0  0  0  0  0  0
    2.8510   12.4060   -0.5750 C   0  0  0  0  0  0  0  0  0  0  0  0
    2.2680   11.1940   -1.2230 C   0  0  0  0  0  0  0  0  0  0  0  0
    0.9590   10.8840   -1.2680 C   0  0  0  0  0  0  0  0  0  0  0  0
   -0.0800   11.7470   -0.5400 C   0  0  1  0  0  0  0  0  0  0  0  0
   -1.0530   10.8310    0.2480 C   0  0  0  0  0  0  0  0  0  0  0  0
   -1.6950    9.7640   -0.6330 C   0  0  0  0  0  0  0  0  0  0  0  0
   -0.6320    8.8900   -1.2930 C   0  0  2  0  0  0  0  0  0  0  0  0
    0.0350    8.1310   -0.2800 O   0  0  0  0  0  0  0  0  0  0  0  0
    0.4110    9.7050   -2.1080 C   0  0  0  0  0  0  0  0  0  0  0  0
   -0.2590   10.2830   -3.3800 C   0  0  0  0  0  0  0  0  0  0  0  0
    1.5040    8.7200   -2.6030 C   0  0  0  0  0  0  0  0  0  0  0  0
    0.5010   12.9290    0.3500 C   0  0  1  0  0  0  0  0  0  0  0  0
    0.8360   12.4040    1.7790 C   0  0  0  0  0  0  0  0  0  0  0  0
   -0.6090   14.0300    0.5300 C   0  0  0  0  0  0  0  0  0  0  0  0
   -0.6880   15.1220   -0.5540 C   0  0  0  0  0  0  0  0  0  0  0  0
    0.6940   15.7230   -0.8280 C   0  0  2  0  0  0  0  0  0  0  0  0
    1.1870   16.4120    0.4900 C   0  0  0  0  0  0  0  0  0  0  0  0
   -1.6638   18.9360   -2.2685 H   0  0  0  0  0  0  0  0  0  0  0  0
   -0.3269   19.3707   -3.3866 H   0  0  0  0  0  0  0  0  0  0  0  0
   -0.9909   17.7016   -3.3866 H   0  0  0  0  0  0  0  0  0  0  0  0
   -0.2366   18.1861   -0.7199 H   0  0  0  0  0  0  0  0  0  0  0  0
    2.3925   18.5723   -1.6246 H   0  0  0  0  0  0  0  0  0  0  0  0
    1.3727   19.8220   -2.4856 H   0  0  0  0  0  0  0  0  0  0  0  0
    2.0703   20.9183   -0.5478 H   0  0  0  0  0  0  0  0  0  0  0  0
    0.4017   20.3231   -0.1633 H   0  0  0  0  0  0  0  0  0  0  0  0
    1.2962   18.4528    0.6379 H   0  0  0  0  0  0  0  0  0  0  0  0
    5.0696   20.7159    1.2728 H   0  0  0  0  0  0  0  0  0  0  0  0
    5.0402   19.5355   -0.0809 H   0  0  0  0  0  0  0  0  0  0  0  0
    3.9086   20.9306   -0.0809 H   0  0  0  0  0  0  0  0  0  0  0  0
    3.8186   18.5350    3.2076 H   0  0  0  0  0  0  0  0  0  0  0  0
    3.3982   17.3400    1.9341 H   0  0  0  0  0  0  0  0  0  0  0  0
    5.0158   18.1210    1.9341 H   0  0  0  0  0  0  0  0  0  0  0  0
    0.1074   16.4748   -2.7943 H   0  0  0  0  0  0  0  0  0  0  0  0
    2.4200   16.7482   -3.4358 H   0  0  0  0  0  0  0  0  0  0  0  0
    2.8147   17.6136   -1.9354 H   0  0  0  0  0  0  0  0  0  0  0  0
    3.4801   14.8940   -2.5086 H   0  0  0  0  0  0  0  0  0  0  0  0
    3.5398   15.6068   -0.8985 H   0  0  0  0  0  0  0  0  0  0  0  0
    0.5342   13.0513   -2.4755 H   0  0  0  0  0  0  0  0  0  0  0  0
    0.5796   14.6549   -3.2837 H   0  0  0  0  0  0  0  0  0  0  0  0
    2.0389   13.6075   -3.2837 H   0  0  0  0  0  0  0  0  0  0  0  0
    2.3122   14.1141    0.5590 H   0  0  0  0  0  0  0  0  0  0  0  0
    3.6082   12.8239   -1.2548 H   0  0  0  0  0  0  0  0  0  0  0  0
    3.2617   12.0683    0.3880 H   0  0  0  0  0  0  0  0  0  0  0  0
    2.9676   10.4950   -1.7046 H   0  0  0  0  0  0  0  0  0  0  0  0
   -0.6293   12.2881   -1.3245 H   0  0  0  0  0  0  0  0  0  0  0  0
   -0.4938   10.3332    1.0539 H   0  0  0  0  0  0  0  0  0  0  0  0
   -1.8593   11.4646    0.6461 H   0  0  0  0  0  0  0  0  0  0  0  0
   -2.3480    9.1311   -0.0141 H   0  0  0  0  0  0  0  0  0  0  0  0
   -2.2780   10.2633   -1.4209 H   0  0  0  0  0  0  0  0  0  0  0  0
   -1.1445    8.2312   -2.0095 H   0  0  0  0  0  0  0  0  0  0  0  0
   -0.2950    8.4370    0.5820 H   0  0  0  0  0  0  0  0  0  0  0  0
   -1.0622   10.9759   -3.0888 H   0  0  0  0  0  0  0  0  0  0  0  0
    0.4914   10.8218   -3.9771 H   0  0  0  0  0  0  0  0  0  0  0  0
   -0.6819    9.4617   -3.9771 H   0  0  0  0  0  0  0  0  0  0  0  0
    2.0078    8.2660   -1.7370 H   0  0  0  0  0  0  0  0  0  0  0  0
    1.0381    7.9308   -3.2114 H   0  0  0  0  0  0  0  0  0  0  0  0
    2.2406    9.2652   -3.2114 H   0  0  0  0  0  0  0  0  0  0  0  0
    0.4034   13.0820    2.5295 H   0  0  0  0  0  0  0  0  0  0  0  0
    0.4134   11.3967    1.9080 H   0  0  0  0  0  0  0  0  0  0  0  0
    1.9276   12.3629    1.9080 H   0  0  0  0  0  0  0  0  0  0  0  0
   -1.5827   13.5190    0.5589 H   0  0  0  0  0  0  0  0  0  0  0  0
   -0.3391   14.5617    1.4544 H   0  0  0  0  0  0  0  0  0  0  0  0
   -1.0787   14.6799   -1.4824 H   0  0  0  0  0  0  0  0  0  0  0  0
   -1.3542   15.9218   -0.1985 H   0  0  0  0  0  0  0  0  0  0  0  0
    0.7947   15.8638    1.3592 H   0  0  0  0  0  0  0  0  0  0  0  0
    2.2866   16.4053    0.5181 H   0  0  0  0  0  0  0  0  0  0  0  0
    0.8258   17.4506    0.5181 H   0  0  0  0  0  0  0  0  0  0  0  0
  1  2  1  0
  2  3  1  0
  3  4  1  0
  4  5  1  0
  5  6  1  0
  6  7  1  0
  7  8  1  0
  7  9  1  0
  2 10  1  0
 10 11  1  0
 11 12  1  0
 12 13  1  0
 13 14  1  6
 13 15  1  0
 15 16  1  0
 16 17  1  0
 17 18  2  0
 18 19  1  0
 19 20  1  0
 20 21  1  0
 21 22  1  0
 22 23  1  0
 22 24  1  0
 24 25  1  0
 24 26  1  0
 19 27  1  0
 27 28  1  1
 27 29  1  0
 29 30  1  0
 30 31  1  0
 31 32  1  1
  7  5  1  0
 31 10  1  0
 31 13  1  0
 27 15  1  0
 24 18  1  0
  1 33  1  0
  1 34  1  0
  1 35  1  0
  2 36  1  1
  3 37  1  0
  3 38  1  0
  4 39  1  0
  4 40  1  0
  5 41  1  1
  8 42  1  0
  8 43  1  0
  8 44  1  0
  9 45  1  0
  9 46  1  0
  9 47  1  0
 10 48  1  6
 11 49  1  0
 11 50  1  0
 12 51  1  0
 12 52  1  0
 14 53  1  0
 14 54  1  0
 14 55  1  0
 15 56  1  1
 16 57  1  0
 16 58  1  0
 17 59  1  0
 19 60  1  6
 20 61  1  0
 20 62  1  0
 21 63  1  0
 21 64  1  0
 22 65  1  6
 23 66  1  0
 25 67  1  0
 25 68  1  0
 25 69  1  0
 26 70  1  0
 26 71  1  0
 26 72  1  0
 28 73  1  0
 28 74  1  0
 28 75  1  0
 29 76  1  0
 29 77  1  0
 30 78  1  0
 30 79  1  0
 32 80  1  0
 32 81  1  0
 32 82  1  0
M  END
>  <meeko>  (17) 
{"is_sidechain": [false], "intermolecular_energy": 2.731, "internal_energy": -0.839}

$$$$
