EPH_relaxed_0001_pdb2pqr_Repair_297_r2_0001_out
     RDKit          3D

 82 86  0  0  0  0  0  0  0  0999 V2000
    3.8280   17.9390    0.6980 C   0  0  0  0  0  0  0  0  0  0  0  0
    2.9620   18.3390   -0.5000 C   0  0  2  0  0  0  0  0  0  0  0  0
    2.2230   19.6720   -0.2620 C   0  0  0  0  0  0  0  0  0  0  0  0
    1.1780   19.6050    0.8560 C   0  0  0  0  0  0  0  0  0  0  0  0
   -0.1400   20.1660    0.4160 C   0  0  2  0  0  0  0  0  0  0  0  0
   -1.1480   20.1940    1.4350 O   0  0  0  0  0  0  0  0  0  0  0  0
   -1.4080   19.3380    0.3100 C   0  0  0  0  0  0  0  0  0  0  0  0
   -1.4180   17.8800    0.6440 C   0  0  0  0  0  0  0  0  0  0  0  0
   -2.5090   19.8280   -0.5770 C   0  0  0  0  0  0  0  0  0  0  0  0
    1.9580   17.2350   -0.8080 C   0  0  1  0  0  0  0  0  0  0  0  0
    0.8290   17.7030   -1.7640 C   0  0  0  0  0  0  0  0  0  0  0  0
    0.4680   16.4900   -2.6600 C   0  0  0  0  0  0  0  0  0  0  0  0
    1.1560   15.2840   -1.9780 C   0  0  1  0  0  0  0  0  0  0  0  0
    0.1930   14.8750   -0.8200 C   0  0  0  0  0  0  0  0  0  0  0  0
    1.4960   14.0700   -2.9020 C   0  0  2  0  0  0  0  0  0  0  0  0
    0.2810   13.3810   -3.5480 C   0  0  0  0  0  0  0  0  0  0  0  0
   -0.3080   12.2570   -2.7610 C   0  0  0  0  0  0  0  0  0  0  0  0
    0.2840   11.6320   -1.7270 C   0  0  0  0  0  0  0  0  0  0  0  0
    1.7200   11.9800   -1.3140 C   0  0  1  0  0  0  0  0  0  0  0  0
    2.5260   10.6730   -1.0940 C   0  0  0  0  0  0  0  0  0  0  0  0
    1.8490    9.7260   -0.1080 C   0  0  0  0  0  0  0  0  0  0  0  0
    0.4450    9.3580   -0.5820 C   0  0  2  0  0  0  0  0  0  0  0  0
    0.5530    8.5770   -1.7760 O   0  0  0  0  0  0  0  0  0  0  0  0
   -0.4570   10.5960   -0.8460 C   0  0  0  0  0  0  0  0  0  0  0  0
   -0.8200   11.2720    0.4990 C   0  0  0  0  0  0  0  0  0  0  0  0
   -1.7940   10.0910   -1.4530 C   0  0  0  0  0  0  0  0  0  0  0  0
    2.4800   13.0150   -2.2500 C   0  0  1  0  0  0  0  0  0  0  0  0
    3.1680   12.2610   -3.4290 C   0  0  0  0  0  0  0  0  0  0  0  0
    3.6340   13.7010   -1.4280 C   0  0  0  0  0  0  0  0  0  0  0  0
    3.2620   14.9660   -0.6310 C   0  0  0  0  0  0  0  0  0  0  0  0
    2.4950   15.9610   -1.5080 C   0  0  2  0  0  0  0  0  0  0  0  0
    3.4470   16.4070   -2.6700 C   0  0  0  0  0  0  0  0  0  0  0  0
    3.2988   18.1834    1.6309 H   0  0  0  0  0  0  0  0  0  0  0  0
    4.0270   16.8578    0.6618 H   0  0  0  0  0  0  0  0  0  0  0  0
    4.7802   18.4885    0.6618 H   0  0  0  0  0  0  0  0  0  0  0  0
    3.6326   18.4815   -1.3603 H   0  0  0  0  0  0  0  0  0  0  0  0
    2.9661   20.4387    0.0025 H   0  0  0  0  0  0  0  0  0  0  0  0
    1.6852   19.9120   -1.1911 H   0  0  0  0  0  0  0  0  0  0  0  0
    1.0379   18.5545    1.1507 H   0  0  0  0  0  0  0  0  0  0  0  0
    1.5417   20.2063    1.7023 H   0  0  0  0  0  0  0  0  0  0  0  0
    0.3580   20.8465   -0.2904 H   0  0  0  0  0  0  0  0  0  0  0  0
   -1.4189   17.7542    1.7368 H   0  0  0  0  0  0  0  0  0  0  0  0
   -2.3194   17.4130    0.2204 H   0  0  0  0  0  0  0  0  0  0  0  0
   -0.5231   17.4007    0.2204 H   0  0  0  0  0  0  0  0  0  0  0  0
   -3.3404   20.1980    0.0409 H   0  0  0  0  0  0  0  0  0  0  0  0
   -2.1328   20.6436   -1.2120 H   0  0  0  0  0  0  0  0  0  0  0  0
   -2.8632   19.0025   -1.2120 H   0  0  0  0  0  0  0  0  0  0  0  0
    1.6300   16.9941    0.2140 H   0  0  0  0  0  0  0  0  0  0  0  0
   -0.0504   18.0205   -1.1844 H   0  0  0  0  0  0  0  0  0  0  0  0
    1.1569   18.5589   -2.3723 H   0  0  0  0  0  0  0  0  0  0  0  0
   -0.6218   16.3454   -2.6975 H   0  0  0  0  0  0  0  0  0  0  0  0
    0.7989   16.6261   -3.7002 H   0  0  0  0  0  0  0  0  0  0  0  0
    0.6750   15.0797    0.1473 H   0  0  0  0  0  0  0  0  0  0  0  0
   -0.7385   15.4552   -0.8956 H   0  0  0  0  0  0  0  0  0  0  0  0
   -0.0363   13.8018   -0.8956 H   0  0  0  0  0  0  0  0  0  0  0  0
    2.0423   14.5481   -3.7284 H   0  0  0  0  0  0  0  0  0  0  0  0
   -0.5017   14.1398   -3.6949 H   0  0  0  0  0  0  0  0  0  0  0  0
    0.6460   12.9372   -4.4860 H   0  0  0  0  0  0  0  0  0  0  0  0
   -1.3109   11.9106   -3.0512 H   0  0  0  0  0  0  0  0  0  0  0  0
    1.6382   12.5328   -0.3665 H   0  0  0  0  0  0  0  0  0  0  0  0
    2.6332   10.1582   -2.0602 H   0  0  0  0  0  0  0  0  0  0  0  0
    3.5032   10.9508   -0.6721 H   0  0  0  0  0  0  0  0  0  0  0  0
    2.4505    8.8094   -0.0182 H   0  0  0  0  0  0  0  0  0  0  0  0
    1.7699   10.2308    0.8661 H   0  0  0  0  0  0  0  0  0  0  0  0
   -0.0371    8.7864    0.2247 H   0  0  0  0  0  0  0  0  0  0  0  0
    0.7950    7.6720   -1.5150 H   0  0  0  0  0  0  0  0  0  0  0  0
   -0.4798   10.6384    1.3314 H   0  0  0  0  0  0  0  0  0  0  0  0
   -0.3278   12.2538    0.5605 H   0  0  0  0  0  0  0  0  0  0  0  0
   -1.9103   11.4040    0.5605 H   0  0  0  0  0  0  0  0  0  0  0  0
   -2.4890    9.8285   -0.6418 H   0  0  0  0  0  0  0  0  0  0  0  0
   -2.2374   10.8836   -2.0736 H   0  0  0  0  0  0  0  0  0  0  0  0
   -1.6027    9.2032   -2.0736 H   0  0  0  0  0  0  0  0  0  0  0  0
    3.8583   11.5045   -3.0274 H   0  0  0  0  0  0  0  0  0  0  0  0
    2.4021   11.7679   -4.0456 H   0  0  0  0  0  0  0  0  0  0  0  0
    3.7290   12.9787   -4.0456 H   0  0  0  0  0  0  0  0  0  0  0  0
    4.0200   12.9591   -0.7135 H   0  0  0  0  0  0  0  0  0  0  0  0
    4.3619   14.0386   -2.1805 H   0  0  0  0  0  0  0  0  0  0  0  0
    2.6321   14.6802    0.2243 H   0  0  0  0  0  0  0  0  0  0  0  0
    4.1884   15.4465   -0.2833 H   0  0  0  0  0  0  0  0  0  0  0  0
    4.3662   16.8376   -2.2461 H   0  0  0  0  0  0  0  0  0  0  0  0
    3.7026   15.5349   -3.2898 H   0  0  0  0  0  0  0  0  0  0  0  0
    2.9405   17.1615   -3.2898 H   0  0  0  0  0  0  0  0  0  0  0  0
  1  2  1  0
  2  3  1  0
  3  4  1  0
  4  5  1  0
  5  6  1  0
  6  7  1  0
  7  8  1  0
  7  9  1  0
  2 10  1  0
 10 11  1  0
 11 12  1  0
 12 13  1  0
 13 14  1  1
 13 15  1  0
 15 16  1  0
 16 17  1  0
 17 18  2  0
 18 19  1  0
 19 20  1  0
 20 21  1  0
 21 22  1  0
 22 23  1  0
 22 24  1  0
 24 25  1  0
 24 26  1  0
 19 27  1  0
 27 28  1  6
 27 29  1  0
 29 30  1  0
 30 31  1  0
 31 32  1  6
  7  5  1  0
 31 10  1  0
 31 13  1  0
 27 15  1  0
 24 18  1  0
  1 33  1  0
  1 34  1  0
  1 35  1  0
  2 36  1  6
  3 37  1  0
  3 38  1  0
  4 39  1  0
  4 40  1  0
  5 41  1  6
  8 42  1  0
  8 43  1  0
  8 44  1  0
  9 45  1  0
  9 46  1  0
  9 47  1  0
 10 48  1  1
 11 49  1  0
 11 50  1  0
 12 51  1  0
 12 52  1  0
 14 53  1  0
 14 54  1  0
 14 55  1  0
 15 56  1  6
 16 57  1  0
 16 58  1  0
 17 59  1  0
 19 60  1  1
 20 61  1  0
 20 62  1  0
 21 63  1  0
 21 64  1  0
 22 65  1  1
 23 66  1  0
 25 67  1  0
 25 68  1  0
 25 69  1  0
 26 70  1  0
 26 71  1  0
 26 72  1  0
 28 73  1  0
 28 74  1  0
 28 75  1  0
 29 76  1  0
 29 77  1  0
 30 78  1  0
 30 79  1  0
 32 80  1  0
 32 81  1  0
 32 82  1  0
M  END
>  <meeko>  (1) 
{"is_sidechain": [false], "intermolecular_energy": 2.731, "internal_energy": -0.839}

$$$$
EPH_relaxed_0001_pdb2pqr_Repair_297_r2_0001_out
     RDKit          3D

 82 86  0  0  0  0  0  0  0  0999 V2000
    4.5940   17.3800   -0.6640 C   0  0  0  0  0  0  0  0  0  0  0  0
    3.2290   18.0250   -0.4040 C   0  0  2  0  0  0  0  0  0  0  0  0
    3.1780   18.7450    0.9590 C   0  0  0  0  0  0  0  0  0  0  0  0
    4.5040   18.7120    1.7230 C   0  0  0  0  0  0  0  0  0  0  0  0
    4.3630   19.2770    3.1040 C   0  0  2  0  0  0  0  0  0  0  0  0
    5.3970   20.1950    3.4840 O   0  0  0  0  0  0  0  0  0  0  0  0
    5.3260   18.9720    4.2360 C   0  0  0  0  0  0  0  0  0  0  0  0
    6.5010   18.0670    4.0380 C   0  0  0  0  0  0  0  0  0  0  0  0
    4.8560   19.1570    5.6450 C   0  0  0  0  0  0  0  0  0  0  0  0
    2.1330   16.9690   -0.4770 C   0  0  1  0  0  0  0  0  0  0  0  0
    0.7610   17.5610   -0.8970 C   0  0  0  0  0  0  0  0  0  0  0  0
    0.0530   16.4820   -1.7560 C   0  0  0  0  0  0  0  0  0  0  0  0
    0.8820   15.1970   -1.5290 C   0  0  1  0  0  0  0  0  0  0  0  0
    0.3730   14.6260   -0.1680 C   0  0  0  0  0  0  0  0  0  0  0  0
    0.8180   14.1240   -2.6650 C   0  0  2  0  0  0  0  0  0  0  0  0
   -0.5770   13.5260   -2.9200 C   0  0  0  0  0  0  0  0  0  0  0  0
   -0.9000   12.3010   -2.1300 C   0  0  0  0  0  0  0  0  0  0  0  0
   -0.0090   11.5410   -1.4660 C   0  0  0  0  0  0  0  0  0  0  0  0
    1.4940   11.8340   -1.5500 C   0  0  1  0  0  0  0  0  0  0  0  0
    2.2660   10.5130   -1.8050 C   0  0  0  0  0  0  0  0  0  0  0  0
    1.9390    9.4360   -0.7760 C   0  0  0  0  0  0  0  0  0  0  0  0
    0.4430    9.1310   -0.7630 C   0  0  2  0  0  0  0  0  0  0  0  0
    0.0860    8.5240   -2.0090 O   0  0  0  0  0  0  0  0  0  0  0  0
   -0.4370   10.3890   -0.5230 C   0  0  0  0  0  0  0  0  0  0  0  0
   -0.2700   10.8700    0.9390 C   0  0  0  0  0  0  0  0  0  0  0  0
   -1.9240    9.9680   -0.6750 C   0  0  0  0  0  0  0  0  0  0  0  0
    1.9200   12.9930   -2.5510 C   0  0  1  0  0  0  0  0  0  0  0  0
    2.1120   12.4130   -3.9850 C   0  0  0  0  0  0  0  0  0  0  0  0
    3.3200   13.5640   -2.1110 C   0  0  0  0  0  0  0  0  0  0  0  0
    3.3110   14.7040   -1.0750 C   0  0  0  0  0  0  0  0  0  0  0  0
    2.3300   15.8080   -1.4830 C   0  0  2  0  0  0  0  0  0  0  0  0
    2.8280   16.4150   -2.8380 C   0  0  0  0  0  0  0  0  0  0  0  0
    5.0798   17.1504    0.2958 H   0  0  0  0  0  0  0  0  0  0  0  0
    4.4574   16.4512   -1.2373 H   0  0  0  0  0  0  0  0  0  0  0  0
    5.2249   18.0753   -1.2373 H   0  0  0  0  0  0  0  0  0  0  0  0
    3.0666   18.7832   -1.1843 H   0  0  0  0  0  0  0  0  0  0  0  0
    2.9029   19.7960    0.7864 H   0  0  0  0  0  0  0  0  0  0  0  0
    2.4386   18.2131    1.5758 H   0  0  0  0  0  0  0  0  0  0  0  0
    4.8463   17.6693    1.7978 H   0  0  0  0  0  0  0  0  0  0  0  0
    5.2314   19.3276    1.1736 H   0  0  0  0  0  0  0  0  0  0  0  0
    3.2661   19.2300    3.0361 H   0  0  0  0  0  0  0  0  0  0  0  0
    6.8977   17.7615    5.0175 H   0  0  0  0  0  0  0  0  0  0  0  0
    6.1865   17.1755    3.4755 H   0  0  0  0  0  0  0  0  0  0  0  0
    7.2826   18.5986    3.4755 H   0  0  0  0  0  0  0  0  0  0  0  0
    5.6493   18.8447    6.3401 H   0  0  0  0  0  0  0  0  0  0  0  0
    4.6156   20.2168    5.8152 H   0  0  0  0  0  0  0  0  0  0  0  0
    3.9577   18.5454    5.8152 H   0  0  0  0  0  0  0  0  0  0  0  0
    2.1772   16.5854    0.5530 H   0  0  0  0  0  0  0  0  0  0  0  0
    0.1587   17.7910   -0.0057 H   0  0  0  0  0  0  0  0  0  0  0  0
    0.8904   18.4949   -1.4636 H   0  0  0  0  0  0  0  0  0  0  0  0
   -0.9850   16.3387   -1.4213 H   0  0  0  0  0  0  0  0  0  0  0  0
    0.0009   16.7626   -2.8183 H   0  0  0  0  0  0  0  0  0  0  0  0
    0.8551   15.1668    0.6598 H   0  0  0  0  0  0  0  0  0  0  0  0
   -0.7178   14.7521   -0.1024 H   0  0  0  0  0  0  0  0  0  0  0  0
    0.6231   13.5568   -0.1024 H   0  0  0  0  0  0  0  0  0  0  0  0
    1.0581   14.7146   -3.5614 H   0  0  0  0  0  0  0  0  0  0  0  0
   -1.3257   14.2943   -2.6770 H   0  0  0  0  0  0  0  0  0  0  0  0
   -0.5878   13.2186   -3.9761 H   0  0  0  0  0  0  0  0  0  0  0  0
   -1.9552   11.9934   -2.0868 H   0  0  0  0  0  0  0  0  0  0  0  0
    1.7777   12.2490   -0.5716 H   0  0  0  0  0  0  0  0  0  0  0  0
    2.0016   10.1375   -2.8045 H   0  0  0  0  0  0  0  0  0  0  0  0
    3.3407   10.7341   -1.7266 H   0  0  0  0  0  0  0  0  0  0  0  0
    2.4914    8.5185   -1.0270 H   0  0  0  0  0  0  0  0  0  0  0  0
    2.2319    9.8007    0.2196 H   0  0  0  0  0  0  0  0  0  0  0  0
    0.2522    8.4503    0.0798 H   0  0  0  0  0  0  0  0  0  0  0  0
   -0.8690    8.6520   -2.1350 H   0  0  0  0  0  0  0  0  0  0  0  0
   -0.5517   10.0587    1.6264 H   0  0  0  0  0  0  0  0  0  0  0  0
    0.7786   11.1520    1.1147 H   0  0  0  0  0  0  0  0  0  0  0  0
   -0.9183   11.7411    1.1147 H   0  0  0  0  0  0  0  0  0  0  0  0
   -2.3728    9.8409    0.3212 H   0  0  0  0  0  0  0  0  0  0  0  0
   -2.4709   10.7466   -1.2269 H   0  0  0  0  0  0  0  0  0  0  0  0
   -1.9816    9.0182   -1.2269 H   0  0  0  0  0  0  0  0  0  0  0  0
    2.4570   11.3708   -3.9158 H   0  0  0  0  0  0  0  0  0  0  0  0
    1.1546   12.4472   -4.5256 H   0  0  0  0  0  0  0  0  0  0  0  0
    2.8599   13.0117   -4.5256 H   0  0  0  0  0  0  0  0  0  0  0  0
    3.8997   12.7319   -1.6850 H   0  0  0  0  0  0  0  0  0  0  0  0
    3.7494   14.0065   -3.0219 H   0  0  0  0  0  0  0  0  0  0  0  0
    3.0109   14.2993   -0.0972 H   0  0  0  0  0  0  0  0  0  0  0  0
    4.3213   15.1355   -1.0194 H   0  0  0  0  0  0  0  0  0  0  0  0
    3.5138   17.2509   -2.6353 H   0  0  0  0  0  0  0  0  0  0  0  0
    3.3544   15.6406   -3.4152 H   0  0  0  0  0  0  0  0  0  0  0  0
    1.9657   16.7799   -3.4152 H   0  0  0  0  0  0  0  0  0  0  0  0
  1  2  1  0
  2  3  1  0
  3  4  1  0
  4  5  1  0
  5  6  1  0
  6  7  1  0
  7  8  1  0
  7  9  1  0
  2 10  1  0
 10 11  1  0
 11 12  1  0
 12 13  1  0
 13 14  1  1
 13 15  1  0
 15 16  1  0
 16 17  1  0
 17 18  2  0
 18 19  1  0
 19 20  1  0
 20 21  1  0
 21 22  1  0
 22 23  1  0
 22 24  1  0
 24 25  1  0
 24 26  1  0
 19 27  1  0
 27 28  1  6
 27 29  1  0
 29 30  1  0
 30 31  1  0
 31 32  1  6
  7  5  1  0
 31 10  1  0
 31 13  1  0
 27 15  1  0
 24 18  1  0
  1 33  1  0
  1 34  1  0
  1 35  1  0
  2 36  1  6
  3 37  1  0
  3 38  1  0
  4 39  1  0
  4 40  1  0
  5 41  1  1
  8 42  1  0
  8 43  1  0
  8 44  1  0
  9 45  1  0
  9 46  1  0
  9 47  1  0
 10 48  1  1
 11 49  1  0
 11 50  1  0
 12 51  1  0
 12 52  1  0
 14 53  1  0
 14 54  1  0
 14 55  1  0
 15 56  1  6
 16 57  1  0
 16 58  1  0
 17 59  1  0
 19 60  1  1
 20 61  1  0
 20 62  1  0
 21 63  1  0
 21 64  1  0
 22 65  1  1
 23 66  1  0
 25 67  1  0
 25 68  1  0
 25 69  1  0
 26 70  1  0
 26 71  1  0
 26 72  1  0
 28 73  1  0
 28 74  1  0
 28 75  1  0
 29 76  1  0
 29 77  1  0
 30 78  1  0
 30 79  1  0
 32 80  1  0
 32 81  1  0
 32 82  1  0
M  END
>  <meeko>  (2) 
{"is_sidechain": [false], "intermolecular_energy": 2.731, "internal_energy": -0.839}

$$$$
EPH_relaxed_0001_pdb2pqr_Repair_297_r2_0001_out
     RDKit          3D

 82 86  0  0  0  0  0  0  0  0999 V2000
    1.9900   19.9740   -0.4660 C   0  0  0  0  0  0  0  0  0  0  0  0
    2.4480   18.6980    0.2460 C   0  0  2  0  0  0  0  0  0  0  0  0
    3.9250   18.3670   -0.0470 C   0  0  0  0  0  0  0  0  0  0  0  0
    4.8000   18.2950    1.2070 C   0  0  0  0  0  0  0  0  0  0  0  0
    4.2070   19.0750    2.3420 C   0  0  2  0  0  0  0  0  0  0  0  0
    4.9920   20.1940    2.7730 O   0  0  0  0  0  0  0  0  0  0  0  0
    4.8220   19.1340    3.7280 C   0  0  0  0  0  0  0  0  0  0  0  0
    6.0840   18.3990    4.0530 C   0  0  0  0  0  0  0  0  0  0  0  0
    3.9450   19.4990    4.8850 C   0  0  0  0  0  0  0  0  0  0  0  0
    1.5610   17.5280   -0.1650 C   0  0  1  0  0  0  0  0  0  0  0  0
    0.3550   17.9690   -1.0360 C   0  0  0  0  0  0  0  0  0  0  0  0
    0.0990   16.8300   -2.0560 C   0  0  0  0  0  0  0  0  0  0  0  0
    0.9370   15.6410   -1.5310 C   0  0  1  0  0  0  0  0  0  0  0  0
    0.0650   15.0010   -0.4060 C   0  0  0  0  0  0  0  0  0  0  0  0
    1.3760   14.5820   -2.5940 C   0  0  2  0  0  0  0  0  0  0  0  0
    0.2230   13.8370   -3.2880 C   0  0  0  0  0  0  0  0  0  0  0  0
   -0.2130   12.5740   -2.6220 C   0  0  0  0  0  0  0  0  0  0  0  0
    0.4790   11.9090   -1.6780 C   0  0  0  0  0  0  0  0  0  0  0  0
    1.8820   12.3680   -1.2590 C   0  0  1  0  0  0  0  0  0  0  0  0
    2.8330   11.1440   -1.2070 C   0  0  0  0  0  0  0  0  0  0  0  0
    2.2970   10.0240   -0.3210 C   0  0  0  0  0  0  0  0  0  0  0  0
    0.9270    9.5550   -0.8030 C   0  0  2  0  0  0  0  0  0  0  0  0
    1.0780    8.9280   -2.0810 O   0  0  0  0  0  0  0  0  0  0  0  0
   -0.1140   10.7050   -0.9050 C   0  0  0  0  0  0  0  0  0  0  0  0
   -0.5020   11.1830    0.5150 C   0  0  0  0  0  0  0  0  0  0  0  0
   -1.4070   10.1230   -1.5370 C   0  0  0  0  0  0  0  0  0  0  0  0
    2.4910   13.5790   -2.0880 C   0  0  1  0  0  0  0  0  0  0  0  0
    3.2170   13.0420   -3.3600 C   0  0  0  0  0  0  0  0  0  0  0  0
    3.5910   14.2960   -1.2190 C   0  0  0  0  0  0  0  0  0  0  0  0
    3.1100   15.4150   -0.2750 C   0  0  0  0  0  0  0  0  0  0  0  0
    2.2100   16.4080   -1.0160 C   0  0  2  0  0  0  0  0  0  0  0  0
    3.0670   17.0840   -2.1400 C   0  0  0  0  0  0  0  0  0  0  0  0
    1.7174   20.7334    0.2817 H   0  0  0  0  0  0  0  0  0  0  0  0
    2.8071   20.3560   -1.0956 H   0  0  0  0  0  0  0  0  0  0  0  0
    1.1164   19.7492   -1.0956 H   0  0  0  0  0  0  0  0  0  0  0  0
    2.3577   18.8722    1.3284 H   0  0  0  0  0  0  0  0  0  0  0  0
    3.9681   17.3933   -0.5569 H   0  0  0  0  0  0  0  0  0  0  0  0
    4.3204   19.1841   -0.6684 H   0  0  0  0  0  0  0  0  0  0  0  0
    4.9007   17.2428    1.5116 H   0  0  0  0  0  0  0  0  0  0  0  0
    5.7808   18.7311    0.9665 H   0  0  0  0  0  0  0  0  0  0  0  0
    3.1875   18.8486    1.9964 H   0  0  0  0  0  0  0  0  0  0  0  0
    6.1986   18.3323    5.1450 H   0  0  0  0  0  0  0  0  0  0  0  0
    6.0386   17.3861    3.6265 H   0  0  0  0  0  0  0  0  0  0  0  0
    6.9426   18.9383    3.6265 H   0  0  0  0  0  0  0  0  0  0  0  0
    4.4702   19.2804    5.8265 H   0  0  0  0  0  0  0  0  0  0  0  0
    3.7053   20.5716    4.8393 H   0  0  0  0  0  0  0  0  0  0  0  0
    3.0151   18.9132    4.8393 H   0  0  0  0  0  0  0  0  0  0  0  0
    1.2968   17.1394    0.8296 H   0  0  0  0  0  0  0  0  0  0  0  0
   -0.5333   18.1188   -0.4048 H   0  0  0  0  0  0  0  0  0  0  0  0
    0.5653   18.9188   -1.5495 H   0  0  0  0  0  0  0  0  0  0  0  0
   -0.9691   16.5688   -2.0866 H   0  0  0  0  0  0  0  0  0  0  0  0
    0.3780   17.1169   -3.0806 H   0  0  0  0  0  0  0  0  0  0  0  0
    0.4628   15.2930    0.5771 H   0  0  0  0  0  0  0  0  0  0  0  0
   -0.9726   15.3535   -0.5011 H   0  0  0  0  0  0  0  0  0  0  0  0
    0.0902   13.9054   -0.5011 H   0  0  0  0  0  0  0  0  0  0  0  0
    1.8384   15.2071   -3.3721 H   0  0  0  0  0  0  0  0  0  0  0  0
   -0.6424   14.5147   -3.3310 H   0  0  0  0  0  0  0  0  0  0  0  0
    0.6027   13.5435   -4.2778 H   0  0  0  0  0  0  0  0  0  0  0  0
   -1.1812   12.1512   -2.9284 H   0  0  0  0  0  0  0  0  0  0  0  0
    1.7734   12.7991   -0.2528 H   0  0  0  0  0  0  0  0  0  0  0  0
    2.9628   10.7547   -2.2276 H   0  0  0  0  0  0  0  0  0  0  0  0
    3.7880   11.4812   -0.7778 H   0  0  0  0  0  0  0  0  0  0  0  0
    2.9978    9.1766   -0.3486 H   0  0  0  0  0  0  0  0  0  0  0  0
    2.1959   10.4064    0.7054 H   0  0  0  0  0  0  0  0  0  0  0  0
    0.5392    8.8468   -0.0559 H   0  0  0  0  0  0  0  0  0  0  0  0
    1.1980    7.9750   -1.9280 H   0  0  0  0  0  0  0  0  0  0  0  0
    0.0057   10.5575    1.2639 H   0  0  0  0  0  0  0  0  0  0  0  0
   -0.1964   12.2317    0.6451 H   0  0  0  0  0  0  0  0  0  0  0  0
   -1.5911   11.0996    0.6451 H   0  0  0  0  0  0  0  0  0  0  0  0
   -2.0974    9.8122   -0.7390 H   0  0  0  0  0  0  0  0  0  0  0  0
   -1.8885   10.8912   -2.1599 H   0  0  0  0  0  0  0  0  0  0  0  0
   -1.1512    9.2532   -2.1599 H   0  0  0  0  0  0  0  0  0  0  0  0
    4.0675   12.4129   -3.0586 H   0  0  0  0  0  0  0  0  0  0  0  0
    2.5136   12.4451   -3.9592 H   0  0  0  0  0  0  0  0  0  0  0  0
    3.5818   13.8893   -3.9592 H   0  0  0  0  0  0  0  0  0  0  0  0
    4.0809   13.5280   -0.6024 H   0  0  0  0  0  0  0  0  0  0  0  0
    4.2509   14.7948   -1.9441 H   0  0  0  0  0  0  0  0  0  0  0  0
    2.5444   14.9670    0.5553 H   0  0  0  0  0  0  0  0  0  0  0  0
    3.9895   15.9551    0.1055 H   0  0  0  0  0  0  0  0  0  0  0  0
    3.8517   17.7030   -1.6805 H   0  0  0  0  0  0  0  0  0  0  0  0
    3.5317   16.3066   -2.7643 H   0  0  0  0  0  0  0  0  0  0  0  0
    2.4193   17.7170   -2.7643 H   0  0  0  0  0  0  0  0  0  0  0  0
  1  2  1  0
  2  3  1  0
  3  4  1  0
  4  5  1  0
  5  6  1  0
  6  7  1  0
  7  8  1  0
  7  9  1  0
  2 10  1  0
 10 11  1  0
 11 12  1  0
 12 13  1  0
 13 14  1  1
 13 15  1  0
 15 16  1  0
 16 17  1  0
 17 18  2  0
 18 19  1  0
 19 20  1  0
 20 21  1  0
 21 22  1  0
 22 23  1  0
 22 24  1  0
 24 25  1  0
 24 26  1  0
 19 27  1  0
 27 28  1  6
 27 29  1  0
 29 30  1  0
 30 31  1  0
 31 32  1  6
  7  5  1  0
 31 10  1  0
 31 13  1  0
 27 15  1  0
 24 18  1  0
  1 33  1  0
  1 34  1  0
  1 35  1  0
  2 36  1  1
  3 37  1  0
  3 38  1  0
  4 39  1  0
  4 40  1  0
  5 41  1  1
  8 42  1  0
  8 43  1  0
  8 44  1  0
  9 45  1  0
  9 46  1  0
  9 47  1  0
 10 48  1  1
 11 49  1  0
 11 50  1  0
 12 51  1  0
 12 52  1  0
 14 53  1  0
 14 54  1  0
 14 55  1  0
 15 56  1  6
 16 57  1  0
 16 58  1  0
 17 59  1  0
 19 60  1  1
 20 61  1  0
 20 62  1  0
 21 63  1  0
 21 64  1  0
 22 65  1  1
 23 66  1  0
 25 67  1  0
 25 68  1  0
 25 69  1  0
 26 70  1  0
 26 71  1  0
 26 72  1  0
 28 73  1  0
 28 74  1  0
 28 75  1  0
 29 76  1  0
 29 77  1  0
 30 78  1  0
 30 79  1  0
 32 80  1  0
 32 81  1  0
 32 82  1  0
M  END
>  <meeko>  (3) 
{"is_sidechain": [false], "intermolecular_energy": 2.731, "internal_energy": -0.839}

$$$$
EPH_relaxed_0001_pdb2pqr_Repair_297_r2_0001_out
     RDKit          3D

 82 86  0  0  0  0  0  0  0  0999 V2000
    2.7350   17.1660    0.2770 C   0  0  0  0  0  0  0  0  0  0  0  0
    2.2890   17.3450   -1.1770 C   0  0  2  0  0  0  0  0  0  0  0  0
    1.5440   18.6770   -1.3970 C   0  0  0  0  0  0  0  0  0  0  0  0
    1.2320   19.4290   -0.1000 C   0  0  0  0  0  0  0  0  0  0  0  0
   -0.1210   20.0720   -0.1440 C   0  0  2  0  0  0  0  0  0  0  0  0
   -0.7670   20.1940    1.1300 O   0  0  0  0  0  0  0  0  0  0  0  0
   -1.4080   19.3340    0.1740 C   0  0  0  0  0  0  0  0  0  0  0  0
   -1.4040   17.8880    0.5580 C   0  0  0  0  0  0  0  0  0  0  0  0
   -2.6960   19.8800   -0.3590 C   0  0  0  0  0  0  0  0  0  0  0  0
    1.4030   16.1770   -1.5960 C   0  0  1  0  0  0  0  0  0  0  0  0
    0.6960   16.4220   -2.9560 C   0  0  0  0  0  0  0  0  0  0  0  0
    0.6110   15.0490   -3.6700 C   0  0  0  0  0  0  0  0  0  0  0  0
    0.9640   14.0170   -2.5730 C   0  0  1  0  0  0  0  0  0  0  0  0
   -0.3570   13.8210   -1.7660 C   0  0  0  0  0  0  0  0  0  0  0  0
    1.5450   12.6530   -3.0700 C   0  0  2  0  0  0  0  0  0  0  0  0
    0.5970   11.8220   -3.9520 C   0  0  0  0  0  0  0  0  0  0  0  0
   -0.2790   10.8610   -3.2180 C   0  0  0  0  0  0  0  0  0  0  0  0
   -0.1100   10.4660   -1.9430 C   0  0  0  0  0  0  0  0  0  0  0  0
    1.1100   10.9210   -1.1320 C   0  0  1  0  0  0  0  0  0  0  0  0
    1.7290    9.7030   -0.3990 C   0  0  0  0  0  0  0  0  0  0  0  0
    0.7090    8.9530    0.4530 C   0  0  0  0  0  0  0  0  0  0  0  0
   -0.4600    8.4650   -0.3990 C   0  0  2  0  0  0  0  0  0  0  0  0
    0.0170    7.4680   -1.3080 O   0  0  0  0  0  0  0  0  0  0  0  0
   -1.1570    9.6050   -1.1930 C   0  0  0  0  0  0  0  0  0  0  0  0
   -1.9300   10.5240   -0.2150 C   0  0  0  0  0  0  0  0  0  0  0  0
   -2.2240    8.9600   -2.1180 C   0  0  0  0  0  0  0  0  0  0  0  0
    2.1930   11.7700   -1.9270 C   0  0  1  0  0  0  0  0  0  0  0  0
    3.2100   10.8150   -2.6250 C   0  0  0  0  0  0  0  0  0  0  0  0
    3.0240   12.6320   -0.9040 C   0  0  0  0  0  0  0  0  0  0  0  0
    2.4590   14.0190   -0.5450 C   0  0  0  0  0  0  0  0  0  0  0  0
    2.0890   14.8040   -1.8070 C   0  0  2  0  0  0  0  0  0  0  0  0
    3.4030   15.0360   -2.6280 C   0  0  0  0  0  0  0  0  0  0  0  0
    1.9279   17.4899    0.9506 H   0  0  0  0  0  0  0  0  0  0  0  0
    2.9642   16.1062    0.4624 H   0  0  0  0  0  0  0  0  0  0  0  0
    3.6332   17.7733    0.4624 H   0  0  0  0  0  0  0  0  0  0  0  0
    3.1949   17.3674   -1.8005 H   0  0  0  0  0  0  0  0  0  0  0  0
    2.1681   19.3233   -2.0317 H   0  0  0  0  0  0  0  0  0  0  0  0
    0.5799   18.4325   -1.8668 H   0  0  0  0  0  0  0  0  0  0  0  0
    1.2622   18.7192    0.7398 H   0  0  0  0  0  0  0  0  0  0  0  0
    1.9844   20.2214    0.0265 H   0  0  0  0  0  0  0  0  0  0  0  0
    0.1783   20.6996   -0.9963 H   0  0  0  0  0  0  0  0  0  0  0  0
   -1.4038   17.7998    1.6545 H   0  0  0  0  0  0  0  0  0  0  0  0
   -2.3008   17.3980    0.1509 H   0  0  0  0  0  0  0  0  0  0  0  0
   -0.5045   17.4030    0.1509 H   0  0  0  0  0  0  0  0  0  0  0  0
   -3.3514   20.1578    0.4796 H   0  0  0  0  0  0  0  0  0  0  0  0
   -2.4910   20.7686   -0.9741 H   0  0  0  0  0  0  0  0  0  0  0  0
   -3.1920   19.1148   -0.9741 H   0  0  0  0  0  0  0  0  0  0  0  0
    0.7321   16.1326   -0.7254 H   0  0  0  0  0  0  0  0  0  0  0  0
   -0.3137   16.8260   -2.7906 H   0  0  0  0  0  0  0  0  0  0  0  0
    1.2525   17.1498   -3.5648 H   0  0  0  0  0  0  0  0  0  0  0  0
   -0.4042   14.8740   -4.0558 H   0  0  0  0  0  0  0  0  0  0  0  0
    1.2870   14.9860   -4.5355 H   0  0  0  0  0  0  0  0  0  0  0  0
   -0.1369   13.8537   -0.6887 H   0  0  0  0  0  0  0  0  0  0  0  0
   -1.0645   14.6240   -2.0202 H   0  0  0  0  0  0  0  0  0  0  0  0
   -0.8009   12.8472   -2.0202 H   0  0  0  0  0  0  0  0  0  0  0  0
    2.3642   12.9725   -3.7309 H   0  0  0  0  0  0  0  0  0  0  0  0
   -0.0508   12.5184   -4.5047 H   0  0  0  0  0  0  0  0  0  0  0  0
    1.2422   11.2112   -4.6006 H   0  0  0  0  0  0  0  0  0  0  0  0
   -1.1350   10.4404   -3.7661 H   0  0  0  0  0  0  0  0  0  0  0  0
    0.7324   11.6461   -0.3960 H   0  0  0  0  0  0  0  0  0  0  0  0
    2.1389    9.0108   -1.1493 H   0  0  0  0  0  0  0  0  0  0  0  0
    2.5129   10.0810    0.2738 H   0  0  0  0  0  0  0  0  0  0  0  0
    1.1989    8.0869    0.9219 H   0  0  0  0  0  0  0  0  0  0  0  0
    0.3215    9.6383    1.2213 H   0  0  0  0  0  0  0  0  0  0  0  0
   -1.2161    8.0508    0.2842 H   0  0  0  0  0  0  0  0  0  0  0  0
    0.4850    6.7940   -0.7860 H   0  0  0  0  0  0  0  0  0  0  0  0
   -1.6914   10.2404    0.8207 H   0  0  0  0  0  0  0  0  0  0  0  0
   -1.6365   11.5703   -0.3855 H   0  0  0  0  0  0  0  0  0  0  0  0
   -3.0111   10.4140   -0.3855 H   0  0  0  0  0  0  0  0  0  0  0  0
   -3.0048    8.4880   -1.5036 H   0  0  0  0  0  0  0  0  0  0  0  0
   -2.6762    9.7361   -2.7529 H   0  0  0  0  0  0  0  0  0  0  0  0
   -1.7470    8.1989   -2.7529 H   0  0  0  0  0  0  0  0  0  0  0  0
    3.7873   10.2729   -1.8616 H   0  0  0  0  0  0  0  0  0  0  0  0
    2.6651   10.0946   -3.2528 H   0  0  0  0  0  0  0  0  0  0  0  0
    3.8947   11.4041   -3.2528 H   0  0  0  0  0  0  0  0  0  0  0  0
    3.1058   12.0544    0.0286 H   0  0  0  0  0  0  0  0  0  0  0  0
    3.9813   12.8326   -1.4074 H   0  0  0  0  0  0  0  0  0  0  0  0
    1.5600   13.8916    0.0759 H   0  0  0  0  0  0  0  0  0  0  0  0
    3.2297   14.5802    0.0036 H   0  0  0  0  0  0  0  0  0  0  0  0
    4.2457   15.1848   -1.9369 H   0  0  0  0  0  0  0  0  0  0  0  0
    3.5991   14.1586   -3.2618 H   0  0  0  0  0  0  0  0  0  0  0  0
    3.2868   15.9275   -3.2618 H   0  0  0  0  0  0  0  0  0  0  0  0
  1  2  1  0
  2  3  1  0
  3  4  1  0
  4  5  1  0
  5  6  1  0
  6  7  1  0
  7  8  1  0
  7  9  1  0
  2 10  1  0
 10 11  1  0
 11 12  1  0
 12 13  1  0
 13 14  1  1
 13 15  1  0
 15 16  1  0
 16 17  1  0
 17 18  2  0
 18 19  1  0
 19 20  1  0
 20 21  1  0
 21 22  1  0
 22 23  1  0
 22 24  1  0
 24 25  1  0
 24 26  1  0
 19 27  1  0
 27 28  1  6
 27 29  1  0
 29 30  1  0
 30 31  1  0
 31 32  1  6
  7  5  1  0
 31 10  1  0
 31 13  1  0
 27 15  1  0
 24 18  1  0
  1 33  1  0
  1 34  1  0
  1 35  1  0
  2 36  1  6
  3 37  1  0
  3 38  1  0
  4 39  1  0
  4 40  1  0
  5 41  1  6
  8 42  1  0
  8 43  1  0
  8 44  1  0
  9 45  1  0
  9 46  1  0
  9 47  1  0
 10 48  1  1
 11 49  1  0
 11 50  1  0
 12 51  1  0
 12 52  1  0
 14 53  1  0
 14 54  1  0
 14 55  1  0
 15 56  1  6
 16 57  1  0
 16 58  1  0
 17 59  1  0
 19 60  1  1
 20 61  1  0
 20 62  1  0
 21 63  1  0
 21 64  1  0
 22 65  1  1
 23 66  1  0
 25 67  1  0
 25 68  1  0
 25 69  1  0
 26 70  1  0
 26 71  1  0
 26 72  1  0
 28 73  1  0
 28 74  1  0
 28 75  1  0
 29 76  1  0
 29 77  1  0
 30 78  1  0
 30 79  1  0
 32 80  1  0
 32 81  1  0
 32 82  1  0
M  END
>  <meeko>  (4) 
{"is_sidechain": [false], "intermolecular_energy": 2.731, "internal_energy": -0.839}

$$$$
EPH_relaxed_0001_pdb2pqr_Repair_297_r2_0001_out
     RDKit          3D

 82 86  0  0  0  0  0  0  0  0999 V2000
    1.7160   18.5860   -1.4680 C   0  0  0  0  0  0  0  0  0  0  0  0
    1.7550   17.3830   -0.5210 C   0  0  2  0  0  0  0  0  0  0  0  0
    3.1980   16.9690   -0.1690 C   0  0  0  0  0  0  0  0  0  0  0  0
    4.0960   18.1430    0.2310 C   0  0  0  0  0  0  0  0  0  0  0  0
    3.7840   18.6340    1.6120 C   0  0  2  0  0  0  0  0  0  0  0  0
    4.0440   20.0270    1.8260 O   0  0  0  0  0  0  0  0  0  0  0  0
    4.8420   19.1090    2.5900 C   0  0  0  0  0  0  0  0  0  0  0  0
    6.2940   19.1150    2.2270 C   0  0  0  0  0  0  0  0  0  0  0  0
    4.5200   19.1030    4.0520 C   0  0  0  0  0  0  0  0  0  0  0  0
    1.0130   16.2070   -1.1440 C   0  0  1  0  0  0  0  0  0  0  0  0
    0.5050   16.5130   -2.5780 C   0  0  0  0  0  0  0  0  0  0  0  0
    0.6090   15.1910   -3.3810 C   0  0  0  0  0  0  0  0  0  0  0  0
    0.8540   14.1020   -2.3110 C   0  0  1  0  0  0  0  0  0  0  0  0
   -0.5600   13.7850   -1.7300 C   0  0  0  0  0  0  0  0  0  0  0  0
    1.5830   12.8070   -2.7970 C   0  0  2  0  0  0  0  0  0  0  0  0
    0.8290   11.9960   -3.8650 C   0  0  0  0  0  0  0  0  0  0  0  0
   -0.0890   10.9440   -3.3360 C   0  0  0  0  0  0  0  0  0  0  0  0
   -0.0900   10.4670   -2.0780 C   0  0  0  0  0  0  0  0  0  0  0  0
    0.9650   10.9230   -1.0620 C   0  0  1  0  0  0  0  0  0  0  0  0
    1.5380    9.6870   -0.3200 C   0  0  0  0  0  0  0  0  0  0  0  0
    0.4480    8.8290    0.3160 C   0  0  0  0  0  0  0  0  0  0  0  0
   -0.5490    8.3470   -0.7350 C   0  0  2  0  0  0  0  0  0  0  0  0
    0.1160    7.4410   -1.6200 O   0  0  0  0  0  0  0  0  0  0  0  0
   -1.1850    9.5050   -1.5530 C   0  0  0  0  0  0  0  0  0  0  0  0
   -2.1490   10.3130   -0.6490 C   0  0  0  0  0  0  0  0  0  0  0  0
   -2.0610    8.8760   -2.6700 C   0  0  0  0  0  0  0  0  0  0  0  0
    2.1030   11.8780   -1.6260 C   0  0  1  0  0  0  0  0  0  0  0  0
    3.2670   11.0260   -2.2180 C   0  0  0  0  0  0  0  0  0  0  0  0
    2.7180   12.7040   -0.4350 C   0  0  0  0  0  0  0  0  0  0  0  0
    2.0250   14.0340   -0.0810 C   0  0  0  0  0  0  0  0  0  0  0  0
    1.8030   14.8870   -1.3330 C   0  0  2  0  0  0  0  0  0  0  0  0
    3.2090   15.2410   -1.9260 C   0  0  0  0  0  0  0  0  0  0  0  0
    1.6859   19.5150   -0.8797 H   0  0  0  0  0  0  0  0  0  0  0  0
    2.6147   18.5826   -2.1023 H   0  0  0  0  0  0  0  0  0  0  0  0
    0.8194   18.5244   -2.1023 H   0  0  0  0  0  0  0  0  0  0  0  0
    1.2592   17.6814    0.4145 H   0  0  0  0  0  0  0  0  0  0  0  0
    3.1604   16.2590    0.6704 H   0  0  0  0  0  0  0  0  0  0  0  0
    3.6348   16.5250   -1.0757 H   0  0  0  0  0  0  0  0  0  0  0  0
    5.1458   17.8163    0.1975 H   0  0  0  0  0  0  0  0  0  0  0  0
    3.9170   18.9676   -0.4747 H   0  0  0  0  0  0  0  0  0  0  0  0
    2.9617   17.9097    1.7085 H   0  0  0  0  0  0  0  0  0  0  0  0
    6.9012   19.1175    3.1442 H   0  0  0  0  0  0  0  0  0  0  0  0
    6.5277   18.2178    1.6350 H   0  0  0  0  0  0  0  0  0  0  0  0
    6.5202   20.0141    1.6350 H   0  0  0  0  0  0  0  0  0  0  0  0
    5.4538   19.1204    4.6332 H   0  0  0  0  0  0  0  0  0  0  0  0
    3.9181   19.9901    4.2985 H   0  0  0  0  0  0  0  0  0  0  0  0
    3.9515   18.1941    4.2985 H   0  0  0  0  0  0  0  0  0  0  0  0
    0.2226   16.0684   -0.3916 H   0  0  0  0  0  0  0  0  0  0  0  0
   -0.5400   16.8548   -2.5448 H   0  0  0  0  0  0  0  0  0  0  0  0
    1.1027   17.3083   -3.0474 H   0  0  0  0  0  0  0  0  0  0  0  0
   -0.3249   14.9946   -3.9280 H   0  0  0  0  0  0  0  0  0  0  0  0
    1.4099   15.2228   -4.1344 H   0  0  0  0  0  0  0  0  0  0  0  0
   -0.5155   13.7950   -0.6309 H   0  0  0  0  0  0  0  0  0  0  0  0
   -1.2769   14.5447   -2.0748 H   0  0  0  0  0  0  0  0  0  0  0  0
   -0.8839   12.7919   -2.0748 H   0  0  0  0  0  0  0  0  0  0  0  0
    2.4723   13.2120   -3.3021 H   0  0  0  0  0  0  0  0  0  0  0  0
    0.2317   12.6976   -4.4659 H   0  0  0  0  0  0  0  0  0  0  0  0
    1.5989   11.4652   -4.4442 H   0  0  0  0  0  0  0  0  0  0  0  0
   -0.8274   10.5231   -4.0343 H   0  0  0  0  0  0  0  0  0  0  0  0
    0.4389   11.5751   -0.3492 H   0  0  0  0  0  0  0  0  0  0  0  0
    2.0964    9.0709   -1.0402 H   0  0  0  0  0  0  0  0  0  0  0  0
    2.1878   10.0543    0.4880 H   0  0  0  0  0  0  0  0  0  0  0  0
    0.9124    7.9565    0.7987 H   0  0  0  0  0  0  0  0  0  0  0  0
   -0.0901    9.4375    1.0577 H   0  0  0  0  0  0  0  0  0  0  0  0
   -1.3736    7.8494   -0.2035 H   0  0  0  0  0  0  0  0  0  0  0  0
   -0.2360    6.5510   -1.4500 H   0  0  0  0  0  0  0  0  0  0  0  0
   -1.9133   10.1155    0.4071 H   0  0  0  0  0  0  0  0  0  0  0  0
   -2.0322   11.3870   -0.8561 H   0  0  0  0  0  0  0  0  0  0  0  0
   -3.1861   10.0103   -0.8561 H   0  0  0  0  0  0  0  0  0  0  0  0
   -2.8739    8.2923   -2.2134 H   0  0  0  0  0  0  0  0  0  0  0  0
   -2.4887    9.6746   -3.2940 H   0  0  0  0  0  0  0  0  0  0  0  0
   -1.4410    8.2155   -3.2940 H   0  0  0  0  0  0  0  0  0  0  0  0
    3.8584   10.5931   -1.3978 H   0  0  0  0  0  0  0  0  0  0  0  0
    2.8514   10.2172   -2.8369 H   0  0  0  0  0  0  0  0  0  0  0  0
    3.9123   11.6667   -2.8369 H   0  0  0  0  0  0  0  0  0  0  0  0
    2.6916   12.0662    0.4609 H   0  0  0  0  0  0  0  0  0  0  0  0
    3.7269   12.9856   -0.7708 H   0  0  0  0  0  0  0  0  0  0  0  0
    1.0521   13.8197    0.3855 H   0  0  0  0  0  0  0  0  0  0  0  0
    2.6707   14.5918    0.6133 H   0  0  0  0  0  0  0  0  0  0  0  0
    3.9188   15.4197   -1.1049 H   0  0  0  0  0  0  0  0  0  0  0  0
    3.5670   14.4050   -2.5448 H   0  0  0  0  0  0  0  0  0  0  0  0
    3.1285   16.1469   -2.5448 H   0  0  0  0  0  0  0  0  0  0  0  0
  1  2  1  0
  2  3  1  0
  3  4  1  0
  4  5  1  0
  5  6  1  0
  6  7  1  0
  7  8  1  0
  7  9  1  0
  2 10  1  0
 10 11  1  0
 11 12  1  0
 12 13  1  0
 13 14  1  1
 13 15  1  0
 15 16  1  0
 16 17  1  0
 17 18  2  0
 18 19  1  0
 19 20  1  0
 20 21  1  0
 21 22  1  0
 22 23  1  0
 22 24  1  0
 24 25  1  0
 24 26  1  0
 19 27  1  0
 27 28  1  6
 27 29  1  0
 29 30  1  0
 30 31  1  0
 31 32  1  6
  7  5  1  0
 31 10  1  0
 31 13  1  0
 27 15  1  0
 24 18  1  0
  1 33  1  0
  1 34  1  0
  1 35  1  0
  2 36  1  1
  3 37  1  0
  3 38  1  0
  4 39  1  0
  4 40  1  0
  5 41  1  1
  8 42  1  0
  8 43  1  0
  8 44  1  0
  9 45  1  0
  9 46  1  0
  9 47  1  0
 10 48  1  1
 11 49  1  0
 11 50  1  0
 12 51  1  0
 12 52  1  0
 14 53  1  0
 14 54  1  0
 14 55  1  0
 15 56  1  6
 16 57  1  0
 16 58  1  0
 17 59  1  0
 19 60  1  1
 20 61  1  0
 20 62  1  0
 21 63  1  0
 21 64  1  0
 22 65  1  1
 23 66  1  0
 25 67  1  0
 25 68  1  0
 25 69  1  0
 26 70  1  0
 26 71  1  0
 26 72  1  0
 28 73  1  0
 28 74  1  0
 28 75  1  0
 29 76  1  0
 29 77  1  0
 30 78  1  0
 30 79  1  0
 32 80  1  0
 32 81  1  0
 32 82  1  0
M  END
>  <meeko>  (5) 
{"is_sidechain": [false], "intermolecular_energy": 2.731, "internal_energy": -0.839}

$$$$
EPH_relaxed_0001_pdb2pqr_Repair_297_r2_0001_out
     RDKit          3D

 82 86  0  0  0  0  0  0  0  0999 V2000
   -2.5670    7.8330   -2.9620 C   0  0  0  0  0  0  0  0  0  0  0  0
   -2.8450    8.1230   -1.4840 C   0  0  2  0  0  0  0  0  0  0  0  0
   -4.3550    8.1660   -1.1750 C   0  0  0  0  0  0  0  0  0  0  0  0
   -5.0820    6.8520   -1.4730 C   0  0  0  0  0  0  0  0  0  0  0  0
   -6.1670    7.0370   -2.4900 C   0  0  2  0  0  0  0  0  0  0  0  0
   -6.9330    8.2390   -2.3370 O   0  0  0  0  0  0  0  0  0  0  0  0
   -7.6450    7.0050   -2.1520 C   0  0  0  0  0  0  0  0  0  0  0  0
   -8.1200    6.7810   -0.7500 C   0  0  0  0  0  0  0  0  0  0  0  0
   -8.6230    6.7040   -3.2440 C   0  0  0  0  0  0  0  0  0  0  0  0
   -2.1930    9.4400   -1.0820 C   0  0  1  0  0  0  0  0  0  0  0  0
   -2.6150    9.9060    0.3370 C   0  0  0  0  0  0  0  0  0  0  0  0
   -1.3810   10.6060    0.9640 C   0  0  0  0  0  0  0  0  0  0  0  0
   -0.4080   10.8140   -0.2200 C   0  0  1  0  0  0  0  0  0  0  0  0
   -0.9250   12.0960   -0.9440 C   0  0  0  0  0  0  0  0  0  0  0  0
    1.1090   10.9280    0.1440 C   0  0  2  0  0  0  0  0  0  0  0  0
    1.4780   12.1270    1.0340 C   0  0  0  0  0  0  0  0  0  0  0  0
    1.8480   13.3750    0.3020 C   0  0  0  0  0  0  0  0  0  0  0  0
    2.1590   13.4510   -1.0050 C   0  0  0  0  0  0  0  0  0  0  0  0
    2.2530   12.1860   -1.8680 C   0  0  1  0  0  0  0  0  0  0  0  0
    3.5480   12.2370   -2.7210 C   0  0  0  0  0  0  0  0  0  0  0  0
    3.6550   13.5150   -3.5470 C   0  0  0  0  0  0  0  0  0  0  0  0
    3.6160   14.7490   -2.6490 C   0  0  2  0  0  0  0  0  0  0  0  0
    4.7990   14.7700   -1.8430 O   0  0  0  0  0  0  0  0  0  0  0  0
    2.3600   14.8020   -1.7350 C   0  0  0  0  0  0  0  0  0  0  0  0
    1.1030   15.0820   -2.5950 C   0  0  0  0  0  0  0  0  0  0  0  0
    2.5140   16.0190   -0.7820 C   0  0  0  0  0  0  0  0  0  0  0  0
    2.0840   10.8070   -1.0970 C   0  0  1  0  0  0  0  0  0  0  0  0
    3.4610   10.3380   -0.5360 C   0  0  0  0  0  0  0  0  0  0  0  0
    1.6200    9.7010   -2.1170 C   0  0  0  0  0  0  0  0  0  0  0  0
    0.1030    9.5570   -2.3440 C   0  0  0  0  0  0  0  0  0  0  0  0
   -0.6450    9.4750   -1.0100 C   0  0  2  0  0  0  0  0  0  0  0  0
   -0.1620    8.1820   -0.2690 C   0  0  0  0  0  0  0  0  0  0  0  0
   -1.8079    7.0411   -3.0438 H   0  0  0  0  0  0  0  0  0  0  0  0
   -3.4951    7.5033   -3.4518 H   0  0  0  0  0  0  0  0  0  0  0  0
   -2.1984    8.7463   -3.4518 H   0  0  0  0  0  0  0  0  0  0  0  0
   -2.4117    7.2995   -0.8974 H   0  0  0  0  0  0  0  0  0  0  0  0
   -4.4846    8.4003   -0.1081 H   0  0  0  0  0  0  0  0  0  0  0  0
   -4.7953    8.9325   -1.8296 H   0  0  0  0  0  0  0  0  0  0  0  0
   -4.3547    6.1213   -1.8566 H   0  0  0  0  0  0  0  0  0  0  0  0
   -5.5436    6.4963   -0.5400 H   0  0  0  0  0  0  0  0  0  0  0  0
   -5.5732    6.5120   -3.2527 H   0  0  0  0  0  0  0  0  0  0  0  0
   -7.3579    7.1404   -0.0428 H   0  0  0  0  0  0  0  0  0  0  0  0
   -9.0586    7.3314   -0.5885 H   0  0  0  0  0  0  0  0  0  0  0  0
   -8.2925    5.7067   -0.5885 H   0  0  0  0  0  0  0  0  0  0  0  0
   -9.5859    6.4076   -2.8024 H   0  0  0  0  0  0  0  0  0  0  0  0
   -8.7652    7.6000   -3.8661 H   0  0  0  0  0  0  0  0  0  0  0  0
   -8.2368    5.8831   -3.8661 H   0  0  0  0  0  0  0  0  0  0  0  0
   -2.5458   10.0794   -1.9047 H   0  0  0  0  0  0  0  0  0  0  0  0
   -3.4566   10.6110    0.2694 H   0  0  0  0  0  0  0  0  0  0  0  0
   -2.9403    9.0539    0.9519 H   0  0  0  0  0  0  0  0  0  0  0  0
   -1.6657   11.5717    1.4071 H   0  0  0  0  0  0  0  0  0  0  0  0
   -0.9317   10.0131    1.7744 H   0  0  0  0  0  0  0  0  0  0  0  0
   -1.2264   12.8435   -0.1954 H   0  0  0  0  0  0  0  0  0  0  0  0
   -0.1235   12.5100   -1.5735 H   0  0  0  0  0  0  0  0  0  0  0  0
   -1.7895   11.8382   -1.5735 H   0  0  0  0  0  0  0  0  0  0  0  0
    1.2705   10.0346    0.7651 H   0  0  0  0  0  0  0  0  0  0  0  0
    0.6134   12.3529    1.6755 H   0  0  0  0  0  0  0  0  0  0  0  0
    2.3754   11.8254    1.5941 H   0  0  0  0  0  0  0  0  0  0  0  0
    1.8680   14.3108    0.8798 H   0  0  0  0  0  0  0  0  0  0  0  0
    1.3716   12.1999   -2.5260 H   0  0  0  0  0  0  0  0  0  0  0  0
    4.4160   12.1786   -2.0479 H   0  0  0  0  0  0  0  0  0  0  0  0
    3.5202   11.3888   -3.4208 H   0  0  0  0  0  0  0  0  0  0  0  0
    4.6032   13.5051   -4.1045 H   0  0  0  0  0  0  0  0  0  0  0  0
    2.8020   13.5578   -4.2403 H   0  0  0  0  0  0  0  0  0  0  0  0
    3.5651   15.6318   -3.3032 H   0  0  0  0  0  0  0  0  0  0  0  0
    4.8800   13.9000   -1.4170 H   0  0  0  0  0  0  0  0  0  0  0  0
    0.2432   15.2735   -1.9362 H   0  0  0  0  0  0  0  0  0  0  0  0
    1.2817   15.9623   -3.2299 H   0  0  0  0  0  0  0  0  0  0  0  0
    0.8912   14.2090   -3.2299 H   0  0  0  0  0  0  0  0  0  0  0  0
    2.4705   15.6750    0.2619 H   0  0  0  0  0  0  0  0  0  0  0  0
    3.4813   16.5091   -0.9665 H   0  0  0  0  0  0  0  0  0  0  0  0
    1.6992   16.7346   -0.9665 H   0  0  0  0  0  0  0  0  0  0  0  0
    3.4316   10.3480    0.5636 H   0  0  0  0  0  0  0  0  0  0  0  0
    3.6719    9.3174   -0.8879 H   0  0  0  0  0  0  0  0  0  0  0  0
    4.2510   11.0177   -0.8879 H   0  0  0  0  0  0  0  0  0  0  0  0
    2.0815    9.9301   -3.0889 H   0  0  0  0  0  0  0  0  0  0  0  0
    1.9357    8.7468   -1.6699 H   0  0  0  0  0  0  0  0  0  0  0  0
   -0.2609   10.4286   -2.9077 H   0  0  0  0  0  0  0  0  0  0  0  0
   -0.0812    8.6303   -2.9072 H   0  0  0  0  0  0  0  0  0  0  0  0
   -0.2206    8.3389    0.8182 H   0  0  0  0  0  0  0  0  0  0  0  0
   -0.8045    7.3353   -0.5524 H   0  0  0  0  0  0  0  0  0  0  0  0
    0.8782    7.9639   -0.5524 H   0  0  0  0  0  0  0  0  0  0  0  0
  1  2  1  0
  2  3  1  0
  3  4  1  0
  4  5  1  0
  5  6  1  0
  6  7  1  0
  7  8  1  0
  7  9  1  0
  2 10  1  0
 10 11  1  0
 11 12  1  0
 12 13  1  0
 13 14  1  6
 13 15  1  0
 15 16  1  0
 16 17  1  0
 17 18  2  0
 18 19  1  0
 19 20  1  0
 20 21  1  0
 21 22  1  0
 22 23  1  0
 22 24  1  0
 24 25  1  0
 24 26  1  0
 19 27  1  0
 27 28  1  1
 27 29  1  0
 29 30  1  0
 30 31  1  0
 31 32  1  1
  7  5  1  0
 31 10  1  0
 31 13  1  0
 27 15  1  0
 24 18  1  0
  1 33  1  0
  1 34  1  0
  1 35  1  0
  2 36  1  1
  3 37  1  0
  3 38  1  0
  4 39  1  0
  4 40  1  0
  5 41  1  6
  8 42  1  0
  8 43  1  0
  8 44  1  0
  9 45  1  0
  9 46  1  0
  9 47  1  0
 10 48  1  6
 11 49  1  0
 11 50  1  0
 12 51  1  0
 12 52  1  0
 14 53  1  0
 14 54  1  0
 14 55  1  0
 15 56  1  1
 16 57  1  0
 16 58  1  0
 17 59  1  0
 19 60  1  6
 20 61  1  0
 20 62  1  0
 21 63  1  0
 21 64  1  0
 22 65  1  6
 23 66  1  0
 25 67  1  0
 25 68  1  0
 25 69  1  0
 26 70  1  0
 26 71  1  0
 26 72  1  0
 28 73  1  0
 28 74  1  0
 28 75  1  0
 29 76  1  0
 29 77  1  0
 30 78  1  0
 30 79  1  0
 32 80  1  0
 32 81  1  0
 32 82  1  0
M  END
>  <meeko>  (6) 
{"is_sidechain": [false], "intermolecular_energy": 2.731, "internal_energy": -0.839}

$$$$
EPH_relaxed_0001_pdb2pqr_Repair_297_r2_0001_out
     RDKit          3D

 82 86  0  0  0  0  0  0  0  0999 V2000
   -1.1050    8.7040   -1.9350 C   0  0  0  0  0  0  0  0  0  0  0  0
   -1.5490    9.1190   -0.5290 C   0  0  2  0  0  0  0  0  0  0  0  0
   -3.0790    9.2790   -0.4280 C   0  0  0  0  0  0  0  0  0  0  0  0
   -3.8590    8.3400   -1.3520 C   0  0  0  0  0  0  0  0  0  0  0  0
   -5.2320    8.0550   -0.8230 C   0  0  2  0  0  0  0  0  0  0  0  0
   -5.5080    6.6670   -0.5920 O   0  0  0  0  0  0  0  0  0  0  0  0
   -6.2940    7.3100   -1.6090 C   0  0  0  0  0  0  0  0  0  0  0  0
   -6.0290    6.8050   -2.9930 C   0  0  0  0  0  0  0  0  0  0  0  0
   -7.7300    7.5010   -1.2310 C   0  0  0  0  0  0  0  0  0  0  0  0
   -0.8610   10.4190   -0.1290 C   0  0  1  0  0  0  0  0  0  0  0  0
    0.1020   10.2390    1.0740 C   0  0  0  0  0  0  0  0  0  0  0  0
    1.2950   11.2020    0.8390 C   0  0  0  0  0  0  0  0  0  0  0  0
    0.8250   12.1340   -0.3020 C   0  0  1  0  0  0  0  0  0  0  0  0
   -0.0670   13.2070    0.3970 C   0  0  0  0  0  0  0  0  0  0  0  0
    1.9510   12.7930   -1.1640 C   0  0  2  0  0  0  0  0  0  0  0  0
    2.8950   13.7330   -0.3960 C   0  0  0  0  0  0  0  0  0  0  0  0
    2.4760   15.1650   -0.3560 C   0  0  0  0  0  0  0  0  0  0  0  0
    1.5450   15.7300   -1.1470 C   0  0  0  0  0  0  0  0  0  0  0  0
    0.8740   14.9280   -2.2690 C   0  0  1  0  0  0  0  0  0  0  0  0
    0.8560   15.7740   -3.5700 C   0  0  0  0  0  0  0  0  0  0  0  0
    0.2160   17.1440   -3.3690 C   0  0  0  0  0  0  0  0  0  0  0  0
    0.9470   17.9330   -2.2850 C   0  0  2  0  0  0  0  0  0  0  0  0
    2.2640   18.2440   -2.7500 O   0  0  0  0  0  0  0  0  0  0  0  0
    1.0360   17.1770   -0.9310 C   0  0  0  0  0  0  0  0  0  0  0  0
   -0.3680   17.1060   -0.2810 C   0  0  0  0  0  0  0  0  0  0  0  0
    1.9170   18.0200    0.0300 C   0  0  0  0  0  0  0  0  0  0  0  0
    1.4350   13.4600   -2.5040 C   0  0  1  0  0  0  0  0  0  0  0  0
    2.6530   13.5040   -3.4760 C   0  0  0  0  0  0  0  0  0  0  0  0
    0.3290   12.5950   -3.2160 C   0  0  0  0  0  0  0  0  0  0  0  0
   -0.6820   11.8720   -2.3050 C   0  0  0  0  0  0  0  0  0  0  0  0
    0.0360   11.1050   -1.1900 C   0  0  2  0  0  0  0  0  0  0  0  0
    0.9240   10.0030   -1.8630 C   0  0  0  0  0  0  0  0  0  0  0  0
   -0.3032    7.9546   -1.8601 H   0  0  0  0  0  0  0  0  0  0  0  0
   -1.9597    8.2735   -2.4773 H   0  0  0  0  0  0  0  0  0  0  0  0
   -0.7332    9.5858   -2.4773 H   0  0  0  0  0  0  0  0  0  0  0  0
   -1.2547    8.3156    0.1623 H   0  0  0  0  0  0  0  0  0  0  0  0
   -3.3816    9.0752    0.6097 H   0  0  0  0  0  0  0  0  0  0  0  0
   -3.3158   10.3068   -0.7405 H   0  0  0  0  0  0  0  0  0  0  0  0
   -3.9492    8.8090   -2.3429 H   0  0  0  0  0  0  0  0  0  0  0  0
   -3.3115    7.3880   -1.4144 H   0  0  0  0  0  0  0  0  0  0  0  0
   -5.2497    9.0148   -0.2859 H   0  0  0  0  0  0  0  0  0  0  0  0
   -5.5185    5.8322   -2.9369 H   0  0  0  0  0  0  0  0  0  0  0  0
   -6.9822    6.6885   -3.5296 H   0  0  0  0  0  0  0  0  0  0  0  0
   -5.3916    7.5232   -3.5296 H   0  0  0  0  0  0  0  0  0  0  0  0
   -7.8221    7.5133   -0.1349 H   0  0  0  0  0  0  0  0  0  0  0  0
   -8.0931    8.4553   -1.6402 H   0  0  0  0  0  0  0  0  0  0  0  0
   -8.3299    6.6747   -1.6402 H   0  0  0  0  0  0  0  0  0  0  0  0
   -1.7453   11.0409    0.0740 H   0  0  0  0  0  0  0  0  0  0  0  0
   -0.4120   10.4944    2.0124 H   0  0  0  0  0  0  0  0  0  0  0  0
    0.4449    9.1968    1.1534 H   0  0  0  0  0  0  0  0  0  0  0  0
    1.5118   11.7809    1.7489 H   0  0  0  0  0  0  0  0  0  0  0  0
    2.2207   10.6650    0.5845 H   0  0  0  0  0  0  0  0  0  0  0  0
    0.0204   13.1019    1.4885 H   0  0  0  0  0  0  0  0  0  0  0  0
    0.2656   14.2119    0.0976 H   0  0  0  0  0  0  0  0  0  0  0  0
   -1.1157   13.0635    0.0976 H   0  0  0  0  0  0  0  0  0  0  0  0
    2.5636   11.9265   -1.4537 H   0  0  0  0  0  0  0  0  0  0  0  0
    2.9662   13.3707    0.6402 H   0  0  0  0  0  0  0  0  0  0  0  0
    3.8523   13.7113   -0.9374 H   0  0  0  0  0  0  0  0  0  0  0  0
    2.9699   15.8136    0.3825 H   0  0  0  0  0  0  0  0  0  0  0  0
   -0.1557   14.7374   -1.9324 H   0  0  0  0  0  0  0  0  0  0  0  0
    1.8916   15.9156   -3.9127 H   0  0  0  0  0  0  0  0  0  0  0  0
    0.2540   15.2304   -4.3130 H   0  0  0  0  0  0  0  0  0  0  0  0
    0.2605   17.7045   -4.3144 H   0  0  0  0  0  0  0  0  0  0  0  0
   -0.8288   17.0014   -3.0558 H   0  0  0  0  0  0  0  0  0  0  0  0
    0.3663   18.8477   -2.0951 H   0  0  0  0  0  0  0  0  0  0  0  0
    2.1930   19.0080   -3.3470 H   0  0  0  0  0  0  0  0  0  0  0  0
   -0.2657   17.1112    0.8142 H   0  0  0  0  0  0  0  0  0  0  0  0
   -0.9631   17.9752   -0.5978 H   0  0  0  0  0  0  0  0  0  0  0  0
   -0.8724   16.1812   -0.5978 H   0  0  0  0  0  0  0  0  0  0  0  0
    1.6612   17.7753    1.0715 H   0  0  0  0  0  0  0  0  0  0  0  0
    2.9779   17.7921   -0.1503 H   0  0  0  0  0  0  0  0  0  0  0  0
    1.7360   19.0899   -0.1503 H   0  0  0  0  0  0  0  0  0  0  0  0
    3.5857   13.5377   -2.8938 H   0  0  0  0  0  0  0  0  0  0  0  0
    2.6488   12.6051   -4.1100 H   0  0  0  0  0  0  0  0  0  0  0  0
    2.5840   14.4002   -4.1100 H   0  0  0  0  0  0  0  0  0  0  0  0
   -0.2397   13.2630   -3.8797 H   0  0  0  0  0  0  0  0  0  0  0  0
    0.8783   11.7923   -3.7298 H   0  0  0  0  0  0  0  0  0  0  0  0
   -1.3560   12.6153   -1.8542 H   0  0  0  0  0  0  0  0  0  0  0  0
   -1.2521   11.1546   -2.9135 H   0  0  0  0  0  0  0  0  0  0  0  0
    1.4112    9.3984   -1.0839 H   0  0  0  0  0  0  0  0  0  0  0  0
    0.2927    9.3550   -2.4888 H   0  0  0  0  0  0  0  0  0  0  0  0
    1.6914   10.4821   -2.4888 H   0  0  0  0  0  0  0  0  0  0  0  0
  1  2  1  0
  2  3  1  0
  3  4  1  0
  4  5  1  0
  5  6  1  0
  6  7  1  0
  7  8  1  0
  7  9  1  0
  2 10  1  0
 10 11  1  0
 11 12  1  0
 12 13  1  0
 13 14  1  1
 13 15  1  0
 15 16  1  0
 16 17  1  0
 17 18  2  0
 18 19  1  0
 19 20  1  0
 20 21  1  0
 21 22  1  0
 22 23  1  0
 22 24  1  0
 24 25  1  0
 24 26  1  0
 19 27  1  0
 27 28  1  6
 27 29  1  0
 29 30  1  0
 30 31  1  0
 31 32  1  6
  7  5  1  0
 31 10  1  0
 31 13  1  0
 27 15  1  0
 24 18  1  0
  1 33  1  0
  1 34  1  0
  1 35  1  0
  2 36  1  1
  3 37  1  0
  3 38  1  0
  4 39  1  0
  4 40  1  0
  5 41  1  1
  8 42  1  0
  8 43  1  0
  8 44  1  0
  9 45  1  0
  9 46  1  0
  9 47  1  0
 10 48  1  1
 11 49  1  0
 11 50  1  0
 12 51  1  0
 12 52  1  0
 14 53  1  0
 14 54  1  0
 14 55  1  0
 15 56  1  6
 16 57  1  0
 16 58  1  0
 17 59  1  0
 19 60  1  1
 20 61  1  0
 20 62  1  0
 21 63  1  0
 21 64  1  0
 22 65  1  1
 23 66  1  0
 25 67  1  0
 25 68  1  0
 25 69  1  0
 26 70  1  0
 26 71  1  0
 26 72  1  0
 28 73  1  0
 28 74  1  0
 28 75  1  0
 29 76  1  0
 29 77  1  0
 30 78  1  0
 30 79  1  0
 32 80  1  0
 32 81  1  0
 32 82  1  0
M  END
>  <meeko>  (7) 
{"is_sidechain": [false], "intermolecular_energy": 2.731, "internal_energy": -0.839}

$$$$
EPH_relaxed_0001_pdb2pqr_Repair_297_r2_0001_out
     RDKit          3D

 82 86  0  0  0  0  0  0  0  0999 V2000
    3.7940   17.5550   -1.0440 C   0  0  0  0  0  0  0  0  0  0  0  0
    2.7950   17.2040   -2.1500 C   0  0  2  0  0  0  0  0  0  0  0  0
    1.3880   17.7660   -1.8610 C   0  0  0  0  0  0  0  0  0  0  0  0
    1.3250   18.6590   -0.6190 C   0  0  0  0  0  0  0  0  0  0  0  0
    0.1360   19.5700   -0.6510 C   0  0  2  0  0  0  0  0  0  0  0  0
   -0.2460   20.1010    0.6250 O   0  0  0  0  0  0  0  0  0  0  0  0
   -1.1960   19.2300   -0.0080 C   0  0  0  0  0  0  0  0  0  0  0  0
   -1.4070   17.9340    0.7110 C   0  0  0  0  0  0  0  0  0  0  0  0
   -2.4260   19.9310   -0.4960 C   0  0  0  0  0  0  0  0  0  0  0  0
    2.7250   15.6920   -2.3270 C   0  0  1  0  0  0  0  0  0  0  0  0
    4.1140   15.0590   -2.6050 C   0  0  0  0  0  0  0  0  0  0  0  0
    4.1190   13.6700   -1.9160 C   0  0  0  0  0  0  0  0  0  0  0  0
    2.6380   13.4100   -1.5530 C   0  0  1  0  0  0  0  0  0  0  0  0
    1.9860   12.8920   -2.8740 C   0  0  0  0  0  0  0  0  0  0  0  0
    2.3800   12.4320   -0.3610 C   0  0  2  0  0  0  0  0  0  0  0  0
    2.8810   10.9930   -0.5770 C   0  0  0  0  0  0  0  0  0  0  0  0
    1.8910   10.0590   -1.1900 C   0  0  0  0  0  0  0  0  0  0  0  0
    0.5670   10.2790   -1.2920 C   0  0  0  0  0  0  0  0  0  0  0  0
   -0.0740   11.5270   -0.6710 C   0  0  1  0  0  0  0  0  0  0  0  0
   -1.3520   11.1190    0.1090 C   0  0  0  0  0  0  0  0  0  0  0  0
   -2.3320   10.3250   -0.7480 C   0  0  0  0  0  0  0  0  0  0  0  0
   -1.6750    9.0620   -1.2990 C   0  0  2  0  0  0  0  0  0  0  0  0
   -1.3890    8.1780   -0.2100 O   0  0  0  0  0  0  0  0  0  0  0  0
   -0.3720    9.3470   -2.0970 C   0  0  0  0  0  0  0  0  0  0  0  0
   -0.7230   10.0470   -3.4330 C   0  0  0  0  0  0  0  0  0  0  0  0
    0.2640    7.9820   -2.4750 C   0  0  0  0  0  0  0  0  0  0  0  0
    0.8950   12.4510    0.1840 C   0  0  1  0  0  0  0  0  0  0  0  0
    0.9540   11.9410    1.6570 C   0  0  0  0  0  0  0  0  0  0  0  0
    0.2980   13.9070    0.2420 C   0  0  0  0  0  0  0  0  0  0  0  0
    0.6860   14.8630   -0.9020 C   0  0  0  0  0  0  0  0  0  0  0  0
    2.2000   14.8590   -1.1300 C   0  0  2  0  0  0  0  0  0  0  0  0
    2.8820   15.3960    0.1740 C   0  0  0  0  0  0  0  0  0  0  0  0
    3.3265   17.3907   -0.0619 H   0  0  0  0  0  0  0  0  0  0  0  0
    4.6843   16.9159   -1.1377 H   0  0  0  0  0  0  0  0  0  0  0  0
    4.0889   18.6106   -1.1377 H   0  0  0  0  0  0  0  0  0  0  0  0
    3.1530   17.6708   -3.0795 H   0  0  0  0  0  0  0  0  0  0  0  0
    1.0649   18.3572   -2.7305 H   0  0  0  0  0  0  0  0  0  0  0  0
    0.7306   16.9047   -1.6713 H   0  0  0  0  0  0  0  0  0  0  0  0
    1.2618   18.0217    0.2754 H   0  0  0  0  0  0  0  0  0  0  0  0
    2.2324   19.2803   -0.5971 H   0  0  0  0  0  0  0  0  0  0  0  0
    0.4009   19.9190   -1.6600 H   0  0  0  0  0  0  0  0  0  0  0  0
   -1.3786   18.1082    1.7967 H   0  0  0  0  0  0  0  0  0  0  0  0
   -2.3852   17.5151    0.4323 H   0  0  0  0  0  0  0  0  0  0  0  0
   -0.6122   17.2264    0.4323 H   0  0  0  0  0  0  0  0  0  0  0  0
   -3.0208   20.2700    0.3650 H   0  0  0  0  0  0  0  0  0  0  0  0
   -2.1356   20.7993   -1.1057 H   0  0  0  0  0  0  0  0  0  0  0  0
   -3.0251   19.2387   -1.1057 H   0  0  0  0  0  0  0  0  0  0  0  0
    2.0138   15.6368   -3.1643 H   0  0  0  0  0  0  0  0  0  0  0  0
    4.2683   14.9450   -3.6881 H   0  0  0  0  0  0  0  0  0  0  0  0
    4.9228   15.6953   -2.2165 H   0  0  0  0  0  0  0  0  0  0  0  0
    4.4920   12.8966   -2.6036 H   0  0  0  0  0  0  0  0  0  0  0  0
    4.7758   13.6439   -1.0340 H   0  0  0  0  0  0  0  0  0  0  0  0
    1.1460   12.2246   -2.6311 H   0  0  0  0  0  0  0  0  0  0  0  0
    1.6177   13.7465   -3.4607 H   0  0  0  0  0  0  0  0  0  0  0  0
    2.7351   12.3400   -3.4607 H   0  0  0  0  0  0  0  0  0  0  0  0
    3.0158   12.8540    0.4312 H   0  0  0  0  0  0  0  0  0  0  0  0
    3.7616   11.0347   -1.2349 H   0  0  0  0  0  0  0  0  0  0  0  0
    3.0980   10.5926    0.4243 H   0  0  0  0  0  0  0  0  0  0  0  0
    2.2761    9.1105   -1.5925 H   0  0  0  0  0  0  0  0  0  0  0  0
   -0.3442   12.1816   -1.5127 H   0  0  0  0  0  0  0  0  0  0  0  0
   -1.0572   10.5021    0.9707 H   0  0  0  0  0  0  0  0  0  0  0  0
   -1.8584   12.0425    0.4263 H   0  0  0  0  0  0  0  0  0  0  0  0
   -3.1993   10.0411   -0.1339 H   0  0  0  0  0  0  0  0  0  0  0  0
   -2.6488   10.9536   -1.5933 H   0  0  0  0  0  0  0  0  0  0  0  0
   -2.3821    8.6046   -2.0067 H   0  0  0  0  0  0  0  0  0  0  0  0
   -0.6840    8.5850    0.3210 H   0  0  0  0  0  0  0  0  0  0  0  0
   -1.2072   11.0126   -3.2249 H   0  0  0  0  0  0  0  0  0  0  0  0
    0.1973   10.2154   -4.0115 H   0  0  0  0  0  0  0  0  0  0  0  0
   -1.4085    9.4103   -4.0115 H   0  0  0  0  0  0  0  0  0  0  0  0
    0.5208    7.4308   -1.5584 H   0  0  0  0  0  0  0  0  0  0  0  0
   -0.4532    7.3947   -3.0672 H   0  0  0  0  0  0  0  0  0  0  0  0
    1.1750    8.1534   -3.0672 H   0  0  0  0  0  0  0  0  0  0  0  0
    0.8553   12.7939    2.3446 H   0  0  0  0  0  0  0  0  0  0  0  0
    0.1319   11.2315    1.8326 H   0  0  0  0  0  0  0  0  0  0  0  0
    1.9163   11.4379    1.8326 H   0  0  0  0  0  0  0  0  0  0  0  0
   -0.7983   13.8173    0.2433 H   0  0  0  0  0  0  0  0  0  0  0  0
    0.7249   14.3571    1.1504 H   0  0  0  0  0  0  0  0  0  0  0  0
    0.1822   14.5420   -1.8257 H   0  0  0  0  0  0  0  0  0  0  0  0
    0.3753   15.8820   -0.6280 H   0  0  0  0  0  0  0  0  0  0  0  0
    2.3634   14.9876    1.0539 H   0  0  0  0  0  0  0  0  0  0  0  0
    3.9364   15.0831    0.1919 H   0  0  0  0  0  0  0  0  0  0  0  0
    2.8252   16.4944    0.1919 H   0  0  0  0  0  0  0  0  0  0  0  0
  1  2  1  0
  2  3  1  0
  3  4  1  0
  4  5  1  0
  5  6  1  0
  6  7  1  0
  7  8  1  0
  7  9  1  0
  2 10  1  0
 10 11  1  0
 11 12  1  0
 12 13  1  0
 13 14  1  6
 13 15  1  0
 15 16  1  0
 16 17  1  0
 17 18  2  0
 18 19  1  0
 19 20  1  0
 20 21  1  0
 21 22  1  0
 22 23  1  0
 22 24  1  0
 24 25  1  0
 24 26  1  0
 19 27  1  0
 27 28  1  1
 27 29  1  0
 29 30  1  0
 30 31  1  0
 31 32  1  1
  7  5  1  0
 31 10  1  0
 31 13  1  0
 27 15  1  0
 24 18  1  0
  1 33  1  0
  1 34  1  0
  1 35  1  0
  2 36  1  6
  3 37  1  0
  3 38  1  0
  4 39  1  0
  4 40  1  0
  5 41  1  6
  8 42  1  0
  8 43  1  0
  8 44  1  0
  9 45  1  0
  9 46  1  0
  9 47  1  0
 10 48  1  6
 11 49  1  0
 11 50  1  0
 12 51  1  0
 12 52  1  0
 14 53  1  0
 14 54  1  0
 14 55  1  0
 15 56  1  1
 16 57  1  0
 16 58  1  0
 17 59  1  0
 19 60  1  6
 20 61  1  0
 20 62  1  0
 21 63  1  0
 21 64  1  0
 22 65  1  6
 23 66  1  0
 25 67  1  0
 25 68  1  0
 25 69  1  0
 26 70  1  0
 26 71  1  0
 26 72  1  0
 28 73  1  0
 28 74  1  0
 28 75  1  0
 29 76  1  0
 29 77  1  0
 30 78  1  0
 30 79  1  0
 32 80  1  0
 32 81  1  0
 32 82  1  0
M  END
>  <meeko>  (8) 
{"is_sidechain": [false], "intermolecular_energy": 2.731, "internal_energy": -0.839}

$$$$
EPH_relaxed_0001_pdb2pqr_Repair_297_r2_0001_out
     RDKit          3D

 82 86  0  0  0  0  0  0  0  0999 V2000
   -1.1980    7.8330   -1.4680 C   0  0  0  0  0  0  0  0  0  0  0  0
   -1.2250    8.8790   -0.3510 C   0  0  2  0  0  0  0  0  0  0  0  0
   -2.5430    9.6790   -0.3370 C   0  0  0  0  0  0  0  0  0  0  0  0
   -3.7850    8.8150   -0.1040 C   0  0  0  0  0  0  0  0  0  0  0  0
   -4.5210    8.5470   -1.3820 C   0  0  2  0  0  0  0  0  0  0  0  0
   -5.9490    8.6160   -1.2770 O   0  0  0  0  0  0  0  0  0  0  0  0
   -5.3990    7.3290   -1.6020 C   0  0  0  0  0  0  0  0  0  0  0  0
   -5.5870    6.2990   -0.5330 C   0  0  0  0  0  0  0  0  0  0  0  0
   -5.6780    6.8920   -3.0070 C   0  0  0  0  0  0  0  0  0  0  0  0
   -0.0410    9.8280   -0.4990 C   0  0  1  0  0  0  0  0  0  0  0  0
    1.3050    9.0790   -0.6840 C   0  0  0  0  0  0  0  0  0  0  0  0
    2.1670    9.9390   -1.6440 C   0  0  0  0  0  0  0  0  0  0  0  0
    1.4330   11.2990   -1.7140 C   0  0  1  0  0  0  0  0  0  0  0  0
    1.8790   12.0620   -0.4280 C   0  0  0  0  0  0  0  0  0  0  0  0
    1.6770   12.1500   -3.0040 C   0  0  2  0  0  0  0  0  0  0  0  0
    3.1320   12.5960   -3.2260 C   0  0  0  0  0  0  0  0  0  0  0  0
    3.4930   13.9150   -2.6260 C   0  0  0  0  0  0  0  0  0  0  0  0
    2.6190   14.8390   -2.1850 C   0  0  0  0  0  0  0  0  0  0  0  0
    1.1080   14.6400   -2.3580 C   0  0  1  0  0  0  0  0  0  0  0  0
    0.4720   15.9450   -2.9030 C   0  0  0  0  0  0  0  0  0  0  0  0
    0.8060   17.1610   -2.0440 C   0  0  0  0  0  0  0  0  0  0  0  0
    2.3160   17.3610   -1.9440 C   0  0  2  0  0  0  0  0  0  0  0  0
    2.8210   17.7140   -3.2350 O   0  0  0  0  0  0  0  0  0  0  0  0
    3.0660   16.1060   -1.4150 C   0  0  0  0  0  0  0  0  0  0  0  0
    2.7440   15.9010    0.0860 C   0  0  0  0  0  0  0  0  0  0  0  0
    4.5900   16.3910   -1.4970 C   0  0  0  0  0  0  0  0  0  0  0  0
    0.6680   13.3550   -3.1840 C   0  0  1  0  0  0  0  0  0  0  0  0
    0.6390   13.6870   -4.7080 C   0  0  0  0  0  0  0  0  0  0  0  0
   -0.8050   12.9680   -2.7870 C   0  0  0  0  0  0  0  0  0  0  0  0
   -0.9750   12.0290   -1.5770 C   0  0  0  0  0  0  0  0  0  0  0  0
   -0.0600   10.8070   -1.7000 C   0  0  2  0  0  0  0  0  0  0  0  0
   -0.4990   10.0070   -2.9740 C   0  0  0  0  0  0  0  0  0  0  0  0
   -1.1720    6.8258   -1.0266 H   0  0  0  0  0  0  0  0  0  0  0  0
   -2.0991    7.9375   -2.0901 H   0  0  0  0  0  0  0  0  0  0  0  0
   -0.3035    7.9839   -2.0901 H   0  0  0  0  0  0  0  0  0  0  0  0
   -1.1541    8.3427    0.6068 H   0  0  0  0  0  0  0  0  0  0  0  0
   -2.4858   10.4285    0.4661 H   0  0  0  0  0  0  0  0  0  0  0  0
   -2.6518   10.1366   -1.3314 H   0  0  0  0  0  0  0  0  0  0  0  0
   -3.4747    7.8561    0.3366 H   0  0  0  0  0  0  0  0  0  0  0  0
   -4.4598    9.3596    0.5728 H   0  0  0  0  0  0  0  0  0  0  0  0
   -3.7014    8.9824   -1.9725 H   0  0  0  0  0  0  0  0  0  0  0  0
   -5.5000    6.7755    0.4546 H   0  0  0  0  0  0  0  0  0  0  0  0
   -6.5831    5.8434   -0.6339 H   0  0  0  0  0  0  0  0  0  0  0  0
   -4.8160    5.5209   -0.6339 H   0  0  0  0  0  0  0  0  0  0  0  0
   -6.2699    5.9649   -2.9920 H   0  0  0  0  0  0  0  0  0  0  0  0
   -6.2415    7.6784   -3.5305 H   0  0  0  0  0  0  0  0  0  0  0  0
   -4.7275    6.7117   -3.5305 H   0  0  0  0  0  0  0  0  0  0  0  0
   -0.1341   10.3877    0.4434 H   0  0  0  0  0  0  0  0  0  0  0  0
    1.8133    8.9684    0.2852 H   0  0  0  0  0  0  0  0  0  0  0  0
    1.1432    8.0712   -1.0941 H   0  0  0  0  0  0  0  0  0  0  0  0
    3.1838   10.0665   -1.2442 H   0  0  0  0  0  0  0  0  0  0  0  0
    2.2790    9.4737   -2.6344 H   0  0  0  0  0  0  0  0  0  0  0  0
    1.5525   11.5034    0.4616 H   0  0  0  0  0  0  0  0  0  0  0  0
    2.9749   12.1570   -0.4195 H   0  0  0  0  0  0  0  0  0  0  0  0
    1.4241   13.0635   -0.4195 H   0  0  0  0  0  0  0  0  0  0  0  0
    1.4611   11.4300   -3.8071 H   0  0  0  0  0  0  0  0  0  0  0  0
    3.7921   11.8319   -2.7897 H   0  0  0  0  0  0  0  0  0  0  0  0
    3.2522   12.7129   -4.3132 H   0  0  0  0  0  0  0  0  0  0  0  0
    4.5636   14.1515   -2.5369 H   0  0  0  0  0  0  0  0  0  0  0  0
    0.7133   14.4242   -1.3542 H   0  0  0  0  0  0  0  0  0  0  0  0
    0.8454   16.1202   -3.9228 H   0  0  0  0  0  0  0  0  0  0  0  0
   -0.6203   15.8157   -2.8888 H   0  0  0  0  0  0  0  0  0  0  0  0
    0.3536   18.0560   -2.4959 H   0  0  0  0  0  0  0  0  0  0  0  0
    0.4062   16.9965   -1.0325 H   0  0  0  0  0  0  0  0  0  0  0  0
    2.4948   18.1646   -1.2144 H   0  0  0  0  0  0  0  0  0  0  0  0
    2.6830   16.9520   -3.8240 H   0  0  0  0  0  0  0  0  0  0  0  0
    3.5156   16.3923    0.6970 H   0  0  0  0  0  0  0  0  0  0  0  0
    1.7615   16.3402    0.3136 H   0  0  0  0  0  0  0  0  0  0  0  0
    2.7262   14.8249    0.3136 H   0  0  0  0  0  0  0  0  0  0  0  0
    5.0038   16.4684   -0.4807 H   0  0  0  0  0  0  0  0  0  0  0  0
    5.0881   15.5704   -2.0342 H   0  0  0  0  0  0  0  0  0  0  0  0
    4.7579   17.3361   -2.0342 H   0  0  0  0  0  0  0  0  0  0  0  0
    0.5440   14.7743   -4.8446 H   0  0  0  0  0  0  0  0  0  0  0  0
    1.5710   13.3385   -5.1770 H   0  0  0  0  0  0  0  0  0  0  0  0
   -0.2185   13.1822   -5.1770 H   0  0  0  0  0  0  0  0  0  0  0  0
   -1.3451   13.8999   -2.5634 H   0  0  0  0  0  0  0  0  0  0  0  0
   -1.1956   12.4034   -3.6464 H   0  0  0  0  0  0  0  0  0  0  0  0
   -0.7219   12.5772   -0.6575 H   0  0  0  0  0  0  0  0  0  0  0  0
   -2.0190   11.6841   -1.5440 H   0  0  0  0  0  0  0  0  0  0  0  0
   -1.0073    9.0807   -2.6682 H   0  0  0  0  0  0  0  0  0  0  0  0
   -1.1863   10.6215   -3.5740 H   0  0  0  0  0  0  0  0  0  0  0  0
    0.3885    9.7573   -3.5740 H   0  0  0  0  0  0  0  0  0  0  0  0
  1  2  1  0
  2  3  1  0
  3  4  1  0
  4  5  1  0
  5  6  1  0
  6  7  1  0
  7  8  1  0
  7  9  1  0
  2 10  1  0
 10 11  1  0
 11 12  1  0
 12 13  1  0
 13 14  1  1
 13 15  1  0
 15 16  1  0
 16 17  1  0
 17 18  2  0
 18 19  1  0
 19 20  1  0
 20 21  1  0
 21 22  1  0
 22 23  1  0
 22 24  1  0
 24 25  1  0
 24 26  1  0
 19 27  1  0
 27 28  1  6
 27 29  1  0
 29 30  1  0
 30 31  1  0
 31 32  1  6
  7  5  1  0
 31 10  1  0
 31 13  1  0
 27 15  1  0
 24 18  1  0
  1 33  1  0
  1 34  1  0
  1 35  1  0
  2 36  1  1
  3 37  1  0
  3 38  1  0
  4 39  1  0
  4 40  1  0
  5 41  1  6
  8 42  1  0
  8 43  1  0
  8 44  1  0
  9 45  1  0
  9 46  1  0
  9 47  1  0
 10 48  1  1
 11 49  1  0
 11 50  1  0
 12 51  1  0
 12 52  1  0
 14 53  1  0
 14 54  1  0
 14 55  1  0
 15 56  1  6
 16 57  1  0
 16 58  1  0
 17 59  1  0
 19 60  1  1
 20 61  1  0
 20 62  1  0
 21 63  1  0
 21 64  1  0
 22 65  1  1
 23 66  1  0
 25 67  1  0
 25 68  1  0
 25 69  1  0
 26 70  1  0
 26 71  1  0
 26 72  1  0
 28 73  1  0
 28 74  1  0
 28 75  1  0
 29 76  1  0
 29 77  1  0
 30 78  1  0
 30 79  1  0
 32 80  1  0
 32 81  1  0
 32 82  1  0
M  END
>  <meeko>  (9) 
{"is_sidechain": [false], "intermolecular_energy": 2.731, "internal_energy": -0.839}

$$$$
EPH_relaxed_0001_pdb2pqr_Repair_297_r2_0001_out
     RDKit          3D

 82 86  0  0  0  0  0  0  0  0999 V2000
    4.6580   17.2320   -2.2990 C   0  0  0  0  0  0  0  0  0  0  0  0
    3.1770   16.8710   -2.1570 C   0  0  2  0  0  0  0  0  0  0  0  0
    2.5970   17.3220   -0.8020 C   0  0  0  0  0  0  0  0  0  0  0  0
    3.0520   18.7180   -0.3710 C   0  0  0  0  0  0  0  0  0  0  0  0
    3.1000   18.8500    1.1210 C   0  0  2  0  0  0  0  0  0  0  0  0
    3.4990   20.1430    1.5960 O   0  0  0  0  0  0  0  0  0  0  0  0
    4.3850   19.0540    1.9020 C   0  0  0  0  0  0  0  0  0  0  0  0
    5.7120   19.1360    1.2140 C   0  0  0  0  0  0  0  0  0  0  0  0
    4.4070   18.6850    3.3530 C   0  0  0  0  0  0  0  0  0  0  0  0
    2.9890   15.3690   -2.3310 C   0  0  1  0  0  0  0  0  0  0  0  0
    4.3230   14.6290   -2.6180 C   0  0  0  0  0  0  0  0  0  0  0  0
    4.2250   13.2450   -1.9260 C   0  0  0  0  0  0  0  0  0  0  0  0
    2.7310   13.1010   -1.5520 C   0  0  1  0  0  0  0  0  0  0  0  0
    2.0310   12.6340   -2.8680 C   0  0  0  0  0  0  0  0  0  0  0  0
    2.4070   12.1480   -0.3560 C   0  0  2  0  0  0  0  0  0  0  0  0
    2.7920   10.6740   -0.5740 C   0  0  0  0  0  0  0  0  0  0  0  0
    1.7290    9.8190   -1.1780 C   0  0  0  0  0  0  0  0  0  0  0  0
    0.4250   10.1410   -1.2710 C   0  0  0  0  0  0  0  0  0  0  0  0
   -0.1130   11.4350   -0.6480 C   0  0  1  0  0  0  0  0  0  0  0  0
   -1.4120   11.1290    0.1420 C   0  0  0  0  0  0  0  0  0  0  0  0
   -2.4580   10.4120   -0.7070 C   0  0  0  0  0  0  0  0  0  0  0  0
   -1.9050    9.1010   -1.2600 C   0  0  2  0  0  0  0  0  0  0  0  0
   -1.6800    8.1990   -0.1720 O   0  0  0  0  0  0  0  0  0  0  0  0
   -0.5890    9.2830   -2.0670 C   0  0  0  0  0  0  0  0  0  0  0  0
   -0.8940   10.0060   -3.4030 C   0  0  0  0  0  0  0  0  0  0  0  0
   -0.0630    7.8730   -2.4480 C   0  0  0  0  0  0  0  0  0  0  0  0
    0.9310   12.2830    0.1990 C   0  0  1  0  0  0  0  0  0  0  0  0
    0.9610   11.7720    1.6720 C   0  0  0  0  0  0  0  0  0  0  0  0
    0.4490   13.7810    0.2580 C   0  0  0  0  0  0  0  0  0  0  0  0
    0.9010   14.7020   -0.8910 C   0  0  0  0  0  0  0  0  0  0  0  0
    2.4100   14.5810   -1.1300 C   0  0  2  0  0  0  0  0  0  0  0  0
    3.1400   15.0650    0.1690 C   0  0  0  0  0  0  0  0  0  0  0  0
    5.1062   17.3412   -1.3004 H   0  0  0  0  0  0  0  0  0  0  0  0
    5.1787   16.4345   -2.8493 H   0  0  0  0  0  0  0  0  0  0  0  0
    4.7533   18.1797   -2.8493 H   0  0  0  0  0  0  0  0  0  0  0  0
    2.6285   17.4074   -2.9453 H   0  0  0  0  0  0  0  0  0  0  0  0
    1.4996   17.3224   -0.8771 H   0  0  0  0  0  0  0  0  0  0  0  0
    2.9661   16.6157   -0.0438 H   0  0  0  0  0  0  0  0  0  0  0  0
    4.0563   18.9069   -0.7780 H   0  0  0  0  0  0  0  0  0  0  0  0
    2.3262   19.4491   -0.7565 H   0  0  0  0  0  0  0  0  0  0  0  0
    2.2734   18.1331    1.2342 H   0  0  0  0  0  0  0  0  0  0  0  0
    6.5128   19.1855    1.9666 H   0  0  0  0  0  0  0  0  0  0  0  0
    5.8546   18.2450    0.5849 H   0  0  0  0  0  0  0  0  0  0  0  0
    5.7438   20.0378    0.5849 H   0  0  0  0  0  0  0  0  0  0  0  0
    4.3526   19.5978    3.9643 H   0  0  0  0  0  0  0  0  0  0  0  0
    3.5457   18.0396    3.5803 H   0  0  0  0  0  0  0  0  0  0  0  0
    5.3388   18.1465    3.5803 H   0  0  0  0  0  0  0  0  0  0  0  0
    2.2698   15.3687   -3.1634 H   0  0  0  0  0  0  0  0  0  0  0  0
    4.4598   14.5016   -3.7020 H   0  0  0  0  0  0  0  0  0  0  0  0
    5.1818   15.2011   -2.2369 H   0  0  0  0  0  0  0  0  0  0  0  0
    4.5320   12.4439   -2.6145 H   0  0  0  0  0  0  0  0  0  0  0  0
    4.8840   13.1697   -1.0484 H   0  0  0  0  0  0  0  0  0  0  0  0
    1.1398   12.0395   -2.6182 H   0  0  0  0  0  0  0  0  0  0  0  0
    1.7317   13.5140   -3.4563 H   0  0  0  0  0  0  0  0  0  0  0  0
    2.7285   12.0197   -3.4563 H   0  0  0  0  0  0  0  0  0  0  0  0
    3.0795   12.5200    0.4310 H   0  0  0  0  0  0  0  0  0  0  0  0
    3.6683   10.6465   -1.2384 H   0  0  0  0  0  0  0  0  0  0  0  0
    2.9836   10.2590    0.4265 H   0  0  0  0  0  0  0  0  0  0  0  0
    2.0366    8.8430   -1.5815 H   0  0  0  0  0  0  0  0  0  0  0  0
   -0.3380   12.1066   -1.4896 H   0  0  0  0  0  0  0  0  0  0  0  0
   -1.1596   10.4922    1.0027 H   0  0  0  0  0  0  0  0  0  0  0  0
   -1.8426   12.0895    0.4616 H   0  0  0  0  0  0  0  0  0  0  0  0
   -3.3403   10.1973   -0.0861 H   0  0  0  0  0  0  0  0  0  0  0  0
   -2.7313   11.0621   -1.5512 H   0  0  0  0  0  0  0  0  0  0  0  0
   -2.6509    8.6992   -1.9615 H   0  0  0  0  0  0  0  0  0  0  0  0
   -2.5430    8.0010    0.2290 H   0  0  0  0  0  0  0  0  0  0  0  0
   -1.3138   11.0010   -3.1939 H   0  0  0  0  0  0  0  0  0  0  0  0
    0.0351   10.1142   -3.9818 H   0  0  0  0  0  0  0  0  0  0  0  0
   -1.6199    9.4160   -3.9818 H   0  0  0  0  0  0  0  0  0  0  0  0
    0.1502    7.3015   -1.5326 H   0  0  0  0  0  0  0  0  0  0  0  0
   -0.8247    7.3453   -3.0407 H   0  0  0  0  0  0  0  0  0  0  0  0
    0.8583    7.9731   -3.0407 H   0  0  0  0  0  0  0  0  0  0  0  0
    0.9106   12.6298    2.3588 H   0  0  0  0  0  0  0  0  0  0  0  0
    0.1002   11.1102    1.8481 H   0  0  0  0  0  0  0  0  0  0  0  0
    1.8934   11.2155    1.8481 H   0  0  0  0  0  0  0  0  0  0  0  0
   -0.6509   13.7765    0.2677 H   0  0  0  0  0  0  0  0  0  0  0  0
    0.9164   14.1983    1.1621 H   0  0  0  0  0  0  0  0  0  0  0  0
    0.3673   14.4189   -1.8102 H   0  0  0  0  0  0  0  0  0  0  0  0
    0.6716   15.7424   -0.6174 H   0  0  0  0  0  0  0  0  0  0  0  0
    2.5942   14.7031    1.0528 H   0  0  0  0  0  0  0  0  0  0  0  0
    4.1655   14.6673    0.1831 H   0  0  0  0  0  0  0  0  0  0  0  0
    3.1729   16.1644    0.1831 H   0  0  0  0  0  0  0  0  0  0  0  0
  1  2  1  0
  2  3  1  0
  3  4  1  0
  4  5  1  0
  5  6  1  0
  6  7  1  0
  7  8  1  0
  7  9  1  0
  2 10  1  0
 10 11  1  0
 11 12  1  0
 12 13  1  0
 13 14  1  6
 13 15  1  0
 15 16  1  0
 16 17  1  0
 17 18  2  0
 18 19  1  0
 19 20  1  0
 20 21  1  0
 21 22  1  0
 22 23  1  0
 22 24  1  0
 24 25  1  0
 24 26  1  0
 19 27  1  0
 27 28  1  1
 27 29  1  0
 29 30  1  0
 30 31  1  0
 31 32  1  1
  7  5  1  0
 31 10  1  0
 31 13  1  0
 27 15  1  0
 24 18  1  0
  1 33  1  0
  1 34  1  0
  1 35  1  0
  2 36  1  6
  3 37  1  0
  3 38  1  0
  4 39  1  0
  4 40  1  0
  5 41  1  1
  8 42  1  0
  8 43  1  0
  8 44  1  0
  9 45  1  0
  9 46  1  0
  9 47  1  0
 10 48  1  6
 11 49  1  0
 11 50  1  0
 12 51  1  0
 12 52  1  0
 14 53  1  0
 14 54  1  0
 14 55  1  0
 15 56  1  1
 16 57  1  0
 16 58  1  0
 17 59  1  0
 19 60  1  6
 20 61  1  0
 20 62  1  0
 21 63  1  0
 21 64  1  0
 22 65  1  6
 23 66  1  0
 25 67  1  0
 25 68  1  0
 25 69  1  0
 26 70  1  0
 26 71  1  0
 26 72  1  0
 28 73  1  0
 28 74  1  0
 28 75  1  0
 29 76  1  0
 29 77  1  0
 30 78  1  0
 30 79  1  0
 32 80  1  0
 32 81  1  0
 32 82  1  0
M  END
>  <meeko>  (10) 
{"is_sidechain": [false], "intermolecular_energy": 2.731, "internal_energy": -0.839}

$$$$
EPH_relaxed_0001_pdb2pqr_Repair_297_r2_0001_out
     RDKit          3D

 82 86  0  0  0  0  0  0  0  0999 V2000
    4.6480   16.8540   -1.6390 C   0  0  0  0  0  0  0  0  0  0  0  0
    4.7240   15.3250   -1.6660 C   0  0  2  0  0  0  0  0  0  0  0  0
    5.0960   14.7860   -3.0620 C   0  0  0  0  0  0  0  0  0  0  0  0
    6.0020   13.5530   -3.0250 C   0  0  0  0  0  0  0  0  0  0  0  0
    5.5870   12.5290   -4.0370 C   0  0  2  0  0  0  0  0  0  0  0  0
    5.1450   11.2830   -3.4810 O   0  0  0  0  0  0  0  0  0  0  0  0
    6.3420   11.2350   -4.2760 C   0  0  0  0  0  0  0  0  0  0  0  0
    7.5750   10.8960   -3.4980 C   0  0  0  0  0  0  0  0  0  0  0  0
    6.1660   10.5360   -5.5880 C   0  0  0  0  0  0  0  0  0  0  0  0
    3.3950   14.7310   -1.2150 C   0  0  1  0  0  0  0  0  0  0  0  0
    2.3990   15.8090   -0.7100 C   0  0  0  0  0  0  0  0  0  0  0  0
    0.9810   15.3370   -1.1240 C   0  0  0  0  0  0  0  0  0  0  0  0
    1.1700   13.8630   -1.5530 C   0  0  1  0  0  0  0  0  0  0  0  0
    1.1850   13.0560   -0.2170 C   0  0  0  0  0  0  0  0  0  0  0  0
    0.1160   13.2960   -2.5580 C   0  0  2  0  0  0  0  0  0  0  0  0
   -1.3310   13.2610   -2.0360 C   0  0  0  0  0  0  0  0  0  0  0  0
   -1.7280   12.0000   -1.3430 C   0  0  0  0  0  0  0  0  0  0  0  0
   -1.0570   10.8340   -1.3930 C   0  0  0  0  0  0  0  0  0  0  0  0
    0.1800   10.6760   -2.2870 C   0  0  1  0  0  0  0  0  0  0  0  0
    0.0790    9.3460   -3.0800 C   0  0  0  0  0  0  0  0  0  0  0  0
   -0.1440    8.1400   -2.1730 C   0  0  0  0  0  0  0  0  0  0  0  0
   -1.4140    8.3090   -1.3430 C   0  0  2  0  0  0  0  0  0  0  0  0
   -2.5440    8.2820   -2.2200 O   0  0  0  0  0  0  0  0  0  0  0  0
   -1.4310    9.6200   -0.5080 C   0  0  0  0  0  0  0  0  0  0  0  0
   -0.3970    9.5190    0.6400 C   0  0  0  0  0  0  0  0  0  0  0  0
   -2.8220    9.7360    0.1700 C   0  0  0  0  0  0  0  0  0  0  0  0
    0.5260   11.9170   -3.2180 C   0  0  1  0  0  0  0  0  0  0  0  0
   -0.2630   11.8120   -4.5590 C   0  0  0  0  0  0  0  0  0  0  0  0
    2.0540   11.8650   -3.5960 C   0  0  0  0  0  0  0  0  0  0  0  0
    3.0340   12.5480   -2.6230 C   0  0  0  0  0  0  0  0  0  0  0  0
    2.5640   13.9630   -2.2740 C   0  0  2  0  0  0  0  0  0  0  0  0
    2.5600   14.8050   -3.5950 C   0  0  0  0  0  0  0  0  0  0  0  0
    4.6307   17.2019   -0.5956 H   0  0  0  0  0  0  0  0  0  0  0  0
    5.5264   17.2739   -2.1510 H   0  0  0  0  0  0  0  0  0  0  0  0
    3.7323   17.1847   -2.1510 H   0  0  0  0  0  0  0  0  0  0  0  0
    5.5217   15.0210   -0.9723 H   0  0  0  0  0  0  0  0  0  0  0  0
    4.1684   14.5194   -3.5897 H   0  0  0  0  0  0  0  0  0  0  0  0
    5.6571   15.5815   -3.5743 H   0  0  0  0  0  0  0  0  0  0  0  0
    7.0358   13.8640   -3.2360 H   0  0  0  0  0  0  0  0  0  0  0  0
    5.9225   13.0993   -2.0261 H   0  0  0  0  0  0  0  0  0  0  0  0
    5.2342   13.3142   -4.7218 H   0  0  0  0  0  0  0  0  0  0  0  0
    7.3573   10.9559   -2.4214 H   0  0  0  0  0  0  0  0  0  0  0  0
    7.8988    9.8755   -3.7504 H   0  0  0  0  0  0  0  0  0  0  0  0
    8.3750   11.6075   -3.7504 H   0  0  0  0  0  0  0  0  0  0  0  0
    5.9010    9.4834   -5.4100 H   0  0  0  0  0  0  0  0  0  0  0  0
    5.3629   11.0248   -6.1591 H   0  0  0  0  0  0  0  0  0  0  0  0
    7.1048   10.5862   -6.1591 H   0  0  0  0  0  0  0  0  0  0  0  0
    3.7561   14.0358   -0.4428 H   0  0  0  0  0  0  0  0  0  0  0  0
    2.4631   15.9010    0.3843 H   0  0  0  0  0  0  0  0  0  0  0  0
    2.6296   16.7936   -1.1430 H   0  0  0  0  0  0  0  0  0  0  0  0
    0.2849   15.4082   -0.2753 H   0  0  0  0  0  0  0  0  0  0  0  0
    0.5543   15.9541   -1.9285 H   0  0  0  0  0  0  0  0  0  0  0  0
    1.1720   13.7539    0.6331 H   0  0  0  0  0  0  0  0  0  0  0  0
    0.2988   12.4060   -0.1713 H   0  0  0  0  0  0  0  0  0  0  0  0
    2.0948   12.4394   -0.1713 H   0  0  0  0  0  0  0  0  0  0  0  0
    0.1259   14.0492   -3.3596 H   0  0  0  0  0  0  0  0  0  0  0  0
   -1.4569   14.0926   -1.3271 H   0  0  0  0  0  0  0  0  0  0  0  0
   -1.9767   13.3371   -2.9233 H   0  0  0  0  0  0  0  0  0  0  0  0
   -2.6475   12.0256   -0.7398 H   0  0  0  0  0  0  0  0  0  0  0  0
    1.0441   10.6408   -1.6073 H   0  0  0  0  0  0  0  0  0  0  0  0
   -0.7631    9.4183   -3.7841 H   0  0  0  0  0  0  0  0  0  0  0  0
    1.0340    9.1969   -3.6052 H   0  0  0  0  0  0  0  0  0  0  0  0
   -0.2365    7.2358   -2.7926 H   0  0  0  0  0  0  0  0  0  0  0  0
    0.7131    8.0517   -1.4892 H   0  0  0  0  0  0  0  0  0  0  0  0
   -1.4502    7.4787   -0.6224 H   0  0  0  0  0  0  0  0  0  0  0  0
   -3.3450    8.3150   -1.6690 H   0  0  0  0  0  0  0  0  0  0  0  0
   -0.9174    9.5698    1.6078 H   0  0  0  0  0  0  0  0  0  0  0  0
    0.1432    8.5638    0.5639 H   0  0  0  0  0  0  0  0  0  0  0  0
    0.3178   10.3516    0.5639 H   0  0  0  0  0  0  0  0  0  0  0  0
   -2.6991    9.7258    1.2631 H   0  0  0  0  0  0  0  0  0  0  0  0
   -3.3018   10.6773   -0.1362 H   0  0  0  0  0  0  0  0  0  0  0  0
   -3.4511    8.8872   -0.1362 H   0  0  0  0  0  0  0  0  0  0  0  0
   -1.3325   11.6697   -4.3450 H   0  0  0  0  0  0  0  0  0  0  0  0
   -0.1250   12.7364   -5.1390 H   0  0  0  0  0  0  0  0  0  0  0  0
    0.1120   10.9558   -5.1390 H   0  0  0  0  0  0  0  0  0  0  0  0
    2.3426   10.8061   -3.6703 H   0  0  0  0  0  0  0  0  0  0  0  0
    2.1378   12.4326   -4.5345 H   0  0  0  0  0  0  0  0  0  0  0  0
    3.0985   11.9525   -1.7003 H   0  0  0  0  0  0  0  0  0  0  0  0
    4.0192   12.6155   -3.1077 H   0  0  0  0  0  0  0  0  0  0  0  0
    2.5549   15.8766   -3.3468 H   0  0  0  0  0  0  0  0  0  0  0  0
    3.4593   14.5691   -4.1829 H   0  0  0  0  0  0  0  0  0  0  0  0
    1.6630   14.5605   -4.1829 H   0  0  0  0  0  0  0  0  0  0  0  0
  1  2  1  0
  2  3  1  0
  3  4  1  0
  4  5  1  0
  5  6  1  0
  6  7  1  0
  7  8  1  0
  7  9  1  0
  2 10  1  0
 10 11  1  0
 11 12  1  0
 12 13  1  0
 13 14  1  1
 13 15  1  0
 15 16  1  0
 16 17  1  0
 17 18  2  0
 18 19  1  0
 19 20  1  0
 20 21  1  0
 21 22  1  0
 22 23  1  0
 22 24  1  0
 24 25  1  0
 24 26  1  0
 19 27  1  0
 27 28  1  6
 27 29  1  0
 29 30  1  0
 30 31  1  0
 31 32  1  6
  7  5  1  0
 31 10  1  0
 31 13  1  0
 27 15  1  0
 24 18  1  0
  1 33  1  0
  1 34  1  0
  1 35  1  0
  2 36  1  1
  3 37  1  0
  3 38  1  0
  4 39  1  0
  4 40  1  0
  5 41  1  6
  8 42  1  0
  8 43  1  0
  8 44  1  0
  9 45  1  0
  9 46  1  0
  9 47  1  0
 10 48  1  1
 11 49  1  0
 11 50  1  0
 12 51  1  0
 12 52  1  0
 14 53  1  0
 14 54  1  0
 14 55  1  0
 15 56  1  6
 16 57  1  0
 16 58  1  0
 17 59  1  0
 19 60  1  1
 20 61  1  0
 20 62  1  0
 21 63  1  0
 21 64  1  0
 22 65  1  1
 23 66  1  0
 25 67  1  0
 25 68  1  0
 25 69  1  0
 26 70  1  0
 26 71  1  0
 26 72  1  0
 28 73  1  0
 28 74  1  0
 28 75  1  0
 29 76  1  0
 29 77  1  0
 30 78  1  0
 30 79  1  0
 32 80  1  0
 32 81  1  0
 32 82  1  0
M  END
>  <meeko>  (11) 
{"is_sidechain": [false], "intermolecular_energy": 2.731, "internal_energy": -0.839}

$$$$
EPH_relaxed_0001_pdb2pqr_Repair_297_r2_0001_out
     RDKit          3D

 82 86  0  0  0  0  0  0  0  0999 V2000
    1.1840   18.0680   -0.0360 C   0  0  0  0  0  0  0  0  0  0  0  0
    2.0910   16.9540   -0.5660 C   0  0  2  0  0  0  0  0  0  0  0  0
    3.0900   17.4700   -1.6210 C   0  0  0  0  0  0  0  0  0  0  0  0
    4.5490   17.1280   -1.3070 C   0  0  0  0  0  0  0  0  0  0  0  0
    5.4750   17.6130   -2.3810 C   0  0  2  0  0  0  0  0  0  0  0  0
    4.9670   17.4820   -3.7150 O   0  0  0  0  0  0  0  0  0  0  0  0
    6.1290   16.6980   -3.3990 C   0  0  0  0  0  0  0  0  0  0  0  0
    5.8830   15.2220   -3.3920 C   0  0  0  0  0  0  0  0  0  0  0  0
    7.3760   17.1640   -4.0840 C   0  0  0  0  0  0  0  0  0  0  0  0
    1.2450   15.8310   -1.1550 C   0  0  1  0  0  0  0  0  0  0  0  0
    0.6850   16.1800   -2.5600 C   0  0  0  0  0  0  0  0  0  0  0  0
    0.6640   14.8600   -3.3730 C   0  0  0  0  0  0  0  0  0  0  0  0
    0.8950   13.7500   -2.3210 C   0  0  1  0  0  0  0  0  0  0  0  0
   -0.5050   13.5170   -1.6700 C   0  0  0  0  0  0  0  0  0  0  0  0
    1.5140   12.4150   -2.8490 C   0  0  2  0  0  0  0  0  0  0  0  0
    0.6570   11.6610   -3.8810 C   0  0  0  0  0  0  0  0  0  0  0  0
   -0.2970   10.6640   -3.3110 C   0  0  0  0  0  0  0  0  0  0  0  0
   -0.2640   10.1790   -2.0550 C   0  0  0  0  0  0  0  0  0  0  0  0
    0.8680   10.5610   -1.0930 C   0  0  1  0  0  0  0  0  0  0  0  0
    1.3990    9.2850   -0.3870 C   0  0  0  0  0  0  0  0  0  0  0  0
    0.2910    8.4930    0.3000 C   0  0  0  0  0  0  0  0  0  0  0  0
   -0.7870    8.0820   -0.7000 C   0  0  2  0  0  0  0  0  0  0  0  0
   -0.2260    7.1430   -1.6220 O   0  0  0  0  0  0  0  0  0  0  0  0
   -1.3890    9.2840   -1.4790 C   0  0  0  0  0  0  0  0  0  0  0  0
   -2.2530   10.1440   -0.5240 C   0  0  0  0  0  0  0  0  0  0  0  0
   -2.3590    8.7200   -2.5520 C   0  0  0  0  0  0  0  0  0  0  0  0
    2.0340   11.4460   -1.7110 C   0  0  1  0  0  0  0  0  0  0  0  0
    3.1110   10.5280   -2.3650 C   0  0  0  0  0  0  0  0  0  0  0  0
    2.7600   12.2230   -0.5500 C   0  0  0  0  0  0  0  0  0  0  0  0
    2.1710   13.5910   -0.1540 C   0  0  0  0  0  0  0  0  0  0  0  0
    1.9390   14.4660   -1.3900 C   0  0  2  0  0  0  0  0  0  0  0  0
    3.3330   14.7350   -2.0530 C   0  0  0  0  0  0  0  0  0  0  0  0
    1.1935   18.0564    1.0639 H   0  0  0  0  0  0  0  0  0  0  0  0
    1.5500   19.0410   -0.3956 H   0  0  0  0  0  0  0  0  0  0  0  0
    0.1570   17.9069   -0.3956 H   0  0  0  0  0  0  0  0  0  0  0  0
    2.6765   16.5724    0.2834 H   0  0  0  0  0  0  0  0  0  0  0  0
    2.8302   17.0241   -2.5924 H   0  0  0  0  0  0  0  0  0  0  0  0
    3.0116   18.5672   -1.6281 H   0  0  0  0  0  0  0  0  0  0  0  0
    4.8291   17.6012   -0.3543 H   0  0  0  0  0  0  0  0  0  0  0  0
    4.6391   16.0335   -1.2447 H   0  0  0  0  0  0  0  0  0  0  0  0
    5.8845   18.3835   -1.7112 H   0  0  0  0  0  0  0  0  0  0  0  0
    5.8235   14.8651   -2.3532 H   0  0  0  0  0  0  0  0  0  0  0  0
    4.9364   15.0056   -3.9088 H   0  0  0  0  0  0  0  0  0  0  0  0
    6.7082   14.7103   -3.9088 H   0  0  0  0  0  0  0  0  0  0  0  0
    8.1259   17.4442   -3.3296 H   0  0  0  0  0  0  0  0  0  0  0  0
    7.7736   16.3538   -4.7129 H   0  0  0  0  0  0  0  0  0  0  0  0
    7.1448   18.0364   -4.7129 H   0  0  0  0  0  0  0  0  0  0  0  0
    0.4870   15.7360   -0.3636 H   0  0  0  0  0  0  0  0  0  0  0  0
   -0.3332   16.5869   -2.4717 H   0  0  0  0  0  0  0  0  0  0  0  0
    1.3071   16.9397   -3.0559 H   0  0  0  0  0  0  0  0  0  0  0  0
   -0.3074   14.7264   -3.8715 H   0  0  0  0  0  0  0  0  0  0  0  0
    1.4251   14.8470   -4.1670 H   0  0  0  0  0  0  0  0  0  0  0  0
   -0.4072   13.5333   -0.5745 H   0  0  0  0  0  0  0  0  0  0  0  0
   -1.1945   14.3128   -1.9885 H   0  0  0  0  0  0  0  0  0  0  0  0
   -0.8996   12.5408   -1.9885 H   0  0  0  0  0  0  0  0  0  0  0  0
    2.4001   12.7676   -3.3972 H   0  0  0  0  0  0  0  0  0  0  0  0
    0.0751   12.4033   -4.4470 H   0  0  0  0  0  0  0  0  0  0  0  0
    1.3617   11.0878   -4.5013 H   0  0  0  0  0  0  0  0  0  0  0  0
   -1.0941   10.2943   -3.9728 H   0  0  0  0  0  0  0  0  0  0  0  0
    0.4216   11.2402   -0.3518 H   0  0  0  0  0  0  0  0  0  0  0  0
    1.8796    8.6406   -1.1379 H   0  0  0  0  0  0  0  0  0  0  0  0
    2.1114    9.6040    0.3881 H   0  0  0  0  0  0  0  0  0  0  0  0
    0.7233    7.5895    0.7548 H   0  0  0  0  0  0  0  0  0  0  0  0
   -0.1692    9.1292    1.0704 H   0  0  0  0  0  0  0  0  0  0  0  0
   -1.6132    7.6328   -0.1294 H   0  0  0  0  0  0  0  0  0  0  0  0
    0.4970    7.5900   -2.0950 H   0  0  0  0  0  0  0  0  0  0  0  0
   -2.0043    9.8964    0.5185 H   0  0  0  0  0  0  0  0  0  0  0  0
   -2.0506   11.2098   -0.7061 H   0  0  0  0  0  0  0  0  0  0  0  0
   -3.3178    9.9367   -0.7061 H   0  0  0  0  0  0  0  0  0  0  0  0
   -3.2077    8.2265   -2.0559 H   0  0  0  0  0  0  0  0  0  0  0  0
   -2.7297    9.5434   -3.1802 H   0  0  0  0  0  0  0  0  0  0  0  0
   -1.8268    7.9905   -3.1802 H   0  0  0  0  0  0  0  0  0  0  0  0
    3.6954   10.0299   -1.5774 H   0  0  0  0  0  0  0  0  0  0  0  0
    2.6161    9.7697   -2.9895 H   0  0  0  0  0  0  0  0  0  0  0  0
    3.7814   11.1367   -2.9895 H   0  0  0  0  0  0  0  0  0  0  0  0
    2.7401   11.5811    0.3431 H   0  0  0  0  0  0  0  0  0  0  0  0
    3.7657   12.4441   -0.9369 H   0  0  0  0  0  0  0  0  0  0  0  0
    1.2119   13.4344    0.3613 H   0  0  0  0  0  0  0  0  0  0  0  0
    2.8849   14.1019    0.5088 H   0  0  0  0  0  0  0  0  0  0  0  0
    4.0901   14.8811   -1.2685 H   0  0  0  0  0  0  0  0  0  0  0  0
    3.6139   13.8745   -2.6780 H   0  0  0  0  0  0  0  0  0  0  0  0
    3.2736   15.6383   -2.6780 H   0  0  0  0  0  0  0  0  0  0  0  0
  1  2  1  0
  2  3  1  0
  3  4  1  0
  4  5  1  0
  5  6  1  0
  6  7  1  0
  7  8  1  0
  7  9  1  0
  2 10  1  0
 10 11  1  0
 11 12  1  0
 12 13  1  0
 13 14  1  1
 13 15  1  0
 15 16  1  0
 16 17  1  0
 17 18  2  0
 18 19  1  0
 19 20  1  0
 20 21  1  0
 21 22  1  0
 22 23  1  0
 22 24  1  0
 24 25  1  0
 24 26  1  0
 19 27  1  0
 27 28  1  6
 27 29  1  0
 29 30  1  0
 30 31  1  0
 31 32  1  6
  7  5  1  0
 31 10  1  0
 31 13  1  0
 27 15  1  0
 24 18  1  0
  1 33  1  0
  1 34  1  0
  1 35  1  0
  2 36  1  1
  3 37  1  0
  3 38  1  0
  4 39  1  0
  4 40  1  0
  5 41  1  1
  8 42  1  0
  8 43  1  0
  8 44  1  0
  9 45  1  0
  9 46  1  0
  9 47  1  0
 10 48  1  1
 11 49  1  0
 11 50  1  0
 12 51  1  0
 12 52  1  0
 14 53  1  0
 14 54  1  0
 14 55  1  0
 15 56  1  6
 16 57  1  0
 16 58  1  0
 17 59  1  0
 19 60  1  1
 20 61  1  0
 20 62  1  0
 21 63  1  0
 21 64  1  0
 22 65  1  1
 23 66  1  0
 25 67  1  0
 25 68  1  0
 25 69  1  0
 26 70  1  0
 26 71  1  0
 26 72  1  0
 28 73  1  0
 28 74  1  0
 28 75  1  0
 29 76  1  0
 29 77  1  0
 30 78  1  0
 30 79  1  0
 32 80  1  0
 32 81  1  0
 32 82  1  0
M  END
>  <meeko>  (12) 
{"is_sidechain": [false], "intermolecular_energy": 2.731, "internal_energy": -0.839}

$$$$
EPH_relaxed_0001_pdb2pqr_Repair_297_r2_0001_out
     RDKit          3D

 82 86  0  0  0  0  0  0  0  0999 V2000
    0.1650   10.3570   -3.7410 C   0  0  0  0  0  0  0  0  0  0  0  0
    1.0590   10.1300   -2.5190 C   0  0  2  0  0  0  0  0  0  0  0  0
    0.6130    8.9080   -1.6920 C   0  0  0  0  0  0  0  0  0  0  0  0
   -0.8040    8.4280   -2.0190 C   0  0  0  0  0  0  0  0  0  0  0  0
   -1.7140    8.5390   -0.8330 C   0  0  2  0  0  0  0  0  0  0  0  0
   -3.0810    8.8280   -1.1530 O   0  0  0  0  0  0  0  0  0  0  0  0
   -2.3780    9.8350   -0.4070 C   0  0  0  0  0  0  0  0  0  0  0  0
   -2.1590   11.1090   -1.1620 C   0  0  0  0  0  0  0  0  0  0  0  0
   -2.8420    9.9700    1.0100 C   0  0  0  0  0  0  0  0  0  0  0  0
    1.0690   11.3770   -1.6430 C   0  0  1  0  0  0  0  0  0  0  0  0
    1.7600   11.1400   -0.2740 C   0  0  0  0  0  0  0  0  0  0  0  0
    2.4830   12.4600    0.0970 C   0  0  0  0  0  0  0  0  0  0  0  0
    1.9160   13.5060   -0.8920 C   0  0  1  0  0  0  0  0  0  0  0  0
    0.5470   13.9360   -0.2790 C   0  0  0  0  0  0  0  0  0  0  0  0
    2.8280   14.7400   -1.1900 C   0  0  2  0  0  0  0  0  0  0  0  0
    3.1380   15.6310    0.0250 C   0  0  0  0  0  0  0  0  0  0  0  0
    2.1780   16.7510    0.2560 C   0  0  0  0  0  0  0  0  0  0  0  0
    1.2780   17.2050   -0.6350 C   0  0  0  0  0  0  0  0  0  0  0  0
    1.2270   16.6420   -2.0610 C   0  0  1  0  0  0  0  0  0  0  0  0
    1.1320   17.8110   -3.0770 C   0  0  0  0  0  0  0  0  0  0  0  0
   -0.0330   18.7510   -2.7790 C   0  0  0  0  0  0  0  0  0  0  0  0
    0.0830   19.3350   -1.3740 C   0  0  2  0  0  0  0  0  0  0  0  0
    1.2270   20.1940   -1.3250 O   0  0  0  0  0  0  0  0  0  0  0  0
    0.1960   18.2510   -0.2660 C   0  0  0  0  0  0  0  0  0  0  0  0
   -1.1590   17.5160   -0.1170 C   0  0  0  0  0  0  0  0  0  0  0  0
    0.4500   18.9720    1.0850 C   0  0  0  0  0  0  0  0  0  0  0  0
    2.3680   15.6010   -2.4360 C   0  0  1  0  0  0  0  0  0  0  0  0
    3.6320   16.3570   -2.9470 C   0  0  0  0  0  0  0  0  0  0  0  0
    1.8730   14.7040   -3.6320 C   0  0  0  0  0  0  0  0  0  0  0  0
    1.0790   13.4350   -3.2670 C   0  0  0  0  0  0  0  0  0  0  0  0
    1.8060   12.6250   -2.1890 C   0  0  2  0  0  0  0  0  0  0  0  0
    3.1780   12.1590   -2.7850 C   0  0  0  0  0  0  0  0  0  0  0  0
   -0.8514   10.6151   -3.4089 H   0  0  0  0  0  0  0  0  0  0  0  0
    0.5731   11.1800   -4.3461 H   0  0  0  0  0  0  0  0  0  0  0  0
    0.1310    9.4390   -4.3461 H   0  0  0  0  0  0  0  0  0  0  0  0
    2.0756    9.9262   -2.8863 H   0  0  0  0  0  0  0  0  0  0  0  0
    1.3131    8.0823   -1.8870 H   0  0  0  0  0  0  0  0  0  0  0  0
    0.6124    9.2169   -0.6363 H   0  0  0  0  0  0  0  0  0  0  0  0
   -1.2084    9.0417   -2.8374 H   0  0  0  0  0  0  0  0  0  0  0  0
   -0.7486    7.3689   -2.3111 H   0  0  0  0  0  0  0  0  0  0  0  0
   -1.1211    7.7968   -0.2784 H   0  0  0  0  0  0  0  0  0  0  0  0
   -2.0167   11.9365   -0.4514 H   0  0  0  0  0  0  0  0  0  0  0  0
   -1.2645   11.0111   -1.7947 H   0  0  0  0  0  0  0  0  0  0  0  0
   -3.0348   11.3155   -1.7947 H   0  0  0  0  0  0  0  0  0  0  0  0
   -2.0131    9.7288    1.6918 H   0  0  0  0  0  0  0  0  0  0  0  0
   -3.1760   11.0026    1.1897 H   0  0  0  0  0  0  0  0  0  0  0  0
   -3.6778    9.2778    1.1897 H   0  0  0  0  0  0  0  0  0  0  0  0
   -0.0122   11.5723   -1.5897 H   0  0  0  0  0  0  0  0  0  0  0  0
    1.0097   10.8913    0.4909 H   0  0  0  0  0  0  0  0  0  0  0  0
    2.4712   10.3027   -0.3305 H   0  0  0  0  0  0  0  0  0  0  0  0
    2.2601   12.7464    1.1354 H   0  0  0  0  0  0  0  0  0  0  0  0
    3.5772   12.3703    0.0279 H   0  0  0  0  0  0  0  0  0  0  0  0
    0.6140   13.9150    0.8188 H   0  0  0  0  0  0  0  0  0  0  0  0
    0.3001   14.9550   -0.6118 H   0  0  0  0  0  0  0  0  0  0  0  0
   -0.2382   13.2412   -0.6118 H   0  0  0  0  0  0  0  0  0  0  0  0
    3.7822   14.2665   -1.4643 H   0  0  0  0  0  0  0  0  0  0  0  0
    3.1395   14.9942    0.9219 H   0  0  0  0  0  0  0  0  0  0  0  0
    4.1103   16.1016   -0.1829 H   0  0  0  0  0  0  0  0  0  0  0  0
    2.2092   17.2467    1.2375 H   0  0  0  0  0  0  0  0  0  0  0  0
    0.3161   16.0275   -2.1124 H   0  0  0  0  0  0  0  0  0  0  0  0
    2.0684   18.3871   -3.0405 H   0  0  0  0  0  0  0  0  0  0  0  0
    0.9638   17.3754   -4.0730 H   0  0  0  0  0  0  0  0  0  0  0  0
   -0.0297   19.5717   -3.5114 H   0  0  0  0  0  0  0  0  0  0  0  0
   -0.9708   18.1799   -2.8455 H   0  0  0  0  0  0  0  0  0  0  0  0
   -0.8429   19.8935   -1.1721 H   0  0  0  0  0  0  0  0  0  0  0  0
    1.1710   20.7130   -0.5050 H   0  0  0  0  0  0  0  0  0  0  0  0
   -1.3921   17.3896    0.9506 H   0  0  0  0  0  0  0  0  0  0  0  0
   -1.9519   18.1077   -0.5979 H   0  0  0  0  0  0  0  0  0  0  0  0
   -1.0954   16.5287   -0.5979 H   0  0  0  0  0  0  0  0  0  0  0  0
    0.2101   18.2910    1.9148 H   0  0  0  0  0  0  0  0  0  0  0  0
    1.5071   19.2695    1.1488 H   0  0  0  0  0  0  0  0  0  0  0  0
   -0.1872   19.8664    1.1488 H   0  0  0  0  0  0  0  0  0  0  0  0
    4.2210   16.7093   -2.0874 H   0  0  0  0  0  0  0  0  0  0  0  0
    4.2444   15.6768   -3.5571 H   0  0  0  0  0  0  0  0  0  0  0  0
    3.3224   17.2184   -3.5571 H   0  0  0  0  0  0  0  0  0  0  0  0
    1.2296   15.3268   -4.2708 H   0  0  0  0  0  0  0  0  0  0  0  0
    2.7905   14.3396   -4.1172 H   0  0  0  0  0  0  0  0  0  0  0  0
    0.0874   13.7267   -2.8906 H   0  0  0  0  0  0  0  0  0  0  0  0
    0.9805   12.8114   -4.1678 H   0  0  0  0  0  0  0  0  0  0  0  0
    3.8726   11.9231   -1.9654 H   0  0  0  0  0  0  0  0  0  0  0  0
    3.0235   11.2630   -3.4040 H   0  0  0  0  0  0  0  0  0  0  0  0
    3.6012   12.9638   -3.4040 H   0  0  0  0  0  0  0  0  0  0  0  0
  1  2  1  0
  2  3  1  0
  3  4  1  0
  4  5  1  0
  5  6  1  0
  6  7  1  0
  7  8  1  0
  7  9  1  0
  2 10  1  0
 10 11  1  0
 11 12  1  0
 12 13  1  0
 13 14  1  1
 13 15  1  0
 15 16  1  0
 16 17  1  0
 17 18  2  0
 18 19  1  0
 19 20  1  0
 20 21  1  0
 21 22  1  0
 22 23  1  0
 22 24  1  0
 24 25  1  0
 24 26  1  0
 19 27  1  0
 27 28  1  6
 27 29  1  0
 29 30  1  0
 30 31  1  0
 31 32  1  6
  7  5  1  0
 31 10  1  0
 31 13  1  0
 27 15  1  0
 24 18  1  0
  1 33  1  0
  1 34  1  0
  1 35  1  0
  2 36  1  6
  3 37  1  0
  3 38  1  0
  4 39  1  0
  4 40  1  0
  5 41  1  1
  8 42  1  0
  8 43  1  0
  8 44  1  0
  9 45  1  0
  9 46  1  0
  9 47  1  0
 10 48  1  1
 11 49  1  0
 11 50  1  0
 12 51  1  0
 12 52  1  0
 14 53  1  0
 14 54  1  0
 14 55  1  0
 15 56  1  6
 16 57  1  0
 16 58  1  0
 17 59  1  0
 19 60  1  1
 20 61  1  0
 20 62  1  0
 21 63  1  0
 21 64  1  0
 22 65  1  1
 23 66  1  0
 25 67  1  0
 25 68  1  0
 25 69  1  0
 26 70  1  0
 26 71  1  0
 26 72  1  0
 28 73  1  0
 28 74  1  0
 28 75  1  0
 29 76  1  0
 29 77  1  0
 30 78  1  0
 30 79  1  0
 32 80  1  0
 32 81  1  0
 32 82  1  0
M  END
>  <meeko>  (13) 
{"is_sidechain": [false], "intermolecular_energy": 2.731, "internal_energy": -0.839}

$$$$
EPH_relaxed_0001_pdb2pqr_Repair_297_r2_0001_out
     RDKit          3D

 82 86  0  0  0  0  0  0  0  0999 V2000
   -4.8590    6.0150   -2.2640 C   0  0  0  0  0  0  0  0  0  0  0  0
   -5.3000    7.4650   -2.0450 C   0  0  2  0  0  0  0  0  0  0  0  0
   -5.1040    7.9170   -0.5840 C   0  0  0  0  0  0  0  0  0  0  0  0
   -4.0700    9.0340   -0.4190 C   0  0  0  0  0  0  0  0  0  0  0  0
   -2.7230    8.6230   -0.9320 C   0  0  2  0  0  0  0  0  0  0  0  0
   -1.6350    8.8880   -0.0370 O   0  0  0  0  0  0  0  0  0  0  0  0
   -1.6230    9.6080   -1.2810 C   0  0  0  0  0  0  0  0  0  0  0  0
   -1.8220   11.0840   -1.1310 C   0  0  0  0  0  0  0  0  0  0  0  0
   -0.5430    9.1720   -2.2200 C   0  0  0  0  0  0  0  0  0  0  0  0
   -6.7600    7.6310   -2.4510 C   0  0  1  0  0  0  0  0  0  0  0  0
   -7.0970    6.9030   -3.7790 C   0  0  0  0  0  0  0  0  0  0  0  0
   -8.5490    6.3770   -3.6440 C   0  0  0  0  0  0  0  0  0  0  0  0
   -9.1100    7.0960   -2.3960 C   0  0  1  0  0  0  0  0  0  0  0  0
   -9.5360    8.5090   -2.9040 C   0  0  0  0  0  0  0  0  0  0  0  0
  -10.2800    6.3750   -1.6500 C   0  0  2  0  0  0  0  0  0  0  0  0
  -11.5650    6.1890   -2.4770 C   0  0  0  0  0  0  0  0  0  0  0  0
  -12.5570    7.3000   -2.3720 C   0  0  0  0  0  0  0  0  0  0  0  0
  -12.5560    8.2630   -1.4320 C   0  0  0  0  0  0  0  0  0  0  0  0
  -11.5400    8.2410   -0.2820 C   0  0  1  0  0  0  0  0  0  0  0  0
  -12.2700    8.5130    1.0590 C   0  0  0  0  0  0  0  0  0  0  0  0
  -13.0890    9.8000    1.0290 C   0  0  0  0  0  0  0  0  0  0  0  0
  -14.1270    9.7590   -0.0900 C   0  0  2  0  0  0  0  0  0  0  0  0
  -15.0960    8.7520    0.2160 O   0  0  0  0  0  0  0  0  0  0  0  0
  -13.5090    9.4820   -1.4890 C   0  0  0  0  0  0  0  0  0  0  0  0
  -12.6940   10.7150   -1.9520 C   0  0  0  0  0  0  0  0  0  0  0  0
  -14.6740    9.3260   -2.5030 C   0  0  0  0  0  0  0  0  0  0  0  0
  -10.5960    6.9640   -0.2160 C   0  0  1  0  0  0  0  0  0  0  0  0
  -11.2960    5.8270    0.5890 C   0  0  0  0  0  0  0  0  0  0  0  0
   -9.2890    7.3330    0.5810 C   0  0  0  0  0  0  0  0  0  0  0  0
   -8.1250    7.9310   -0.2320 C   0  0  0  0  0  0  0  0  0  0  0  0
   -7.8350    7.0870   -1.4770 C   0  0  2  0  0  0  0  0  0  0  0  0
   -7.3830    5.6660   -0.9960 C   0  0  0  0  0  0  0  0  0  0  0  0
   -4.7102    5.5259   -1.2900 H   0  0  0  0  0  0  0  0  0  0  0  0
   -5.6343    5.4774   -2.8297 H   0  0  0  0  0  0  0  0  0  0  0  0
   -3.9157    6.0001   -2.8297 H   0  0  0  0  0  0  0  0  0  0  0  0
   -4.6641    8.1035   -2.6758 H   0  0  0  0  0  0  0  0  0  0  0  0
   -6.0694    8.2778   -0.1996 H   0  0  0  0  0  0  0  0  0  0  0  0
   -4.7289    7.0466   -0.0257 H   0  0  0  0  0  0  0  0  0  0  0  0
   -4.4092    9.9190   -0.9773 H   0  0  0  0  0  0  0  0  0  0  0  0
   -3.9747    9.2572    0.6539 H   0  0  0  0  0  0  0  0  0  0  0  0
   -3.1659    7.7844   -1.4893 H   0  0  0  0  0  0  0  0  0  0  0  0
   -1.8569   11.3426   -0.0624 H   0  0  0  0  0  0  0  0  0  0  0  0
   -0.9876   11.6171   -1.6102 H   0  0  0  0  0  0  0  0  0  0  0  0
   -2.7678   11.3770   -1.6102 H   0  0  0  0  0  0  0  0  0  0  0  0
    0.3253    8.8215   -1.6428 H   0  0  0  0  0  0  0  0  0  0  0  0
   -0.9163    8.3541   -2.8538 H   0  0  0  0  0  0  0  0  0  0  0  0
   -0.2439   10.0198   -2.8538 H   0  0  0  0  0  0  0  0  0  0  0  0
   -6.8151    8.7287   -2.4971 H   0  0  0  0  0  0  0  0  0  0  0  0
   -7.0248    7.6035   -4.6240 H   0  0  0  0  0  0  0  0  0  0  0  0
   -6.3938    6.0783   -3.9671 H   0  0  0  0  0  0  0  0  0  0  0  0
   -9.1389    6.6318   -4.5368 H   0  0  0  0  0  0  0  0  0  0  0  0
   -8.5886    5.2820   -3.5474 H   0  0  0  0  0  0  0  0  0  0  0  0
   -9.7335    9.1641   -2.0427 H   0  0  0  0  0  0  0  0  0  0  0  0
   -8.7274    8.9386   -3.5137 H   0  0  0  0  0  0  0  0  0  0  0  0
  -10.4473    8.4201   -3.5137 H   0  0  0  0  0  0  0  0  0  0  0  0
   -9.8739    5.3642   -1.4969 H   0  0  0  0  0  0  0  0  0  0  0  0
  -11.2775    6.0887   -3.5340 H   0  0  0  0  0  0  0  0  0  0  0  0
  -12.0629    5.2968   -2.0695 H   0  0  0  0  0  0  0  0  0  0  0  0
  -13.3563    7.3342   -3.1269 H   0  0  0  0  0  0  0  0  0  0  0  0
  -10.8273    9.0528   -0.4895 H   0  0  0  0  0  0  0  0  0  0  0  0
  -12.9449    7.6705    1.2703 H   0  0  0  0  0  0  0  0  0  0  0  0
  -11.5033    8.6234    1.8400 H   0  0  0  0  0  0  0  0  0  0  0  0
  -13.6037    9.9220    1.9935 H   0  0  0  0  0  0  0  0  0  0  0  0
  -12.4090   10.6453    0.8470 H   0  0  0  0  0  0  0  0  0  0  0  0
  -14.5925   10.7541   -0.1443 H   0  0  0  0  0  0  0  0  0  0  0  0
  -15.6220    9.0690    0.9700 H   0  0  0  0  0  0  0  0  0  0  0  0
  -12.3301   11.2655   -1.0719 H   0  0  0  0  0  0  0  0  0  0  0  0
  -11.8373   10.3823   -2.5564 H   0  0  0  0  0  0  0  0  0  0  0  0
  -13.3358   11.3728   -2.5564 H   0  0  0  0  0  0  0  0  0  0  0  0
  -15.6206    9.1992   -1.9572 H   0  0  0  0  0  0  0  0  0  0  0  0
  -14.7327   10.2243   -3.1351 H   0  0  0  0  0  0  0  0  0  0  0  0
  -14.4943    8.4439   -3.1351 H   0  0  0  0  0  0  0  0  0  0  0  0
  -11.1799    6.0156    1.6665 H   0  0  0  0  0  0  0  0  0  0  0  0
  -12.3658    5.8025    0.3342 H   0  0  0  0  0  0  0  0  0  0  0  0
  -10.8362    4.8607    0.3342 H   0  0  0  0  0  0  0  0  0  0  0  0
   -9.5660    8.0653    1.3536 H   0  0  0  0  0  0  0  0  0  0  0  0
   -8.9081    6.3763    0.9679 H   0  0  0  0  0  0  0  0  0  0  0  0
   -8.3908    8.9520   -0.5434 H   0  0  0  0  0  0  0  0  0  0  0  0
   -7.2253    7.9432    0.4007 H   0  0  0  0  0  0  0  0  0  0  0  0
   -7.3737    5.6369    0.1036 H   0  0  0  0  0  0  0  0  0  0  0  0
   -8.0849    4.9095   -1.3769 H   0  0  0  0  0  0  0  0  0  0  0  0
   -6.3731    5.4540   -1.3769 H   0  0  0  0  0  0  0  0  0  0  0  0
  1  2  1  0
  2  3  1  0
  3  4  1  0
  4  5  1  0
  5  6  1  0
  6  7  1  0
  7  8  1  0
  7  9  1  0
  2 10  1  0
 10 11  1  0
 11 12  1  0
 12 13  1  0
 13 14  1  6
 13 15  1  0
 15 16  1  0
 16 17  1  0
 17 18  2  0
 18 19  1  0
 19 20  1  0
 20 21  1  0
 21 22  1  0
 22 23  1  0
 22 24  1  0
 24 25  1  0
 24 26  1  0
 19 27  1  0
 27 28  1  1
 27 29  1  0
 29 30  1  0
 30 31  1  0
 31 32  1  1
  7  5  1  0
 31 10  1  0
 31 13  1  0
 27 15  1  0
 24 18  1  0
  1 33  1  0
  1 34  1  0
  1 35  1  0
  2 36  1  6
  3 37  1  0
  3 38  1  0
  4 39  1  0
  4 40  1  0
  5 41  1  6
  8 42  1  0
  8 43  1  0
  8 44  1  0
  9 45  1  0
  9 46  1  0
  9 47  1  0
 10 48  1  6
 11 49  1  0
 11 50  1  0
 12 51  1  0
 12 52  1  0
 14 53  1  0
 14 54  1  0
 14 55  1  0
 15 56  1  1
 16 57  1  0
 16 58  1  0
 17 59  1  0
 19 60  1  6
 20 61  1  0
 20 62  1  0
 21 63  1  0
 21 64  1  0
 22 65  1  6
 23 66  1  0
 25 67  1  0
 25 68  1  0
 25 69  1  0
 26 70  1  0
 26 71  1  0
 26 72  1  0
 28 73  1  0
 28 74  1  0
 28 75  1  0
 29 76  1  0
 29 77  1  0
 30 78  1  0
 30 79  1  0
 32 80  1  0
 32 81  1  0
 32 82  1  0
M  END
>  <meeko>  (14) 
{"is_sidechain": [false], "intermolecular_energy": 2.731, "internal_energy": -0.839}

$$$$
EPH_relaxed_0001_pdb2pqr_Repair_297_r2_0001_out
     RDKit          3D

 82 86  0  0  0  0  0  0  0  0999 V2000
   -1.4380   10.3790    1.4550 C   0  0  0  0  0  0  0  0  0  0  0  0
   -2.0320   10.0750    0.0770 C   0  0  2  0  0  0  0  0  0  0  0  0
   -2.7730    8.7240    0.0490 C   0  0  0  0  0  0  0  0  0  0  0  0
   -4.2320    8.8310   -0.4020 C   0  0  0  0  0  0  0  0  0  0  0  0
   -4.7760    7.5050   -0.8400 C   0  0  2  0  0  0  0  0  0  0  0  0
   -4.8930    7.3450   -2.2600 O   0  0  0  0  0  0  0  0  0  0  0  0
   -6.1230    7.3360   -1.5180 C   0  0  0  0  0  0  0  0  0  0  0  0
   -7.0100    8.5100   -1.7960 C   0  0  0  0  0  0  0  0  0  0  0  0
   -6.7860    5.9950   -1.4670 C   0  0  0  0  0  0  0  0  0  0  0  0
   -0.9310   10.0880   -0.9770 C   0  0  1  0  0  0  0  0  0  0  0  0
   -1.3070    9.2700   -2.2420 C   0  0  0  0  0  0  0  0  0  0  0  0
   -0.6780   10.0060   -3.4530 C   0  0  0  0  0  0  0  0  0  0  0  0
    0.3050   11.0220   -2.8250 C   0  0  1  0  0  0  0  0  0  0  0  0
    1.5870   10.1920   -2.5030 C   0  0  0  0  0  0  0  0  0  0  0  0
    0.6350   12.2850   -3.6850 C   0  0  2  0  0  0  0  0  0  0  0  0
    1.3350   11.9980   -5.0250 C   0  0  0  0  0  0  0  0  0  0  0  0
    2.8270   11.9870   -4.9760 C   0  0  0  0  0  0  0  0  0  0  0  0
    3.5800   12.4760   -3.9730 C   0  0  0  0  0  0  0  0  0  0  0  0
    2.9350   13.2030   -2.7860 C   0  0  1  0  0  0  0  0  0  0  0  0
    3.7170   14.5100   -2.4920 C   0  0  0  0  0  0  0  0  0  0  0  0
    5.2090   14.2660   -2.2870 C   0  0  0  0  0  0  0  0  0  0  0  0
    5.8260   13.5950   -3.5110 C   0  0  2  0  0  0  0  0  0  0  0  0
    5.7840   14.5120   -4.6090 O   0  0  0  0  0  0  0  0  0  0  0  0
    5.1140   12.2720   -3.9080 C   0  0  0  0  0  0  0  0  0  0  0  0
    5.4150   11.1810   -2.8510 C   0  0  0  0  0  0  0  0  0  0  0  0
    5.7420   11.7730   -5.2380 C   0  0  0  0  0  0  0  0  0  0  0  0
    1.3670   13.4390   -2.8860 C   0  0  1  0  0  0  0  0  0  0  0  0
    1.0770   14.7650   -3.6540 C   0  0  0  0  0  0  0  0  0  0  0  0
    0.7810   13.6280   -1.4370 C   0  0  0  0  0  0  0  0  0  0  0  0
    0.3620   12.3500   -0.6850 C   0  0  0  0  0  0  0  0  0  0  0  0
   -0.5240   11.4620   -1.5640 C   0  0  2  0  0  0  0  0  0  0  0  0
   -1.8320   12.2620   -1.8860 C   0  0  0  0  0  0  0  0  0  0  0  0
   -2.1267   10.0266    2.2370 H   0  0  0  0  0  0  0  0  0  0  0  0
   -0.4711    9.8649    1.5590 H   0  0  0  0  0  0  0  0  0  0  0  0
   -1.2895   11.4640    1.5590 H   0  0  0  0  0  0  0  0  0  0  0  0
   -2.7698   10.8598   -0.1461 H   0  0  0  0  0  0  0  0  0  0  0  0
   -2.2441    8.0522   -0.6430 H   0  0  0  0  0  0  0  0  0  0  0  0
   -2.7828    8.3416    1.0803 H   0  0  0  0  0  0  0  0  0  0  0  0
   -4.8377    9.2053    0.4365 H   0  0  0  0  0  0  0  0  0  0  0  0
   -4.2762    9.5195   -1.2588 H   0  0  0  0  0  0  0  0  0  0  0  0
   -4.3176    7.0046    0.0257 H   0  0  0  0  0  0  0  0  0  0  0  0
   -7.3433    8.9511   -0.8450 H   0  0  0  0  0  0  0  0  0  0  0  0
   -6.4526    9.2621   -2.3736 H   0  0  0  0  0  0  0  0  0  0  0  0
   -7.8858    8.1792   -2.3736 H   0  0  0  0  0  0  0  0  0  0  0  0
   -6.9327    5.6982   -0.4180 H   0  0  0  0  0  0  0  0  0  0  0  0
   -7.7614    6.0487   -1.9728 H   0  0  0  0  0  0  0  0  0  0  0  0
   -6.1511    5.2526   -1.9728 H   0  0  0  0  0  0  0  0  0  0  0  0
   -0.1028    9.6726   -0.3841 H   0  0  0  0  0  0  0  0  0  0  0  0
   -0.9031    8.2496   -2.1673 H   0  0  0  0  0  0  0  0  0  0  0  0
   -2.3987    9.1905   -2.3513 H   0  0  0  0  0  0  0  0  0  0  0  0
   -0.1423    9.2978   -4.1022 H   0  0  0  0  0  0  0  0  0  0  0  0
   -1.4356   10.4940   -4.0838 H   0  0  0  0  0  0  0  0  0  0  0  0
    1.7086   10.1133   -1.4126 H   0  0  0  0  0  0  0  0  0  0  0  0
    1.4899    9.1849   -2.9347 H   0  0  0  0  0  0  0  0  0  0  0  0
    2.4661   10.6928   -2.9347 H   0  0  0  0  0  0  0  0  0  0  0  0
   -0.3653   12.6610   -3.9457 H   0  0  0  0  0  0  0  0  0  0  0  0
    0.9994   11.0122   -5.3794 H   0  0  0  0  0  0  0  0  0  0  0  0
    1.0588   12.8250   -5.6956 H   0  0  0  0  0  0  0  0  0  0  0  0
    3.3557   11.5417   -5.8317 H   0  0  0  0  0  0  0  0  0  0  0  0
    3.0175   12.5182   -1.9292 H   0  0  0  0  0  0  0  0  0  0  0  0
    3.5856   15.1979   -3.3403 H   0  0  0  0  0  0  0  0  0  0  0  0
    3.3173   14.9355   -1.5597 H   0  0  0  0  0  0  0  0  0  0  0  0
    5.7107   15.2294   -2.1136 H   0  0  0  0  0  0  0  0  0  0  0  0
    5.3399   13.6021   -1.4197 H   0  0  0  0  0  0  0  0  0  0  0  0
    6.8621   13.3289   -3.2547 H   0  0  0  0  0  0  0  0  0  0  0  0
    4.8910   14.8950   -4.6390 H   0  0  0  0  0  0  0  0  0  0  0  0
    5.2980   11.6051   -1.8428 H   0  0  0  0  0  0  0  0  0  0  0  0
    4.7146   10.3426   -2.9797 H   0  0  0  0  0  0  0  0  0  0  0  0
    6.4462   10.8204   -2.9797 H   0  0  0  0  0  0  0  0  0  0  0  0
    6.5856   11.1027   -5.0164 H   0  0  0  0  0  0  0  0  0  0  0  0
    4.9839   11.2283   -5.8198 H   0  0  0  0  0  0  0  0  0  0  0  0
    6.1013   12.6346   -5.8198 H   0  0  0  0  0  0  0  0  0  0  0  0
    0.8997   15.5757   -2.9319 H   0  0  0  0  0  0  0  0  0  0  0  0
    1.9408   15.0192   -4.2859 H   0  0  0  0  0  0  0  0  0  0  0  0
    0.1860   14.6354   -4.2859 H   0  0  0  0  0  0  0  0  0  0  0  0
    1.5472   14.1343   -0.8316 H   0  0  0  0  0  0  0  0  0  0  0  0
   -0.1491   14.1989   -1.5748 H   0  0  0  0  0  0  0  0  0  0  0  0
    1.2638   11.7884   -0.3997 H   0  0  0  0  0  0  0  0  0  0  0  0
   -0.2097   12.6405    0.2087 H   0  0  0  0  0  0  0  0  0  0  0  0
   -2.3200   12.5604   -0.9464 H   0  0  0  0  0  0  0  0  0  0  0  0
   -1.5786   13.1598   -2.4688 H   0  0  0  0  0  0  0  0  0  0  0  0
   -2.5158   11.6274   -2.4688 H   0  0  0  0  0  0  0  0  0  0  0  0
  1  2  1  0
  2  3  1  0
  3  4  1  0
  4  5  1  0
  5  6  1  0
  6  7  1  0
  7  8  1  0
  7  9  1  0
  2 10  1  0
 10 11  1  0
 11 12  1  0
 12 13  1  0
 13 14  1  1
 13 15  1  0
 15 16  1  0
 16 17  1  0
 17 18  2  0
 18 19  1  0
 19 20  1  0
 20 21  1  0
 21 22  1  0
 22 23  1  0
 22 24  1  0
 24 25  1  0
 24 26  1  0
 19 27  1  0
 27 28  1  6
 27 29  1  0
 29 30  1  0
 30 31  1  0
 31 32  1  6
  7  5  1  0
 31 10  1  0
 31 13  1  0
 27 15  1  0
 24 18  1  0
  1 33  1  0
  1 34  1  0
  1 35  1  0
  2 36  1  6
  3 37  1  0
  3 38  1  0
  4 39  1  0
  4 40  1  0
  5 41  1  1
  8 42  1  0
  8 43  1  0
  8 44  1  0
  9 45  1  0
  9 46  1  0
  9 47  1  0
 10 48  1  1
 11 49  1  0
 11 50  1  0
 12 51  1  0
 12 52  1  0
 14 53  1  0
 14 54  1  0
 14 55  1  0
 15 56  1  6
 16 57  1  0
 16 58  1  0
 17 59  1  0
 19 60  1  1
 20 61  1  0
 20 62  1  0
 21 63  1  0
 21 64  1  0
 22 65  1  1
 23 66  1  0
 25 67  1  0
 25 68  1  0
 25 69  1  0
 26 70  1  0
 26 71  1  0
 26 72  1  0
 28 73  1  0
 28 74  1  0
 28 75  1  0
 29 76  1  0
 29 77  1  0
 30 78  1  0
 30 79  1  0
 32 80  1  0
 32 81  1  0
 32 82  1  0
M  END
>  <meeko>  (15) 
{"is_sidechain": [false], "intermolecular_energy": 2.731, "internal_energy": -0.839}

$$$$
EPH_relaxed_0001_pdb2pqr_Repair_297_r2_0001_out
     RDKit          3D

 82 86  0  0  0  0  0  0  0  0999 V2000
    0.0850   18.4780    0.0040 C   0  0  0  0  0  0  0  0  0  0  0  0
    1.4100   17.7290   -0.1580 C   0  0  2  0  0  0  0  0  0  0  0  0
    2.5140   18.6230   -0.7580 C   0  0  0  0  0  0  0  0  0  0  0  0
    3.0200   19.7020    0.2030 C   0  0  0  0  0  0  0  0  0  0  0  0
    3.3770   19.1310    1.5420 C   0  0  2  0  0  0  0  0  0  0  0  0
    3.5380   20.1020    2.5840 O   0  0  0  0  0  0  0  0  0  0  0  0
    4.7140   19.3600    2.2200 C   0  0  0  0  0  0  0  0  0  0  0  0
    5.7820   20.1900    1.5790 C   0  0  0  0  0  0  0  0  0  0  0  0
    5.1610   18.3890    3.2680 C   0  0  0  0  0  0  0  0  0  0  0  0
    1.2070   16.4960   -1.0320 C   0  0  1  0  0  0  0  0  0  0  0  0
    1.8450   16.6490   -2.4380 C   0  0  0  0  0  0  0  0  0  0  0  0
    2.3670   15.2470   -2.8470 C   0  0  0  0  0  0  0  0  0  0  0  0
    1.7240   14.2790   -1.8260 C   0  0  1  0  0  0  0  0  0  0  0  0
    0.2780   14.0350   -2.3600 C   0  0  0  0  0  0  0  0  0  0  0  0
    2.4820   12.9340   -1.5770 C   0  0  2  0  0  0  0  0  0  0  0  0
    2.6040   12.0170   -2.8070 C   0  0  0  0  0  0  0  0  0  0  0  0
    1.4940   11.0340   -2.9820 C   0  0  0  0  0  0  0  0  0  0  0  0
    0.5930   10.6970   -2.0410 C   0  0  0  0  0  0  0  0  0  0  0  0
    0.6970   11.2530   -0.6150 C   0  0  1  0  0  0  0  0  0  0  0  0
    0.5050   10.1010    0.4060 C   0  0  0  0  0  0  0  0  0  0  0  0
   -0.7870    9.3240    0.1760 C   0  0  0  0  0  0  0  0  0  0  0  0
   -0.8270    8.7370   -1.2330 C   0  0  2  0  0  0  0  0  0  0  0  0
    0.1890    7.7370   -1.3450 O   0  0  0  0  0  0  0  0  0  0  0  0
   -0.6350    9.8040   -2.3470 C   0  0  0  0  0  0  0  0  0  0  0  0
   -1.8890   10.7110   -2.4210 C   0  0  0  0  0  0  0  0  0  0  0  0
   -0.5540    9.0630   -3.7090 C   0  0  0  0  0  0  0  0  0  0  0  0
    1.9830   12.1340   -0.3070 C   0  0  1  0  0  0  0  0  0  0  0  0
    3.1640   11.2160    0.1340 C   0  0  0  0  0  0  0  0  0  0  0  0
    1.6770   13.0810    0.9140 C   0  0  0  0  0  0  0  0  0  0  0  0
    1.0380   14.4450    0.5930 C   0  0  0  0  0  0  0  0  0  0  0  0
    1.8030   15.1590   -0.5260 C   0  0  2  0  0  0  0  0  0  0  0  0
    3.2560   15.4380   -0.0090 C   0  0  0  0  0  0  0  0  0  0  0  0
   -0.1368   18.6034    1.0741 H   0  0  0  0  0  0  0  0  0  0  0  0
    0.1618   19.4663   -0.4728 H   0  0  0  0  0  0  0  0  0  0  0  0
   -0.7222   17.9026   -0.4728 H   0  0  0  0  0  0  0  0  0  0  0  0
    1.7414   17.4238    0.8455 H   0  0  0  0  0  0  0  0  0  0  0  0
    3.3632   17.9838   -1.0411 H   0  0  0  0  0  0  0  0  0  0  0  0
    2.0740   19.1420   -1.6223 H   0  0  0  0  0  0  0  0  0  0  0  0
    3.9125   20.1758   -0.2316 H   0  0  0  0  0  0  0  0  0  0  0  0
    2.2139   20.4363    0.3481 H   0  0  0  0  0  0  0  0  0  0  0  0
    2.8050   18.2157    1.3296 H   0  0  0  0  0  0  0  0  0  0  0  0
    6.3943   20.6659    2.3592 H   0  0  0  0  0  0  0  0  0  0  0  0
    6.4194   19.5479    0.9534 H   0  0  0  0  0  0  0  0  0  0  0  0
    5.3172   20.9662    0.9534 H   0  0  0  0  0  0  0  0  0  0  0  0
    4.9669   18.8107    4.2652 H   0  0  0  0  0  0  0  0  0  0  0  0
    4.6064   17.4458    3.1544 H   0  0  0  0  0  0  0  0  0  0  0  0
    6.2381   18.1970    3.1544 H   0  0  0  0  0  0  0  0  0  0  0  0
    0.1083   16.4440   -1.0245 H   0  0  0  0  0  0  0  0  0  0  0  0
    1.0920   16.9983   -3.1598 H   0  0  0  0  0  0  0  0  0  0  0  0
    2.6616   17.3858   -2.4233 H   0  0  0  0  0  0  0  0  0  0  0  0
    2.0507   14.9981   -3.8707 H   0  0  0  0  0  0  0  0  0  0  0  0
    3.4656   15.1921   -2.8397 H   0  0  0  0  0  0  0  0  0  0  0  0
   -0.4116   13.9186   -1.5110 H   0  0  0  0  0  0  0  0  0  0  0  0
   -0.0362   14.8928   -2.9727 H   0  0  0  0  0  0  0  0  0  0  0  0
    0.2627   13.1216   -2.9727 H   0  0  0  0  0  0  0  0  0  0  0  0
    3.5039   13.2764   -1.3566 H   0  0  0  0  0  0  0  0  0  0  0  0
    2.6388   12.6535   -3.7034 H   0  0  0  0  0  0  0  0  0  0  0  0
    3.5163   11.4218   -2.6537 H   0  0  0  0  0  0  0  0  0  0  0  0
    1.4052   10.5439   -3.9628 H   0  0  0  0  0  0  0  0  0  0  0  0
   -0.1206   11.9817   -0.5124 H   0  0  0  0  0  0  0  0  0  0  0  0
    1.3540    9.4071    0.3183 H   0  0  0  0  0  0  0  0  0  0  0  0
    0.4504   10.5497    1.4088 H   0  0  0  0  0  0  0  0  0  0  0  0
   -0.8505    8.5060    0.9087 H   0  0  0  0  0  0  0  0  0  0  0  0
   -1.6367   10.0126    0.2938 H   0  0  0  0  0  0  0  0  0  0  0  0
   -1.8276    8.3049   -1.3817 H   0  0  0  0  0  0  0  0  0  0  0  0
   -0.2410    6.9090   -1.6180 H   0  0  0  0  0  0  0  0  0  0  0  0
   -2.2259   10.9547   -1.4026 H   0  0  0  0  0  0  0  0  0  0  0  0
   -1.6393   11.6389   -2.9565 H   0  0  0  0  0  0  0  0  0  0  0  0
   -2.6921   10.1834   -2.9565 H   0  0  0  0  0  0  0  0  0  0  0  0
   -0.4360    7.9836   -3.5327 H   0  0  0  0  0  0  0  0  0  0  0  0
   -1.4771    9.2426   -4.2796 H   0  0  0  0  0  0  0  0  0  0  0  0
    0.3085    9.4378   -4.2796 H   0  0  0  0  0  0  0  0  0  0  0  0
    3.2101   11.1801    1.2324 H   0  0  0  0  0  0  0  0  0  0  0  0
    3.0063   10.2010   -0.2597 H   0  0  0  0  0  0  0  0  0  0  0  0
    4.1087   11.6193   -0.2597 H   0  0  0  0  0  0  0  0  0  0  0  0
    0.9936   12.5440    1.5883 H   0  0  0  0  0  0  0  0  0  0  0  0
    2.6600   13.3188    1.3467 H   0  0  0  0  0  0  0  0  0  0  0  0
   -0.0031   14.2886    0.2742 H   0  0  0  0  0  0  0  0  0  0  0  0
    1.0739   15.0707    1.4970 H   0  0  0  0  0  0  0  0  0  0  0  0
    3.2600   15.4388    1.0910 H   0  0  0  0  0  0  0  0  0  0  0  0
    3.9333   14.6535   -0.3776 H   0  0  0  0  0  0  0  0  0  0  0  0
    3.5946   16.4176   -0.3776 H   0  0  0  0  0  0  0  0  0  0  0  0
  1  2  1  0
  2  3  1  0
  3  4  1  0
  4  5  1  0
  5  6  1  0
  6  7  1  0
  7  8  1  0
  7  9  1  0
  2 10  1  0
 10 11  1  0
 11 12  1  0
 12 13  1  0
 13 14  1  6
 13 15  1  0
 15 16  1  0
 16 17  1  0
 17 18  2  0
 18 19  1  0
 19 20  1  0
 20 21  1  0
 21 22  1  0
 22 23  1  0
 22 24  1  0
 24 25  1  0
 24 26  1  0
 19 27  1  0
 27 28  1  1
 27 29  1  0
 29 30  1  0
 30 31  1  0
 31 32  1  1
  7  5  1  0
 31 10  1  0
 31 13  1  0
 27 15  1  0
 24 18  1  0
  1 33  1  0
  1 34  1  0
  1 35  1  0
  2 36  1  1
  3 37  1  0
  3 38  1  0
  4 39  1  0
  4 40  1  0
  5 41  1  1
  8 42  1  0
  8 43  1  0
  8 44  1  0
  9 45  1  0
  9 46  1  0
  9 47  1  0
 10 48  1  6
 11 49  1  0
 11 50  1  0
 12 51  1  0
 12 52  1  0
 14 53  1  0
 14 54  1  0
 14 55  1  0
 15 56  1  1
 16 57  1  0
 16 58  1  0
 17 59  1  0
 19 60  1  1
 20 61  1  0
 20 62  1  0
 21 63  1  0
 21 64  1  0
 22 65  1  6
 23 66  1  0
 25 67  1  0
 25 68  1  0
 25 69  1  0
 26 70  1  0
 26 71  1  0
 26 72  1  0
 28 73  1  0
 28 74  1  0
 28 75  1  0
 29 76  1  0
 29 77  1  0
 30 78  1  0
 30 79  1  0
 32 80  1  0
 32 81  1  0
 32 82  1  0
M  END
>  <meeko>  (16) 
{"is_sidechain": [false], "intermolecular_energy": 2.731, "internal_energy": -0.839}

$$$$
EPH_relaxed_0001_pdb2pqr_Repair_297_r2_0001_out
     RDKit          3D

 82 86  0  0  0  0  0  0  0  0999 V2000
    1.3170   10.3620   -4.5190 C   0  0  0  0  0  0  0  0  0  0  0  0
    1.9010   11.7190   -4.9220 C   0  0  2  0  0  0  0  0  0  0  0  0
    3.4200   11.7970   -4.6660 C   0  0  0  0  0  0  0  0  0  0  0  0
    4.0160   10.5050   -4.1000 C   0  0  0  0  0  0  0  0  0  0  0  0
    5.3470   10.7450   -3.4540 C   0  0  2  0  0  0  0  0  0  0  0  0
    5.9550   12.0010   -3.7840 O   0  0  0  0  0  0  0  0  0  0  0  0
    6.6500   10.8240   -4.2270 C   0  0  0  0  0  0  0  0  0  0  0  0
    6.6860   10.6630   -5.7150 C   0  0  0  0  0  0  0  0  0  0  0  0
    7.9320   10.5700   -3.4970 C   0  0  0  0  0  0  0  0  0  0  0  0
    1.1880   12.8360   -4.1690 C   0  0  1  0  0  0  0  0  0  0  0  0
   -0.2770   12.4730   -3.8080 C   0  0  0  0  0  0  0  0  0  0  0  0
   -0.5750   13.1290   -2.4350 C   0  0  0  0  0  0  0  0  0  0  0  0
    0.5980   14.1120   -2.2100 C   0  0  1  0  0  0  0  0  0  0  0  0
    0.2230   15.3800   -3.0380 C   0  0  0  0  0  0  0  0  0  0  0  0
    0.9240   14.4690   -0.7230 C   0  0  2  0  0  0  0  0  0  0  0  0
   -0.2040   15.1870    0.0380 C   0  0  0  0  0  0  0  0  0  0  0  0
   -0.1730   16.6780   -0.0330 C   0  0  0  0  0  0  0  0  0  0  0  0
    0.8750   17.4200   -0.4370 C   0  0  0  0  0  0  0  0  0  0  0  0
    2.2170   16.7630   -0.7860 C   0  0  1  0  0  0  0  0  0  0  0  0
    3.3700   17.5540   -0.1140 C   0  0  0  0  0  0  0  0  0  0  0  0
    3.3400   19.0400   -0.4580 C   0  0  0  0  0  0  0  0  0  0  0  0
    2.0130   19.6690   -0.0440 C   0  0  2  0  0  0  0  0  0  0  0  0
    1.9220   19.6550    1.3840 O   0  0  0  0  0  0  0  0  0  0  0  0
    0.7770   18.9500   -0.6530 C   0  0  0  0  0  0  0  0  0  0  0  0
    0.7150   19.2230   -2.1770 C   0  0  0  0  0  0  0  0  0  0  0  0
   -0.4980   19.5940   -0.0450 C   0  0  0  0  0  0  0  0  0  0  0  0
    2.3130   15.1990   -0.5210 C   0  0  1  0  0  0  0  0  0  0  0  0
    2.7460   14.9350    0.9530 C   0  0  0  0  0  0  0  0  0  0  0  0
    3.4460   14.5930   -1.4320 C   0  0  0  0  0  0  0  0  0  0  0  0
    3.0350   14.1480   -2.8480 C   0  0  0  0  0  0  0  0  0  0  0  0
    1.7830   13.2670   -2.8050 C   0  0  2  0  0  0  0  0  0  0  0  0
    2.1370   11.9730   -1.9970 C   0  0  0  0  0  0  0  0  0  0  0  0
    1.2851   10.2878   -3.4220 H   0  0  0  0  0  0  0  0  0  0  0  0
    0.2982   10.2668   -4.9228 H   0  0  0  0  0  0  0  0  0  0  0  0
    1.9482    9.5567   -4.9228 H   0  0  0  0  0  0  0  0  0  0  0  0
    1.7420   11.8394   -6.0038 H   0  0  0  0  0  0  0  0  0  0  0  0
    3.9216   12.0226   -5.6186 H   0  0  0  0  0  0  0  0  0  0  0  0
    3.5790   12.5818   -3.9118 H   0  0  0  0  0  0  0  0  0  0  0  0
    3.3251   10.0922   -3.3502 H   0  0  0  0  0  0  0  0  0  0  0  0
    4.1609    9.8007   -4.9325 H   0  0  0  0  0  0  0  0  0  0  0  0
    5.0484   10.1643   -2.5687 H   0  0  0  0  0  0  0  0  0  0  0  0
    6.9197    9.6176   -5.9651 H   0  0  0  0  0  0  0  0  0  0  0  0
    5.7059   10.9305   -6.1366 H   0  0  0  0  0  0  0  0  0  0  0  0
    7.4589   11.3225   -6.1366 H   0  0  0  0  0  0  0  0  0  0  0  0
    7.7499   10.6061   -2.4128 H   0  0  0  0  0  0  0  0  0  0  0  0
    8.3195    9.5776   -3.7709 H   0  0  0  0  0  0  0  0  0  0  0  0
    8.6686   11.3397   -3.7709 H   0  0  0  0  0  0  0  0  0  0  0  0
    1.2970   13.6500   -4.9008 H   0  0  0  0  0  0  0  0  0  0  0  0
   -0.9639   12.8654   -4.5724 H   0  0  0  0  0  0  0  0  0  0  0  0
   -0.4141   11.3825   -3.7628 H   0  0  0  0  0  0  0  0  0  0  0  0
   -1.5336   13.6678   -2.4619 H   0  0  0  0  0  0  0  0  0  0  0  0
   -0.6585   12.3870   -1.6273 H   0  0  0  0  0  0  0  0  0  0  0  0
   -0.0212   16.2058   -2.3536 H   0  0  0  0  0  0  0  0  0  0  0  0
    1.0742   15.6688   -3.6721 H   0  0  0  0  0  0  0  0  0  0  0  0
   -0.6484   15.1594   -3.6721 H   0  0  0  0  0  0  0  0  0  0  0  0
    1.0143   13.4767   -0.2569 H   0  0  0  0  0  0  0  0  0  0  0  0
   -1.1642   14.8469   -0.3772 H   0  0  0  0  0  0  0  0  0  0  0  0
   -0.0668   14.9301    1.0987 H   0  0  0  0  0  0  0  0  0  0  0  0
   -1.0834   17.2156    0.2705 H   0  0  0  0  0  0  0  0  0  0  0  0
    2.3109   16.8240   -1.8803 H   0  0  0  0  0  0  0  0  0  0  0  0
    3.2843   17.4431    0.9770 H   0  0  0  0  0  0  0  0  0  0  0  0
    4.3189   17.1439   -0.4900 H   0  0  0  0  0  0  0  0  0  0  0  0
    4.1598   19.5485    0.0706 H   0  0  0  0  0  0  0  0  0  0  0  0
    3.4567   19.1508   -1.5462 H   0  0  0  0  0  0  0  0  0  0  0  0
    2.0004   20.6977   -0.4333 H   0  0  0  0  0  0  0  0  0  0  0  0
    1.8660   20.5780    1.6850 H   0  0  0  0  0  0  0  0  0  0  0  0
    0.4744   20.2823   -2.3503 H   0  0  0  0  0  0  0  0  0  0  0  0
    1.6891   18.9892   -2.6313 H   0  0  0  0  0  0  0  0  0  0  0  0
   -0.0626   18.5913   -2.6313 H   0  0  0  0  0  0  0  0  0  0  0  0
   -0.4366   19.5630    1.0528 H   0  0  0  0  0  0  0  0  0  0  0  0
   -0.5755   20.6394   -0.3785 H   0  0  0  0  0  0  0  0  0  0  0  0
   -1.3853   19.0360   -0.3785 H   0  0  0  0  0  0  0  0  0  0  0  0
    2.0105   15.3834    1.6371 H   0  0  0  0  0  0  0  0  0  0  0  0
    2.7990   13.8508    1.1310 H   0  0  0  0  0  0  0  0  0  0  0  0
    3.7341   15.3845    1.1310 H   0  0  0  0  0  0  0  0  0  0  0  0
    4.2315   15.3558   -1.5378 H   0  0  0  0  0  0  0  0  0  0  0  0
    3.7636   13.6718   -0.9217 H   0  0  0  0  0  0  0  0  0  0  0  0
    2.8271   15.0389   -3.4588 H   0  0  0  0  0  0  0  0  0  0  0  0
    3.8590   13.5647   -3.2849 H   0  0  0  0  0  0  0  0  0  0  0  0
    2.0787   12.1861   -0.9194 H   0  0  0  0  0  0  0  0  0  0  0  0
    1.4242   11.1750   -2.2520 H   0  0  0  0  0  0  0  0  0  0  0  0
    3.1568   11.6490   -2.2520 H   0  0  0  0  0  0  0  0  0  0  0  0
  1  2  1  0
  2  3  1  0
  3  4  1  0
  4  5  1  0
  5  6  1  0
  6  7  1  0
  7  8  1  0
  7  9  1  0
  2 10  1  0
 10 11  1  0
 11 12  1  0
 12 13  1  0
 13 14  1  6
 13 15  1  0
 15 16  1  0
 16 17  1  0
 17 18  2  0
 18 19  1  0
 19 20  1  0
 20 21  1  0
 21 22  1  0
 22 23  1  0
 22 24  1  0
 24 25  1  0
 24 26  1  0
 19 27  1  0
 27 28  1  1
 27 29  1  0
 29 30  1  0
 30 31  1  0
 31 32  1  1
  7  5  1  0
 31 10  1  0
 31 13  1  0
 27 15  1  0
 24 18  1  0
  1 33  1  0
  1 34  1  0
  1 35  1  0
  2 36  1  6
  3 37  1  0
  3 38  1  0
  4 39  1  0
  4 40  1  0
  5 41  1  1
  8 42  1  0
  8 43  1  0
  8 44  1  0
  9 45  1  0
  9 46  1  0
  9 47  1  0
 10 48  1  6
 11 49  1  0
 11 50  1  0
 12 51  1  0
 12 52  1  0
 14 53  1  0
 14 54  1  0
 14 55  1  0
 15 56  1  1
 16 57  1  0
 16 58  1  0
 17 59  1  0
 19 60  1  6
 20 61  1  0
 20 62  1  0
 21 63  1  0
 21 64  1  0
 22 65  1  6
 23 66  1  0
 25 67  1  0
 25 68  1  0
 25 69  1  0
 26 70  1  0
 26 71  1  0
 26 72  1  0
 28 73  1  0
 28 74  1  0
 28 75  1  0
 29 76  1  0
 29 77  1  0
 30 78  1  0
 30 79  1  0
 32 80  1  0
 32 81  1  0
 32 82  1  0
M  END
>  <meeko>  (17) 
{"is_sidechain": [false], "intermolecular_energy": 2.731, "internal_energy": -0.839}

$$$$
EPH_relaxed_0001_pdb2pqr_Repair_297_r2_0001_out
     RDKit          3D

 82 86  0  0  0  0  0  0  0  0999 V2000
   -2.9330    9.6020    0.3260 C   0  0  0  0  0  0  0  0  0  0  0  0
   -2.8620    9.6040   -1.2040 C   0  0  2  0  0  0  0  0  0  0  0  0
   -2.5560    8.2040   -1.7720 C   0  0  0  0  0  0  0  0  0  0  0  0
   -3.7500    7.5490   -2.4710 C   0  0  0  0  0  0  0  0  0  0  0  0
   -4.9940    7.6320   -1.6380 C   0  0  2  0  0  0  0  0  0  0  0  0
   -5.4410    6.3790   -1.1050 O   0  0  0  0  0  0  0  0  0  0  0  0
   -6.3180    7.0150   -2.0480 C   0  0  0  0  0  0  0  0  0  0  0  0
   -6.4660    6.2720   -3.3390 C   0  0  0  0  0  0  0  0  0  0  0  0
   -7.5760    7.5500   -1.4370 C   0  0  0  0  0  0  0  0  0  0  0  0
   -1.8070   10.5990   -1.6730 C   0  0  1  0  0  0  0  0  0  0  0  0
   -2.1170   12.0530   -1.2280 C   0  0  0  0  0  0  0  0  0  0  0  0
   -0.7540   12.7330   -0.9390 C   0  0  0  0  0  0  0  0  0  0  0  0
    0.2970   11.7690   -1.5390 C   0  0  1  0  0  0  0  0  0  0  0  0
    0.3160   12.0960   -3.0650 C   0  0  0  0  0  0  0  0  0  0  0  0
    1.7300   11.8360   -0.9170 C   0  0  2  0  0  0  0  0  0  0  0  0
    2.4500   13.1860   -1.0810 C   0  0  0  0  0  0  0  0  0  0  0  0
    3.2830   13.3190   -2.3120 C   0  0  0  0  0  0  0  0  0  0  0  0
    3.6780   12.3040   -3.1030 C   0  0  0  0  0  0  0  0  0  0  0  0
    3.3640   10.8490   -2.7320 C   0  0  1  0  0  0  0  0  0  0  0  0
    4.6390    9.9830   -2.9100 C   0  0  0  0  0  0  0  0  0  0  0  0
    5.2440   10.1120   -4.3050 C   0  0  0  0  0  0  0  0  0  0  0  0
    5.5960   11.5650   -4.6140 C   0  0  2  0  0  0  0  0  0  0  0  0
    6.6580   11.9770   -3.7490 O   0  0  0  0  0  0  0  0  0  0  0  0
    4.3900   12.5340   -4.4590 C   0  0  0  0  0  0  0  0  0  0  0  0
    3.3680   12.2800   -5.5940 C   0  0  0  0  0  0  0  0  0  0  0  0
    4.9120   13.9820   -4.6610 C   0  0  0  0  0  0  0  0  0  0  0  0
    2.6690   10.6280   -1.3200 C   0  0  1  0  0  0  0  0  0  0  0  0
    3.7520   10.5140   -0.2050 C   0  0  0  0  0  0  0  0  0  0  0  0
    1.9010    9.2530   -1.3350 C   0  0  0  0  0  0  0  0  0  0  0  0
    0.4490    9.2740   -1.8490 C   0  0  0  0  0  0  0  0  0  0  0  0
   -0.3560   10.3870   -1.1730 C   0  0  2  0  0  0  0  0  0  0  0  0
   -0.4110   10.0740    0.3620 C   0  0  0  0  0  0  0  0  0  0  0  0
   -1.9144    9.6307    0.7404 H   0  0  0  0  0  0  0  0  0  0  0  0
   -3.4931   10.4847    0.6682 H   0  0  0  0  0  0  0  0  0  0  0  0
   -3.4425    8.6891    0.6682 H   0  0  0  0  0  0  0  0  0  0  0  0
   -3.8504    9.9045   -1.5818 H   0  0  0  0  0  0  0  0  0  0  0  0
   -1.7356    8.2959   -2.4990 H   0  0  0  0  0  0  0  0  0  0  0  0
   -2.2910    7.5619   -0.9190 H   0  0  0  0  0  0  0  0  0  0  0  0
   -3.9273    8.0607   -3.4285 H   0  0  0  0  0  0  0  0  0  0  0  0
   -3.5138    6.4865   -2.6298 H   0  0  0  0  0  0  0  0  0  0  0  0
   -4.7257    8.6421   -1.2949 H   0  0  0  0  0  0  0  0  0  0  0  0
   -6.6770    5.2128   -3.1303 H   0  0  0  0  0  0  0  0  0  0  0  0
   -7.2957    6.7041   -3.9177 H   0  0  0  0  0  0  0  0  0  0  0  0
   -5.5340    6.3532   -3.9177 H   0  0  0  0  0  0  0  0  0  0  0  0
   -7.4946    7.5154   -0.3406 H   0  0  0  0  0  0  0  0  0  0  0  0
   -7.7273    8.5903   -1.7608 H   0  0  0  0  0  0  0  0  0  0  0  0
   -8.4303    6.9373   -1.7608 H   0  0  0  0  0  0  0  0  0  0  0  0
   -1.8597   10.4248   -2.7578 H   0  0  0  0  0  0  0  0  0  0  0  0
   -2.6457   12.5898   -2.0295 H   0  0  0  0  0  0  0  0  0  0  0  0
   -2.7607   12.0641   -0.3361 H   0  0  0  0  0  0  0  0  0  0  0  0
   -0.7003   13.7180   -1.4257 H   0  0  0  0  0  0  0  0  0  0  0  0
   -0.5944   12.9086    0.1351 H   0  0  0  0  0  0  0  0  0  0  0  0
    0.3793   13.1851   -3.2058 H   0  0  0  0  0  0  0  0  0  0  0  0
    1.1877   11.6146   -3.5323 H   0  0  0  0  0  0  0  0  0  0  0  0
   -0.6056   11.7188   -3.5323 H   0  0  0  0  0  0  0  0  0  0  0  0
    1.5246   11.7354    0.1590 H   0  0  0  0  0  0  0  0  0  0  0  0
    1.6869   13.9781   -1.0998 H   0  0  0  0  0  0  0  0  0  0  0  0
    3.1460   13.2646   -0.2328 H   0  0  0  0  0  0  0  0  0  0  0  0
    3.6013   14.3326   -2.5972 H   0  0  0  0  0  0  0  0  0  0  0  0
    2.5856   10.5170   -3.4348 H   0  0  0  0  0  0  0  0  0  0  0  0
    5.3879   10.3017   -2.1700 H   0  0  0  0  0  0  0  0  0  0  0  0
    4.3508    8.9311   -2.7671 H   0  0  0  0  0  0  0  0  0  0  0  0
    6.1570    9.5009   -4.3595 H   0  0  0  0  0  0  0  0  0  0  0  0
    4.5048    9.7651   -5.0421 H   0  0  0  0  0  0  0  0  0  0  0  0
    5.9029   11.6121   -5.6693 H   0  0  0  0  0  0  0  0  0  0  0  0
    6.5840   12.9380   -3.6280 H   0  0  0  0  0  0  0  0  0  0  0  0
    2.3882   12.0365   -5.1574 H   0  0  0  0  0  0  0  0  0  0  0  0
    3.2782   13.1832   -6.2155 H   0  0  0  0  0  0  0  0  0  0  0  0
    3.7115   11.4399   -6.2155 H   0  0  0  0  0  0  0  0  0  0  0  0
    5.0811   14.4510   -3.6804 H   0  0  0  0  0  0  0  0  0  0  0  0
    5.8573   13.9559   -5.2228 H   0  0  0  0  0  0  0  0  0  0  0  0
    4.1675   14.5651   -5.2228 H   0  0  0  0  0  0  0  0  0  0  0  0
    3.2689   10.5649    0.7819 H   0  0  0  0  0  0  0  0  0  0  0  0
    4.2817    9.5551   -0.3050 H   0  0  0  0  0  0  0  0  0  0  0  0
    4.4697   11.3416   -0.3050 H   0  0  0  0  0  0  0  0  0  0  0  0
    2.4700    8.5610   -1.9733 H   0  0  0  0  0  0  0  0  0  0  0  0
    1.8283    8.9524   -0.2794 H   0  0  0  0  0  0  0  0  0  0  0  0
    0.4545    9.4433   -2.9359 H   0  0  0  0  0  0  0  0  0  0  0  0
   -0.0208    8.3080   -1.6119 H   0  0  0  0  0  0  0  0  0  0  0  0
   -0.2481   11.0010    0.9313 H   0  0  0  0  0  0  0  0  0  0  0  0
   -1.3963    9.6561    0.6159 H   0  0  0  0  0  0  0  0  0  0  0  0
    0.3728    9.3452    0.6159 H   0  0  0  0  0  0  0  0  0  0  0  0
  1  2  1  0
  2  3  1  0
  3  4  1  0
  4  5  1  0
  5  6  1  0
  6  7  1  0
  7  8  1  0
  7  9  1  0
  2 10  1  0
 10 11  1  0
 11 12  1  0
 12 13  1  0
 13 14  1  6
 13 15  1  0
 15 16  1  0
 16 17  1  0
 17 18  2  0
 18 19  1  0
 19 20  1  0
 20 21  1  0
 21 22  1  0
 22 23  1  0
 22 24  1  0
 24 25  1  0
 24 26  1  0
 19 27  1  0
 27 28  1  1
 27 29  1  0
 29 30  1  0
 30 31  1  0
 31 32  1  1
  7  5  1  0
 31 10  1  0
 31 13  1  0
 27 15  1  0
 24 18  1  0
  1 33  1  0
  1 34  1  0
  1 35  1  0
  2 36  1  6
  3 37  1  0
  3 38  1  0
  4 39  1  0
  4 40  1  0
  5 41  1  1
  8 42  1  0
  8 43  1  0
  8 44  1  0
  9 45  1  0
  9 46  1  0
  9 47  1  0
 10 48  1  6
 11 49  1  0
 11 50  1  0
 12 51  1  0
 12 52  1  0
 14 53  1  0
 14 54  1  0
 14 55  1  0
 15 56  1  1
 16 57  1  0
 16 58  1  0
 17 59  1  0
 19 60  1  6
 20 61  1  0
 20 62  1  0
 21 63  1  0
 21 64  1  0
 22 65  1  6
 23 66  1  0
 25 67  1  0
 25 68  1  0
 25 69  1  0
 26 70  1  0
 26 71  1  0
 26 72  1  0
 28 73  1  0
 28 74  1  0
 28 75  1  0
 29 76  1  0
 29 77  1  0
 30 78  1  0
 30 79  1  0
 32 80  1  0
 32 81  1  0
 32 82  1  0
M  END
>  <meeko>  (18) 
{"is_sidechain": [false], "intermolecular_energy": 2.731, "internal_energy": -0.839}

$$$$
EPH_relaxed_0001_pdb2pqr_Repair_297_r2_0001_out
     RDKit          3D

 82 86  0  0  0  0  0  0  0  0999 V2000
   -0.4150   10.5330   -2.2780 C   0  0  0  0  0  0  0  0  0  0  0  0
    0.5830   10.2770   -1.1450 C   0  0  2  0  0  0  0  0  0  0  0  0
   -0.1210   10.0560    0.2090 C   0  0  0  0  0  0  0  0  0  0  0  0
    0.6570   10.6100    1.4050 C   0  0  0  0  0  0  0  0  0  0  0  0
   -0.1010   11.6950    2.1070 C   0  0  2  0  0  0  0  0  0  0  0  0
    0.5190   12.9870    2.0590 O   0  0  0  0  0  0  0  0  0  0  0  0
    0.3980   12.3890    3.3600 C   0  0  0  0  0  0  0  0  0  0  0  0
    1.7060   12.0230    3.9870 C   0  0  0  0  0  0  0  0  0  0  0  0
   -0.5990   13.0710    4.2450 C   0  0  0  0  0  0  0  0  0  0  0  0
    1.5600   11.4420   -1.0400 C   0  0  1  0  0  0  0  0  0  0  0  0
    2.9370   11.1260   -1.6800 C   0  0  0  0  0  0  0  0  0  0  0  0
    3.4540   12.4470   -2.3060 C   0  0  0  0  0  0  0  0  0  0  0  0
    2.5280   13.5420   -1.7250 C   0  0  1  0  0  0  0  0  0  0  0  0
    3.1040   13.8420   -0.3050 C   0  0  0  0  0  0  0  0  0  0  0  0
    2.3810   14.8450   -2.5750 C   0  0  2  0  0  0  0  0  0  0  0  0
    3.6810   15.6440   -2.7760 C   0  0  0  0  0  0  0  0  0  0  0  0
    3.9550   16.6850   -1.7420 C   0  0  0  0  0  0  0  0  0  0  0  0
    3.0600   17.1650   -0.8580 C   0  0  0  0  0  0  0  0  0  0  0  0
    1.5910   16.7250   -0.9070 C   0  0  1  0  0  0  0  0  0  0  0  0
    0.6740   17.9700   -0.7890 C   0  0  0  0  0  0  0  0  0  0  0  0
    0.9890   18.8150    0.4410 C   0  0  0  0  0  0  0  0  0  0  0  0
    2.4430   19.2820    0.4250 C   0  0  2  0  0  0  0  0  0  0  0  0
    2.6210   20.1940   -0.6630 O   0  0  0  0  0  0  0  0  0  0  0  0
    3.4600   18.1130    0.2990 C   0  0  0  0  0  0  0  0  0  0  0  0
    3.4780   17.2960    1.6140 C   0  0  0  0  0  0  0  0  0  0  0  0
    4.8780   18.7290    0.1510 C   0  0  0  0  0  0  0  0  0  0  0  0
    1.1900   15.7840   -2.1230 C   0  0  1  0  0  0  0  0  0  0  0  0
    0.8090   16.6490   -3.3630 C   0  0  0  0  0  0  0  0  0  0  0  0
   -0.1010   14.9690   -1.7370 C   0  0  0  0  0  0  0  0  0  0  0  0
    0.1150   13.6310   -1.0040 C   0  0  0  0  0  0  0  0  0  0  0  0
    1.1570   12.7720   -1.7260 C   0  0  2  0  0  0  0  0  0  0  0  0
    0.5960   12.4350   -3.1500 C   0  0  0  0  0  0  0  0  0  0  0  0
   -1.3972   10.7849   -1.8515 H   0  0  0  0  0  0  0  0  0  0  0  0
   -0.0592   11.3690   -2.8981 H   0  0  0  0  0  0  0  0  0  0  0  0
   -0.5055    9.6290   -2.8981 H   0  0  0  0  0  0  0  0  0  0  0  0
    1.1300    9.3540   -1.3875 H   0  0  0  0  0  0  0  0  0  0  0  0
   -1.1031   10.5503    0.1745 H   0  0  0  0  0  0  0  0  0  0  0  0
   -0.2031    8.9688    0.3548 H   0  0  0  0  0  0  0  0  0  0  0  0
    0.8480    9.7921    2.1153 H   0  0  0  0  0  0  0  0  0  0  0  0
    1.5993   11.0374    1.0318 H   0  0  0  0  0  0  0  0  0  0  0  0
   -1.0599   11.2150    1.8618 H   0  0  0  0  0  0  0  0  0  0  0  0
    1.6080   12.0504    5.0823 H   0  0  0  0  0  0  0  0  0  0  0  0
    1.9939   11.0098    3.6699 H   0  0  0  0  0  0  0  0  0  0  0  0
    2.4779   12.7397    3.6699 H   0  0  0  0  0  0  0  0  0  0  0  0
   -0.3372   12.8919    5.2983 H   0  0  0  0  0  0  0  0  0  0  0  0
   -0.5890   14.1523    4.0434 H   0  0  0  0  0  0  0  0  0  0  0  0
   -1.6032   12.6697    4.0434 H   0  0  0  0  0  0  0  0  0  0  0  0
    1.5757   11.5720    0.0522 H   0  0  0  0  0  0  0  0  0  0  0  0
    3.6393   10.7709   -0.9114 H   0  0  0  0  0  0  0  0  0  0  0  0
    2.8466   10.3373   -2.4415 H   0  0  0  0  0  0  0  0  0  0  0  0
    4.4999   12.6299   -2.0184 H   0  0  0  0  0  0  0  0  0  0  0  0
    3.4341   12.4237   -3.4056 H   0  0  0  0  0  0  0  0  0  0  0  0
    2.4028   13.4768    0.4598 H   0  0  0  0  0  0  0  0  0  0  0  0
    4.0724   13.3337   -0.1872 H   0  0  0  0  0  0  0  0  0  0  0  0
    3.2426   14.9269   -0.1872 H   0  0  0  0  0  0  0  0  0  0  0  0
    2.1168   14.4496   -3.5669 H   0  0  0  0  0  0  0  0  0  0  0  0
    4.5207   14.9334   -2.7739 H   0  0  0  0  0  0  0  0  0  0  0  0
    3.5631   16.1833   -3.7275 H   0  0  0  0  0  0  0  0  0  0  0  0
    4.9749   17.0949   -1.6985 H   0  0  0  0  0  0  0  0  0  0  0  0
    1.4406   16.0674   -0.0381 H   0  0  0  0  0  0  0  0  0  0  0  0
    0.8063   18.5915   -1.6869 H   0  0  0  0  0  0  0  0  0  0  0  0
   -0.3620   17.6132   -0.6921 H   0  0  0  0  0  0  0  0  0  0  0  0
    0.3285   19.6946    0.4522 H   0  0  0  0  0  0  0  0  0  0  0  0
    0.8274   18.2011    1.3393 H   0  0  0  0  0  0  0  0  0  0  0  0
    2.6444   19.7701    1.3900 H   0  0  0  0  0  0  0  0  0  0  0  0
    3.5770   20.3150   -0.7920 H   0  0  0  0  0  0  0  0  0  0  0  0
    3.4629   17.9832    2.4728 H   0  0  0  0  0  0  0  0  0  0  0  0
    2.5940   16.6424    1.6517 H   0  0  0  0  0  0  0  0  0  0  0  0
    4.3899   16.6820    1.6517 H   0  0  0  0  0  0  0  0  0  0  0  0
    5.3034   18.9138    1.1484 H   0  0  0  0  0  0  0  0  0  0  0  0
    5.5253   18.0310   -0.4001 H   0  0  0  0  0  0  0  0  0  0  0  0
    4.8096   19.6785   -0.4001 H   0  0  0  0  0  0  0  0  0  0  0  0
    0.3869   17.6072   -3.0259 H   0  0  0  0  0  0  0  0  0  0  0  0
    1.7076   16.8370   -3.9690 H   0  0  0  0  0  0  0  0  0  0  0  0
    0.0637   16.1130   -3.9690 H   0  0  0  0  0  0  0  0  0  0  0  0
   -0.7164   15.6087   -1.0874 H   0  0  0  0  0  0  0  0  0  0  0  0
   -0.5685   14.6997   -2.6956 H   0  0  0  0  0  0  0  0  0  0  0  0
    0.4627   13.8337    0.0197 H   0  0  0  0  0  0  0  0  0  0  0  0
   -0.8388   13.0834   -0.9856 H   0  0  0  0  0  0  0  0  0  0  0  0
   -0.3430   11.8709   -3.0501 H   0  0  0  0  0  0  0  0  0  0  0  0
    0.4061   13.3687   -3.6997 H   0  0  0  0  0  0  0  0  0  0  0  0
    1.3311   11.8289   -3.6997 H   0  0  0  0  0  0  0  0  0  0  0  0
  1  2  1  0
  2  3  1  0
  3  4  1  0
  4  5  1  0
  5  6  1  0
  6  7  1  0
  7  8  1  0
  7  9  1  0
  2 10  1  0
 10 11  1  0
 11 12  1  0
 12 13  1  0
 13 14  1  1
 13 15  1  0
 15 16  1  0
 16 17  1  0
 17 18  2  0
 18 19  1  0
 19 20  1  0
 20 21  1  0
 21 22  1  0
 22 23  1  0
 22 24  1  0
 24 25  1  0
 24 26  1  0
 19 27  1  0
 27 28  1  6
 27 29  1  0
 29 30  1  0
 30 31  1  0
 31 32  1  6
  7  5  1  0
 31 10  1  0
 31 13  1  0
 27 15  1  0
 24 18  1  0
  1 33  1  0
  1 34  1  0
  1 35  1  0
  2 36  1  6
  3 37  1  0
  3 38  1  0
  4 39  1  0
  4 40  1  0
  5 41  1  1
  8 42  1  0
  8 43  1  0
  8 44  1  0
  9 45  1  0
  9 46  1  0
  9 47  1  0
 10 48  1  1
 11 49  1  0
 11 50  1  0
 12 51  1  0
 12 52  1  0
 14 53  1  0
 14 54  1  0
 14 55  1  0
 15 56  1  6
 16 57  1  0
 16 58  1  0
 17 59  1  0
 19 60  1  1
 20 61  1  0
 20 62  1  0
 21 63  1  0
 21 64  1  0
 22 65  1  1
 23 66  1  0
 25 67  1  0
 25 68  1  0
 25 69  1  0
 26 70  1  0
 26 71  1  0
 26 72  1  0
 28 73  1  0
 28 74  1  0
 28 75  1  0
 29 76  1  0
 29 77  1  0
 30 78  1  0
 30 79  1  0
 32 80  1  0
 32 81  1  0
 32 82  1  0
M  END
>  <meeko>  (19) 
{"is_sidechain": [false], "intermolecular_energy": 2.731, "internal_energy": -0.839}

$$$$
EPH_relaxed_0001_pdb2pqr_Repair_297_r2_0001_out
     RDKit          3D

 82 86  0  0  0  0  0  0  0  0999 V2000
    0.0800    7.8330   -2.3480 C   0  0  0  0  0  0  0  0  0  0  0  0
   -1.3120    8.3090   -1.9230 C   0  0  2  0  0  0  0  0  0  0  0  0
   -2.4100    7.8310   -2.8930 C   0  0  0  0  0  0  0  0  0  0  0  0
   -3.6440    7.2560   -2.1910 C   0  0  0  0  0  0  0  0  0  0  0  0
   -4.7640    7.0080   -3.1550 C   0  0  2  0  0  0  0  0  0  0  0  0
   -5.9160    7.8390   -2.9620 O   0  0  0  0  0  0  0  0  0  0  0  0
   -6.1070    6.4320   -2.7460 C   0  0  0  0  0  0  0  0  0  0  0  0
   -6.4000    6.0680   -1.3240 C   0  0  0  0  0  0  0  0  0  0  0  0
   -6.9510    5.7710   -3.7920 C   0  0  0  0  0  0  0  0  0  0  0  0
   -1.3320    9.8300   -1.8220 C   0  0  1  0  0  0  0  0  0  0  0  0
   -2.6310   10.3670   -1.1640 C   0  0  0  0  0  0  0  0  0  0  0  0
   -2.2310   11.6190   -0.3410 C   0  0  0  0  0  0  0  0  0  0  0  0
   -0.7970   11.9540   -0.8130 C   0  0  1  0  0  0  0  0  0  0  0  0
   -0.9870   12.7380   -2.1490 C   0  0  0  0  0  0  0  0  0  0  0  0
    0.0970   12.7440    0.1980 C   0  0  2  0  0  0  0  0  0  0  0  0
   -0.4190   14.1450    0.5670 C   0  0  0  0  0  0  0  0  0  0  0  0
    0.0710   15.2560   -0.3020 C   0  0  0  0  0  0  0  0  0  0  0  0
    1.1090   15.1800   -1.1550 C   0  0  0  0  0  0  0  0  0  0  0  0
    1.9710   13.9130   -1.2380 C   0  0  1  0  0  0  0  0  0  0  0  0
    3.4710   14.3060   -1.2310 C   0  0  0  0  0  0  0  0  0  0  0  0
    3.8160   15.3180   -2.3190 C   0  0  0  0  0  0  0  0  0  0  0  0
    2.9810   16.5870   -2.1690 C   0  0  2  0  0  0  0  0  0  0  0  0
    3.3640   17.2500   -0.9600 O   0  0  0  0  0  0  0  0  0  0  0  0
    1.4510   16.3150   -2.1530 C   0  0  0  0  0  0  0  0  0  0  0  0
    0.9850   15.8780   -3.5640 C   0  0  0  0  0  0  0  0  0  0  0  0
    0.7300   17.6570   -1.8540 C   0  0  0  0  0  0  0  0  0  0  0  0
    1.6330   12.7750   -0.1810 C   0  0  1  0  0  0  0  0  0  0  0  0
    2.4140   13.0300    1.1440 C   0  0  0  0  0  0  0  0  0  0  0  0
    2.1400   11.3920   -0.7360 C   0  0  0  0  0  0  0  0  0  0  0  0
    1.1660   10.6030   -1.6320 C   0  0  0  0  0  0  0  0  0  0  0  0
   -0.2170   10.5020   -0.9820 C   0  0  2  0  0  0  0  0  0  0  0  0
   -0.0610    9.6980    0.3530 C   0  0  0  0  0  0  0  0  0  0  0  0
    0.6857    7.6259   -1.4534 H   0  0  0  0  0  0  0  0  0  0  0  0
   -0.0135    6.9158   -2.9479 H   0  0  0  0  0  0  0  0  0  0  0  0
    0.5677    8.6154   -2.9479 H   0  0  0  0  0  0  0  0  0  0  0  0
   -1.5268    7.8679   -0.9385 H   0  0  0  0  0  0  0  0  0  0  0  0
   -2.7271    8.6865   -3.5074 H   0  0  0  0  0  0  0  0  0  0  0  0
   -1.9757    7.0196   -3.4956 H   0  0  0  0  0  0  0  0  0  0  0  0
   -3.3702    6.3052   -1.7103 H   0  0  0  0  0  0  0  0  0  0  0  0
   -3.9880    7.9891   -1.4465 H   0  0  0  0  0  0  0  0  0  0  0  0
   -4.0524    6.7316   -3.9470 H   0  0  0  0  0  0  0  0  0  0  0  0
   -5.8540    6.7463   -0.6519 H   0  0  0  0  0  0  0  0  0  0  0  0
   -7.4803    6.1583   -1.1375 H   0  0  0  0  0  0  0  0  0  0  0  0
   -6.0810    5.0319   -1.1375 H   0  0  0  0  0  0  0  0  0  0  0  0
   -7.7278    5.1626   -3.3058 H   0  0  0  0  0  0  0  0  0  0  0  0
   -7.4263    6.5396   -4.4192 H   0  0  0  0  0  0  0  0  0  0  0  0
   -6.3187    5.1254   -4.4192 H   0  0  0  0  0  0  0  0  0  0  0  0
   -1.2090   10.0873   -2.8844 H   0  0  0  0  0  0  0  0  0  0  0  0
   -3.3627   10.6406   -1.9384 H   0  0  0  0  0  0  0  0  0  0  0  0
   -3.0933    9.6031   -0.5215 H   0  0  0  0  0  0  0  0  0  0  0  0
   -2.9140   12.4556   -0.5499 H   0  0  0  0  0  0  0  0  0  0  0  0
   -2.2822   11.4396    0.7431 H   0  0  0  0  0  0  0  0  0  0  0  0
   -1.2407   13.7850   -1.9268 H   0  0  0  0  0  0  0  0  0  0  0  0
   -0.0542   12.7023   -2.7309 H   0  0  0  0  0  0  0  0  0  0  0  0
   -1.8000   12.2792   -2.7309 H   0  0  0  0  0  0  0  0  0  0  0  0
    0.0070   12.1411    1.1137 H   0  0  0  0  0  0  0  0  0  0  0  0
   -1.5174   14.1283    0.5099 H   0  0  0  0  0  0  0  0  0  0  0  0
   -0.0326   14.3551    1.5753 H   0  0  0  0  0  0  0  0  0  0  0  0
   -0.4609   16.2168   -0.2397 H   0  0  0  0  0  0  0  0  0  0  0  0
    1.7159   13.4331   -2.1944 H   0  0  0  0  0  0  0  0  0  0  0  0
    3.7163   14.7435   -0.2520 H   0  0  0  0  0  0  0  0  0  0  0  0
    4.0557   13.3947   -1.4253 H   0  0  0  0  0  0  0  0  0  0  0  0
    4.8822   15.5778   -2.2439 H   0  0  0  0  0  0  0  0  0  0  0  0
    3.5976   14.8680   -3.2987 H   0  0  0  0  0  0  0  0  0  0  0  0
    3.1783   17.2179   -3.0482 H   0  0  0  0  0  0  0  0  0  0  0  0
    4.2500   16.9320   -0.7180 H   0  0  0  0  0  0  0  0  0  0  0  0
    0.1855   15.1283   -3.4703 H   0  0  0  0  0  0  0  0  0  0  0  0
    0.6049   16.7528   -4.1119 H   0  0  0  0  0  0  0  0  0  0  0  0
    1.8336   15.4425   -4.1119 H   0  0  0  0  0  0  0  0  0  0  0  0
    0.6542   17.7980   -0.7657 H   0  0  0  0  0  0  0  0  0  0  0  0
    1.3036   18.4870   -2.2922 H   0  0  0  0  0  0  0  0  0  0  0  0
   -0.2787   17.6369   -2.2922 H   0  0  0  0  0  0  0  0  0  0  0  0
    1.7598   12.8164    2.0021 H   0  0  0  0  0  0  0  0  0  0  0  0
    3.2954   12.3730    1.1824 H   0  0  0  0  0  0  0  0  0  0  0  0
    2.7379   14.0805    1.1824 H   0  0  0  0  0  0  0  0  0  0  0  0
    3.0510   11.5826   -1.3222 H   0  0  0  0  0  0  0  0  0  0  0  0
    2.2871   10.7618    0.1535 H   0  0  0  0  0  0  0  0  0  0  0  0
    1.0719   11.1162   -2.6004 H   0  0  0  0  0  0  0  0  0  0  0  0
    1.5630    9.5867   -1.7718 H   0  0  0  0  0  0  0  0  0  0  0  0
   -0.1929   10.3776    1.2079 H   0  0  0  0  0  0  0  0  0  0  0  0
   -0.8220    8.9048    0.3944 H   0  0  0  0  0  0  0  0  0  0  0  0
    0.9414    9.2469    0.3944 H   0  0  0  0  0  0  0  0  0  0  0  0
  1  2  1  0
  2  3  1  0
  3  4  1  0
  4  5  1  0
  5  6  1  0
  6  7  1  0
  7  8  1  0
  7  9  1  0
  2 10  1  0
 10 11  1  0
 11 12  1  0
 12 13  1  0
 13 14  1  6
 13 15  1  0
 15 16  1  0
 16 17  1  0
 17 18  2  0
 18 19  1  0
 19 20  1  0
 20 21  1  0
 21 22  1  0
 22 23  1  0
 22 24  1  0
 24 25  1  0
 24 26  1  0
 19 27  1  0
 27 28  1  1
 27 29  1  0
 29 30  1  0
 30 31  1  0
 31 32  1  1
  7  5  1  0
 31 10  1  0
 31 13  1  0
 27 15  1  0
 24 18  1  0
  1 33  1  0
  1 34  1  0
  1 35  1  0
  2 36  1  1
  3 37  1  0
  3 38  1  0
  4 39  1  0
  4 40  1  0
  5 41  1  6
  8 42  1  0
  8 43  1  0
  8 44  1  0
  9 45  1  0
  9 46  1  0
  9 47  1  0
 10 48  1  6
 11 49  1  0
 11 50  1  0
 12 51  1  0
 12 52  1  0
 14 53  1  0
 14 54  1  0
 14 55  1  0
 15 56  1  1
 16 57  1  0
 16 58  1  0
 17 59  1  0
 19 60  1  6
 20 61  1  0
 20 62  1  0
 21 63  1  0
 21 64  1  0
 22 65  1  6
 23 66  1  0
 25 67  1  0
 25 68  1  0
 25 69  1  0
 26 70  1  0
 26 71  1  0
 26 72  1  0
 28 73  1  0
 28 74  1  0
 28 75  1  0
 29 76  1  0
 29 77  1  0
 30 78  1  0
 30 79  1  0
 32 80  1  0
 32 81  1  0
 32 82  1  0
M  END
>  <meeko>  (20) 
{"is_sidechain": [false], "intermolecular_energy": 2.731, "internal_energy": -0.839}

$$$$
