EPH_relaxed_0001_pdb2pqr_Repair_330_r2_0001_out
     RDKit          3D

 82 86  0  0  0  0  0  0  0  0999 V2000
    4.6260   17.3460   -0.7050 C   0  0  0  0  0  0  0  0  0  0  0  0
    3.2810   17.9790   -0.3340 C   0  0  2  0  0  0  0  0  0  0  0  0
    3.3040   18.6120    1.0710 C   0  0  0  0  0  0  0  0  0  0  0  0
    4.7150   18.8770    1.6030 C   0  0  0  0  0  0  0  0  0  0  0  0
    4.6880   19.4170    3.0010 C   0  0  2  0  0  0  0  0  0  0  0  0
    5.8360   20.1940    3.3650 O   0  0  0  0  0  0  0  0  0  0  0  0
    5.6450   18.9690    4.0900 C   0  0  0  0  0  0  0  0  0  0  0  0
    6.6960   17.9360    3.8280 C   0  0  0  0  0  0  0  0  0  0  0  0
    5.2470   19.1690    5.5190 C   0  0  0  0  0  0  0  0  0  0  0  0
    2.1750   16.9330   -0.4160 C   0  0  1  0  0  0  0  0  0  0  0  0
    0.8140   17.5360   -0.8530 C   0  0  0  0  0  0  0  0  0  0  0  0
    0.1050   16.4620   -1.7170 C   0  0  0  0  0  0  0  0  0  0  0  0
    0.9190   15.1690   -1.4780 C   0  0  1  0  0  0  0  0  0  0  0  0
    0.3900   14.6070   -0.1210 C   0  0  0  0  0  0  0  0  0  0  0  0
    0.8570   14.0940   -2.6110 C   0  0  2  0  0  0  0  0  0  0  0  0
   -0.5400   13.5080   -2.8800 C   0  0  0  0  0  0  0  0  0  0  0  0
   -0.8830   12.2890   -2.0900 C   0  0  0  0  0  0  0  0  0  0  0  0
   -0.0070   11.5220   -1.4150 C   0  0  0  0  0  0  0  0  0  0  0  0
    1.5000   11.8010   -1.4830 C   0  0  1  0  0  0  0  0  0  0  0  0
    2.2620   10.4720   -1.7270 C   0  0  0  0  0  0  0  0  0  0  0  0
    1.9130    9.4010   -0.6980 C   0  0  0  0  0  0  0  0  0  0  0  0
    0.4150    9.1100   -0.7010 C   0  0  2  0  0  0  0  0  0  0  0  0
    0.0650    8.5030   -1.9490 O   0  0  0  0  0  0  0  0  0  0  0  0
   -0.4560   10.3770   -0.4740 C   0  0  0  0  0  0  0  0  0  0  0  0
   -0.3010   10.8600    0.9890 C   0  0  0  0  0  0  0  0  0  0  0  0
   -1.9450    9.9690   -0.6410 C   0  0  0  0  0  0  0  0  0  0  0  0
    1.9470   12.9530   -2.4820 C   0  0  1  0  0  0  0  0  0  0  0  0
    2.1490   12.3670   -3.9130 C   0  0  0  0  0  0  0  0  0  0  0  0
    3.3470   13.5120   -2.0290 C   0  0  0  0  0  0  0  0  0  0  0  0
    3.3380   14.6550   -0.9960 C   0  0  0  0  0  0  0  0  0  0  0  0
    2.3720   15.7670   -1.4170 C   0  0  2  0  0  0  0  0  0  0  0  0
    2.8910   16.3660   -2.7680 C   0  0  0  0  0  0  0  0  0  0  0  0
    5.1751   17.0876    0.2124 H   0  0  0  0  0  0  0  0  0  0  0  0
    4.4518   16.4353   -1.2969 H   0  0  0  0  0  0  0  0  0  0  0  0
    5.2167   18.0606   -1.2969 H   0  0  0  0  0  0  0  0  0  0  0  0
    3.0849   18.7859   -1.0555 H   0  0  0  0  0  0  0  0  0  0  0  0
    2.7629   19.5688    1.0298 H   0  0  0  0  0  0  0  0  0  0  0  0
    2.8319   17.8923    1.7559 H   0  0  0  0  0  0  0  0  0  0  0  0
    5.2816   17.9342    1.5959 H   0  0  0  0  0  0  0  0  0  0  0  0
    5.1906   19.6276    0.9546 H   0  0  0  0  0  0  0  0  0  0  0  0
    3.5917   19.5027    2.9715 H   0  0  0  0  0  0  0  0  0  0  0  0
    7.0829   17.5557    4.7849 H   0  0  0  0  0  0  0  0  0  0  0  0
    6.2592   17.1060    3.2533 H   0  0  0  0  0  0  0  0  0  0  0  0
    7.5183   18.3871    3.2533 H   0  0  0  0  0  0  0  0  0  0  0  0
    6.0342   18.7734    6.1777 H   0  0  0  0  0  0  0  0  0  0  0  0
    5.1104   20.2428    5.7147 H   0  0  0  0  0  0  0  0  0  0  0  0
    4.3039   18.6378    5.7147 H   0  0  0  0  0  0  0  0  0  0  0  0
    2.2041   16.5526    0.6157 H   0  0  0  0  0  0  0  0  0  0  0  0
    0.2040   17.7741    0.0309 H   0  0  0  0  0  0  0  0  0  0  0  0
    0.9589   18.4668   -1.4209 H   0  0  0  0  0  0  0  0  0  0  0  0
   -0.9379   16.3297   -1.3933 H   0  0  0  0  0  0  0  0  0  0  0  0
    0.0673   16.7405   -2.7805 H   0  0  0  0  0  0  0  0  0  0  0  0
    0.8836   15.1314    0.7104 H   0  0  0  0  0  0  0  0  0  0  0  0
   -0.6972   14.7624   -0.0586 H   0  0  0  0  0  0  0  0  0  0  0  0
    0.6108   13.5312   -0.0586 H   0  0  0  0  0  0  0  0  0  0  0  0
    1.1119   14.6805   -3.5060 H   0  0  0  0  0  0  0  0  0  0  0  0
   -1.2845   14.2839   -2.6481 H   0  0  0  0  0  0  0  0  0  0  0  0
   -0.5416   13.1972   -3.9352 H   0  0  0  0  0  0  0  0  0  0  0  0
   -1.9417   11.9923   -2.0566 H   0  0  0  0  0  0  0  0  0  0  0  0
    1.7773   12.2156   -0.5026 H   0  0  0  0  0  0  0  0  0  0  0  0
    2.0044   10.0964   -2.7283 H   0  0  0  0  0  0  0  0  0  0  0  0
    3.3380   10.6826   -1.6384 H   0  0  0  0  0  0  0  0  0  0  0  0
    2.4597    8.4776   -0.9398 H   0  0  0  0  0  0  0  0  0  0  0  0
    2.1979    9.7663    0.2997 H   0  0  0  0  0  0  0  0  0  0  0  0
    0.2094    8.4331    0.1413 H   0  0  0  0  0  0  0  0  0  0  0  0
   -0.9010    8.5520   -2.0400 H   0  0  0  0  0  0  0  0  0  0  0  0
   -0.5637   10.0414    1.6752 H   0  0  0  0  0  0  0  0  0  0  0  0
    0.7406   11.1664    1.1656 H   0  0  0  0  0  0  0  0  0  0  0  0
   -0.9698   11.7153    1.1656 H   0  0  0  0  0  0  0  0  0  0  0  0
   -2.4041    9.8432    0.3506 H   0  0  0  0  0  0  0  0  0  0  0  0
   -2.4802   10.7536   -1.1960 H   0  0  0  0  0  0  0  0  0  0  0  0
   -2.0054    9.0212   -1.1960 H   0  0  0  0  0  0  0  0  0  0  0  0
    2.5066   11.3295   -3.8372 H   0  0  0  0  0  0  0  0  0  0  0  0
    1.1923   12.3864   -4.4556 H   0  0  0  0  0  0  0  0  0  0  0  0
    2.8905   12.9718   -4.4556 H   0  0  0  0  0  0  0  0  0  0  0  0
    3.9145   12.6757   -1.5948 H   0  0  0  0  0  0  0  0  0  0  0  0
    3.7899   13.9481   -2.9366 H   0  0  0  0  0  0  0  0  0  0  0  0
    3.0239   14.2558   -0.0203 H   0  0  0  0  0  0  0  0  0  0  0  0
    4.3517   15.0770   -0.9310 H   0  0  0  0  0  0  0  0  0  0  0  0
    3.5983   17.1823   -2.5595 H   0  0  0  0  0  0  0  0  0  0  0  0
    3.3984   15.5801   -3.3466 H   0  0  0  0  0  0  0  0  0  0  0  0
    2.0408   16.7563   -3.3466 H   0  0  0  0  0  0  0  0  0  0  0  0
  1  2  1  0
  2  3  1  0
  3  4  1  0
  4  5  1  0
  5  6  1  0
  6  7  1  0
  7  8  1  0
  7  9  1  0
  2 10  1  0
 10 11  1  0
 11 12  1  0
 12 13  1  0
 13 14  1  1
 13 15  1  0
 15 16  1  0
 16 17  1  0
 17 18  2  0
 18 19  1  0
 19 20  1  0
 20 21  1  0
 21 22  1  0
 22 23  1  0
 22 24  1  0
 24 25  1  0
 24 26  1  0
 19 27  1  0
 27 28  1  6
 27 29  1  0
 29 30  1  0
 30 31  1  0
 31 32  1  6
  7  5  1  0
 31 10  1  0
 31 13  1  0
 27 15  1  0
 24 18  1  0
  1 33  1  0
  1 34  1  0
  1 35  1  0
  2 36  1  6
  3 37  1  0
  3 38  1  0
  4 39  1  0
  4 40  1  0
  5 41  1  1
  8 42  1  0
  8 43  1  0
  8 44  1  0
  9 45  1  0
  9 46  1  0
  9 47  1  0
 10 48  1  1
 11 49  1  0
 11 50  1  0
 12 51  1  0
 12 52  1  0
 14 53  1  0
 14 54  1  0
 14 55  1  0
 15 56  1  6
 16 57  1  0
 16 58  1  0
 17 59  1  0
 19 60  1  1
 20 61  1  0
 20 62  1  0
 21 63  1  0
 21 64  1  0
 22 65  1  1
 23 66  1  0
 25 67  1  0
 25 68  1  0
 25 69  1  0
 26 70  1  0
 26 71  1  0
 26 72  1  0
 28 73  1  0
 28 74  1  0
 28 75  1  0
 29 76  1  0
 29 77  1  0
 30 78  1  0
 30 79  1  0
 32 80  1  0
 32 81  1  0
 32 82  1  0
M  END
>  <meeko>  (1) 
{"is_sidechain": [false], "intermolecular_energy": 2.731, "internal_energy": -0.839}

$$$$
EPH_relaxed_0001_pdb2pqr_Repair_330_r2_0001_out
     RDKit          3D

 82 86  0  0  0  0  0  0  0  0999 V2000
   -1.6970    8.5820   -1.8810 C   0  0  0  0  0  0  0  0  0  0  0  0
   -2.1020    9.0750   -0.4890 C   0  0  2  0  0  0  0  0  0  0  0  0
   -3.6060    9.4050   -0.4040 C   0  0  0  0  0  0  0  0  0  0  0  0
   -4.5010    8.1680   -0.2930 C   0  0  0  0  0  0  0  0  0  0  0  0
   -5.2070    7.8770   -1.5830 C   0  0  2  0  0  0  0  0  0  0  0  0
   -6.3610    8.6910   -1.8310 O   0  0  0  0  0  0  0  0  0  0  0  0
   -6.6020    7.2850   -1.6590 C   0  0  0  0  0  0  0  0  0  0  0  0
   -7.3740    6.9460   -0.4230 C   0  0  0  0  0  0  0  0  0  0  0  0
   -7.0150    6.5850   -2.9170 C   0  0  0  0  0  0  0  0  0  0  0  0
   -1.2780   10.3010   -0.1120 C   0  0  1  0  0  0  0  0  0  0  0  0
   -0.3150   10.0320    1.0740 C   0  0  0  0  0  0  0  0  0  0  0  0
    0.9650   10.8670    0.8110 C   0  0  0  0  0  0  0  0  0  0  0  0
    0.5700   11.8350   -0.3290 C   0  0  1  0  0  0  0  0  0  0  0  0
   -0.1940   12.9970    0.3780 C   0  0  0  0  0  0  0  0  0  0  0  0
    1.7410   12.3700   -1.2170 C   0  0  2  0  0  0  0  0  0  0  0  0
    2.7910   13.2130   -0.4730 C   0  0  0  0  0  0  0  0  0  0  0  0
    2.5210   14.6810   -0.4370 C   0  0  0  0  0  0  0  0  0  0  0  0
    1.6370   15.3330   -1.2150 C   0  0  0  0  0  0  0  0  0  0  0  0
    0.8660   14.5970   -2.3190 C   0  0  1  0  0  0  0  0  0  0  0  0
    0.9100   15.4320   -3.6260 C   0  0  0  0  0  0  0  0  0  0  0  0
    0.4170   16.8620   -3.4240 C   0  0  0  0  0  0  0  0  0  0  0  0
    1.2450   17.5790   -2.3600 C   0  0  2  0  0  0  0  0  0  0  0  0
    2.5770   17.7510   -2.8520 O   0  0  0  0  0  0  0  0  0  0  0  0
    1.2820   16.8250   -1.0010 C   0  0  0  0  0  0  0  0  0  0  0  0
   -0.1090   16.9020   -0.3250 C   0  0  0  0  0  0  0  0  0  0  0  0
    2.2620   17.5800   -0.0640 C   0  0  0  0  0  0  0  0  0  0  0  0
    1.2700   13.0780   -2.5520 C   0  0  1  0  0  0  0  0  0  0  0  0
    2.4680   12.9920   -3.5470 C   0  0  0  0  0  0  0  0  0  0  0  0
    0.0690   12.3250   -3.2370 C   0  0  0  0  0  0  0  0  0  0  0  0
   -0.9930   11.7150   -2.3020 C   0  0  0  0  0  0  0  0  0  0  0  0
   -0.3360   10.8850   -1.1950 C   0  0  2  0  0  0  0  0  0  0  0  0
    0.4220    9.6950   -1.8750 C   0  0  0  0  0  0  0  0  0  0  0  0
   -1.0016    7.7355   -1.7822 H   0  0  0  0  0  0  0  0  0  0  0  0
   -2.5932    8.2581   -2.4304 H   0  0  0  0  0  0  0  0  0  0  0  0
   -1.2052    9.3983   -2.4304 H   0  0  0  0  0  0  0  0  0  0  0  0
   -1.9025    8.2594    0.2217 H   0  0  0  0  0  0  0  0  0  0  0  0
   -3.7738   10.0359    0.4813 H   0  0  0  0  0  0  0  0  0  0  0  0
   -3.8770    9.9155   -1.3399 H   0  0  0  0  0  0  0  0  0  0  0  0
   -3.8795    7.3014   -0.0234 H   0  0  0  0  0  0  0  0  0  0  0  0
   -5.2613    8.3629    0.4777 H   0  0  0  0  0  0  0  0  0  0  0  0
   -4.2591    7.5959   -2.0651 H   0  0  0  0  0  0  0  0  0  0  0  0
   -6.7788    7.2074    0.4643 H   0  0  0  0  0  0  0  0  0  0  0  0
   -8.3165    7.5130   -0.4123 H   0  0  0  0  0  0  0  0  0  0  0  0
   -7.5943    5.8683   -0.4123 H   0  0  0  0  0  0  0  0  0  0  0  0
   -7.5588    5.6634   -2.6622 H   0  0  0  0  0  0  0  0  0  0  0  0
   -7.6683    7.2451   -3.5064 H   0  0  0  0  0  0  0  0  0  0  0  0
   -6.1212    6.3324   -3.5064 H   0  0  0  0  0  0  0  0  0  0  0  0
   -2.0908   11.0105    0.1025 H   0  0  0  0  0  0  0  0  0  0  0  0
   -0.7827   10.3437    2.0196 H   0  0  0  0  0  0  0  0  0  0  0  0
   -0.0776    8.9609    1.1542 H   0  0  0  0  0  0  0  0  0  0  0  0
    1.2561   11.4263    1.7123 H   0  0  0  0  0  0  0  0  0  0  0  0
    1.8270   10.2377    0.5448 H   0  0  0  0  0  0  0  0  0  0  0  0
   -0.1154   12.8774    1.4686 H   0  0  0  0  0  0  0  0  0  0  0  0
    0.2478   13.9599    0.0819 H   0  0  0  0  0  0  0  0  0  0  0  0
   -1.2531   12.9730    0.0819 H   0  0  0  0  0  0  0  0  0  0  0  0
    2.2566   11.4441   -1.5118 H   0  0  0  0  0  0  0  0  0  0  0  0
    2.8440   12.8516    0.5646 H   0  0  0  0  0  0  0  0  0  0  0  0
    3.7310   13.0900   -1.0309 H   0  0  0  0  0  0  0  0  0  0  0  0
    3.0929   15.2805    0.2866 H   0  0  0  0  0  0  0  0  0  0  0  0
   -0.1715   14.5153   -1.9627 H   0  0  0  0  0  0  0  0  0  0  0  0
    1.9480   15.4648   -3.9886 H   0  0  0  0  0  0  0  0  0  0  0  0
    0.2419   14.9483   -4.3538 H   0  0  0  0  0  0  0  0  0  0  0  0
    0.5004   17.4093   -4.3745 H   0  0  0  0  0  0  0  0  0  0  0  0
   -0.6307   16.8286   -3.0904 H   0  0  0  0  0  0  0  0  0  0  0  0
    0.7648   18.5495   -2.1662 H   0  0  0  0  0  0  0  0  0  0  0  0
    3.0470   18.3330   -2.2310 H   0  0  0  0  0  0  0  0  0  0  0  0
    0.0137   16.8952    0.7681 H   0  0  0  0  0  0  0  0  0  0  0  0
   -0.6148   17.8295   -0.6315 H   0  0  0  0  0  0  0  0  0  0  0  0
   -0.7140   16.0360   -0.6315 H   0  0  0  0  0  0  0  0  0  0  0  0
    1.9975   17.3762    0.9841 H   0  0  0  0  0  0  0  0  0  0  0  0
    3.2897   17.2380   -0.2560 H   0  0  0  0  0  0  0  0  0  0  0  0
    2.1934   18.6609   -0.2560 H   0  0  0  0  0  0  0  0  0  0  0  0
    3.4095   12.9244   -2.9823 H   0  0  0  0  0  0  0  0  0  0  0  0
    2.3554   12.0996   -4.1802 H   0  0  0  0  0  0  0  0  0  0  0  0
    2.4840   13.8913   -4.1802 H   0  0  0  0  0  0  0  0  0  0  0  0
   -0.4410   13.0427   -3.8964 H   0  0  0  0  0  0  0  0  0  0  0  0
    0.5243   11.4672   -3.7535 H   0  0  0  0  0  0  0  0  0  0  0  0
   -1.5784   12.5262   -1.8445 H   0  0  0  0  0  0  0  0  0  0  0  0
   -1.6455   11.0565   -2.8942 H   0  0  0  0  0  0  0  0  0  0  0  0
    0.8414    9.0366   -1.0999 H   0  0  0  0  0  0  0  0  0  0  0  0
   -0.2790    9.1238   -2.5013 H   0  0  0  0  0  0  0  0  0  0  0  0
    1.2360   10.0888   -2.5013 H   0  0  0  0  0  0  0  0  0  0  0  0
  1  2  1  0
  2  3  1  0
  3  4  1  0
  4  5  1  0
  5  6  1  0
  6  7  1  0
  7  8  1  0
  7  9  1  0
  2 10  1  0
 10 11  1  0
 11 12  1  0
 12 13  1  0
 13 14  1  1
 13 15  1  0
 15 16  1  0
 16 17  1  0
 17 18  2  0
 18 19  1  0
 19 20  1  0
 20 21  1  0
 21 22  1  0
 22 23  1  0
 22 24  1  0
 24 25  1  0
 24 26  1  0
 19 27  1  0
 27 28  1  6
 27 29  1  0
 29 30  1  0
 30 31  1  0
 31 32  1  6
  7  5  1  0
 31 10  1  0
 31 13  1  0
 27 15  1  0
 24 18  1  0
  1 33  1  0
  1 34  1  0
  1 35  1  0
  2 36  1  1
  3 37  1  0
  3 38  1  0
  4 39  1  0
  4 40  1  0
  5 41  1  6
  8 42  1  0
  8 43  1  0
  8 44  1  0
  9 45  1  0
  9 46  1  0
  9 47  1  0
 10 48  1  1
 11 49  1  0
 11 50  1  0
 12 51  1  0
 12 52  1  0
 14 53  1  0
 14 54  1  0
 14 55  1  0
 15 56  1  6
 16 57  1  0
 16 58  1  0
 17 59  1  0
 19 60  1  1
 20 61  1  0
 20 62  1  0
 21 63  1  0
 21 64  1  0
 22 65  1  1
 23 66  1  0
 25 67  1  0
 25 68  1  0
 25 69  1  0
 26 70  1  0
 26 71  1  0
 26 72  1  0
 28 73  1  0
 28 74  1  0
 28 75  1  0
 29 76  1  0
 29 77  1  0
 30 78  1  0
 30 79  1  0
 32 80  1  0
 32 81  1  0
 32 82  1  0
M  END
>  <meeko>  (2) 
{"is_sidechain": [false], "intermolecular_energy": 2.731, "internal_energy": -0.839}

$$$$
EPH_relaxed_0001_pdb2pqr_Repair_330_r2_0001_out
     RDKit          3D

 82 86  0  0  0  0  0  0  0  0999 V2000
    0.8550   18.2930   -0.3560 C   0  0  0  0  0  0  0  0  0  0  0  0
    1.7820   17.0820   -0.4880 C   0  0  2  0  0  0  0  0  0  0  0  0
    3.0400   17.4020   -1.3200 C   0  0  0  0  0  0  0  0  0  0  0  0
    4.2560   17.7870   -0.4730 C   0  0  0  0  0  0  0  0  0  0  0  0
    3.8540   18.2710    0.8870 C   0  0  2  0  0  0  0  0  0  0  0  0
    3.7950   19.6970    1.0210 O   0  0  0  0  0  0  0  0  0  0  0  0
    4.7860   19.0260    1.8160 C   0  0  0  0  0  0  0  0  0  0  0  0
    6.1960   19.3390    1.4210 C   0  0  0  0  0  0  0  0  0  0  0  0
    4.4870   19.0300    3.2820 C   0  0  0  0  0  0  0  0  0  0  0  0
    1.0270   15.9150   -1.1140 C   0  0  1  0  0  0  0  0  0  0  0  0
    0.5530   16.2170   -2.5600 C   0  0  0  0  0  0  0  0  0  0  0  0
    0.6450   14.8840   -3.3480 C   0  0  0  0  0  0  0  0  0  0  0  0
    0.8450   13.8020   -2.2620 C   0  0  1  0  0  0  0  0  0  0  0  0
   -0.5860   13.5210   -1.7060 C   0  0  0  0  0  0  0  0  0  0  0  0
    1.5550   12.4860   -2.7200 C   0  0  2  0  0  0  0  0  0  0  0  0
    0.8050   11.6800   -3.7940 C   0  0  0  0  0  0  0  0  0  0  0  0
   -0.1460   10.6540   -3.2730 C   0  0  0  0  0  0  0  0  0  0  0  0
   -0.1820   10.1910   -2.0100 C   0  0  0  0  0  0  0  0  0  0  0  0
    0.8630   10.6350   -0.9780 C   0  0  1  0  0  0  0  0  0  0  0  0
    1.3950    9.3950   -0.2130 C   0  0  0  0  0  0  0  0  0  0  0  0
    0.2750    8.5670    0.4100 C   0  0  0  0  0  0  0  0  0  0  0  0
   -0.7120    8.0950   -0.6550 C   0  0  2  0  0  0  0  0  0  0  0  0
   -0.0490    7.1660   -1.5170 O   0  0  0  0  0  0  0  0  0  0  0  0
   -1.3070    9.2580   -1.4970 C   0  0  0  0  0  0  0  0  0  0  0  0
   -2.2710   10.0960   -0.6210 C   0  0  0  0  0  0  0  0  0  0  0  0
   -2.1750    8.6360   -2.6240 C   0  0  0  0  0  0  0  0  0  0  0  0
    2.0320   11.5590   -1.5300 C   0  0  1  0  0  0  0  0  0  0  0  0
    3.1900   10.6760   -2.0890 C   0  0  0  0  0  0  0  0  0  0  0  0
    2.6420   12.3850   -0.3350 C   0  0  0  0  0  0  0  0  0  0  0  0
    1.9700   13.7320   -0.0080 C   0  0  0  0  0  0  0  0  0  0  0  0
    1.7910   14.5770   -1.2730 C   0  0  2  0  0  0  0  0  0  0  0  0
    3.2160   14.8940   -1.8430 C   0  0  0  0  0  0  0  0  0  0  0  0
    0.6873   18.5121    0.7088 H   0  0  0  0  0  0  0  0  0  0  0  0
    1.3190   19.1645   -0.8410 H   0  0  0  0  0  0  0  0  0  0  0  0
   -0.1074   18.0726   -0.8410 H   0  0  0  0  0  0  0  0  0  0  0  0
    2.1157   16.8090    0.5240 H   0  0  0  0  0  0  0  0  0  0  0  0
    3.2983   16.5135   -1.9149 H   0  0  0  0  0  0  0  0  0  0  0  0
    2.7974   18.2716   -1.9485 H   0  0  0  0  0  0  0  0  0  0  0  0
    4.9051   16.9061   -0.3603 H   0  0  0  0  0  0  0  0  0  0  0  0
    4.7853   18.6042   -0.9849 H   0  0  0  0  0  0  0  0  0  0  0  0
    3.2178   17.3867    1.0396 H   0  0  0  0  0  0  0  0  0  0  0  0
    6.8084   19.4749    2.3246 H   0  0  0  0  0  0  0  0  0  0  0  0
    6.6024   18.5092    0.8241 H   0  0  0  0  0  0  0  0  0  0  0  0
    6.2131   20.2628    0.8241 H   0  0  0  0  0  0  0  0  0  0  0  0
    5.4298   19.0174    3.8485 H   0  0  0  0  0  0  0  0  0  0  0  0
    3.9177   19.9358    3.5376 H   0  0  0  0  0  0  0  0  0  0  0  0
    3.8937   18.1397    3.5376 H   0  0  0  0  0  0  0  0  0  0  0  0
    0.2193   15.8010   -0.3760 H   0  0  0  0  0  0  0  0  0  0  0  0
   -0.4851   16.5805   -2.5503 H   0  0  0  0  0  0  0  0  0  0  0  0
    1.1757   16.9951   -3.0256 H   0  0  0  0  0  0  0  0  0  0  0  0
   -0.2816   14.7015   -3.9120 H   0  0  0  0  0  0  0  0  0  0  0  0
    1.4612   14.8908   -4.0854 H   0  0  0  0  0  0  0  0  0  0  0  0
   -0.5597   13.5262   -0.6063 H   0  0  0  0  0  0  0  0  0  0  0  0
   -1.2765   14.3007   -2.0599 H   0  0  0  0  0  0  0  0  0  0  0  0
   -0.9304   12.5381   -2.0599 H   0  0  0  0  0  0  0  0  0  0  0  0
    2.4625   12.8666   -3.2116 H   0  0  0  0  0  0  0  0  0  0  0  0
    0.2353   12.3878   -4.4141 H   0  0  0  0  0  0  0  0  0  0  0  0
    1.5746   11.1262   -4.3517 H   0  0  0  0  0  0  0  0  0  0  0  0
   -0.8794   10.2415   -3.9815 H   0  0  0  0  0  0  0  0  0  0  0  0
    0.3376   11.3054   -0.2819 H   0  0  0  0  0  0  0  0  0  0  0  0
    1.9538    8.7599   -0.9161 H   0  0  0  0  0  0  0  0  0  0  0  0
    2.0369    9.7566    0.6038 H   0  0  0  0  0  0  0  0  0  0  0  0
    0.7113    7.6899    0.9104 H   0  0  0  0  0  0  0  0  0  0  0  0
   -0.2642    9.1947    1.1347 H   0  0  0  0  0  0  0  0  0  0  0  0
   -1.5576    7.6207   -0.1353 H   0  0  0  0  0  0  0  0  0  0  0  0
   -0.4360    7.2610   -2.4040 H   0  0  0  0  0  0  0  0  0  0  0  0
   -2.0565    9.9096    0.4417 H   0  0  0  0  0  0  0  0  0  0  0  0
   -2.1313   11.1646   -0.8413 H   0  0  0  0  0  0  0  0  0  0  0  0
   -3.3098    9.8090   -0.8413 H   0  0  0  0  0  0  0  0  0  0  0  0
   -2.9919    8.0506   -2.1768 H   0  0  0  0  0  0  0  0  0  0  0  0
   -2.5972    9.4384   -3.2468 H   0  0  0  0  0  0  0  0  0  0  0  0
   -1.5509    7.9783   -3.2468 H   0  0  0  0  0  0  0  0  0  0  0  0
    3.7577   10.2431   -1.2522 H   0  0  0  0  0  0  0  0  0  0  0  0
    2.7698    9.8669   -2.7045 H   0  0  0  0  0  0  0  0  0  0  0  0
    3.8590   11.2953   -2.7045 H   0  0  0  0  0  0  0  0  0  0  0  0
    2.5856   11.7573    0.5666 H   0  0  0  0  0  0  0  0  0  0  0  0
    3.6628   12.6423   -0.6541 H   0  0  0  0  0  0  0  0  0  0  0  0
    0.9837   13.5425    0.4407 H   0  0  0  0  0  0  0  0  0  0  0  0
    2.6129   14.2833    0.6939 H   0  0  0  0  0  0  0  0  0  0  0  0
    3.9176   15.0501   -1.0103 H   0  0  0  0  0  0  0  0  0  0  0  0
    3.5603   14.0505   -2.4594 H   0  0  0  0  0  0  0  0  0  0  0  0
    3.1703   15.8039   -2.4594 H   0  0  0  0  0  0  0  0  0  0  0  0
  1  2  1  0
  2  3  1  0
  3  4  1  0
  4  5  1  0
  5  6  1  0
  6  7  1  0
  7  8  1  0
  7  9  1  0
  2 10  1  0
 10 11  1  0
 11 12  1  0
 12 13  1  0
 13 14  1  1
 13 15  1  0
 15 16  1  0
 16 17  1  0
 17 18  2  0
 18 19  1  0
 19 20  1  0
 20 21  1  0
 21 22  1  0
 22 23  1  0
 22 24  1  0
 24 25  1  0
 24 26  1  0
 19 27  1  0
 27 28  1  6
 27 29  1  0
 29 30  1  0
 30 31  1  0
 31 32  1  6
  7  5  1  0
 31 10  1  0
 31 13  1  0
 27 15  1  0
 24 18  1  0
  1 33  1  0
  1 34  1  0
  1 35  1  0
  2 36  1  1
  3 37  1  0
  3 38  1  0
  4 39  1  0
  4 40  1  0
  5 41  1  1
  8 42  1  0
  8 43  1  0
  8 44  1  0
  9 45  1  0
  9 46  1  0
  9 47  1  0
 10 48  1  1
 11 49  1  0
 11 50  1  0
 12 51  1  0
 12 52  1  0
 14 53  1  0
 14 54  1  0
 14 55  1  0
 15 56  1  6
 16 57  1  0
 16 58  1  0
 17 59  1  0
 19 60  1  1
 20 61  1  0
 20 62  1  0
 21 63  1  0
 21 64  1  0
 22 65  1  1
 23 66  1  0
 25 67  1  0
 25 68  1  0
 25 69  1  0
 26 70  1  0
 26 71  1  0
 26 72  1  0
 28 73  1  0
 28 74  1  0
 28 75  1  0
 29 76  1  0
 29 77  1  0
 30 78  1  0
 30 79  1  0
 32 80  1  0
 32 81  1  0
 32 82  1  0
M  END
>  <meeko>  (3) 
{"is_sidechain": [false], "intermolecular_energy": 2.731, "internal_energy": -0.839}

$$$$
EPH_relaxed_0001_pdb2pqr_Repair_330_r2_0001_out
     RDKit          3D

 82 86  0  0  0  0  0  0  0  0999 V2000
   -1.0750    7.8570   -1.1770 C   0  0  0  0  0  0  0  0  0  0  0  0
   -1.1830    8.9770   -0.1390 C   0  0  2  0  0  0  0  0  0  0  0  0
   -2.5160    9.7440   -0.2480 C   0  0  0  0  0  0  0  0  0  0  0  0
   -3.7500    8.8720   -0.0040 C   0  0  0  0  0  0  0  0  0  0  0  0
   -4.4920    8.5930   -1.2760 C   0  0  2  0  0  0  0  0  0  0  0  0
   -5.9020    8.8450   -1.2140 O   0  0  0  0  0  0  0  0  0  0  0  0
   -5.5110    7.4780   -1.4220 C   0  0  0  0  0  0  0  0  0  0  0  0
   -5.8430    6.5690   -0.2810 C   0  0  0  0  0  0  0  0  0  0  0  0
   -5.8190    6.9660   -2.7950 C   0  0  0  0  0  0  0  0  0  0  0  0
   -0.0120    9.9410   -0.2920 C   0  0  1  0  0  0  0  0  0  0  0  0
    1.3550    9.2130   -0.3730 C   0  0  0  0  0  0  0  0  0  0  0  0
    2.2430   10.0330   -1.3440 C   0  0  0  0  0  0  0  0  0  0  0  0
    1.4860   11.3700   -1.5290 C   0  0  1  0  0  0  0  0  0  0  0  0
    1.8580   12.2180   -0.2730 C   0  0  0  0  0  0  0  0  0  0  0  0
    1.7710   12.1470   -2.8550 C   0  0  2  0  0  0  0  0  0  0  0  0
    3.2260   12.6120   -3.0400 C   0  0  0  0  0  0  0  0  0  0  0  0
    3.5330   13.9720   -2.5070 C   0  0  0  0  0  0  0  0  0  0  0  0
    2.6230   14.9010   -2.1610 C   0  0  0  0  0  0  0  0  0  0  0  0
    1.1250   14.6580   -2.3870 C   0  0  1  0  0  0  0  0  0  0  0  0
    0.4890   15.9140   -3.0370 C   0  0  0  0  0  0  0  0  0  0  0  0
    0.7590   17.1860   -2.2390 C   0  0  0  0  0  0  0  0  0  0  0  0
    2.2590   17.4250   -2.0860 C   0  0  2  0  0  0  0  0  0  0  0  0
    2.8150   17.7120   -3.3730 O   0  0  0  0  0  0  0  0  0  0  0  0
    3.0090   16.2210   -1.4500 C   0  0  0  0  0  0  0  0  0  0  0  0
    2.6240   16.0990    0.0450 C   0  0  0  0  0  0  0  0  0  0  0  0
    4.5300   16.5350   -1.4820 C   0  0  0  0  0  0  0  0  0  0  0  0
    0.7480   13.3170   -3.1530 C   0  0  1  0  0  0  0  0  0  0  0  0
    0.7810   13.5570   -4.6930 C   0  0  0  0  0  0  0  0  0  0  0  0
   -0.7340   12.9210   -2.7970 C   0  0  0  0  0  0  0  0  0  0  0  0
   -0.9390   12.0530   -1.5410 C   0  0  0  0  0  0  0  0  0  0  0  0
    0.0040   10.8460   -1.5500 C   0  0  2  0  0  0  0  0  0  0  0  0
   -0.3610    9.9620   -2.7910 C   0  0  0  0  0  0  0  0  0  0  0  0
   -0.9816    6.8888   -0.6633 H   0  0  0  0  0  0  0  0  0  0  0  0
   -1.9769    7.8525   -1.8068 H   0  0  0  0  0  0  0  0  0  0  0  0
   -0.1889    8.0249   -1.8068 H   0  0  0  0  0  0  0  0  0  0  0  0
   -1.1526    8.5101    0.8565 H   0  0  0  0  0  0  0  0  0  0  0  0
   -2.5116   10.5551    0.4951 H   0  0  0  0  0  0  0  0  0  0  0  0
   -2.5870   10.1197   -1.2794 H   0  0  0  0  0  0  0  0  0  0  0  0
   -3.4299    7.9173    0.4387 H   0  0  0  0  0  0  0  0  0  0  0  0
   -4.4246    9.4147    0.6745 H   0  0  0  0  0  0  0  0  0  0  0  0
   -3.6152    8.8748   -1.8775 H   0  0  0  0  0  0  0  0  0  0  0  0
   -5.6530    7.0891    0.6694 H   0  0  0  0  0  0  0  0  0  0  0  0
   -6.9037    6.2829   -0.3368 H   0  0  0  0  0  0  0  0  0  0  0  0
   -5.2164    5.6666   -0.3368 H   0  0  0  0  0  0  0  0  0  0  0  0
   -6.3846    6.0258   -2.7174 H   0  0  0  0  0  0  0  0  0  0  0  0
   -6.4189    7.7110   -3.3381 H   0  0  0  0  0  0  0  0  0  0  0  0
   -4.8797    6.7851   -3.3381 H   0  0  0  0  0  0  0  0  0  0  0  0
   -0.1581   10.5529    0.6103 H   0  0  0  0  0  0  0  0  0  0  0  0
    1.8212    9.1711    0.6224 H   0  0  0  0  0  0  0  0  0  0  0  0
    1.2311    8.1796   -0.7291 H   0  0  0  0  0  0  0  0  0  0  0  0
    3.2377   10.2069   -0.9078 H   0  0  0  0  0  0  0  0  0  0  0  0
    2.4095    9.5120   -2.2984 H   0  0  0  0  0  0  0  0  0  0  0  0
    1.6101   11.6528    0.6376 H   0  0  0  0  0  0  0  0  0  0  0  0
    2.9356   12.4387   -0.2856 H   0  0  0  0  0  0  0  0  0  0  0  0
    1.2906   13.1603   -0.2856 H   0  0  0  0  0  0  0  0  0  0  0  0
    1.6053   11.3747   -3.6206 H   0  0  0  0  0  0  0  0  0  0  0  0
    3.8809   11.8908   -2.5291 H   0  0  0  0  0  0  0  0  0  0  0  0
    3.3927   12.6658   -4.1260 H   0  0  0  0  0  0  0  0  0  0  0  0
    4.5937   14.2375   -2.3868 H   0  0  0  0  0  0  0  0  0  0  0  0
    0.6899   14.4930   -1.3903 H   0  0  0  0  0  0  0  0  0  0  0  0
    0.9051   16.0369   -4.0478 H   0  0  0  0  0  0  0  0  0  0  0  0
   -0.6000   15.7612   -3.0633 H   0  0  0  0  0  0  0  0  0  0  0  0
    0.3095   18.0422   -2.7632 H   0  0  0  0  0  0  0  0  0  0  0  0
    0.3172   17.0733   -1.2380 H   0  0  0  0  0  0  0  0  0  0  0  0
    2.3888   18.2745   -1.3994 H   0  0  0  0  0  0  0  0  0  0  0  0
    2.1800   18.2760   -3.8480 H   0  0  0  0  0  0  0  0  0  0  0  0
    3.4873   16.3726    0.6694 H   0  0  0  0  0  0  0  0  0  0  0  0
    1.7843   16.7751    0.2637 H   0  0  0  0  0  0  0  0  0  0  0  0
    2.3269   15.0627    0.2637 H   0  0  0  0  0  0  0  0  0  0  0  0
    4.9099   16.6134   -0.4527 H   0  0  0  0  0  0  0  0  0  0  0  0
    5.0601   15.7274   -2.0080 H   0  0  0  0  0  0  0  0  0  0  0  0
    4.6970   17.4866   -2.0080 H   0  0  0  0  0  0  0  0  0  0  0  0
    0.9283   14.6284   -4.8940 H   0  0  0  0  0  0  0  0  0  0  0  0
    1.6088   12.9836   -5.1358 H   0  0  0  0  0  0  0  0  0  0  0  0
   -0.1708   13.2283   -5.1358 H   0  0  0  0  0  0  0  0  0  0  0  0
   -1.3020   13.8521   -2.6542 H   0  0  0  0  0  0  0  0  0  0  0  0
   -1.0745   12.2970   -3.6365 H   0  0  0  0  0  0  0  0  0  0  0  0
   -0.7374   12.6607   -0.6466 H   0  0  0  0  0  0  0  0  0  0  0  0
   -1.9766   11.6879   -1.5320 H   0  0  0  0  0  0  0  0  0  0  0  0
   -0.7599    8.9958   -2.4484 H   0  0  0  0  0  0  0  0  0  0  0  0
   -1.1198   10.4775   -3.3980 H   0  0  0  0  0  0  0  0  0  0  0  0
    0.5405    9.7920   -3.3980 H   0  0  0  0  0  0  0  0  0  0  0  0
  1  2  1  0
  2  3  1  0
  3  4  1  0
  4  5  1  0
  5  6  1  0
  6  7  1  0
  7  8  1  0
  7  9  1  0
  2 10  1  0
 10 11  1  0
 11 12  1  0
 12 13  1  0
 13 14  1  1
 13 15  1  0
 15 16  1  0
 16 17  1  0
 17 18  2  0
 18 19  1  0
 19 20  1  0
 20 21  1  0
 21 22  1  0
 22 23  1  0
 22 24  1  0
 24 25  1  0
 24 26  1  0
 19 27  1  0
 27 28  1  6
 27 29  1  0
 29 30  1  0
 30 31  1  0
 31 32  1  6
  7  5  1  0
 31 10  1  0
 31 13  1  0
 27 15  1  0
 24 18  1  0
  1 33  1  0
  1 34  1  0
  1 35  1  0
  2 36  1  1
  3 37  1  0
  3 38  1  0
  4 39  1  0
  4 40  1  0
  5 41  1  6
  8 42  1  0
  8 43  1  0
  8 44  1  0
  9 45  1  0
  9 46  1  0
  9 47  1  0
 10 48  1  1
 11 49  1  0
 11 50  1  0
 12 51  1  0
 12 52  1  0
 14 53  1  0
 14 54  1  0
 14 55  1  0
 15 56  1  6
 16 57  1  0
 16 58  1  0
 17 59  1  0
 19 60  1  1
 20 61  1  0
 20 62  1  0
 21 63  1  0
 21 64  1  0
 22 65  1  1
 23 66  1  0
 25 67  1  0
 25 68  1  0
 25 69  1  0
 26 70  1  0
 26 71  1  0
 26 72  1  0
 28 73  1  0
 28 74  1  0
 28 75  1  0
 29 76  1  0
 29 77  1  0
 30 78  1  0
 30 79  1  0
 32 80  1  0
 32 81  1  0
 32 82  1  0
M  END
>  <meeko>  (4) 
{"is_sidechain": [false], "intermolecular_energy": 2.731, "internal_energy": -0.839}

$$$$
EPH_relaxed_0001_pdb2pqr_Repair_330_r2_0001_out
     RDKit          3D

 82 86  0  0  0  0  0  0  0  0999 V2000
    3.2270   17.0910   -1.5240 C   0  0  0  0  0  0  0  0  0  0  0  0
    1.7170   17.2850   -1.3600 C   0  0  2  0  0  0  0  0  0  0  0  0
    1.3280   17.6120    0.0960 C   0  0  0  0  0  0  0  0  0  0  0  0
    0.9030   19.0670    0.3080 C   0  0  0  0  0  0  0  0  0  0  0  0
   -0.5720   19.1840    0.5500 C   0  0  2  0  0  0  0  0  0  0  0  0
   -1.3660   18.1790   -0.0940 O   0  0  0  0  0  0  0  0  0  0  0  0
   -1.5730   19.5300   -0.5360 C   0  0  0  0  0  0  0  0  0  0  0  0
   -1.1400   19.7830   -1.9450 C   0  0  0  0  0  0  0  0  0  0  0  0
   -2.8980   20.1000   -0.1320 C   0  0  0  0  0  0  0  0  0  0  0  0
    0.9780   16.0370   -1.8280 C   0  0  1  0  0  0  0  0  0  0  0  0
    0.4950   16.1460   -3.2990 C   0  0  0  0  0  0  0  0  0  0  0  0
    0.6050   14.7260   -3.9120 C   0  0  0  0  0  0  0  0  0  0  0  0
    0.8260   13.7930   -2.6980 C   0  0  1  0  0  0  0  0  0  0  0  0
   -0.5980   13.5630   -2.1040 C   0  0  0  0  0  0  0  0  0  0  0  0
    1.5550   12.4410   -2.9900 C   0  0  2  0  0  0  0  0  0  0  0  0
    0.8140   11.4940   -3.9500 C   0  0  0  0  0  0  0  0  0  0  0  0
   -0.1180   10.5270   -3.2980 C   0  0  0  0  0  0  0  0  0  0  0  0
   -0.1420   10.2270   -1.9860 C   0  0  0  0  0  0  0  0  0  0  0  0
    0.8990   10.8150   -1.0240 C   0  0  1  0  0  0  0  0  0  0  0  0
    1.4530    9.6900   -0.1110 C   0  0  0  0  0  0  0  0  0  0  0  0
    0.3480    8.9310    0.6180 C   0  0  0  0  0  0  0  0  0  0  0  0
   -0.6340    8.3130   -0.3730 C   0  0  2  0  0  0  0  0  0  0  0  0
    0.0400    7.2920   -1.1150 O   0  0  0  0  0  0  0  0  0  0  0  0
   -1.2510    9.3500   -1.3530 C   0  0  0  0  0  0  0  0  0  0  0  0
   -2.2250   10.2770   -0.5850 C   0  0  0  0  0  0  0  0  0  0  0  0
   -2.1120    8.5770   -2.3870 C   0  0  0  0  0  0  0  0  0  0  0  0
    2.0510   11.6800   -1.6950 C   0  0  1  0  0  0  0  0  0  0  0  0
    3.2210   10.7510   -2.1440 C   0  0  0  0  0  0  0  0  0  0  0  0
    2.6520   12.6590   -0.6180 C   0  0  0  0  0  0  0  0  0  0  0  0
    1.9600   14.0270   -0.4600 C   0  0  0  0  0  0  0  0  0  0  0  0
    1.7630   14.7010   -1.8210 C   0  0  2  0  0  0  0  0  0  0  0  0
    3.1810   14.9660   -2.4340 C   0  0  0  0  0  0  0  0  0  0  0  0
    3.6988   17.0304   -0.5321 H   0  0  0  0  0  0  0  0  0  0  0  0
    3.4191   16.1608   -2.0788 H   0  0  0  0  0  0  0  0  0  0  0  0
    3.6480   17.9424   -2.0788 H   0  0  0  0  0  0  0  0  0  0  0  0
    1.4252   18.1447   -1.9811 H   0  0  0  0  0  0  0  0  0  0  0  0
    0.4910   16.9600    0.3865 H   0  0  0  0  0  0  0  0  0  0  0  0
    2.2235   17.4459    0.7128 H   0  0  0  0  0  0  0  0  0  0  0  0
    1.4403   19.4722    1.1781 H   0  0  0  0  0  0  0  0  0  0  0  0
    1.1469   19.6319   -0.6038 H   0  0  0  0  0  0  0  0  0  0  0  0
   -0.3981   19.6006    1.5531 H   0  0  0  0  0  0  0  0  0  0  0  0
   -0.1902   20.3379   -1.9427 H   0  0  0  0  0  0  0  0  0  0  0  0
   -1.0025   18.8231   -2.4643 H   0  0  0  0  0  0  0  0  0  0  0  0
   -1.9087   20.3740   -2.4643 H   0  0  0  0  0  0  0  0  0  0  0  0
   -2.9654   20.1290    0.9656 H   0  0  0  0  0  0  0  0  0  0  0  0
   -2.9959   21.1198   -0.5324 H   0  0  0  0  0  0  0  0  0  0  0  0
   -3.7057   19.4698   -0.5324 H   0  0  0  0  0  0  0  0  0  0  0  0
    0.1749   16.0052   -1.0770 H   0  0  0  0  0  0  0  0  0  0  0  0
   -0.5486   16.4924   -3.3304 H   0  0  0  0  0  0  0  0  0  0  0  0
    1.1044   16.8679   -3.8625 H   0  0  0  0  0  0  0  0  0  0  0  0
   -0.3207   14.4595   -4.4431 H   0  0  0  0  0  0  0  0  0  0  0  0
    1.4183   14.6516   -4.6489 H   0  0  0  0  0  0  0  0  0  0  0  0
   -0.5429   13.5719   -1.0054 H   0  0  0  0  0  0  0  0  0  0  0  0
   -1.2708   14.3641   -2.4439 H   0  0  0  0  0  0  0  0  0  0  0  0
   -0.9844   12.5908   -2.4439 H   0  0  0  0  0  0  0  0  0  0  0  0
    2.4545   12.7698   -3.5311 H   0  0  0  0  0  0  0  0  0  0  0  0
    0.2303   12.1088   -4.6509 H   0  0  0  0  0  0  0  0  0  0  0  0
    1.5904   10.8867   -4.4383 H   0  0  0  0  0  0  0  0  0  0  0  0
   -0.8469   10.0164   -3.9445 H   0  0  0  0  0  0  0  0  0  0  0  0
    0.3657   11.5603   -0.4156 H   0  0  0  0  0  0  0  0  0  0  0  0
    2.0191    8.9793   -0.7311 H   0  0  0  0  0  0  0  0  0  0  0  0
    2.0922   10.1617    0.6499 H   0  0  0  0  0  0  0  0  0  0  0  0
    0.7995    8.1314    1.2236 H   0  0  0  0  0  0  0  0  0  0  0  0
   -0.1987    9.6374    1.2600 H   0  0  0  0  0  0  0  0  0  0  0  0
   -1.4693    7.8957    0.2084 H   0  0  0  0  0  0  0  0  0  0  0  0
    0.7110    6.8990   -0.5320 H   0  0  0  0  0  0  0  0  0  0  0  0
   -2.0830   10.1419    0.4974 H   0  0  0  0  0  0  0  0  0  0  0  0
   -2.0227   11.3244   -0.8534 H   0  0  0  0  0  0  0  0  0  0  0  0
   -3.2611   10.0232   -0.8534 H   0  0  0  0  0  0  0  0  0  0  0  0
   -2.8297    7.9327   -1.8580 H   0  0  0  0  0  0  0  0  0  0  0  0
   -2.6583    9.2935   -3.0180 H   0  0  0  0  0  0  0  0  0  0  0  0
   -1.4583    7.9569   -3.0180 H   0  0  0  0  0  0  0  0  0  0  0  0
    3.7298   10.3470   -1.2563 H   0  0  0  0  0  0  0  0  0  0  0  0
    2.8206    9.9221   -2.7461 H   0  0  0  0  0  0  0  0  0  0  0  0
    3.9376   11.3288   -2.7461 H   0  0  0  0  0  0  0  0  0  0  0  0
    2.6086   12.1496    0.3560 H   0  0  0  0  0  0  0  0  0  0  0  0
    3.6675   12.8892   -0.9728 H   0  0  0  0  0  0  0  0  0  0  0  0
    0.9786   13.8813    0.0150 H   0  0  0  0  0  0  0  0  0  0  0  0
    2.5966   14.6727    0.1628 H   0  0  0  0  0  0  0  0  0  0  0  0
    3.9114   15.1025   -1.6229 H   0  0  0  0  0  0  0  0  0  0  0  0
    3.4784   14.1079   -3.0546 H   0  0  0  0  0  0  0  0  0  0  0  0
    3.1484   15.8736   -3.0546 H   0  0  0  0  0  0  0  0  0  0  0  0
  1  2  1  0
  2  3  1  0
  3  4  1  0
  4  5  1  0
  5  6  1  0
  6  7  1  0
  7  8  1  0
  7  9  1  0
  2 10  1  0
 10 11  1  0
 11 12  1  0
 12 13  1  0
 13 14  1  1
 13 15  1  0
 15 16  1  0
 16 17  1  0
 17 18  2  0
 18 19  1  0
 19 20  1  0
 20 21  1  0
 21 22  1  0
 22 23  1  0
 22 24  1  0
 24 25  1  0
 24 26  1  0
 19 27  1  0
 27 28  1  6
 27 29  1  0
 29 30  1  0
 30 31  1  0
 31 32  1  6
  7  5  1  0
 31 10  1  0
 31 13  1  0
 27 15  1  0
 24 18  1  0
  1 33  1  0
  1 34  1  0
  1 35  1  0
  2 36  1  6
  3 37  1  0
  3 38  1  0
  4 39  1  0
  4 40  1  0
  5 41  1  1
  8 42  1  0
  8 43  1  0
  8 44  1  0
  9 45  1  0
  9 46  1  0
  9 47  1  0
 10 48  1  1
 11 49  1  0
 11 50  1  0
 12 51  1  0
 12 52  1  0
 14 53  1  0
 14 54  1  0
 14 55  1  0
 15 56  1  6
 16 57  1  0
 16 58  1  0
 17 59  1  0
 19 60  1  1
 20 61  1  0
 20 62  1  0
 21 63  1  0
 21 64  1  0
 22 65  1  1
 23 66  1  0
 25 67  1  0
 25 68  1  0
 25 69  1  0
 26 70  1  0
 26 71  1  0
 26 72  1  0
 28 73  1  0
 28 74  1  0
 28 75  1  0
 29 76  1  0
 29 77  1  0
 30 78  1  0
 30 79  1  0
 32 80  1  0
 32 81  1  0
 32 82  1  0
M  END
>  <meeko>  (5) 
{"is_sidechain": [false], "intermolecular_energy": 2.731, "internal_energy": -0.839}

$$$$
EPH_relaxed_0001_pdb2pqr_Repair_330_r2_0001_out
     RDKit          3D

 82 86  0  0  0  0  0  0  0  0999 V2000
    3.8460   17.8000    1.0760 C   0  0  0  0  0  0  0  0  0  0  0  0
    2.9330   18.2910   -0.0510 C   0  0  2  0  0  0  0  0  0  0  0  0
    2.1840   19.5840    0.3300 C   0  0  0  0  0  0  0  0  0  0  0  0
    0.9130   19.3410    1.1480 C   0  0  0  0  0  0  0  0  0  0  0  0
   -0.2780   20.0120    0.5340 C   0  0  2  0  0  0  0  0  0  0  0  0
   -1.3870   20.1940    1.4240 O   0  0  0  0  0  0  0  0  0  0  0  0
   -1.6070   19.3150    0.3090 C   0  0  0  0  0  0  0  0  0  0  0  0
   -1.8120   17.8830    0.6940 C   0  0  0  0  0  0  0  0  0  0  0  0
   -2.5400   19.8700   -0.7220 C   0  0  0  0  0  0  0  0  0  0  0  0
    1.9340   17.2010   -0.4230 C   0  0  1  0  0  0  0  0  0  0  0  0
    0.8080   17.7170   -1.3590 C   0  0  0  0  0  0  0  0  0  0  0  0
    0.4560   16.5520   -2.3190 C   0  0  0  0  0  0  0  0  0  0  0  0
    1.1440   15.3130   -1.6980 C   0  0  1  0  0  0  0  0  0  0  0  0
    0.1760   14.8410   -0.5680 C   0  0  0  0  0  0  0  0  0  0  0  0
    1.4930   14.1500   -2.6830 C   0  0  2  0  0  0  0  0  0  0  0  0
    0.2830   13.4930   -3.3710 C   0  0  0  0  0  0  0  0  0  0  0  0
   -0.3070   12.3280   -2.6480 C   0  0  0  0  0  0  0  0  0  0  0  0
    0.2810   11.6510   -1.6440 C   0  0  0  0  0  0  0  0  0  0  0  0
    1.7140   11.9800   -1.2060 C   0  0  1  0  0  0  0  0  0  0  0  0
    2.5230   10.6650   -1.0500 C   0  0  0  0  0  0  0  0  0  0  0  0
    1.8430    9.6660   -0.1190 C   0  0  0  0  0  0  0  0  0  0  0  0
    0.4430    9.3200   -0.6200 C   0  0  2  0  0  0  0  0  0  0  0  0
    0.5590    8.6030   -1.8540 O   0  0  0  0  0  0  0  0  0  0  0  0
   -0.4610   10.5670   -0.8240 C   0  0  0  0  0  0  0  0  0  0  0  0
   -0.8340   11.1710    0.5530 C   0  0  0  0  0  0  0  0  0  0  0  0
   -1.7940   10.0920   -1.4640 C   0  0  0  0  0  0  0  0  0  0  0  0
    2.4760   13.0650   -2.0820 C   0  0  1  0  0  0  0  0  0  0  0  0
    3.1720   12.3760   -3.2950 C   0  0  0  0  0  0  0  0  0  0  0  0
    3.6230   13.7100   -1.2190 C   0  0  0  0  0  0  0  0  0  0  0  0
    3.2430   14.9300   -0.3580 C   0  0  0  0  0  0  0  0  0  0  0  0
    2.4780   15.9680   -1.1860 C   0  0  2  0  0  0  0  0  0  0  0  0
    3.4350   16.4770   -2.3170 C   0  0  0  0  0  0  0  0  0  0  0  0
    3.3924   18.0440    2.0480 H   0  0  0  0  0  0  0  0  0  0  0  0
    3.9753   16.7107    0.9948 H   0  0  0  0  0  0  0  0  0  0  0  0
    4.8261   18.2927    0.9948 H   0  0  0  0  0  0  0  0  0  0  0  0
    3.5711   18.5219   -0.9168 H   0  0  0  0  0  0  0  0  0  0  0  0
    2.8621   20.2166    0.9217 H   0  0  0  0  0  0  0  0  0  0  0  0
    1.8744   20.0648   -0.6097 H   0  0  0  0  0  0  0  0  0  0  0  0
    0.7245   18.2586    1.2007 H   0  0  0  0  0  0  0  0  0  0  0  0
    1.0652   19.7640    2.1519 H   0  0  0  0  0  0  0  0  0  0  0  0
    0.3681   20.6017   -0.1330 H   0  0  0  0  0  0  0  0  0  0  0  0
   -1.8244   17.7963    1.7905 H   0  0  0  0  0  0  0  0  0  0  0  0
   -2.7702   17.5275    0.2872 H   0  0  0  0  0  0  0  0  0  0  0  0
   -0.9920   17.2729    0.2872 H   0  0  0  0  0  0  0  0  0  0  0  0
   -3.3823   20.3710   -0.2225 H   0  0  0  0  0  0  0  0  0  0  0  0
   -2.0024   20.5953   -1.3505 H   0  0  0  0  0  0  0  0  0  0  0  0
   -2.9208   19.0515   -1.3505 H   0  0  0  0  0  0  0  0  0  0  0  0
    1.6018   16.9044    0.5828 H   0  0  0  0  0  0  0  0  0  0  0  0
   -0.0753   18.0011   -0.7682 H   0  0  0  0  0  0  0  0  0  0  0  0
    1.1359   18.6051   -1.9191 H   0  0  0  0  0  0  0  0  0  0  0  0
   -0.6331   16.4065   -2.3701 H   0  0  0  0  0  0  0  0  0  0  0  0
    0.7925   16.7437   -3.3486 H   0  0  0  0  0  0  0  0  0  0  0  0
    0.6234   15.0592    0.4129 H   0  0  0  0  0  0  0  0  0  0  0  0
   -0.7824   15.3729   -0.6603 H   0  0  0  0  0  0  0  0  0  0  0  0
    0.0049   13.7583   -0.6603 H   0  0  0  0  0  0  0  0  0  0  0  0
    2.0428   14.6720   -3.4800 H   0  0  0  0  0  0  0  0  0  0  0  0
   -0.5009   14.2567   -3.4818 H   0  0  0  0  0  0  0  0  0  0  0  0
    0.6542   13.1001   -4.3291 H   0  0  0  0  0  0  0  0  0  0  0  0
   -1.3070   11.9944   -2.9622 H   0  0  0  0  0  0  0  0  0  0  0  0
    1.6256   12.4819   -0.2312 H   0  0  0  0  0  0  0  0  0  0  0  0
    2.6373   10.2018   -2.0411 H   0  0  0  0  0  0  0  0  0  0  0  0
    3.4969   10.9229   -0.6085 H   0  0  0  0  0  0  0  0  0  0  0  0
    2.4465    8.7475   -0.0737 H   0  0  0  0  0  0  0  0  0  0  0  0
    1.7569   10.1188    0.8798 H   0  0  0  0  0  0  0  0  0  0  0  0
   -0.0410    8.7054    0.1533 H   0  0  0  0  0  0  0  0  0  0  0  0
   -0.1380    7.9260   -1.8670 H   0  0  0  0  0  0  0  0  0  0  0  0
   -0.4379   10.5296    1.3541 H   0  0  0  0  0  0  0  0  0  0  0  0
   -0.4003   12.1780    0.6413 H   0  0  0  0  0  0  0  0  0  0  0  0
   -1.9286   11.2342    0.6413 H   0  0  0  0  0  0  0  0  0  0  0  0
   -2.5113    9.8364   -0.6702 H   0  0  0  0  0  0  0  0  0  0  0  0
   -2.2089   10.8976   -2.0876 H   0  0  0  0  0  0  0  0  0  0  0  0
   -1.6059    9.2055   -2.0876 H   0  0  0  0  0  0  0  0  0  0  0  0
    3.9091   11.6463   -2.9288 H   0  0  0  0  0  0  0  0  0  0  0  0
    2.4171   11.8595   -3.9060 H   0  0  0  0  0  0  0  0  0  0  0  0
    3.6808   13.1361   -3.9060 H   0  0  0  0  0  0  0  0  0  0  0  0
    4.0078   12.9325   -0.5427 H   0  0  0  0  0  0  0  0  0  0  0  0
    4.3534   14.0893   -1.9488 H   0  0  0  0  0  0  0  0  0  0  0  0
    2.6091   14.5977    0.4773 H   0  0  0  0  0  0  0  0  0  0  0  0
    4.1659   15.3938    0.0203 H   0  0  0  0  0  0  0  0  0  0  0  0
    4.3201   16.9477   -1.8641 H   0  0  0  0  0  0  0  0  0  0  0  0
    3.7502   15.6274   -2.9405 H   0  0  0  0  0  0  0  0  0  0  0  0
    2.9067   17.2133   -2.9405 H   0  0  0  0  0  0  0  0  0  0  0  0
  1  2  1  0
  2  3  1  0
  3  4  1  0
  4  5  1  0
  5  6  1  0
  6  7  1  0
  7  8  1  0
  7  9  1  0
  2 10  1  0
 10 11  1  0
 11 12  1  0
 12 13  1  0
 13 14  1  1
 13 15  1  0
 15 16  1  0
 16 17  1  0
 17 18  2  0
 18 19  1  0
 19 20  1  0
 20 21  1  0
 21 22  1  0
 22 23  1  0
 22 24  1  0
 24 25  1  0
 24 26  1  0
 19 27  1  0
 27 28  1  6
 27 29  1  0
 29 30  1  0
 30 31  1  0
 31 32  1  6
  7  5  1  0
 31 10  1  0
 31 13  1  0
 27 15  1  0
 24 18  1  0
  1 33  1  0
  1 34  1  0
  1 35  1  0
  2 36  1  6
  3 37  1  0
  3 38  1  0
  4 39  1  0
  4 40  1  0
  5 41  1  6
  8 42  1  0
  8 43  1  0
  8 44  1  0
  9 45  1  0
  9 46  1  0
  9 47  1  0
 10 48  1  1
 11 49  1  0
 11 50  1  0
 12 51  1  0
 12 52  1  0
 14 53  1  0
 14 54  1  0
 14 55  1  0
 15 56  1  6
 16 57  1  0
 16 58  1  0
 17 59  1  0
 19 60  1  1
 20 61  1  0
 20 62  1  0
 21 63  1  0
 21 64  1  0
 22 65  1  1
 23 66  1  0
 25 67  1  0
 25 68  1  0
 25 69  1  0
 26 70  1  0
 26 71  1  0
 26 72  1  0
 28 73  1  0
 28 74  1  0
 28 75  1  0
 29 76  1  0
 29 77  1  0
 30 78  1  0
 30 79  1  0
 32 80  1  0
 32 81  1  0
 32 82  1  0
M  END
>  <meeko>  (6) 
{"is_sidechain": [false], "intermolecular_energy": 2.731, "internal_energy": -0.839}

$$$$
EPH_relaxed_0001_pdb2pqr_Repair_330_r2_0001_out
     RDKit          3D

 82 86  0  0  0  0  0  0  0  0999 V2000
   -2.5990    7.5890   -3.0540 C   0  0  0  0  0  0  0  0  0  0  0  0
   -2.8890    7.8530   -1.5730 C   0  0  2  0  0  0  0  0  0  0  0  0
   -4.3980    7.8110   -1.2610 C   0  0  0  0  0  0  0  0  0  0  0  0
   -5.1260    6.6230   -1.8950 C   0  0  0  0  0  0  0  0  0  0  0  0
   -6.3280    7.0620   -2.6760 C   0  0  2  0  0  0  0  0  0  0  0  0
   -6.8940    8.3100   -2.2530 O   0  0  0  0  0  0  0  0  0  0  0  0
   -7.7230    7.1490   -2.0860 C   0  0  0  0  0  0  0  0  0  0  0  0
   -7.9900    6.7920   -0.6580 C   0  0  0  0  0  0  0  0  0  0  0  0
   -8.8960    7.1070   -3.0150 C   0  0  0  0  0  0  0  0  0  0  0  0
   -2.3090    9.2010   -1.1630 C   0  0  1  0  0  0  0  0  0  0  0  0
   -2.8230    9.6750    0.2230 C   0  0  0  0  0  0  0  0  0  0  0  0
   -1.6510   10.4320    0.9000 C   0  0  0  0  0  0  0  0  0  0  0  0
   -0.6240   10.6560   -0.2350 C   0  0  1  0  0  0  0  0  0  0  0  0
   -1.1490   11.9050   -1.0100 C   0  0  0  0  0  0  0  0  0  0  0  0
    0.8650   10.8340    0.2060 C   0  0  2  0  0  0  0  0  0  0  0  0
    1.1410   12.0620    1.0910 C   0  0  0  0  0  0  0  0  0  0  0  0
    1.5040   13.3090    0.3550 C   0  0  0  0  0  0  0  0  0  0  0  0
    1.8810   13.3750   -0.9350 C   0  0  0  0  0  0  0  0  0  0  0  0
    2.0680   12.0990   -1.7670 C   0  0  1  0  0  0  0  0  0  0  0  0
    3.4040   12.1840   -2.5510 C   0  0  0  0  0  0  0  0  0  0  0  0
    3.5080   13.4510   -3.3950 C   0  0  0  0  0  0  0  0  0  0  0  0
    3.3750   14.6980   -2.5240 C   0  0  2  0  0  0  0  0  0  0  0  0
    4.5110   14.7780   -1.6580 O   0  0  0  0  0  0  0  0  0  0  0  0
    2.0710   14.7200   -1.6790 C   0  0  0  0  0  0  0  0  0  0  0  0
    0.8520   14.9370   -2.6090 C   0  0  0  0  0  0  0  0  0  0  0  0
    2.1290   15.9570   -0.7440 C   0  0  0  0  0  0  0  0  0  0  0  0
    1.9090   10.7290   -0.9790 C   0  0  1  0  0  0  0  0  0  0  0  0
    3.2710   10.3220   -0.3370 C   0  0  0  0  0  0  0  0  0  0  0  0
    1.5420    9.5880   -2.0000 C   0  0  0  0  0  0  0  0  0  0  0  0
    0.0450    9.3830   -2.3040 C   0  0  0  0  0  0  0  0  0  0  0  0
   -0.7700    9.2960   -1.0100 C   0  0  2  0  0  0  0  0  0  0  0  0
   -0.2790    8.0350   -0.2200 C   0  0  0  0  0  0  0  0  0  0  0  0
   -1.7882    6.8509   -3.1430 H   0  0  0  0  0  0  0  0  0  0  0  0
   -3.5049    7.1991   -3.5412 H   0  0  0  0  0  0  0  0  0  0  0  0
   -2.2957    8.5274   -3.5412 H   0  0  0  0  0  0  0  0  0  0  0  0
   -2.4099    7.0505   -0.9930 H   0  0  0  0  0  0  0  0  0  0  0  0
   -4.5253    7.7539   -0.1699 H   0  0  0  0  0  0  0  0  0  0  0  0
   -4.8396    8.7232   -1.6886 H   0  0  0  0  0  0  0  0  0  0  0  0
   -4.4334    6.0998   -2.5707 H   0  0  0  0  0  0  0  0  0  0  0  0
   -5.4659    5.9583   -1.0872 H   0  0  0  0  0  0  0  0  0  0  0  0
   -5.9406    6.5821   -3.5869 H   0  0  0  0  0  0  0  0  0  0  0  0
   -7.4625    7.4973    0.0011 H   0  0  0  0  0  0  0  0  0  0  0  0
   -9.0711    6.8460   -0.4625 H   0  0  0  0  0  0  0  0  0  0  0  0
   -7.6327    5.7702   -0.4625 H   0  0  0  0  0  0  0  0  0  0  0  0
   -9.8265    7.0737   -2.4294 H   0  0  0  0  0  0  0  0  0  0  0  0
   -8.8939    8.0058   -3.6492 H   0  0  0  0  0  0  0  0  0  0  0  0
   -8.8296    6.2107   -3.6492 H   0  0  0  0  0  0  0  0  0  0  0  0
   -2.6410    9.8121   -2.0152 H   0  0  0  0  0  0  0  0  0  0  0  0
   -3.6854   10.3462    0.0979 H   0  0  0  0  0  0  0  0  0  0  0  0
   -3.1488    8.8219    0.8363 H   0  0  0  0  0  0  0  0  0  0  0  0
   -1.9944   11.3939    1.3085 H   0  0  0  0  0  0  0  0  0  0  0  0
   -1.2241    9.8708    1.7442 H   0  0  0  0  0  0  0  0  0  0  0  0
   -1.4719   12.6731   -0.2918 H   0  0  0  0  0  0  0  0  0  0  0  0
   -0.3446   12.3091   -1.6422 H   0  0  0  0  0  0  0  0  0  0  0  0
   -2.0005   11.6130   -1.6422 H   0  0  0  0  0  0  0  0  0  0  0  0
    1.0260    9.9582    0.8518 H   0  0  0  0  0  0  0  0  0  0  0  0
    0.2352   12.2667    1.6806 H   0  0  0  0  0  0  0  0  0  0  0  0
    2.0169   11.8046    1.7046 H   0  0  0  0  0  0  0  0  0  0  0  0
    1.4595   14.2547    0.9151 H   0  0  0  0  0  0  0  0  0  0  0  0
    1.2234   12.0676   -2.4710 H   0  0  0  0  0  0  0  0  0  0  0  0
    4.2363   12.1701   -1.8319 H   0  0  0  0  0  0  0  0  0  0  0  0
    3.4451   11.3233   -3.2347 H   0  0  0  0  0  0  0  0  0  0  0  0
    4.4846   13.4676   -3.9010 H   0  0  0  0  0  0  0  0  0  0  0  0
    2.6927   13.4494   -4.1335 H   0  0  0  0  0  0  0  0  0  0  0  0
    3.3261   15.5666   -3.1971 H   0  0  0  0  0  0  0  0  0  0  0  0
    4.5430   15.6810   -1.2980 H   0  0  0  0  0  0  0  0  0  0  0  0
   -0.0498   15.0975   -2.0000 H   0  0  0  0  0  0  0  0  0  0  0  0
    1.0274   15.8180   -3.2438 H   0  0  0  0  0  0  0  0  0  0  0  0
    0.7126   14.0496   -3.2438 H   0  0  0  0  0  0  0  0  0  0  0  0
    2.1134   15.6251    0.3046 H   0  0  0  0  0  0  0  0  0  0  0  0
    3.0545   16.5194   -0.9369 H   0  0  0  0  0  0  0  0  0  0  0  0
    1.2602   16.6035   -0.9369 H   0  0  0  0  0  0  0  0  0  0  0  0
    3.1822   10.3485    0.7591 H   0  0  0  0  0  0  0  0  0  0  0  0
    3.5385    9.3047   -0.6587 H   0  0  0  0  0  0  0  0  0  0  0  0
    4.0528   11.0258   -0.6587 H   0  0  0  0  0  0  0  0  0  0  0  0
    2.0463    9.8169   -2.9504 H   0  0  0  0  0  0  0  0  0  0  0  0
    1.8685    8.6545   -1.5183 H   0  0  0  0  0  0  0  0  0  0  0  0
   -0.3200   10.2304   -2.9029 H   0  0  0  0  0  0  0  0  0  0  0  0
   -0.0746    8.4403   -2.8581 H   0  0  0  0  0  0  0  0  0  0  0  0
   -0.3538    8.2272    0.8605 H   0  0  0  0  0  0  0  0  0  0  0  0
   -0.9062    7.1704   -0.4830 H   0  0  0  0  0  0  0  0  0  0  0  0
    0.7677    7.8222   -0.4830 H   0  0  0  0  0  0  0  0  0  0  0  0
  1  2  1  0
  2  3  1  0
  3  4  1  0
  4  5  1  0
  5  6  1  0
  6  7  1  0
  7  8  1  0
  7  9  1  0
  2 10  1  0
 10 11  1  0
 11 12  1  0
 12 13  1  0
 13 14  1  6
 13 15  1  0
 15 16  1  0
 16 17  1  0
 17 18  2  0
 18 19  1  0
 19 20  1  0
 20 21  1  0
 21 22  1  0
 22 23  1  0
 22 24  1  0
 24 25  1  0
 24 26  1  0
 19 27  1  0
 27 28  1  1
 27 29  1  0
 29 30  1  0
 30 31  1  0
 31 32  1  1
  7  5  1  0
 31 10  1  0
 31 13  1  0
 27 15  1  0
 24 18  1  0
  1 33  1  0
  1 34  1  0
  1 35  1  0
  2 36  1  1
  3 37  1  0
  3 38  1  0
  4 39  1  0
  4 40  1  0
  5 41  1  6
  8 42  1  0
  8 43  1  0
  8 44  1  0
  9 45  1  0
  9 46  1  0
  9 47  1  0
 10 48  1  6
 11 49  1  0
 11 50  1  0
 12 51  1  0
 12 52  1  0
 14 53  1  0
 14 54  1  0
 14 55  1  0
 15 56  1  1
 16 57  1  0
 16 58  1  0
 17 59  1  0
 19 60  1  6
 20 61  1  0
 20 62  1  0
 21 63  1  0
 21 64  1  0
 22 65  1  6
 23 66  1  0
 25 67  1  0
 25 68  1  0
 25 69  1  0
 26 70  1  0
 26 71  1  0
 26 72  1  0
 28 73  1  0
 28 74  1  0
 28 75  1  0
 29 76  1  0
 29 77  1  0
 30 78  1  0
 30 79  1  0
 32 80  1  0
 32 81  1  0
 32 82  1  0
M  END
>  <meeko>  (7) 
{"is_sidechain": [false], "intermolecular_energy": 2.731, "internal_energy": -0.839}

$$$$
EPH_relaxed_0001_pdb2pqr_Repair_330_r2_0001_out
     RDKit          3D

 82 86  0  0  0  0  0  0  0  0999 V2000
    1.5330   17.6590   -2.7800 C   0  0  0  0  0  0  0  0  0  0  0  0
    2.6740   16.9760   -2.0200 C   0  0  2  0  0  0  0  0  0  0  0  0
    4.0570   17.4980   -2.4570 C   0  0  0  0  0  0  0  0  0  0  0  0
    5.0330   17.7050   -1.2950 C   0  0  0  0  0  0  0  0  0  0  0  0
    4.3120   17.9270    0.0000 C   0  0  2  0  0  0  0  0  0  0  0  0
    3.8220   19.2600    0.1910 O   0  0  0  0  0  0  0  0  0  0  0  0
    4.8380   18.8220    1.1070 C   0  0  0  0  0  0  0  0  0  0  0  0
    6.1370   19.5520    0.9690 C   0  0  0  0  0  0  0  0  0  0  0  0
    4.3390   18.6030    2.5020 C   0  0  0  0  0  0  0  0  0  0  0  0
    2.6000   15.4660   -2.2180 C   0  0  1  0  0  0  0  0  0  0  0  0
    3.9810   14.8390   -2.5480 C   0  0  0  0  0  0  0  0  0  0  0  0
    4.0070   13.4390   -1.8810 C   0  0  0  0  0  0  0  0  0  0  0  0
    2.5380   13.1720   -1.4770 C   0  0  1  0  0  0  0  0  0  0  0  0
    1.8460   12.6750   -2.7860 C   0  0  0  0  0  0  0  0  0  0  0  0
    2.3170   12.1760   -0.2930 C   0  0  2  0  0  0  0  0  0  0  0  0
    2.8110   10.7410   -0.5470 C   0  0  0  0  0  0  0  0  0  0  0  0
    1.8040    9.8150   -1.1440 C   0  0  0  0  0  0  0  0  0  0  0  0
    0.4770   10.0360   -1.2020 C   0  0  0  0  0  0  0  0  0  0  0  0
   -0.1460   11.2730   -0.5430 C   0  0  1  0  0  0  0  0  0  0  0  0
   -1.3980   10.8520    0.2690 C   0  0  0  0  0  0  0  0  0  0  0  0
   -2.4040   10.0700   -0.5700 C   0  0  0  0  0  0  0  0  0  0  0  0
   -1.7630    8.8160   -1.1600 C   0  0  2  0  0  0  0  0  0  0  0  0
   -1.4440    7.9160   -0.0950 O   0  0  0  0  0  0  0  0  0  0  0  0
   -0.4850    9.1150   -1.9930 C   0  0  0  0  0  0  0  0  0  0  0  0
   -0.8770    9.8350   -3.3070 C   0  0  0  0  0  0  0  0  0  0  0  0
    0.1400    7.7570   -2.4120 C   0  0  0  0  0  0  0  0  0  0  0  0
    0.8480   12.1850    0.2970 C   0  0  1  0  0  0  0  0  0  0  0  0
    0.9520   11.6530    1.7590 C   0  0  0  0  0  0  0  0  0  0  0  0
    0.2530   13.6390    0.3950 C   0  0  0  0  0  0  0  0  0  0  0  0
    0.6050   14.6130   -0.7450 C   0  0  0  0  0  0  0  0  0  0  0  0
    2.1120   14.6150   -1.0190 C   0  0  2  0  0  0  0  0  0  0  0  0
    2.8330   15.1320    0.2720 C   0  0  0  0  0  0  0  0  0  0  0  0
    0.8183   18.0868   -2.0615 H   0  0  0  0  0  0  0  0  0  0  0  0
    1.9419   18.4610   -3.4121 H   0  0  0  0  0  0  0  0  0  0  0  0
    1.0193   16.9197   -3.4121 H   0  0  0  0  0  0  0  0  0  0  0  0
    2.5524   17.2173   -0.9537 H   0  0  0  0  0  0  0  0  0  0  0  0
    4.4977   16.7711   -3.1552 H   0  0  0  0  0  0  0  0  0  0  0  0
    3.8968   18.4824   -2.9211 H   0  0  0  0  0  0  0  0  0  0  0  0
    5.6695   16.8128   -1.2005 H   0  0  0  0  0  0  0  0  0  0  0  0
    5.6374   18.5988   -1.5092 H   0  0  0  0  0  0  0  0  0  0  0  0
    3.9449   16.8901    0.0010 H   0  0  0  0  0  0  0  0  0  0  0  0
    6.5387   19.7777    1.9679 H   0  0  0  0  0  0  0  0  0  0  0  0
    6.8536   18.9245    0.4189 H   0  0  0  0  0  0  0  0  0  0  0  0
    5.9736   20.4904    0.4189 H   0  0  0  0  0  0  0  0  0  0  0  0
    5.1014   18.9376    3.2209 H   0  0  0  0  0  0  0  0  0  0  0  0
    3.4136   19.1777    2.6549 H   0  0  0  0  0  0  0  0  0  0  0  0
    4.1355   17.5329    2.6549 H   0  0  0  0  0  0  0  0  0  0  0  0
    1.8640   15.4222   -3.0343 H   0  0  0  0  0  0  0  0  0  0  0  0
    4.1027   14.7422   -3.6370 H   0  0  0  0  0  0  0  0  0  0  0  0
    4.8009   15.4700   -2.1745 H   0  0  0  0  0  0  0  0  0  0  0  0
    4.3590   12.6767   -2.5917 H   0  0  0  0  0  0  0  0  0  0  0  0
    4.6902   13.3998   -1.0198 H   0  0  0  0  0  0  0  0  0  0  0  0
    0.9776   12.0513   -2.5276 H   0  0  0  0  0  0  0  0  0  0  0  0
    1.5126   13.5413   -3.3762 H   0  0  0  0  0  0  0  0  0  0  0  0
    2.5605   12.0823   -3.3762 H   0  0  0  0  0  0  0  0  0  0  0  0
    2.9764   12.5863    0.4860 H   0  0  0  0  0  0  0  0  0  0  0  0
    3.6711   10.7939   -1.2307 H   0  0  0  0  0  0  0  0  0  0  0  0
    3.0576   10.3253    0.4411 H   0  0  0  0  0  0  0  0  0  0  0  0
    2.1772    8.8731   -1.5725 H   0  0  0  0  0  0  0  0  0  0  0  0
   -0.4424   11.9396   -1.3663 H   0  0  0  0  0  0  0  0  0  0  0  0
   -1.0764   10.2222    1.1115 H   0  0  0  0  0  0  0  0  0  0  0  0
   -1.8949   11.7699    0.6161 H   0  0  0  0  0  0  0  0  0  0  0  0
   -3.2520    9.7759    0.0659 H   0  0  0  0  0  0  0  0  0  0  0  0
   -2.7471   10.7111   -1.3954 H   0  0  0  0  0  0  0  0  0  0  0  0
   -2.4909    8.3685   -1.8527 H   0  0  0  0  0  0  0  0  0  0  0  0
   -1.5150    7.0110   -0.4430 H   0  0  0  0  0  0  0  0  0  0  0  0
   -1.3905   10.7782   -3.0691 H   0  0  0  0  0  0  0  0  0  0  0  0
    0.0294   10.0485   -3.8926 H   0  0  0  0  0  0  0  0  0  0  0  0
   -1.5483    9.1896   -3.8926 H   0  0  0  0  0  0  0  0  0  0  0  0
    0.4046    7.1820   -1.5123 H   0  0  0  0  0  0  0  0  0  0  0  0
   -0.5868    7.1879   -3.0103 H   0  0  0  0  0  0  0  0  0  0  0  0
    1.0450    7.9389   -3.0103 H   0  0  0  0  0  0  0  0  0  0  0  0
    0.7899   12.4822    2.4633 H   0  0  0  0  0  0  0  0  0  0  0  0
    0.1883   10.8784    1.9225 H   0  0  0  0  0  0  0  0  0  0  0  0
    1.9512   11.2230    1.9225 H   0  0  0  0  0  0  0  0  0  0  0  0
   -0.8427   13.5483    0.4285 H   0  0  0  0  0  0  0  0  0  0  0  0
    0.7079   14.0754    1.2964 H   0  0  0  0  0  0  0  0  0  0  0  0
    0.0737   14.3055   -1.6578 H   0  0  0  0  0  0  0  0  0  0  0  0
    0.3017   15.6272   -0.4459 H   0  0  0  0  0  0  0  0  0  0  0  0
    2.3072   14.7549    1.1616 H   0  0  0  0  0  0  0  0  0  0  0  0
    3.8724   14.7722    0.2805 H   0  0  0  0  0  0  0  0  0  0  0  0
    2.8257   16.2319    0.2805 H   0  0  0  0  0  0  0  0  0  0  0  0
  1  2  1  0
  2  3  1  0
  3  4  1  0
  4  5  1  0
  5  6  1  0
  6  7  1  0
  7  8  1  0
  7  9  1  0
  2 10  1  0
 10 11  1  0
 11 12  1  0
 12 13  1  0
 13 14  1  6
 13 15  1  0
 15 16  1  0
 16 17  1  0
 17 18  2  0
 18 19  1  0
 19 20  1  0
 20 21  1  0
 21 22  1  0
 22 23  1  0
 22 24  1  0
 24 25  1  0
 24 26  1  0
 19 27  1  0
 27 28  1  1
 27 29  1  0
 29 30  1  0
 30 31  1  0
 31 32  1  1
  7  5  1  0
 31 10  1  0
 31 13  1  0
 27 15  1  0
 24 18  1  0
  1 33  1  0
  1 34  1  0
  1 35  1  0
  2 36  1  1
  3 37  1  0
  3 38  1  0
  4 39  1  0
  4 40  1  0
  5 41  1  1
  8 42  1  0
  8 43  1  0
  8 44  1  0
  9 45  1  0
  9 46  1  0
  9 47  1  0
 10 48  1  6
 11 49  1  0
 11 50  1  0
 12 51  1  0
 12 52  1  0
 14 53  1  0
 14 54  1  0
 14 55  1  0
 15 56  1  1
 16 57  1  0
 16 58  1  0
 17 59  1  0
 19 60  1  6
 20 61  1  0
 20 62  1  0
 21 63  1  0
 21 64  1  0
 22 65  1  6
 23 66  1  0
 25 67  1  0
 25 68  1  0
 25 69  1  0
 26 70  1  0
 26 71  1  0
 26 72  1  0
 28 73  1  0
 28 74  1  0
 28 75  1  0
 29 76  1  0
 29 77  1  0
 30 78  1  0
 30 79  1  0
 32 80  1  0
 32 81  1  0
 32 82  1  0
M  END
>  <meeko>  (8) 
{"is_sidechain": [false], "intermolecular_energy": 2.731, "internal_energy": -0.839}

$$$$
EPH_relaxed_0001_pdb2pqr_Repair_330_r2_0001_out
     RDKit          3D

 82 86  0  0  0  0  0  0  0  0999 V2000
    4.2820   17.4020   -1.8190 C   0  0  0  0  0  0  0  0  0  0  0  0
    2.8670   17.0080   -2.2490 C   0  0  2  0  0  0  0  0  0  0  0  0
    1.7970   17.5150   -1.2610 C   0  0  0  0  0  0  0  0  0  0  0  0
    0.4280   17.7530   -1.9040 C   0  0  0  0  0  0  0  0  0  0  0  0
   -0.2870   18.9100   -1.2740 C   0  0  2  0  0  0  0  0  0  0  0  0
    0.1500   19.2320    0.0530 O   0  0  0  0  0  0  0  0  0  0  0  0
   -1.2050   18.7720   -0.0730 C   0  0  0  0  0  0  0  0  0  0  0  0
   -1.4580   17.4430    0.5670 C   0  0  0  0  0  0  0  0  0  0  0  0
   -2.2280   19.8370    0.1700 C   0  0  0  0  0  0  0  0  0  0  0  0
    2.7690   15.4930   -2.3900 C   0  0  1  0  0  0  0  0  0  0  0  0
    4.1470   14.8280   -2.6480 C   0  0  0  0  0  0  0  0  0  0  0  0
    4.1230   13.4560   -1.9260 C   0  0  0  0  0  0  0  0  0  0  0  0
    2.6370   13.2320   -1.5630 C   0  0  1  0  0  0  0  0  0  0  0  0
    1.9790   12.6960   -2.8730 C   0  0  0  0  0  0  0  0  0  0  0  0
    2.3570   12.2880   -0.3480 C   0  0  2  0  0  0  0  0  0  0  0  0
    2.8300   10.8350   -0.5280 C   0  0  0  0  0  0  0  0  0  0  0  0
    1.8250    9.9060   -1.1230 C   0  0  0  0  0  0  0  0  0  0  0  0
    0.5060   10.1480   -1.2350 C   0  0  0  0  0  0  0  0  0  0  0  0
   -0.1140   11.4220   -0.6460 C   0  0  1  0  0  0  0  0  0  0  0  0
   -1.4010   11.0580    0.1390 C   0  0  0  0  0  0  0  0  0  0  0  0
   -2.3930   10.2610   -0.7030 C   0  0  0  0  0  0  0  0  0  0  0  0
   -1.7590    8.9730   -1.2210 C   0  0  2  0  0  0  0  0  0  0  0  0
   -1.4930    8.1110   -0.1110 O   0  0  0  0  0  0  0  0  0  0  0  0
   -0.4480    9.2150   -2.0210 C   0  0  0  0  0  0  0  0  0  0  0  0
   -0.7810    9.8890   -3.3750 C   0  0  0  0  0  0  0  0  0  0  0  0
    0.1640    7.8300   -2.3640 C   0  0  0  0  0  0  0  0  0  0  0  0
    0.8700   12.3490    0.1900 C   0  0  1  0  0  0  0  0  0  0  0  0
    0.9150   11.8730    1.6750 C   0  0  0  0  0  0  0  0  0  0  0  0
    0.3000   13.8160    0.2110 C   0  0  0  0  0  0  0  0  0  0  0  0
    0.7100   14.7370   -0.9540 C   0  0  0  0  0  0  0  0  0  0  0  0
    2.2250   14.6990   -1.1770 C   0  0  2  0  0  0  0  0  0  0  0  0
    2.9120   15.2540    0.1170 C   0  0  0  0  0  0  0  0  0  0  0  0
    4.3403   17.4182   -0.7207 H   0  0  0  0  0  0  0  0  0  0  0  0
    5.0023   16.6702   -2.2136 H   0  0  0  0  0  0  0  0  0  0  0  0
    4.5204   18.4007   -2.2136 H   0  0  0  0  0  0  0  0  0  0  0  0
    2.6720   17.4854   -3.2206 H   0  0  0  0  0  0  0  0  0  0  0  0
    1.6802   16.7678   -0.4622 H   0  0  0  0  0  0  0  0  0  0  0  0
    2.1461   18.4861   -0.8800 H   0  0  0  0  0  0  0  0  0  0  0  0
    0.5685   17.9612   -2.9749 H   0  0  0  0  0  0  0  0  0  0  0  0
   -0.1825   16.8502   -1.7546 H   0  0  0  0  0  0  0  0  0  0  0  0
   -0.4208   19.3922   -2.2536 H   0  0  0  0  0  0  0  0  0  0  0  0
   -1.4370   17.5531    1.6613 H   0  0  0  0  0  0  0  0  0  0  0  0
   -2.4438   17.0675    0.2551 H   0  0  0  0  0  0  0  0  0  0  0  0
   -0.6792   16.7316    0.2551 H   0  0  0  0  0  0  0  0  0  0  0  0
   -2.3620   19.9765    1.2529 H   0  0  0  0  0  0  0  0  0  0  0  0
   -1.8892   20.7808   -0.2821 H   0  0  0  0  0  0  0  0  0  0  0  0
   -3.1847   19.5365   -0.2821 H   0  0  0  0  0  0  0  0  0  0  0  0
    2.0591   15.4312   -3.2280 H   0  0  0  0  0  0  0  0  0  0  0  0
    4.3027   14.6854   -3.7275 H   0  0  0  0  0  0  0  0  0  0  0  0
    4.9665   15.4581   -2.2721 H   0  0  0  0  0  0  0  0  0  0  0  0
    4.4840   12.6596   -2.5935 H   0  0  0  0  0  0  0  0  0  0  0  0
    4.7757   13.4391   -1.0407 H   0  0  0  0  0  0  0  0  0  0  0  0
    1.1496   12.0204   -2.6168 H   0  0  0  0  0  0  0  0  0  0  0  0
    1.5946   13.5413   -3.4627 H   0  0  0  0  0  0  0  0  0  0  0  0
    2.7291   12.1486   -3.4627 H   0  0  0  0  0  0  0  0  0  0  0  0
    2.9987   12.7159    0.4363 H   0  0  0  0  0  0  0  0  0  0  0  0
    3.7139   10.8440   -1.1828 H   0  0  0  0  0  0  0  0  0  0  0  0
    3.0346   10.4543    0.4835 H   0  0  0  0  0  0  0  0  0  0  0  0
    2.1937    8.9415   -1.5022 H   0  0  0  0  0  0  0  0  0  0  0  0
   -0.3700   12.0601   -1.5046 H   0  0  0  0  0  0  0  0  0  0  0  0
   -1.1208   10.4573    1.0168 H   0  0  0  0  0  0  0  0  0  0  0  0
   -1.8910   11.9982    0.4322 H   0  0  0  0  0  0  0  0  0  0  0  0
   -3.2677   10.0085   -0.0856 H   0  0  0  0  0  0  0  0  0  0  0  0
   -2.6942   10.8748   -1.5647 H   0  0  0  0  0  0  0  0  0  0  0  0
   -2.4725    8.5116   -1.9195 H   0  0  0  0  0  0  0  0  0  0  0  0
   -2.0590    7.3260   -0.2050 H   0  0  0  0  0  0  0  0  0  0  0  0
   -1.2615   10.8615   -3.1921 H   0  0  0  0  0  0  0  0  0  0  0  0
    0.1462   10.0400   -3.9473 H   0  0  0  0  0  0  0  0  0  0  0  0
   -1.4643    9.2443   -3.9473 H   0  0  0  0  0  0  0  0  0  0  0  0
    0.4011    7.2933   -1.4335 H   0  0  0  0  0  0  0  0  0  0  0  0
   -0.5593    7.2447   -2.9507 H   0  0  0  0  0  0  0  0  0  0  0  0
    1.0838    7.9707   -2.9507 H   0  0  0  0  0  0  0  0  0  0  0  0
    0.8327   12.7439    2.3419 H   0  0  0  0  0  0  0  0  0  0  0  0
    0.0779   11.1852    1.8651 H   0  0  0  0  0  0  0  0  0  0  0  0
    1.8662   11.3543    1.8651 H   0  0  0  0  0  0  0  0  0  0  0  0
   -0.7978   13.7466    0.2099 H   0  0  0  0  0  0  0  0  0  0  0  0
    0.7315   14.2797    1.1103 H   0  0  0  0  0  0  0  0  0  0  0  0
    0.2029   14.4038   -1.8715 H   0  0  0  0  0  0  0  0  0  0  0  0
    0.4182   15.7680   -0.7050 H   0  0  0  0  0  0  0  0  0  0  0  0
    2.4065   14.8456    1.0045 H   0  0  0  0  0  0  0  0  0  0  0  0
    3.9704   14.9544    0.1275 H   0  0  0  0  0  0  0  0  0  0  0  0
    2.8415   16.3517    0.1275 H   0  0  0  0  0  0  0  0  0  0  0  0
  1  2  1  0
  2  3  1  0
  3  4  1  0
  4  5  1  0
  5  6  1  0
  6  7  1  0
  7  8  1  0
  7  9  1  0
  2 10  1  0
 10 11  1  0
 11 12  1  0
 12 13  1  0
 13 14  1  6
 13 15  1  0
 15 16  1  0
 16 17  1  0
 17 18  2  0
 18 19  1  0
 19 20  1  0
 20 21  1  0
 21 22  1  0
 22 23  1  0
 22 24  1  0
 24 25  1  0
 24 26  1  0
 19 27  1  0
 27 28  1  1
 27 29  1  0
 29 30  1  0
 30 31  1  0
 31 32  1  1
  7  5  1  0
 31 10  1  0
 31 13  1  0
 27 15  1  0
 24 18  1  0
  1 33  1  0
  1 34  1  0
  1 35  1  0
  2 36  1  6
  3 37  1  0
  3 38  1  0
  4 39  1  0
  4 40  1  0
  5 41  1  6
  8 42  1  0
  8 43  1  0
  8 44  1  0
  9 45  1  0
  9 46  1  0
  9 47  1  0
 10 48  1  6
 11 49  1  0
 11 50  1  0
 12 51  1  0
 12 52  1  0
 14 53  1  0
 14 54  1  0
 14 55  1  0
 15 56  1  1
 16 57  1  0
 16 58  1  0
 17 59  1  0
 19 60  1  6
 20 61  1  0
 20 62  1  0
 21 63  1  0
 21 64  1  0
 22 65  1  6
 23 66  1  0
 25 67  1  0
 25 68  1  0
 25 69  1  0
 26 70  1  0
 26 71  1  0
 26 72  1  0
 28 73  1  0
 28 74  1  0
 28 75  1  0
 29 76  1  0
 29 77  1  0
 30 78  1  0
 30 79  1  0
 32 80  1  0
 32 81  1  0
 32 82  1  0
M  END
>  <meeko>  (9) 
{"is_sidechain": [false], "intermolecular_energy": 2.731, "internal_energy": -0.839}

$$$$
EPH_relaxed_0001_pdb2pqr_Repair_330_r2_0001_out
     RDKit          3D

 82 86  0  0  0  0  0  0  0  0999 V2000
    1.0840   18.0510   -0.1030 C   0  0  0  0  0  0  0  0  0  0  0  0
    2.0140   16.9420   -0.6030 C   0  0  2  0  0  0  0  0  0  0  0  0
    3.0140   17.4550   -1.6590 C   0  0  0  0  0  0  0  0  0  0  0  0
    4.4770   17.3640   -1.2150 C   0  0  0  0  0  0  0  0  0  0  0  0
    5.4080   17.8850   -2.2680 C   0  0  2  0  0  0  0  0  0  0  0  0
    4.8940   17.8270   -3.6040 O   0  0  0  0  0  0  0  0  0  0  0  0
    6.0430   17.0090   -3.3310 C   0  0  0  0  0  0  0  0  0  0  0  0
    5.7720   15.5380   -3.3950 C   0  0  0  0  0  0  0  0  0  0  0  0
    7.2950   17.4860   -3.9980 C   0  0  0  0  0  0  0  0  0  0  0  0
    1.1920   15.7950   -1.1790 C   0  0  1  0  0  0  0  0  0  0  0  0
    0.6500   16.1030   -2.6000 C   0  0  0  0  0  0  0  0  0  0  0  0
    0.6590   14.7640   -3.3820 C   0  0  0  0  0  0  0  0  0  0  0  0
    0.8860   13.6820   -2.3000 C   0  0  1  0  0  0  0  0  0  0  0  0
   -0.5220   13.4480   -1.6660 C   0  0  0  0  0  0  0  0  0  0  0  0
    1.5300   12.3430   -2.7850 C   0  0  2  0  0  0  0  0  0  0  0  0
    0.6990   11.5540   -3.8120 C   0  0  0  0  0  0  0  0  0  0  0  0
   -0.2520   10.5590   -3.2340 C   0  0  0  0  0  0  0  0  0  0  0  0
   -0.2340   10.1050   -1.9670 C   0  0  0  0  0  0  0  0  0  0  0  0
    0.8770   10.5230   -0.9960 C   0  0  1  0  0  0  0  0  0  0  0  0
    1.4120    9.2720   -0.2510 C   0  0  0  0  0  0  0  0  0  0  0  0
    0.3020    8.4820    0.4380 C   0  0  0  0  0  0  0  0  0  0  0  0
   -0.7540    8.0340   -0.5700 C   0  0  2  0  0  0  0  0  0  0  0  0
   -0.1660    7.0800   -1.4600 O   0  0  0  0  0  0  0  0  0  0  0  0
   -1.3580    9.2100   -1.3880 C   0  0  0  0  0  0  0  0  0  0  0  0
   -2.2480   10.0810   -0.4680 C   0  0  0  0  0  0  0  0  0  0  0  0
   -2.3030    8.6080   -2.4620 C   0  0  0  0  0  0  0  0  0  0  0  0
    2.0430   11.4080   -1.6150 C   0  0  1  0  0  0  0  0  0  0  0  0
    3.1410   10.4880   -2.2300 C   0  0  0  0  0  0  0  0  0  0  0  0
    2.7390   12.2220   -0.4610 C   0  0  0  0  0  0  0  0  0  0  0  0
    2.1270   13.5910   -0.1090 C   0  0  0  0  0  0  0  0  0  0  0  0
    1.9060   14.4340   -1.3690 C   0  0  2  0  0  0  0  0  0  0  0  0
    3.3070   14.7040   -2.0160 C   0  0  0  0  0  0  0  0  0  0  0  0
    1.0789   18.0571    0.9970 H   0  0  0  0  0  0  0  0  0  0  0  0
    1.4407   19.0234   -0.4734 H   0  0  0  0  0  0  0  0  0  0  0  0
    0.0643   17.8692   -0.4734 H   0  0  0  0  0  0  0  0  0  0  0  0
    2.5973   16.5857    0.2589 H   0  0  0  0  0  0  0  0  0  0  0  0
    2.8906   16.8569   -2.5739 H   0  0  0  0  0  0  0  0  0  0  0  0
    2.7925   18.5201   -1.8217 H   0  0  0  0  0  0  0  0  0  0  0  0
    4.6089   17.9563   -0.2975 H   0  0  0  0  0  0  0  0  0  0  0  0
    4.7169   16.3052   -1.0377 H   0  0  0  0  0  0  0  0  0  0  0  0
    5.8326   18.6155   -1.5637 H   0  0  0  0  0  0  0  0  0  0  0  0
    5.6976   15.1341   -2.3745 H   0  0  0  0  0  0  0  0  0  0  0  0
    4.8264   15.3623   -3.9287 H   0  0  0  0  0  0  0  0  0  0  0  0
    6.5929   15.0368   -3.9287 H   0  0  0  0  0  0  0  0  0  0  0  0
    8.0336   17.7674   -3.2330 H   0  0  0  0  0  0  0  0  0  0  0  0
    7.7055   16.6813   -4.6256 H   0  0  0  0  0  0  0  0  0  0  0  0
    7.0660   18.3599   -4.6256 H   0  0  0  0  0  0  0  0  0  0  0  0
    0.4221   15.7096   -0.3980 H   0  0  0  0  0  0  0  0  0  0  0  0
   -0.3747   16.4981   -2.5372 H   0  0  0  0  0  0  0  0  0  0  0  0
    1.2701   16.8590   -3.1040 H   0  0  0  0  0  0  0  0  0  0  0  0
   -0.3021   14.6064   -3.8932 H   0  0  0  0  0  0  0  0  0  0  0  0
    1.4334   14.7421   -4.1629 H   0  0  0  0  0  0  0  0  0  0  0  0
   -0.4373   13.4621   -0.5694 H   0  0  0  0  0  0  0  0  0  0  0  0
   -1.2075   14.2445   -1.9911 H   0  0  0  0  0  0  0  0  0  0  0  0
   -0.9130   12.4726   -1.9911 H   0  0  0  0  0  0  0  0  0  0  0  0
    2.4210   12.6929   -3.3269 H   0  0  0  0  0  0  0  0  0  0  0  0
    0.1174   12.2754   -4.4048 H   0  0  0  0  0  0  0  0  0  0  0  0
    1.4207   10.9750   -4.4068 H   0  0  0  0  0  0  0  0  0  0  0  0
   -1.0333   10.1635   -3.8997 H   0  0  0  0  0  0  0  0  0  0  0  0
    0.4088   11.2134   -0.2789 H   0  0  0  0  0  0  0  0  0  0  0  0
    1.9127    8.6158   -0.9781 H   0  0  0  0  0  0  0  0  0  0  0  0
    2.1077    9.6188    0.5273 H   0  0  0  0  0  0  0  0  0  0  0  0
    0.7378    7.5951    0.9213 H   0  0  0  0  0  0  0  0  0  0  0  0
   -0.1784    9.1299    1.1859 H   0  0  0  0  0  0  0  0  0  0  0  0
   -1.5843    7.5884   -0.0025 H   0  0  0  0  0  0  0  0  0  0  0  0
    0.7980    7.1260   -1.3450 H   0  0  0  0  0  0  0  0  0  0  0  0
   -2.0183    9.8562    0.5840 H   0  0  0  0  0  0  0  0  0  0  0  0
   -2.0508   11.1447   -0.6672 H   0  0  0  0  0  0  0  0  0  0  0  0
   -3.3072    9.8609   -0.6672 H   0  0  0  0  0  0  0  0  0  0  0  0
   -3.1315    8.0802   -1.9670 H   0  0  0  0  0  0  0  0  0  0  0  0
   -2.7062    9.4161   -3.0901 H   0  0  0  0  0  0  0  0  0  0  0  0
   -1.7411    7.9011   -3.0901 H   0  0  0  0  0  0  0  0  0  0  0  0
    3.7129   10.0088   -1.4217 H   0  0  0  0  0  0  0  0  0  0  0  0
    2.6656    9.7146   -2.8511 H   0  0  0  0  0  0  0  0  0  0  0  0
    3.8193   11.0914   -2.8511 H   0  0  0  0  0  0  0  0  0  0  0  0
    2.7111   11.6018    0.4471 H   0  0  0  0  0  0  0  0  0  0  0  0
    3.7486   12.4462   -0.8358 H   0  0  0  0  0  0  0  0  0  0  0  0
    1.1609   13.4347    0.3932 H   0  0  0  0  0  0  0  0  0  0  0  0
    2.8234   14.1264    0.5531 H   0  0  0  0  0  0  0  0  0  0  0  0
    4.0555   14.8482   -1.2229 H   0  0  0  0  0  0  0  0  0  0  0  0
    3.5946   13.8448   -2.6397 H   0  0  0  0  0  0  0  0  0  0  0  0
    3.2547   15.6086   -2.6397 H   0  0  0  0  0  0  0  0  0  0  0  0
  1  2  1  0
  2  3  1  0
  3  4  1  0
  4  5  1  0
  5  6  1  0
  6  7  1  0
  7  8  1  0
  7  9  1  0
  2 10  1  0
 10 11  1  0
 11 12  1  0
 12 13  1  0
 13 14  1  1
 13 15  1  0
 15 16  1  0
 16 17  1  0
 17 18  2  0
 18 19  1  0
 19 20  1  0
 20 21  1  0
 21 22  1  0
 22 23  1  0
 22 24  1  0
 24 25  1  0
 24 26  1  0
 19 27  1  0
 27 28  1  6
 27 29  1  0
 29 30  1  0
 30 31  1  0
 31 32  1  6
  7  5  1  0
 31 10  1  0
 31 13  1  0
 27 15  1  0
 24 18  1  0
  1 33  1  0
  1 34  1  0
  1 35  1  0
  2 36  1  1
  3 37  1  0
  3 38  1  0
  4 39  1  0
  4 40  1  0
  5 41  1  1
  8 42  1  0
  8 43  1  0
  8 44  1  0
  9 45  1  0
  9 46  1  0
  9 47  1  0
 10 48  1  1
 11 49  1  0
 11 50  1  0
 12 51  1  0
 12 52  1  0
 14 53  1  0
 14 54  1  0
 14 55  1  0
 15 56  1  6
 16 57  1  0
 16 58  1  0
 17 59  1  0
 19 60  1  1
 20 61  1  0
 20 62  1  0
 21 63  1  0
 21 64  1  0
 22 65  1  1
 23 66  1  0
 25 67  1  0
 25 68  1  0
 25 69  1  0
 26 70  1  0
 26 71  1  0
 26 72  1  0
 28 73  1  0
 28 74  1  0
 28 75  1  0
 29 76  1  0
 29 77  1  0
 30 78  1  0
 30 79  1  0
 32 80  1  0
 32 81  1  0
 32 82  1  0
M  END
>  <meeko>  (10) 
{"is_sidechain": [false], "intermolecular_energy": 2.731, "internal_energy": -0.839}

$$$$
EPH_relaxed_0001_pdb2pqr_Repair_330_r2_0001_out
     RDKit          3D

 82 86  0  0  0  0  0  0  0  0999 V2000
    2.7790   18.7020    0.6740 C   0  0  0  0  0  0  0  0  0  0  0  0
    3.2620   17.3970    0.0350 C   0  0  2  0  0  0  0  0  0  0  0  0
    3.9330   17.6320   -1.3320 C   0  0  0  0  0  0  0  0  0  0  0  0
    5.4400   17.8850   -1.2430 C   0  0  0  0  0  0  0  0  0  0  0  0
    6.0640   18.0030   -2.6000 C   0  0  2  0  0  0  0  0  0  0  0  0
    5.1870   17.6960   -3.6920 O   0  0  0  0  0  0  0  0  0  0  0  0
    6.3100   16.8180   -3.5150 C   0  0  0  0  0  0  0  0  0  0  0  0
    5.9360   15.4270   -3.1070 C   0  0  0  0  0  0  0  0  0  0  0  0
    7.3480   16.9430   -4.5860 C   0  0  0  0  0  0  0  0  0  0  0  0
    2.0930   16.4300   -0.1170 C   0  0  1  0  0  0  0  0  0  0  0  0
    0.7890   17.1370   -0.5750 C   0  0  0  0  0  0  0  0  0  0  0  0
    0.0410   16.1410   -1.4980 C   0  0  0  0  0  0  0  0  0  0  0  0
    0.7600   14.7900   -1.2780 C   0  0  1  0  0  0  0  0  0  0  0  0
    0.1500   14.2210    0.0410 C   0  0  0  0  0  0  0  0  0  0  0  0
    0.6660   13.7580   -2.4490 C   0  0  2  0  0  0  0  0  0  0  0  0
   -0.7570   13.2760   -2.7820 C   0  0  0  0  0  0  0  0  0  0  0  0
   -1.2060   12.0580   -2.0460 C   0  0  0  0  0  0  0  0  0  0  0  0
   -0.4050   11.2130   -1.3700 C   0  0  0  0  0  0  0  0  0  0  0  0
    1.1190   11.3930   -1.3820 C   0  0  1  0  0  0  0  0  0  0  0  0
    1.8000   10.0240   -1.6470 C   0  0  0  0  0  0  0  0  0  0  0  0
    1.3470    8.9460   -0.6680 C   0  0  0  0  0  0  0  0  0  0  0  0
   -0.1660    8.7550   -0.7280 C   0  0  2  0  0  0  0  0  0  0  0  0
   -0.5130    8.2140   -2.0060 O   0  0  0  0  0  0  0  0  0  0  0  0
   -0.9590   10.0700   -0.4840 C   0  0  0  0  0  0  0  0  0  0  0  0
   -0.8220   10.4940    0.9990 C   0  0  0  0  0  0  0  0  0  0  0  0
   -2.4650    9.7680   -0.7120 C   0  0  0  0  0  0  0  0  0  0  0  0
    1.6740   12.5440   -2.3260 C   0  0  1  0  0  0  0  0  0  0  0  0
    1.8850   11.9930   -3.7690 C   0  0  0  0  0  0  0  0  0  0  0  0
    3.0920   12.9930   -1.8100 C   0  0  0  0  0  0  0  0  0  0  0  0
    3.1230   14.1000   -0.7390 C   0  0  0  0  0  0  0  0  0  0  0  0
    2.2460   15.2870   -1.1510 C   0  0  2  0  0  0  0  0  0  0  0  0
    2.8490   15.8940   -2.4640 C   0  0  0  0  0  0  0  0  0  0  0  0
    2.8136   18.6086    1.7695 H   0  0  0  0  0  0  0  0  0  0  0  0
    3.4305   19.5292    0.3558 H   0  0  0  0  0  0  0  0  0  0  0  0
    1.7459   18.9057    0.3558 H   0  0  0  0  0  0  0  0  0  0  0  0
    4.0203   16.9624    0.7029 H   0  0  0  0  0  0  0  0  0  0  0  0
    3.7666   16.7428   -1.9578 H   0  0  0  0  0  0  0  0  0  0  0  0
    3.4799   18.5381   -1.7607 H   0  0  0  0  0  0  0  0  0  0  0  0
    5.6123   18.8196   -0.6891 H   0  0  0  0  0  0  0  0  0  0  0  0
    5.9010   17.0298   -0.7272 H   0  0  0  0  0  0  0  0  0  0  0  0
    6.7192   18.8155   -2.2528 H   0  0  0  0  0  0  0  0  0  0  0  0
    5.9178   15.3593   -2.0092 H   0  0  0  0  0  0  0  0  0  0  0  0
    4.9404   15.1830   -3.5060 H   0  0  0  0  0  0  0  0  0  0  0  0
    6.6750   14.7166   -3.5060 H   0  0  0  0  0  0  0  0  0  0  0  0
    8.3391   17.0624   -4.1239 H   0  0  0  0  0  0  0  0  0  0  0  0
    7.3413   16.0376   -5.2106 H   0  0  0  0  0  0  0  0  0  0  0  0
    7.1265   17.8210   -5.2106 H   0  0  0  0  0  0  0  0  0  0  0  0
    2.0629   16.0150    0.9013 H   0  0  0  0  0  0  0  0  0  0  0  0
    0.1666   17.3859    0.2972 H   0  0  0  0  0  0  0  0  0  0  0  0
    1.0131   18.0746   -1.1048 H   0  0  0  0  0  0  0  0  0  0  0  0
   -1.0188   16.0679   -1.2125 H   0  0  0  0  0  0  0  0  0  0  0  0
    0.0578   16.4557   -2.5519 H   0  0  0  0  0  0  0  0  0  0  0  0
    0.6476   14.6852    0.9052 H   0  0  0  0  0  0  0  0  0  0  0  0
   -0.9264   14.4452    0.0737 H   0  0  0  0  0  0  0  0  0  0  0  0
    0.2988   13.1316    0.0737 H   0  0  0  0  0  0  0  0  0  0  0  0
    0.9891   14.3544   -3.3149 H   0  0  0  0  0  0  0  0  0  0  0  0
   -1.4560   14.0922   -2.5469 H   0  0  0  0  0  0  0  0  0  0  0  0
   -0.7435   13.0004   -3.8468 H   0  0  0  0  0  0  0  0  0  0  0  0
   -2.2824   11.8314   -2.0567 H   0  0  0  0  0  0  0  0  0  0  0  0
    1.3901   11.7569   -0.3800 H   0  0  0  0  0  0  0  0  0  0  0  0
    1.5527    9.6991   -2.6684 H   0  0  0  0  0  0  0  0  0  0  0  0
    2.8838   10.1595   -1.5163 H   0  0  0  0  0  0  0  0  0  0  0  0
    1.8400    7.9967   -0.9245 H   0  0  0  0  0  0  0  0  0  0  0  0
    1.6210    9.2592    0.3502 H   0  0  0  0  0  0  0  0  0  0  0  0
   -0.4437    8.0656    0.0829 H   0  0  0  0  0  0  0  0  0  0  0  0
    0.1780    7.5760   -2.2520 H   0  0  0  0  0  0  0  0  0  0  0  0
   -1.0949    9.6493    1.6486 H   0  0  0  0  0  0  0  0  0  0  0  0
    0.2178   10.7908    1.2009 H   0  0  0  0  0  0  0  0  0  0  0  0
   -1.4915   11.3431    1.2009 H   0  0  0  0  0  0  0  0  0  0  0  0
   -2.9699    9.6667    0.2600 H   0  0  0  0  0  0  0  0  0  0  0  0
   -2.9226   10.5923   -1.2788 H   0  0  0  0  0  0  0  0  0  0  0  0
   -2.5694    8.8310   -1.2788 H   0  0  0  0  0  0  0  0  0  0  0  0
    2.2779   10.9669   -3.7159 H   0  0  0  0  0  0  0  0  0  0  0  0
    0.9242   11.9904   -4.3046 H   0  0  0  0  0  0  0  0  0  0  0  0
    2.6017   12.6328   -4.3046 H   0  0  0  0  0  0  0  0  0  0  0  0
    3.5882   12.1070   -1.3872 H   0  0  0  0  0  0  0  0  0  0  0  0
    3.5933   13.4274   -2.6875 H   0  0  0  0  0  0  0  0  0  0  0  0
    2.7512   13.6910    0.2120 H   0  0  0  0  0  0  0  0  0  0  0  0
    4.1594   14.4516   -0.6282 H   0  0  0  0  0  0  0  0  0  0  0  0
    3.6024   16.6524   -2.2050 H   0  0  0  0  0  0  0  0  0  0  0  0
    3.3211   15.0948   -3.0543 H   0  0  0  0  0  0  0  0  0  0  0  0
    2.0467   16.3608   -3.0543 H   0  0  0  0  0  0  0  0  0  0  0  0
  1  2  1  0
  2  3  1  0
  3  4  1  0
  4  5  1  0
  5  6  1  0
  6  7  1  0
  7  8  1  0
  7  9  1  0
  2 10  1  0
 10 11  1  0
 11 12  1  0
 12 13  1  0
 13 14  1  1
 13 15  1  0
 15 16  1  0
 16 17  1  0
 17 18  2  0
 18 19  1  0
 19 20  1  0
 20 21  1  0
 21 22  1  0
 22 23  1  0
 22 24  1  0
 24 25  1  0
 24 26  1  0
 19 27  1  0
 27 28  1  6
 27 29  1  0
 29 30  1  0
 30 31  1  0
 31 32  1  6
  7  5  1  0
 31 10  1  0
 31 13  1  0
 27 15  1  0
 24 18  1  0
  1 33  1  0
  1 34  1  0
  1 35  1  0
  2 36  1  1
  3 37  1  0
  3 38  1  0
  4 39  1  0
  4 40  1  0
  5 41  1  6
  8 42  1  0
  8 43  1  0
  8 44  1  0
  9 45  1  0
  9 46  1  0
  9 47  1  0
 10 48  1  1
 11 49  1  0
 11 50  1  0
 12 51  1  0
 12 52  1  0
 14 53  1  0
 14 54  1  0
 14 55  1  0
 15 56  1  6
 16 57  1  0
 16 58  1  0
 17 59  1  0
 19 60  1  1
 20 61  1  0
 20 62  1  0
 21 63  1  0
 21 64  1  0
 22 65  1  1
 23 66  1  0
 25 67  1  0
 25 68  1  0
 25 69  1  0
 26 70  1  0
 26 71  1  0
 26 72  1  0
 28 73  1  0
 28 74  1  0
 28 75  1  0
 29 76  1  0
 29 77  1  0
 30 78  1  0
 30 79  1  0
 32 80  1  0
 32 81  1  0
 32 82  1  0
M  END
>  <meeko>  (11) 
{"is_sidechain": [false], "intermolecular_energy": 2.731, "internal_energy": -0.839}

$$$$
EPH_relaxed_0001_pdb2pqr_Repair_330_r2_0001_out
     RDKit          3D

 82 86  0  0  0  0  0  0  0  0999 V2000
    0.1010   10.4070   -3.7310 C   0  0  0  0  0  0  0  0  0  0  0  0
    1.1250   10.2130   -2.6090 C   0  0  2  0  0  0  0  0  0  0  0  0
    0.8460    8.9420   -1.7810 C   0  0  0  0  0  0  0  0  0  0  0  0
    0.1790    9.2210   -0.4310 C   0  0  0  0  0  0  0  0  0  0  0  0
   -1.2420    8.7460   -0.4060 C   0  0  2  0  0  0  0  0  0  0  0  0
   -1.9210    8.8220   -1.6660 O   0  0  0  0  0  0  0  0  0  0  0  0
   -2.4340    9.6610   -0.6180 C   0  0  0  0  0  0  0  0  0  0  0  0
   -2.2580   11.1250   -0.8710 C   0  0  0  0  0  0  0  0  0  0  0  0
   -3.7690    9.2280   -0.0990 C   0  0  0  0  0  0  0  0  0  0  0  0
    1.1370   11.4350   -1.6990 C   0  0  1  0  0  0  0  0  0  0  0  0
    2.0830   11.2640   -0.4810 C   0  0  0  0  0  0  0  0  0  0  0  0
    2.6940   12.6590   -0.1890 C   0  0  0  0  0  0  0  0  0  0  0  0
    1.8380   13.6410   -1.0220 C   0  0  1  0  0  0  0  0  0  0  0  0
    0.5560   13.8840   -0.1650 C   0  0  0  0  0  0  0  0  0  0  0  0
    2.5260   14.9860   -1.4250 C   0  0  2  0  0  0  0  0  0  0  0  0
    2.9350   15.8880   -0.2480 C   0  0  0  0  0  0  0  0  0  0  0  0
    1.9020   16.8730    0.1900 C   0  0  0  0  0  0  0  0  0  0  0  0
    0.8090   17.2250   -0.5130 C   0  0  0  0  0  0  0  0  0  0  0  0
    0.5770   16.6850   -1.9300 C   0  0  1  0  0  0  0  0  0  0  0  0
    0.1610   17.8500   -2.8660 C   0  0  0  0  0  0  0  0  0  0  0  0
   -1.0380   18.6290   -2.3340 C   0  0  0  0  0  0  0  0  0  0  0  0
   -0.7470   19.1990   -0.9480 C   0  0  2  0  0  0  0  0  0  0  0  0
    0.2740   20.1940   -1.0640 O   0  0  0  0  0  0  0  0  0  0  0  0
   -0.3090   18.1180    0.0790 C   0  0  0  0  0  0  0  0  0  0  0  0
   -1.5170   17.2150    0.4320 C   0  0  0  0  0  0  0  0  0  0  0  0
    0.0900   18.8420    1.3930 C   0  0  0  0  0  0  0  0  0  0  0  0
    1.7510   15.8030   -2.5370 C   0  0  1  0  0  0  0  0  0  0  0  0
    2.8040   16.7220   -3.2290 C   0  0  0  0  0  0  0  0  0  0  0  0
    1.1650   14.8720   -3.6640 C   0  0  0  0  0  0  0  0  0  0  0  0
    0.6090   13.5070   -3.2180 C   0  0  0  0  0  0  0  0  0  0  0  0
    1.6080   12.7760   -2.3150 C   0  0  2  0  0  0  0  0  0  0  0  0
    2.9000   12.4990   -3.1570 C   0  0  0  0  0  0  0  0  0  0  0  0
   -0.8908   10.5949   -3.2938 H   0  0  0  0  0  0  0  0  0  0  0  0
    0.3963   11.2652   -4.3526 H   0  0  0  0  0  0  0  0  0  0  0  0
    0.0619    9.5003   -4.3526 H   0  0  0  0  0  0  0  0  0  0  0  0
    2.1117   10.0903   -3.0796 H   0  0  0  0  0  0  0  0  0  0  0  0
    0.1854    8.2848   -2.3655 H   0  0  0  0  0  0  0  0  0  0  0  0
    1.8197    8.4766   -1.5684 H   0  0  0  0  0  0  0  0  0  0  0  0
    0.7422    8.7023    0.3588 H   0  0  0  0  0  0  0  0  0  0  0  0
    0.1799   10.3086   -0.2665 H   0  0  0  0  0  0  0  0  0  0  0  0
   -1.0069    8.0102    0.3771 H   0  0  0  0  0  0  0  0  0  0  0  0
   -2.1939   11.6579    0.0891 H   0  0  0  0  0  0  0  0  0  0  0  0
   -1.3336   11.2895   -1.4441 H   0  0  0  0  0  0  0  0  0  0  0  0
   -3.1171   11.5039   -1.4441 H   0  0  0  0  0  0  0  0  0  0  0  0
   -3.7540    9.2329    1.0009 H   0  0  0  0  0  0  0  0  0  0  0  0
   -4.5443    9.9207   -0.4582 H   0  0  0  0  0  0  0  0  0  0  0  0
   -3.9901    8.2121   -0.4582 H   0  0  0  0  0  0  0  0  0  0  0  0
    0.0667   11.4900   -1.4509 H   0  0  0  0  0  0  0  0  0  0  0  0
    1.5159   10.9087    0.3920 H   0  0  0  0  0  0  0  0  0  0  0  0
    2.8697   10.5250   -0.6930 H   0  0  0  0  0  0  0  0  0  0  0  0
    2.6252   12.8966    0.8828 H   0  0  0  0  0  0  0  0  0  0  0  0
    3.7613   12.7103   -0.4504 H   0  0  0  0  0  0  0  0  0  0  0  0
    0.8143   13.8350    0.9031 H   0  0  0  0  0  0  0  0  0  0  0  0
    0.1425   14.8765   -0.3971 H   0  0  0  0  0  0  0  0  0  0  0  0
   -0.1921   13.1117   -0.3971 H   0  0  0  0  0  0  0  0  0  0  0  0
    3.4671   14.6423   -1.8790 H   0  0  0  0  0  0  0  0  0  0  0  0
    3.1728   15.2411    0.6093 H   0  0  0  0  0  0  0  0  0  0  0  0
    3.7904   16.4817   -0.6027 H   0  0  0  0  0  0  0  0  0  0  0  0
    2.0461   17.3516    1.1699 H   0  0  0  0  0  0  0  0  0  0  0  0
   -0.2461   15.9599   -1.8483 H   0  0  0  0  0  0  0  0  0  0  0  0
    1.0116   18.5397   -2.9698 H   0  0  0  0  0  0  0  0  0  0  0  0
   -0.1273   17.4138   -3.8338 H   0  0  0  0  0  0  0  0  0  0  0  0
   -1.2645   19.4560   -3.0231 H   0  0  0  0  0  0  0  0  0  0  0  0
   -1.8960   17.9448   -2.2591 H   0  0  0  0  0  0  0  0  0  0  0  0
   -1.6830   19.6331   -0.5665 H   0  0  0  0  0  0  0  0  0  0  0  0
    0.9580   19.9930   -0.4040 H   0  0  0  0  0  0  0  0  0  0  0  0
   -1.6136   17.1428    1.5254 H   0  0  0  0  0  0  0  0  0  0  0  0
   -2.4354   17.6499    0.0107 H   0  0  0  0  0  0  0  0  0  0  0  0
   -1.3599   16.2111    0.0107 H   0  0  0  0  0  0  0  0  0  0  0  0
   -0.2395   18.2442    2.2556 H   0  0  0  0  0  0  0  0  0  0  0  0
    1.1827   18.9639    1.4272 H   0  0  0  0  0  0  0  0  0  0  0  0
   -0.3905   19.8309    1.4272 H   0  0  0  0  0  0  0  0  0  0  0  0
    3.3983   17.2406   -2.4623 H   0  0  0  0  0  0  0  0  0  0  0  0
    3.4688   16.1101   -3.8564 H   0  0  0  0  0  0  0  0  0  0  0  0
    2.2877   17.4635   -3.8564 H   0  0  0  0  0  0  0  0  0  0  0  0
    0.3477   15.4194   -4.1562 H   0  0  0  0  0  0  0  0  0  0  0  0
    2.0195   14.6357   -4.3151 H   0  0  0  0  0  0  0  0  0  0  0  0
   -0.3285   13.6639   -2.6643 H   0  0  0  0  0  0  0  0  0  0  0  0
    0.4299   12.8922   -4.1124 H   0  0  0  0  0  0  0  0  0  0  0  0
    3.7473   12.3173   -2.4794 H   0  0  0  0  0  0  0  0  0  0  0  0
    2.7416   11.6144   -3.7914 H   0  0  0  0  0  0  0  0  0  0  0  0
    3.1182   13.3708   -3.7914 H   0  0  0  0  0  0  0  0  0  0  0  0
  1  2  1  0
  2  3  1  0
  3  4  1  0
  4  5  1  0
  5  6  1  0
  6  7  1  0
  7  8  1  0
  7  9  1  0
  2 10  1  0
 10 11  1  0
 11 12  1  0
 12 13  1  0
 13 14  1  1
 13 15  1  0
 15 16  1  0
 16 17  1  0
 17 18  2  0
 18 19  1  0
 19 20  1  0
 20 21  1  0
 21 22  1  0
 22 23  1  0
 22 24  1  0
 24 25  1  0
 24 26  1  0
 19 27  1  0
 27 28  1  6
 27 29  1  0
 29 30  1  0
 30 31  1  0
 31 32  1  6
  7  5  1  0
 31 10  1  0
 31 13  1  0
 27 15  1  0
 24 18  1  0
  1 33  1  0
  1 34  1  0
  1 35  1  0
  2 36  1  6
  3 37  1  0
  3 38  1  0
  4 39  1  0
  4 40  1  0
  5 41  1  1
  8 42  1  0
  8 43  1  0
  8 44  1  0
  9 45  1  0
  9 46  1  0
  9 47  1  0
 10 48  1  1
 11 49  1  0
 11 50  1  0
 12 51  1  0
 12 52  1  0
 14 53  1  0
 14 54  1  0
 14 55  1  0
 15 56  1  6
 16 57  1  0
 16 58  1  0
 17 59  1  0
 19 60  1  1
 20 61  1  0
 20 62  1  0
 21 63  1  0
 21 64  1  0
 22 65  1  1
 23 66  1  0
 25 67  1  0
 25 68  1  0
 25 69  1  0
 26 70  1  0
 26 71  1  0
 26 72  1  0
 28 73  1  0
 28 74  1  0
 28 75  1  0
 29 76  1  0
 29 77  1  0
 30 78  1  0
 30 79  1  0
 32 80  1  0
 32 81  1  0
 32 82  1  0
M  END
>  <meeko>  (12) 
{"is_sidechain": [false], "intermolecular_energy": 2.731, "internal_energy": -0.839}

$$$$
EPH_relaxed_0001_pdb2pqr_Repair_330_r2_0001_out
     RDKit          3D

 82 86  0  0  0  0  0  0  0  0999 V2000
   -5.1480    5.8510   -1.7310 C   0  0  0  0  0  0  0  0  0  0  0  0
   -5.4460    7.3520   -1.8000 C   0  0  2  0  0  0  0  0  0  0  0  0
   -5.2200    8.0520   -0.4450 C   0  0  0  0  0  0  0  0  0  0  0  0
   -4.1880    9.1810   -0.5010 C   0  0  0  0  0  0  0  0  0  0  0  0
   -2.8090    8.6590   -0.7660 C   0  0  2  0  0  0  0  0  0  0  0  0
   -1.8280    9.0330    0.2110 O   0  0  0  0  0  0  0  0  0  0  0  0
   -1.6300    9.5490   -1.1150 C   0  0  0  0  0  0  0  0  0  0  0  0
   -1.7780   11.0340   -1.2190 C   0  0  0  0  0  0  0  0  0  0  0  0
   -0.4630    8.9420   -1.8300 C   0  0  0  0  0  0  0  0  0  0  0  0
   -6.8790    7.5760   -2.2700 C   0  0  1  0  0  0  0  0  0  0  0  0
   -7.1790    6.8810   -3.6240 C   0  0  0  0  0  0  0  0  0  0  0  0
   -8.6540    6.4050   -3.5660 C   0  0  0  0  0  0  0  0  0  0  0  0
   -9.2470    7.1240   -2.3320 C   0  0  1  0  0  0  0  0  0  0  0  0
   -9.5980    8.5590   -2.8350 C   0  0  0  0  0  0  0  0  0  0  0  0
  -10.4750    6.4340   -1.6530 C   0  0  2  0  0  0  0  0  0  0  0  0
  -11.7250    6.3060   -2.5410 C   0  0  0  0  0  0  0  0  0  0  0  0
  -12.6810    7.4500   -2.4630 C   0  0  0  0  0  0  0  0  0  0  0  0
  -12.6910    8.3980   -1.5080 C   0  0  0  0  0  0  0  0  0  0  0  0
  -11.7310    8.3220   -0.3140 C   0  0  1  0  0  0  0  0  0  0  0  0
  -12.5130    8.5990    0.9970 C   0  0  0  0  0  0  0  0  0  0  0  0
  -13.2850    9.9140    0.9520 C   0  0  0  0  0  0  0  0  0  0  0  0
  -14.2700    9.9280   -0.2150 C   0  0  2  0  0  0  0  0  0  0  0  0
  -15.2870    8.9520    0.0290 O   0  0  0  0  0  0  0  0  0  0  0  0
  -13.5970    9.6510   -1.5880 C   0  0  0  0  0  0  0  0  0  0  0  0
  -12.7190   10.8610   -1.9910 C   0  0  0  0  0  0  0  0  0  0  0  0
  -14.7190    9.5530   -2.6570 C   0  0  0  0  0  0  0  0  0  0  0  0
  -10.8360    7.0120   -0.2250 C   0  0  1  0  0  0  0  0  0  0  0  0
  -11.6120    5.8870    0.5270 C   0  0  0  0  0  0  0  0  0  0  0  0
   -9.5560    7.3210    0.6370 C   0  0  0  0  0  0  0  0  0  0  0  0
   -8.3350    7.8900   -0.1110 C   0  0  0  0  0  0  0  0  0  0  0  0
   -8.0170    7.0550   -1.3560 C   0  0  2  0  0  0  0  0  0  0  0  0
   -7.6380    5.6120   -0.8790 C   0  0  0  0  0  0  0  0  0  0  0  0
   -5.0858    5.5375   -0.6784 H   0  0  0  0  0  0  0  0  0  0  0  0
   -5.9531    5.2939   -2.2325 H   0  0  0  0  0  0  0  0  0  0  0  0
   -4.1912    5.6437   -2.2325 H   0  0  0  0  0  0  0  0  0  0  0  0
   -4.7443    7.7960   -2.5214 H   0  0  0  0  0  0  0  0  0  0  0  0
   -6.1783    8.4737   -0.1077 H   0  0  0  0  0  0  0  0  0  0  0  0
   -4.8289    7.2927    0.2481 H   0  0  0  0  0  0  0  0  0  0  0  0
   -4.4658    9.8783   -1.3052 H   0  0  0  0  0  0  0  0  0  0  0  0
   -4.1809    9.6877    0.4753 H   0  0  0  0  0  0  0  0  0  0  0  0
   -3.2176    7.7549   -1.2411 H   0  0  0  0  0  0  0  0  0  0  0  0
   -1.8214   11.4697   -0.2099 H   0  0  0  0  0  0  0  0  0  0  0  0
   -0.9170   11.4512   -1.7618 H   0  0  0  0  0  0  0  0  0  0  0  0
   -2.7044   11.2730   -1.7618 H   0  0  0  0  0  0  0  0  0  0  0  0
    0.2622    8.5648   -1.0939 H   0  0  0  0  0  0  0  0  0  0  0  0
   -0.8113    8.1108   -2.4607 H   0  0  0  0  0  0  0  0  0  0  0  0
    0.0176    9.7044   -2.4607 H   0  0  0  0  0  0  0  0  0  0  0  0
   -6.8934    8.6755   -2.2997 H   0  0  0  0  0  0  0  0  0  0  0  0
   -7.0426    7.5913   -4.4527 H   0  0  0  0  0  0  0  0  0  0  0  0
   -6.4973    6.0344   -3.7928 H   0  0  0  0  0  0  0  0  0  0  0  0
   -9.1921    6.6952   -4.4805 H   0  0  0  0  0  0  0  0  0  0  0  0
   -8.7368    5.3107   -3.4913 H   0  0  0  0  0  0  0  0  0  0  0  0
   -9.7599    9.2209   -1.9714 H   0  0  0  0  0  0  0  0  0  0  0  0
   -8.7683    8.9472   -3.4441 H   0  0  0  0  0  0  0  0  0  0  0  0
  -10.5132    8.5204   -3.4441 H   0  0  0  0  0  0  0  0  0  0  0  0
  -10.1126    5.4070   -1.4984 H   0  0  0  0  0  0  0  0  0  0  0  0
  -11.3922    6.2114   -3.5852 H   0  0  0  0  0  0  0  0  0  0  0  0
  -12.2721    5.4258   -2.1722 H   0  0  0  0  0  0  0  0  0  0  0  0
  -13.4422    7.5243   -3.2536 H   0  0  0  0  0  0  0  0  0  0  0  0
  -10.9816    9.1107   -0.4762 H   0  0  0  0  0  0  0  0  0  0  0  0
  -13.2255    7.7775    1.1626 H   0  0  0  0  0  0  0  0  0  0  0  0
  -11.7798    8.6705    1.8139 H   0  0  0  0  0  0  0  0  0  0  0  0
  -13.8402   10.0381    1.8934 H   0  0  0  0  0  0  0  0  0  0  0  0
  -12.5685   10.7377    0.8171 H   0  0  0  0  0  0  0  0  0  0  0  0
  -14.6972   10.9399   -0.2745 H   0  0  0  0  0  0  0  0  0  0  0  0
  -16.0190    9.3970    0.4880 H   0  0  0  0  0  0  0  0  0  0  0  0
  -12.3526   11.3660   -1.0851 H   0  0  0  0  0  0  0  0  0  0  0  0
  -11.8634   10.5108   -2.5871 H   0  0  0  0  0  0  0  0  0  0  0  0
  -13.3173   11.5658   -2.5871 H   0  0  0  0  0  0  0  0  0  0  0  0
  -15.6952    9.4677   -2.1572 H   0  0  0  0  0  0  0  0  0  0  0  0
  -14.7065   10.4557   -3.2855 H   0  0  0  0  0  0  0  0  0  0  0  0
  -14.5502    8.6662   -3.2855 H   0  0  0  0  0  0  0  0  0  0  0  0
  -11.5105    6.0341    1.6124 H   0  0  0  0  0  0  0  0  0  0  0  0
  -12.6757    5.9268    0.2495 H   0  0  0  0  0  0  0  0  0  0  0  0
  -11.1970    4.9068    0.2495 H   0  0  0  0  0  0  0  0  0  0  0  0
   -9.8428    8.0503    1.4089 H   0  0  0  0  0  0  0  0  0  0  0  0
   -9.2273    6.3452    1.0239 H   0  0  0  0  0  0  0  0  0  0  0  0
   -8.5502    8.9245   -0.4168 H   0  0  0  0  0  0  0  0  0  0  0  0
   -7.4659    7.8607    0.5626 H   0  0  0  0  0  0  0  0  0  0  0  0
   -7.6295    5.5797    0.2205 H   0  0  0  0  0  0  0  0  0  0  0  0
   -8.3778    4.8933   -1.2613 H   0  0  0  0  0  0  0  0  0  0  0  0
   -6.6405    5.3496   -1.2613 H   0  0  0  0  0  0  0  0  0  0  0  0
  1  2  1  0
  2  3  1  0
  3  4  1  0
  4  5  1  0
  5  6  1  0
  6  7  1  0
  7  8  1  0
  7  9  1  0
  2 10  1  0
 10 11  1  0
 11 12  1  0
 12 13  1  0
 13 14  1  6
 13 15  1  0
 15 16  1  0
 16 17  1  0
 17 18  2  0
 18 19  1  0
 19 20  1  0
 20 21  1  0
 21 22  1  0
 22 23  1  0
 22 24  1  0
 24 25  1  0
 24 26  1  0
 19 27  1  0
 27 28  1  1
 27 29  1  0
 29 30  1  0
 30 31  1  0
 31 32  1  1
  7  5  1  0
 31 10  1  0
 31 13  1  0
 27 15  1  0
 24 18  1  0
  1 33  1  0
  1 34  1  0
  1 35  1  0
  2 36  1  6
  3 37  1  0
  3 38  1  0
  4 39  1  0
  4 40  1  0
  5 41  1  6
  8 42  1  0
  8 43  1  0
  8 44  1  0
  9 45  1  0
  9 46  1  0
  9 47  1  0
 10 48  1  6
 11 49  1  0
 11 50  1  0
 12 51  1  0
 12 52  1  0
 14 53  1  0
 14 54  1  0
 14 55  1  0
 15 56  1  1
 16 57  1  0
 16 58  1  0
 17 59  1  0
 19 60  1  6
 20 61  1  0
 20 62  1  0
 21 63  1  0
 21 64  1  0
 22 65  1  6
 23 66  1  0
 25 67  1  0
 25 68  1  0
 25 69  1  0
 26 70  1  0
 26 71  1  0
 26 72  1  0
 28 73  1  0
 28 74  1  0
 28 75  1  0
 29 76  1  0
 29 77  1  0
 30 78  1  0
 30 79  1  0
 32 80  1  0
 32 81  1  0
 32 82  1  0
M  END
>  <meeko>  (13) 
{"is_sidechain": [false], "intermolecular_energy": 2.731, "internal_energy": -0.839}

$$$$
EPH_relaxed_0001_pdb2pqr_Repair_330_r2_0001_out
     RDKit          3D

 82 86  0  0  0  0  0  0  0  0999 V2000
   -1.3160   10.4100    1.6110 C   0  0  0  0  0  0  0  0  0  0  0  0
   -1.9420   10.1120    0.2450 C   0  0  2  0  0  0  0  0  0  0  0  0
   -2.7370    8.7910    0.2460 C   0  0  0  0  0  0  0  0  0  0  0  0
   -4.1230    8.9060   -0.3940 C   0  0  0  0  0  0  0  0  0  0  0  0
   -4.6480    7.5690   -0.8220 C   0  0  2  0  0  0  0  0  0  0  0  0
   -4.8150    7.4160   -2.2370 O   0  0  0  0  0  0  0  0  0  0  0  0
   -6.0150    7.3690   -1.4490 C   0  0  0  0  0  0  0  0  0  0  0  0
   -6.9420    8.5210   -1.6830 C   0  0  0  0  0  0  0  0  0  0  0  0
   -6.6410    6.0110   -1.3850 C   0  0  0  0  0  0  0  0  0  0  0  0
   -0.8580   10.0680   -0.8250 C   0  0  1  0  0  0  0  0  0  0  0  0
   -1.2590    9.1980   -2.0460 C   0  0  0  0  0  0  0  0  0  0  0  0
   -0.6430    9.8730   -3.2980 C   0  0  0  0  0  0  0  0  0  0  0  0
    0.3580   10.9070   -2.7310 C   0  0  1  0  0  0  0  0  0  0  0  0
    1.6380   10.0810   -2.3910 C   0  0  0  0  0  0  0  0  0  0  0  0
    0.6860   12.1270   -3.6510 C   0  0  2  0  0  0  0  0  0  0  0  0
    1.3630   11.7740   -4.9870 C   0  0  0  0  0  0  0  0  0  0  0  0
    2.8550   11.7520   -4.9600 C   0  0  0  0  0  0  0  0  0  0  0  0
    3.6270   12.2780   -3.9910 C   0  0  0  0  0  0  0  0  0  0  0  0
    3.0070   13.0630   -2.8280 C   0  0  1  0  0  0  0  0  0  0  0  0
    3.8040   14.3750   -2.6060 C   0  0  0  0  0  0  0  0  0  0  0  0
    5.2970   14.1270   -2.4110 C   0  0  0  0  0  0  0  0  0  0  0  0
    5.8890   13.3960   -3.6140 C   0  0  2  0  0  0  0  0  0  0  0  0
    5.8390   14.2640   -4.7510 O   0  0  0  0  0  0  0  0  0  0  0  0
    5.1600   12.0630   -3.9400 C   0  0  0  0  0  0  0  0  0  0  0  0
    5.4680   11.0180   -2.8400 C   0  0  0  0  0  0  0  0  0  0  0  0
    5.7630   11.4990   -5.2550 C   0  0  0  0  0  0  0  0  0  0  0  0
    1.4390   13.3090   -2.9160 C   0  0  1  0  0  0  0  0  0  0  0  0
    1.1490   14.6020   -3.7380 C   0  0  0  0  0  0  0  0  0  0  0  0
    0.8780   13.5680   -1.4680 C   0  0  0  0  0  0  0  0  0  0  0  0
    0.4590   12.3290   -0.6540 C   0  0  0  0  0  0  0  0  0  0  0  0
   -0.4480   11.4110   -1.4790 C   0  0  2  0  0  0  0  0  0  0  0  0
   -1.7540   12.2070   -1.8170 C   0  0  0  0  0  0  0  0  0  0  0  0
   -2.0012   10.0838    2.4073 H   0  0  0  0  0  0  0  0  0  0  0  0
   -0.3626    9.8691    1.7033 H   0  0  0  0  0  0  0  0  0  0  0  0
   -1.1347   11.4910    1.7033 H   0  0  0  0  0  0  0  0  0  0  0  0
   -2.6511   10.9228    0.0219 H   0  0  0  0  0  0  0  0  0  0  0  0
   -2.1594    8.0377   -0.3097 H   0  0  0  0  0  0  0  0  0  0  0  0
   -2.8913    8.5096    1.2982 H   0  0  0  0  0  0  0  0  0  0  0  0
   -4.8181    9.3446    0.3371 H   0  0  0  0  0  0  0  0  0  0  0  0
   -4.0369    9.5427   -1.2869 H   0  0  0  0  0  0  0  0  0  0  0  0
   -4.1434    7.0748    0.0213 H   0  0  0  0  0  0  0  0  0  0  0  0
   -7.2707    8.9294   -0.7160 H   0  0  0  0  0  0  0  0  0  0  0  0
   -6.4185    9.3031   -2.2525 H   0  0  0  0  0  0  0  0  0  0  0  0
   -7.8180    8.1769   -2.2525 H   0  0  0  0  0  0  0  0  0  0  0  0
   -6.7758    5.7186   -0.3332 H   0  0  0  0  0  0  0  0  0  0  0  0
   -7.6193    6.0342   -1.8874 H   0  0  0  0  0  0  0  0  0  0  0  0
   -5.9880    5.2822   -1.8874 H   0  0  0  0  0  0  0  0  0  0  0  0
   -0.0247    9.6718   -0.2261 H   0  0  0  0  0  0  0  0  0  0  0  0
   -0.8620    8.1786   -1.9314 H   0  0  0  0  0  0  0  0  0  0  0  0
   -2.3528    9.1235   -2.1355 H   0  0  0  0  0  0  0  0  0  0  0  0
   -0.1234    9.1316   -3.9228 H   0  0  0  0  0  0  0  0  0  0  0  0
   -1.4061   10.3390   -3.9387 H   0  0  0  0  0  0  0  0  0  0  0  0
    1.7489   10.0095   -1.2989 H   0  0  0  0  0  0  0  0  0  0  0  0
    1.5466    9.0711   -2.8172 H   0  0  0  0  0  0  0  0  0  0  0  0
    2.5206   10.5804   -2.8172 H   0  0  0  0  0  0  0  0  0  0  0  0
   -0.3150   12.5001   -3.9132 H   0  0  0  0  0  0  0  0  0  0  0  0
    1.0139   10.7763   -5.2916 H   0  0  0  0  0  0  0  0  0  0  0  0
    1.0834   12.5726   -5.6899 H   0  0  0  0  0  0  0  0  0  0  0  0
    3.3669   11.2649   -5.8030 H   0  0  0  0  0  0  0  0  0  0  0  0
    3.0974   12.4170   -1.9422 H   0  0  0  0  0  0  0  0  0  0  0  0
    3.6660   15.0241   -3.4833 H   0  0  0  0  0  0  0  0  0  0  0  0
    3.4214   14.8469   -1.6890 H   0  0  0  0  0  0  0  0  0  0  0  0
    5.8096   15.0925   -2.2881 H   0  0  0  0  0  0  0  0  0  0  0  0
    5.4359   13.5021   -1.5165 H   0  0  0  0  0  0  0  0  0  0  0  0
    6.9266   13.1315   -3.3622 H   0  0  0  0  0  0  0  0  0  0  0  0
    6.6300   14.0890   -5.2890 H   0  0  0  0  0  0  0  0  0  0  0  0
    5.3326   11.4773   -1.8497 H   0  0  0  0  0  0  0  0  0  0  0  0
    4.7836   10.1632   -2.9444 H   0  0  0  0  0  0  0  0  0  0  0  0
    6.5066   10.6710   -2.9444 H   0  0  0  0  0  0  0  0  0  0  0  0
    6.5469   10.7658   -5.0141 H   0  0  0  0  0  0  0  0  0  0  0  0
    4.9711   11.0099   -5.8413 H   0  0  0  0  0  0  0  0  0  0  0  0
    6.1982   12.3217   -5.8413 H   0  0  0  0  0  0  0  0  0  0  0  0
    0.9612   15.4395   -3.0500 H   0  0  0  0  0  0  0  0  0  0  0  0
    2.0170   14.8359   -4.3719 H   0  0  0  0  0  0  0  0  0  0  0  0
    0.2643   14.4428   -4.3719 H   0  0  0  0  0  0  0  0  0  0  0  0
    1.6586   14.0927   -0.8975 H   0  0  0  0  0  0  0  0  0  0  0  0
   -0.0486   14.1419   -1.6165 H   0  0  0  0  0  0  0  0  0  0  0  0
    1.3600   11.7721   -0.3571 H   0  0  0  0  0  0  0  0  0  0  0  0
   -0.0967   12.6647    0.2340 H   0  0  0  0  0  0  0  0  0  0  0  0
   -2.2508   12.5098   -0.8835 H   0  0  0  0  0  0  0  0  0  0  0  0
   -1.4967   13.1020   -2.4025 H   0  0  0  0  0  0  0  0  0  0  0  0
   -2.4316   11.5682   -2.4025 H   0  0  0  0  0  0  0  0  0  0  0  0
  1  2  1  0
  2  3  1  0
  3  4  1  0
  4  5  1  0
  5  6  1  0
  6  7  1  0
  7  8  1  0
  7  9  1  0
  2 10  1  0
 10 11  1  0
 11 12  1  0
 12 13  1  0
 13 14  1  1
 13 15  1  0
 15 16  1  0
 16 17  1  0
 17 18  2  0
 18 19  1  0
 19 20  1  0
 20 21  1  0
 21 22  1  0
 22 23  1  0
 22 24  1  0
 24 25  1  0
 24 26  1  0
 19 27  1  0
 27 28  1  6
 27 29  1  0
 29 30  1  0
 30 31  1  0
 31 32  1  6
  7  5  1  0
 31 10  1  0
 31 13  1  0
 27 15  1  0
 24 18  1  0
  1 33  1  0
  1 34  1  0
  1 35  1  0
  2 36  1  6
  3 37  1  0
  3 38  1  0
  4 39  1  0
  4 40  1  0
  5 41  1  1
  8 42  1  0
  8 43  1  0
  8 44  1  0
  9 45  1  0
  9 46  1  0
  9 47  1  0
 10 48  1  1
 11 49  1  0
 11 50  1  0
 12 51  1  0
 12 52  1  0
 14 53  1  0
 14 54  1  0
 14 55  1  0
 15 56  1  6
 16 57  1  0
 16 58  1  0
 17 59  1  0
 19 60  1  1
 20 61  1  0
 20 62  1  0
 21 63  1  0
 21 64  1  0
 22 65  1  1
 23 66  1  0
 25 67  1  0
 25 68  1  0
 25 69  1  0
 26 70  1  0
 26 71  1  0
 26 72  1  0
 28 73  1  0
 28 74  1  0
 28 75  1  0
 29 76  1  0
 29 77  1  0
 30 78  1  0
 30 79  1  0
 32 80  1  0
 32 81  1  0
 32 82  1  0
M  END
>  <meeko>  (14) 
{"is_sidechain": [false], "intermolecular_energy": 2.731, "internal_energy": -0.839}

$$$$
EPH_relaxed_0001_pdb2pqr_Repair_330_r2_0001_out
     RDKit          3D

 82 86  0  0  0  0  0  0  0  0999 V2000
    4.5870   16.8740   -1.5130 C   0  0  0  0  0  0  0  0  0  0  0  0
    4.6650   15.3470   -1.5860 C   0  0  2  0  0  0  0  0  0  0  0  0
    5.0260   14.8510   -3.0000 C   0  0  0  0  0  0  0  0  0  0  0  0
    5.9730   13.6480   -3.0070 C   0  0  0  0  0  0  0  0  0  0  0  0
    5.5710   12.6320   -4.0330 C   0  0  2  0  0  0  0  0  0  0  0  0
    5.0930   11.3930   -3.4940 O   0  0  0  0  0  0  0  0  0  0  0  0
    6.3110   11.3260   -4.2520 C   0  0  0  0  0  0  0  0  0  0  0  0
    7.5150   10.9650   -3.4390 C   0  0  0  0  0  0  0  0  0  0  0  0
    6.1640   10.6320   -5.5700 C   0  0  0  0  0  0  0  0  0  0  0  0
    3.3410   14.7370   -1.1420 C   0  0  1  0  0  0  0  0  0  0  0  0
    2.3240   15.8050   -0.6560 C   0  0  0  0  0  0  0  0  0  0  0  0
    0.9180   15.3090   -1.0790 C   0  0  0  0  0  0  0  0  0  0  0  0
    1.1320   13.8340   -1.4920 C   0  0  1  0  0  0  0  0  0  0  0  0
    1.1470   13.0400   -0.1480 C   0  0  0  0  0  0  0  0  0  0  0  0
    0.0960   13.2410   -2.5010 C   0  0  2  0  0  0  0  0  0  0  0  0
   -1.3550   13.1890   -1.9920 C   0  0  0  0  0  0  0  0  0  0  0  0
   -1.7400   11.9300   -1.2900 C   0  0  0  0  0  0  0  0  0  0  0  0
   -1.0510   10.7740   -1.3240 C   0  0  0  0  0  0  0  0  0  0  0  0
    0.1960   10.6250   -2.2040 C   0  0  1  0  0  0  0  0  0  0  0  0
    0.1220    9.2870   -2.9850 C   0  0  0  0  0  0  0  0  0  0  0  0
   -0.0910    8.0860   -2.0690 C   0  0  0  0  0  0  0  0  0  0  0  0
   -1.3710    8.2440   -1.2520 C   0  0  2  0  0  0  0  0  0  0  0  0
   -2.4930    8.1920   -2.1390 O   0  0  0  0  0  0  0  0  0  0  0  0
   -1.4150    9.5620   -0.4300 C   0  0  0  0  0  0  0  0  0  0  0  0
   -0.3910    9.4870    0.7290 C   0  0  0  0  0  0  0  0  0  0  0  0
   -2.8150    9.6640    0.2340 C   0  0  0  0  0  0  0  0  0  0  0  0
    0.5330   11.8620   -3.1440 C   0  0  1  0  0  0  0  0  0  0  0  0
   -0.2420   11.7330   -4.4910 C   0  0  0  0  0  0  0  0  0  0  0  0
    2.0640   11.8300   -3.5070 C   0  0  0  0  0  0  0  0  0  0  0  0
    3.0250   12.5360   -2.5310 C   0  0  0  0  0  0  0  0  0  0  0  0
    2.5310   13.9470   -2.2000 C   0  0  2  0  0  0  0  0  0  0  0  0
    2.5270   14.7770   -3.5300 C   0  0  0  0  0  0  0  0  0  0  0  0
    4.5708   17.1904   -0.4596 H   0  0  0  0  0  0  0  0  0  0  0  0
    5.4640   17.3103   -2.0135 H   0  0  0  0  0  0  0  0  0  0  0  0
    3.6701   17.2187   -2.0135 H   0  0  0  0  0  0  0  0  0  0  0  0
    5.4687   15.0241   -0.9080 H   0  0  0  0  0  0  0  0  0  0  0  0
    4.0972   14.5649   -3.5153 H   0  0  0  0  0  0  0  0  0  0  0  0
    5.5498   15.6754   -3.5059 H   0  0  0  0  0  0  0  0  0  0  0  0
    6.9916   13.9975   -3.2314 H   0  0  0  0  0  0  0  0  0  0  0  0
    5.9290   13.1712   -2.0167 H   0  0  0  0  0  0  0  0  0  0  0  0
    5.2515   13.4243   -4.7260 H   0  0  0  0  0  0  0  0  0  0  0  0
    7.2704   11.0383   -2.3691 H   0  0  0  0  0  0  0  0  0  0  0  0
    7.8217    9.9354   -3.6753 H   0  0  0  0  0  0  0  0  0  0  0  0
    8.3376   11.6560   -3.6753 H   0  0  0  0  0  0  0  0  0  0  0  0
    5.9388    9.5686   -5.4013 H   0  0  0  0  0  0  0  0  0  0  0  0
    5.3440   11.0948   -6.1386 H   0  0  0  0  0  0  0  0  0  0  0  0
    7.1013   10.7226   -6.1386 H   0  0  0  0  0  0  0  0  0  0  0  0
    3.7060   14.0541   -0.3607 H   0  0  0  0  0  0  0  0  0  0  0  0
    2.3762   15.9076    0.4380 H   0  0  0  0  0  0  0  0  0  0  0  0
    2.5444   16.7890   -1.0956 H   0  0  0  0  0  0  0  0  0  0  0  0
    0.2126   15.3782   -0.2378 H   0  0  0  0  0  0  0  0  0  0  0  0
    0.4907   15.9123   -1.8935 H   0  0  0  0  0  0  0  0  0  0  0  0
    1.1337   13.7462    0.6953 H   0  0  0  0  0  0  0  0  0  0  0  0
    0.2610   12.3902   -0.0961 H   0  0  0  0  0  0  0  0  0  0  0  0
    2.0569   12.4241   -0.0961 H   0  0  0  0  0  0  0  0  0  0  0  0
    0.1020   13.9865   -3.3099 H   0  0  0  0  0  0  0  0  0  0  0  0
   -1.5000   14.0258   -1.2929 H   0  0  0  0  0  0  0  0  0  0  0  0
   -1.9931   13.2459   -2.8862 H   0  0  0  0  0  0  0  0  0  0  0  0
   -2.6647   11.9479   -0.6945 H   0  0  0  0  0  0  0  0  0  0  0  0
    1.0537   10.6083   -1.5154 H   0  0  0  0  0  0  0  0  0  0  0  0
   -0.7148    9.3402   -3.6971 H   0  0  0  0  0  0  0  0  0  0  0  0
    1.0838    9.1475   -3.5002 H   0  0  0  0  0  0  0  0  0  0  0  0
   -0.1645    7.1749   -2.6810 H   0  0  0  0  0  0  0  0  0  0  0  0
    0.7612    8.0164   -1.3770 H   0  0  0  0  0  0  0  0  0  0  0  0
   -1.4014    7.4200   -0.5239 H   0  0  0  0  0  0  0  0  0  0  0  0
   -2.8300    7.2800   -2.1350 H   0  0  0  0  0  0  0  0  0  0  0  0
   -0.9227    9.5259    1.6912 H   0  0  0  0  0  0  0  0  0  0  0  0
    0.1730    8.5451    0.6596 H   0  0  0  0  0  0  0  0  0  0  0  0
    0.3042   10.3366    0.6596 H   0  0  0  0  0  0  0  0  0  0  0  0
   -2.7033    9.6559    1.3283 H   0  0  0  0  0  0  0  0  0  0  0  0
   -3.3015   10.6000   -0.0780 H   0  0  0  0  0  0  0  0  0  0  0  0
   -3.4320    8.8084   -0.0780 H   0  0  0  0  0  0  0  0  0  0  0  0
   -1.3079   11.5556   -4.2852 H   0  0  0  0  0  0  0  0  0  0  0  0
   -0.1299   12.6622   -5.0690 H   0  0  0  0  0  0  0  0  0  0  0  0
    0.1651   10.8903   -5.0690 H   0  0  0  0  0  0  0  0  0  0  0  0
    2.3691   10.7750   -3.5695 H   0  0  0  0  0  0  0  0  0  0  0  0
    2.1479   12.3911   -4.4494 H   0  0  0  0  0  0  0  0  0  0  0  0
    3.0892   11.9501   -1.6022 H   0  0  0  0  0  0  0  0  0  0  0  0
    4.0138   12.6132   -3.0067 H   0  0  0  0  0  0  0  0  0  0  0  0
    2.5218   15.8509   -3.2920 H   0  0  0  0  0  0  0  0  0  0  0  0
    3.4263   14.5355   -4.1156 H   0  0  0  0  0  0  0  0  0  0  0  0
    1.6300   14.5269   -4.1156 H   0  0  0  0  0  0  0  0  0  0  0  0
  1  2  1  0
  2  3  1  0
  3  4  1  0
  4  5  1  0
  5  6  1  0
  6  7  1  0
  7  8  1  0
  7  9  1  0
  2 10  1  0
 10 11  1  0
 11 12  1  0
 12 13  1  0
 13 14  1  1
 13 15  1  0
 15 16  1  0
 16 17  1  0
 17 18  2  0
 18 19  1  0
 19 20  1  0
 20 21  1  0
 21 22  1  0
 22 23  1  0
 22 24  1  0
 24 25  1  0
 24 26  1  0
 19 27  1  0
 27 28  1  6
 27 29  1  0
 29 30  1  0
 30 31  1  0
 31 32  1  6
  7  5  1  0
 31 10  1  0
 31 13  1  0
 27 15  1  0
 24 18  1  0
  1 33  1  0
  1 34  1  0
  1 35  1  0
  2 36  1  1
  3 37  1  0
  3 38  1  0
  4 39  1  0
  4 40  1  0
  5 41  1  6
  8 42  1  0
  8 43  1  0
  8 44  1  0
  9 45  1  0
  9 46  1  0
  9 47  1  0
 10 48  1  1
 11 49  1  0
 11 50  1  0
 12 51  1  0
 12 52  1  0
 14 53  1  0
 14 54  1  0
 14 55  1  0
 15 56  1  6
 16 57  1  0
 16 58  1  0
 17 59  1  0
 19 60  1  1
 20 61  1  0
 20 62  1  0
 21 63  1  0
 21 64  1  0
 22 65  1  1
 23 66  1  0
 25 67  1  0
 25 68  1  0
 25 69  1  0
 26 70  1  0
 26 71  1  0
 26 72  1  0
 28 73  1  0
 28 74  1  0
 28 75  1  0
 29 76  1  0
 29 77  1  0
 30 78  1  0
 30 79  1  0
 32 80  1  0
 32 81  1  0
 32 82  1  0
M  END
>  <meeko>  (15) 
{"is_sidechain": [false], "intermolecular_energy": 2.731, "internal_energy": -0.839}

$$$$
EPH_relaxed_0001_pdb2pqr_Repair_330_r2_0001_out
     RDKit          3D

 82 86  0  0  0  0  0  0  0  0999 V2000
    0.8310    8.6070   -0.5270 C   0  0  0  0  0  0  0  0  0  0  0  0
   -0.2100    9.4510   -1.2660 C   0  0  2  0  0  0  0  0  0  0  0  0
   -0.9860    8.6290   -2.3150 C   0  0  0  0  0  0  0  0  0  0  0  0
   -2.4370    8.3430   -1.9220 C   0  0  0  0  0  0  0  0  0  0  0  0
   -2.9930    7.1690   -2.6710 C   0  0  2  0  0  0  0  0  0  0  0  0
   -4.0230    7.4930   -3.6140 O   0  0  0  0  0  0  0  0  0  0  0  0
   -4.4150    6.6680   -2.5050 C   0  0  0  0  0  0  0  0  0  0  0  0
   -5.3710    7.3300   -1.5620 C   0  0  0  0  0  0  0  0  0  0  0  0
   -4.7250    5.2540   -2.8850 C   0  0  0  0  0  0  0  0  0  0  0  0
    0.4660   10.6430   -1.9340 C   0  0  1  0  0  0  0  0  0  0  0  0
    0.0610   10.8020   -3.4240 C   0  0  0  0  0  0  0  0  0  0  0  0
    0.0170   12.3240   -3.7150 C   0  0  0  0  0  0  0  0  0  0  0  0
    0.7130   12.9750   -2.4960 C   0  0  1  0  0  0  0  0  0  0  0  0
    2.2400   12.8360   -2.7850 C   0  0  0  0  0  0  0  0  0  0  0  0
    0.3170   14.4540   -2.1830 C   0  0  2  0  0  0  0  0  0  0  0  0
    0.6610   15.4700   -3.2860 C   0  0  0  0  0  0  0  0  0  0  0  0
    2.0080   16.1020   -3.1740 C   0  0  0  0  0  0  0  0  0  0  0  0
    2.7920   16.0830   -2.0800 C   0  0  0  0  0  0  0  0  0  0  0  0
    2.2990   15.4600   -0.7680 C   0  0  1  0  0  0  0  0  0  0  0  0
    2.6170   16.4160    0.4120 C   0  0  0  0  0  0  0  0  0  0  0  0
    4.0910   16.8040    0.4680 C   0  0  0  0  0  0  0  0  0  0  0  0
    4.5300   17.4730   -0.8320 C   0  0  2  0  0  0  0  0  0  0  0  0
    3.8570   18.7300   -0.9530 O   0  0  0  0  0  0  0  0  0  0  0  0
    4.2500   16.6060   -2.0910 C   0  0  0  0  0  0  0  0  0  0  0  0
    5.2040   15.3870   -2.1070 C   0  0  0  0  0  0  0  0  0  0  0  0
    4.6070   17.4530   -3.3430 C   0  0  0  0  0  0  0  0  0  0  0  0
    0.7890   14.9640   -0.7610 C   0  0  1  0  0  0  0  0  0  0  0  0
   -0.1570   16.1430   -0.3740 C   0  0  0  0  0  0  0  0  0  0  0  0
    0.6120   13.8690    0.3560 C   0  0  0  0  0  0  0  0  0  0  0  0
    0.9040   12.4110   -0.0480 C   0  0  0  0  0  0  0  0  0  0  0  0
    0.1770   12.0460   -1.3460 C   0  0  2  0  0  0  0  0  0  0  0  0
   -1.3630   12.1550   -1.0790 C   0  0  0  0  0  0  0  0  0  0  0  0
    0.6914    8.7202    0.5582 H   0  0  0  0  0  0  0  0  0  0  0  0
    0.7093    7.5494   -0.8040 H   0  0  0  0  0  0  0  0  0  0  0  0
    1.8405    8.9448   -0.8040 H   0  0  0  0  0  0  0  0  0  0  0  0
   -0.9374    9.8058   -0.5210 H   0  0  0  0  0  0  0  0  0  0  0  0
   -0.9865    9.1874   -3.2627 H   0  0  0  0  0  0  0  0  0  0  0  0
   -0.4787    7.6568   -2.4010 H   0  0  0  0  0  0  0  0  0  0  0  0
   -2.4790    8.1303   -0.8436 H   0  0  0  0  0  0  0  0  0  0  0  0
   -3.0411    9.2274   -2.1730 H   0  0  0  0  0  0  0  0  0  0  0  0
   -2.0208    6.6556   -2.6341 H   0  0  0  0  0  0  0  0  0  0  0  0
   -5.0681    7.1202   -0.5255 H   0  0  0  0  0  0  0  0  0  0  0  0
   -5.3623    8.4165   -1.7338 H   0  0  0  0  0  0  0  0  0  0  0  0
   -6.3850    6.9397   -1.7338 H   0  0  0  0  0  0  0  0  0  0  0  0
   -4.8573    4.6504   -1.9750 H   0  0  0  0  0  0  0  0  0  0  0  0
   -5.6501    5.2285   -3.4797 H   0  0  0  0  0  0  0  0  0  0  0  0
   -3.8954    4.8438   -3.4797 H   0  0  0  0  0  0  0  0  0  0  0  0
    1.5196   10.3750   -1.7661 H   0  0  0  0  0  0  0  0  0  0  0  0
    0.8032   10.3136   -4.0726 H   0  0  0  0  0  0  0  0  0  0  0  0
   -0.9148   10.3338   -3.6204 H   0  0  0  0  0  0  0  0  0  0  0  0
    0.5599   12.5578   -4.6427 H   0  0  0  0  0  0  0  0  0  0  0  0
   -1.0100   12.6924   -3.8547 H   0  0  0  0  0  0  0  0  0  0  0  0
    2.7901   12.7859   -1.8338 H   0  0  0  0  0  0  0  0  0  0  0  0
    2.4218   11.9176   -3.3625 H   0  0  0  0  0  0  0  0  0  0  0  0
    2.5846   13.7065   -3.3625 H   0  0  0  0  0  0  0  0  0  0  0  0
   -0.7815   14.4027   -2.1565 H   0  0  0  0  0  0  0  0  0  0  0  0
    0.6088   14.9508   -4.2544 H   0  0  0  0  0  0  0  0  0  0  0  0
   -0.0677   16.2876   -3.1840 H   0  0  0  0  0  0  0  0  0  0  0  0
    2.3928   16.6278   -4.0602 H   0  0  0  0  0  0  0  0  0  0  0  0
    2.8592   14.5209   -0.6484 H   0  0  0  0  0  0  0  0  0  0  0  0
    2.0157   17.3300    0.2975 H   0  0  0  0  0  0  0  0  0  0  0  0
    2.3748   15.8870    1.3455 H   0  0  0  0  0  0  0  0  0  0  0  0
    4.2476   17.5028    1.3030 H   0  0  0  0  0  0  0  0  0  0  0  0
    4.6885   15.8917    0.6120 H   0  0  0  0  0  0  0  0  0  0  0  0
    5.6203   17.6098   -0.7819 H   0  0  0  0  0  0  0  0  0  0  0  0
    4.5360   19.4190   -1.0520 H   0  0  0  0  0  0  0  0  0  0  0  0
    5.4366   15.0898   -1.0738 H   0  0  0  0  0  0  0  0  0  0  0  0
    4.7194   14.5489   -2.6293 H   0  0  0  0  0  0  0  0  0  0  0  0
    6.1340   15.6560   -2.6293 H   0  0  0  0  0  0  0  0  0  0  0  0
    5.0160   18.4233   -3.0248 H   0  0  0  0  0  0  0  0  0  0  0  0
    5.3566   16.9189   -3.9454 H   0  0  0  0  0  0  0  0  0  0  0  0
    3.7013   17.6166   -3.9454 H   0  0  0  0  0  0  0  0  0  0  0  0
   -0.2183   16.2194    0.7216 H   0  0  0  0  0  0  0  0  0  0  0  0
    0.2407   17.0824   -0.7854 H   0  0  0  0  0  0  0  0  0  0  0  0
   -1.1603   15.9583   -0.7854 H   0  0  0  0  0  0  0  0  0  0  0  0
    1.2881   14.1265    1.1846 H   0  0  0  0  0  0  0  0  0  0  0  0
   -0.4578   13.8883    0.6110 H   0  0  0  0  0  0  0  0  0  0  0  0
    1.9872   12.2884   -0.1955 H   0  0  0  0  0  0  0  0  0  0  0  0
    0.5470   11.7468    0.7528 H   0  0  0  0  0  0  0  0  0  0  0  0
   -1.5471   12.1680    0.0054 H   0  0  0  0  0  0  0  0  0  0  0  0
   -1.7481   13.0827   -1.5275 H   0  0  0  0  0  0  0  0  0  0  0  0
   -1.8750   11.2908   -1.5275 H   0  0  0  0  0  0  0  0  0  0  0  0
  1  2  1  0
  2  3  1  0
  3  4  1  0
  4  5  1  0
  5  6  1  0
  6  7  1  0
  7  8  1  0
  7  9  1  0
  2 10  1  0
 10 11  1  0
 11 12  1  0
 12 13  1  0
 13 14  1  6
 13 15  1  0
 15 16  1  0
 16 17  1  0
 17 18  2  0
 18 19  1  0
 19 20  1  0
 20 21  1  0
 21 22  1  0
 22 23  1  0
 22 24  1  0
 24 25  1  0
 24 26  1  0
 19 27  1  0
 27 28  1  1
 27 29  1  0
 29 30  1  0
 30 31  1  0
 31 32  1  1
  7  5  1  0
 31 10  1  0
 31 13  1  0
 27 15  1  0
 24 18  1  0
  1 33  1  0
  1 34  1  0
  1 35  1  0
  2 36  1  1
  3 37  1  0
  3 38  1  0
  4 39  1  0
  4 40  1  0
  5 41  1  6
  8 42  1  0
  8 43  1  0
  8 44  1  0
  9 45  1  0
  9 46  1  0
  9 47  1  0
 10 48  1  6
 11 49  1  0
 11 50  1  0
 12 51  1  0
 12 52  1  0
 14 53  1  0
 14 54  1  0
 14 55  1  0
 15 56  1  1
 16 57  1  0
 16 58  1  0
 17 59  1  0
 19 60  1  1
 20 61  1  0
 20 62  1  0
 21 63  1  0
 21 64  1  0
 22 65  1  1
 23 66  1  0
 25 67  1  0
 25 68  1  0
 25 69  1  0
 26 70  1  0
 26 71  1  0
 26 72  1  0
 28 73  1  0
 28 74  1  0
 28 75  1  0
 29 76  1  0
 29 77  1  0
 30 78  1  0
 30 79  1  0
 32 80  1  0
 32 81  1  0
 32 82  1  0
M  END
>  <meeko>  (16) 
{"is_sidechain": [false], "intermolecular_energy": 2.731, "internal_energy": -0.839}

$$$$
EPH_relaxed_0001_pdb2pqr_Repair_330_r2_0001_out
     RDKit          3D

 82 86  0  0  0  0  0  0  0  0999 V2000
    0.2890    7.9550   -2.5560 C   0  0  0  0  0  0  0  0  0  0  0  0
   -1.0210    8.3670   -1.8790 C   0  0  2  0  0  0  0  0  0  0  0  0
   -2.2550    7.8020   -2.6110 C   0  0  0  0  0  0  0  0  0  0  0  0
   -3.5280    7.8000   -1.7600 C   0  0  0  0  0  0  0  0  0  0  0  0
   -4.5430    6.8280   -2.2820 C   0  0  2  0  0  0  0  0  0  0  0  0
   -5.3590    7.3310   -3.3480 O   0  0  0  0  0  0  0  0  0  0  0  0
   -6.0400    7.0160   -2.1230 C   0  0  0  0  0  0  0  0  0  0  0  0
   -6.6060    8.2080   -1.4180 C   0  0  0  0  0  0  0  0  0  0  0  0
   -6.9260    5.8130   -2.2170 C   0  0  0  0  0  0  0  0  0  0  0  0
   -1.1110    9.8870   -1.8030 C   0  0  1  0  0  0  0  0  0  0  0  0
   -2.4340   10.3750   -1.1550 C   0  0  0  0  0  0  0  0  0  0  0  0
   -2.0930   11.6570   -0.3520 C   0  0  0  0  0  0  0  0  0  0  0  0
   -0.6750   12.0490   -0.8280 C   0  0  1  0  0  0  0  0  0  0  0  0
   -0.8990   12.8020   -2.1770 C   0  0  0  0  0  0  0  0  0  0  0  0
    0.1800   12.8950    0.1700 C   0  0  2  0  0  0  0  0  0  0  0  0
   -0.4000   14.2780    0.5170 C   0  0  0  0  0  0  0  0  0  0  0  0
    0.0410   15.3950   -0.3700 C   0  0  0  0  0  0  0  0  0  0  0  0
    1.0830   15.3530   -1.2210 C   0  0  0  0  0  0  0  0  0  0  0  0
    2.0010   14.1260   -1.2830 C   0  0  1  0  0  0  0  0  0  0  0  0
    3.4820   14.5860   -1.2810 C   0  0  0  0  0  0  0  0  0  0  0  0
    3.7830   15.5950   -2.3850 C   0  0  0  0  0  0  0  0  0  0  0  0
    2.8900   16.8270   -2.2560 C   0  0  2  0  0  0  0  0  0  0  0  0
    3.2410   17.5270   -1.0580 O   0  0  0  0  0  0  0  0  0  0  0  0
    1.3740   16.4850   -2.2370 C   0  0  0  0  0  0  0  0  0  0  0  0
    0.9310   16.0050   -3.6410 C   0  0  0  0  0  0  0  0  0  0  0  0
    0.5920   17.7980   -1.9610 C   0  0  0  0  0  0  0  0  0  0  0  0
    1.7140   12.9900   -0.2080 C   0  0  1  0  0  0  0  0  0  0  0  0
    2.4800   13.3030    1.1140 C   0  0  0  0  0  0  0  0  0  0  0  0
    2.2850   11.6230   -0.7400 C   0  0  0  0  0  0  0  0  0  0  0  0
    1.3490   10.7760   -1.6230 C   0  0  0  0  0  0  0  0  0  0  0  0
   -0.0290   10.6230   -0.9730 C   0  0  2  0  0  0  0  0  0  0  0  0
    0.1610    9.8490    0.3760 C   0  0  0  0  0  0  0  0  0  0  0  0
    1.0402    7.7188   -1.7879 H   0  0  0  0  0  0  0  0  0  0  0  0
    0.1145    7.0684   -3.1832 H   0  0  0  0  0  0  0  0  0  0  0  0
    0.6535    8.7819   -3.1832 H   0  0  0  0  0  0  0  0  0  0  0  0
   -1.0167    7.9437   -0.8637 H   0  0  0  0  0  0  0  0  0  0  0  0
   -2.4373    8.4133   -3.5071 H   0  0  0  0  0  0  0  0  0  0  0  0
   -2.0309    6.7535   -2.8567 H   0  0  0  0  0  0  0  0  0  0  0  0
   -3.2665    7.5225   -0.7282 H   0  0  0  0  0  0  0  0  0  0  0  0
   -3.9673    8.8078   -1.7982 H   0  0  0  0  0  0  0  0  0  0  0  0
   -3.8788    5.9792   -2.0624 H   0  0  0  0  0  0  0  0  0  0  0  0
   -6.5351    8.0587   -0.3305 H   0  0  0  0  0  0  0  0  0  0  0  0
   -6.0382    9.1061   -1.7026 H   0  0  0  0  0  0  0  0  0  0  0  0
   -7.6609    8.3356   -1.7026 H   0  0  0  0  0  0  0  0  0  0  0  0
   -7.1816    5.4659   -1.2050 H   0  0  0  0  0  0  0  0  0  0  0  0
   -7.8469    6.0772   -2.7575 H   0  0  0  0  0  0  0  0  0  0  0  0
   -6.4005    5.0119   -2.7575 H   0  0  0  0  0  0  0  0  0  0  0  0
   -0.9986   10.1321   -2.8694 H   0  0  0  0  0  0  0  0  0  0  0  0
   -3.1761   10.6025   -1.9344 H   0  0  0  0  0  0  0  0  0  0  0  0
   -2.8619    9.6013   -0.5005 H   0  0  0  0  0  0  0  0  0  0  0  0
   -2.8130   12.4581   -0.5752 H   0  0  0  0  0  0  0  0  0  0  0  0
   -2.1380   11.4931    0.7348 H   0  0  0  0  0  0  0  0  0  0  0  0
   -1.2071   13.8379   -1.9719 H   0  0  0  0  0  0  0  0  0  0  0  0
    0.0370   12.8055   -2.7548 H   0  0  0  0  0  0  0  0  0  0  0  0
   -1.6847   12.2933   -2.7548 H   0  0  0  0  0  0  0  0  0  0  0  0
    0.1156   12.3031    1.0950 H   0  0  0  0  0  0  0  0  0  0  0  0
   -1.4965   14.2109    0.4596 H   0  0  0  0  0  0  0  0  0  0  0  0
   -0.0257   14.5216    1.5223 H   0  0  0  0  0  0  0  0  0  0  0  0
   -0.5343   16.3315   -0.3242 H   0  0  0  0  0  0  0  0  0  0  0  0
    1.7684   13.6206   -2.2319 H   0  0  0  0  0  0  0  0  0  0  0  0
    3.7058   15.0497   -0.3090 H   0  0  0  0  0  0  0  0  0  0  0  0
    4.1073   13.6989   -1.4601 H   0  0  0  0  0  0  0  0  0  0  0  0
    4.8361   15.9044   -2.3127 H   0  0  0  0  0  0  0  0  0  0  0  0
    3.5879   15.1200   -3.3578 H   0  0  0  0  0  0  0  0  0  0  0  0
    3.0590   17.4522   -3.1452 H   0  0  0  0  0  0  0  0  0  0  0  0
    3.1760   18.4790   -1.2440 H   0  0  0  0  0  0  0  0  0  0  0  0
    0.1884   15.2003   -3.5360 H   0  0  0  0  0  0  0  0  0  0  0  0
    0.4850   16.8460   -4.1922 H   0  0  0  0  0  0  0  0  0  0  0  0
    1.8050   15.6277   -4.1922 H   0  0  0  0  0  0  0  0  0  0  0  0
    0.5017   17.9496   -0.8753 H   0  0  0  0  0  0  0  0  0  0  0  0
    1.1319   18.6468   -2.4061 H   0  0  0  0  0  0  0  0  0  0  0  0
   -0.4114   17.7276   -2.4061 H   0  0  0  0  0  0  0  0  0  0  0  0
    1.8463   13.0441    1.9750 H   0  0  0  0  0  0  0  0  0  0  0  0
    3.4067   12.7114    1.1497 H   0  0  0  0  0  0  0  0  0  0  0  0
    2.7272   14.3743    1.1497 H   0  0  0  0  0  0  0  0  0  0  0  0
    3.1869   11.8457   -1.3291 H   0  0  0  0  0  0  0  0  0  0  0  0
    2.4606   11.0148    0.1596 H   0  0  0  0  0  0  0  0  0  0  0  0
    1.2333   11.2681   -2.5999 H   0  0  0  0  0  0  0  0  0  0  0  0
    1.7918    9.7765   -1.7450 H   0  0  0  0  0  0  0  0  0  0  0  0
   -0.0074   10.5350    1.2192 H   0  0  0  0  0  0  0  0  0  0  0  0
   -0.5604    9.0202    0.4279 H   0  0  0  0  0  0  0  0  0  0  0  0
    1.1841    9.4484    0.4279 H   0  0  0  0  0  0  0  0  0  0  0  0
  1  2  1  0
  2  3  1  0
  3  4  1  0
  4  5  1  0
  5  6  1  0
  6  7  1  0
  7  8  1  0
  7  9  1  0
  2 10  1  0
 10 11  1  0
 11 12  1  0
 12 13  1  0
 13 14  1  6
 13 15  1  0
 15 16  1  0
 16 17  1  0
 17 18  2  0
 18 19  1  0
 19 20  1  0
 20 21  1  0
 21 22  1  0
 22 23  1  0
 22 24  1  0
 24 25  1  0
 24 26  1  0
 19 27  1  0
 27 28  1  1
 27 29  1  0
 29 30  1  0
 30 31  1  0
 31 32  1  1
  7  5  1  0
 31 10  1  0
 31 13  1  0
 27 15  1  0
 24 18  1  0
  1 33  1  0
  1 34  1  0
  1 35  1  0
  2 36  1  1
  3 37  1  0
  3 38  1  0
  4 39  1  0
  4 40  1  0
  5 41  1  6
  8 42  1  0
  8 43  1  0
  8 44  1  0
  9 45  1  0
  9 46  1  0
  9 47  1  0
 10 48  1  6
 11 49  1  0
 11 50  1  0
 12 51  1  0
 12 52  1  0
 14 53  1  0
 14 54  1  0
 14 55  1  0
 15 56  1  1
 16 57  1  0
 16 58  1  0
 17 59  1  0
 19 60  1  6
 20 61  1  0
 20 62  1  0
 21 63  1  0
 21 64  1  0
 22 65  1  6
 23 66  1  0
 25 67  1  0
 25 68  1  0
 25 69  1  0
 26 70  1  0
 26 71  1  0
 26 72  1  0
 28 73  1  0
 28 74  1  0
 28 75  1  0
 29 76  1  0
 29 77  1  0
 30 78  1  0
 30 79  1  0
 32 80  1  0
 32 81  1  0
 32 82  1  0
M  END
>  <meeko>  (17) 
{"is_sidechain": [false], "intermolecular_energy": 2.731, "internal_energy": -0.839}

$$$$
EPH_relaxed_0001_pdb2pqr_Repair_330_r2_0001_out
     RDKit          3D

 82 86  0  0  0  0  0  0  0  0999 V2000
   -1.0540    8.1780   -1.8840 C   0  0  0  0  0  0  0  0  0  0  0  0
   -0.5670    8.6980   -0.5280 C   0  0  2  0  0  0  0  0  0  0  0  0
   -1.7060    9.3390    0.2900 C   0  0  0  0  0  0  0  0  0  0  0  0
   -1.4340   10.7930    0.6880 C   0  0  0  0  0  0  0  0  0  0  0  0
   -0.4330   10.8850    1.8000 C   0  0  2  0  0  0  0  0  0  0  0  0
   -0.7560   11.8410    2.8180 O   0  0  0  0  0  0  0  0  0  0  0  0
    0.4290   12.1080    2.0490 C   0  0  0  0  0  0  0  0  0  0  0  0
    0.3300   13.3230    1.1810 C   0  0  0  0  0  0  0  0  0  0  0  0
    1.7000   11.9420    2.8230 C   0  0  0  0  0  0  0  0  0  0  0  0
    0.5590    9.7040   -0.7310 C   0  0  1  0  0  0  0  0  0  0  0  0
    1.9100    9.0250   -1.0820 C   0  0  0  0  0  0  0  0  0  0  0  0
    2.6440    9.9710   -2.0670 C   0  0  0  0  0  0  0  0  0  0  0  0
    1.8540   11.2990   -1.9940 C   0  0  1  0  0  0  0  0  0  0  0  0
    2.3890   12.0130   -0.7130 C   0  0  0  0  0  0  0  0  0  0  0  0
    1.9420   12.2250   -3.2500 C   0  0  2  0  0  0  0  0  0  0  0  0
    3.3520   12.7460   -3.5800 C   0  0  0  0  0  0  0  0  0  0  0  0
    3.7160   14.0460   -2.9440 C   0  0  0  0  0  0  0  0  0  0  0  0
    2.8530   14.9070   -2.3740 C   0  0  0  0  0  0  0  0  0  0  0  0
    1.3410   14.6510   -2.4170 C   0  0  1  0  0  0  0  0  0  0  0  0
    0.6060   15.9540   -2.8270 C   0  0  0  0  0  0  0  0  0  0  0  0
    0.9720   17.1370   -1.9360 C   0  0  0  0  0  0  0  0  0  0  0  0
    2.4760   17.3970   -1.9650 C   0  0  2  0  0  0  0  0  0  0  0  0
    2.8420   17.8390   -3.2760 O   0  0  0  0  0  0  0  0  0  0  0  0
    3.3210   16.1510   -1.5780 C   0  0  0  0  0  0  0  0  0  0  0  0
    3.1500   15.8540   -0.0680 C   0  0  0  0  0  0  0  0  0  0  0  0
    4.8180   16.5060   -1.7850 C   0  0  0  0  0  0  0  0  0  0  0  0
    0.8750   13.3930   -3.2700 C   0  0  1  0  0  0  0  0  0  0  0  0
    0.6900   13.8020   -4.7630 C   0  0  0  0  0  0  0  0  0  0  0  0
   -0.5380   12.9220   -2.7600 C   0  0  0  0  0  0  0  0  0  0  0  0
   -0.5560   11.9150   -1.5950 C   0  0  0  0  0  0  0  0  0  0  0  0
    0.3900   10.7410   -1.8690 C   0  0  2  0  0  0  0  0  0  0  0  0
   -0.1360    9.9900   -3.1400 C   0  0  0  0  0  0  0  0  0  0  0  0
   -1.7982    7.3834   -1.7262 H   0  0  0  0  0  0  0  0  0  0  0  0
   -1.5123    9.0025   -2.4498 H   0  0  0  0  0  0  0  0  0  0  0  0
   -0.2012    7.7746   -2.4498 H   0  0  0  0  0  0  0  0  0  0  0  0
   -0.1949    7.8350    0.0437 H   0  0  0  0  0  0  0  0  0  0  0  0
   -2.6257    9.3100   -0.3128 H   0  0  0  0  0  0  0  0  0  0  0  0
   -1.7973    8.7618    1.2219 H   0  0  0  0  0  0  0  0  0  0  0  0
   -1.0461   11.3355   -0.1867 H   0  0  0  0  0  0  0  0  0  0  0  0
   -2.3782   11.2350    1.0389 H   0  0  0  0  0  0  0  0  0  0  0  0
   -0.1874    9.8175    1.6998 H   0  0  0  0  0  0  0  0  0  0  0  0
    0.2569   14.2203    1.8131 H   0  0  0  0  0  0  0  0  0  0  0  0
    1.2253   13.3939    0.5459 H   0  0  0  0  0  0  0  0  0  0  0  0
   -0.5650   13.2480    0.5459 H   0  0  0  0  0  0  0  0  0  0  0  0
    1.4797   11.9708    3.9003 H   0  0  0  0  0  0  0  0  0  0  0  0
    2.1607   10.9761    2.5686 H   0  0  0  0  0  0  0  0  0  0  0  0
    2.3933   12.7572    2.5686 H   0  0  0  0  0  0  0  0  0  0  0  0
    0.5328   10.2094    0.2457 H   0  0  0  0  0  0  0  0  0  0  0  0
    2.5115    8.8855   -0.1717 H   0  0  0  0  0  0  0  0  0  0  0  0
    1.7487    8.0344   -1.5322 H   0  0  0  0  0  0  0  0  0  0  0  0
    3.6879   10.1224   -1.7550 H   0  0  0  0  0  0  0  0  0  0  0  0
    2.6811    9.5631   -3.0879 H   0  0  0  0  0  0  0  0  0  0  0  0
    2.0044   11.4997    0.1806 H   0  0  0  0  0  0  0  0  0  0  0  0
    3.4886   11.9827   -0.7085 H   0  0  0  0  0  0  0  0  0  0  0  0
    2.0511   13.0598   -0.7085 H   0  0  0  0  0  0  0  0  0  0  0  0
    1.6789   11.5380   -4.0678 H   0  0  0  0  0  0  0  0  0  0  0  0
    4.0797   11.9903   -3.2493 H   0  0  0  0  0  0  0  0  0  0  0  0
    3.3644   12.9241   -4.6654 H   0  0  0  0  0  0  0  0  0  0  0  0
    4.7803   14.3241   -2.9408 H   0  0  0  0  0  0  0  0  0  0  0  0
    1.0518   14.3659   -1.3947 H   0  0  0  0  0  0  0  0  0  0  0  0
    0.8742   16.1984   -3.8654 H   0  0  0  0  0  0  0  0  0  0  0  0
   -0.4742   15.7762   -2.7191 H   0  0  0  0  0  0  0  0  0  0  0  0
    0.4447   18.0337   -2.2936 H   0  0  0  0  0  0  0  0  0  0  0  0
    0.6760   16.9031   -0.9027 H   0  0  0  0  0  0  0  0  0  0  0  0
    2.6922   18.1683   -1.2111 H   0  0  0  0  0  0  0  0  0  0  0  0
    2.0350   17.8580   -3.8160 H   0  0  0  0  0  0  0  0  0  0  0  0
    3.6141   16.6601    0.5191 H   0  0  0  0  0  0  0  0  0  0  0  0
    2.0788   15.7936    0.1748 H   0  0  0  0  0  0  0  0  0  0  0  0
    3.6355   14.8973    0.1748 H   0  0  0  0  0  0  0  0  0  0  0  0
    5.3061   16.6218   -0.8061 H   0  0  0  0  0  0  0  0  0  0  0  0
    5.3115   15.7000   -2.3478 H   0  0  0  0  0  0  0  0  0  0  0  0
    4.8971   17.4478   -2.3478 H   0  0  0  0  0  0  0  0  0  0  0  0
    0.2372   14.8031   -4.8155 H   0  0  0  0  0  0  0  0  0  0  0  0
    1.6695   13.8159   -5.2634 H   0  0  0  0  0  0  0  0  0  0  0  0
    0.0328   13.0756   -5.2634 H   0  0  0  0  0  0  0  0  0  0  0  0
   -1.0896   13.8165   -2.4351 H   0  0  0  0  0  0  0  0  0  0  0  0
   -0.9868   12.3868   -3.6098 H   0  0  0  0  0  0  0  0  0  0  0  0
   -0.2386   12.4252   -0.6736 H   0  0  0  0  0  0  0  0  0  0  0  0
   -1.5781   11.5233   -1.4862 H   0  0  0  0  0  0  0  0  0  0  0  0
   -0.7416    9.1254   -2.8306 H   0  0  0  0  0  0  0  0  0  0  0  0
   -0.7535   10.6740   -3.7407 H   0  0  0  0  0  0  0  0  0  0  0  0
    0.7178    9.6435   -3.7407 H   0  0  0  0  0  0  0  0  0  0  0  0
  1  2  1  0
  2  3  1  0
  3  4  1  0
  4  5  1  0
  5  6  1  0
  6  7  1  0
  7  8  1  0
  7  9  1  0
  2 10  1  0
 10 11  1  0
 11 12  1  0
 12 13  1  0
 13 14  1  1
 13 15  1  0
 15 16  1  0
 16 17  1  0
 17 18  2  0
 18 19  1  0
 19 20  1  0
 20 21  1  0
 21 22  1  0
 22 23  1  0
 22 24  1  0
 24 25  1  0
 24 26  1  0
 19 27  1  0
 27 28  1  6
 27 29  1  0
 29 30  1  0
 30 31  1  0
 31 32  1  6
  7  5  1  0
 31 10  1  0
 31 13  1  0
 27 15  1  0
 24 18  1  0
  1 33  1  0
  1 34  1  0
  1 35  1  0
  2 36  1  1
  3 37  1  0
  3 38  1  0
  4 39  1  0
  4 40  1  0
  5 41  1  1
  8 42  1  0
  8 43  1  0
  8 44  1  0
  9 45  1  0
  9 46  1  0
  9 47  1  0
 10 48  1  1
 11 49  1  0
 11 50  1  0
 12 51  1  0
 12 52  1  0
 14 53  1  0
 14 54  1  0
 14 55  1  0
 15 56  1  6
 16 57  1  0
 16 58  1  0
 17 59  1  0
 19 60  1  1
 20 61  1  0
 20 62  1  0
 21 63  1  0
 21 64  1  0
 22 65  1  1
 23 66  1  0
 25 67  1  0
 25 68  1  0
 25 69  1  0
 26 70  1  0
 26 71  1  0
 26 72  1  0
 28 73  1  0
 28 74  1  0
 28 75  1  0
 29 76  1  0
 29 77  1  0
 30 78  1  0
 30 79  1  0
 32 80  1  0
 32 81  1  0
 32 82  1  0
M  END
>  <meeko>  (18) 
{"is_sidechain": [false], "intermolecular_energy": 2.731, "internal_energy": -0.839}

$$$$
EPH_relaxed_0001_pdb2pqr_Repair_330_r2_0001_out
     RDKit          3D

 82 86  0  0  0  0  0  0  0  0999 V2000
    1.0290   17.5880   -2.5590 C   0  0  0  0  0  0  0  0  0  0  0  0
    2.3440   16.9600   -2.0890 C   0  0  2  0  0  0  0  0  0  0  0  0
    3.5660   17.5570   -2.8160 C   0  0  0  0  0  0  0  0  0  0  0  0
    4.8740   17.4270   -2.0300 C   0  0  0  0  0  0  0  0  0  0  0  0
    6.0400   17.9650   -2.8030 C   0  0  2  0  0  0  0  0  0  0  0  0
    5.8320   18.0500   -4.2190 O   0  0  0  0  0  0  0  0  0  0  0  0
    6.8500   17.1350   -3.7810 C   0  0  0  0  0  0  0  0  0  0  0  0
    6.5260   15.6970   -4.0390 C   0  0  0  0  0  0  0  0  0  0  0  0
    8.2410   17.5760   -4.1140 C   0  0  0  0  0  0  0  0  0  0  0  0
    2.3020   15.4500   -2.2950 C   0  0  1  0  0  0  0  0  0  0  0  0
    3.6740   14.8680   -2.7290 C   0  0  0  0  0  0  0  0  0  0  0  0
    3.7900   13.4650   -2.0790 C   0  0  0  0  0  0  0  0  0  0  0  0
    2.3620   13.1500   -1.5730 C   0  0  1  0  0  0  0  0  0  0  0  0
    1.5940   12.6410   -2.8330 C   0  0  0  0  0  0  0  0  0  0  0  0
    2.2570   12.1390   -0.3860 C   0  0  2  0  0  0  0  0  0  0  0  0
    2.7750   10.7220   -0.6870 C   0  0  0  0  0  0  0  0  0  0  0  0
    1.7560    9.7700   -1.2190 C   0  0  0  0  0  0  0  0  0  0  0  0
    0.4220    9.9500   -1.1800 C   0  0  0  0  0  0  0  0  0  0  0  0
   -0.1890   11.1630   -0.4670 C   0  0  1  0  0  0  0  0  0  0  0  0
   -1.3660   10.6980    0.4290 C   0  0  0  0  0  0  0  0  0  0  0  0
   -2.4060    9.8910   -0.3440 C   0  0  0  0  0  0  0  0  0  0  0  0
   -1.7720    8.6620   -0.9900 C   0  0  2  0  0  0  0  0  0  0  0  0
   -1.3500    7.7640    0.0420 O   0  0  0  0  0  0  0  0  0  0  0  0
   -0.5660    9.0060   -1.9090 C   0  0  0  0  0  0  0  0  0  0  0  0
   -1.0720    9.7220   -3.1850 C   0  0  0  0  0  0  0  0  0  0  0  0
    0.0680    7.6710   -2.3840 C   0  0  0  0  0  0  0  0  0  0  0  0
    0.8350   12.0990    0.3080 C   0  0  1  0  0  0  0  0  0  0  0  0
    1.0600   11.5600    1.7540 C   0  0  0  0  0  0  0  0  0  0  0  0
    0.2050   13.5340    0.4620 C   0  0  0  0  0  0  0  0  0  0  0  0
    0.4440   14.5260   -0.6920 C   0  0  0  0  0  0  0  0  0  0  0  0
    1.9270   14.5750   -1.0730 C   0  0  2  0  0  0  0  0  0  0  0  0
    2.7230   15.1050    0.1680 C   0  0  0  0  0  0  0  0  0  0  0  0
    0.4268   17.8756   -1.6845 H   0  0  0  0  0  0  0  0  0  0  0  0
    1.2448   18.4803   -3.1651 H   0  0  0  0  0  0  0  0  0  0  0  0
    0.4707   16.8593   -3.1651 H   0  0  0  0  0  0  0  0  0  0  0  0
    2.4541   17.1864   -1.0182 H   0  0  0  0  0  0  0  0  0  0  0  0
    3.6858   17.0373   -3.7780 H   0  0  0  0  0  0  0  0  0  0  0  0
    3.3718   18.6324   -2.9413 H   0  0  0  0  0  0  0  0  0  0  0  0
    4.7813   17.9876   -1.0881 H   0  0  0  0  0  0  0  0  0  0  0  0
    5.0536   16.3591   -1.8366 H   0  0  0  0  0  0  0  0  0  0  0  0
    6.3343   18.6055   -1.9585 H   0  0  0  0  0  0  0  0  0  0  0  0
    6.4073   15.1702   -3.0807 H   0  0  0  0  0  0  0  0  0  0  0  0
    5.5901   15.6293   -4.6130 H   0  0  0  0  0  0  0  0  0  0  0  0
    7.3424   15.2345   -4.6130 H   0  0  0  0  0  0  0  0  0  0  0  0
    8.8017   17.7538   -3.1845 H   0  0  0  0  0  0  0  0  0  0  0  0
    8.7432   16.7930   -4.7011 H   0  0  0  0  0  0  0  0  0  0  0  0
    8.2004   18.5053   -4.7011 H   0  0  0  0  0  0  0  0  0  0  0  0
    1.5107   15.3901   -3.0568 H   0  0  0  0  0  0  0  0  0  0  0  0
    3.7199   14.7829   -3.8247 H   0  0  0  0  0  0  0  0  0  0  0  0
    4.4993   15.5211   -2.4092 H   0  0  0  0  0  0  0  0  0  0  0  0
    4.1127   12.7191   -2.8203 H   0  0  0  0  0  0  0  0  0  0  0  0
    4.5343   13.4406   -1.2694 H   0  0  0  0  0  0  0  0  0  0  0  0
    0.7158   12.0590   -2.5168 H   0  0  0  0  0  0  0  0  0  0  0  0
    1.2663   13.5013   -3.4351 H   0  0  0  0  0  0  0  0  0  0  0  0
    2.2587   12.0040   -3.4351 H   0  0  0  0  0  0  0  0  0  0  0  0
    2.9585   12.5637    0.3471 H   0  0  0  0  0  0  0  0  0  0  0  0
    3.5821   10.8059   -1.4296 H   0  0  0  0  0  0  0  0  0  0  0  0
    3.1045   10.3074    0.2771 H   0  0  0  0  0  0  0  0  0  0  0  0
    2.1258    8.8432   -1.6820 H   0  0  0  0  0  0  0  0  0  0  0  0
   -0.5638   11.8259   -1.2608 H   0  0  0  0  0  0  0  0  0  0  0  0
   -0.9658   10.0723    1.2404 H   0  0  0  0  0  0  0  0  0  0  0  0
   -1.8640   11.5975    0.8199 H   0  0  0  0  0  0  0  0  0  0  0  0
   -3.1971    9.5664    0.3480 H   0  0  0  0  0  0  0  0  0  0  0  0
   -2.8262   10.5273   -1.1368 H   0  0  0  0  0  0  0  0  0  0  0  0
   -2.5340    8.1977   -1.6333 H   0  0  0  0  0  0  0  0  0  0  0  0
   -1.2980    8.2710    0.8700 H   0  0  0  0  0  0  0  0  0  0  0  0
   -1.6851   10.5896   -2.8999 H   0  0  0  0  0  0  0  0  0  0  0  0
   -0.2117   10.0609   -3.7809 H   0  0  0  0  0  0  0  0  0  0  0  0
   -1.6787    9.0242   -3.7809 H   0  0  0  0  0  0  0  0  0  0  0  0
    0.3539    7.0690   -1.5088 H   0  0  0  0  0  0  0  0  0  0  0  0
   -0.6616    7.1137   -2.9899 H   0  0  0  0  0  0  0  0  0  0  0  0
    0.9610    7.8843   -2.9899 H   0  0  0  0  0  0  0  0  0  0  0  0
    0.7425   12.3207    2.4824 H   0  0  0  0  0  0  0  0  0  0  0  0
    0.4693   10.6436    1.8998 H   0  0  0  0  0  0  0  0  0  0  0  0
    2.1269   11.3356    1.8998 H   0  0  0  0  0  0  0  0  0  0  0  0
   -0.8822   13.4097    0.5739 H   0  0  0  0  0  0  0  0  0  0  0  0
    0.7107   13.9780    1.3321 H   0  0  0  0  0  0  0  0  0  0  0  0
   -0.1422   14.2085   -1.5669 H   0  0  0  0  0  0  0  0  0  0  0  0
    0.1324   15.5285   -0.3636 H   0  0  0  0  0  0  0  0  0  0  0  0
    2.2255   14.7738    1.0915 H   0  0  0  0  0  0  0  0  0  0  0  0
    3.7490   14.7091    0.1419 H   0  0  0  0  0  0  0  0  0  0  0  0
    2.7534   16.2043    0.1419 H   0  0  0  0  0  0  0  0  0  0  0  0
  1  2  1  0
  2  3  1  0
  3  4  1  0
  4  5  1  0
  5  6  1  0
  6  7  1  0
  7  8  1  0
  7  9  1  0
  2 10  1  0
 10 11  1  0
 11 12  1  0
 12 13  1  0
 13 14  1  6
 13 15  1  0
 15 16  1  0
 16 17  1  0
 17 18  2  0
 18 19  1  0
 19 20  1  0
 20 21  1  0
 21 22  1  0
 22 23  1  0
 22 24  1  0
 24 25  1  0
 24 26  1  0
 19 27  1  0
 27 28  1  1
 27 29  1  0
 29 30  1  0
 30 31  1  0
 31 32  1  1
  7  5  1  0
 31 10  1  0
 31 13  1  0
 27 15  1  0
 24 18  1  0
  1 33  1  0
  1 34  1  0
  1 35  1  0
  2 36  1  1
  3 37  1  0
  3 38  1  0
  4 39  1  0
  4 40  1  0
  5 41  1  1
  8 42  1  0
  8 43  1  0
  8 44  1  0
  9 45  1  0
  9 46  1  0
  9 47  1  0
 10 48  1  6
 11 49  1  0
 11 50  1  0
 12 51  1  0
 12 52  1  0
 14 53  1  0
 14 54  1  0
 14 55  1  0
 15 56  1  1
 16 57  1  0
 16 58  1  0
 17 59  1  0
 19 60  1  6
 20 61  1  0
 20 62  1  0
 21 63  1  0
 21 64  1  0
 22 65  1  6
 23 66  1  0
 25 67  1  0
 25 68  1  0
 25 69  1  0
 26 70  1  0
 26 71  1  0
 26 72  1  0
 28 73  1  0
 28 74  1  0
 28 75  1  0
 29 76  1  0
 29 77  1  0
 30 78  1  0
 30 79  1  0
 32 80  1  0
 32 81  1  0
 32 82  1  0
M  END
>  <meeko>  (19) 
{"is_sidechain": [false], "intermolecular_energy": 2.731, "internal_energy": -0.839}

$$$$
