EPH_relaxed_0001_pdb2pqr_Repair_220_r2_0001_out
     RDKit          3D

 82 86  0  0  0  0  0  0  0  0999 V2000
   -1.7150    8.5910   -1.8830 C   0  0  0  0  0  0  0  0  0  0  0  0
   -2.0880    9.1070   -0.4910 C   0  0  2  0  0  0  0  0  0  0  0  0
   -3.5820    9.4760   -0.3890 C   0  0  0  0  0  0  0  0  0  0  0  0
   -4.5060    8.2640   -0.2410 C   0  0  0  0  0  0  0  0  0  0  0  0
   -5.2110    7.9450   -1.5240 C   0  0  2  0  0  0  0  0  0  0  0  0
   -6.3610    8.7580   -1.7940 O   0  0  0  0  0  0  0  0  0  0  0  0
   -6.6090    7.3580   -1.5870 C   0  0  0  0  0  0  0  0  0  0  0  0
   -7.3850    7.0550   -0.3440 C   0  0  0  0  0  0  0  0  0  0  0  0
   -7.0240    6.6300   -2.8280 C   0  0  0  0  0  0  0  0  0  0  0  0
   -1.2290   10.3150   -0.1370 C   0  0  1  0  0  0  0  0  0  0  0  0
   -0.1980   10.0080    0.9820 C   0  0  0  0  0  0  0  0  0  0  0  0
    1.0720   10.8360    0.6600 C   0  0  0  0  0  0  0  0  0  0  0  0
    0.6210   11.8340   -0.4320 C   0  0  1  0  0  0  0  0  0  0  0  0
   -0.0850   12.9880    0.3470 C   0  0  0  0  0  0  0  0  0  0  0  0
    1.7420   12.3770   -1.3770 C   0  0  2  0  0  0  0  0  0  0  0  0
    2.8450   13.1920   -0.6800 C   0  0  0  0  0  0  0  0  0  0  0  0
    2.5950   14.6620   -0.5940 C   0  0  0  0  0  0  0  0  0  0  0  0
    1.6730   15.3410   -1.3020 C   0  0  0  0  0  0  0  0  0  0  0  0
    0.8290   14.6390   -2.3730 C   0  0  1  0  0  0  0  0  0  0  0  0
    0.8030   15.5030   -3.6610 C   0  0  0  0  0  0  0  0  0  0  0  0
    0.3400   16.9330   -3.3970 C   0  0  0  0  0  0  0  0  0  0  0  0
    1.2390   17.6160   -2.3700 C   0  0  2  0  0  0  0  0  0  0  0  0
    2.5420   17.7860   -2.9380 O   0  0  0  0  0  0  0  0  0  0  0  0
    1.3500   16.8310   -1.0340 C   0  0  0  0  0  0  0  0  0  0  0  0
    0.0030   16.9070   -0.2720 C   0  0  0  0  0  0  0  0  0  0  0  0
    2.3940   17.5530   -0.1410 C   0  0  0  0  0  0  0  0  0  0  0  0
    1.2000   13.1210   -2.6640 C   0  0  1  0  0  0  0  0  0  0  0  0
    2.3340   13.0460   -3.7320 C   0  0  0  0  0  0  0  0  0  0  0  0
   -0.0500   12.3970   -3.2920 C   0  0  0  0  0  0  0  0  0  0  0  0
   -1.0600   11.7770   -2.3080 C   0  0  0  0  0  0  0  0  0  0  0  0
   -0.3470   10.9140   -1.2620 C   0  0  2  0  0  0  0  0  0  0  0  0
    0.3550    9.7320   -2.0130 C   0  0  0  0  0  0  0  0  0  0  0  0
   -1.0731    7.7031   -1.7851 H   0  0  0  0  0  0  0  0  0  0  0  0
   -2.6298    8.3234   -2.4321 H   0  0  0  0  0  0  0  0  0  0  0  0
   -1.1740    9.3757   -2.4321 H   0  0  0  0  0  0  0  0  0  0  0  0
   -1.8990    8.2932    0.2246 H   0  0  0  0  0  0  0  0  0  0  0  0
   -3.7200   10.1271    0.4868 H   0  0  0  0  0  0  0  0  0  0  0  0
   -3.8550    9.9757   -1.3302 H   0  0  0  0  0  0  0  0  0  0  0  0
   -3.9061    7.3933    0.0622 H   0  0  0  0  0  0  0  0  0  0  0  0
   -5.2658    8.5026    0.5178 H   0  0  0  0  0  0  0  0  0  0  0  0
   -4.2638    7.6478   -1.9978 H   0  0  0  0  0  0  0  0  0  0  0  0
   -6.7727    7.2941    0.5380 H   0  0  0  0  0  0  0  0  0  0  0  0
   -8.3031    7.6607   -0.3281 H   0  0  0  0  0  0  0  0  0  0  0  0
   -7.6497    5.9874   -0.3281 H   0  0  0  0  0  0  0  0  0  0  0  0
   -7.5513    5.7050   -2.5515 H   0  0  0  0  0  0  0  0  0  0  0  0
   -7.6931    7.2699   -3.4221 H   0  0  0  0  0  0  0  0  0  0  0  0
   -6.1325    6.3803   -3.4221 H   0  0  0  0  0  0  0  0  0  0  0  0
   -2.0189   11.0275    0.1428 H   0  0  0  0  0  0  0  0  0  0  0  0
   -0.6034   10.3018    1.9615 H   0  0  0  0  0  0  0  0  0  0  0  0
    0.0315    8.9330    1.0232 H   0  0  0  0  0  0  0  0  0  0  0  0
    1.4234   11.3716    1.5542 H   0  0  0  0  0  0  0  0  0  0  0  0
    1.9087   10.2040    0.3275 H   0  0  0  0  0  0  0  0  0  0  0  0
    0.0193   12.8176    1.4287 H   0  0  0  0  0  0  0  0  0  0  0  0
    0.3803   13.9485    0.0806 H   0  0  0  0  0  0  0  0  0  0  0  0
   -1.1520   13.0111    0.0806 H   0  0  0  0  0  0  0  0  0  0  0  0
    2.2273   11.4524   -1.7228 H   0  0  0  0  0  0  0  0  0  0  0  0
    2.9572   12.8059    0.3439 H   0  0  0  0  0  0  0  0  0  0  0  0
    3.7475   13.0727   -1.2975 H   0  0  0  0  0  0  0  0  0  0  0  0
    3.2166   15.2384    0.1069 H   0  0  0  0  0  0  0  0  0  0  0  0
   -0.1858   14.5600   -1.9561 H   0  0  0  0  0  0  0  0  0  0  0  0
    1.8172   15.5335   -4.0857 H   0  0  0  0  0  0  0  0  0  0  0  0
    0.0862   15.0431   -4.3572 H   0  0  0  0  0  0  0  0  0  0  0  0
    0.3720   17.5014   -4.3382 H   0  0  0  0  0  0  0  0  0  0  0  0
   -0.6858   16.9027   -3.0010 H   0  0  0  0  0  0  0  0  0  0  0  0
    0.7822   18.5865   -2.1260 H   0  0  0  0  0  0  0  0  0  0  0  0
    2.4540   17.7090   -3.9030 H   0  0  0  0  0  0  0  0  0  0  0  0
    0.1935   16.8963    0.8113 H   0  0  0  0  0  0  0  0  0  0  0  0
   -0.5198   17.8361   -0.5432 H   0  0  0  0  0  0  0  0  0  0  0  0
   -0.6210   16.0426   -0.5432 H   0  0  0  0  0  0  0  0  0  0  0  0
    2.1499   17.3842    0.9182 H   0  0  0  0  0  0  0  0  0  0  0  0
    3.3969   17.1546   -0.3541 H   0  0  0  0  0  0  0  0  0  0  0  0
    2.3752   18.6320   -0.3541 H   0  0  0  0  0  0  0  0  0  0  0  0
    3.3093   12.9815   -3.2273 H   0  0  0  0  0  0  0  0  0  0  0  0
    2.1870   12.1556   -4.3610 H   0  0  0  0  0  0  0  0  0  0  0  0
    2.3056   13.9480   -4.3610 H   0  0  0  0  0  0  0  0  0  0  0  0
   -0.5904   13.1354   -3.9025 H   0  0  0  0  0  0  0  0  0  0  0  0
    0.3624   11.5468   -3.8552 H   0  0  0  0  0  0  0  0  0  0  0  0
   -1.6064   12.5836   -1.7972 H   0  0  0  0  0  0  0  0  0  0  0  0
   -1.7552   11.1395   -2.8740 H   0  0  0  0  0  0  0  0  0  0  0  0
    0.7732    9.0279   -1.2786 H   0  0  0  0  0  0  0  0  0  0  0  0
   -0.3798    9.2104   -2.6439 H   0  0  0  0  0  0  0  0  0  0  0  0
    1.1646   10.1277   -2.6439 H   0  0  0  0  0  0  0  0  0  0  0  0
  1  2  1  0
  2  3  1  0
  3  4  1  0
  4  5  1  0
  5  6  1  0
  6  7  1  0
  7  8  1  0
  7  9  1  0
  2 10  1  0
 10 11  1  0
 11 12  1  0
 12 13  1  0
 13 14  1  1
 13 15  1  0
 15 16  1  0
 16 17  1  0
 17 18  2  0
 18 19  1  0
 19 20  1  0
 20 21  1  0
 21 22  1  0
 22 23  1  0
 22 24  1  0
 24 25  1  0
 24 26  1  0
 19 27  1  0
 27 28  1  6
 27 29  1  0
 29 30  1  0
 30 31  1  0
 31 32  1  6
  7  5  1  0
 31 10  1  0
 31 13  1  0
 27 15  1  0
 24 18  1  0
  1 33  1  0
  1 34  1  0
  1 35  1  0
  2 36  1  1
  3 37  1  0
  3 38  1  0
  4 39  1  0
  4 40  1  0
  5 41  1  6
  8 42  1  0
  8 43  1  0
  8 44  1  0
  9 45  1  0
  9 46  1  0
  9 47  1  0
 10 48  1  1
 11 49  1  0
 11 50  1  0
 12 51  1  0
 12 52  1  0
 14 53  1  0
 14 54  1  0
 14 55  1  0
 15 56  1  6
 16 57  1  0
 16 58  1  0
 17 59  1  0
 19 60  1  1
 20 61  1  0
 20 62  1  0
 21 63  1  0
 21 64  1  0
 22 65  1  1
 23 66  1  0
 25 67  1  0
 25 68  1  0
 25 69  1  0
 26 70  1  0
 26 71  1  0
 26 72  1  0
 28 73  1  0
 28 74  1  0
 28 75  1  0
 29 76  1  0
 29 77  1  0
 30 78  1  0
 30 79  1  0
 32 80  1  0
 32 81  1  0
 32 82  1  0
M  END
>  <meeko>  (1) 
{"is_sidechain": [false], "intermolecular_energy": 2.731, "internal_energy": -0.839}

$$$$
EPH_relaxed_0001_pdb2pqr_Repair_220_r2_0001_out
     RDKit          3D

 82 86  0  0  0  0  0  0  0  0999 V2000
    4.2050   17.5730   -0.0000 C   0  0  0  0  0  0  0  0  0  0  0  0
    2.7950   18.1590   -0.1090 C   0  0  2  0  0  0  0  0  0  0  0  0
    2.4870   19.1470    1.0340 C   0  0  0  0  0  0  0  0  0  0  0  0
    3.7210   19.8840    1.5600 C   0  0  0  0  0  0  0  0  0  0  0  0
    4.2200   19.2860    2.8400 C   0  0  2  0  0  0  0  0  0  0  0  0
    4.9400   20.1940    3.6840 O   0  0  0  0  0  0  0  0  0  0  0  0
    5.6920   19.0900    3.1540 C   0  0  0  0  0  0  0  0  0  0  0  0
    6.7570   19.4900    2.1820 C   0  0  0  0  0  0  0  0  0  0  0  0
    6.0740   18.0720    4.1830 C   0  0  0  0  0  0  0  0  0  0  0  0
    1.7640   17.0360   -0.1200 C   0  0  1  0  0  0  0  0  0  0  0  0
    0.3330   17.5420   -0.4420 C   0  0  0  0  0  0  0  0  0  0  0  0
   -0.3620   16.4260   -1.2640 C   0  0  0  0  0  0  0  0  0  0  0  0
    0.5600   15.1940   -1.1050 C   0  0  1  0  0  0  0  0  0  0  0  0
    0.1800   14.5850    0.2810 C   0  0  0  0  0  0  0  0  0  0  0  0
    0.4880   14.1260   -2.2450 C   0  0  2  0  0  0  0  0  0  0  0  0
   -0.8800   13.4420   -2.4130 C   0  0  0  0  0  0  0  0  0  0  0  0
   -1.0720   12.1950   -1.6150 C   0  0  0  0  0  0  0  0  0  0  0  0
   -0.0930   11.4890   -1.0190 C   0  0  0  0  0  0  0  0  0  0  0  0
    1.3800   11.8780   -1.2000 C   0  0  1  0  0  0  0  0  0  0  0  0
    2.2150   10.6100   -1.5190 C   0  0  0  0  0  0  0  0  0  0  0  0
    2.0250    9.5080   -0.4810 C   0  0  0  0  0  0  0  0  0  0  0  0
    0.5560    9.1080   -0.3730 C   0  0  2  0  0  0  0  0  0  0  0  0
    0.1550    8.4870   -1.5980 O   0  0  0  0  0  0  0  0  0  0  0  0
   -0.3840   10.3070   -0.0630 C   0  0  0  0  0  0  0  0  0  0  0  0
   -0.1510   10.7890    1.3910 C   0  0  0  0  0  0  0  0  0  0  0  0
   -1.8480    9.7930   -0.1200 C   0  0  0  0  0  0  0  0  0  0  0  0
    1.6640   13.0670   -2.2150 C   0  0  1  0  0  0  0  0  0  0  0  0
    1.7960   12.5090   -3.6650 C   0  0  0  0  0  0  0  0  0  0  0  0
    3.0510   13.7230   -1.8640 C   0  0  0  0  0  0  0  0  0  0  0  0
    3.0400   14.8540   -0.8180 C   0  0  0  0  0  0  0  0  0  0  0  0
    1.9660   15.8950   -1.1490 C   0  0  2  0  0  0  0  0  0  0  0  0
    2.3340   16.5420   -2.5280 C   0  0  0  0  0  0  0  0  0  0  0  0
    4.4745   17.4610    1.0606 H   0  0  0  0  0  0  0  0  0  0  0  0
    4.2321   16.5891   -0.4911 H   0  0  0  0  0  0  0  0  0  0  0  0
    4.9215   18.2478   -0.4911 H   0  0  0  0  0  0  0  0  0  0  0  0
    2.7422   18.7204   -1.0535 H   0  0  0  0  0  0  0  0  0  0  0  0
    1.7685   19.8932    0.6638 H   0  0  0  0  0  0  0  0  0  0  0  0
    2.0852   18.5559    1.8701 H   0  0  0  0  0  0  0  0  0  0  0  0
    4.5190   19.8270    0.8050 H   0  0  0  0  0  0  0  0  0  0  0  0
    3.4384   20.9287    1.7569 H   0  0  0  0  0  0  0  0  0  0  0  0
    3.3589   18.6030    2.8844 H   0  0  0  0  0  0  0  0  0  0  0  0
    7.6486   19.8249    2.7323 H   0  0  0  0  0  0  0  0  0  0  0  0
    7.0184   18.6288    1.5496 H   0  0  0  0  0  0  0  0  0  0  0  0
    6.3868   20.3104    1.5496 H   0  0  0  0  0  0  0  0  0  0  0  0
    5.9171   18.4901    5.1883 H   0  0  0  0  0  0  0  0  0  0  0  0
    5.4519   17.1734    4.0584 H   0  0  0  0  0  0  0  0  0  0  0  0
    7.1337   17.8045    4.0584 H   0  0  0  0  0  0  0  0  0  0  0  0
    1.9006   16.6503    0.9011 H   0  0  0  0  0  0  0  0  0  0  0  0
   -0.2217   17.7275    0.4896 H   0  0  0  0  0  0  0  0  0  0  0  0
    0.3655   18.4858   -1.0061 H   0  0  0  0  0  0  0  0  0  0  0  0
   -1.3645   16.2153   -0.8632 H   0  0  0  0  0  0  0  0  0  0  0  0
   -0.5024   16.7093   -2.3176 H   0  0  0  0  0  0  0  0  0  0  0  0
    0.5782   15.2232    1.0835 H   0  0  0  0  0  0  0  0  0  0  0  0
   -0.9150   14.5267    0.3681 H   0  0  0  0  0  0  0  0  0  0  0  0
    0.6090   13.5758    0.3681 H   0  0  0  0  0  0  0  0  0  0  0  0
    0.6297   14.7358   -3.1495 H   0  0  0  0  0  0  0  0  0  0  0  0
   -1.6579   14.1599   -2.1140 H   0  0  0  0  0  0  0  0  0  0  0  0
   -0.9414   13.1399   -3.4689 H   0  0  0  0  0  0  0  0  0  0  0  0
   -2.1007   11.8214   -1.5047 H   0  0  0  0  0  0  0  0  0  0  0  0
    1.7018   12.3049   -0.2386 H   0  0  0  0  0  0  0  0  0  0  0  0
    1.9089   10.2244   -2.5027 H   0  0  0  0  0  0  0  0  0  0  0  0
    3.2765   10.8981   -1.5096 H   0  0  0  0  0  0  0  0  0  0  0  0
    2.6167    8.6291   -0.7766 H   0  0  0  0  0  0  0  0  0  0  0  0
    2.3590    9.8852    0.4968 H   0  0  0  0  0  0  0  0  0  0  0  0
    0.4658    8.4110    0.4732 H   0  0  0  0  0  0  0  0  0  0  0  0
    0.9140    8.5180   -2.2050 H   0  0  0  0  0  0  0  0  0  0  0  0
   -0.5194   10.0269    2.0934 H   0  0  0  0  0  0  0  0  0  0  0  0
    0.9245   10.9503    1.5559 H   0  0  0  0  0  0  0  0  0  0  0  0
   -0.6927   11.7321    1.5559 H   0  0  0  0  0  0  0  0  0  0  0  0
   -2.2296    9.6590    0.9029 H   0  0  0  0  0  0  0  0  0  0  0  0
   -2.4733   10.5254   -0.6517 H   0  0  0  0  0  0  0  0  0  0  0  0
   -1.8782    8.8305   -0.6517 H   0  0  0  0  0  0  0  0  0  0  0  0
    2.0491   11.4393   -3.6246 H   0  0  0  0  0  0  0  0  0  0  0  0
    0.8420   12.6403   -4.1967 H   0  0  0  0  0  0  0  0  0  0  0  0
    2.5901   13.0538   -4.1967 H   0  0  0  0  0  0  0  0  0  0  0  0
    3.7095   12.9269   -1.4863 H   0  0  0  0  0  0  0  0  0  0  0  0
    3.3892   14.1974   -2.7971 H   0  0  0  0  0  0  0  0  0  0  0  0
    2.8325   14.4254    0.1736 H   0  0  0  0  0  0  0  0  0  0  0  0
    4.0225   15.3486   -0.8251 H   0  0  0  0  0  0  0  0  0  0  0  0
    2.8713   17.4867   -2.3581 H   0  0  0  0  0  0  0  0  0  0  0  0
    2.9752   15.8527   -3.0970 H   0  0  0  0  0  0  0  0  0  0  0  0
    1.4138   16.7408   -3.0970 H   0  0  0  0  0  0  0  0  0  0  0  0
  1  2  1  0
  2  3  1  0
  3  4  1  0
  4  5  1  0
  5  6  1  0
  6  7  1  0
  7  8  1  0
  7  9  1  0
  2 10  1  0
 10 11  1  0
 11 12  1  0
 12 13  1  0
 13 14  1  1
 13 15  1  0
 15 16  1  0
 16 17  1  0
 17 18  2  0
 18 19  1  0
 19 20  1  0
 20 21  1  0
 21 22  1  0
 22 23  1  0
 22 24  1  0
 24 25  1  0
 24 26  1  0
 19 27  1  0
 27 28  1  6
 27 29  1  0
 29 30  1  0
 30 31  1  0
 31 32  1  6
  7  5  1  0
 31 10  1  0
 31 13  1  0
 27 15  1  0
 24 18  1  0
  1 33  1  0
  1 34  1  0
  1 35  1  0
  2 36  1  6
  3 37  1  0
  3 38  1  0
  4 39  1  0
  4 40  1  0
  5 41  1  1
  8 42  1  0
  8 43  1  0
  8 44  1  0
  9 45  1  0
  9 46  1  0
  9 47  1  0
 10 48  1  1
 11 49  1  0
 11 50  1  0
 12 51  1  0
 12 52  1  0
 14 53  1  0
 14 54  1  0
 14 55  1  0
 15 56  1  6
 16 57  1  0
 16 58  1  0
 17 59  1  0
 19 60  1  1
 20 61  1  0
 20 62  1  0
 21 63  1  0
 21 64  1  0
 22 65  1  1
 23 66  1  0
 25 67  1  0
 25 68  1  0
 25 69  1  0
 26 70  1  0
 26 71  1  0
 26 72  1  0
 28 73  1  0
 28 74  1  0
 28 75  1  0
 29 76  1  0
 29 77  1  0
 30 78  1  0
 30 79  1  0
 32 80  1  0
 32 81  1  0
 32 82  1  0
M  END
>  <meeko>  (2) 
{"is_sidechain": [false], "intermolecular_energy": 2.731, "internal_energy": -0.839}

$$$$
EPH_relaxed_0001_pdb2pqr_Repair_220_r2_0001_out
     RDKit          3D

 82 86  0  0  0  0  0  0  0  0999 V2000
    0.4210   18.3860   -0.0080 C   0  0  0  0  0  0  0  0  0  0  0  0
    1.5080   17.3300   -0.2310 C   0  0  2  0  0  0  0  0  0  0  0  0
    2.7160   17.8960   -1.0040 C   0  0  0  0  0  0  0  0  0  0  0  0
    3.9500   18.1320   -0.1290 C   0  0  0  0  0  0  0  0  0  0  0  0
    3.5760   18.6200    1.2370 C   0  0  2  0  0  0  0  0  0  0  0  0
    3.8460   20.0080    1.4730 O   0  0  0  0  0  0  0  0  0  0  0  0
    4.5900   19.0730    2.2710 C   0  0  0  0  0  0  0  0  0  0  0  0
    6.0590   19.0590    1.9810 C   0  0  0  0  0  0  0  0  0  0  0  0
    4.1940   19.0640    3.7140 C   0  0  0  0  0  0  0  0  0  0  0  0
    0.9260   16.1350   -0.9770 C   0  0  1  0  0  0  0  0  0  0  0  0
    0.7860   16.3920   -2.5010 C   0  0  0  0  0  0  0  0  0  0  0  0
    1.0670   15.0430   -3.2100 C   0  0  0  0  0  0  0  0  0  0  0  0
    1.0310   13.9910   -2.0760 C   0  0  1  0  0  0  0  0  0  0  0  0
   -0.4850   13.6990   -1.8480 C   0  0  0  0  0  0  0  0  0  0  0  0
    1.8410   12.6770   -2.3260 C   0  0  2  0  0  0  0  0  0  0  0  0
    1.3600   11.8320   -3.5180 C   0  0  0  0  0  0  0  0  0  0  0  0
    0.3290   10.8020   -3.1950 C   0  0  0  0  0  0  0  0  0  0  0  0
    0.0160   10.3700   -1.9590 C   0  0  0  0  0  0  0  0  0  0  0  0
    0.7970   10.8580   -0.7330 C   0  0  1  0  0  0  0  0  0  0  0  0
    1.1570    9.6470    0.1670 C   0  0  0  0  0  0  0  0  0  0  0  0
   -0.0650    8.8150    0.5460 C   0  0  0  0  0  0  0  0  0  0  0  0
   -0.7810    8.3000   -0.6990 C   0  0  2  0  0  0  0  0  0  0  0  0
    0.0690    7.3610   -1.3650 O   0  0  0  0  0  0  0  0  0  0  0  0
   -1.1850    9.4310   -1.6860 C   0  0  0  0  0  0  0  0  0  0  0  0
   -2.3310   10.2730   -1.0720 C   0  0  0  0  0  0  0  0  0  0  0  0
   -1.7700    8.7650   -2.9610 C   0  0  0  0  0  0  0  0  0  0  0  0
    2.0490   11.7890   -1.0340 C   0  0  1  0  0  0  0  0  0  0  0  0
    3.3130   10.9130   -1.2950 C   0  0  0  0  0  0  0  0  0  0  0  0
    2.3650   12.6540    0.2430 C   0  0  0  0  0  0  0  0  0  0  0  0
    1.6220   13.9980    0.3730 C   0  0  0  0  0  0  0  0  0  0  0  0
    1.7220   14.8070   -0.9230 C   0  0  2  0  0  0  0  0  0  0  0  0
    3.2340   15.1350   -1.1670 C   0  0  0  0  0  0  0  0  0  0  0  0
    0.2691   18.5336    1.0714 H   0  0  0  0  0  0  0  0  0  0  0  0
    0.7325   19.3356   -0.4676 H   0  0  0  0  0  0  0  0  0  0  0  0
   -0.5192   18.0472   -0.4676 H   0  0  0  0  0  0  0  0  0  0  0  0
    1.8684   17.0111    0.7582 H   0  0  0  0  0  0  0  0  0  0  0  0
    2.9845   17.1842   -1.7985 H   0  0  0  0  0  0  0  0  0  0  0  0
    2.4125   18.8751   -1.4031 H   0  0  0  0  0  0  0  0  0  0  0  0
    4.5032   17.1864   -0.0305 H   0  0  0  0  0  0  0  0  0  0  0  0
    4.5693   18.9030   -0.6107 H   0  0  0  0  0  0  0  0  0  0  0  0
    2.7390   17.9080    1.2868 H   0  0  0  0  0  0  0  0  0  0  0  0
    6.6195   19.0537    2.9274 H   0  0  0  0  0  0  0  0  0  0  0  0
    6.3097   18.1584    1.4013 H   0  0  0  0  0  0  0  0  0  0  0  0
    6.3268   19.9546    1.4013 H   0  0  0  0  0  0  0  0  0  0  0  0
    5.0968   19.0845    4.3421 H   0  0  0  0  0  0  0  0  0  0  0  0
    3.5766   19.9483    3.9303 H   0  0  0  0  0  0  0  0  0  0  0  0
    3.6175   18.1525    3.9303 H   0  0  0  0  0  0  0  0  0  0  0  0
   -0.0256   16.0258   -0.4361 H   0  0  0  0  0  0  0  0  0  0  0  0
   -0.2317   16.7380   -2.7348 H   0  0  0  0  0  0  0  0  0  0  0  0
    1.4892   17.1684   -2.8367 H   0  0  0  0  0  0  0  0  0  0  0  0
    0.2923   14.8305   -3.9615 H   0  0  0  0  0  0  0  0  0  0  0  0
    2.0275   15.0457   -3.7461 H   0  0  0  0  0  0  0  0  0  0  0  0
   -0.6924   13.6591   -0.7685 H   0  0  0  0  0  0  0  0  0  0  0  0
   -1.0854   14.4980   -2.3074 H   0  0  0  0  0  0  0  0  0  0  0  0
   -0.7457   12.7341   -2.3074 H   0  0  0  0  0  0  0  0  0  0  0  0
    2.8316   13.0603   -2.6121 H   0  0  0  0  0  0  0  0  0  0  0  0
    0.9351   12.5144   -4.2688 H   0  0  0  0  0  0  0  0  0  0  0  0
    2.2416   11.2788   -3.8741 H   0  0  0  0  0  0  0  0  0  0  0  0
   -0.2214   10.3586   -4.0379 H   0  0  0  0  0  0  0  0  0  0  0  0
    0.1213   11.5369   -0.1921 H   0  0  0  0  0  0  0  0  0  0  0  0
    1.8670    9.0043   -0.3742 H   0  0  0  0  0  0  0  0  0  0  0  0
    1.5941   10.0405    1.0966 H   0  0  0  0  0  0  0  0  0  0  0  0
    0.2577    7.9584    1.1560 H   0  0  0  0  0  0  0  0  0  0  0  0
   -0.7605    9.4508    1.1135 H   0  0  0  0  0  0  0  0  0  0  0  0
   -1.7159    7.8241   -0.3681 H   0  0  0  0  0  0  0  0  0  0  0  0
   -0.4230    7.0040   -2.1230 H   0  0  0  0  0  0  0  0  0  0  0  0
   -2.2710   10.2289    0.0255 H   0  0  0  0  0  0  0  0  0  0  0  0
   -2.2361   11.3178   -1.4027 H   0  0  0  0  0  0  0  0  0  0  0  0
   -3.2997    9.8702   -1.4027 H   0  0  0  0  0  0  0  0  0  0  0  0
   -2.4701    7.9680   -2.6700 H   0  0  0  0  0  0  0  0  0  0  0  0
   -2.3019    9.5203   -3.5581 H   0  0  0  0  0  0  0  0  0  0  0  0
   -0.9524    8.3349   -3.5581 H   0  0  0  0  0  0  0  0  0  0  0  0
    3.7527   10.6082   -0.3339 H   0  0  0  0  0  0  0  0  0  0  0  0
    3.0272   10.0183   -1.8676 H   0  0  0  0  0  0  0  0  0  0  0  0
    4.0504   11.4947   -1.8676 H   0  0  0  0  0  0  0  0  0  0  0  0
    2.1137   12.0480    1.1260 H   0  0  0  0  0  0  0  0  0  0  0  0
    3.4286   12.9204    0.1543 H   0  0  0  0  0  0  0  0  0  0  0  0
    0.5623   13.8034    0.5949 H   0  0  0  0  0  0  0  0  0  0  0  0
    2.0852   14.5777    1.1850 H   0  0  0  0  0  0  0  0  0  0  0  0
    3.7458   15.2460   -0.1997 H   0  0  0  0  0  0  0  0  0  0  0  0
    3.6994   14.3169   -1.7363 H   0  0  0  0  0  0  0  0  0  0  0  0
    3.3186   16.0724   -1.7363 H   0  0  0  0  0  0  0  0  0  0  0  0
  1  2  1  0
  2  3  1  0
  3  4  1  0
  4  5  1  0
  5  6  1  0
  6  7  1  0
  7  8  1  0
  7  9  1  0
  2 10  1  0
 10 11  1  0
 11 12  1  0
 12 13  1  0
 13 14  1  1
 13 15  1  0
 15 16  1  0
 16 17  1  0
 17 18  2  0
 18 19  1  0
 19 20  1  0
 20 21  1  0
 21 22  1  0
 22 23  1  0
 22 24  1  0
 24 25  1  0
 24 26  1  0
 19 27  1  0
 27 28  1  6
 27 29  1  0
 29 30  1  0
 30 31  1  0
 31 32  1  6
  7  5  1  0
 31 10  1  0
 31 13  1  0
 27 15  1  0
 24 18  1  0
  1 33  1  0
  1 34  1  0
  1 35  1  0
  2 36  1  1
  3 37  1  0
  3 38  1  0
  4 39  1  0
  4 40  1  0
  5 41  1  1
  8 42  1  0
  8 43  1  0
  8 44  1  0
  9 45  1  0
  9 46  1  0
  9 47  1  0
 10 48  1  1
 11 49  1  0
 11 50  1  0
 12 51  1  0
 12 52  1  0
 14 53  1  0
 14 54  1  0
 14 55  1  0
 15 56  1  6
 16 57  1  0
 16 58  1  0
 17 59  1  0
 19 60  1  1
 20 61  1  0
 20 62  1  0
 21 63  1  0
 21 64  1  0
 22 65  1  1
 23 66  1  0
 25 67  1  0
 25 68  1  0
 25 69  1  0
 26 70  1  0
 26 71  1  0
 26 72  1  0
 28 73  1  0
 28 74  1  0
 28 75  1  0
 29 76  1  0
 29 77  1  0
 30 78  1  0
 30 79  1  0
 32 80  1  0
 32 81  1  0
 32 82  1  0
M  END
>  <meeko>  (3) 
{"is_sidechain": [false], "intermolecular_energy": 2.731, "internal_energy": -0.839}

$$$$
EPH_relaxed_0001_pdb2pqr_Repair_220_r2_0001_out
     RDKit          3D

 82 86  0  0  0  0  0  0  0  0999 V2000
    2.3700   17.9800   -2.7300 C   0  0  0  0  0  0  0  0  0  0  0  0
    1.0690   17.6160   -2.0090 C   0  0  2  0  0  0  0  0  0  0  0  0
    1.2170   17.6800   -0.4760 C   0  0  0  0  0  0  0  0  0  0  0  0
    0.8830   19.0520    0.1180 C   0  0  0  0  0  0  0  0  0  0  0  0
   -0.5530   19.1400    0.5360 C   0  0  2  0  0  0  0  0  0  0  0  0
   -1.4410   18.2770   -0.1870 O   0  0  0  0  0  0  0  0  0  0  0  0
   -1.6520   19.6890   -0.3550 C   0  0  0  0  0  0  0  0  0  0  0  0
   -1.3610   20.1870   -1.7360 C   0  0  0  0  0  0  0  0  0  0  0  0
   -2.9080   20.1910    0.2850 C   0  0  0  0  0  0  0  0  0  0  0  0
    0.6140   16.2230   -2.4300 C   0  0  1  0  0  0  0  0  0  0  0  0
    0.6780   16.0130   -3.9670 C   0  0  0  0  0  0  0  0  0  0  0  0
    1.0760   14.5330   -4.2000 C   0  0  0  0  0  0  0  0  0  0  0  0
    0.9040   13.8610   -2.8180 C   0  0  1  0  0  0  0  0  0  0  0  0
   -0.6240   13.5630   -2.7030 C   0  0  0  0  0  0  0  0  0  0  0  0
    1.7620   12.5790   -2.5610 C   0  0  2  0  0  0  0  0  0  0  0  0
    1.4620   11.3950   -3.4970 C   0  0  0  0  0  0  0  0  0  0  0  0
    0.4140   10.4490   -3.0120 C   0  0  0  0  0  0  0  0  0  0  0  0
   -0.0560   10.3820   -1.7530 C   0  0  0  0  0  0  0  0  0  0  0  0
    0.5430   11.2520   -0.6400 C   0  0  1  0  0  0  0  0  0  0  0  0
    0.7990   10.3810    0.6180 C   0  0  0  0  0  0  0  0  0  0  0  0
   -0.4490    9.6300    1.0720 C   0  0  0  0  0  0  0  0  0  0  0  0
   -0.9810    8.7310   -0.0410 C   0  0  2  0  0  0  0  0  0  0  0  0
   -0.0330    7.6880   -0.2850 O   0  0  0  0  0  0  0  0  0  0  0  0
   -1.2670    9.4980   -1.3630 C   0  0  0  0  0  0  0  0  0  0  0  0
   -2.4990   10.4170   -1.1760 C   0  0  0  0  0  0  0  0  0  0  0  0
   -1.6620    8.4560   -2.4440 C   0  0  0  0  0  0  0  0  0  0  0  0
    1.8090   12.1230   -1.0470 C   0  0  1  0  0  0  0  0  0  0  0  0
    3.1110   11.2810   -0.8750 C   0  0  0  0  0  0  0  0  0  0  0  0
    1.9340   13.3410   -0.0580 C   0  0  0  0  0  0  0  0  0  0  0  0
    1.1570   14.6190   -0.4280 C   0  0  0  0  0  0  0  0  0  0  0  0
    1.4180   15.0170   -1.8840 C   0  0  2  0  0  0  0  0  0  0  0  0
    2.9440   15.3440   -2.0250 C   0  0  0  0  0  0  0  0  0  0  0  0
    3.1518   18.1987   -1.9877 H   0  0  0  0  0  0  0  0  0  0  0  0
    2.6884   17.1364   -3.3601 H   0  0  0  0  0  0  0  0  0  0  0  0
    2.2044   18.8663   -3.3601 H   0  0  0  0  0  0  0  0  0  0  0  0
    0.3112   18.3588   -2.2989 H   0  0  0  0  0  0  0  0  0  0  0  0
    0.5415   16.9349   -0.0305 H   0  0  0  0  0  0  0  0  0  0  0  0
    2.2738   17.4788   -0.2463 H   0  0  0  0  0  0  0  0  0  0  0  0
    1.5214   19.2249    0.9969 H   0  0  0  0  0  0  0  0  0  0  0  0
    1.0624   19.8134   -0.6553 H   0  0  0  0  0  0  0  0  0  0  0  0
   -0.2618   19.3660    1.5724 H   0  0  0  0  0  0  0  0  0  0  0  0
   -0.8069   21.1353   -1.6746 H   0  0  0  0  0  0  0  0  0  0  0  0
   -0.7557   19.4428   -2.2742 H   0  0  0  0  0  0  0  0  0  0  0  0
   -2.3066   20.3490   -2.2742 H   0  0  0  0  0  0  0  0  0  0  0  0
   -2.8039   20.1494    1.3793 H   0  0  0  0  0  0  0  0  0  0  0  0
   -3.0884   21.2303   -0.0269 H   0  0  0  0  0  0  0  0  0  0  0  0
   -3.7550   19.5623   -0.0269 H   0  0  0  0  0  0  0  0  0  0  0  0
   -0.3999   16.2233   -2.0034 H   0  0  0  0  0  0  0  0  0  0  0  0
   -0.3042   16.2167   -4.4184 H   0  0  0  0  0  0  0  0  0  0  0  0
    1.4067   16.6954   -4.4288 H   0  0  0  0  0  0  0  0  0  0  0  0
    0.4145   14.0655   -4.9442 H   0  0  0  0  0  0  0  0  0  0  0  0
    2.1003   14.4325   -4.5883 H   0  0  0  0  0  0  0  0  0  0  0  0
   -0.9079   13.5076   -1.6417 H   0  0  0  0  0  0  0  0  0  0  0  0
   -1.1923   14.3672   -3.1931 H   0  0  0  0  0  0  0  0  0  0  0  0
   -0.8485   12.6042   -3.1931 H   0  0  0  0  0  0  0  0  0  0  0  0
    2.7755   12.9168   -2.8229 H   0  0  0  0  0  0  0  0  0  0  0  0
    1.1317   11.8015   -4.4643 H   0  0  0  0  0  0  0  0  0  0  0  0
    2.3930   10.8124   -3.5590 H   0  0  0  0  0  0  0  0  0  0  0  0
   -0.0097    9.7475   -3.7458 H   0  0  0  0  0  0  0  0  0  0  0  0
   -0.2120   12.0196   -0.4146 H   0  0  0  0  0  0  0  0  0  0  0  0
    1.5865    9.6489    0.3860 H   0  0  0  0  0  0  0  0  0  0  0  0
    1.1002   11.0535    1.4347 H   0  0  0  0  0  0  0  0  0  0  0  0
   -0.1983    9.0107    1.9459 H   0  0  0  0  0  0  0  0  0  0  0  0
   -1.2257   10.3647    1.3307 H   0  0  0  0  0  0  0  0  0  0  0  0
   -1.9434    8.3203    0.2982 H   0  0  0  0  0  0  0  0  0  0  0  0
   -0.3490    6.8900    0.1710 H   0  0  0  0  0  0  0  0  0  0  0  0
   -2.6904   10.5597   -0.1022 H   0  0  0  0  0  0  0  0  0  0  0  0
   -2.3039   11.3920   -1.6465 H   0  0  0  0  0  0  0  0  0  0  0  0
   -3.3780    9.9522   -1.6465 H   0  0  0  0  0  0  0  0  0  0  0  0
   -2.0112    7.5347   -1.9549 H   0  0  0  0  0  0  0  0  0  0  0  0
   -2.4671    8.8659   -3.0715 H   0  0  0  0  0  0  0  0  0  0  0  0
   -0.7875    8.2292   -3.0715 H   0  0  0  0  0  0  0  0  0  0  0  0
    3.3210   11.1452    0.1962 H   0  0  0  0  0  0  0  0  0  0  0  0
    2.9773   10.2979   -1.3500 H   0  0  0  0  0  0  0  0  0  0  0  0
    3.9528   11.8062   -1.3500 H   0  0  0  0  0  0  0  0  0  0  0  0
    1.5763   13.0076    0.9273 H   0  0  0  0  0  0  0  0  0  0  0  0
    2.9949   13.6298   -0.0898 H   0  0  0  0  0  0  0  0  0  0  0  0
    0.0806   14.4378   -0.2919 H   0  0  0  0  0  0  0  0  0  0  0  0
    1.4954   15.4368    0.2253 H   0  0  0  0  0  0  0  0  0  0  0  0
    3.3923   15.4401   -1.0251 H   0  0  0  0  0  0  0  0  0  0  0  0
    3.4436   14.5325   -2.5744 H   0  0  0  0  0  0  0  0  0  0  0  0
    3.0673   16.2889   -2.5744 H   0  0  0  0  0  0  0  0  0  0  0  0
  1  2  1  0
  2  3  1  0
  3  4  1  0
  4  5  1  0
  5  6  1  0
  6  7  1  0
  7  8  1  0
  7  9  1  0
  2 10  1  0
 10 11  1  0
 11 12  1  0
 12 13  1  0
 13 14  1  1
 13 15  1  0
 15 16  1  0
 16 17  1  0
 17 18  2  0
 18 19  1  0
 19 20  1  0
 20 21  1  0
 21 22  1  0
 22 23  1  0
 22 24  1  0
 24 25  1  0
 24 26  1  0
 19 27  1  0
 27 28  1  6
 27 29  1  0
 29 30  1  0
 30 31  1  0
 31 32  1  1
  7  5  1  0
 31 10  1  0
 31 13  1  0
 27 15  1  0
 24 18  1  0
  1 33  1  0
  1 34  1  0
  1 35  1  0
  2 36  1  6
  3 37  1  0
  3 38  1  0
  4 39  1  0
  4 40  1  0
  5 41  1  1
  8 42  1  0
  8 43  1  0
  8 44  1  0
  9 45  1  0
  9 46  1  0
  9 47  1  0
 10 48  1  1
 11 49  1  0
 11 50  1  0
 12 51  1  0
 12 52  1  0
 14 53  1  0
 14 54  1  0
 14 55  1  0
 15 56  1  6
 16 57  1  0
 16 58  1  0
 17 59  1  0
 19 60  1  1
 20 61  1  0
 20 62  1  0
 21 63  1  0
 21 64  1  0
 22 65  1  1
 23 66  1  0
 25 67  1  0
 25 68  1  0
 25 69  1  0
 26 70  1  0
 26 71  1  0
 26 72  1  0
 28 73  1  0
 28 74  1  0
 28 75  1  0
 29 76  1  0
 29 77  1  0
 30 78  1  0
 30 79  1  0
 32 80  1  0
 32 81  1  0
 32 82  1  0
M  END
>  <meeko>  (4) 
{"is_sidechain": [false], "intermolecular_energy": 2.731, "internal_energy": -0.839}

$$$$
EPH_relaxed_0001_pdb2pqr_Repair_220_r2_0001_out
     RDKit          3D

 82 86  0  0  0  0  0  0  0  0999 V2000
    0.4490    8.8550   -2.4910 C   0  0  0  0  0  0  0  0  0  0  0  0
    1.2060   10.0110   -3.1500 C   0  0  2  0  0  0  0  0  0  0  0  0
    2.7000   10.0190   -2.7680 C   0  0  0  0  0  0  0  0  0  0  0  0
    3.6080   10.6080   -3.8510 C   0  0  0  0  0  0  0  0  0  0  0  0
    5.0000   10.8350   -3.3430 C   0  0  2  0  0  0  0  0  0  0  0  0
    5.6080   12.0550   -3.7890 O   0  0  0  0  0  0  0  0  0  0  0  0
    6.2260   10.8370   -4.2370 C   0  0  0  0  0  0  0  0  0  0  0  0
    6.1180   10.6060   -5.7110 C   0  0  0  0  0  0  0  0  0  0  0  0
    7.5640   10.5770   -3.6160 C   0  0  0  0  0  0  0  0  0  0  0  0
    0.5630   11.3390   -2.7670 C   0  0  1  0  0  0  0  0  0  0  0  0
   -0.8140   11.1580   -2.0730 C   0  0  0  0  0  0  0  0  0  0  0  0
   -0.9340   12.2840   -1.0150 C   0  0  0  0  0  0  0  0  0  0  0  0
    0.2130   13.2630   -1.3560 C   0  0  1  0  0  0  0  0  0  0  0  0
   -0.3380   14.1340   -2.5280 C   0  0  0  0  0  0  0  0  0  0  0  0
    0.7410   14.1470   -0.1790 C   0  0  2  0  0  0  0  0  0  0  0  0
   -0.2930   15.1140    0.4250 C   0  0  0  0  0  0  0  0  0  0  0  0
   -0.3400   16.4690   -0.2000 C   0  0  0  0  0  0  0  0  0  0  0  0
    0.6000   16.9900   -1.0090 C   0  0  0  0  0  0  0  0  0  0  0  0
    1.9040   16.2330   -1.2920 C   0  0  1  0  0  0  0  0  0  0  0  0
    3.1070   17.2010   -1.1500 C   0  0  0  0  0  0  0  0  0  0  0  0
    2.9590   18.4500   -2.0140 C   0  0  0  0  0  0  0  0  0  0  0  0
    1.6810   19.2070   -1.6630 C   0  0  2  0  0  0  0  0  0  0  0  0
    1.8040   19.7300   -0.3370 O   0  0  0  0  0  0  0  0  0  0  0  0
    0.4020   18.3290   -1.7610 C   0  0  0  0  0  0  0  0  0  0  0  0
    0.1010   18.0120   -3.2470 C   0  0  0  0  0  0  0  0  0  0  0  0
   -0.7960   19.1720   -1.2460 C   0  0  0  0  0  0  0  0  0  0  0  0
    2.1100   14.8810   -0.4820 C   0  0  1  0  0  0  0  0  0  0  0  0
    2.7690   15.1820    0.8980 C   0  0  0  0  0  0  0  0  0  0  0  0
    3.1210   13.9620   -1.2650 C   0  0  0  0  0  0  0  0  0  0  0  0
    2.5240   13.0240   -2.3320 C   0  0  0  0  0  0  0  0  0  0  0  0
    1.3340   12.2410   -1.7710 C   0  0  2  0  0  0  0  0  0  0  0  0
    1.8620   11.3390   -0.6040 C   0  0  0  0  0  0  0  0  0  0  0  0
    0.5123    8.9516   -1.3971 H   0  0  0  0  0  0  0  0  0  0  0  0
   -0.6060    8.8834   -2.8012 H   0  0  0  0  0  0  0  0  0  0  0  0
    0.8968    7.8994   -2.8012 H   0  0  0  0  0  0  0  0  0  0  0  0
    1.1445    9.8689   -4.2390 H   0  0  0  0  0  0  0  0  0  0  0  0
    2.8211   10.6148   -1.8513 H   0  0  0  0  0  0  0  0  0  0  0  0
    3.0025    8.9705   -2.6295 H   0  0  0  0  0  0  0  0  0  0  0  0
    3.6478    9.9109   -4.7010 H   0  0  0  0  0  0  0  0  0  0  0  0
    3.1917   11.5790   -4.1573 H   0  0  0  0  0  0  0  0  0  0  0  0
    4.7707   10.3055   -2.4065 H   0  0  0  0  0  0  0  0  0  0  0  0
    5.6587    9.6236   -5.8955 H   0  0  0  0  0  0  0  0  0  0  0  0
    5.4943   11.3926   -6.1607 H   0  0  0  0  0  0  0  0  0  0  0  0
    7.1215   10.6319   -6.1607 H   0  0  0  0  0  0  0  0  0  0  0  0
    7.4695   10.5954   -2.5202 H   0  0  0  0  0  0  0  0  0  0  0  0
    7.9313    9.5907   -3.9359 H   0  0  0  0  0  0  0  0  0  0  0  0
    8.2739   11.3540   -3.9359 H   0  0  0  0  0  0  0  0  0  0  0  0
    0.5246   11.8176   -3.7567 H   0  0  0  0  0  0  0  0  0  0  0  0
   -1.6245   11.2445   -2.8116 H   0  0  0  0  0  0  0  0  0  0  0  0
   -0.8922   10.1660   -1.6041 H   0  0  0  0  0  0  0  0  0  0  0  0
   -1.9094   12.7867   -1.0918 H   0  0  0  0  0  0  0  0  0  0  0  0
   -0.8628   11.8997    0.0132 H   0  0  0  0  0  0  0  0  0  0  0  0
   -0.8838   14.9968   -2.1185 H   0  0  0  0  0  0  0  0  0  0  0  0
    0.4997   14.4897   -3.1458 H   0  0  0  0  0  0  0  0  0  0  0  0
   -1.0183   13.5294   -3.1458 H   0  0  0  0  0  0  0  0  0  0  0  0
    0.9456   13.4006    0.6027 H   0  0  0  0  0  0  0  0  0  0  0  0
   -1.2879   14.6566    0.3202 H   0  0  0  0  0  0  0  0  0  0  0  0
    0.0116   15.2713    1.4702 H   0  0  0  0  0  0  0  0  0  0  0  0
   -1.2178   17.0944    0.0197 H   0  0  0  0  0  0  0  0  0  0  0  0
    1.8307   15.8797   -2.3311 H   0  0  0  0  0  0  0  0  0  0  0  0
    3.1896   17.5085   -0.0971 H   0  0  0  0  0  0  0  0  0  0  0  0
    4.0070   16.6664   -1.4878 H   0  0  0  0  0  0  0  0  0  0  0  0
    3.8246   19.1079   -1.8471 H   0  0  0  0  0  0  0  0  0  0  0  0
    2.9072   18.1433   -3.0691 H   0  0  0  0  0  0  0  0  0  0  0  0
    1.5642   20.0153   -2.3999 H   0  0  0  0  0  0  0  0  0  0  0  0
    1.7750   20.7000   -0.3990 H   0  0  0  0  0  0  0  0  0  0  0  0
   -0.6553   17.2155   -3.3061 H   0  0  0  0  0  0  0  0  0  0  0  0
   -0.2790   18.9161   -3.7451 H   0  0  0  0  0  0  0  0  0  0  0  0
    1.0236   17.6793   -3.7451 H   0  0  0  0  0  0  0  0  0  0  0  0
   -0.7976   19.1731   -0.1460 H   0  0  0  0  0  0  0  0  0  0  0  0
   -0.7027   20.2046   -1.6136 H   0  0  0  0  0  0  0  0  0  0  0  0
   -1.7364   18.7355   -1.6136 H   0  0  0  0  0  0  0  0  0  0  0  0
    2.0888   14.8713    1.7047 H   0  0  0  0  0  0  0  0  0  0  0  0
    3.7148   14.6266    0.9816 H   0  0  0  0  0  0  0  0  0  0  0  0
    2.9685   16.2605    0.9816 H   0  0  0  0  0  0  0  0  0  0  0  0
    3.8468   14.6183   -1.7674 H   0  0  0  0  0  0  0  0  0  0  0  0
    3.5523   13.2949   -0.5041 H   0  0  0  0  0  0  0  0  0  0  0  0
    2.1873   13.6239   -3.1904 H   0  0  0  0  0  0  0  0  0  0  0  0
    3.2994   12.3081   -2.6423 H   0  0  0  0  0  0  0  0  0  0  0  0
    1.5953   11.7946    0.3610 H   0  0  0  0  0  0  0  0  0  0  0  0
    1.4056   10.3408   -0.6768 H   0  0  0  0  0  0  0  0  0  0  0  0
    2.9558   11.2482   -0.6768 H   0  0  0  0  0  0  0  0  0  0  0  0
  1  2  1  0
  2  3  1  0
  3  4  1  0
  4  5  1  0
  5  6  1  0
  6  7  1  0
  7  8  1  0
  7  9  1  0
  2 10  1  0
 10 11  1  0
 11 12  1  0
 12 13  1  0
 13 14  1  6
 13 15  1  0
 15 16  1  0
 16 17  1  0
 17 18  2  0
 18 19  1  0
 19 20  1  0
 20 21  1  0
 21 22  1  0
 22 23  1  0
 22 24  1  0
 24 25  1  0
 24 26  1  0
 19 27  1  0
 27 28  1  1
 27 29  1  0
 29 30  1  0
 30 31  1  0
 31 32  1  1
  7  5  1  0
 31 10  1  0
 31 13  1  0
 27 15  1  0
 24 18  1  0
  1 33  1  0
  1 34  1  0
  1 35  1  0
  2 36  1  6
  3 37  1  0
  3 38  1  0
  4 39  1  0
  4 40  1  0
  5 41  1  1
  8 42  1  0
  8 43  1  0
  8 44  1  0
  9 45  1  0
  9 46  1  0
  9 47  1  0
 10 48  1  6
 11 49  1  0
 11 50  1  0
 12 51  1  0
 12 52  1  0
 14 53  1  0
 14 54  1  0
 14 55  1  0
 15 56  1  1
 16 57  1  0
 16 58  1  0
 17 59  1  0
 19 60  1  6
 20 61  1  0
 20 62  1  0
 21 63  1  0
 21 64  1  0
 22 65  1  6
 23 66  1  0
 25 67  1  0
 25 68  1  0
 25 69  1  0
 26 70  1  0
 26 71  1  0
 26 72  1  0
 28 73  1  0
 28 74  1  0
 28 75  1  0
 29 76  1  0
 29 77  1  0
 30 78  1  0
 30 79  1  0
 32 80  1  0
 32 81  1  0
 32 82  1  0
M  END
>  <meeko>  (5) 
{"is_sidechain": [false], "intermolecular_energy": 2.731, "internal_energy": -0.839}

$$$$
EPH_relaxed_0001_pdb2pqr_Repair_220_r2_0001_out
     RDKit          3D

 82 86  0  0  0  0  0  0  0  0999 V2000
    4.3060   16.4530    0.4830 C   0  0  0  0  0  0  0  0  0  0  0  0
    3.0600   17.0170   -0.2060 C   0  0  2  0  0  0  0  0  0  0  0  0
    2.6200   18.3640    0.4020 C   0  0  0  0  0  0  0  0  0  0  0  0
    2.5030   19.4930   -0.6250 C   0  0  0  0  0  0  0  0  0  0  0  0
    1.6590   19.0920   -1.7970 C   0  0  2  0  0  0  0  0  0  0  0  0
    1.1050   20.1870   -2.5380 O   0  0  0  0  0  0  0  0  0  0  0  0
    0.1620   19.3320   -1.8710 C   0  0  0  0  0  0  0  0  0  0  0  0
   -0.5780   19.9970   -0.7530 C   0  0  0  0  0  0  0  0  0  0  0  0
   -0.6520   18.4890   -2.8020 C   0  0  0  0  0  0  0  0  0  0  0  0
    1.9190   16.0100   -0.1210 C   0  0  1  0  0  0  0  0  0  0  0  0
    0.5260   16.6900   -0.0510 C   0  0  0  0  0  0  0  0  0  0  0  0
   -0.4580   15.7750   -0.8260 C   0  0  0  0  0  0  0  0  0  0  0  0
    0.3170   14.4520   -1.0270 C   0  0  1  0  0  0  0  0  0  0  0  0
    0.1620   13.6870    0.3250 C   0  0  0  0  0  0  0  0  0  0  0  0
   -0.1230   13.5720   -2.2420 C   0  0  2  0  0  0  0  0  0  0  0  0
   -1.5700   13.0520   -2.1810 C   0  0  0  0  0  0  0  0  0  0  0  0
   -1.7440   11.7260   -1.5180 C   0  0  0  0  0  0  0  0  0  0  0  0
   -0.7570   10.8520   -1.2460 C   0  0  0  0  0  0  0  0  0  0  0  0
    0.6820   11.1220   -1.7030 C   0  0  1  0  0  0  0  0  0  0  0  0
    1.2680    9.8400   -2.3520 C   0  0  0  0  0  0  0  0  0  0  0  0
    1.1640    8.6220   -1.4390 C   0  0  0  0  0  0  0  0  0  0  0  0
   -0.2880    8.3520   -1.0530 C   0  0  2  0  0  0  0  0  0  0  0  0
   -1.0090    7.9550   -2.2240 O   0  0  0  0  0  0  0  0  0  0  0  0
   -0.9860    9.5760   -0.3980 C   0  0  0  0  0  0  0  0  0  0  0  0
   -0.3970    9.8180    1.0130 C   0  0  0  0  0  0  0  0  0  0  0  0
   -2.4820    9.2170   -0.1880 C   0  0  0  0  0  0  0  0  0  0  0  0
    0.8920   12.4130   -2.6050 C   0  0  1  0  0  0  0  0  0  0  0  0
    0.6490   12.0610   -4.1040 C   0  0  0  0  0  0  0  0  0  0  0  0
    2.3930   12.8770   -2.4960 C   0  0  0  0  0  0  0  0  0  0  0  0
    2.7400   13.8410   -1.3460 C   0  0  0  0  0  0  0  0  0  0  0  0
    1.7590   15.0160   -1.2990 C   0  0  2  0  0  0  0  0  0  0  0  0
    1.9080   15.8170   -2.6370 C   0  0  0  0  0  0  0  0  0  0  0  0
    4.1793   16.5104    1.5742 H   0  0  0  0  0  0  0  0  0  0  0  0
    4.4465   15.4035    0.1849 H   0  0  0  0  0  0  0  0  0  0  0  0
    5.1872   17.0400    0.1849 H   0  0  0  0  0  0  0  0  0  0  0  0
    3.3180   17.1990   -1.2597 H   0  0  0  0  0  0  0  0  0  0  0  0
    1.6387   18.2256    0.8795 H   0  0  0  0  0  0  0  0  0  0  0  0
    3.3977   18.6620    1.1206 H   0  0  0  0  0  0  0  0  0  0  0  0
    2.0472   20.3693   -0.1409 H   0  0  0  0  0  0  0  0  0  0  0  0
    3.5126   19.7266   -0.9938 H   0  0  0  0  0  0  0  0  0  0  0  0
    2.2711   18.1927   -1.9605 H   0  0  0  0  0  0  0  0  0  0  0  0
   -0.1830   19.6421    0.2104 H   0  0  0  0  0  0  0  0  0  0  0  0
   -0.4471   21.0869   -0.8238 H   0  0  0  0  0  0  0  0  0  0  0  0
   -1.6478   19.7508   -0.8238 H   0  0  0  0  0  0  0  0  0  0  0  0
   -1.2995   17.8184   -2.2181 H   0  0  0  0  0  0  0  0  0  0  0  0
   -1.2735   19.1384   -3.4361 H   0  0  0  0  0  0  0  0  0  0  0  0
    0.0187   17.8906   -3.4361 H   0  0  0  0  0  0  0  0  0  0  0  0
    2.2171   15.4696    0.7896 H   0  0  0  0  0  0  0  0  0  0  0  0
    0.2054   16.7898    0.9965 H   0  0  0  0  0  0  0  0  0  0  0  0
    0.5562   17.6984   -0.4894 H   0  0  0  0  0  0  0  0  0  0  0  0
   -1.3730   15.6040   -0.2399 H   0  0  0  0  0  0  0  0  0  0  0  0
   -0.7789   16.2199   -1.7795 H   0  0  0  0  0  0  0  0  0  0  0  0
    0.3040   14.3876    1.1611 H   0  0  0  0  0  0  0  0  0  0  0  0
   -0.8438   13.2455    0.3833 H   0  0  0  0  0  0  0  0  0  0  0  0
    0.9167   12.8888    0.3833 H   0  0  0  0  0  0  0  0  0  0  0  0
   -0.0980   14.2908   -3.0743 H   0  0  0  0  0  0  0  0  0  0  0  0
   -2.1730   13.7890   -1.6303 H   0  0  0  0  0  0  0  0  0  0  0  0
   -1.8879   12.9141   -3.2250 H   0  0  0  0  0  0  0  0  0  0  0  0
   -2.7652   11.4387   -1.2271 H   0  0  0  0  0  0  0  0  0  0  0  0
    1.2482   11.3726   -0.7938 H   0  0  0  0  0  0  0  0  0  0  0  0
    0.7175    9.6321   -3.2814 H   0  0  0  0  0  0  0  0  0  0  0  0
    2.3354   10.0219   -2.5457 H   0  0  0  0  0  0  0  0  0  0  0  0
    1.5663    7.7431   -1.9641 H   0  0  0  0  0  0  0  0  0  0  0  0
    1.7399    8.8197   -0.5229 H   0  0  0  0  0  0  0  0  0  0  0  0
   -0.2860    7.5525   -0.2975 H   0  0  0  0  0  0  0  0  0  0  0  0
   -0.4100    8.0480   -2.9840 H   0  0  0  0  0  0  0  0  0  0  0  0
   -1.1319    9.5161    1.7738 H   0  0  0  0  0  0  0  0  0  0  0  0
    0.5210    9.2242    1.1339 H   0  0  0  0  0  0  0  0  0  0  0  0
   -0.1616   10.8857    1.1339 H   0  0  0  0  0  0  0  0  0  0  0  0
   -2.6989    9.1650    0.8892 H   0  0  0  0  0  0  0  0  0  0  0  0
   -3.1130    9.9892   -0.6522 H   0  0  0  0  0  0  0  0  0  0  0  0
   -2.6939    8.2425   -0.6522 H   0  0  0  0  0  0  0  0  0  0  0  0
    0.0253   11.1575   -4.1720 H   0  0  0  0  0  0  0  0  0  0  0  0
    0.1360   12.8988   -4.5989 H   0  0  0  0  0  0  0  0  0  0  0  0
    1.6143   11.8783   -4.5989 H   0  0  0  0  0  0  0  0  0  0  0  0
    3.0118   11.9759   -2.3731 H   0  0  0  0  0  0  0  0  0  0  0  0
    2.5859   13.4465   -3.4171 H   0  0  0  0  0  0  0  0  0  0  0  0
    2.6928   13.2948   -0.3923 H   0  0  0  0  0  0  0  0  0  0  0  0
    3.7525   14.2367   -1.5142 H   0  0  0  0  0  0  0  0  0  0  0  0
    2.1049   16.8753   -2.4108 H   0  0  0  0  0  0  0  0  0  0  0  0
    2.7449   15.4048   -3.2199 H   0  0  0  0  0  0  0  0  0  0  0  0
    0.9789   15.7333   -3.2199 H   0  0  0  0  0  0  0  0  0  0  0  0
  1  2  1  0
  2  3  1  0
  3  4  1  0
  4  5  1  0
  5  6  1  0
  6  7  1  0
  7  8  1  0
  7  9  1  0
  2 10  1  0
 10 11  1  0
 11 12  1  0
 12 13  1  0
 13 14  1  1
 13 15  1  0
 15 16  1  0
 16 17  1  0
 17 18  2  0
 18 19  1  0
 19 20  1  0
 20 21  1  0
 21 22  1  0
 22 23  1  0
 22 24  1  0
 24 25  1  0
 24 26  1  0
 19 27  1  0
 27 28  1  6
 27 29  1  0
 29 30  1  0
 30 31  1  0
 31 32  1  6
  7  5  1  0
 31 10  1  0
 31 13  1  0
 27 15  1  0
 24 18  1  0
  1 33  1  0
  1 34  1  0
  1 35  1  0
  2 36  1  6
  3 37  1  0
  3 38  1  0
  4 39  1  0
  4 40  1  0
  5 41  1  6
  8 42  1  0
  8 43  1  0
  8 44  1  0
  9 45  1  0
  9 46  1  0
  9 47  1  0
 10 48  1  1
 11 49  1  0
 11 50  1  0
 12 51  1  0
 12 52  1  0
 14 53  1  0
 14 54  1  0
 14 55  1  0
 15 56  1  6
 16 57  1  0
 16 58  1  0
 17 59  1  0
 19 60  1  1
 20 61  1  0
 20 62  1  0
 21 63  1  0
 21 64  1  0
 22 65  1  1
 23 66  1  0
 25 67  1  0
 25 68  1  0
 25 69  1  0
 26 70  1  0
 26 71  1  0
 26 72  1  0
 28 73  1  0
 28 74  1  0
 28 75  1  0
 29 76  1  0
 29 77  1  0
 30 78  1  0
 30 79  1  0
 32 80  1  0
 32 81  1  0
 32 82  1  0
M  END
>  <meeko>  (6) 
{"is_sidechain": [false], "intermolecular_energy": 2.731, "internal_energy": -0.839}

$$$$
EPH_relaxed_0001_pdb2pqr_Repair_220_r2_0001_out
     RDKit          3D

 82 86  0  0  0  0  0  0  0  0999 V2000
   -0.2240   10.5350   -4.0940 C   0  0  0  0  0  0  0  0  0  0  0  0
    1.0020   10.3950   -3.1880 C   0  0  2  0  0  0  0  0  0  0  0  0
    1.0250    9.0440   -2.4450 C   0  0  0  0  0  0  0  0  0  0  0  0
   -0.3490    8.5970   -1.9400 C   0  0  0  0  0  0  0  0  0  0  0  0
   -0.5540    8.9560   -0.4990 C   0  0  2  0  0  0  0  0  0  0  0  0
   -1.9120    8.8740   -0.0490 O   0  0  0  0  0  0  0  0  0  0  0  0
   -1.3220   10.1840   -0.0440 C   0  0  0  0  0  0  0  0  0  0  0  0
   -1.9340   11.1300   -1.0290 C   0  0  0  0  0  0  0  0  0  0  0  0
   -1.0610   10.7230    1.3280 C   0  0  0  0  0  0  0  0  0  0  0  0
    1.0400   11.5420   -2.1840 C   0  0  1  0  0  0  0  0  0  0  0  0
    2.0650   11.3050   -1.0440 C   0  0  0  0  0  0  0  0  0  0  0  0
    2.6560   12.6910   -0.6780 C   0  0  0  0  0  0  0  0  0  0  0  0
    1.7240   13.7080   -1.3760 C   0  0  1  0  0  0  0  0  0  0  0  0
    0.4930   13.8420   -0.4260 C   0  0  0  0  0  0  0  0  0  0  0  0
    2.3490   15.1020   -1.7100 C   0  0  2  0  0  0  0  0  0  0  0  0
    2.8080   15.9210   -0.4910 C   0  0  0  0  0  0  0  0  0  0  0  0
    1.7780   16.8350    0.0870 C   0  0  0  0  0  0  0  0  0  0  0  0
    0.6350   17.2060   -0.5170 C   0  0  0  0  0  0  0  0  0  0  0  0
    0.3270   16.7730   -1.9560 C   0  0  1  0  0  0  0  0  0  0  0  0
   -0.1780   17.9950   -2.7680 C   0  0  0  0  0  0  0  0  0  0  0  0
   -1.3610   18.6910   -2.1030 C   0  0  0  0  0  0  0  0  0  0  0  0
   -0.9980   19.1590   -0.6960 C   0  0  2  0  0  0  0  0  0  0  0  0
   -0.0130   20.1920   -0.7930 O   0  0  0  0  0  0  0  0  0  0  0  0
   -0.4670   18.0140    0.2120 C   0  0  0  0  0  0  0  0  0  0  0  0
   -1.6260   17.0490    0.5640 C   0  0  0  0  0  0  0  0  0  0  0  0
   -0.0050   18.6450    1.5540 C   0  0  0  0  0  0  0  0  0  0  0  0
    1.4840   15.9790   -2.7030 C   0  0  1  0  0  0  0  0  0  0  0  0
    2.4660   16.9830   -3.3810 C   0  0  0  0  0  0  0  0  0  0  0  0
    0.8530   15.1230   -3.8630 C   0  0  0  0  0  0  0  0  0  0  0  0
    0.3620   13.7090   -3.4960 C   0  0  0  0  0  0  0  0  0  0  0  0
    1.4350   12.9420   -2.7180 C   0  0  2  0  0  0  0  0  0  0  0  0
    2.6780   12.7720   -3.6560 C   0  0  0  0  0  0  0  0  0  0  0  0
   -1.1275   10.6382   -3.4750 H   0  0  0  0  0  0  0  0  0  0  0  0
   -0.1108   11.4261   -4.7290 H   0  0  0  0  0  0  0  0  0  0  0  0
   -0.3146    9.6414   -4.7290 H   0  0  0  0  0  0  0  0  0  0  0  0
    1.8939   10.4330   -3.8307 H   0  0  0  0  0  0  0  0  0  0  0  0
    1.4093    8.2760   -3.1324 H   0  0  0  0  0  0  0  0  0  0  0  0
    1.6662    9.1739   -1.5607 H   0  0  0  0  0  0  0  0  0  0  0  0
   -1.1273    9.0869   -2.5436 H   0  0  0  0  0  0  0  0  0  0  0  0
   -0.4088    7.5025   -2.0325 H   0  0  0  0  0  0  0  0  0  0  0  0
    0.4415    8.5688   -0.2363 H   0  0  0  0  0  0  0  0  0  0  0  0
   -2.4547   11.9349   -0.4895 H   0  0  0  0  0  0  0  0  0  0  0  0
   -1.1445   11.5631   -1.6607 H   0  0  0  0  0  0  0  0  0  0  0  0
   -2.6527   10.5874   -1.6607 H   0  0  0  0  0  0  0  0  0  0  0  0
   -1.4113    9.9995    2.0789 H   0  0  0  0  0  0  0  0  0  0  0  0
    0.0184   10.8913    1.4566 H   0  0  0  0  0  0  0  0  0  0  0  0
   -1.5983   11.6742    1.4566 H   0  0  0  0  0  0  0  0  0  0  0  0
   -0.0133   11.5438   -1.8669 H   0  0  0  0  0  0  0  0  0  0  0  0
    1.5638   10.8641   -0.1697 H   0  0  0  0  0  0  0  0  0  0  0  0
    2.8560   10.6101   -1.3625 H   0  0  0  0  0  0  0  0  0  0  0  0
    2.6482   12.8412    0.4117 H   0  0  0  0  0  0  0  0  0  0  0  0
    3.7031   12.7961   -0.9982 H   0  0  0  0  0  0  0  0  0  0  0  0
    0.8314   13.8052    0.6200 H   0  0  0  0  0  0  0  0  0  0  0  0
   -0.0128   14.8005   -0.6142 H   0  0  0  0  0  0  0  0  0  0  0  0
   -0.2072   13.0148   -0.6142 H   0  0  0  0  0  0  0  0  0  0  0  0
    3.2684   14.8251   -2.2466 H   0  0  0  0  0  0  0  0  0  0  0  0
    3.1170   15.2165    0.2952 H   0  0  0  0  0  0  0  0  0  0  0  0
    3.6232   16.5676   -0.8478 H   0  0  0  0  0  0  0  0  0  0  0  0
    1.9705   17.2390    1.0919 H   0  0  0  0  0  0  0  0  0  0  0  0
   -0.4705   16.0189   -1.8831 H   0  0  0  0  0  0  0  0  0  0  0  0
    0.6457   18.7172   -2.8671 H   0  0  0  0  0  0  0  0  0  0  0  0
   -0.5149   17.6279   -3.7487 H   0  0  0  0  0  0  0  0  0  0  0  0
   -1.6528   19.5621   -2.7081 H   0  0  0  0  0  0  0  0  0  0  0  0
   -2.1940   17.9761   -2.0313 H   0  0  0  0  0  0  0  0  0  0  0  0
   -1.9191   19.5322   -0.2245 H   0  0  0  0  0  0  0  0  0  0  0  0
    0.5420   19.9980   -1.5680 H   0  0  0  0  0  0  0  0  0  0  0  0
   -1.7193   16.9714    1.6573 H   0  0  0  0  0  0  0  0  0  0  0  0
   -2.5657   17.4353    0.1424 H   0  0  0  0  0  0  0  0  0  0  0  0
   -1.4163   16.0549    0.1424 H   0  0  0  0  0  0  0  0  0  0  0  0
   -0.4253   18.0710    2.3930 H   0  0  0  0  0  0  0  0  0  0  0  0
    1.0934   18.6249    1.6097 H   0  0  0  0  0  0  0  0  0  0  0  0
   -0.3559   19.6860    1.6097 H   0  0  0  0  0  0  0  0  0  0  0  0
    3.0122   17.5414   -2.6065 H   0  0  0  0  0  0  0  0  0  0  0  0
    3.1813   16.4299   -4.0074 H   0  0  0  0  0  0  0  0  0  0  0  0
    1.8972   17.6859   -4.0074 H   0  0  0  0  0  0  0  0  0  0  0  0
   -0.0080   15.6819   -4.2584 H   0  0  0  0  0  0  0  0  0  0  0  0
    1.6706   14.9659   -4.5819 H   0  0  0  0  0  0  0  0  0  0  0  0
   -0.5425   13.7917   -2.8755 H   0  0  0  0  0  0  0  0  0  0  0  0
    0.1427   13.1614   -4.4245 H   0  0  0  0  0  0  0  0  0  0  0  0
    3.5842   12.6481   -3.0450 H   0  0  0  0  0  0  0  0  0  0  0  0
    2.5396   11.8844   -4.2909 H   0  0  0  0  0  0  0  0  0  0  0  0
    2.7830   13.6641   -4.2909 H   0  0  0  0  0  0  0  0  0  0  0  0
  1  2  1  0
  2  3  1  0
  3  4  1  0
  4  5  1  0
  5  6  1  0
  6  7  1  0
  7  8  1  0
  7  9  1  0
  2 10  1  0
 10 11  1  0
 11 12  1  0
 12 13  1  0
 13 14  1  1
 13 15  1  0
 15 16  1  0
 16 17  1  0
 17 18  2  0
 18 19  1  0
 19 20  1  0
 20 21  1  0
 21 22  1  0
 22 23  1  0
 22 24  1  0
 24 25  1  0
 24 26  1  0
 19 27  1  0
 27 28  1  6
 27 29  1  0
 29 30  1  0
 30 31  1  0
 31 32  1  6
  7  5  1  0
 31 10  1  0
 31 13  1  0
 27 15  1  0
 24 18  1  0
  1 33  1  0
  1 34  1  0
  1 35  1  0
  2 36  1  6
  3 37  1  0
  3 38  1  0
  4 39  1  0
  4 40  1  0
  5 41  1  1
  8 42  1  0
  8 43  1  0
  8 44  1  0
  9 45  1  0
  9 46  1  0
  9 47  1  0
 10 48  1  1
 11 49  1  0
 11 50  1  0
 12 51  1  0
 12 52  1  0
 14 53  1  0
 14 54  1  0
 14 55  1  0
 15 56  1  6
 16 57  1  0
 16 58  1  0
 17 59  1  0
 19 60  1  1
 20 61  1  0
 20 62  1  0
 21 63  1  0
 21 64  1  0
 22 65  1  1
 23 66  1  0
 25 67  1  0
 25 68  1  0
 25 69  1  0
 26 70  1  0
 26 71  1  0
 26 72  1  0
 28 73  1  0
 28 74  1  0
 28 75  1  0
 29 76  1  0
 29 77  1  0
 30 78  1  0
 30 79  1  0
 32 80  1  0
 32 81  1  0
 32 82  1  0
M  END
>  <meeko>  (7) 
{"is_sidechain": [false], "intermolecular_energy": 2.731, "internal_energy": -0.839}

$$$$
EPH_relaxed_0001_pdb2pqr_Repair_220_r2_0001_out
     RDKit          3D

 82 86  0  0  0  0  0  0  0  0999 V2000
    1.2620   19.5680   -1.9490 C   0  0  0  0  0  0  0  0  0  0  0  0
    1.4060   19.2620   -0.4550 C   0  0  2  0  0  0  0  0  0  0  0  0
    2.8350   19.5290    0.0570 C   0  0  0  0  0  0  0  0  0  0  0  0
    2.8970   19.9010    1.5410 C   0  0  0  0  0  0  0  0  0  0  0  0
    4.2750   19.7150    2.1020 C   0  0  2  0  0  0  0  0  0  0  0  0
    4.4740   18.4800    2.8030 O   0  0  0  0  0  0  0  0  0  0  0  0
    4.5750   19.6790    3.5890 C   0  0  0  0  0  0  0  0  0  0  0  0
    3.4890   19.8310    4.6080 C   0  0  0  0  0  0  0  0  0  0  0  0
    5.9670   19.9850    4.0460 C   0  0  0  0  0  0  0  0  0  0  0  0
    1.0170   17.8140   -0.1820 C   0  0  1  0  0  0  0  0  0  0  0  0
   -0.3710   17.6870    0.5010 C   0  0  0  0  0  0  0  0  0  0  0  0
   -1.0240   16.3920   -0.0490 C   0  0  0  0  0  0  0  0  0  0  0  0
    0.1280   15.6490   -0.7660 C   0  0  1  0  0  0  0  0  0  0  0  0
    0.9070   14.9220    0.3740 C   0  0  0  0  0  0  0  0  0  0  0  0
   -0.2900   14.6600   -1.9020 C   0  0  2  0  0  0  0  0  0  0  0  0
   -1.1590   13.4740   -1.4480 C   0  0  0  0  0  0  0  0  0  0  0  0
   -0.4060   12.2500   -1.0440 C   0  0  0  0  0  0  0  0  0  0  0  0
    0.8900   12.0050   -1.3110 C   0  0  0  0  0  0  0  0  0  0  0  0
    1.7120   12.9690   -2.1760 C   0  0  1  0  0  0  0  0  0  0  0  0
    2.5160   12.1630   -3.2300 C   0  0  0  0  0  0  0  0  0  0  0  0
    3.3730   11.0700   -2.6000 C   0  0  0  0  0  0  0  0  0  0  0  0
    2.5140   10.0980   -1.7960 C   0  0  2  0  0  0  0  0  0  0  0  0
    1.6640    9.3800   -2.6970 O   0  0  0  0  0  0  0  0  0  0  0  0
    1.6500   10.7970   -0.7090 C   0  0  0  0  0  0  0  0  0  0  0  0
    2.5650   11.3160    0.4280 C   0  0  0  0  0  0  0  0  0  0  0  0
    0.7280    9.7250   -0.0690 C   0  0  0  0  0  0  0  0  0  0  0  0
    0.9080   14.1810   -2.8180 C   0  0  1  0  0  0  0  0  0  0  0  0
    0.2820   13.7430   -4.1780 C   0  0  0  0  0  0  0  0  0  0  0  0
    1.9130   15.3480   -3.1470 C   0  0  0  0  0  0  0  0  0  0  0  0
    2.1930   16.3610   -2.0220 C   0  0  0  0  0  0  0  0  0  0  0  0
    0.8870   16.8700   -1.4040 C   0  0  2  0  0  0  0  0  0  0  0  0
    0.0910   17.6250   -2.5220 C   0  0  0  0  0  0  0  0  0  0  0  0
    0.7968   20.5565   -2.0776 H   0  0  0  0  0  0  0  0  0  0  0  0
    2.2555   19.5661   -2.4211 H   0  0  0  0  0  0  0  0  0  0  0  0
    0.6302   18.8012   -2.4211 H   0  0  0  0  0  0  0  0  0  0  0  0
    0.7292   19.9378    0.0884 H   0  0  0  0  0  0  0  0  0  0  0  0
    3.4352   18.6205   -0.0988 H   0  0  0  0  0  0  0  0  0  0  0  0
    3.2232   20.3899   -0.5070 H   0  0  0  0  0  0  0  0  0  0  0  0
    2.6041   20.9549    1.6569 H   0  0  0  0  0  0  0  0  0  0  0  0
    2.2111   19.2388    2.0896 H   0  0  0  0  0  0  0  0  0  0  0  0
    4.7154   20.2903    1.2743 H   0  0  0  0  0  0  0  0  0  0  0  0
    3.9221   19.7704    5.6173 H   0  0  0  0  0  0  0  0  0  0  0  0
    2.9979   20.8066    4.4777 H   0  0  0  0  0  0  0  0  0  0  0  0
    2.7489   19.0277    4.4777 H   0  0  0  0  0  0  0  0  0  0  0  0
    5.9987   19.9920    5.1455 H   0  0  0  0  0  0  0  0  0  0  0  0
    6.6555   19.2168    3.6642 H   0  0  0  0  0  0  0  0  0  0  0  0
    6.2698   20.9712    3.6642 H   0  0  0  0  0  0  0  0  0  0  0  0
    1.8704   17.5081    0.4410 H   0  0  0  0  0  0  0  0  0  0  0  0
   -0.2511   17.6168    1.5922 H   0  0  0  0  0  0  0  0  0  0  0  0
   -0.9974   18.5659    0.2886 H   0  0  0  0  0  0  0  0  0  0  0  0
   -1.4281   15.7818    0.7722 H   0  0  0  0  0  0  0  0  0  0  0  0
   -1.8674   16.6035   -0.7227 H   0  0  0  0  0  0  0  0  0  0  0  0
    0.5361   15.2681    1.3500 H   0  0  0  0  0  0  0  0  0  0  0  0
    0.7542   13.8361    0.2878 H   0  0  0  0  0  0  0  0  0  0  0  0
    1.9798   15.1493    0.2878 H   0  0  0  0  0  0  0  0  0  0  0  0
   -0.9420   15.2850   -2.5300 H   0  0  0  0  0  0  0  0  0  0  0  0
   -1.7602   13.8028   -0.5875 H   0  0  0  0  0  0  0  0  0  0  0  0
   -1.7617   13.1860   -2.3220 H   0  0  0  0  0  0  0  0  0  0  0  0
   -0.9574   11.4832   -0.4801 H   0  0  0  0  0  0  0  0  0  0  0  0
    2.4039   13.4788   -1.4894 H   0  0  0  0  0  0  0  0  0  0  0  0
    1.8090   11.6964   -3.9318 H   0  0  0  0  0  0  0  0  0  0  0  0
    3.1915   12.8637   -3.7425 H   0  0  0  0  0  0  0  0  0  0  0  0
    3.8932   10.5169   -3.3959 H   0  0  0  0  0  0  0  0  0  0  0  0
    4.0989   11.5411   -1.9209 H   0  0  0  0  0  0  0  0  0  0  0  0
    3.1960    9.4178   -1.2648 H   0  0  0  0  0  0  0  0  0  0  0  0
    2.0060    8.4720   -2.7630 H   0  0  0  0  0  0  0  0  0  0  0  0
    2.1194   11.0633    1.4014 H   0  0  0  0  0  0  0  0  0  0  0  0
    3.5558   10.8454    0.3450 H   0  0  0  0  0  0  0  0  0  0  0  0
    2.6696   12.4079    0.3450 H   0  0  0  0  0  0  0  0  0  0  0  0
    0.7890    9.7960    1.0270 H   0  0  0  0  0  0  0  0  0  0  0  0
   -0.3102    9.8953   -0.3902 H   0  0  0  0  0  0  0  0  0  0  0  0
    1.0517    8.7240   -0.3902 H   0  0  0  0  0  0  0  0  0  0  0  0
   -0.6060   13.1217   -3.9897 H   0  0  0  0  0  0  0  0  0  0  0  0
   -0.0096   14.6351   -4.7517 H   0  0  0  0  0  0  0  0  0  0  0  0
    1.0202   13.1633   -4.7517 H   0  0  0  0  0  0  0  0  0  0  0  0
    2.8728   14.8908   -3.4296 H   0  0  0  0  0  0  0  0  0  0  0  0
    1.4271   15.9301   -3.9440 H   0  0  0  0  0  0  0  0  0  0  0  0
    2.7947   15.8737   -1.2407 H   0  0  0  0  0  0  0  0  0  0  0  0
    2.7359   17.2173   -2.4486 H   0  0  0  0  0  0  0  0  0  0  0  0
   -0.6324   18.3111   -2.0573 H   0  0  0  0  0  0  0  0  0  0  0  0
    0.7913   18.1987   -3.1469 H   0  0  0  0  0  0  0  0  0  0  0  0
   -0.4449   16.8954   -3.1469 H   0  0  0  0  0  0  0  0  0  0  0  0
  1  2  1  0
  2  3  1  0
  3  4  1  0
  4  5  1  0
  5  6  1  0
  6  7  1  0
  7  8  1  0
  7  9  1  0
  2 10  1  0
 10 11  1  0
 11 12  1  0
 12 13  1  0
 13 14  1  1
 13 15  1  0
 15 16  1  0
 16 17  1  0
 17 18  2  0
 18 19  1  0
 19 20  1  0
 20 21  1  0
 21 22  1  0
 22 23  1  0
 22 24  1  0
 24 25  1  0
 24 26  1  0
 19 27  1  0
 27 28  1  6
 27 29  1  0
 29 30  1  0
 30 31  1  0
 31 32  1  6
  7  5  1  0
 31 10  1  0
 31 13  1  0
 27 15  1  0
 24 18  1  0
  1 33  1  0
  1 34  1  0
  1 35  1  0
  2 36  1  1
  3 37  1  0
  3 38  1  0
  4 39  1  0
  4 40  1  0
  5 41  1  6
  8 42  1  0
  8 43  1  0
  8 44  1  0
  9 45  1  0
  9 46  1  0
  9 47  1  0
 10 48  1  1
 11 49  1  0
 11 50  1  0
 12 51  1  0
 12 52  1  0
 14 53  1  0
 14 54  1  0
 14 55  1  0
 15 56  1  6
 16 57  1  0
 16 58  1  0
 17 59  1  0
 19 60  1  1
 20 61  1  0
 20 62  1  0
 21 63  1  0
 21 64  1  0
 22 65  1  1
 23 66  1  0
 25 67  1  0
 25 68  1  0
 25 69  1  0
 26 70  1  0
 26 71  1  0
 26 72  1  0
 28 73  1  0
 28 74  1  0
 28 75  1  0
 29 76  1  0
 29 77  1  0
 30 78  1  0
 30 79  1  0
 32 80  1  0
 32 81  1  0
 32 82  1  0
M  END
>  <meeko>  (8) 
{"is_sidechain": [false], "intermolecular_energy": 2.731, "internal_energy": -0.839}

$$$$
EPH_relaxed_0001_pdb2pqr_Repair_220_r2_0001_out
     RDKit          3D

 82 86  0  0  0  0  0  0  0  0999 V2000
   -0.8020   19.2560   -2.2660 C   0  0  0  0  0  0  0  0  0  0  0  0
    0.3000   18.7790   -1.3170 C   0  0  2  0  0  0  0  0  0  0  0  0
    1.4470   19.8030   -1.1960 C   0  0  0  0  0  0  0  0  0  0  0  0
    1.8000   20.1620    0.2500 C   0  0  0  0  0  0  0  0  0  0  0  0
    3.2650   19.9970    0.5200 C   0  0  2  0  0  0  0  0  0  0  0  0
    3.6460   18.6940    0.9810 O   0  0  0  0  0  0  0  0  0  0  0  0
    3.8410   19.7760    1.9060 C   0  0  0  0  0  0  0  0  0  0  0  0
    2.9610   19.7090    3.1150 C   0  0  0  0  0  0  0  0  0  0  0  0
    5.2800   20.1120    2.1450 C   0  0  0  0  0  0  0  0  0  0  0  0
    0.8480   17.4370   -1.7890 C   0  0  1  0  0  0  0  0  0  0  0  0
    2.3460   17.5110   -2.1900 C   0  0  0  0  0  0  0  0  0  0  0  0
    2.9840   16.1560   -1.7890 C   0  0  0  0  0  0  0  0  0  0  0  0
    1.7800   15.2340   -1.4820 C   0  0  1  0  0  0  0  0  0  0  0  0
    1.2910   14.7350   -2.8780 C   0  0  0  0  0  0  0  0  0  0  0  0
    2.0530   14.0440   -0.5060 C   0  0  2  0  0  0  0  0  0  0  0  0
    3.0830   13.0150   -1.0040 C   0  0  0  0  0  0  0  0  0  0  0  0
    2.5200   11.8760   -1.7880 C   0  0  0  0  0  0  0  0  0  0  0  0
    1.2210   11.5300   -1.8420 C   0  0  0  0  0  0  0  0  0  0  0  0
    0.1760   12.2580   -0.9860 C   0  0  1  0  0  0  0  0  0  0  0  0
   -0.7470   11.2160   -0.2990 C   0  0  0  0  0  0  0  0  0  0  0  0
   -1.3790   10.2490   -1.2950 C   0  0  0  0  0  0  0  0  0  0  0  0
   -0.3080    9.5030   -2.0860 C   0  0  2  0  0  0  0  0  0  0  0  0
    0.4090    8.6440   -1.1940 O   0  0  0  0  0  0  0  0  0  0  0  0
    0.6870   10.4490   -2.8140 C   0  0  0  0  0  0  0  0  0  0  0  0
   -0.0340   11.1620   -3.9850 C   0  0  0  0  0  0  0  0  0  0  0  0
    1.7970    9.5730   -3.4560 C   0  0  0  0  0  0  0  0  0  0  0  0
    0.7440   13.3360    0.0340 C   0  0  1  0  0  0  0  0  0  0  0  0
    1.1340   12.6450    1.3760 C   0  0  0  0  0  0  0  0  0  0  0  0
   -0.3940   14.3670    0.3800 C   0  0  0  0  0  0  0  0  0  0  0  0
   -0.5360   15.5840   -0.5530 C   0  0  0  0  0  0  0  0  0  0  0  0
    0.8190   16.2620   -0.7810 C   0  0  2  0  0  0  0  0  0  0  0  0
    1.3260   16.7940    0.6030 C   0  0  0  0  0  0  0  0  0  0  0  0
   -1.6561   19.6257   -1.6797 H   0  0  0  0  0  0  0  0  0  0  0  0
   -0.4142   20.0668   -2.9002 H   0  0  0  0  0  0  0  0  0  0  0  0
   -1.1277   18.4183   -2.9002 H   0  0  0  0  0  0  0  0  0  0  0  0
   -0.1492   18.6673   -0.3191 H   0  0  0  0  0  0  0  0  0  0  0  0
    2.3415   19.3813   -1.6777 H   0  0  0  0  0  0  0  0  0  0  0  0
    1.1054   20.7282   -1.6832 H   0  0  0  0  0  0  0  0  0  0  0  0
    1.5188   21.2090    0.4362 H   0  0  0  0  0  0  0  0  0  0  0  0
    1.2496   19.4817    0.9165 H   0  0  0  0  0  0  0  0  0  0  0  0
    3.5161   20.7113   -0.2779 H   0  0  0  0  0  0  0  0  0  0  0  0
    3.5807   19.7562    4.0226 H   0  0  0  0  0  0  0  0  0  0  0  0
    2.2596   20.5563    3.1054 H   0  0  0  0  0  0  0  0  0  0  0  0
    2.3960   18.7652    3.1054 H   0  0  0  0  0  0  0  0  0  0  0  0
    5.4712   20.1567    3.2273 H   0  0  0  0  0  0  0  0  0  0  0  0
    5.9173   19.3385    1.6916 H   0  0  0  0  0  0  0  0  0  0  0  0
    5.5089   21.0877    1.6916 H   0  0  0  0  0  0  0  0  0  0  0  0
    0.1545   17.2371   -2.6191 H   0  0  0  0  0  0  0  0  0  0  0  0
    2.4405   17.6679   -3.2746 H   0  0  0  0  0  0  0  0  0  0  0  0
    2.8490   18.3490   -1.6853 H   0  0  0  0  0  0  0  0  0  0  0  0
    3.5838   15.7491   -2.6165 H   0  0  0  0  0  0  0  0  0  0  0  0
    3.6649   16.2531   -0.9305 H   0  0  0  0  0  0  0  0  0  0  0  0
    0.5270   13.9554   -2.7417 H   0  0  0  0  0  0  0  0  0  0  0  0
    0.8592   15.5776   -3.4380 H   0  0  0  0  0  0  0  0  0  0  0  0
    2.1422   14.3204   -3.4380 H   0  0  0  0  0  0  0  0  0  0  0  0
    2.5229   14.5457    0.3528 H   0  0  0  0  0  0  0  0  0  0  0  0
    3.8078   13.5414   -1.6424 H   0  0  0  0  0  0  0  0  0  0  0  0
    3.5301   12.5716   -0.1021 H   0  0  0  0  0  0  0  0  0  0  0  0
    3.2274   11.2680   -2.3710 H   0  0  0  0  0  0  0  0  0  0  0  0
   -0.4106   12.8756   -1.6820 H   0  0  0  0  0  0  0  0  0  0  0  0
   -0.1511   10.6389    0.4234 H   0  0  0  0  0  0  0  0  0  0  0  0
   -1.5612   11.7656    0.1959 H   0  0  0  0  0  0  0  0  0  0  0  0
   -1.9953    9.5204   -0.7478 H   0  0  0  0  0  0  0  0  0  0  0  0
   -1.9979   10.8248   -1.9988 H   0  0  0  0  0  0  0  0  0  0  0  0
   -0.8195    8.9244   -2.8693 H   0  0  0  0  0  0  0  0  0  0  0  0
    0.6960    9.1810   -0.4360 H   0  0  0  0  0  0  0  0  0  0  0  0
   -0.7621   11.8820   -3.5833 H   0  0  0  0  0  0  0  0  0  0  0  0
    0.7056   11.6938   -4.6016 H   0  0  0  0  0  0  0  0  0  0  0  0
   -0.5575   10.4165   -4.6016 H   0  0  0  0  0  0  0  0  0  0  0  0
    2.3956    9.1006   -2.6633 H   0  0  0  0  0  0  0  0  0  0  0  0
    1.3344    8.7939   -4.0797 H   0  0  0  0  0  0  0  0  0  0  0  0
    2.4472   10.2040   -4.0797 H   0  0  0  0  0  0  0  0  0  0  0  0
    0.7869   13.2599    2.2194 H   0  0  0  0  0  0  0  0  0  0  0  0
    0.6630   11.6523    1.4277 H   0  0  0  0  0  0  0  0  0  0  0  0
    2.2273   12.5352    1.4277 H   0  0  0  0  0  0  0  0  0  0  0  0
   -1.3505   13.8239    0.3663 H   0  0  0  0  0  0  0  0  0  0  0  0
   -0.1153   14.7855    1.3584 H   0  0  0  0  0  0  0  0  0  0  0  0
   -0.9387   15.2503   -1.5207 H   0  0  0  0  0  0  0  0  0  0  0  0
   -1.2160   16.3092   -0.0821 H   0  0  0  0  0  0  0  0  0  0  0  0
    0.8127   16.2554    1.4132 H   0  0  0  0  0  0  0  0  0  0  0  0
    2.4108   16.6304    0.6837 H   0  0  0  0  0  0  0  0  0  0  0  0
    1.1104   17.8696    0.6837 H   0  0  0  0  0  0  0  0  0  0  0  0
  1  2  1  0
  2  3  1  0
  3  4  1  0
  4  5  1  0
  5  6  1  0
  6  7  1  0
  7  8  1  0
  7  9  1  0
  2 10  1  0
 10 11  1  0
 11 12  1  0
 12 13  1  0
 13 14  1  6
 13 15  1  0
 15 16  1  0
 16 17  1  0
 17 18  2  0
 18 19  1  0
 19 20  1  0
 20 21  1  0
 21 22  1  0
 22 23  1  0
 22 24  1  0
 24 25  1  0
 24 26  1  0
 19 27  1  0
 27 28  1  1
 27 29  1  0
 29 30  1  0
 30 31  1  0
 31 32  1  1
  7  5  1  0
 31 10  1  0
 31 13  1  0
 27 15  1  0
 24 18  1  0
  1 33  1  0
  1 34  1  0
  1 35  1  0
  2 36  1  1
  3 37  1  0
  3 38  1  0
  4 39  1  0
  4 40  1  0
  5 41  1  6
  8 42  1  0
  8 43  1  0
  8 44  1  0
  9 45  1  0
  9 46  1  0
  9 47  1  0
 10 48  1  6
 11 49  1  0
 11 50  1  0
 12 51  1  0
 12 52  1  0
 14 53  1  0
 14 54  1  0
 14 55  1  0
 15 56  1  1
 16 57  1  0
 16 58  1  0
 17 59  1  0
 19 60  1  6
 20 61  1  0
 20 62  1  0
 21 63  1  0
 21 64  1  0
 22 65  1  6
 23 66  1  0
 25 67  1  0
 25 68  1  0
 25 69  1  0
 26 70  1  0
 26 71  1  0
 26 72  1  0
 28 73  1  0
 28 74  1  0
 28 75  1  0
 29 76  1  0
 29 77  1  0
 30 78  1  0
 30 79  1  0
 32 80  1  0
 32 81  1  0
 32 82  1  0
M  END
>  <meeko>  (9) 
{"is_sidechain": [false], "intermolecular_energy": 2.731, "internal_energy": -0.839}

$$$$
EPH_relaxed_0001_pdb2pqr_Repair_220_r2_0001_out
     RDKit          3D

 82 86  0  0  0  0  0  0  0  0999 V2000
   -3.7350    7.2190   -3.4030 C   0  0  0  0  0  0  0  0  0  0  0  0
   -3.7510    7.2890   -1.8730 C   0  0  2  0  0  0  0  0  0  0  0  0
   -5.1630    7.0610   -1.2960 C   0  0  0  0  0  0  0  0  0  0  0  0
   -6.2830    7.2230   -2.3280 C   0  0  0  0  0  0  0  0  0  0  0  0
   -7.6110    7.4560   -1.6720 C   0  0  2  0  0  0  0  0  0  0  0  0
   -8.2170    6.2820   -1.1150 O   0  0  0  0  0  0  0  0  0  0  0  0
   -8.9170    6.8990   -2.2080 C   0  0  0  0  0  0  0  0  0  0  0  0
   -8.9590    6.0660   -3.4510 C   0  0  0  0  0  0  0  0  0  0  0  0
  -10.1960    7.5640   -1.8050 C   0  0  0  0  0  0  0  0  0  0  0  0
   -3.2100    8.6360   -1.4090 C   0  0  1  0  0  0  0  0  0  0  0  0
   -3.8200    9.0910   -0.0560 C   0  0  0  0  0  0  0  0  0  0  0  0
   -2.7020    9.8470    0.7070 C   0  0  0  0  0  0  0  0  0  0  0  0
   -1.6030   10.0910   -0.3530 C   0  0  1  0  0  0  0  0  0  0  0  0
   -2.0830   11.3460   -1.1470 C   0  0  0  0  0  0  0  0  0  0  0  0
   -0.1480   10.2730    0.1900 C   0  0  2  0  0  0  0  0  0  0  0  0
    0.0590   11.4930    1.1050 C   0  0  0  0  0  0  0  0  0  0  0  0
    0.4610   12.7510    0.4100 C   0  0  0  0  0  0  0  0  0  0  0  0
    0.9250   12.8340   -0.8510 C   0  0  0  0  0  0  0  0  0  0  0  0
    1.1770   11.5700   -1.6820 C   0  0  1  0  0  0  0  0  0  0  0  0
    2.5620   11.6720   -2.3740 C   0  0  0  0  0  0  0  0  0  0  0  0
    2.7130   12.9500   -3.1940 C   0  0  0  0  0  0  0  0  0  0  0  0
    2.5130   14.1850   -2.3200 C   0  0  2  0  0  0  0  0  0  0  0  0
    3.5870   14.2630   -1.3780 O   0  0  0  0  0  0  0  0  0  0  0  0
    1.1550   14.1890   -1.5650 C   0  0  0  0  0  0  0  0  0  0  0  0
   -0.0000   14.4090   -2.5730 C   0  0  0  0  0  0  0  0  0  0  0  0
    1.1400   15.4160   -0.6140 C   0  0  0  0  0  0  0  0  0  0  0  0
    0.9750   10.1890   -0.9230 C   0  0  1  0  0  0  0  0  0  0  0  0
    2.2930    9.7840   -0.1950 C   0  0  0  0  0  0  0  0  0  0  0  0
    0.6850    9.0580   -1.9800 C   0  0  0  0  0  0  0  0  0  0  0  0
   -0.7860    8.8470   -2.3860 C   0  0  0  0  0  0  0  0  0  0  0  0
   -1.6860    8.7390   -1.1510 C   0  0  2  0  0  0  0  0  0  0  0  0
   -1.2410    7.4720   -0.3440 C   0  0  0  0  0  0  0  0  0  0  0  0
   -3.5003    6.1923   -3.7206 H   0  0  0  0  0  0  0  0  0  0  0  0
   -4.7222    7.5071   -3.7936 H   0  0  0  0  0  0  0  0  0  0  0  0
   -2.9710    7.9073   -3.7936 H   0  0  0  0  0  0  0  0  0  0  0  0
   -3.1066    6.4803   -1.4978 H   0  0  0  0  0  0  0  0  0  0  0  0
   -5.2111    6.0404   -0.8886 H   0  0  0  0  0  0  0  0  0  0  0  0
   -5.3230    7.8287   -0.5246 H   0  0  0  0  0  0  0  0  0  0  0  0
   -6.0498    8.0809   -2.9757 H   0  0  0  0  0  0  0  0  0  0  0  0
   -6.3475    6.2938   -2.9132 H   0  0  0  0  0  0  0  0  0  0  0  0
   -7.3106    8.4696   -1.3680 H   0  0  0  0  0  0  0  0  0  0  0  0
   -9.0127    5.0019   -3.1776 H   0  0  0  0  0  0  0  0  0  0  0  0
   -9.8446    6.3372   -4.0444 H   0  0  0  0  0  0  0  0  0  0  0  0
   -8.0506    6.2468   -4.0444 H   0  0  0  0  0  0  0  0  0  0  0  0
  -10.2616    7.5981   -0.7075 H   0  0  0  0  0  0  0  0  0  0  0  0
  -10.2189    8.5882   -2.2057 H   0  0  0  0  0  0  0  0  0  0  0  0
  -11.0475    6.9944   -2.2057 H   0  0  0  0  0  0  0  0  0  0  0  0
   -3.4883    9.2548   -2.2748 H   0  0  0  0  0  0  0  0  0  0  0  0
   -4.6765    9.7584   -0.2320 H   0  0  0  0  0  0  0  0  0  0  0  0
   -4.1809    8.2290    0.5243 H   0  0  0  0  0  0  0  0  0  0  0  0
   -3.0789   10.8017    1.1025 H   0  0  0  0  0  0  0  0  0  0  0  0
   -2.3289    9.2784    1.5716 H   0  0  0  0  0  0  0  0  0  0  0  0
   -2.3842   12.1336   -0.4407 H   0  0  0  0  0  0  0  0  0  0  0  0
   -1.2626   11.7153   -1.7800 H   0  0  0  0  0  0  0  0  0  0  0  0
   -2.9404   11.0736   -1.7800 H   0  0  0  0  0  0  0  0  0  0  0  0
   -0.0252    9.3905    0.8351 H   0  0  0  0  0  0  0  0  0  0  0  0
   -0.8858   11.6845    1.6348 H   0  0  0  0  0  0  0  0  0  0  0  0
    0.8942   11.2342    1.7724 H   0  0  0  0  0  0  0  0  0  0  0  0
    0.3705   13.6899    0.9760 H   0  0  0  0  0  0  0  0  0  0  0  0
    0.3814   11.5426   -2.4412 H   0  0  0  0  0  0  0  0  0  0  0  0
    3.3446   11.6542   -1.6012 H   0  0  0  0  0  0  0  0  0  0  0  0
    2.6547   10.8198   -3.0633 H   0  0  0  0  0  0  0  0  0  0  0  0
    3.7211   12.9791   -3.6332 H   0  0  0  0  0  0  0  0  0  0  0  0
    1.9489   12.9521   -3.9853 H   0  0  0  0  0  0  0  0  0  0  0  0
    2.5040   15.0607   -2.9856 H   0  0  0  0  0  0  0  0  0  0  0  0
    3.2670   13.8970   -0.5360 H   0  0  0  0  0  0  0  0  0  0  0  0
   -0.9365   14.5874   -2.0243 H   0  0  0  0  0  0  0  0  0  0  0  0
    0.2261   15.2802   -3.2053 H   0  0  0  0  0  0  0  0  0  0  0  0
   -0.1100   13.5157   -3.2053 H   0  0  0  0  0  0  0  0  0  0  0  0
    1.1442   15.0705    0.4303 H   0  0  0  0  0  0  0  0  0  0  0  0
    2.0307   16.0344   -0.7993 H   0  0  0  0  0  0  0  0  0  0  0  0
    0.2345   16.0124   -0.7993 H   0  0  0  0  0  0  0  0  0  0  0  0
    2.1401    9.8310    0.8933 H   0  0  0  0  0  0  0  0  0  0  0  0
    2.5706    8.7591   -0.4824 H   0  0  0  0  0  0  0  0  0  0  0  0
    3.0982   10.4762   -0.4824 H   0  0  0  0  0  0  0  0  0  0  0  0
    1.2501    9.3018   -2.8917 H   0  0  0  0  0  0  0  0  0  0  0  0
    0.9850    8.1209   -1.4883 H   0  0  0  0  0  0  0  0  0  0  0  0
   -1.1160    9.6992   -2.9983 H   0  0  0  0  0  0  0  0  0  0  0  0
   -0.8610    7.9101   -2.9575 H   0  0  0  0  0  0  0  0  0  0  0  0
   -1.3139    7.6795    0.7338 H   0  0  0  0  0  0  0  0  0  0  0  0
   -1.8957    6.6258   -0.5996 H   0  0  0  0  0  0  0  0  0  0  0  0
   -0.2009    7.2211   -0.5996 H   0  0  0  0  0  0  0  0  0  0  0  0
  1  2  1  0
  2  3  1  0
  3  4  1  0
  4  5  1  0
  5  6  1  0
  6  7  1  0
  7  8  1  0
  7  9  1  0
  2 10  1  0
 10 11  1  0
 11 12  1  0
 12 13  1  0
 13 14  1  6
 13 15  1  0
 15 16  1  0
 16 17  1  0
 17 18  2  0
 18 19  1  0
 19 20  1  0
 20 21  1  0
 21 22  1  0
 22 23  1  0
 22 24  1  0
 24 25  1  0
 24 26  1  0
 19 27  1  0
 27 28  1  1
 27 29  1  0
 29 30  1  0
 30 31  1  0
 31 32  1  1
  7  5  1  0
 31 10  1  0
 31 13  1  0
 27 15  1  0
 24 18  1  0
  1 33  1  0
  1 34  1  0
  1 35  1  0
  2 36  1  1
  3 37  1  0
  3 38  1  0
  4 39  1  0
  4 40  1  0
  5 41  1  1
  8 42  1  0
  8 43  1  0
  8 44  1  0
  9 45  1  0
  9 46  1  0
  9 47  1  0
 10 48  1  6
 11 49  1  0
 11 50  1  0
 12 51  1  0
 12 52  1  0
 14 53  1  0
 14 54  1  0
 14 55  1  0
 15 56  1  1
 16 57  1  0
 16 58  1  0
 17 59  1  0
 19 60  1  6
 20 61  1  0
 20 62  1  0
 21 63  1  0
 21 64  1  0
 22 65  1  6
 23 66  1  0
 25 67  1  0
 25 68  1  0
 25 69  1  0
 26 70  1  0
 26 71  1  0
 26 72  1  0
 28 73  1  0
 28 74  1  0
 28 75  1  0
 29 76  1  0
 29 77  1  0
 30 78  1  0
 30 79  1  0
 32 80  1  0
 32 81  1  0
 32 82  1  0
M  END
>  <meeko>  (10) 
{"is_sidechain": [false], "intermolecular_energy": 2.731, "internal_energy": -0.839}

$$$$
EPH_relaxed_0001_pdb2pqr_Repair_220_r2_0001_out
     RDKit          3D

 82 86  0  0  0  0  0  0  0  0999 V2000
   -0.8610   16.3530   -5.8350 C   0  0  0  0  0  0  0  0  0  0  0  0
    0.2270   15.6490   -6.6510 C   0  0  2  0  0  0  0  0  0  0  0  0
   -0.1800   15.4680   -8.1270 C   0  0  0  0  0  0  0  0  0  0  0  0
    0.4510   16.4970   -9.0700 C   0  0  0  0  0  0  0  0  0  0  0  0
    1.8510   16.1190   -9.4460 C   0  0  2  0  0  0  0  0  0  0  0  0
    2.3150   16.6870  -10.6770 O   0  0  0  0  0  0  0  0  0  0  0  0
    2.1910   15.2560  -10.6470 C   0  0  0  0  0  0  0  0  0  0  0  0
    1.1250   14.7180  -11.5480 C   0  0  0  0  0  0  0  0  0  0  0  0
    3.5040   14.5370  -10.6630 C   0  0  0  0  0  0  0  0  0  0  0  0
    0.5480   14.2950   -6.0300 C   0  0  1  0  0  0  0  0  0  0  0  0
    1.8110   13.6380   -6.6490 C   0  0  0  0  0  0  0  0  0  0  0  0
    2.5230   12.8710   -5.5050 C   0  0  0  0  0  0  0  0  0  0  0  0
    1.4870   12.8330   -4.3570 C   0  0  1  0  0  0  0  0  0  0  0  0
    0.5290   11.6550   -4.7200 C   0  0  0  0  0  0  0  0  0  0  0  0
    2.0630   12.6830   -2.9110 C   0  0  2  0  0  0  0  0  0  0  0  0
    2.8330   11.3780   -2.6480 C   0  0  0  0  0  0  0  0  0  0  0  0
    2.0090   10.2440   -2.1340 C   0  0  0  0  0  0  0  0  0  0  0  0
    0.7680   10.3470   -1.6250 C   0  0  0  0  0  0  0  0  0  0  0  0
    0.1040   11.7180   -1.4380 C   0  0  1  0  0  0  0  0  0  0  0  0
   -0.5370   11.7940   -0.0270 C   0  0  0  0  0  0  0  0  0  0  0  0
   -1.4970   10.6390    0.2420 C   0  0  0  0  0  0  0  0  0  0  0  0
   -0.7870    9.2950    0.1020 C   0  0  2  0  0  0  0  0  0  0  0  0
    0.1820    9.1750    1.1480 O   0  0  0  0  0  0  0  0  0  0  0  0
   -0.0940    9.1080   -1.2760 C   0  0  0  0  0  0  0  0  0  0  0  0
   -1.1670    8.9360   -2.3790 C   0  0  0  0  0  0  0  0  0  0  0  0
    0.7020    7.7760   -1.2340 C   0  0  0  0  0  0  0  0  0  0  0  0
    1.0150   12.9790   -1.7630 C   0  0  1  0  0  0  0  0  0  0  0  0
    1.8390   13.3790   -0.5010 C   0  0  0  0  0  0  0  0  0  0  0  0
    0.0910   14.2080   -2.0980 C   0  0  0  0  0  0  0  0  0  0  0  0
   -0.3470   14.3680   -3.5660 C   0  0  0  0  0  0  0  0  0  0  0  0
    0.8540   14.2630   -4.5110 C   0  0  2  0  0  0  0  0  0  0  0  0
    1.8240   15.4490   -4.1840 C   0  0  0  0  0  0  0  0  0  0  0  0
   -0.6575   16.2214   -4.7620 H   0  0  0  0  0  0  0  0  0  0  0  0
   -0.8656   17.4257   -6.0784 H   0  0  0  0  0  0  0  0  0  0  0  0
   -1.8414   15.9176   -6.0784 H   0  0  0  0  0  0  0  0  0  0  0  0
    1.1216   16.2888   -6.6311 H   0  0  0  0  0  0  0  0  0  0  0  0
    0.1292   14.4636   -8.4519 H   0  0  0  0  0  0  0  0  0  0  0  0
   -1.2696   15.6091   -8.1798 H   0  0  0  0  0  0  0  0  0  0  0  0
   -0.1578   16.5636   -9.9837 H   0  0  0  0  0  0  0  0  0  0  0  0
    0.4856   17.4646   -8.5479 H   0  0  0  0  0  0  0  0  0  0  0  0
    2.1435   16.0585   -8.3873 H   0  0  0  0  0  0  0  0  0  0  0  0
    0.3060   14.3047  -10.9410 H   0  0  0  0  0  0  0  0  0  0  0  0
    0.7379   15.5287  -12.1828 H   0  0  0  0  0  0  0  0  0  0  0  0
    1.5472   13.9250  -12.1828 H   0  0  0  0  0  0  0  0  0  0  0  0
    3.8353   14.3556   -9.6299 H   0  0  0  0  0  0  0  0  0  0  0  0
    3.3893   13.5758  -11.1854 H   0  0  0  0  0  0  0  0  0  0  0  0
    4.2521   15.1513  -11.1854 H   0  0  0  0  0  0  0  0  0  0  0  0
   -0.3967   13.7701   -6.2352 H   0  0  0  0  0  0  0  0  0  0  0  0
    1.5217   12.9412   -7.4495 H   0  0  0  0  0  0  0  0  0  0  0  0
    2.4752   14.3965   -7.0889 H   0  0  0  0  0  0  0  0  0  0  0  0
    2.7853   11.8519   -5.8252 H   0  0  0  0  0  0  0  0  0  0  0  0
    3.4640   13.3533   -5.2019 H   0  0  0  0  0  0  0  0  0  0  0  0
    0.1519   11.1912   -3.7966 H   0  0  0  0  0  0  0  0  0  0  0  0
   -0.3167   12.0385   -5.3096 H   0  0  0  0  0  0  0  0  0  0  0  0
    1.0769   10.9052   -5.3096 H   0  0  0  0  0  0  0  0  0  0  0  0
    2.8146   13.4851   -2.8710 H   0  0  0  0  0  0  0  0  0  0  0  0
    3.2963   11.0602   -3.5937 H   0  0  0  0  0  0  0  0  0  0  0  0
    3.5611   11.6085   -1.8563 H   0  0  0  0  0  0  0  0  0  0  0  0
    2.4544    9.2391   -2.1750 H   0  0  0  0  0  0  0  0  0  0  0  0
   -0.6788   11.7852   -2.2079 H   0  0  0  0  0  0  0  0  0  0  0  0
    0.2643   11.7693    0.7262 H   0  0  0  0  0  0  0  0  0  0  0  0
   -1.1149   12.7284    0.0275 H   0  0  0  0  0  0  0  0  0  0  0  0
   -1.8941   10.7316    1.2636 H   0  0  0  0  0  0  0  0  0  0  0  0
   -2.3136   10.6828   -0.4937 H   0  0  0  0  0  0  0  0  0  0  0  0
   -1.5524    8.5085    0.1766 H   0  0  0  0  0  0  0  0  0  0  0  0
   -0.2410    8.7080    1.8890 H   0  0  0  0  0  0  0  0  0  0  0  0
   -2.1505    8.7783   -1.9123 H   0  0  0  0  0  0  0  0  0  0  0  0
   -1.1985    9.8406   -3.0041 H   0  0  0  0  0  0  0  0  0  0  0  0
   -0.9142    8.0669   -3.0041 H   0  0  0  0  0  0  0  0  0  0  0  0
    0.8756    7.4855   -0.1874 H   0  0  0  0  0  0  0  0  0  0  0  0
    0.1263    6.9886   -1.7424 H   0  0  0  0  0  0  0  0  0  0  0  0
    1.6682    7.9101   -1.7424 H   0  0  0  0  0  0  0  0  0  0  0  0
    1.2777   13.1065    0.4049 H   0  0  0  0  0  0  0  0  0  0  0  0
    2.8025   12.8483   -0.5088 H   0  0  0  0  0  0  0  0  0  0  0  0
    2.0181   14.4643   -0.5088 H   0  0  0  0  0  0  0  0  0  0  0  0
   -0.8193   14.1162   -1.4873 H   0  0  0  0  0  0  0  0  0  0  0  0
    0.7035   15.0958   -1.8821 H   0  0  0  0  0  0  0  0  0  0  0  0
   -1.0702   13.5772   -3.8140 H   0  0  0  0  0  0  0  0  0  0  0  0
   -0.8046   15.3607   -3.6893 H   0  0  0  0  0  0  0  0  0  0  0  0
    1.9140   15.5590   -3.0932 H   0  0  0  0  0  0  0  0  0  0  0  0
    2.8148   15.2417   -4.6146 H   0  0  0  0  0  0  0  0  0  0  0  0
    1.4243   16.3790   -4.6146 H   0  0  0  0  0  0  0  0  0  0  0  0
  1  2  1  0
  2  3  1  0
  3  4  1  0
  4  5  1  0
  5  6  1  0
  6  7  1  0
  7  8  1  0
  7  9  1  0
  2 10  1  0
 10 11  1  0
 11 12  1  0
 12 13  1  0
 13 14  1  6
 13 15  1  0
 15 16  1  0
 16 17  1  0
 17 18  2  0
 18 19  1  0
 19 20  1  0
 20 21  1  0
 21 22  1  0
 22 23  1  0
 22 24  1  0
 24 25  1  0
 24 26  1  0
 19 27  1  0
 27 28  1  1
 27 29  1  0
 29 30  1  0
 30 31  1  0
 31 32  1  1
  7  5  1  0
 31 10  1  0
 31 13  1  0
 27 15  1  0
 24 18  1  0
  1 33  1  0
  1 34  1  0
  1 35  1  0
  2 36  1  6
  3 37  1  0
  3 38  1  0
  4 39  1  0
  4 40  1  0
  5 41  1  1
  8 42  1  0
  8 43  1  0
  8 44  1  0
  9 45  1  0
  9 46  1  0
  9 47  1  0
 10 48  1  1
 11 49  1  0
 11 50  1  0
 12 51  1  0
 12 52  1  0
 14 53  1  0
 14 54  1  0
 14 55  1  0
 15 56  1  6
 16 57  1  0
 16 58  1  0
 17 59  1  0
 19 60  1  6
 20 61  1  0
 20 62  1  0
 21 63  1  0
 21 64  1  0
 22 65  1  1
 23 66  1  0
 25 67  1  0
 25 68  1  0
 25 69  1  0
 26 70  1  0
 26 71  1  0
 26 72  1  0
 28 73  1  0
 28 74  1  0
 28 75  1  0
 29 76  1  0
 29 77  1  0
 30 78  1  0
 30 79  1  0
 32 80  1  0
 32 81  1  0
 32 82  1  0
M  END
>  <meeko>  (11) 
{"is_sidechain": [false], "intermolecular_energy": 2.731, "internal_energy": -0.839}

$$$$
EPH_relaxed_0001_pdb2pqr_Repair_220_r2_0001_out
     RDKit          3D

 82 86  0  0  0  0  0  0  0  0999 V2000
   -4.9500    8.7530   -0.4260 C   0  0  0  0  0  0  0  0  0  0  0  0
   -5.2770    7.5930   -1.3710 C   0  0  2  0  0  0  0  0  0  0  0  0
   -4.2640    7.4830   -2.5280 C   0  0  0  0  0  0  0  0  0  0  0  0
   -2.8110    7.3530   -2.0640 C   0  0  0  0  0  0  0  0  0  0  0  0
   -2.3670    8.5570   -1.2900 C   0  0  2  0  0  0  0  0  0  0  0  0
   -2.0570    9.7040   -2.0920 O   0  0  0  0  0  0  0  0  0  0  0  0
   -0.9620    9.1270   -1.3630 C   0  0  0  0  0  0  0  0  0  0  0  0
    0.0870    8.5060   -2.2300 C   0  0  0  0  0  0  0  0  0  0  0  0
   -0.4760    9.9780   -0.2310 C   0  0  0  0  0  0  0  0  0  0  0  0
   -6.6870    7.7570   -1.9260 C   0  0  1  0  0  0  0  0  0  0  0  0
   -6.8650    7.0830   -3.3120 C   0  0  0  0  0  0  0  0  0  0  0  0
   -8.3140    6.5320   -3.3590 C   0  0  0  0  0  0  0  0  0  0  0  0
   -9.0200    7.1890   -2.1500 C   0  0  1  0  0  0  0  0  0  0  0  0
   -9.4130    8.6170   -2.6430 C   0  0  0  0  0  0  0  0  0  0  0  0
  -10.2510    6.4200   -1.5680 C   0  0  2  0  0  0  0  0  0  0  0  0
  -11.4340    6.2530   -2.5370 C   0  0  0  0  0  0  0  0  0  0  0  0
  -12.4510    7.3450   -2.4950 C   0  0  0  0  0  0  0  0  0  0  0  0
  -12.5700    8.2670   -1.5210 C   0  0  0  0  0  0  0  0  0  0  0  0
  -11.6850    8.2080   -0.2690 C   0  0  1  0  0  0  0  0  0  0  0  0
  -12.5610    8.4120    0.9940 C   0  0  0  0  0  0  0  0  0  0  0  0
  -13.3960    9.6870    0.9290 C   0  0  0  0  0  0  0  0  0  0  0  0
  -14.3050    9.6820   -0.2980 C   0  0  2  0  0  0  0  0  0  0  0  0
  -15.2830    8.6490   -0.1410 O   0  0  0  0  0  0  0  0  0  0  0  0
  -13.5330    9.4740   -1.6310 C   0  0  0  0  0  0  0  0  0  0  0  0
  -12.6960   10.7370   -1.9500 C   0  0  0  0  0  0  0  0  0  0  0  0
  -14.5790    9.3470   -2.7720 C   0  0  0  0  0  0  0  0  0  0  0  0
  -10.7310    6.9430   -0.1530 C   0  0  1  0  0  0  0  0  0  0  0  0
  -11.4930    5.7620    0.5220 C   0  0  0  0  0  0  0  0  0  0  0  0
   -9.5250    7.2930    0.7960 C   0  0  0  0  0  0  0  0  0  0  0  0
   -8.2900    7.9420    0.1410 C   0  0  0  0  0  0  0  0  0  0  0  0
   -7.8520    7.1570   -1.0990 C   0  0  2  0  0  0  0  0  0  0  0  0
   -7.4290    5.7220   -0.6320 C   0  0  0  0  0  0  0  0  0  0  0  0
   -5.0453    8.4148    0.6164 H   0  0  0  0  0  0  0  0  0  0  0  0
   -3.9204    9.0950   -0.6078 H   0  0  0  0  0  0  0  0  0  0  0  0
   -5.6494    9.5824   -0.6078 H   0  0  0  0  0  0  0  0  0  0  0  0
   -5.2131    6.6626   -0.7877 H   0  0  0  0  0  0  0  0  0  0  0  0
   -4.5174    6.5967   -3.1283 H   0  0  0  0  0  0  0  0  0  0  0  0
   -4.3343    8.4160   -3.1064 H   0  0  0  0  0  0  0  0  0  0  0  0
   -2.7195    6.4636   -1.4233 H   0  0  0  0  0  0  0  0  0  0  0  0
   -2.1728    7.2637   -2.9555 H   0  0  0  0  0  0  0  0  0  0  0  0
   -3.0063    8.2756   -0.4402 H   0  0  0  0  0  0  0  0  0  0  0  0
    0.8614    8.0476   -1.5974 H   0  0  0  0  0  0  0  0  0  0  0  0
   -0.3720    7.7340   -2.8651 H   0  0  0  0  0  0  0  0  0  0  0  0
    0.5430    9.2798   -2.8651 H   0  0  0  0  0  0  0  0  0  0  0  0
   -0.7458    9.5055    0.7250 H   0  0  0  0  0  0  0  0  0  0  0  0
    0.6174   10.0814   -0.2932 H   0  0  0  0  0  0  0  0  0  0  0  0
   -0.9425   10.9722   -0.2932 H   0  0  0  0  0  0  0  0  0  0  0  0
   -6.7562    8.8548   -1.9313 H   0  0  0  0  0  0  0  0  0  0  0  0
   -6.7140    7.8205   -4.1140 H   0  0  0  0  0  0  0  0  0  0  0  0
   -6.1310    6.2765   -3.4561 H   0  0  0  0  0  0  0  0  0  0  0  0
   -8.8079    6.8176   -4.2995 H   0  0  0  0  0  0  0  0  0  0  0  0
   -8.3444    5.4334   -3.3136 H   0  0  0  0  0  0  0  0  0  0  0  0
   -9.5922    9.2682   -1.7748 H   0  0  0  0  0  0  0  0  0  0  0  0
   -8.5959    9.0328   -3.2508 H   0  0  0  0  0  0  0  0  0  0  0  0
  -10.3278    8.5562   -3.2508 H   0  0  0  0  0  0  0  0  0  0  0  0
   -9.8469    5.4085   -1.4145 H   0  0  0  0  0  0  0  0  0  0  0  0
  -11.0315    6.2024   -3.5595 H   0  0  0  0  0  0  0  0  0  0  0  0
  -11.9572    5.3374   -2.2240 H   0  0  0  0  0  0  0  0  0  0  0  0
  -13.1638    7.4012   -3.3309 H   0  0  0  0  0  0  0  0  0  0  0  0
  -10.9684    9.0372   -0.3638 H   0  0  0  0  0  0  0  0  0  0  0  0
  -13.2389    7.5517    1.0953 H   0  0  0  0  0  0  0  0  0  0  0  0
  -11.8853    8.4999    1.8575 H   0  0  0  0  0  0  0  0  0  0  0  0
  -14.0151    9.7585    1.8354 H   0  0  0  0  0  0  0  0  0  0  0  0
  -12.7161   10.5488    0.8587 H   0  0  0  0  0  0  0  0  0  0  0  0
  -14.7797   10.6722   -0.3627 H   0  0  0  0  0  0  0  0  0  0  0  0
  -14.8110    7.8000   -0.1020 H   0  0  0  0  0  0  0  0  0  0  0  0
  -12.3798   11.2142   -1.0107 H   0  0  0  0  0  0  0  0  0  0  0  0
  -11.8081   10.4509   -2.5330 H   0  0  0  0  0  0  0  0  0  0  0  0
  -13.3055   11.4432   -2.5330 H   0  0  0  0  0  0  0  0  0  0  0  0
  -15.5823    9.2252   -2.3378 H   0  0  0  0  0  0  0  0  0  0  0  0
  -14.5560   10.2545   -3.3932 H   0  0  0  0  0  0  0  0  0  0  0  0
  -14.3395    8.4713   -3.3932 H   0  0  0  0  0  0  0  0  0  0  0  0
  -11.4288    5.8615    1.6156 H   0  0  0  0  0  0  0  0  0  0  0  0
  -12.5486    5.7826    0.2133 H   0  0  0  0  0  0  0  0  0  0  0  0
  -11.0392    4.8087    0.2133 H   0  0  0  0  0  0  0  0  0  0  0  0
   -9.8969    7.9865    1.5646 H   0  0  0  0  0  0  0  0  0  0  0  0
   -9.1712    6.3249    1.1803 H   0  0  0  0  0  0  0  0  0  0  0  0
   -8.5386    8.9720   -0.1543 H   0  0  0  0  0  0  0  0  0  0  0  0
   -7.4646    7.9389    0.8681 H   0  0  0  0  0  0  0  0  0  0  0  0
   -7.4174    5.6827    0.4672 H   0  0  0  0  0  0  0  0  0  0  0  0
   -8.1478    4.9841   -1.0177 H   0  0  0  0  0  0  0  0  0  0  0  0
   -6.4249    5.4920   -1.0177 H   0  0  0  0  0  0  0  0  0  0  0  0
  1  2  1  0
  2  3  1  0
  3  4  1  0
  4  5  1  0
  5  6  1  0
  6  7  1  0
  7  8  1  0
  7  9  1  0
  2 10  1  0
 10 11  1  0
 11 12  1  0
 12 13  1  0
 13 14  1  6
 13 15  1  0
 15 16  1  0
 16 17  1  0
 17 18  2  0
 18 19  1  0
 19 20  1  0
 20 21  1  0
 21 22  1  0
 22 23  1  0
 22 24  1  0
 24 25  1  0
 24 26  1  0
 19 27  1  0
 27 28  1  1
 27 29  1  0
 29 30  1  0
 30 31  1  0
 31 32  1  1
  7  5  1  0
 31 10  1  0
 31 13  1  0
 27 15  1  0
 24 18  1  0
  1 33  1  0
  1 34  1  0
  1 35  1  0
  2 36  1  1
  3 37  1  0
  3 38  1  0
  4 39  1  0
  4 40  1  0
  5 41  1  1
  8 42  1  0
  8 43  1  0
  8 44  1  0
  9 45  1  0
  9 46  1  0
  9 47  1  0
 10 48  1  6
 11 49  1  0
 11 50  1  0
 12 51  1  0
 12 52  1  0
 14 53  1  0
 14 54  1  0
 14 55  1  0
 15 56  1  1
 16 57  1  0
 16 58  1  0
 17 59  1  0
 19 60  1  6
 20 61  1  0
 20 62  1  0
 21 63  1  0
 21 64  1  0
 22 65  1  6
 23 66  1  0
 25 67  1  0
 25 68  1  0
 25 69  1  0
 26 70  1  0
 26 71  1  0
 26 72  1  0
 28 73  1  0
 28 74  1  0
 28 75  1  0
 29 76  1  0
 29 77  1  0
 30 78  1  0
 30 79  1  0
 32 80  1  0
 32 81  1  0
 32 82  1  0
M  END
>  <meeko>  (12) 
{"is_sidechain": [false], "intermolecular_energy": 2.731, "internal_energy": -0.839}

$$$$
EPH_relaxed_0001_pdb2pqr_Repair_220_r2_0001_out
     RDKit          3D

 82 86  0  0  0  0  0  0  0  0999 V2000
   -2.1650    7.8310   -2.0580 C   0  0  0  0  0  0  0  0  0  0  0  0
   -2.2310    8.4950   -0.6800 C   0  0  2  0  0  0  0  0  0  0  0  0
   -3.6630    8.5080   -0.1100 C   0  0  0  0  0  0  0  0  0  0  0  0
   -4.7470    8.2510   -1.1610 C   0  0  0  0  0  0  0  0  0  0  0  0
   -5.8440    7.3820   -0.6250 C   0  0  2  0  0  0  0  0  0  0  0  0
   -6.1550    6.2410   -1.4360 O   0  0  0  0  0  0  0  0  0  0  0  0
   -7.1930    7.2250   -1.3010 C   0  0  0  0  0  0  0  0  0  0  0  0
   -7.5170    7.9460   -2.5720 C   0  0  0  0  0  0  0  0  0  0  0  0
   -8.3560    6.7650   -0.4790 C   0  0  0  0  0  0  0  0  0  0  0  0
   -1.6900    9.9170   -0.7620 C   0  0  1  0  0  0  0  0  0  0  0  0
   -1.2270   10.4610    0.6160 C   0  0  0  0  0  0  0  0  0  0  0  0
    0.0010   11.3690    0.3490 C   0  0  0  0  0  0  0  0  0  0  0  0
    0.0010   11.5840   -1.1830 C   0  0  1  0  0  0  0  0  0  0  0  0
   -1.0460   12.7140   -1.4290 C   0  0  0  0  0  0  0  0  0  0  0  0
    1.3820   11.9250   -1.8330 C   0  0  2  0  0  0  0  0  0  0  0  0
    2.0200   13.2420   -1.3570 C   0  0  0  0  0  0  0  0  0  0  0  0
    1.6610   14.4500   -2.1570 C   0  0  0  0  0  0  0  0  0  0  0  0
    1.0930   14.4390   -3.3780 C   0  0  0  0  0  0  0  0  0  0  0  0
    0.8420   13.1190   -4.1180 C   0  0  1  0  0  0  0  0  0  0  0  0
    1.3190   13.2510   -5.5880 C   0  0  0  0  0  0  0  0  0  0  0  0
    0.6940   14.4470   -6.3000 C   0  0  0  0  0  0  0  0  0  0  0  0
    1.0140   15.7470   -5.5670 C   0  0  2  0  0  0  0  0  0  0  0  0
    2.4200   15.9970   -5.6630 O   0  0  0  0  0  0  0  0  0  0  0  0
    0.5880   15.7280   -4.0720 C   0  0  0  0  0  0  0  0  0  0  0  0
   -0.9570   15.7610   -3.9710 C   0  0  0  0  0  0  0  0  0  0  0  0
    1.0940   17.0400   -3.4140 C   0  0  0  0  0  0  0  0  0  0  0  0
    1.4020   11.8100   -3.4110 C   0  0  1  0  0  0  0  0  0  0  0  0
    2.8880   11.5770   -3.8220 C   0  0  0  0  0  0  0  0  0  0  0  0
    0.5960   10.5610   -3.9300 C   0  0  0  0  0  0  0  0  0  0  0  0
   -0.6970   10.2040   -3.1720 C   0  0  0  0  0  0  0  0  0  0  0  0
   -0.4510   10.1560   -1.6610 C   0  0  2  0  0  0  0  0  0  0  0  0
    0.5830    9.0130   -1.3800 C   0  0  0  0  0  0  0  0  0  0  0  0
   -2.0569    6.7431   -1.9360 H   0  0  0  0  0  0  0  0  0  0  0  0
   -3.0891    8.0476   -2.6140 H   0  0  0  0  0  0  0  0  0  0  0  0
   -1.3016    8.2252   -2.6140 H   0  0  0  0  0  0  0  0  0  0  0  0
   -1.6088    7.8996    0.0044 H   0  0  0  0  0  0  0  0  0  0  0  0
   -3.7364    7.7281    0.6623 H   0  0  0  0  0  0  0  0  0  0  0  0
   -3.8391    9.5162    0.2932 H   0  0  0  0  0  0  0  0  0  0  0  0
   -5.1760    9.2145   -1.4736 H   0  0  0  0  0  0  0  0  0  0  0  0
   -4.2829    7.7313   -2.0122 H   0  0  0  0  0  0  0  0  0  0  0  0
   -5.5611    7.6235    0.4102 H   0  0  0  0  0  0  0  0  0  0  0  0
   -7.9574    8.9259   -2.3357 H   0  0  0  0  0  0  0  0  0  0  0  0
   -6.5967    8.0891   -3.1572 H   0  0  0  0  0  0  0  0  0  0  0  0
   -8.2351    7.3528   -3.1572 H   0  0  0  0  0  0  0  0  0  0  0  0
   -8.1112    6.8618    0.5890 H   0  0  0  0  0  0  0  0  0  0  0  0
   -9.2361    7.3827   -0.7109 H   0  0  0  0  0  0  0  0  0  0  0  0
   -8.5754    5.7124   -0.7109 H   0  0  0  0  0  0  0  0  0  0  0  0
   -2.5681   10.4235   -1.1891 H   0  0  0  0  0  0  0  0  0  0  0  0
   -2.0343   11.0436    1.0839 H   0  0  0  0  0  0  0  0  0  0  0  0
   -0.9687    9.6382    1.2988 H   0  0  0  0  0  0  0  0  0  0  0  0
   -0.1038   12.3289    0.8759 H   0  0  0  0  0  0  0  0  0  0  0  0
    0.9386   10.9189    0.7073 H   0  0  0  0  0  0  0  0  0  0  0  0
   -1.4032   13.0996   -0.4627 H   0  0  0  0  0  0  0  0  0  0  0  0
   -0.5777   13.5300   -1.9989 H   0  0  0  0  0  0  0  0  0  0  0  0
   -1.8953   12.3092   -1.9989 H   0  0  0  0  0  0  0  0  0  0  0  0
    2.0286   11.1233   -1.4467 H   0  0  0  0  0  0  0  0  0  0  0  0
    1.7044   13.4164   -0.3178 H   0  0  0  0  0  0  0  0  0  0  0  0
    3.1063   13.1128   -1.4717 H   0  0  0  0  0  0  0  0  0  0  0  0
    1.8788   15.4320   -1.7117 H   0  0  0  0  0  0  0  0  0  0  0  0
   -0.2458   12.9576   -4.0908 H   0  0  0  0  0  0  0  0  0  0  0  0
    2.4127   13.3685   -5.5948 H   0  0  0  0  0  0  0  0  0  0  0  0
    1.0065   12.3425   -6.1236 H   0  0  0  0  0  0  0  0  0  0  0  0
    1.0913   14.5041   -7.3242 H   0  0  0  0  0  0  0  0  0  0  0  0
   -0.3977   14.3137   -6.3176 H   0  0  0  0  0  0  0  0  0  0  0  0
    0.4343   16.5482   -6.0486 H   0  0  0  0  0  0  0  0  0  0  0  0
    2.6200   16.7710   -5.1100 H   0  0  0  0  0  0  0  0  0  0  0  0
   -1.2552   15.7674   -2.9122 H   0  0  0  0  0  0  0  0  0  0  0  0
   -1.3374   16.6675   -4.4645 H   0  0  0  0  0  0  0  0  0  0  0  0
   -1.3758   14.8716   -4.4645 H   0  0  0  0  0  0  0  0  0  0  0  0
    1.0553   16.9398   -2.3193 H   0  0  0  0  0  0  0  0  0  0  0  0
    2.1306   17.2317   -3.7283 H   0  0  0  0  0  0  0  0  0  0  0  0
    0.4546   17.8781   -3.7283 H   0  0  0  0  0  0  0  0  0  0  0  0
    3.5075   11.4799   -2.9182 H   0  0  0  0  0  0  0  0  0  0  0  0
    2.9633   10.6561   -4.4189 H   0  0  0  0  0  0  0  0  0  0  0  0
    3.2415   12.4307   -4.4189 H   0  0  0  0  0  0  0  0  0  0  0  0
    0.3248   10.7524   -4.9787 H   0  0  0  0  0  0  0  0  0  0  0  0
    1.2660    9.7022   -3.7762 H   0  0  0  0  0  0  0  0  0  0  0  0
   -1.4623   10.9640   -3.3880 H   0  0  0  0  0  0  0  0  0  0  0  0
   -1.0356    9.2115   -3.5040 H   0  0  0  0  0  0  0  0  0  0  0  0
    0.7002    8.8834   -0.2940 H   0  0  0  0  0  0  0  0  0  0  0  0
    0.2213    8.0740   -1.8244 H   0  0  0  0  0  0  0  0  0  0  0  0
    1.5534    9.2791   -1.8244 H   0  0  0  0  0  0  0  0  0  0  0  0
  1  2  1  0
  2  3  1  0
  3  4  1  0
  4  5  1  0
  5  6  1  0
  6  7  1  0
  7  8  1  0
  7  9  1  0
  2 10  1  0
 10 11  1  0
 11 12  1  0
 12 13  1  0
 13 14  1  1
 13 15  1  0
 15 16  1  0
 16 17  1  0
 17 18  2  0
 18 19  1  0
 19 20  1  0
 20 21  1  0
 21 22  1  0
 22 23  1  0
 22 24  1  0
 24 25  1  0
 24 26  1  0
 19 27  1  0
 27 28  1  6
 27 29  1  0
 29 30  1  0
 30 31  1  0
 31 32  1  6
  7  5  1  0
 31 10  1  0
 31 13  1  0
 27 15  1  0
 24 18  1  0
  1 33  1  0
  1 34  1  0
  1 35  1  0
  2 36  1  1
  3 37  1  0
  3 38  1  0
  4 39  1  0
  4 40  1  0
  5 41  1  1
  8 42  1  0
  8 43  1  0
  8 44  1  0
  9 45  1  0
  9 46  1  0
  9 47  1  0
 10 48  1  6
 11 49  1  0
 11 50  1  0
 12 51  1  0
 12 52  1  0
 14 53  1  0
 14 54  1  0
 14 55  1  0
 15 56  1  1
 16 57  1  0
 16 58  1  0
 17 59  1  0
 19 60  1  6
 20 61  1  0
 20 62  1  0
 21 63  1  0
 21 64  1  0
 22 65  1  6
 23 66  1  0
 25 67  1  0
 25 68  1  0
 25 69  1  0
 26 70  1  0
 26 71  1  0
 26 72  1  0
 28 73  1  0
 28 74  1  0
 28 75  1  0
 29 76  1  0
 29 77  1  0
 30 78  1  0
 30 79  1  0
 32 80  1  0
 32 81  1  0
 32 82  1  0
M  END
>  <meeko>  (13) 
{"is_sidechain": [false], "intermolecular_energy": 2.731, "internal_energy": -0.839}

$$$$
EPH_relaxed_0001_pdb2pqr_Repair_220_r2_0001_out
     RDKit          3D

 82 86  0  0  0  0  0  0  0  0999 V2000
    3.5400   18.5470   -2.1690 C   0  0  0  0  0  0  0  0  0  0  0  0
    2.3260   17.7010   -2.5640 C   0  0  2  0  0  0  0  0  0  0  0  0
    0.9970   18.4400   -2.3120 C   0  0  0  0  0  0  0  0  0  0  0  0
    1.1090   19.5790   -1.2950 C   0  0  0  0  0  0  0  0  0  0  0  0
    0.0240   19.5100   -0.2630 C   0  0  2  0  0  0  0  0  0  0  0  0
   -0.9320   18.4620   -0.4690 O   0  0  0  0  0  0  0  0  0  0  0  0
   -1.4340   19.8050   -0.5610 C   0  0  0  0  0  0  0  0  0  0  0  0
   -1.8870   20.1940   -1.9330 C   0  0  0  0  0  0  0  0  0  0  0  0
   -2.3310   20.1920    0.5730 C   0  0  0  0  0  0  0  0  0  0  0  0
    2.3420   16.3810   -1.8020 C   0  0  1  0  0  0  0  0  0  0  0  0
    2.5720   16.5740   -0.2790 C   0  0  0  0  0  0  0  0  0  0  0  0
    1.7410   15.4810    0.4410 C   0  0  0  0  0  0  0  0  0  0  0  0
    1.3300   14.5000   -0.6820 C   0  0  1  0  0  0  0  0  0  0  0  0
    2.5790   13.5880   -0.8940 C   0  0  0  0  0  0  0  0  0  0  0  0
    0.0370   13.6590   -0.4260 C   0  0  2  0  0  0  0  0  0  0  0  0
    0.1080   12.7040    0.7790 C   0  0  0  0  0  0  0  0  0  0  0  0
    0.6040   11.3300    0.4750 C   0  0  0  0  0  0  0  0  0  0  0  0
    0.7090   10.7900   -0.7540 C   0  0  0  0  0  0  0  0  0  0  0  0
    0.2140   11.5480   -1.9920 C   0  0  1  0  0  0  0  0  0  0  0  0
   -0.6240   10.5940   -2.8830 C   0  0  0  0  0  0  0  0  0  0  0  0
    0.1290    9.3170   -3.2430 C   0  0  0  0  0  0  0  0  0  0  0  0
    0.5540    8.5610   -1.9860 C   0  0  2  0  0  0  0  0  0  0  0  0
   -0.6180    8.0820   -1.3190 O   0  0  0  0  0  0  0  0  0  0  0  0
    1.3970    9.4260   -1.0070 C   0  0  0  0  0  0  0  0  0  0  0  0
    2.7940    9.6920   -1.6200 C   0  0  0  0  0  0  0  0  0  0  0  0
    1.6390    8.5910    0.2790 C   0  0  0  0  0  0  0  0  0  0  0  0
   -0.5250   12.9270   -1.7110 C   0  0  1  0  0  0  0  0  0  0  0  0
   -2.0420   12.6750   -1.4530 C   0  0  0  0  0  0  0  0  0  0  0  0
   -0.4380   13.8280   -2.9990 C   0  0  0  0  0  0  0  0  0  0  0  0
    0.8070   14.7260   -3.1360 C   0  0  0  0  0  0  0  0  0  0  0  0
    1.0560   15.5180   -1.8490 C   0  0  2  0  0  0  0  0  0  0  0  0
   -0.1740   16.4610   -1.6210 C   0  0  0  0  0  0  0  0  0  0  0  0
    3.6112   18.5966   -1.0724 H   0  0  0  0  0  0  0  0  0  0  0  0
    4.4539   18.0891   -2.5754 H   0  0  0  0  0  0  0  0  0  0  0  0
    3.4269   19.5629   -2.5754 H   0  0  0  0  0  0  0  0  0  0  0  0
    2.3952   17.5065   -3.6445 H   0  0  0  0  0  0  0  0  0  0  0  0
    0.6468   18.8599   -3.2665 H   0  0  0  0  0  0  0  0  0  0  0  0
    0.2943   17.7040   -1.8941 H   0  0  0  0  0  0  0  0  0  0  0  0
    2.0847   19.5125   -0.7914 H   0  0  0  0  0  0  0  0  0  0  0  0
    1.0081   20.5319   -1.8352 H   0  0  0  0  0  0  0  0  0  0  0  0
    0.7077   19.8810    0.5148 H   0  0  0  0  0  0  0  0  0  0  0  0
   -2.7194   20.9088   -1.8554 H   0  0  0  0  0  0  0  0  0  0  0  0
   -1.0522   20.6610   -2.4761 H   0  0  0  0  0  0  0  0  0  0  0  0
   -2.2224   19.2982   -2.4761 H   0  0  0  0  0  0  0  0  0  0  0  0
   -1.8293   19.9755    1.5277 H   0  0  0  0  0  0  0  0  0  0  0  0
   -2.5557   21.2671    0.5124 H   0  0  0  0  0  0  0  0  0  0  0  0
   -3.2673   19.6178    0.5124 H   0  0  0  0  0  0  0  0  0  0  0  0
    3.1583   15.8700   -2.3336 H   0  0  0  0  0  0  0  0  0  0  0  0
    3.6393   16.4577   -0.0394 H   0  0  0  0  0  0  0  0  0  0  0  0
    2.2642   17.5799    0.0425 H   0  0  0  0  0  0  0  0  0  0  0  0
    2.3491   14.9685    1.2009 H   0  0  0  0  0  0  0  0  0  0  0  0
    0.8711   15.8986    0.9690 H   0  0  0  0  0  0  0  0  0  0  0  0
    2.9861   13.2907    0.0837 H   0  0  0  0  0  0  0  0  0  0  0  0
    2.2859   12.6899   -1.4575 H   0  0  0  0  0  0  0  0  0  0  0  0
    3.3452   14.1407   -1.4575 H   0  0  0  0  0  0  0  0  0  0  0  0
   -0.6967   14.4315   -0.1524 H   0  0  0  0  0  0  0  0  0  0  0  0
    0.7798   13.1501    1.5271 H   0  0  0  0  0  0  0  0  0  0  0  0
   -0.9266   12.5827    1.1325 H   0  0  0  0  0  0  0  0  0  0  0  0
    0.9098   10.7052    1.3271 H   0  0  0  0  0  0  0  0  0  0  0  0
    1.1164   11.8677   -2.5337 H   0  0  0  0  0  0  0  0  0  0  0  0
   -1.5419   10.3213   -2.3415 H   0  0  0  0  0  0  0  0  0  0  0  0
   -0.8490   11.1242   -3.8201 H   0  0  0  0  0  0  0  0  0  0  0  0
   -0.5253    8.6715   -3.8473 H   0  0  0  0  0  0  0  0  0  0  0  0
    1.0310    9.5895   -3.8105 H   0  0  0  0  0  0  0  0  0  0  0  0
    1.1990    7.7282   -2.3029 H   0  0  0  0  0  0  0  0  0  0  0  0
   -0.3260    7.5410   -0.5660 H   0  0  0  0  0  0  0  0  0  0  0  0
    3.5281    9.8318   -0.8128 H   0  0  0  0  0  0  0  0  0  0  0  0
    3.0911    8.8343   -2.2413 H   0  0  0  0  0  0  0  0  0  0  0  0
    2.7551   10.5989   -2.2413 H   0  0  0  0  0  0  0  0  0  0  0  0
    1.4570    9.2190    1.1636 H   0  0  0  0  0  0  0  0  0  0  0  0
    0.9531    7.7311    0.2924 H   0  0  0  0  0  0  0  0  0  0  0  0
    2.6784    8.2312    0.2924 H   0  0  0  0  0  0  0  0  0  0  0  0
   -2.2294   12.6439   -0.3695 H   0  0  0  0  0  0  0  0  0  0  0  0
   -2.6305   13.4877   -1.9037 H   0  0  0  0  0  0  0  0  0  0  0  0
   -2.3362   11.7157   -1.9037 H   0  0  0  0  0  0  0  0  0  0  0  0
   -0.4656   13.1616   -3.8738 H   0  0  0  0  0  0  0  0  0  0  0  0
   -1.2871   14.5230   -2.9220 H   0  0  0  0  0  0  0  0  0  0  0  0
    1.6838   14.0959   -3.3461 H   0  0  0  0  0  0  0  0  0  0  0  0
    0.6379   15.4370   -3.9582 H   0  0  0  0  0  0  0  0  0  0  0  0
   -0.3421   16.5899   -0.5416 H   0  0  0  0  0  0  0  0  0  0  0  0
    0.0247   17.4404   -2.0807 H   0  0  0  0  0  0  0  0  0  0  0  0
   -1.0682   16.0149   -2.0807 H   0  0  0  0  0  0  0  0  0  0  0  0
  1  2  1  0
  2  3  1  0
  3  4  1  0
  4  5  1  0
  5  6  1  0
  6  7  1  0
  7  8  1  0
  7  9  1  0
  2 10  1  0
 10 11  1  0
 11 12  1  0
 12 13  1  0
 13 14  1  6
 13 15  1  0
 15 16  1  0
 16 17  1  0
 17 18  2  0
 18 19  1  0
 19 20  1  0
 20 21  1  0
 21 22  1  0
 22 23  1  0
 22 24  1  0
 24 25  1  0
 24 26  1  0
 19 27  1  0
 27 28  1  1
 27 29  1  0
 29 30  1  0
 30 31  1  0
 31 32  1  1
  7  5  1  0
 31 10  1  0
 31 13  1  0
 27 15  1  0
 24 18  1  0
  1 33  1  0
  1 34  1  0
  1 35  1  0
  2 36  1  6
  3 37  1  0
  3 38  1  0
  4 39  1  0
  4 40  1  0
  5 41  1  1
  8 42  1  0
  8 43  1  0
  8 44  1  0
  9 45  1  0
  9 46  1  0
  9 47  1  0
 10 48  1  6
 11 49  1  0
 11 50  1  0
 12 51  1  0
 12 52  1  0
 14 53  1  0
 14 54  1  0
 14 55  1  0
 15 56  1  1
 16 57  1  0
 16 58  1  0
 17 59  1  0
 19 60  1  6
 20 61  1  0
 20 62  1  0
 21 63  1  0
 21 64  1  0
 22 65  1  6
 23 66  1  0
 25 67  1  0
 25 68  1  0
 25 69  1  0
 26 70  1  0
 26 71  1  0
 26 72  1  0
 28 73  1  0
 28 74  1  0
 28 75  1  0
 29 76  1  0
 29 77  1  0
 30 78  1  0
 30 79  1  0
 32 80  1  0
 32 81  1  0
 32 82  1  0
M  END
>  <meeko>  (14) 
{"is_sidechain": [false], "intermolecular_energy": 2.731, "internal_energy": -0.839}

$$$$
EPH_relaxed_0001_pdb2pqr_Repair_220_r2_0001_out
     RDKit          3D

 82 86  0  0  0  0  0  0  0  0999 V2000
   -1.8510   10.3040    0.6380 C   0  0  0  0  0  0  0  0  0  0  0  0
   -0.4770   10.4580   -0.0200 C   0  0  2  0  0  0  0  0  0  0  0  0
    0.5020    9.3490    0.4130 C   0  0  0  0  0  0  0  0  0  0  0  0
    0.7430    8.2850   -0.6610 C   0  0  0  0  0  0  0  0  0  0  0  0
   -0.5440    7.7110   -1.1710 C   0  0  2  0  0  0  0  0  0  0  0  0
   -0.4680    7.1450   -2.4850 O   0  0  0  0  0  0  0  0  0  0  0  0
   -1.3160    8.2950   -2.3390 C   0  0  0  0  0  0  0  0  0  0  0  0
   -0.8290    9.5070   -3.0690 C   0  0  0  0  0  0  0  0  0  0  0  0
   -2.7760    7.9870   -2.4580 C   0  0  0  0  0  0  0  0  0  0  0  0
    0.1060   11.8270    0.3090 C   0  0  1  0  0  0  0  0  0  0  0  0
    1.3850   11.7370    1.1830 C   0  0  0  0  0  0  0  0  0  0  0  0
    2.3160   12.8920    0.7350 C   0  0  0  0  0  0  0  0  0  0  0  0
    1.4190   13.8000   -0.1380 C   0  0  1  0  0  0  0  0  0  0  0  0
    0.6190   14.6720    0.8810 C   0  0  0  0  0  0  0  0  0  0  0  0
    2.1530   14.6820   -1.2000 C   0  0  2  0  0  0  0  0  0  0  0  0
    3.1350   15.7170   -0.6240 C   0  0  0  0  0  0  0  0  0  0  0  0
    2.5480   17.0570   -0.3280 C   0  0  0  0  0  0  0  0  0  0  0  0
    1.3620   17.5080   -0.7780 C   0  0  0  0  0  0  0  0  0  0  0  0
    0.5210   16.6750   -1.7530 C   0  0  1  0  0  0  0  0  0  0  0  0
    0.0200   17.5810   -2.9090 C   0  0  0  0  0  0  0  0  0  0  0  0
   -0.7230   18.8150   -2.4050 C   0  0  0  0  0  0  0  0  0  0  0  0
    0.1660   19.6480   -1.4850 C   0  0  2  0  0  0  0  0  0  0  0  0
    1.2420   20.1940   -2.2540 O   0  0  0  0  0  0  0  0  0  0  0  0
    0.7380   18.8380   -0.2880 C   0  0  0  0  0  0  0  0  0  0  0  0
   -0.4020   18.5030    0.7060 C   0  0  0  0  0  0  0  0  0  0  0  0
    1.7270   19.7560    0.4800 C   0  0  0  0  0  0  0  0  0  0  0  0
    1.1930   15.3330   -2.2770 C   0  0  1  0  0  0  0  0  0  0  0  0
    2.0690   15.6310   -3.5320 C   0  0  0  0  0  0  0  0  0  0  0  0
    0.0630   14.3430   -2.7490 C   0  0  0  0  0  0  0  0  0  0  0  0
   -0.5390   13.4140   -1.6770 C   0  0  0  0  0  0  0  0  0  0  0  0
    0.5630   12.7100   -0.8800 C   0  0  2  0  0  0  0  0  0  0  0  0
    1.3710   11.8080   -1.8750 C   0  0  0  0  0  0  0  0  0  0  0  0
   -1.7371   10.3168    1.7320 H   0  0  0  0  0  0  0  0  0  0  0  0
   -2.5015   11.1349    0.3273 H   0  0  0  0  0  0  0  0  0  0  0  0
   -2.3014    9.3497    0.3273 H   0  0  0  0  0  0  0  0  0  0  0  0
   -0.6182   10.3662   -1.1070 H   0  0  0  0  0  0  0  0  0  0  0  0
    1.4666    9.8155    0.6619 H   0  0  0  0  0  0  0  0  0  0  0  0
    0.0472    8.8380    1.2744 H   0  0  0  0  0  0  0  0  0  0  0  0
    1.2867    8.7427   -1.5006 H   0  0  0  0  0  0  0  0  0  0  0  0
    1.3277    7.4693   -0.2106 H   0  0  0  0  0  0  0  0  0  0  0  0
   -0.8487    7.4289   -0.1524 H   0  0  0  0  0  0  0  0  0  0  0  0
   -0.5210   10.2735   -2.3426 H   0  0  0  0  0  0  0  0  0  0  0  0
    0.0294    9.2344   -3.7005 H   0  0  0  0  0  0  0  0  0  0  0  0
   -1.6374    9.9041   -3.7005 H   0  0  0  0  0  0  0  0  0  0  0  0
   -3.2143    7.8945   -1.4533 H   0  0  0  0  0  0  0  0  0  0  0  0
   -3.2787    8.7989   -3.0041 H   0  0  0  0  0  0  0  0  0  0  0  0
   -2.9079    7.0413   -3.0041 H   0  0  0  0  0  0  0  0  0  0  0  0
   -0.7635   12.2835    0.8046 H   0  0  0  0  0  0  0  0  0  0  0  0
    1.1259   11.8502    2.2460 H   0  0  0  0  0  0  0  0  0  0  0  0
    1.8790   10.7618    1.0603 H   0  0  0  0  0  0  0  0  0  0  0  0
    2.6963   13.4446    1.6068 H   0  0  0  0  0  0  0  0  0  0  0  0
    3.1986   12.5282    0.1885 H   0  0  0  0  0  0  0  0  0  0  0  0
    0.8886   14.3781    1.9061 H   0  0  0  0  0  0  0  0  0  0  0  0
    0.8642   15.7332    0.7273 H   0  0  0  0  0  0  0  0  0  0  0  0
   -0.4594   14.5189    0.7273 H   0  0  0  0  0  0  0  0  0  0  0  0
    2.7740   13.9444   -1.7295 H   0  0  0  0  0  0  0  0  0  0  0  0
    3.5457   15.3115    0.3124 H   0  0  0  0  0  0  0  0  0  0  0  0
    3.8940   15.8826   -1.4027 H   0  0  0  0  0  0  0  0  0  0  0  0
    3.1339   17.7332    0.3119 H   0  0  0  0  0  0  0  0  0  0  0  0
   -0.3358   16.3012   -1.1731 H   0  0  0  0  0  0  0  0  0  0  0  0
    0.8870   17.9088   -3.5013 H   0  0  0  0  0  0  0  0  0  0  0  0
   -0.6840   16.9913   -3.5144 H   0  0  0  0  0  0  0  0  0  0  0  0
   -1.0264   19.4292   -3.2656 H   0  0  0  0  0  0  0  0  0  0  0  0
   -1.6060   18.4862   -1.8374 H   0  0  0  0  0  0  0  0  0  0  0  0
   -0.4590   20.4445   -1.0549 H   0  0  0  0  0  0  0  0  0  0  0  0
    0.9320   20.2840   -3.1710 H   0  0  0  0  0  0  0  0  0  0  0  0
   -0.0334   18.6113    1.7367 H   0  0  0  0  0  0  0  0  0  0  0  0
   -1.2443   19.1916    0.5435 H   0  0  0  0  0  0  0  0  0  0  0  0
   -0.7378   17.4682    0.5435 H   0  0  0  0  0  0  0  0  0  0  0  0
    1.5846   19.6238    1.5627 H   0  0  0  0  0  0  0  0  0  0  0  0
    2.7596   19.4890    0.2107 H   0  0  0  0  0  0  0  0  0  0  0  0
    1.5375   20.8056    0.2107 H   0  0  0  0  0  0  0  0  0  0  0  0
    3.0653   15.9699   -3.2117 H   0  0  0  0  0  0  0  0  0  0  0  0
    2.1691   14.7164   -4.1348 H   0  0  0  0  0  0  0  0  0  0  0  0
    1.5906   16.4170   -4.1348 H   0  0  0  0  0  0  0  0  0  0  0  0
   -0.7570   14.9475   -3.1640 H   0  0  0  0  0  0  0  0  0  0  0  0
    0.5515   13.6715   -3.4704 H   0  0  0  0  0  0  0  0  0  0  0  0
   -1.1555   14.0109   -0.9887 H   0  0  0  0  0  0  0  0  0  0  0  0
   -1.1514   12.6502   -2.1787 H   0  0  0  0  0  0  0  0  0  0  0  0
    1.9993   11.1066   -1.3065 H   0  0  0  0  0  0  0  0  0  0  0  0
    0.6714   11.2429   -2.5084 H   0  0  0  0  0  0  0  0  0  0  0  0
    2.0094   12.4414   -2.5084 H   0  0  0  0  0  0  0  0  0  0  0  0
  1  2  1  0
  2  3  1  0
  3  4  1  0
  4  5  1  0
  5  6  1  0
  6  7  1  0
  7  8  1  0
  7  9  1  0
  2 10  1  0
 10 11  1  0
 11 12  1  0
 12 13  1  0
 13 14  1  1
 13 15  1  0
 15 16  1  0
 16 17  1  0
 17 18  2  0
 18 19  1  0
 19 20  1  0
 20 21  1  0
 21 22  1  0
 22 23  1  0
 22 24  1  0
 24 25  1  0
 24 26  1  0
 19 27  1  0
 27 28  1  6
 27 29  1  0
 29 30  1  0
 30 31  1  0
 31 32  1  6
  7  5  1  0
 31 10  1  0
 31 13  1  0
 27 15  1  0
 24 18  1  0
  1 33  1  0
  1 34  1  0
  1 35  1  0
  2 36  1  6
  3 37  1  0
  3 38  1  0
  4 39  1  0
  4 40  1  0
  5 41  1  1
  8 42  1  0
  8 43  1  0
  8 44  1  0
  9 45  1  0
  9 46  1  0
  9 47  1  0
 10 48  1  1
 11 49  1  0
 11 50  1  0
 12 51  1  0
 12 52  1  0
 14 53  1  0
 14 54  1  0
 14 55  1  0
 15 56  1  6
 16 57  1  0
 16 58  1  0
 17 59  1  0
 19 60  1  1
 20 61  1  0
 20 62  1  0
 21 63  1  0
 21 64  1  0
 22 65  1  1
 23 66  1  0
 25 67  1  0
 25 68  1  0
 25 69  1  0
 26 70  1  0
 26 71  1  0
 26 72  1  0
 28 73  1  0
 28 74  1  0
 28 75  1  0
 29 76  1  0
 29 77  1  0
 30 78  1  0
 30 79  1  0
 32 80  1  0
 32 81  1  0
 32 82  1  0
M  END
>  <meeko>  (15) 
{"is_sidechain": [false], "intermolecular_energy": 2.731, "internal_energy": -0.839}

$$$$
EPH_relaxed_0001_pdb2pqr_Repair_220_r2_0001_out
     RDKit          3D

 82 86  0  0  0  0  0  0  0  0999 V2000
   -0.1220    9.2720   -2.0730 C   0  0  0  0  0  0  0  0  0  0  0  0
    0.9520   10.2470   -2.5620 C   0  0  2  0  0  0  0  0  0  0  0  0
    2.3450    9.5900   -2.6310 C   0  0  0  0  0  0  0  0  0  0  0  0
    3.2360   10.1500   -3.7430 C   0  0  0  0  0  0  0  0  0  0  0  0
    4.6890   10.0660   -3.3850 C   0  0  2  0  0  0  0  0  0  0  0  0
    5.2120   11.2280   -2.7280 O   0  0  0  0  0  0  0  0  0  0  0  0
    5.7590   10.9320   -4.0230 C   0  0  0  0  0  0  0  0  0  0  0  0
    5.4200   11.9440   -5.0720 C   0  0  0  0  0  0  0  0  0  0  0  0
    7.1790   10.4600   -3.9840 C   0  0  0  0  0  0  0  0  0  0  0  0
    0.9970   11.4690   -1.6520 C   0  0  1  0  0  0  0  0  0  0  0  0
    2.0460   11.3310   -0.5170 C   0  0  0  0  0  0  0  0  0  0  0  0
    2.6300   12.7460   -0.2730 C   0  0  0  0  0  0  0  0  0  0  0  0
    1.6750   13.6980   -1.0300 C   0  0  1  0  0  0  0  0  0  0  0  0
    0.4610   13.8960   -0.0690 C   0  0  0  0  0  0  0  0  0  0  0  0
    2.2800   15.0660   -1.4850 C   0  0  2  0  0  0  0  0  0  0  0  0
    2.7540   15.9820   -0.3430 C   0  0  0  0  0  0  0  0  0  0  0  0
    1.7270   16.9300    0.1820 C   0  0  0  0  0  0  0  0  0  0  0  0
    0.5680   17.2440   -0.4270 C   0  0  0  0  0  0  0  0  0  0  0  0
    0.2380   16.6960   -1.8210 C   0  0  1  0  0  0  0  0  0  0  0  0
   -0.2940   17.8460   -2.7160 C   0  0  0  0  0  0  0  0  0  0  0  0
   -1.4710   18.5830   -2.0850 C   0  0  0  0  0  0  0  0  0  0  0  0
   -1.0860   19.1620   -0.7260 C   0  0  2  0  0  0  0  0  0  0  0  0
   -0.1140   20.1930   -0.9240 O   0  0  0  0  0  0  0  0  0  0  0  0
   -0.5270   18.0980    0.2580 C   0  0  0  0  0  0  0  0  0  0  0  0
   -1.6690   17.1530    0.7070 C   0  0  0  0  0  0  0  0  0  0  0  0
   -0.0460   18.8350    1.5370 C   0  0  0  0  0  0  0  0  0  0  0  0
    1.3880   15.8560   -2.5260 C   0  0  1  0  0  0  0  0  0  0  0  0
    2.3470   16.8110   -3.3000 C   0  0  0  0  0  0  0  0  0  0  0  0
    0.7430   14.9050   -3.6030 C   0  0  0  0  0  0  0  0  0  0  0  0
    0.2740   13.5210   -3.1170 C   0  0  0  0  0  0  0  0  0  0  0  0
    1.3690   12.8260   -2.3020 C   0  0  2  0  0  0  0  0  0  0  0  0
    2.5950   12.5940   -3.2480 C   0  0  0  0  0  0  0  0  0  0  0  0
   -0.1340    9.2611   -0.9731 H   0  0  0  0  0  0  0  0  0  0  0  0
   -1.1056    9.5921   -2.4472 H   0  0  0  0  0  0  0  0  0  0  0  0
    0.1018    8.2621   -2.4472 H   0  0  0  0  0  0  0  0  0  0  0  0
    0.6809   10.5532   -3.5831 H   0  0  0  0  0  0  0  0  0  0  0  0
    2.8516    9.7482   -1.6675 H   0  0  0  0  0  0  0  0  0  0  0  0
    2.1868    8.5242   -2.8524 H   0  0  0  0  0  0  0  0  0  0  0  0
    3.0619    9.5735   -4.6635 H   0  0  0  0  0  0  0  0  0  0  0  0
    2.9792   11.2099   -3.8868 H   0  0  0  0  0  0  0  0  0  0  0  0
    4.6129    8.9792   -3.2329 H   0  0  0  0  0  0  0  0  0  0  0  0
    5.1060   12.8813   -4.5894 H   0  0  0  0  0  0  0  0  0  0  0  0
    6.3040   12.1326   -5.6988 H   0  0  0  0  0  0  0  0  0  0  0  0
    4.6008   11.5620   -5.6988 H   0  0  0  0  0  0  0  0  0  0  0  0
    7.5012   10.3529   -2.9377 H   0  0  0  0  0  0  0  0  0  0  0  0
    7.2564    9.4878   -4.4928 H   0  0  0  0  0  0  0  0  0  0  0  0
    7.8230   11.1924   -4.4928 H   0  0  0  0  0  0  0  0  0  0  0  0
   -0.0501   11.4869   -1.3155 H   0  0  0  0  0  0  0  0  0  0  0  0
    1.5659   10.9563    0.3990 H   0  0  0  0  0  0  0  0  0  0  0  0
    2.8376   10.6197   -0.7953 H   0  0  0  0  0  0  0  0  0  0  0  0
    2.6417   12.9813    0.8015 H   0  0  0  0  0  0  0  0  0  0  0  0
    3.6696   12.8340   -0.6216 H   0  0  0  0  0  0  0  0  0  0  0  0
    0.8060   13.8397    0.9740 H   0  0  0  0  0  0  0  0  0  0  0  0
    0.0053   14.8803   -0.2519 H   0  0  0  0  0  0  0  0  0  0  0  0
   -0.2838   13.1075   -0.2519 H   0  0  0  0  0  0  0  0  0  0  0  0
    3.1911   14.7547   -2.0169 H   0  0  0  0  0  0  0  0  0  0  0  0
    3.0847   15.3438    0.4897 H   0  0  0  0  0  0  0  0  0  0  0  0
    3.5558   16.6053   -0.7656 H   0  0  0  0  0  0  0  0  0  0  0  0
    1.9349   17.4128    1.1483 H   0  0  0  0  0  0  0  0  0  0  0  0
   -0.5497   15.9425   -1.6733 H   0  0  0  0  0  0  0  0  0  0  0  0
    0.5208   18.5648   -2.8876 H   0  0  0  0  0  0  0  0  0  0  0  0
   -0.6461   17.3999   -3.6578 H   0  0  0  0  0  0  0  0  0  0  0  0
   -1.7816   19.4020   -2.7504 H   0  0  0  0  0  0  0  0  0  0  0  0
   -2.2963   17.8699   -1.9421 H   0  0  0  0  0  0  0  0  0  0  0  0
   -2.0018   19.5619   -0.2662 H   0  0  0  0  0  0  0  0  0  0  0  0
    0.4860   19.9000   -1.6310 H   0  0  0  0  0  0  0  0  0  0  0  0
   -1.7077   17.1210    1.8059 H   0  0  0  0  0  0  0  0  0  0  0  0
   -2.6278   17.5254    0.3170 H   0  0  0  0  0  0  0  0  0  0  0  0
   -1.4826   16.1415    0.3170 H   0  0  0  0  0  0  0  0  0  0  0  0
   -0.3994   18.2936    2.4269 H   0  0  0  0  0  0  0  0  0  0  0  0
    1.0532   18.8759    1.5451 H   0  0  0  0  0  0  0  0  0  0  0  0
   -0.4511   19.8577    1.5451 H   0  0  0  0  0  0  0  0  0  0  0  0
    2.9374   17.3989   -2.5818 H   0  0  0  0  0  0  0  0  0  0  0  0
    3.0239   16.2175   -3.9322 H   0  0  0  0  0  0  0  0  0  0  0  0
    1.7564   17.4904   -3.9322 H   0  0  0  0  0  0  0  0  0  0  0  0
   -0.1311   15.4235   -4.0237 H   0  0  0  0  0  0  0  0  0  0  0  0
    1.5483   14.6989   -4.3234 H   0  0  0  0  0  0  0  0  0  0  0  0
   -0.6195   13.6445   -2.4875 H   0  0  0  0  0  0  0  0  0  0  0  0
    0.0434   12.9004   -3.9955 H   0  0  0  0  0  0  0  0  0  0  0  0
    3.4977   12.4232   -2.6431 H   0  0  0  0  0  0  0  0  0  0  0  0
    2.4073   11.7154   -3.8827 H   0  0  0  0  0  0  0  0  0  0  0  0
    2.7413   13.4804   -3.8827 H   0  0  0  0  0  0  0  0  0  0  0  0
  1  2  1  0
  2  3  1  0
  3  4  1  0
  4  5  1  0
  5  6  1  0
  6  7  1  0
  7  8  1  0
  7  9  1  0
  2 10  1  0
 10 11  1  0
 11 12  1  0
 12 13  1  0
 13 14  1  1
 13 15  1  0
 15 16  1  0
 16 17  1  0
 17 18  2  0
 18 19  1  0
 19 20  1  0
 20 21  1  0
 21 22  1  0
 22 23  1  0
 22 24  1  0
 24 25  1  0
 24 26  1  0
 19 27  1  0
 27 28  1  6
 27 29  1  0
 29 30  1  0
 30 31  1  0
 31 32  1  6
  7  5  1  0
 31 10  1  0
 31 13  1  0
 27 15  1  0
 24 18  1  0
  1 33  1  0
  1 34  1  0
  1 35  1  0
  2 36  1  6
  3 37  1  0
  3 38  1  0
  4 39  1  0
  4 40  1  0
  5 41  1  1
  8 42  1  0
  8 43  1  0
  8 44  1  0
  9 45  1  0
  9 46  1  0
  9 47  1  0
 10 48  1  1
 11 49  1  0
 11 50  1  0
 12 51  1  0
 12 52  1  0
 14 53  1  0
 14 54  1  0
 14 55  1  0
 15 56  1  6
 16 57  1  0
 16 58  1  0
 17 59  1  0
 19 60  1  1
 20 61  1  0
 20 62  1  0
 21 63  1  0
 21 64  1  0
 22 65  1  1
 23 66  1  0
 25 67  1  0
 25 68  1  0
 25 69  1  0
 26 70  1  0
 26 71  1  0
 26 72  1  0
 28 73  1  0
 28 74  1  0
 28 75  1  0
 29 76  1  0
 29 77  1  0
 30 78  1  0
 30 79  1  0
 32 80  1  0
 32 81  1  0
 32 82  1  0
M  END
>  <meeko>  (16) 
{"is_sidechain": [false], "intermolecular_energy": 2.731, "internal_energy": -0.839}

$$$$
EPH_relaxed_0001_pdb2pqr_Repair_220_r2_0001_out
     RDKit          3D

 82 86  0  0  0  0  0  0  0  0999 V2000
    1.9180   10.7800   -4.8570 C   0  0  0  0  0  0  0  0  0  0  0  0
    1.0890   10.6510   -3.5760 C   0  0  2  0  0  0  0  0  0  0  0  0
   -0.1030    9.6890   -3.7500 C   0  0  0  0  0  0  0  0  0  0  0  0
   -0.1380    8.5580   -2.7190 C   0  0  0  0  0  0  0  0  0  0  0  0
   -0.0310    9.0810   -1.3190 C   0  0  2  0  0  0  0  0  0  0  0  0
   -0.3960    8.1410   -0.2990 O   0  0  0  0  0  0  0  0  0  0  0  0
   -1.2300    9.3050   -0.4160 C   0  0  0  0  0  0  0  0  0  0  0  0
   -2.6220    9.0120   -0.8810 C   0  0  0  0  0  0  0  0  0  0  0  0
   -1.0960   10.2610    0.7280 C   0  0  0  0  0  0  0  0  0  0  0  0
    0.5910   12.0230   -3.1380 C   0  0  1  0  0  0  0  0  0  0  0  0
   -0.8900   12.0020   -2.6760 C   0  0  0  0  0  0  0  0  0  0  0  0
   -1.0130   13.0300   -1.5220 C   0  0  0  0  0  0  0  0  0  0  0  0
    0.3030   13.8400   -1.5790 C   0  0  1  0  0  0  0  0  0  0  0  0
    0.0770   14.8930   -2.7090 C   0  0  0  0  0  0  0  0  0  0  0  0
    0.7570   14.5150   -0.2440 C   0  0  2  0  0  0  0  0  0  0  0  0
   -0.2090   15.5750    0.3130 C   0  0  0  0  0  0  0  0  0  0  0  0
    0.0400   16.9720   -0.1500 C   0  0  0  0  0  0  0  0  0  0  0  0
    1.1630   17.4080   -0.7500 C   0  0  0  0  0  0  0  0  0  0  0  0
    2.3720   16.4810   -0.9280 C   0  0  1  0  0  0  0  0  0  0  0  0
    3.6640   17.2270   -0.5030 C   0  0  0  0  0  0  0  0  0  0  0  0
    3.8380   18.5570   -1.2290 C   0  0  0  0  0  0  0  0  0  0  0  0
    2.6430   19.4740   -0.9800 C   0  0  2  0  0  0  0  0  0  0  0  0
    2.6270   19.8460    0.4020 O   0  0  0  0  0  0  0  0  0  0  0  0
    1.2830   18.8260   -1.3620 C   0  0  0  0  0  0  0  0  0  0  0  0
    1.1810   18.7000   -2.9030 C   0  0  0  0  0  0  0  0  0  0  0  0
    0.1520   19.7980   -0.9310 C   0  0  0  0  0  0  0  0  0  0  0  0
    2.2480   15.0440   -0.2600 C   0  0  1  0  0  0  0  0  0  0  0  0
    2.7140   15.1080    1.2270 C   0  0  0  0  0  0  0  0  0  0  0  0
    3.2280   14.0510   -0.9900 C   0  0  0  0  0  0  0  0  0  0  0  0
    2.6810   13.3250   -2.2340 C   0  0  0  0  0  0  0  0  0  0  0  0
    1.3150   12.6940   -1.9430 C   0  0  2  0  0  0  0  0  0  0  0  0
    1.5150   11.6150   -0.8250 C   0  0  0  0  0  0  0  0  0  0  0  0
    2.9738   10.9443   -4.5955 H   0  0  0  0  0  0  0  0  0  0  0  0
    1.8260    9.8567   -5.4478 H   0  0  0  0  0  0  0  0  0  0  0  0
    1.5498   11.6317   -5.4478 H   0  0  0  0  0  0  0  0  0  0  0  0
    1.7439   10.2283   -2.7999 H   0  0  0  0  0  0  0  0  0  0  0  0
   -1.0332   10.2692   -3.6604 H   0  0  0  0  0  0  0  0  0  0  0  0
    0.0056    9.2189   -4.7386 H   0  0  0  0  0  0  0  0  0  0  0  0
   -1.0859    8.0097   -2.8233 H   0  0  0  0  0  0  0  0  0  0  0  0
    0.7218    7.8976   -2.9051 H   0  0  0  0  0  0  0  0  0  0  0  0
    0.8125    9.7287   -1.6000 H   0  0  0  0  0  0  0  0  0  0  0  0
   -3.2784    8.8738   -0.0092 H   0  0  0  0  0  0  0  0  0  0  0  0
   -2.9904    9.8523   -1.4878 H   0  0  0  0  0  0  0  0  0  0  0  0
   -2.6204    8.0945   -1.4878 H   0  0  0  0  0  0  0  0  0  0  0  0
   -1.1732    9.7102    1.6771 H   0  0  0  0  0  0  0  0  0  0  0  0
   -0.1187   10.7630    0.6738 H   0  0  0  0  0  0  0  0  0  0  0  0
   -1.8976   11.0123    0.6738 H   0  0  0  0  0  0  0  0  0  0  0  0
    0.7807   12.5910   -4.0607 H   0  0  0  0  0  0  0  0  0  0  0  0
   -1.5506   12.2861   -3.5084 H   0  0  0  0  0  0  0  0  0  0  0  0
   -1.1855   10.9963   -2.3423 H   0  0  0  0  0  0  0  0  0  0  0  0
   -1.8808   13.6876   -1.6786 H   0  0  0  0  0  0  0  0  0  0  0  0
   -1.1625   12.5454   -0.5459 H   0  0  0  0  0  0  0  0  0  0  0  0
   -0.1336   15.8744   -2.2589 H   0  0  0  0  0  0  0  0  0  0  0  0
    0.9808   14.9618   -3.3322 H   0  0  0  0  0  0  0  0  0  0  0  0
   -0.7755   14.5849   -3.3322 H   0  0  0  0  0  0  0  0  0  0  0  0
    0.7228   13.6767    0.4674 H   0  0  0  0  0  0  0  0  0  0  0  0
   -1.2298   15.2949    0.0139 H   0  0  0  0  0  0  0  0  0  0  0  0
   -0.0552   15.5839    1.4022 H   0  0  0  0  0  0  0  0  0  0  0  0
   -0.7619   17.7071    0.0129 H   0  0  0  0  0  0  0  0  0  0  0  0
    2.4162   16.2411   -2.0006 H   0  0  0  0  0  0  0  0  0  0  0  0
    3.6202   17.4192    0.5792 H   0  0  0  0  0  0  0  0  0  0  0  0
    4.5200   16.5885   -0.7668 H   0  0  0  0  0  0  0  0  0  0  0  0
    4.7518   19.0493   -0.8648 H   0  0  0  0  0  0  0  0  0  0  0  0
    3.9116   18.3609   -2.3089 H   0  0  0  0  0  0  0  0  0  0  0  0
    2.7634   20.3551   -1.6274 H   0  0  0  0  0  0  0  0  0  0  0  0
    1.8370   20.3920    0.5500 H   0  0  0  0  0  0  0  0  0  0  0  0
    0.5079   17.8685   -3.1591 H   0  0  0  0  0  0  0  0  0  0  0  0
    0.7833   19.6361   -3.3219 H   0  0  0  0  0  0  0  0  0  0  0  0
    2.1794   18.5059   -3.3219 H   0  0  0  0  0  0  0  0  0  0  0  0
    0.1032   19.8399    0.1671 H   0  0  0  0  0  0  0  0  0  0  0  0
    0.3611   20.8026   -1.3274 H   0  0  0  0  0  0  0  0  0  0  0  0
   -0.8097   19.4403   -1.3274 H   0  0  0  0  0  0  0  0  0  0  0  0
    1.8440   14.9885    1.8894 H   0  0  0  0  0  0  0  0  0  0  0  0
    3.4356   14.3005    1.4202 H   0  0  0  0  0  0  0  0  0  0  0  0
    3.1912   16.0801    1.4202 H   0  0  0  0  0  0  0  0  0  0  0  0
    4.1126   14.6255   -1.3020 H   0  0  0  0  0  0  0  0  0  0  0  0
    3.4301   13.2554   -0.2578 H   0  0  0  0  0  0  0  0  0  0  0  0
    2.5757   14.0485   -3.0559 H   0  0  0  0  0  0  0  0  0  0  0  0
    3.3846   12.5266   -2.5125 H   0  0  0  0  0  0  0  0  0  0  0  0
    1.4269   12.0902    0.1631 H   0  0  0  0  0  0  0  0  0  0  0  0
    0.7462   10.8349   -0.9266 H   0  0  0  0  0  0  0  0  0  0  0  0
    2.5124   11.1623   -0.9266 H   0  0  0  0  0  0  0  0  0  0  0  0
  1  2  1  0
  2  3  1  0
  3  4  1  0
  4  5  1  0
  5  6  1  0
  6  7  1  0
  7  8  1  0
  7  9  1  0
  2 10  1  0
 10 11  1  0
 11 12  1  0
 12 13  1  0
 13 14  1  6
 13 15  1  0
 15 16  1  0
 16 17  1  0
 17 18  2  0
 18 19  1  0
 19 20  1  0
 20 21  1  0
 21 22  1  0
 22 23  1  0
 22 24  1  0
 24 25  1  0
 24 26  1  0
 19 27  1  0
 27 28  1  1
 27 29  1  0
 29 30  1  0
 30 31  1  0
 31 32  1  1
  7  5  1  0
 31 10  1  0
 31 13  1  0
 27 15  1  0
 24 18  1  0
  1 33  1  0
  1 34  1  0
  1 35  1  0
  2 36  1  1
  3 37  1  0
  3 38  1  0
  4 39  1  0
  4 40  1  0
  5 41  1  1
  8 42  1  0
  8 43  1  0
  8 44  1  0
  9 45  1  0
  9 46  1  0
  9 47  1  0
 10 48  1  6
 11 49  1  0
 11 50  1  0
 12 51  1  0
 12 52  1  0
 14 53  1  0
 14 54  1  0
 14 55  1  0
 15 56  1  1
 16 57  1  0
 16 58  1  0
 17 59  1  0
 19 60  1  6
 20 61  1  0
 20 62  1  0
 21 63  1  0
 21 64  1  0
 22 65  1  6
 23 66  1  0
 25 67  1  0
 25 68  1  0
 25 69  1  0
 26 70  1  0
 26 71  1  0
 26 72  1  0
 28 73  1  0
 28 74  1  0
 28 75  1  0
 29 76  1  0
 29 77  1  0
 30 78  1  0
 30 79  1  0
 32 80  1  0
 32 81  1  0
 32 82  1  0
M  END
>  <meeko>  (17) 
{"is_sidechain": [false], "intermolecular_energy": 2.731, "internal_energy": -0.839}

$$$$
EPH_relaxed_0001_pdb2pqr_Repair_220_r2_0001_out
     RDKit          3D

 82 86  0  0  0  0  0  0  0  0999 V2000
   -5.1210    5.9080   -1.8560 C   0  0  0  0  0  0  0  0  0  0  0  0
   -5.4550    7.4030   -1.8430 C   0  0  2  0  0  0  0  0  0  0  0  0
   -5.2440    8.0330   -0.4520 C   0  0  0  0  0  0  0  0  0  0  0  0
   -4.1790    9.1330   -0.4300 C   0  0  0  0  0  0  0  0  0  0  0  0
   -2.8260    8.6030   -0.7980 C   0  0  2  0  0  0  0  0  0  0  0  0
   -1.7870    8.9130    0.1410 O   0  0  0  0  0  0  0  0  0  0  0  0
   -1.6530    9.4910   -1.1680 C   0  0  0  0  0  0  0  0  0  0  0  0
   -1.7780   10.9820   -1.1900 C   0  0  0  0  0  0  0  0  0  0  0  0
   -0.5380    8.9030   -1.9750 C   0  0  0  0  0  0  0  0  0  0  0  0
   -6.8930    7.6170   -2.2990 C   0  0  1  0  0  0  0  0  0  0  0  0
   -7.2020    6.9200   -3.6510 C   0  0  0  0  0  0  0  0  0  0  0  0
   -8.6730    6.4340   -3.5780 C   0  0  0  0  0  0  0  0  0  0  0  0
   -9.2590    7.1510   -2.3390 C   0  0  1  0  0  0  0  0  0  0  0  0
   -9.6240    8.5830   -2.8390 C   0  0  0  0  0  0  0  0  0  0  0  0
  -10.4760    6.4530   -1.6480 C   0  0  2  0  0  0  0  0  0  0  0  0
  -11.7330    6.3170   -2.5250 C   0  0  0  0  0  0  0  0  0  0  0  0
  -12.6960    7.4550   -2.4380 C   0  0  0  0  0  0  0  0  0  0  0  0
  -12.7030    8.4040   -1.4830 C   0  0  0  0  0  0  0  0  0  0  0  0
  -11.7310    8.3340   -0.2980 C   0  0  1  0  0  0  0  0  0  0  0  0
  -12.5030    8.6070    1.0200 C   0  0  0  0  0  0  0  0  0  0  0  0
  -13.2830    9.9170    0.9810 C   0  0  0  0  0  0  0  0  0  0  0  0
  -14.2790    9.9250   -0.1760 C   0  0  2  0  0  0  0  0  0  0  0  0
  -15.2880    8.9420    0.0780 O   0  0  0  0  0  0  0  0  0  0  0  0
  -13.6180    9.6510   -1.5560 C   0  0  0  0  0  0  0  0  0  0  0  0
  -12.7510   10.8660   -1.9680 C   0  0  0  0  0  0  0  0  0  0  0  0
  -14.7480    9.5450   -2.6140 C   0  0  0  0  0  0  0  0  0  0  0  0
  -10.8280    7.0300   -0.2170 C   0  0  1  0  0  0  0  0  0  0  0  0
  -11.5890    5.9010    0.5430 C   0  0  0  0  0  0  0  0  0  0  0  0
   -9.5410    7.3470    0.6330 C   0  0  0  0  0  0  0  0  0  0  0  0
   -8.3310    7.9240   -0.1270 C   0  0  0  0  0  0  0  0  0  0  0  0
   -8.0190    7.0900   -1.3740 C   0  0  2  0  0  0  0  0  0  0  0  0
   -7.6260    5.6490   -0.9010 C   0  0  0  0  0  0  0  0  0  0  0  0
   -5.0391    5.5416   -0.8221 H   0  0  0  0  0  0  0  0  0  0  0  0
   -5.9186    5.3586   -2.3776 H   0  0  0  0  0  0  0  0  0  0  0  0
   -4.1655    5.7503   -2.3776 H   0  0  0  0  0  0  0  0  0  0  0  0
   -4.7654    7.9027   -2.5393 H   0  0  0  0  0  0  0  0  0  0  0  0
   -6.1983    8.4668   -0.1188 H   0  0  0  0  0  0  0  0  0  0  0  0
   -4.8922    7.2314    0.2141 H   0  0  0  0  0  0  0  0  0  0  0  0
   -4.4618    9.9172   -1.1476 H   0  0  0  0  0  0  0  0  0  0  0  0
   -4.1230    9.5353    0.5923 H   0  0  0  0  0  0  0  0  0  0  0  0
   -3.2756    7.7301   -1.2939 H   0  0  0  0  0  0  0  0  0  0  0  0
   -1.8099   11.3625   -0.1584 H   0  0  0  0  0  0  0  0  0  0  0  0
   -0.9130   11.4148   -1.7139 H   0  0  0  0  0  0  0  0  0  0  0  0
   -2.7030   11.2647   -1.7139 H   0  0  0  0  0  0  0  0  0  0  0  0
    0.2298    8.4981   -1.2993 H   0  0  0  0  0  0  0  0  0  0  0  0
   -0.9311    8.0949   -2.6094 H   0  0  0  0  0  0  0  0  0  0  0  0
   -0.0932    9.6838   -2.6094 H   0  0  0  0  0  0  0  0  0  0  0  0
   -6.9143    8.7164   -2.3288 H   0  0  0  0  0  0  0  0  0  0  0  0
   -7.0789    7.6315   -4.4808 H   0  0  0  0  0  0  0  0  0  0  0  0
   -6.5162    6.0782   -3.8271 H   0  0  0  0  0  0  0  0  0  0  0  0
   -9.2219    6.7192   -4.4876 H   0  0  0  0  0  0  0  0  0  0  0  0
   -8.7476    5.3392   -3.5009 H   0  0  0  0  0  0  0  0  0  0  0  0
   -9.7919    9.2416   -1.9741 H   0  0  0  0  0  0  0  0  0  0  0  0
   -8.7984    8.9804   -3.4477 H   0  0  0  0  0  0  0  0  0  0  0  0
  -10.5391    8.5367   -3.4477 H   0  0  0  0  0  0  0  0  0  0  0  0
  -10.1057    5.4285   -1.4955 H   0  0  0  0  0  0  0  0  0  0  0  0
  -11.4089    6.2250   -3.5721 H   0  0  0  0  0  0  0  0  0  0  0  0
  -12.2710    5.4331   -2.1518 H   0  0  0  0  0  0  0  0  0  0  0  0
  -13.4654    7.5238   -3.2211 H   0  0  0  0  0  0  0  0  0  0  0  0
  -10.9873    9.1266   -0.4673 H   0  0  0  0  0  0  0  0  0  0  0  0
  -13.2091    7.7813    1.1924 H   0  0  0  0  0  0  0  0  0  0  0  0
  -11.7631    8.6833    1.8304 H   0  0  0  0  0  0  0  0  0  0  0  0
  -13.8299   10.0386    1.9276 H   0  0  0  0  0  0  0  0  0  0  0  0
  -12.5724   10.7445    0.8382 H   0  0  0  0  0  0  0  0  0  0  0  0
  -14.7124   10.9345   -0.2313 H   0  0  0  0  0  0  0  0  0  0  0  0
  -15.3840    8.8610    1.0420 H   0  0  0  0  0  0  0  0  0  0  0  0
  -12.3854   11.3783   -1.0659 H   0  0  0  0  0  0  0  0  0  0  0  0
  -11.8947   10.5197   -2.5654 H   0  0  0  0  0  0  0  0  0  0  0  0
  -13.3569   11.5631   -2.5654 H   0  0  0  0  0  0  0  0  0  0  0  0
  -15.7191    9.4539   -2.1054 H   0  0  0  0  0  0  0  0  0  0  0  0
  -14.7469   10.4472   -3.2433 H   0  0  0  0  0  0  0  0  0  0  0  0
  -14.5791    8.6588   -3.2433 H   0  0  0  0  0  0  0  0  0  0  0  0
  -11.4854    6.0547    1.6273 H   0  0  0  0  0  0  0  0  0  0  0  0
  -12.6540    5.9279    0.2689 H   0  0  0  0  0  0  0  0  0  0  0  0
  -11.1645    4.9239    0.2689 H   0  0  0  0  0  0  0  0  0  0  0  0
   -9.8248    8.0742    1.4080 H   0  0  0  0  0  0  0  0  0  0  0  0
   -9.2023    6.3732    1.0165 H   0  0  0  0  0  0  0  0  0  0  0  0
   -8.5564    8.9567   -0.4317 H   0  0  0  0  0  0  0  0  0  0  0  0
   -7.4553    7.9017    0.5384 H   0  0  0  0  0  0  0  0  0  0  0  0
   -7.6164    5.6138    0.1984 H   0  0  0  0  0  0  0  0  0  0  0  0
   -8.3593    4.9244   -1.2847 H   0  0  0  0  0  0  0  0  0  0  0  0
   -6.6263    5.3970   -1.2847 H   0  0  0  0  0  0  0  0  0  0  0  0
  1  2  1  0
  2  3  1  0
  3  4  1  0
  4  5  1  0
  5  6  1  0
  6  7  1  0
  7  8  1  0
  7  9  1  0
  2 10  1  0
 10 11  1  0
 11 12  1  0
 12 13  1  0
 13 14  1  6
 13 15  1  0
 15 16  1  0
 16 17  1  0
 17 18  2  0
 18 19  1  0
 19 20  1  0
 20 21  1  0
 21 22  1  0
 22 23  1  0
 22 24  1  0
 24 25  1  0
 24 26  1  0
 19 27  1  0
 27 28  1  1
 27 29  1  0
 29 30  1  0
 30 31  1  0
 31 32  1  1
  7  5  1  0
 31 10  1  0
 31 13  1  0
 27 15  1  0
 24 18  1  0
  1 33  1  0
  1 34  1  0
  1 35  1  0
  2 36  1  6
  3 37  1  0
  3 38  1  0
  4 39  1  0
  4 40  1  0
  5 41  1  6
  8 42  1  0
  8 43  1  0
  8 44  1  0
  9 45  1  0
  9 46  1  0
  9 47  1  0
 10 48  1  6
 11 49  1  0
 11 50  1  0
 12 51  1  0
 12 52  1  0
 14 53  1  0
 14 54  1  0
 14 55  1  0
 15 56  1  1
 16 57  1  0
 16 58  1  0
 17 59  1  0
 19 60  1  6
 20 61  1  0
 20 62  1  0
 21 63  1  0
 21 64  1  0
 22 65  1  6
 23 66  1  0
 25 67  1  0
 25 68  1  0
 25 69  1  0
 26 70  1  0
 26 71  1  0
 26 72  1  0
 28 73  1  0
 28 74  1  0
 28 75  1  0
 29 76  1  0
 29 77  1  0
 30 78  1  0
 30 79  1  0
 32 80  1  0
 32 81  1  0
 32 82  1  0
M  END
>  <meeko>  (18) 
{"is_sidechain": [false], "intermolecular_energy": 2.731, "internal_energy": -0.839}

$$$$
