EPH_relaxed_0001_pdb2pqr_Repair_293_r2_0001_out
     RDKit          3D

 82 86  0  0  0  0  0  0  0  0999 V2000
   -1.7470    8.5840   -1.9270 C   0  0  0  0  0  0  0  0  0  0  0  0
   -2.1050    9.0690   -0.5200 C   0  0  2  0  0  0  0  0  0  0  0  0
   -3.5980    9.4330   -0.3940 C   0  0  0  0  0  0  0  0  0  0  0  0
   -4.5210    8.2180   -0.2730 C   0  0  0  0  0  0  0  0  0  0  0  0
   -5.2270    7.9270   -1.5620 C   0  0  2  0  0  0  0  0  0  0  0  0
   -6.4110    8.7030   -1.7850 O   0  0  0  0  0  0  0  0  0  0  0  0
   -6.6010    7.2870   -1.6380 C   0  0  0  0  0  0  0  0  0  0  0  0
   -7.3490    6.8980   -0.4020 C   0  0  0  0  0  0  0  0  0  0  0  0
   -7.0000    6.5970   -2.9060 C   0  0  0  0  0  0  0  0  0  0  0  0
   -1.2430   10.2690   -0.1480 C   0  0  1  0  0  0  0  0  0  0  0  0
   -0.2150    9.9430    0.9690 C   0  0  0  0  0  0  0  0  0  0  0  0
    1.0580   10.7710    0.6600 C   0  0  0  0  0  0  0  0  0  0  0  0
    0.6120   11.7860   -0.4180 C   0  0  1  0  0  0  0  0  0  0  0  0
   -0.0930   12.9310    0.3760 C   0  0  0  0  0  0  0  0  0  0  0  0
    1.7360   12.3400   -1.3530 C   0  0  2  0  0  0  0  0  0  0  0  0
    2.8400   13.1420   -0.6430 C   0  0  0  0  0  0  0  0  0  0  0  0
    2.5940   14.6100   -0.5370 C   0  0  0  0  0  0  0  0  0  0  0  0
    1.6750   15.3020   -1.2360 C   0  0  0  0  0  0  0  0  0  0  0  0
    0.8300   14.6180   -2.3190 C   0  0  1  0  0  0  0  0  0  0  0  0
    0.8090   15.5010   -3.5940 C   0  0  0  0  0  0  0  0  0  0  0  0
    0.3500   16.9280   -3.3110 C   0  0  0  0  0  0  0  0  0  0  0  0
    1.2490   17.5940   -2.2730 C   0  0  2  0  0  0  0  0  0  0  0  0
    2.5530   17.7680   -2.8360 O   0  0  0  0  0  0  0  0  0  0  0  0
    1.3560   16.7890   -0.9470 C   0  0  0  0  0  0  0  0  0  0  0  0
    0.0080   16.8580   -0.1870 C   0  0  0  0  0  0  0  0  0  0  0  0
    2.4010   17.4960   -0.0420 C   0  0  0  0  0  0  0  0  0  0  0  0
    1.1980   13.1030   -2.6310 C   0  0  1  0  0  0  0  0  0  0  0  0
    2.3330   13.0400   -3.6980 C   0  0  0  0  0  0  0  0  0  0  0  0
   -0.0530   12.3920   -3.2710 C   0  0  0  0  0  0  0  0  0  0  0  0
   -1.0660   11.7610   -2.2970 C   0  0  0  0  0  0  0  0  0  0  0  0
   -0.3580   10.8820   -1.2620 C   0  0  2  0  0  0  0  0  0  0  0  0
    0.3420    9.7080   -2.0300 C   0  0  0  0  0  0  0  0  0  0  0  0
   -1.0951    7.7009   -1.8556 H   0  0  0  0  0  0  0  0  0  0  0  0
   -2.6669    8.3179   -2.4683 H   0  0  0  0  0  0  0  0  0  0  0  0
   -1.2217    9.3847   -2.4683 H   0  0  0  0  0  0  0  0  0  0  0  0
   -1.9072    8.2402    0.1757 H   0  0  0  0  0  0  0  0  0  0  0  0
   -3.7283   10.0583    0.5015 H   0  0  0  0  0  0  0  0  0  0  0  0
   -3.8792    9.9587   -1.3185 H   0  0  0  0  0  0  0  0  0  0  0  0
   -3.9204    7.3410    0.0102 H   0  0  0  0  0  0  0  0  0  0  0  0
   -5.2806    8.4395    0.4912 H   0  0  0  0  0  0  0  0  0  0  0  0
   -4.2739    7.6895   -2.0571 H   0  0  0  0  0  0  0  0  0  0  0  0
   -6.7722    7.1980    0.4853 H   0  0  0  0  0  0  0  0  0  0  0  0
   -8.3268    7.4019   -0.3913 H   0  0  0  0  0  0  0  0  0  0  0  0
   -7.4980    5.8082   -0.3913 H   0  0  0  0  0  0  0  0  0  0  0  0
   -7.5372    5.6680   -2.6645 H   0  0  0  0  0  0  0  0  0  0  0  0
   -7.6554    7.2577   -3.4924 H   0  0  0  0  0  0  0  0  0  0  0  0
   -6.1004    6.3585   -3.4924 H   0  0  0  0  0  0  0  0  0  0  0  0
   -2.0315   10.9799    0.1400 H   0  0  0  0  0  0  0  0  0  0  0  0
   -0.6211   10.2250    1.9516 H   0  0  0  0  0  0  0  0  0  0  0  0
    0.0107    8.8667    0.9964 H   0  0  0  0  0  0  0  0  0  0  0  0
    1.4103   11.2925    1.5621 H   0  0  0  0  0  0  0  0  0  0  0  0
    1.8926   10.1407    0.3192 H   0  0  0  0  0  0  0  0  0  0  0  0
    0.0179   12.7508    1.4555 H   0  0  0  0  0  0  0  0  0  0  0  0
    0.3680   13.8953    0.1159 H   0  0  0  0  0  0  0  0  0  0  0  0
   -1.1616   12.9535    0.1159 H   0  0  0  0  0  0  0  0  0  0  0  0
    2.2199   11.4192   -1.7106 H   0  0  0  0  0  0  0  0  0  0  0  0
    2.9495   12.7414    0.3756 H   0  0  0  0  0  0  0  0  0  0  0  0
    3.7432   13.0288   -1.2606 H   0  0  0  0  0  0  0  0  0  0  0  0
    3.2166   15.1746    0.1727 H   0  0  0  0  0  0  0  0  0  0  0  0
   -0.1861   14.5358   -1.9058 H   0  0  0  0  0  0  0  0  0  0  0  0
    1.8242   15.5345   -4.0162 H   0  0  0  0  0  0  0  0  0  0  0  0
    0.0918   15.0534   -4.2978 H   0  0  0  0  0  0  0  0  0  0  0  0
    0.3855   17.5094   -4.2441 H   0  0  0  0  0  0  0  0  0  0  0  0
   -0.6766   16.8952   -2.9173 H   0  0  0  0  0  0  0  0  0  0  0  0
    0.7943   18.5621   -2.0162 H   0  0  0  0  0  0  0  0  0  0  0  0
    3.1350   17.0940   -2.4450 H   0  0  0  0  0  0  0  0  0  0  0  0
    0.1971   16.8483    0.8966 H   0  0  0  0  0  0  0  0  0  0  0  0
   -0.5193   17.7843   -0.4589 H   0  0  0  0  0  0  0  0  0  0  0  0
   -0.6111   15.9904   -0.4589 H   0  0  0  0  0  0  0  0  0  0  0  0
    2.1471   17.3242    1.0144 H   0  0  0  0  0  0  0  0  0  0  0  0
    3.4014   17.0884   -0.2496 H   0  0  0  0  0  0  0  0  0  0  0  0
    2.3948   18.5762   -0.2496 H   0  0  0  0  0  0  0  0  0  0  0  0
    3.3086   12.9858   -3.1928 H   0  0  0  0  0  0  0  0  0  0  0  0
    2.1958   12.1481   -4.3270 H   0  0  0  0  0  0  0  0  0  0  0  0
    2.2954   13.9416   -4.3270 H   0  0  0  0  0  0  0  0  0  0  0  0
   -0.5904   13.1407   -3.8715 H   0  0  0  0  0  0  0  0  0  0  0  0
    0.3575   11.5489   -3.8460 H   0  0  0  0  0  0  0  0  0  0  0  0
   -1.6111   12.5620   -1.7761 H   0  0  0  0  0  0  0  0  0  0  0  0
   -1.7615   11.1330   -2.8730 H   0  0  0  0  0  0  0  0  0  0  0  0
    0.7659    8.9971   -1.3055 H   0  0  0  0  0  0  0  0  0  0  0  0
   -0.3958    9.1916   -2.6617 H   0  0  0  0  0  0  0  0  0  0  0  0
    1.1470   10.1116   -2.6617 H   0  0  0  0  0  0  0  0  0  0  0  0
  1  2  1  0
  2  3  1  0
  3  4  1  0
  4  5  1  0
  5  6  1  0
  6  7  1  0
  7  8  1  0
  7  9  1  0
  2 10  1  0
 10 11  1  0
 11 12  1  0
 12 13  1  0
 13 14  1  1
 13 15  1  0
 15 16  1  0
 16 17  1  0
 17 18  2  0
 18 19  1  0
 19 20  1  0
 20 21  1  0
 21 22  1  0
 22 23  1  0
 22 24  1  0
 24 25  1  0
 24 26  1  0
 19 27  1  0
 27 28  1  6
 27 29  1  0
 29 30  1  0
 30 31  1  0
 31 32  1  6
  7  5  1  0
 31 10  1  0
 31 13  1  0
 27 15  1  0
 24 18  1  0
  1 33  1  0
  1 34  1  0
  1 35  1  0
  2 36  1  1
  3 37  1  0
  3 38  1  0
  4 39  1  0
  4 40  1  0
  5 41  1  6
  8 42  1  0
  8 43  1  0
  8 44  1  0
  9 45  1  0
  9 46  1  0
  9 47  1  0
 10 48  1  1
 11 49  1  0
 11 50  1  0
 12 51  1  0
 12 52  1  0
 14 53  1  0
 14 54  1  0
 14 55  1  0
 15 56  1  6
 16 57  1  0
 16 58  1  0
 17 59  1  0
 19 60  1  1
 20 61  1  0
 20 62  1  0
 21 63  1  0
 21 64  1  0
 22 65  1  1
 23 66  1  0
 25 67  1  0
 25 68  1  0
 25 69  1  0
 26 70  1  0
 26 71  1  0
 26 72  1  0
 28 73  1  0
 28 74  1  0
 28 75  1  0
 29 76  1  0
 29 77  1  0
 30 78  1  0
 30 79  1  0
 32 80  1  0
 32 81  1  0
 32 82  1  0
M  END
>  <meeko>  (1) 
{"is_sidechain": [false], "intermolecular_energy": 2.731, "internal_energy": -0.839}

$$$$
EPH_relaxed_0001_pdb2pqr_Repair_293_r2_0001_out
     RDKit          3D

 82 86  0  0  0  0  0  0  0  0999 V2000
    0.4270   18.3900   -0.0060 C   0  0  0  0  0  0  0  0  0  0  0  0
    1.5070   17.3280   -0.2330 C   0  0  2  0  0  0  0  0  0  0  0  0
    2.7200   17.8890   -1.0030 C   0  0  0  0  0  0  0  0  0  0  0  0
    3.9530   18.1210   -0.1250 C   0  0  0  0  0  0  0  0  0  0  0  0
    3.5770   18.6040    1.2430 C   0  0  2  0  0  0  0  0  0  0  0  0
    3.8070   20.0010    1.4680 O   0  0  0  0  0  0  0  0  0  0  0  0
    4.5870   19.0940    2.2640 C   0  0  0  0  0  0  0  0  0  0  0  0
    6.0520   19.1220    1.9610 C   0  0  0  0  0  0  0  0  0  0  0  0
    4.2040   19.0800    3.7110 C   0  0  0  0  0  0  0  0  0  0  0  0
    0.9190   16.1390   -0.9830 C   0  0  1  0  0  0  0  0  0  0  0  0
    0.7730   16.4060   -2.5050 C   0  0  0  0  0  0  0  0  0  0  0  0
    1.0470   15.0590   -3.2230 C   0  0  0  0  0  0  0  0  0  0  0  0
    1.0120   14.0020   -2.0940 C   0  0  1  0  0  0  0  0  0  0  0  0
   -0.5040   13.7130   -1.8620 C   0  0  0  0  0  0  0  0  0  0  0  0
    1.8170   12.6860   -2.3550 C   0  0  2  0  0  0  0  0  0  0  0  0
    1.3280   11.8490   -3.5500 C   0  0  0  0  0  0  0  0  0  0  0  0
    0.2950   10.8210   -3.2280 C   0  0  0  0  0  0  0  0  0  0  0  0
   -0.0150   10.3830   -1.9940 C   0  0  0  0  0  0  0  0  0  0  0  0
    0.7730   10.8610   -0.7680 C   0  0  1  0  0  0  0  0  0  0  0  0
    1.1330    9.6440    0.1240 C   0  0  0  0  0  0  0  0  0  0  0  0
   -0.0900    8.8140    0.5030 C   0  0  0  0  0  0  0  0  0  0  0  0
   -0.8130    8.3080   -0.7420 C   0  0  2  0  0  0  0  0  0  0  0  0
    0.0310    7.3710   -1.4170 O   0  0  0  0  0  0  0  0  0  0  0  0
   -1.2170    9.4460   -1.7210 C   0  0  0  0  0  0  0  0  0  0  0  0
   -2.3580   10.2880   -1.0980 C   0  0  0  0  0  0  0  0  0  0  0  0
   -1.8100    8.7900   -2.9970 C   0  0  0  0  0  0  0  0  0  0  0  0
    2.0270   11.7900   -1.0690 C   0  0  1  0  0  0  0  0  0  0  0  0
    3.2870   10.9110   -1.3400 C   0  0  0  0  0  0  0  0  0  0  0  0
    2.3510   12.6470    0.2120 C   0  0  0  0  0  0  0  0  0  0  0  0
    1.6130   13.9920    0.3520 C   0  0  0  0  0  0  0  0  0  0  0  0
    1.7100   14.8080   -0.9400 C   0  0  2  0  0  0  0  0  0  0  0  0
    3.2230   15.1330   -1.1880 C   0  0  0  0  0  0  0  0  0  0  0  0
    0.2780   18.5365    1.0740 H   0  0  0  0  0  0  0  0  0  0  0  0
    0.7434   19.3385   -0.4645 H   0  0  0  0  0  0  0  0  0  0  0  0
   -0.5161   18.0577   -0.4645 H   0  0  0  0  0  0  0  0  0  0  0  0
    1.8641   17.0035    0.7555 H   0  0  0  0  0  0  0  0  0  0  0  0
    2.9879   17.1756   -1.7963 H   0  0  0  0  0  0  0  0  0  0  0  0
    2.4214   18.8692   -1.4031 H   0  0  0  0  0  0  0  0  0  0  0  0
    4.5056   17.1747   -0.0294 H   0  0  0  0  0  0  0  0  0  0  0  0
    4.5734   18.8936   -0.6027 H   0  0  0  0  0  0  0  0  0  0  0  0
    2.7629   17.8669    1.3057 H   0  0  0  0  0  0  0  0  0  0  0  0
    6.6210   19.1329    2.9024 H   0  0  0  0  0  0  0  0  0  0  0  0
    6.3232   18.2289    1.3789 H   0  0  0  0  0  0  0  0  0  0  0  0
    6.2889   20.0248    1.3789 H   0  0  0  0  0  0  0  0  0  0  0  0
    5.1120   19.1132    4.3310 H   0  0  0  0  0  0  0  0  0  0  0  0
    3.5764   19.9558    3.9327 H   0  0  0  0  0  0  0  0  0  0  0  0
    3.6421   18.1607    3.9327 H   0  0  0  0  0  0  0  0  0  0  0  0
   -0.0302   16.0290   -0.4381 H   0  0  0  0  0  0  0  0  0  0  0  0
   -0.2446   16.7565   -2.7323 H   0  0  0  0  0  0  0  0  0  0  0  0
    1.4767   17.1825   -2.8394 H   0  0  0  0  0  0  0  0  0  0  0  0
    0.2686   14.8529   -3.9724 H   0  0  0  0  0  0  0  0  0  0  0  0
    2.0051   15.0612   -3.7634 H   0  0  0  0  0  0  0  0  0  0  0  0
   -0.7087   13.6740   -0.7819 H   0  0  0  0  0  0  0  0  0  0  0  0
   -1.1041   14.5129   -2.3203 H   0  0  0  0  0  0  0  0  0  0  0  0
   -0.7677   12.7484   -2.3203 H   0  0  0  0  0  0  0  0  0  0  0  0
    2.8076   13.0676   -2.6431 H   0  0  0  0  0  0  0  0  0  0  0  0
    0.9022   12.5369   -4.2953 H   0  0  0  0  0  0  0  0  0  0  0  0
    2.2061   11.2948   -3.9131 H   0  0  0  0  0  0  0  0  0  0  0  0
   -0.2602   10.3842   -4.0712 H   0  0  0  0  0  0  0  0  0  0  0  0
    0.1014   11.5384   -0.2203 H   0  0  0  0  0  0  0  0  0  0  0  0
    1.8389    9.0021   -0.4235 H   0  0  0  0  0  0  0  0  0  0  0  0
    1.5751   10.0309    1.0540 H   0  0  0  0  0  0  0  0  0  0  0  0
    0.2324    7.9530    1.1070 H   0  0  0  0  0  0  0  0  0  0  0  0
   -0.7812    9.4490    1.0766 H   0  0  0  0  0  0  0  0  0  0  0  0
   -1.7478    7.8330   -0.4097 H   0  0  0  0  0  0  0  0  0  0  0  0
   -0.2660    7.3190   -2.3410 H   0  0  0  0  0  0  0  0  0  0  0  0
   -2.2925   10.2396   -0.0010 H   0  0  0  0  0  0  0  0  0  0  0  0
   -2.2626   11.3339   -1.4253 H   0  0  0  0  0  0  0  0  0  0  0  0
   -3.3292    9.8885   -1.4253 H   0  0  0  0  0  0  0  0  0  0  0  0
   -2.5217    8.0027   -2.7076 H   0  0  0  0  0  0  0  0  0  0  0  0
   -2.3305    9.5535   -3.5937 H   0  0  0  0  0  0  0  0  0  0  0  0
   -0.9980    8.3489   -3.5937 H   0  0  0  0  0  0  0  0  0  0  0  0
    3.7309   10.6013   -0.3824 H   0  0  0  0  0  0  0  0  0  0  0  0
    2.9954   10.0193   -1.9144 H   0  0  0  0  0  0  0  0  0  0  0  0
    4.0231   11.4926   -1.9144 H   0  0  0  0  0  0  0  0  0  0  0  0
    2.1012   12.0370    1.0926 H   0  0  0  0  0  0  0  0  0  0  0  0
    3.4151   12.9103    0.1209 H   0  0  0  0  0  0  0  0  0  0  0  0
    0.5537   13.7994    0.5772 H   0  0  0  0  0  0  0  0  0  0  0  0
    2.0815   14.5659    1.1651 H   0  0  0  0  0  0  0  0  0  0  0  0
    3.7374   15.2435   -0.2220 H   0  0  0  0  0  0  0  0  0  0  0  0
    3.6854   14.3137   -1.7580 H   0  0  0  0  0  0  0  0  0  0  0  0
    3.3081   16.0699   -1.7580 H   0  0  0  0  0  0  0  0  0  0  0  0
  1  2  1  0
  2  3  1  0
  3  4  1  0
  4  5  1  0
  5  6  1  0
  6  7  1  0
  7  8  1  0
  7  9  1  0
  2 10  1  0
 10 11  1  0
 11 12  1  0
 12 13  1  0
 13 14  1  1
 13 15  1  0
 15 16  1  0
 16 17  1  0
 17 18  2  0
 18 19  1  0
 19 20  1  0
 20 21  1  0
 21 22  1  0
 22 23  1  0
 22 24  1  0
 24 25  1  0
 24 26  1  0
 19 27  1  0
 27 28  1  6
 27 29  1  0
 29 30  1  0
 30 31  1  0
 31 32  1  6
  7  5  1  0
 31 10  1  0
 31 13  1  0
 27 15  1  0
 24 18  1  0
  1 33  1  0
  1 34  1  0
  1 35  1  0
  2 36  1  1
  3 37  1  0
  3 38  1  0
  4 39  1  0
  4 40  1  0
  5 41  1  1
  8 42  1  0
  8 43  1  0
  8 44  1  0
  9 45  1  0
  9 46  1  0
  9 47  1  0
 10 48  1  1
 11 49  1  0
 11 50  1  0
 12 51  1  0
 12 52  1  0
 14 53  1  0
 14 54  1  0
 14 55  1  0
 15 56  1  6
 16 57  1  0
 16 58  1  0
 17 59  1  0
 19 60  1  1
 20 61  1  0
 20 62  1  0
 21 63  1  0
 21 64  1  0
 22 65  1  1
 23 66  1  0
 25 67  1  0
 25 68  1  0
 25 69  1  0
 26 70  1  0
 26 71  1  0
 26 72  1  0
 28 73  1  0
 28 74  1  0
 28 75  1  0
 29 76  1  0
 29 77  1  0
 30 78  1  0
 30 79  1  0
 32 80  1  0
 32 81  1  0
 32 82  1  0
M  END
>  <meeko>  (2) 
{"is_sidechain": [false], "intermolecular_energy": 2.731, "internal_energy": -0.839}

$$$$
EPH_relaxed_0001_pdb2pqr_Repair_293_r2_0001_out
     RDKit          3D

 82 86  0  0  0  0  0  0  0  0999 V2000
    4.2080   17.5440   -0.6200 C   0  0  0  0  0  0  0  0  0  0  0  0
    2.8540   18.1080   -0.1810 C   0  0  2  0  0  0  0  0  0  0  0  0
    2.9260   18.7790    1.2060 C   0  0  0  0  0  0  0  0  0  0  0  0
    4.3100   18.7010    1.8560 C   0  0  0  0  0  0  0  0  0  0  0  0
    4.3040   19.2680    3.2430 C   0  0  2  0  0  0  0  0  0  0  0  0
    5.3630   20.1940    3.5160 O   0  0  0  0  0  0  0  0  0  0  0  0
    5.3780   18.9730    4.2730 C   0  0  0  0  0  0  0  0  0  0  0  0
    6.5350   18.0770    3.9580 C   0  0  0  0  0  0  0  0  0  0  0  0
    5.0510   19.1570    5.7220 C   0  0  0  0  0  0  0  0  0  0  0  0
    1.8080   17.0000   -0.1700 C   0  0  1  0  0  0  0  0  0  0  0  0
    0.3790   17.5230   -0.4750 C   0  0  0  0  0  0  0  0  0  0  0  0
   -0.3420   16.4110   -1.2800 C   0  0  0  0  0  0  0  0  0  0  0  0
    0.5650   15.1680   -1.1260 C   0  0  1  0  0  0  0  0  0  0  0  0
    0.1960   14.5730    0.2690 C   0  0  0  0  0  0  0  0  0  0  0  0
    0.4630   14.0940   -2.2570 C   0  0  2  0  0  0  0  0  0  0  0  0
   -0.9170   13.4280   -2.4020 C   0  0  0  0  0  0  0  0  0  0  0  0
   -1.1150   12.1880   -1.5940 C   0  0  0  0  0  0  0  0  0  0  0  0
   -0.1370   11.4730   -1.0070 C   0  0  0  0  0  0  0  0  0  0  0  0
    1.3380   11.8400   -1.2110 C   0  0  1  0  0  0  0  0  0  0  0  0
    2.1510   10.5590   -1.5330 C   0  0  0  0  0  0  0  0  0  0  0  0
    1.9610    9.4660   -0.4860 C   0  0  0  0  0  0  0  0  0  0  0  0
    0.4880    9.0870   -0.3540 C   0  0  2  0  0  0  0  0  0  0  0  0
    0.0620    8.4640   -1.5690 O   0  0  0  0  0  0  0  0  0  0  0  0
   -0.4300   10.3010   -0.0380 C   0  0  0  0  0  0  0  0  0  0  0  0
   -0.1700   10.7880    1.4080 C   0  0  0  0  0  0  0  0  0  0  0  0
   -1.9020    9.8060   -0.0720 C   0  0  0  0  0  0  0  0  0  0  0  0
    1.6240   13.0190   -2.2380 C   0  0  1  0  0  0  0  0  0  0  0  0
    1.7280   12.4500   -3.6860 C   0  0  0  0  0  0  0  0  0  0  0  0
    3.0250   13.6580   -1.9100 C   0  0  0  0  0  0  0  0  0  0  0  0
    3.0440   14.7960   -0.8720 C   0  0  0  0  0  0  0  0  0  0  0  0
    1.9800   15.8500   -1.1930 C   0  0  2  0  0  0  0  0  0  0  0  0
    2.3370   16.4820   -2.5820 C   0  0  0  0  0  0  0  0  0  0  0  0
    4.8068   17.2946    0.2684 H   0  0  0  0  0  0  0  0  0  0  0  0
    4.0497   16.6370   -1.2219 H   0  0  0  0  0  0  0  0  0  0  0  0
    4.7404   18.2952   -1.2219 H   0  0  0  0  0  0  0  0  0  0  0  0
    2.5672   18.8825   -0.9076 H   0  0  0  0  0  0  0  0  0  0  0  0
    2.6543   19.8390    1.0936 H   0  0  0  0  0  0  0  0  0  0  0  0
    2.2311   18.2352    1.8628 H   0  0  0  0  0  0  0  0  0  0  0  0
    4.6228   17.6475    1.9030 H   0  0  0  0  0  0  0  0  0  0  0  0
    5.0087   19.2931    1.2467 H   0  0  0  0  0  0  0  0  0  0  0  0
    3.2062   19.2125    3.2855 H   0  0  0  0  0  0  0  0  0  0  0  0
    6.9910   17.7239    4.8947 H   0  0  0  0  0  0  0  0  0  0  0  0
    6.1822   17.2142    3.3739 H   0  0  0  0  0  0  0  0  0  0  0  0
    7.2821   18.6344    3.3739 H   0  0  0  0  0  0  0  0  0  0  0  0
    5.8459   18.7097    6.3369 H   0  0  0  0  0  0  0  0  0  0  0  0
    4.9738   20.2310    5.9470 H   0  0  0  0  0  0  0  0  0  0  0  0
    4.0930   18.6655    5.9470 H   0  0  0  0  0  0  0  0  0  0  0  0
    1.9537   16.6198    0.8519 H   0  0  0  0  0  0  0  0  0  0  0  0
   -0.1600   17.7215    0.4631 H   0  0  0  0  0  0  0  0  0  0  0  0
    0.4158   18.4628   -1.0454 H   0  0  0  0  0  0  0  0  0  0  0  0
   -1.3415   16.2164   -0.8640 H   0  0  0  0  0  0  0  0  0  0  0  0
   -0.4929   16.6895   -2.3334 H   0  0  0  0  0  0  0  0  0  0  0  0
    0.5978   15.2209    1.0619 H   0  0  0  0  0  0  0  0  0  0  0  0
   -0.8982   14.5127    0.3641 H   0  0  0  0  0  0  0  0  0  0  0  0
    0.6283   13.5660    0.3641 H   0  0  0  0  0  0  0  0  0  0  0  0
    0.6015   14.6967   -3.1667 H   0  0  0  0  0  0  0  0  0  0  0  0
   -1.6806   14.1584   -2.0964 H   0  0  0  0  0  0  0  0  0  0  0  0
   -0.9975   13.1209   -3.4552 H   0  0  0  0  0  0  0  0  0  0  0  0
   -2.1469   11.8285   -1.4678 H   0  0  0  0  0  0  0  0  0  0  0  0
    1.6791   12.2682   -0.2569 H   0  0  0  0  0  0  0  0  0  0  0  0
    1.8261   10.1716   -2.5099 H   0  0  0  0  0  0  0  0  0  0  0  0
    3.2163   10.8330   -1.5396 H   0  0  0  0  0  0  0  0  0  0  0  0
    2.5360    8.5772   -0.7850 H   0  0  0  0  0  0  0  0  0  0  0  0
    2.3145    9.8442    0.4845 H   0  0  0  0  0  0  0  0  0  0  0  0
    0.3991    8.3967    0.4978 H   0  0  0  0  0  0  0  0  0  0  0  0
    0.7360    7.8090   -1.8160 H   0  0  0  0  0  0  0  0  0  0  0  0
   -0.5647   10.0487    2.1204 H   0  0  0  0  0  0  0  0  0  0  0  0
    0.9120   10.9077    1.5656 H   0  0  0  0  0  0  0  0  0  0  0  0
   -0.6726   11.7537    1.5656 H   0  0  0  0  0  0  0  0  0  0  0  0
   -2.2710    9.6819    0.9568 H   0  0  0  0  0  0  0  0  0  0  0  0
   -2.5250   10.5441   -0.5984 H   0  0  0  0  0  0  0  0  0  0  0  0
   -1.9524    8.8415   -0.5984 H   0  0  0  0  0  0  0  0  0  0  0  0
    1.9256   11.3688   -3.6418 H   0  0  0  0  0  0  0  0  0  0  0  0
    0.7824   12.6284   -4.2189 H   0  0  0  0  0  0  0  0  0  0  0  0
    2.5494   12.9514   -4.2189 H   0  0  0  0  0  0  0  0  0  0  0  0
    3.6773   12.8553   -1.5356 H   0  0  0  0  0  0  0  0  0  0  0  0
    3.3572   14.1213   -2.8508 H   0  0  0  0  0  0  0  0  0  0  0  0
    2.8453   14.3765    0.1253 H   0  0  0  0  0  0  0  0  0  0  0  0
    4.0328   15.2772   -0.8978 H   0  0  0  0  0  0  0  0  0  0  0  0
    2.8726   17.4302   -2.4266 H   0  0  0  0  0  0  0  0  0  0  0  0
    2.9765   15.7880   -3.1471 H   0  0  0  0  0  0  0  0  0  0  0  0
    1.4125   16.6714   -3.1471 H   0  0  0  0  0  0  0  0  0  0  0  0
  1  2  1  0
  2  3  1  0
  3  4  1  0
  4  5  1  0
  5  6  1  0
  6  7  1  0
  7  8  1  0
  7  9  1  0
  2 10  1  0
 10 11  1  0
 11 12  1  0
 12 13  1  0
 13 14  1  1
 13 15  1  0
 15 16  1  0
 16 17  1  0
 17 18  2  0
 18 19  1  0
 19 20  1  0
 20 21  1  0
 21 22  1  0
 22 23  1  0
 22 24  1  0
 24 25  1  0
 24 26  1  0
 19 27  1  0
 27 28  1  6
 27 29  1  0
 29 30  1  0
 30 31  1  0
 31 32  1  6
  7  5  1  0
 31 10  1  0
 31 13  1  0
 27 15  1  0
 24 18  1  0
  1 33  1  0
  1 34  1  0
  1 35  1  0
  2 36  1  6
  3 37  1  0
  3 38  1  0
  4 39  1  0
  4 40  1  0
  5 41  1  1
  8 42  1  0
  8 43  1  0
  8 44  1  0
  9 45  1  0
  9 46  1  0
  9 47  1  0
 10 48  1  1
 11 49  1  0
 11 50  1  0
 12 51  1  0
 12 52  1  0
 14 53  1  0
 14 54  1  0
 14 55  1  0
 15 56  1  6
 16 57  1  0
 16 58  1  0
 17 59  1  0
 19 60  1  1
 20 61  1  0
 20 62  1  0
 21 63  1  0
 21 64  1  0
 22 65  1  1
 23 66  1  0
 25 67  1  0
 25 68  1  0
 25 69  1  0
 26 70  1  0
 26 71  1  0
 26 72  1  0
 28 73  1  0
 28 74  1  0
 28 75  1  0
 29 76  1  0
 29 77  1  0
 30 78  1  0
 30 79  1  0
 32 80  1  0
 32 81  1  0
 32 82  1  0
M  END
>  <meeko>  (3) 
{"is_sidechain": [false], "intermolecular_energy": 2.731, "internal_energy": -0.839}

$$$$
EPH_relaxed_0001_pdb2pqr_Repair_293_r2_0001_out
     RDKit          3D

 82 86  0  0  0  0  0  0  0  0999 V2000
    2.3550   17.9340   -2.6800 C   0  0  0  0  0  0  0  0  0  0  0  0
    1.0630   17.5390   -1.9590 C   0  0  2  0  0  0  0  0  0  0  0  0
    1.2180   17.5810   -0.4250 C   0  0  0  0  0  0  0  0  0  0  0  0
    0.9410   18.9580    0.1840 C   0  0  0  0  0  0  0  0  0  0  0  0
   -0.4930   19.1030    0.5940 C   0  0  2  0  0  0  0  0  0  0  0  0
   -1.4010   18.2180   -0.0760 O   0  0  0  0  0  0  0  0  0  0  0  0
   -1.5800   19.6210   -0.3300 C   0  0  0  0  0  0  0  0  0  0  0  0
   -1.2770   20.0290   -1.7380 C   0  0  0  0  0  0  0  0  0  0  0  0
   -2.8240   20.1900    0.2770 C   0  0  0  0  0  0  0  0  0  0  0  0
    0.6260   16.1470   -2.4000 C   0  0  1  0  0  0  0  0  0  0  0  0
    0.7750   15.9310   -3.9300 C   0  0  0  0  0  0  0  0  0  0  0  0
    1.1790   14.4480   -4.1350 C   0  0  0  0  0  0  0  0  0  0  0  0
    0.9260   13.7820   -2.7620 C   0  0  1  0  0  0  0  0  0  0  0  0
   -0.6070   13.4910   -2.7330 C   0  0  0  0  0  0  0  0  0  0  0  0
    1.7630   12.4970   -2.4530 C   0  0  2  0  0  0  0  0  0  0  0  0
    1.5110   11.3110   -3.4000 C   0  0  0  0  0  0  0  0  0  0  0  0
    0.4320   10.3710   -2.9720 C   0  0  0  0  0  0  0  0  0  0  0  0
   -0.1090   10.3110   -1.7410 C   0  0  0  0  0  0  0  0  0  0  0  0
    0.4310   11.1820   -0.5990 C   0  0  1  0  0  0  0  0  0  0  0  0
    0.6110   10.3150    0.6740 C   0  0  0  0  0  0  0  0  0  0  0  0
   -0.6640    9.5710    1.0600 C   0  0  0  0  0  0  0  0  0  0  0  0
   -1.1370    8.6710   -0.0780 C   0  0  2  0  0  0  0  0  0  0  0  0
   -0.1810    7.6230   -0.2650 O   0  0  0  0  0  0  0  0  0  0  0  0
   -1.3440    9.4340   -1.4170 C   0  0  0  0  0  0  0  0  0  0  0  0
   -2.5800   10.3590   -1.3030 C   0  0  0  0  0  0  0  0  0  0  0  0
   -1.6820    8.3890   -2.5140 C   0  0  0  0  0  0  0  0  0  0  0  0
    1.7210   12.0460   -0.9370 C   0  0  1  0  0  0  0  0  0  0  0  0
    3.0080   11.2000   -0.6890 C   0  0  0  0  0  0  0  0  0  0  0  0
    1.7960   13.2680    0.0530 C   0  0  0  0  0  0  0  0  0  0  0  0
    1.0480   14.5480   -0.3650 C   0  0  0  0  0  0  0  0  0  0  0  0
    1.3920   14.9390   -1.8050 C   0  0  2  0  0  0  0  0  0  0  0  0
    2.9250   15.2580   -1.8610 C   0  0  0  0  0  0  0  0  0  0  0  0
    3.1313   18.1713   -1.9377 H   0  0  0  0  0  0  0  0  0  0  0  0
    2.6935   17.0983   -3.3101 H   0  0  0  0  0  0  0  0  0  0  0  0
    2.1683   18.8161   -3.3101 H   0  0  0  0  0  0  0  0  0  0  0  0
    0.2928   18.2748   -2.2336 H   0  0  0  0  0  0  0  0  0  0  0  0
    0.5146   16.8588    0.0150 H   0  0  0  0  0  0  0  0  0  0  0  0
    2.2666   17.3354   -0.2010 H   0  0  0  0  0  0  0  0  0  0  0  0
    1.5803   19.0918    1.0691 H   0  0  0  0  0  0  0  0  0  0  0  0
    1.1592   19.7207   -0.5780 H   0  0  0  0  0  0  0  0  0  0  0  0
   -0.1962   19.3849    1.6150 H   0  0  0  0  0  0  0  0  0  0  0  0
   -0.6212   20.9121   -1.7308 H   0  0  0  0  0  0  0  0  0  0  0  0
   -0.7725   19.2019   -2.2589 H   0  0  0  0  0  0  0  0  0  0  0  0
   -2.2146   20.2729   -2.2589 H   0  0  0  0  0  0  0  0  0  0  0  0
   -2.7463   20.1544    1.3737 H   0  0  0  0  0  0  0  0  0  0  0  0
   -2.9465   21.2337   -0.0483 H   0  0  0  0  0  0  0  0  0  0  0  0
   -3.6936   19.6001   -0.0483 H   0  0  0  0  0  0  0  0  0  0  0  0
   -0.4103   16.1536   -2.0311 H   0  0  0  0  0  0  0  0  0  0  0  0
   -0.1795   16.1371   -4.4364 H   0  0  0  0  0  0  0  0  0  0  0  0
    1.5314   16.6086   -4.3528 H   0  0  0  0  0  0  0  0  0  0  0  0
    0.5585   13.9805   -4.9137 H   0  0  0  0  0  0  0  0  0  0  0  0
    2.2231   14.3415   -4.4645 H   0  0  0  0  0  0  0  0  0  0  0  0
   -0.9482   13.4262   -1.6893 H   0  0  0  0  0  0  0  0  0  0  0  0
   -1.1441   14.3032   -3.2446 H   0  0  0  0  0  0  0  0  0  0  0  0
   -0.8091   12.5384   -3.2446 H   0  0  0  0  0  0  0  0  0  0  0  0
    2.7912   12.8294   -2.6586 H   0  0  0  0  0  0  0  0  0  0  0  0
    1.2382   11.7153   -4.3860 H   0  0  0  0  0  0  0  0  0  0  0  0
    2.4412   10.7239   -3.4066 H   0  0  0  0  0  0  0  0  0  0  0  0
    0.0472    9.6688   -3.7262 H   0  0  0  0  0  0  0  0  0  0  0  0
   -0.3317   11.9539   -0.4189 H   0  0  0  0  0  0  0  0  0  0  0  0
    1.4069    9.5785    0.4894 H   0  0  0  0  0  0  0  0  0  0  0  0
    0.8683   10.9896    1.5039 H   0  0  0  0  0  0  0  0  0  0  0  0
   -0.4653    8.9535    1.9484 H   0  0  0  0  0  0  0  0  0  0  0  0
   -1.4505   10.3100    1.2728 H   0  0  0  0  0  0  0  0  0  0  0  0
   -2.1191    8.2665    0.2080 H   0  0  0  0  0  0  0  0  0  0  0  0
   -0.6370    6.8830   -0.7000 H   0  0  0  0  0  0  0  0  0  0  0  0
   -2.8116   10.5323   -0.2417 H   0  0  0  0  0  0  0  0  0  0  0  0
   -2.3652   11.3201   -1.7931 H   0  0  0  0  0  0  0  0  0  0  0  0
   -3.4415    9.8819   -1.7931 H   0  0  0  0  0  0  0  0  0  0  0  0
   -1.9874    7.4448   -2.0393 H   0  0  0  0  0  0  0  0  0  0  0  0
   -2.5036    8.7672   -3.1400 H   0  0  0  0  0  0  0  0  0  0  0  0
   -0.7945    8.2144   -3.1400 H   0  0  0  0  0  0  0  0  0  0  0  0
    3.1727   11.0917    0.3932 H   0  0  0  0  0  0  0  0  0  0  0  0
    2.8860   10.2054   -1.1427 H   0  0  0  0  0  0  0  0  0  0  0  0
    3.8727   11.7064   -1.1427 H   0  0  0  0  0  0  0  0  0  0  0  0
    1.3814   12.9405    1.0178 H   0  0  0  0  0  0  0  0  0  0  0  0
    2.8585   13.5516    0.0799 H   0  0  0  0  0  0  0  0  0  0  0  0
   -0.0353   14.3727   -0.2888 H   0  0  0  0  0  0  0  0  0  0  0  0
    1.3538   15.3667    0.3031 H   0  0  0  0  0  0  0  0  0  0  0  0
    3.3200   15.3402   -0.8377 H   0  0  0  0  0  0  0  0  0  0  0  0
    3.4486   14.4496   -2.3923 H   0  0  0  0  0  0  0  0  0  0  0  0
    3.0826   16.2082   -2.3923 H   0  0  0  0  0  0  0  0  0  0  0  0
  1  2  1  0
  2  3  1  0
  3  4  1  0
  4  5  1  0
  5  6  1  0
  6  7  1  0
  7  8  1  0
  7  9  1  0
  2 10  1  0
 10 11  1  0
 11 12  1  0
 12 13  1  0
 13 14  1  1
 13 15  1  0
 15 16  1  0
 16 17  1  0
 17 18  2  0
 18 19  1  0
 19 20  1  0
 20 21  1  0
 21 22  1  0
 22 23  1  0
 22 24  1  0
 24 25  1  0
 24 26  1  0
 19 27  1  0
 27 28  1  1
 27 29  1  0
 29 30  1  0
 30 31  1  0
 31 32  1  1
  7  5  1  0
 31 10  1  0
 31 13  1  0
 27 15  1  0
 24 18  1  0
  1 33  1  0
  1 34  1  0
  1 35  1  0
  2 36  1  1
  3 37  1  0
  3 38  1  0
  4 39  1  0
  4 40  1  0
  5 41  1  1
  8 42  1  0
  8 43  1  0
  8 44  1  0
  9 45  1  0
  9 46  1  0
  9 47  1  0
 10 48  1  6
 11 49  1  0
 11 50  1  0
 12 51  1  0
 12 52  1  0
 14 53  1  0
 14 54  1  0
 14 55  1  0
 15 56  1  6
 16 57  1  0
 16 58  1  0
 17 59  1  0
 19 60  1  1
 20 61  1  0
 20 62  1  0
 21 63  1  0
 21 64  1  0
 22 65  1  1
 23 66  1  0
 25 67  1  0
 25 68  1  0
 25 69  1  0
 26 70  1  0
 26 71  1  0
 26 72  1  0
 28 73  1  0
 28 74  1  0
 28 75  1  0
 29 76  1  0
 29 77  1  0
 30 78  1  0
 30 79  1  0
 32 80  1  0
 32 81  1  0
 32 82  1  0
M  END
>  <meeko>  (4) 
{"is_sidechain": [false], "intermolecular_energy": 2.731, "internal_energy": -0.839}

$$$$
EPH_relaxed_0001_pdb2pqr_Repair_293_r2_0001_out
     RDKit          3D

 82 86  0  0  0  0  0  0  0  0999 V2000
   -3.4300    9.3070    0.4720 C   0  0  0  0  0  0  0  0  0  0  0  0
   -2.5840    9.6700   -0.7510 C   0  0  2  0  0  0  0  0  0  0  0  0
   -1.9140    8.4330   -1.3820 C   0  0  0  0  0  0  0  0  0  0  0  0
   -2.8250    7.6620   -2.3410 C   0  0  0  0  0  0  0  0  0  0  0  0
   -4.2630    7.7470   -1.9300 C   0  0  2  0  0  0  0  0  0  0  0  0
   -4.7990    6.5400   -1.3730 O   0  0  0  0  0  0  0  0  0  0  0  0
   -5.3770    6.9770   -2.6140 C   0  0  0  0  0  0  0  0  0  0  0  0
   -5.0990    6.0660   -3.7690 C   0  0  0  0  0  0  0  0  0  0  0  0
   -6.7800    7.4790   -2.4830 C   0  0  0  0  0  0  0  0  0  0  0  0
   -1.5250   10.6950   -0.3640 C   0  0  1  0  0  0  0  0  0  0  0  0
   -0.4350   10.1050    0.5700 C   0  0  0  0  0  0  0  0  0  0  0  0
    0.9000   10.7970    0.1930 C   0  0  0  0  0  0  0  0  0  0  0  0
    0.4830   11.9870   -0.7030 C   0  0  1  0  0  0  0  0  0  0  0  0
    0.0400   13.1040    0.2930 C   0  0  0  0  0  0  0  0  0  0  0  0
    1.5620   12.5060   -1.7090 C   0  0  2  0  0  0  0  0  0  0  0  0
    2.8410   13.0660   -1.0620 C   0  0  0  0  0  0  0  0  0  0  0  0
    2.8180   14.5300   -0.7670 C   0  0  0  0  0  0  0  0  0  0  0  0
    1.9330   15.4140   -1.2650 C   0  0  0  0  0  0  0  0  0  0  0  0
    0.8850   14.9820   -2.2990 C   0  0  1  0  0  0  0  0  0  0  0  0
    0.8460   16.0130   -3.4580 C   0  0  0  0  0  0  0  0  0  0  0  0
    0.6270   17.4400   -2.9650 C   0  0  0  0  0  0  0  0  0  0  0  0
    1.7220   17.8520   -1.9840 C   0  0  2  0  0  0  0  0  0  0  0  0
    2.9660   17.9280   -2.6870 O   0  0  0  0  0  0  0  0  0  0  0  0
    1.8610   16.8820   -0.7780 C   0  0  0  0  0  0  0  0  0  0  0  0
    0.6300   17.0260    0.1510 C   0  0  0  0  0  0  0  0  0  0  0  0
    3.0900   17.3320    0.0570 C   0  0  0  0  0  0  0  0  0  0  0  0
    0.9980   13.4840   -2.8170 C   0  0  1  0  0  0  0  0  0  0  0  0
    1.9870   13.4110   -4.0210 C   0  0  0  0  0  0  0  0  0  0  0  0
   -0.4040   13.0230   -3.3650 C   0  0  0  0  0  0  0  0  0  0  0  0
   -1.3810   12.4090   -2.3440 C   0  0  0  0  0  0  0  0  0  0  0  0
   -0.6920   11.3250   -1.5100 C   0  0  2  0  0  0  0  0  0  0  0  0
   -0.2550   10.1770   -2.4820 C   0  0  0  0  0  0  0  0  0  0  0  0
   -2.8712    9.5468    1.3886 H   0  0  0  0  0  0  0  0  0  0  0  0
   -4.3675    9.8821    0.4531 H   0  0  0  0  0  0  0  0  0  0  0  0
   -3.6592    8.2313    0.4531 H   0  0  0  0  0  0  0  0  0  0  0  0
   -3.2598   10.0997   -1.5051 H   0  0  0  0  0  0  0  0  0  0  0  0
   -1.0254    8.7654   -1.9388 H   0  0  0  0  0  0  0  0  0  0  0  0
   -1.6615    7.7489   -0.5585 H   0  0  0  0  0  0  0  0  0  0  0  0
   -2.7177    8.0842   -3.3511 H   0  0  0  0  0  0  0  0  0  0  0  0
   -2.5254    6.6038   -2.3214 H   0  0  0  0  0  0  0  0  0  0  0  0
   -4.1508    8.8112   -1.6753 H   0  0  0  0  0  0  0  0  0  0  0  0
   -4.7974    5.0776   -3.3921 H   0  0  0  0  0  0  0  0  0  0  0  0
   -6.0067    5.9634   -4.3818 H   0  0  0  0  0  0  0  0  0  0  0  0
   -4.2886    6.4877   -4.3818 H   0  0  0  0  0  0  0  0  0  0  0  0
   -7.0384    7.5715   -1.4178 H   0  0  0  0  0  0  0  0  0  0  0  0
   -6.8641    8.4630   -2.9674 H   0  0  0  0  0  0  0  0  0  0  0  0
   -7.4692    6.7717   -2.9674 H   0  0  0  0  0  0  0  0  0  0  0  0
   -2.1681   11.4585    0.0980 H   0  0  0  0  0  0  0  0  0  0  0  0
   -0.6849   10.3113    1.6212 H   0  0  0  0  0  0  0  0  0  0  0  0
   -0.3615    9.0139    0.4510 H   0  0  0  0  0  0  0  0  0  0  0  0
    1.4208   11.1531    1.0941 H   0  0  0  0  0  0  0  0  0  0  0  0
    1.5946   10.1136   -0.3175 H   0  0  0  0  0  0  0  0  0  0  0  0
    0.1799   12.7512    1.3255 H   0  0  0  0  0  0  0  0  0  0  0  0
    0.6488   14.0051    0.1278 H   0  0  0  0  0  0  0  0  0  0  0  0
   -1.0210   13.3429    0.1278 H   0  0  0  0  0  0  0  0  0  0  0  0
    1.8675   11.5835   -2.2244 H   0  0  0  0  0  0  0  0  0  0  0  0
    3.0053   12.5309   -0.1150 H   0  0  0  0  0  0  0  0  0  0  0  0
    3.6450   12.9163   -1.7976 H   0  0  0  0  0  0  0  0  0  0  0  0
    3.5890   14.9187   -0.0855 H   0  0  0  0  0  0  0  0  0  0  0  0
   -0.0799   14.9776   -1.7709 H   0  0  0  0  0  0  0  0  0  0  0  0
    1.8021   15.9702   -4.0002 H   0  0  0  0  0  0  0  0  0  0  0  0
   -0.0010   15.7512   -4.1091 H   0  0  0  0  0  0  0  0  0  0  0  0
    0.6390   18.1243   -3.8262 H   0  0  0  0  0  0  0  0  0  0  0  0
   -0.3433   17.4884   -2.4490 H   0  0  0  0  0  0  0  0  0  0  0  0
    1.4408   18.8306   -1.5677 H   0  0  0  0  0  0  0  0  0  0  0  0
    3.1860   18.8690   -2.7940 H   0  0  0  0  0  0  0  0  0  0  0  0
    0.9564   16.9878    1.2008 H   0  0  0  0  0  0  0  0  0  0  0  0
    0.1340   17.9883   -0.0440 H   0  0  0  0  0  0  0  0  0  0  0  0
   -0.0747   16.2042   -0.0440 H   0  0  0  0  0  0  0  0  0  0  0  0
    2.8565   17.2465    1.1285 H   0  0  0  0  0  0  0  0  0  0  0  0
    3.9510   16.6908   -0.1829 H   0  0  0  0  0  0  0  0  0  0  0  0
    3.3334   18.3776   -0.1829 H   0  0  0  0  0  0  0  0  0  0  0  0
    3.0178   13.3349   -3.6447 H   0  0  0  0  0  0  0  0  0  0  0  0
    1.7542   12.5276   -4.6337 H   0  0  0  0  0  0  0  0  0  0  0  0
    1.8864   14.3190   -4.6337 H   0  0  0  0  0  0  0  0  0  0  0  0
   -0.8942   13.9029   -3.8072 H   0  0  0  0  0  0  0  0  0  0  0  0
   -0.1832   12.2128   -4.0755 H   0  0  0  0  0  0  0  0  0  0  0  0
   -1.7460   13.2012   -1.6737 H   0  0  0  0  0  0  0  0  0  0  0  0
   -2.2186   11.9515   -2.8910 H   0  0  0  0  0  0  0  0  0  0  0  0
    0.0762    9.3068   -1.8963 H   0  0  0  0  0  0  0  0  0  0  0  0
   -1.1066    9.8895   -3.1162 H   0  0  0  0  0  0  0  0  0  0  0  0
    0.5722   10.5285   -3.1162 H   0  0  0  0  0  0  0  0  0  0  0  0
  1  2  1  0
  2  3  1  0
  3  4  1  0
  4  5  1  0
  5  6  1  0
  6  7  1  0
  7  8  1  0
  7  9  1  0
  2 10  1  0
 10 11  1  0
 11 12  1  0
 12 13  1  0
 13 14  1  1
 13 15  1  0
 15 16  1  0
 16 17  1  0
 17 18  2  0
 18 19  1  0
 19 20  1  0
 20 21  1  0
 21 22  1  0
 22 23  1  0
 22 24  1  0
 24 25  1  0
 24 26  1  0
 19 27  1  0
 27 28  1  6
 27 29  1  0
 29 30  1  0
 30 31  1  0
 31 32  1  6
  7  5  1  0
 31 10  1  0
 31 13  1  0
 27 15  1  0
 24 18  1  0
  1 33  1  0
  1 34  1  0
  1 35  1  0
  2 36  1  6
  3 37  1  0
  3 38  1  0
  4 39  1  0
  4 40  1  0
  5 41  1  1
  8 42  1  0
  8 43  1  0
  8 44  1  0
  9 45  1  0
  9 46  1  0
  9 47  1  0
 10 48  1  1
 11 49  1  0
 11 50  1  0
 12 51  1  0
 12 52  1  0
 14 53  1  0
 14 54  1  0
 14 55  1  0
 15 56  1  6
 16 57  1  0
 16 58  1  0
 17 59  1  0
 19 60  1  1
 20 61  1  0
 20 62  1  0
 21 63  1  0
 21 64  1  0
 22 65  1  1
 23 66  1  0
 25 67  1  0
 25 68  1  0
 25 69  1  0
 26 70  1  0
 26 71  1  0
 26 72  1  0
 28 73  1  0
 28 74  1  0
 28 75  1  0
 29 76  1  0
 29 77  1  0
 30 78  1  0
 30 79  1  0
 32 80  1  0
 32 81  1  0
 32 82  1  0
M  END
>  <meeko>  (5) 
{"is_sidechain": [false], "intermolecular_energy": 2.731, "internal_energy": -0.839}

$$$$
EPH_relaxed_0001_pdb2pqr_Repair_293_r2_0001_out
     RDKit          3D

 82 86  0  0  0  0  0  0  0  0999 V2000
    3.7140   17.9350    0.7440 C   0  0  0  0  0  0  0  0  0  0  0  0
    2.7040   18.3550   -0.3280 C   0  0  2  0  0  0  0  0  0  0  0  0
    1.9700   19.6590    0.0460 C   0  0  0  0  0  0  0  0  0  0  0  0
    0.7920   19.4500    1.0010 C   0  0  0  0  0  0  0  0  0  0  0  0
   -0.4650   20.0740    0.4750 C   0  0  2  0  0  0  0  0  0  0  0  0
   -1.5250   20.1840    1.4340 O   0  0  0  0  0  0  0  0  0  0  0  0
   -1.7700   19.3180    0.3130 C   0  0  0  0  0  0  0  0  0  0  0  0
   -1.8840   17.8710    0.6760 C   0  0  0  0  0  0  0  0  0  0  0  0
   -2.7900   19.8480   -0.6460 C   0  0  0  0  0  0  0  0  0  0  0  0
    1.6950   17.2360   -0.5570 C   0  0  1  0  0  0  0  0  0  0  0  0
    0.4890   17.6880   -1.4240 C   0  0  0  0  0  0  0  0  0  0  0  0
    0.0780   16.4680   -2.2880 C   0  0  0  0  0  0  0  0  0  0  0  0
    0.8320   15.2730   -1.6590 C   0  0  1  0  0  0  0  0  0  0  0  0
   -0.0350   14.8540   -0.4300 C   0  0  0  0  0  0  0  0  0  0  0  0
    1.1160   14.0610   -2.6050 C   0  0  2  0  0  0  0  0  0  0  0  0
   -0.1350   13.3550   -3.1550 C   0  0  0  0  0  0  0  0  0  0  0  0
   -0.6480   12.2250   -2.3240 C   0  0  0  0  0  0  0  0  0  0  0  0
    0.0300   11.6100   -1.3370 C   0  0  0  0  0  0  0  0  0  0  0  0
    1.4880   11.9780   -1.0360 C   0  0  1  0  0  0  0  0  0  0  0  0
    2.3260   10.6820   -0.8760 C   0  0  0  0  0  0  0  0  0  0  0  0
    1.7380    9.7290    0.1600 C   0  0  0  0  0  0  0  0  0  0  0  0
    0.3080    9.3410   -0.2050 C   0  0  2  0  0  0  0  0  0  0  0  0
    0.3340    8.5590   -1.4030 O   0  0  0  0  0  0  0  0  0  0  0  0
   -0.6280   10.5660   -0.4020 C   0  0  0  0  0  0  0  0  0  0  0  0
   -0.8960   11.2410    0.9670 C   0  0  0  0  0  0  0  0  0  0  0  0
   -2.0010   10.0430   -0.9040 C   0  0  0  0  0  0  0  0  0  0  0  0
    2.1600   13.0210   -2.0290 C   0  0  1  0  0  0  0  0  0  0  0  0
    2.7660   12.2730   -3.2560 C   0  0  0  0  0  0  0  0  0  0  0  0
    3.3650   13.7240   -1.2990 C   0  0  0  0  0  0  0  0  0  0  0  0
    3.0380   14.9860   -0.4770 C   0  0  0  0  0  0  0  0  0  0  0  0
    2.1930   15.9680   -1.2940 C   0  0  2  0  0  0  0  0  0  0  0  0
    3.0480   16.4240   -2.5260 C   0  0  0  0  0  0  0  0  0  0  0  0
    3.2855   18.1132    1.7413 H   0  0  0  0  0  0  0  0  0  0  0  0
    3.9461   16.8658    0.6303 H   0  0  0  0  0  0  0  0  0  0  0  0
    4.6358   18.5244    0.6303 H   0  0  0  0  0  0  0  0  0  0  0  0
    3.2641   18.5458   -1.2553 H   0  0  0  0  0  0  0  0  0  0  0  0
    2.6904   20.3374    0.5264 H   0  0  0  0  0  0  0  0  0  0  0  0
    1.5587   20.0748   -0.8856 H   0  0  0  0  0  0  0  0  0  0  0  0
    0.6264   18.3705    1.1320 H   0  0  0  0  0  0  0  0  0  0  0  0
    1.0382   19.9300    1.9596 H   0  0  0  0  0  0  0  0  0  0  0  0
    0.1106   20.7079   -0.2156 H   0  0  0  0  0  0  0  0  0  0  0  0
   -1.8922   17.7672    1.7711 H   0  0  0  0  0  0  0  0  0  0  0  0
   -2.8172   17.4615    0.2619 H   0  0  0  0  0  0  0  0  0  0  0  0
   -1.0264   17.3204    0.2619 H   0  0  0  0  0  0  0  0  0  0  0  0
   -3.6294   20.2841   -0.0846 H   0  0  0  0  0  0  0  0  0  0  0  0
   -2.3309   20.6216   -1.2791 H   0  0  0  0  0  0  0  0  0  0  0  0
   -3.1592   19.0277   -1.2791 H   0  0  0  0  0  0  0  0  0  0  0  0
    1.4507   16.9918    0.4874 H   0  0  0  0  0  0  0  0  0  0  0  0
   -0.3476   17.9946   -0.7790 H   0  0  0  0  0  0  0  0  0  0  0  0
    0.7567   18.5477   -2.0559 H   0  0  0  0  0  0  0  0  0  0  0  0
   -1.0094   16.3085   -2.2424 H   0  0  0  0  0  0  0  0  0  0  0  0
    0.3274   16.6062   -3.3504 H   0  0  0  0  0  0  0  0  0  0  0  0
    0.4964   15.1108    0.4982 H   0  0  0  0  0  0  0  0  0  0  0  0
   -0.9969   15.3867   -0.4612 H   0  0  0  0  0  0  0  0  0  0  0  0
   -0.2153   13.7693   -0.4612 H   0  0  0  0  0  0  0  0  0  0  0  0
    1.5908   14.5444   -3.4715 H   0  0  0  0  0  0  0  0  0  0  0  0
   -0.9364   14.1033   -3.2428 H   0  0  0  0  0  0  0  0  0  0  0  0
    0.1635   12.9135   -4.1173 H   0  0  0  0  0  0  0  0  0  0  0  0
   -1.6655   11.8650   -2.5364 H   0  0  0  0  0  0  0  0  0  0  0  0
    1.4718   12.5323   -0.0860 H   0  0  0  0  0  0  0  0  0  0  0  0
    2.3664   10.1662   -1.8467 H   0  0  0  0  0  0  0  0  0  0  0  0
    3.3287   10.9735   -0.5302 H   0  0  0  0  0  0  0  0  0  0  0  0
    2.3569    8.8207    0.2058 H   0  0  0  0  0  0  0  0  0  0  0  0
    1.7258   10.2359    1.1362 H   0  0  0  0  0  0  0  0  0  0  0  0
   -0.1023    8.7647    0.6373 H   0  0  0  0  0  0  0  0  0  0  0  0
    0.6400    7.6670   -1.1660 H   0  0  0  0  0  0  0  0  0  0  0  0
   -0.6213   10.5492    1.7769 H   0  0  0  0  0  0  0  0  0  0  0  0
   -0.2937   12.1579    1.0479 H   0  0  0  0  0  0  0  0  0  0  0  0
   -1.9632   11.4950    1.0479 H   0  0  0  0  0  0  0  0  0  0  0  0
   -2.6386    9.8001   -0.0412 H   0  0  0  0  0  0  0  0  0  0  0  0
   -2.4883   10.8185   -1.5132 H   0  0  0  0  0  0  0  0  0  0  0  0
   -1.8489    9.1399   -1.5132 H   0  0  0  0  0  0  0  0  0  0  0  0
    3.4221   11.4632   -2.9043 H   0  0  0  0  0  0  0  0  0  0  0  0
    1.9538   11.8488   -3.8646 H   0  0  0  0  0  0  0  0  0  0  0  0
    3.3495   12.9795   -3.8646 H   0  0  0  0  0  0  0  0  0  0  0  0
    3.8148   12.9888   -0.6155 H   0  0  0  0  0  0  0  0  0  0  0  0
    4.0285   14.0694   -2.1055 H   0  0  0  0  0  0  0  0  0  0  0  0
    2.4793   14.6937    0.4243 H   0  0  0  0  0  0  0  0  0  0  0  0
    3.9816   15.4797   -0.2016 H   0  0  0  0  0  0  0  0  0  0  0  0
    3.9673   16.9143   -2.1731 H   0  0  0  0  0  0  0  0  0  0  0  0
    3.3110   15.5464   -3.1348 H   0  0  0  0  0  0  0  0  0  0  0  0
    2.4657   17.1314   -3.1348 H   0  0  0  0  0  0  0  0  0  0  0  0
  1  2  1  0
  2  3  1  0
  3  4  1  0
  4  5  1  0
  5  6  1  0
  6  7  1  0
  7  8  1  0
  7  9  1  0
  2 10  1  0
 10 11  1  0
 11 12  1  0
 12 13  1  0
 13 14  1  1
 13 15  1  0
 15 16  1  0
 16 17  1  0
 17 18  2  0
 18 19  1  0
 19 20  1  0
 20 21  1  0
 21 22  1  0
 22 23  1  0
 22 24  1  0
 24 25  1  0
 24 26  1  0
 19 27  1  0
 27 28  1  6
 27 29  1  0
 29 30  1  0
 30 31  1  0
 31 32  1  6
  7  5  1  0
 31 10  1  0
 31 13  1  0
 27 15  1  0
 24 18  1  0
  1 33  1  0
  1 34  1  0
  1 35  1  0
  2 36  1  6
  3 37  1  0
  3 38  1  0
  4 39  1  0
  4 40  1  0
  5 41  1  6
  8 42  1  0
  8 43  1  0
  8 44  1  0
  9 45  1  0
  9 46  1  0
  9 47  1  0
 10 48  1  1
 11 49  1  0
 11 50  1  0
 12 51  1  0
 12 52  1  0
 14 53  1  0
 14 54  1  0
 14 55  1  0
 15 56  1  6
 16 57  1  0
 16 58  1  0
 17 59  1  0
 19 60  1  1
 20 61  1  0
 20 62  1  0
 21 63  1  0
 21 64  1  0
 22 65  1  1
 23 66  1  0
 25 67  1  0
 25 68  1  0
 25 69  1  0
 26 70  1  0
 26 71  1  0
 26 72  1  0
 28 73  1  0
 28 74  1  0
 28 75  1  0
 29 76  1  0
 29 77  1  0
 30 78  1  0
 30 79  1  0
 32 80  1  0
 32 81  1  0
 32 82  1  0
M  END
>  <meeko>  (6) 
{"is_sidechain": [false], "intermolecular_energy": 2.731, "internal_energy": -0.839}

$$$$
EPH_relaxed_0001_pdb2pqr_Repair_293_r2_0001_out
     RDKit          3D

 82 86  0  0  0  0  0  0  0  0999 V2000
   -5.1040    5.9450   -1.8970 C   0  0  0  0  0  0  0  0  0  0  0  0
   -5.4540    7.4360   -1.8640 C   0  0  2  0  0  0  0  0  0  0  0  0
   -5.2470    8.0510   -0.4660 C   0  0  0  0  0  0  0  0  0  0  0  0
   -4.1820    9.1500   -0.4280 C   0  0  0  0  0  0  0  0  0  0  0  0
   -2.8240    8.6180   -0.7730 C   0  0  2  0  0  0  0  0  0  0  0  0
   -1.7990    8.9330    0.1780 O   0  0  0  0  0  0  0  0  0  0  0  0
   -1.6450    9.5040   -1.1320 C   0  0  0  0  0  0  0  0  0  0  0  0
   -1.7710   10.9950   -1.1650 C   0  0  0  0  0  0  0  0  0  0  0  0
   -0.5190    8.9110   -1.9200 C   0  0  0  0  0  0  0  0  0  0  0  0
   -6.8960    7.6400   -2.3150 C   0  0  1  0  0  0  0  0  0  0  0  0
   -7.2070    6.9340   -3.6620 C   0  0  0  0  0  0  0  0  0  0  0  0
   -8.6750    6.4410   -3.5800 C   0  0  0  0  0  0  0  0  0  0  0  0
   -9.2590    7.1600   -2.3420 C   0  0  1  0  0  0  0  0  0  0  0  0
   -9.6350    8.5880   -2.8470 C   0  0  0  0  0  0  0  0  0  0  0  0
  -10.4690    6.4590   -1.6420 C   0  0  2  0  0  0  0  0  0  0  0  0
  -11.7300    6.3120   -2.5120 C   0  0  0  0  0  0  0  0  0  0  0  0
  -12.6990    7.4450   -2.4270 C   0  0  0  0  0  0  0  0  0  0  0  0
  -12.7060    8.3980   -1.4770 C   0  0  0  0  0  0  0  0  0  0  0  0
  -11.7290    8.3400   -0.2950 C   0  0  1  0  0  0  0  0  0  0  0  0
  -12.4960    8.6150    1.0250 C   0  0  0  0  0  0  0  0  0  0  0  0
  -13.2840    9.9210    0.9830 C   0  0  0  0  0  0  0  0  0  0  0  0
  -14.2850    9.9170   -0.1700 C   0  0  2  0  0  0  0  0  0  0  0  0
  -15.2870    8.9290    0.0940 O   0  0  0  0  0  0  0  0  0  0  0  0
  -13.6280    9.6400   -1.5510 C   0  0  0  0  0  0  0  0  0  0  0  0
  -12.7710   10.8580   -1.9730 C   0  0  0  0  0  0  0  0  0  0  0  0
  -14.7630    9.5220   -2.6040 C   0  0  0  0  0  0  0  0  0  0  0  0
  -10.8180    7.0410   -0.2130 C   0  0  1  0  0  0  0  0  0  0  0  0
  -11.5690    5.9120    0.5560 C   0  0  0  0  0  0  0  0  0  0  0  0
   -9.5290    7.3700    0.6300 C   0  0  0  0  0  0  0  0  0  0  0  0
   -8.3260    7.9490   -0.1380 C   0  0  0  0  0  0  0  0  0  0  0  0
   -8.0150    7.1110   -1.3820 C   0  0  2  0  0  0  0  0  0  0  0  0
   -7.6120    5.6750   -0.9040 C   0  0  0  0  0  0  0  0  0  0  0  0
   -5.0151    5.5664   -0.8680 H   0  0  0  0  0  0  0  0  0  0  0  0
   -5.8972    5.3937   -2.4233 H   0  0  0  0  0  0  0  0  0  0  0  0
   -4.1484    5.8042   -2.4233 H   0  0  0  0  0  0  0  0  0  0  0  0
   -4.7710    7.9520   -2.5548 H   0  0  0  0  0  0  0  0  0  0  0  0
   -6.2023    8.4816   -0.1312 H   0  0  0  0  0  0  0  0  0  0  0  0
   -4.8973    7.2420    0.1922 H   0  0  0  0  0  0  0  0  0  0  0  0
   -4.4523    9.9335   -1.1513 H   0  0  0  0  0  0  0  0  0  0  0  0
   -4.1425    9.5540    0.5944 H   0  0  0  0  0  0  0  0  0  0  0  0
   -3.2669    7.7422   -1.2698 H   0  0  0  0  0  0  0  0  0  0  0  0
   -1.8038   11.3831   -0.1362 H   0  0  0  0  0  0  0  0  0  0  0  0
   -0.9060   11.4245   -1.6915 H   0  0  0  0  0  0  0  0  0  0  0  0
   -2.6959   11.2733   -1.6915 H   0  0  0  0  0  0  0  0  0  0  0  0
    0.2399    8.5113   -1.2313 H   0  0  0  0  0  0  0  0  0  0  0  0
   -0.9032    8.0983   -2.5539 H   0  0  0  0  0  0  0  0  0  0  0  0
   -0.0662    9.6876   -2.5539 H   0  0  0  0  0  0  0  0  0  0  0  0
   -6.9238    8.7391   -2.3505 H   0  0  0  0  0  0  0  0  0  0  0  0
   -7.0910    7.6416   -4.4962 H   0  0  0  0  0  0  0  0  0  0  0  0
   -6.5176    6.0948   -3.8366 H   0  0  0  0  0  0  0  0  0  0  0  0
   -9.2295    6.7194   -4.4883 H   0  0  0  0  0  0  0  0  0  0  0  0
   -8.7435    5.3462   -3.4976 H   0  0  0  0  0  0  0  0  0  0  0  0
   -9.8088    9.2480   -1.9844 H   0  0  0  0  0  0  0  0  0  0  0  0
   -8.8121    8.9899   -3.4563 H   0  0  0  0  0  0  0  0  0  0  0  0
  -10.5492    8.5326   -3.4563 H   0  0  0  0  0  0  0  0  0  0  0  0
  -10.0917    5.4375   -1.4866 H   0  0  0  0  0  0  0  0  0  0  0  0
  -11.4105    6.2159   -3.5602 H   0  0  0  0  0  0  0  0  0  0  0  0
  -12.2615    5.4276   -2.1307 H   0  0  0  0  0  0  0  0  0  0  0  0
  -13.4724    7.5057   -3.2068 H   0  0  0  0  0  0  0  0  0  0  0  0
  -10.9914    9.1370   -0.4700 H   0  0  0  0  0  0  0  0  0  0  0  0
  -13.1965    7.7862    1.2049 H   0  0  0  0  0  0  0  0  0  0  0  0
  -11.7528    8.6994    1.8315 H   0  0  0  0  0  0  0  0  0  0  0  0
  -13.8276   10.0442    1.9313 H   0  0  0  0  0  0  0  0  0  0  0  0
  -12.5790   10.7520    0.8333 H   0  0  0  0  0  0  0  0  0  0  0  0
  -14.7250   10.9234   -0.2292 H   0  0  0  0  0  0  0  0  0  0  0  0
  -15.4920    8.9640    1.0430 H   0  0  0  0  0  0  0  0  0  0  0  0
  -12.4053   11.3777   -1.0752 H   0  0  0  0  0  0  0  0  0  0  0  0
  -11.9148   10.5141   -2.5719 H   0  0  0  0  0  0  0  0  0  0  0  0
  -13.3839   11.5477   -2.5719 H   0  0  0  0  0  0  0  0  0  0  0  0
  -15.7306    9.4214   -2.0905 H   0  0  0  0  0  0  0  0  0  0  0  0
  -14.7741   10.4238   -3.2337 H   0  0  0  0  0  0  0  0  0  0  0  0
  -14.5884    8.6372   -3.2337 H   0  0  0  0  0  0  0  0  0  0  0  0
  -11.4623    6.0724    1.6390 H   0  0  0  0  0  0  0  0  0  0  0  0
  -12.6351    5.9309    0.2858 H   0  0  0  0  0  0  0  0  0  0  0  0
  -11.1395    4.9360    0.2858 H   0  0  0  0  0  0  0  0  0  0  0  0
   -9.8136    8.1001    1.4020 H   0  0  0  0  0  0  0  0  0  0  0  0
   -9.1833    6.4003    1.0176 H   0  0  0  0  0  0  0  0  0  0  0  0
   -8.5581    8.9790   -0.4467 H   0  0  0  0  0  0  0  0  0  0  0  0
   -7.4473    7.9341    0.5236 H   0  0  0  0  0  0  0  0  0  0  0  0
   -7.6032    5.6436    0.1955 H   0  0  0  0  0  0  0  0  0  0  0  0
   -8.3396    4.9438   -1.2859 H   0  0  0  0  0  0  0  0  0  0  0  0
   -6.6102    5.4291   -1.2859 H   0  0  0  0  0  0  0  0  0  0  0  0
  1  2  1  0
  2  3  1  0
  3  4  1  0
  4  5  1  0
  5  6  1  0
  6  7  1  0
  7  8  1  0
  7  9  1  0
  2 10  1  0
 10 11  1  0
 11 12  1  0
 12 13  1  0
 13 14  1  6
 13 15  1  0
 15 16  1  0
 16 17  1  0
 17 18  2  0
 18 19  1  0
 19 20  1  0
 20 21  1  0
 21 22  1  0
 22 23  1  0
 22 24  1  0
 24 25  1  0
 24 26  1  0
 19 27  1  0
 27 28  1  1
 27 29  1  0
 29 30  1  0
 30 31  1  0
 31 32  1  1
  7  5  1  0
 31 10  1  0
 31 13  1  0
 27 15  1  0
 24 18  1  0
  1 33  1  0
  1 34  1  0
  1 35  1  0
  2 36  1  6
  3 37  1  0
  3 38  1  0
  4 39  1  0
  4 40  1  0
  5 41  1  6
  8 42  1  0
  8 43  1  0
  8 44  1  0
  9 45  1  0
  9 46  1  0
  9 47  1  0
 10 48  1  6
 11 49  1  0
 11 50  1  0
 12 51  1  0
 12 52  1  0
 14 53  1  0
 14 54  1  0
 14 55  1  0
 15 56  1  1
 16 57  1  0
 16 58  1  0
 17 59  1  0
 19 60  1  6
 20 61  1  0
 20 62  1  0
 21 63  1  0
 21 64  1  0
 22 65  1  6
 23 66  1  0
 25 67  1  0
 25 68  1  0
 25 69  1  0
 26 70  1  0
 26 71  1  0
 26 72  1  0
 28 73  1  0
 28 74  1  0
 28 75  1  0
 29 76  1  0
 29 77  1  0
 30 78  1  0
 30 79  1  0
 32 80  1  0
 32 81  1  0
 32 82  1  0
M  END
>  <meeko>  (7) 
{"is_sidechain": [false], "intermolecular_energy": 2.731, "internal_energy": -0.839}

$$$$
EPH_relaxed_0001_pdb2pqr_Repair_293_r2_0001_out
     RDKit          3D

 82 86  0  0  0  0  0  0  0  0999 V2000
    0.3940    8.9420   -2.6470 C   0  0  0  0  0  0  0  0  0  0  0  0
    1.1800   10.0980   -3.2720 C   0  0  2  0  0  0  0  0  0  0  0  0
    2.6690   10.0720   -2.8710 C   0  0  0  0  0  0  0  0  0  0  0  0
    3.6010   10.6790   -3.9240 C   0  0  0  0  0  0  0  0  0  0  0  0
    4.9870   10.8770   -3.3890 C   0  0  2  0  0  0  0  0  0  0  0  0
    5.6290   12.0830   -3.8210 O   0  0  0  0  0  0  0  0  0  0  0  0
    6.2300   10.8540   -4.2580 C   0  0  0  0  0  0  0  0  0  0  0  0
    6.1450   10.6260   -5.7350 C   0  0  0  0  0  0  0  0  0  0  0  0
    7.5490   10.5650   -3.6130 C   0  0  0  0  0  0  0  0  0  0  0  0
    0.5560   11.4290   -2.8700 C   0  0  1  0  0  0  0  0  0  0  0  0
   -0.8530   11.2620   -2.2420 C   0  0  0  0  0  0  0  0  0  0  0  0
   -0.9890   12.3550   -1.1500 C   0  0  0  0  0  0  0  0  0  0  0  0
    0.1960   13.3140   -1.4100 C   0  0  1  0  0  0  0  0  0  0  0  0
   -0.2830   14.2380   -2.5730 C   0  0  0  0  0  0  0  0  0  0  0  0
    0.6950   14.1440   -0.1820 C   0  0  2  0  0  0  0  0  0  0  0  0
   -0.3380   15.1170    0.4110 C   0  0  0  0  0  0  0  0  0  0  0  0
   -0.3250   16.4930   -0.1680 C   0  0  0  0  0  0  0  0  0  0  0  0
    0.6620   17.0160   -0.9180 C   0  0  0  0  0  0  0  0  0  0  0  0
    1.9570   16.2330   -1.1730 C   0  0  1  0  0  0  0  0  0  0  0  0
    3.1770   17.1640   -0.9470 C   0  0  0  0  0  0  0  0  0  0  0  0
    3.0970   18.4440   -1.7730 C   0  0  0  0  0  0  0  0  0  0  0  0
    1.8250   19.2230   -1.4490 C   0  0  2  0  0  0  0  0  0  0  0  0
    1.9050   19.6980   -0.1020 O   0  0  0  0  0  0  0  0  0  0  0  0
    0.5300   18.3840   -1.6310 C   0  0  0  0  0  0  0  0  0  0  0  0
    0.2840   18.1250   -3.1380 C   0  0  0  0  0  0  0  0  0  0  0  0
   -0.6680   19.2400   -1.1380 C   0  0  0  0  0  0  0  0  0  0  0  0
    2.0940   14.8500   -0.4030 C   0  0  1  0  0  0  0  0  0  0  0  0
    2.7010   15.0870    1.0140 C   0  0  0  0  0  0  0  0  0  0  0  0
    3.1130   13.9310   -1.1740 C   0  0  0  0  0  0  0  0  0  0  0  0
    2.5390   13.0460   -2.2970 C   0  0  0  0  0  0  0  0  0  0  0  0
    1.3060   12.2760   -1.8130 C   0  0  2  0  0  0  0  0  0  0  0  0
    1.7620   11.3220   -0.6570 C   0  0  0  0  0  0  0  0  0  0  0  0
    0.4438    9.0152   -1.5506 H   0  0  0  0  0  0  0  0  0  0  0  0
   -0.6559    8.9952   -2.9707 H   0  0  0  0  0  0  0  0  0  0  0  0
    0.8295    7.9852   -2.9707 H   0  0  0  0  0  0  0  0  0  0  0  0
    1.1299    9.9789   -4.3644 H   0  0  0  0  0  0  0  0  0  0  0  0
    2.7866   10.6383   -1.9354 H   0  0  0  0  0  0  0  0  0  0  0  0
    2.9537    9.0152   -2.7606 H   0  0  0  0  0  0  0  0  0  0  0  0
    3.6467   10.0040   -4.7913 H   0  0  0  0  0  0  0  0  0  0  0  0
    3.2002   11.6624   -4.2108 H   0  0  0  0  0  0  0  0  0  0  0  0
    4.7278   10.3519   -2.4578 H   0  0  0  0  0  0  0  0  0  0  0  0
    5.7667    9.6113   -5.9282 H   0  0  0  0  0  0  0  0  0  0  0  0
    5.4613   11.3633   -6.1811 H   0  0  0  0  0  0  0  0  0  0  0  0
    7.1445   10.7358   -6.1811 H   0  0  0  0  0  0  0  0  0  0  0  0
    7.4355   10.5899   -2.5192 H   0  0  0  0  0  0  0  0  0  0  0  0
    7.8983    9.5690   -3.9229 H   0  0  0  0  0  0  0  0  0  0  0  0
    8.2827   11.3237   -3.9229 H   0  0  0  0  0  0  0  0  0  0  0  0
    0.5728   11.9417   -3.8431 H   0  0  0  0  0  0  0  0  0  0  0  0
   -1.6285   11.3959   -3.0106 H   0  0  0  0  0  0  0  0  0  0  0  0
   -0.9772   10.2570   -1.8123 H   0  0  0  0  0  0  0  0  0  0  0  0
   -1.9473   12.8859   -1.2488 H   0  0  0  0  0  0  0  0  0  0  0  0
   -0.9708   11.9345   -0.1337 H   0  0  0  0  0  0  0  0  0  0  0  0
   -0.7512   15.1412   -2.1546 H   0  0  0  0  0  0  0  0  0  0  0  0
    0.5797   14.5254   -3.1920 H   0  0  0  0  0  0  0  0  0  0  0  0
   -1.0151   13.6987   -3.1920 H   0  0  0  0  0  0  0  0  0  0  0  0
    0.8462   13.3674    0.5822 H   0  0  0  0  0  0  0  0  0  0  0  0
   -1.3388   14.6899    0.2495 H   0  0  0  0  0  0  0  0  0  0  0  0
   -0.0733   15.2314    1.4725 H   0  0  0  0  0  0  0  0  0  0  0  0
   -1.1959   17.1333    0.0358 H   0  0  0  0  0  0  0  0  0  0  0  0
    1.9188   15.9159   -2.2256 H   0  0  0  0  0  0  0  0  0  0  0  0
    3.2219   17.4341    0.1184 H   0  0  0  0  0  0  0  0  0  0  0  0
    4.0773   16.6175   -1.2644 H   0  0  0  0  0  0  0  0  0  0  0  0
    3.9713   19.0727   -1.5485 H   0  0  0  0  0  0  0  0  0  0  0  0
    3.0815   18.1737   -2.8392 H   0  0  0  0  0  0  0  0  0  0  0  0
    1.7601   20.0587   -2.1613 H   0  0  0  0  0  0  0  0  0  0  0  0
    2.8280   19.6010    0.1900 H   0  0  0  0  0  0  0  0  0  0  0  0
   -0.4692   17.3320   -3.2556 H   0  0  0  0  0  0  0  0  0  0  0  0
   -0.0780   19.0481   -3.6144 H   0  0  0  0  0  0  0  0  0  0  0  0
    1.2245   17.8110   -3.6144 H   0  0  0  0  0  0  0  0  0  0  0  0
   -0.6830   19.2507   -0.0382 H   0  0  0  0  0  0  0  0  0  0  0  0
   -0.5627   20.2686   -1.5133 H   0  0  0  0  0  0  0  0  0  0  0  0
   -1.6070   18.8071   -1.5133 H   0  0  0  0  0  0  0  0  0  0  0  0
    1.9660   14.8000    1.7804 H   0  0  0  0  0  0  0  0  0  0  0  0
    3.6092   14.4774    1.1305 H   0  0  0  0  0  0  0  0  0  0  0  0
    2.9559   16.1507    1.1305 H   0  0  0  0  0  0  0  0  0  0  0  0
    3.8764   14.5838   -1.6223 H   0  0  0  0  0  0  0  0  0  0  0  0
    3.4935   13.2271   -0.4192 H   0  0  0  0  0  0  0  0  0  0  0  0
    2.2543   13.6832   -3.1472 H   0  0  0  0  0  0  0  0  0  0  0  0
    3.3086   12.3208   -2.5998 H   0  0  0  0  0  0  0  0  0  0  0  0
    1.5387   11.7892    0.3135 H   0  0  0  0  0  0  0  0  0  0  0  0
    1.2234   10.3662   -0.7364 H   0  0  0  0  0  0  0  0  0  0  0  0
    2.8441   11.1408   -0.7364 H   0  0  0  0  0  0  0  0  0  0  0  0
  1  2  1  0
  2  3  1  0
  3  4  1  0
  4  5  1  0
  5  6  1  0
  6  7  1  0
  7  8  1  0
  7  9  1  0
  2 10  1  0
 10 11  1  0
 11 12  1  0
 12 13  1  0
 13 14  1  6
 13 15  1  0
 15 16  1  0
 16 17  1  0
 17 18  2  0
 18 19  1  0
 19 20  1  0
 20 21  1  0
 21 22  1  0
 22 23  1  0
 22 24  1  0
 24 25  1  0
 24 26  1  0
 19 27  1  0
 27 28  1  1
 27 29  1  0
 29 30  1  0
 30 31  1  0
 31 32  1  1
  7  5  1  0
 31 10  1  0
 31 13  1  0
 27 15  1  0
 24 18  1  0
  1 33  1  0
  1 34  1  0
  1 35  1  0
  2 36  1  6
  3 37  1  0
  3 38  1  0
  4 39  1  0
  4 40  1  0
  5 41  1  1
  8 42  1  0
  8 43  1  0
  8 44  1  0
  9 45  1  0
  9 46  1  0
  9 47  1  0
 10 48  1  6
 11 49  1  0
 11 50  1  0
 12 51  1  0
 12 52  1  0
 14 53  1  0
 14 54  1  0
 14 55  1  0
 15 56  1  1
 16 57  1  0
 16 58  1  0
 17 59  1  0
 19 60  1  6
 20 61  1  0
 20 62  1  0
 21 63  1  0
 21 64  1  0
 22 65  1  6
 23 66  1  0
 25 67  1  0
 25 68  1  0
 25 69  1  0
 26 70  1  0
 26 71  1  0
 26 72  1  0
 28 73  1  0
 28 74  1  0
 28 75  1  0
 29 76  1  0
 29 77  1  0
 30 78  1  0
 30 79  1  0
 32 80  1  0
 32 81  1  0
 32 82  1  0
M  END
>  <meeko>  (8) 
{"is_sidechain": [false], "intermolecular_energy": 2.731, "internal_energy": -0.839}

$$$$
EPH_relaxed_0001_pdb2pqr_Repair_293_r2_0001_out
     RDKit          3D

 82 86  0  0  0  0  0  0  0  0999 V2000
   -3.7140    7.2990   -3.5250 C   0  0  0  0  0  0  0  0  0  0  0  0
   -3.6710    7.3180   -1.9950 C   0  0  2  0  0  0  0  0  0  0  0  0
   -5.0530    7.0390   -1.3720 C   0  0  0  0  0  0  0  0  0  0  0  0
   -6.2050    7.0970   -2.3790 C   0  0  0  0  0  0  0  0  0  0  0  0
   -7.5180    7.3600   -1.7050 C   0  0  2  0  0  0  0  0  0  0  0  0
   -8.1460    6.2000   -1.1440 O   0  0  0  0  0  0  0  0  0  0  0  0
   -8.8440    6.8390   -2.2250 C   0  0  0  0  0  0  0  0  0  0  0  0
   -8.9240    6.0130   -3.4700 C   0  0  0  0  0  0  0  0  0  0  0  0
  -10.1010    7.5340   -1.8030 C   0  0  0  0  0  0  0  0  0  0  0  0
   -3.1410    8.6610   -1.5070 C   0  0  1  0  0  0  0  0  0  0  0  0
   -3.7870    9.1080   -0.1680 C   0  0  0  0  0  0  0  0  0  0  0  0
   -2.6900    9.8570    0.6310 C   0  0  0  0  0  0  0  0  0  0  0  0
   -1.5610   10.1060   -0.3970 C   0  0  1  0  0  0  0  0  0  0  0  0
   -2.0170   11.3670   -1.1960 C   0  0  0  0  0  0  0  0  0  0  0  0
   -0.1220   10.2830    0.1880 C   0  0  2  0  0  0  0  0  0  0  0  0
    0.0610   11.4950    1.1170 C   0  0  0  0  0  0  0  0  0  0  0  0
    0.4840   12.7580    0.4410 C   0  0  0  0  0  0  0  0  0  0  0  0
    0.9830   12.8490   -0.8060 C   0  0  0  0  0  0  0  0  0  0  0  0
    1.2560   11.5900   -1.6380 C   0  0  1  0  0  0  0  0  0  0  0  0
    2.6600   11.6950   -2.2900 C   0  0  0  0  0  0  0  0  0  0  0  0
    2.8360   12.9770   -3.0970 C   0  0  0  0  0  0  0  0  0  0  0  0
    2.6130   14.2080   -2.2210 C   0  0  2  0  0  0  0  0  0  0  0  0
    3.6610   14.2770   -1.2490 O   0  0  0  0  0  0  0  0  0  0  0  0
    1.2340   14.2080   -1.5040 C   0  0  0  0  0  0  0  0  0  0  0  0
    0.1080   14.4360   -2.5420 C   0  0  0  0  0  0  0  0  0  0  0  0
    1.1950   15.4280   -0.5450 C   0  0  0  0  0  0  0  0  0  0  0  0
    1.0310   10.2040   -0.8940 C   0  0  1  0  0  0  0  0  0  0  0  0
    2.3280    9.7920   -0.1320 C   0  0  0  0  0  0  0  0  0  0  0  0
    0.7700    9.0810   -1.9660 C   0  0  0  0  0  0  0  0  0  0  0  0
   -0.6900    8.8740   -2.4150 C   0  0  0  0  0  0  0  0  0  0  0  0
   -1.6240    8.7600   -1.2060 C   0  0  2  0  0  0  0  0  0  0  0  0
   -1.2030    7.4870   -0.3950 C   0  0  0  0  0  0  0  0  0  0  0  0
   -4.6725    6.8755   -3.8596 H   0  0  0  0  0  0  0  0  0  0  0  0
   -3.6132    8.3254   -3.9074 H   0  0  0  0  0  0  0  0  0  0  0  0
   -2.8872    6.6824   -3.9074 H   0  0  0  0  0  0  0  0  0  0  0  0
   -2.9951    6.5122   -1.6727 H   0  0  0  0  0  0  0  0  0  0  0  0
   -5.0350    6.0353   -0.9223 H   0  0  0  0  0  0  0  0  0  0  0  0
   -5.2358    7.8287   -0.6284 H   0  0  0  0  0  0  0  0  0  0  0  0
   -6.0071    7.9030   -3.1009 H   0  0  0  0  0  0  0  0  0  0  0  0
   -6.2682    6.1219   -2.8842 H   0  0  0  0  0  0  0  0  0  0  0  0
   -7.1878    8.3645   -1.4017 H   0  0  0  0  0  0  0  0  0  0  0  0
   -9.0268    4.9516   -3.1999 H   0  0  0  0  0  0  0  0  0  0  0  0
   -9.7960    6.3266   -4.0627 H   0  0  0  0  0  0  0  0  0  0  0  0
   -8.0080    6.1535   -4.0627 H   0  0  0  0  0  0  0  0  0  0  0  0
  -10.1530    7.5628   -0.7046 H   0  0  0  0  0  0  0  0  0  0  0  0
  -10.1022    8.5610   -2.1972 H   0  0  0  0  0  0  0  0  0  0  0  0
  -10.9714    6.9889   -2.1972 H   0  0  0  0  0  0  0  0  0  0  0  0
   -3.3947    9.2857   -2.3761 H   0  0  0  0  0  0  0  0  0  0  0  0
   -4.6374    9.7779   -0.3630 H   0  0  0  0  0  0  0  0  0  0  0  0
   -4.1644    8.2425    0.3962 H   0  0  0  0  0  0  0  0  0  0  0  0
   -3.0764   10.8098    1.0220 H   0  0  0  0  0  0  0  0  0  0  0  0
   -2.3422    9.2823    1.5021 H   0  0  0  0  0  0  0  0  0  0  0  0
   -2.3046   12.1624   -0.4928 H   0  0  0  0  0  0  0  0  0  0  0  0
   -1.1892   11.7190   -1.8292 H   0  0  0  0  0  0  0  0  0  0  0  0
   -2.8785   11.1082   -1.8292 H   0  0  0  0  0  0  0  0  0  0  0  0
   -0.0183    9.3968    0.8313 H   0  0  0  0  0  0  0  0  0  0  0  0
   -0.8978   11.6842    1.6219 H   0  0  0  0  0  0  0  0  0  0  0  0
    0.8766   11.2303    1.8060 H   0  0  0  0  0  0  0  0  0  0  0  0
    0.3788   13.6932    1.0105 H   0  0  0  0  0  0  0  0  0  0  0  0
    0.4818   11.5683   -2.4191 H   0  0  0  0  0  0  0  0  0  0  0  0
    3.4203   11.6714   -1.4954 H   0  0  0  0  0  0  0  0  0  0  0  0
    2.7709   10.8472   -2.9820 H   0  0  0  0  0  0  0  0  0  0  0  0
    3.8562   13.0070   -3.5072 H   0  0  0  0  0  0  0  0  0  0  0  0
    2.0945   12.9851   -3.9095 H   0  0  0  0  0  0  0  0  0  0  0  0
    2.6233   15.0887   -2.8799 H   0  0  0  0  0  0  0  0  0  0  0  0
    4.4760   13.9570   -1.6710 H   0  0  0  0  0  0  0  0  0  0  0  0
   -0.8401   14.6280   -2.0183 H   0  0  0  0  0  0  0  0  0  0  0  0
    0.3603   15.3013   -3.1726 H   0  0  0  0  0  0  0  0  0  0  0  0
    0.0038   13.5407   -3.1726 H   0  0  0  0  0  0  0  0  0  0  0  0
    1.2063   15.0758    0.4970 H   0  0  0  0  0  0  0  0  0  0  0  0
    2.0732   16.0651   -0.7262 H   0  0  0  0  0  0  0  0  0  0  0  0
    0.2779   16.0077   -0.7262 H   0  0  0  0  0  0  0  0  0  0  0  0
    2.1500    9.8485    0.9520 H   0  0  0  0  0  0  0  0  0  0  0  0
    2.6025    8.7624   -0.4053 H   0  0  0  0  0  0  0  0  0  0  0  0
    3.1463   10.4744   -0.4053 H   0  0  0  0  0  0  0  0  0  0  0  0
    1.3607    9.3305   -2.8598 H   0  0  0  0  0  0  0  0  0  0  0  0
    1.0552    8.1403   -1.4724 H   0  0  0  0  0  0  0  0  0  0  0  0
   -1.0019    9.7301   -3.0313 H   0  0  0  0  0  0  0  0  0  0  0  0
   -0.7501    7.9408   -2.9942 H   0  0  0  0  0  0  0  0  0  0  0  0
   -1.2730    7.6987    0.6822 H   0  0  0  0  0  0  0  0  0  0  0  0
   -1.8729    6.6523   -0.6489 H   0  0  0  0  0  0  0  0  0  0  0  0
   -0.1675    7.2163   -0.6489 H   0  0  0  0  0  0  0  0  0  0  0  0
  1  2  1  0
  2  3  1  0
  3  4  1  0
  4  5  1  0
  5  6  1  0
  6  7  1  0
  7  8  1  0
  7  9  1  0
  2 10  1  0
 10 11  1  0
 11 12  1  0
 12 13  1  0
 13 14  1  6
 13 15  1  0
 15 16  1  0
 16 17  1  0
 17 18  2  0
 18 19  1  0
 19 20  1  0
 20 21  1  0
 21 22  1  0
 22 23  1  0
 22 24  1  0
 24 25  1  0
 24 26  1  0
 19 27  1  0
 27 28  1  1
 27 29  1  0
 29 30  1  0
 30 31  1  0
 31 32  1  1
  7  5  1  0
 31 10  1  0
 31 13  1  0
 27 15  1  0
 24 18  1  0
  1 33  1  0
  1 34  1  0
  1 35  1  0
  2 36  1  1
  3 37  1  0
  3 38  1  0
  4 39  1  0
  4 40  1  0
  5 41  1  1
  8 42  1  0
  8 43  1  0
  8 44  1  0
  9 45  1  0
  9 46  1  0
  9 47  1  0
 10 48  1  6
 11 49  1  0
 11 50  1  0
 12 51  1  0
 12 52  1  0
 14 53  1  0
 14 54  1  0
 14 55  1  0
 15 56  1  1
 16 57  1  0
 16 58  1  0
 17 59  1  0
 19 60  1  6
 20 61  1  0
 20 62  1  0
 21 63  1  0
 21 64  1  0
 22 65  1  6
 23 66  1  0
 25 67  1  0
 25 68  1  0
 25 69  1  0
 26 70  1  0
 26 71  1  0
 26 72  1  0
 28 73  1  0
 28 74  1  0
 28 75  1  0
 29 76  1  0
 29 77  1  0
 30 78  1  0
 30 79  1  0
 32 80  1  0
 32 81  1  0
 32 82  1  0
M  END
>  <meeko>  (9) 
{"is_sidechain": [false], "intermolecular_energy": 2.731, "internal_energy": -0.839}

$$$$
EPH_relaxed_0001_pdb2pqr_Repair_293_r2_0001_out
     RDKit          3D

 82 86  0  0  0  0  0  0  0  0999 V2000
    0.1400   17.7900   -2.4730 C   0  0  0  0  0  0  0  0  0  0  0  0
   -0.1010   16.8840   -1.2630 C   0  0  2  0  0  0  0  0  0  0  0  0
   -0.1550   17.6790    0.0570 C   0  0  0  0  0  0  0  0  0  0  0  0
    0.4410   19.0850   -0.0480 C   0  0  0  0  0  0  0  0  0  0  0  0
    1.6200   19.2560    0.8620 C   0  0  2  0  0  0  0  0  0  0  0  0
    2.6020   20.1940    0.4000 O   0  0  0  0  0  0  0  0  0  0  0  0
    3.0280   18.8250    0.4960 C   0  0  0  0  0  0  0  0  0  0  0  0
    3.3310   18.1880   -0.8240 C   0  0  0  0  0  0  0  0  0  0  0  0
    4.0090   18.5750    1.5990 C   0  0  0  0  0  0  0  0  0  0  0  0
    0.9870   15.8190   -1.1850 C   0  0  1  0  0  0  0  0  0  0  0  0
    1.2070   15.2940    0.2590 C   0  0  0  0  0  0  0  0  0  0  0  0
    1.5620   13.7900    0.1380 C   0  0  0  0  0  0  0  0  0  0  0  0
    1.8590   13.5780   -1.3650 C   0  0  1  0  0  0  0  0  0  0  0  0
    3.3280   14.0690   -1.5560 C   0  0  0  0  0  0  0  0  0  0  0  0
    1.6600   12.1270   -1.9110 C   0  0  2  0  0  0  0  0  0  0  0  0
    2.5760   11.0620   -1.2830 C   0  0  0  0  0  0  0  0  0  0  0  0
    3.8760   10.8460   -1.9850 C   0  0  0  0  0  0  0  0  0  0  0  0
    4.1750   11.2690   -3.2270 C   0  0  0  0  0  0  0  0  0  0  0  0
    3.1180   11.9600   -4.0990 C   0  0  1  0  0  0  0  0  0  0  0  0
    3.1440   11.3500   -5.5250 C   0  0  0  0  0  0  0  0  0  0  0  0
    4.5340   11.3900   -6.1530 C   0  0  0  0  0  0  0  0  0  0  0  0
    5.5450   10.6440   -5.2860 C   0  0  2  0  0  0  0  0  0  0  0  0
    5.2160    9.2510   -5.2890 O   0  0  0  0  0  0  0  0  0  0  0  0
    5.6000   11.1640   -3.8220 C   0  0  0  0  0  0  0  0  0  0  0  0
    6.2440   12.5730   -3.7950 C   0  0  0  0  0  0  0  0  0  0  0  0
    6.5530   10.2370   -3.0210 C   0  0  0  0  0  0  0  0  0  0  0  0
    1.6510   12.0240   -3.4900 C   0  0  1  0  0  0  0  0  0  0  0  0
    0.8690   10.7230   -3.8470 C   0  0  0  0  0  0  0  0  0  0  0  0
    0.8670   13.2120   -4.1630 C   0  0  0  0  0  0  0  0  0  0  0  0
    1.0090   14.5980   -3.5060 C   0  0  0  0  0  0  0  0  0  0  0  0
    0.7670   14.5170   -1.9960 C   0  0  2  0  0  0  0  0  0  0  0  0
   -0.7100   14.0470   -1.7720 C   0  0  0  0  0  0  0  0  0  0  0  0
    0.4085   18.7993   -2.1277 H   0  0  0  0  0  0  0  0  0  0  0  0
    0.9603   17.3800   -3.0804 H   0  0  0  0  0  0  0  0  0  0  0  0
   -0.7756   17.8418   -3.0804 H   0  0  0  0  0  0  0  0  0  0  0  0
   -1.0815   16.4045   -1.3999 H   0  0  0  0  0  0  0  0  0  0  0  0
   -1.2070   17.7697    0.3653 H   0  0  0  0  0  0  0  0  0  0  0  0
    0.4506   17.1266    0.7906 H   0  0  0  0  0  0  0  0  0  0  0  0
    0.7629   19.2593   -1.0853 H   0  0  0  0  0  0  0  0  0  0  0  0
   -0.3315   19.8085    0.2515 H   0  0  0  0  0  0  0  0  0  0  0  0
    0.9955   19.0626    1.7467 H   0  0  0  0  0  0  0  0  0  0  0  0
    3.7981   17.2059   -0.6586 H   0  0  0  0  0  0  0  0  0  0  0  0
    2.3977   18.0591   -1.3918 H   0  0  0  0  0  0  0  0  0  0  0  0
    4.0198   18.8307   -1.3918 H   0  0  0  0  0  0  0  0  0  0  0  0
    3.5089   18.7025    2.5704 H   0  0  0  0  0  0  0  0  0  0  0  0
    4.3977   17.5491    1.5185 H   0  0  0  0  0  0  0  0  0  0  0  0
    4.8412   19.2898    1.5185 H   0  0  0  0  0  0  0  0  0  0  0  0
    1.8306   16.3860   -1.6054 H   0  0  0  0  0  0  0  0  0  0  0  0
    2.0319   15.8406    0.7393 H   0  0  0  0  0  0  0  0  0  0  0  0
    0.3066   15.4393    0.8739 H   0  0  0  0  0  0  0  0  0  0  0  0
    2.4466   13.5498    0.7461 H   0  0  0  0  0  0  0  0  0  0  0  0
    0.7510   13.1400    0.4983 H   0  0  0  0  0  0  0  0  0  0  0  0
    3.7935   14.2246   -0.5716 H   0  0  0  0  0  0  0  0  0  0  0  0
    3.8977   13.3124   -2.1155 H   0  0  0  0  0  0  0  0  0  0  0  0
    3.3282   15.0161   -2.1155 H   0  0  0  0  0  0  0  0  0  0  0  0
    0.6428   11.8842   -1.5699 H   0  0  0  0  0  0  0  0  0  0  0  0
    2.7945   11.3681   -0.2493 H   0  0  0  0  0  0  0  0  0  0  0  0
    2.0296   10.1100   -1.3539 H   0  0  0  0  0  0  0  0  0  0  0  0
    4.6560   10.2939   -1.4403 H   0  0  0  0  0  0  0  0  0  0  0  0
    3.4050   13.0210   -4.1413 H   0  0  0  0  0  0  0  0  0  0  0  0
    2.8134   10.3025   -5.4665 H   0  0  0  0  0  0  0  0  0  0  0  0
    2.4743   11.9510   -6.1576 H   0  0  0  0  0  0  0  0  0  0  0  0
    4.4942   10.9188   -7.1462 H   0  0  0  0  0  0  0  0  0  0  0  0
    4.8511   12.4398   -6.2383 H   0  0  0  0  0  0  0  0  0  0  0  0
    6.5414   10.8185   -5.7182 H   0  0  0  0  0  0  0  0  0  0  0  0
    5.9570    8.7740   -5.6990 H   0  0  0  0  0  0  0  0  0  0  0  0
    6.3889   12.8900   -2.7517 H   0  0  0  0  0  0  0  0  0  0  0  0
    7.2170   12.5413   -4.3071 H   0  0  0  0  0  0  0  0  0  0  0  0
    5.5833   13.2880   -4.3071 H   0  0  0  0  0  0  0  0  0  0  0  0
    6.3945   10.3912   -1.9435 H   0  0  0  0  0  0  0  0  0  0  0  0
    6.3437    9.1876   -3.2759 H   0  0  0  0  0  0  0  0  0  0  0  0
    7.5962   10.4752   -3.2759 H   0  0  0  0  0  0  0  0  0  0  0  0
    0.5628   10.2136   -2.9214 H   0  0  0  0  0  0  0  0  0  0  0  0
   -0.0235   10.9815   -4.4357 H   0  0  0  0  0  0  0  0  0  0  0  0
    1.5161   10.0561   -4.4357 H   0  0  0  0  0  0  0  0  0  0  0  0
    1.2202   13.2980   -5.2012 H   0  0  0  0  0  0  0  0  0  0  0  0
   -0.1965   12.9512   -4.0581 H   0  0  0  0  0  0  0  0  0  0  0  0
    2.0245   14.9798   -3.6876 H   0  0  0  0  0  0  0  0  0  0  0  0
    0.2594   15.2725   -3.9454 H   0  0  0  0  0  0  0  0  0  0  0  0
   -0.9145   13.9819   -0.6931 H   0  0  0  0  0  0  0  0  0  0  0  0
   -1.3988   14.7703   -2.2328 H   0  0  0  0  0  0  0  0  0  0  0  0
   -0.8541   13.0586   -2.2328 H   0  0  0  0  0  0  0  0  0  0  0  0
  1  2  1  0
  2  3  1  0
  3  4  1  0
  4  5  1  0
  5  6  1  0
  6  7  1  0
  7  8  1  0
  7  9  1  0
  2 10  1  0
 10 11  1  0
 11 12  1  0
 12 13  1  0
 13 14  1  1
 13 15  1  0
 15 16  1  0
 16 17  1  0
 17 18  2  0
 18 19  1  0
 19 20  1  0
 20 21  1  0
 21 22  1  0
 22 23  1  0
 22 24  1  0
 24 25  1  0
 24 26  1  0
 19 27  1  0
 27 28  1  1
 27 29  1  0
 29 30  1  0
 30 31  1  0
 31 32  1  6
  7  5  1  0
 31 10  1  0
 31 13  1  0
 27 15  1  0
 24 18  1  0
  1 33  1  0
  1 34  1  0
  1 35  1  0
  2 36  1  6
  3 37  1  0
  3 38  1  0
  4 39  1  0
  4 40  1  0
  5 41  1  1
  8 42  1  0
  8 43  1  0
  8 44  1  0
  9 45  1  0
  9 46  1  0
  9 47  1  0
 10 48  1  6
 11 49  1  0
 11 50  1  0
 12 51  1  0
 12 52  1  0
 14 53  1  0
 14 54  1  0
 14 55  1  0
 15 56  1  1
 16 57  1  0
 16 58  1  0
 17 59  1  0
 19 60  1  6
 20 61  1  0
 20 62  1  0
 21 63  1  0
 21 64  1  0
 22 65  1  6
 23 66  1  0
 25 67  1  0
 25 68  1  0
 25 69  1  0
 26 70  1  0
 26 71  1  0
 26 72  1  0
 28 73  1  0
 28 74  1  0
 28 75  1  0
 29 76  1  0
 29 77  1  0
 30 78  1  0
 30 79  1  0
 32 80  1  0
 32 81  1  0
 32 82  1  0
M  END
>  <meeko>  (10) 
{"is_sidechain": [false], "intermolecular_energy": 2.731, "internal_energy": -0.839}

$$$$
EPH_relaxed_0001_pdb2pqr_Repair_293_r2_0001_out
     RDKit          3D

 82 86  0  0  0  0  0  0  0  0999 V2000
   -0.2870   15.1260   -7.6490 C   0  0  0  0  0  0  0  0  0  0  0  0
    1.0750   15.1040   -6.9500 C   0  0  2  0  0  0  0  0  0  0  0  0
    2.2430   15.2140   -7.9510 C   0  0  0  0  0  0  0  0  0  0  0  0
    2.2530   16.5250   -8.7420 C   0  0  0  0  0  0  0  0  0  0  0  0
    1.8560   16.3130  -10.1720 C   0  0  2  0  0  0  0  0  0  0  0  0
    1.1980   15.0660  -10.4310 O   0  0  0  0  0  0  0  0  0  0  0  0
    2.4750   15.2520  -11.0630 C   0  0  0  0  0  0  0  0  0  0  0  0
    3.5430   14.3340  -10.5580 C   0  0  0  0  0  0  0  0  0  0  0  0
    2.3930   15.4280  -12.5470 C   0  0  0  0  0  0  0  0  0  0  0  0
    1.2150   13.8310   -6.1240 C   0  0  1  0  0  0  0  0  0  0  0  0
    2.6400   13.2210   -6.2030 C   0  0  0  0  0  0  0  0  0  0  0  0
    2.9400   12.6020   -4.8140 C   0  0  0  0  0  0  0  0  0  0  0  0
    1.5710   12.5800   -4.0930 C   0  0  1  0  0  0  0  0  0  0  0  0
    0.8490   11.3100   -4.6440 C   0  0  0  0  0  0  0  0  0  0  0  0
    1.6130   12.5880   -2.5310 C   0  0  2  0  0  0  0  0  0  0  0  0
    2.2960   11.3680   -1.8890 C   0  0  0  0  0  0  0  0  0  0  0  0
    1.3920   10.2210   -1.5790 C   0  0  0  0  0  0  0  0  0  0  0  0
    0.0480   10.2730   -1.5400 C   0  0  0  0  0  0  0  0  0  0  0  0
   -0.6950   11.6020   -1.7300 C   0  0  1  0  0  0  0  0  0  0  0  0
   -1.7900   11.7430   -0.6400 C   0  0  0  0  0  0  0  0  0  0  0  0
   -2.7360   10.5460   -0.6030 C   0  0  0  0  0  0  0  0  0  0  0  0
   -1.9670    9.2510   -0.3550 C   0  0  2  0  0  0  0  0  0  0  0  0
   -1.4190    9.2860    0.9670 O   0  0  0  0  0  0  0  0  0  0  0  0
   -0.8300    9.0060   -1.3860 C   0  0  0  0  0  0  0  0  0  0  0  0
   -1.4430    8.6690   -2.7670 C   0  0  0  0  0  0  0  0  0  0  0  0
   -0.0440    7.7440   -0.9390 C   0  0  0  0  0  0  0  0  0  0  0  0
    0.2190   12.8970   -1.8470 C   0  0  1  0  0  0  0  0  0  0  0  0
    0.5350   13.4560   -0.4260 C   0  0  0  0  0  0  0  0  0  0  0  0
   -0.5800   14.0240   -2.6000 C   0  0  0  0  0  0  0  0  0  0  0  0
   -0.4850   14.0350   -4.1380 C   0  0  0  0  0  0  0  0  0  0  0  0
    0.9730   13.9430   -4.5980 C   0  0  2  0  0  0  0  0  0  0  0  0
    1.7190   15.2190   -4.0780 C   0  0  0  0  0  0  0  0  0  0  0  0
   -1.0866   15.1389   -6.8937 H   0  0  0  0  0  0  0  0  0  0  0  0
   -0.3620   16.0255   -8.2778 H   0  0  0  0  0  0  0  0  0  0  0  0
   -0.3910   14.2294   -8.2778 H   0  0  0  0  0  0  0  0  0  0  0  0
    1.1223   15.9824   -6.2896 H   0  0  0  0  0  0  0  0  0  0  0  0
    3.1876   15.1380   -7.3925 H   0  0  0  0  0  0  0  0  0  0  0  0
    2.1202   14.3993   -8.6798 H   0  0  0  0  0  0  0  0  0  0  0  0
    1.5464   17.2277   -8.2763 H   0  0  0  0  0  0  0  0  0  0  0  0
    3.2768   16.9270   -8.7264 H   0  0  0  0  0  0  0  0  0  0  0  0
    1.6945   17.3920  -10.3126 H   0  0  0  0  0  0  0  0  0  0  0  0
    3.5393   14.3372   -9.4580 H   0  0  0  0  0  0  0  0  0  0  0  0
    3.3520   13.3138  -10.9223 H   0  0  0  0  0  0  0  0  0  0  0  0
    4.5229   14.6760  -10.9223 H   0  0  0  0  0  0  0  0  0  0  0  0
    1.9386   16.4032  -12.7760 H   0  0  0  0  0  0  0  0  0  0  0  0
    3.4042   15.3844  -12.9778 H   0  0  0  0  0  0  0  0  0  0  0  0
    1.7759   14.6258  -12.9778 H   0  0  0  0  0  0  0  0  0  0  0  0
    0.4237   13.2233   -6.5871 H   0  0  0  0  0  0  0  0  0  0  0  0
    2.6764   12.4432   -6.9800 H   0  0  0  0  0  0  0  0  0  0  0  0
    3.3841   13.9887   -6.4620 H   0  0  0  0  0  0  0  0  0  0  0  0
    3.3390   11.5825   -4.9211 H   0  0  0  0  0  0  0  0  0  0  0  0
    3.6961   13.1744   -4.2566 H   0  0  0  0  0  0  0  0  0  0  0  0
    0.4986   10.6936   -3.8030 H   0  0  0  0  0  0  0  0  0  0  0  0
   -0.0109   11.6147   -5.2586 H   0  0  0  0  0  0  0  0  0  0  0  0
    1.5507   10.7270   -5.2586 H   0  0  0  0  0  0  0  0  0  0  0  0
    2.2706   13.4436   -2.3177 H   0  0  0  0  0  0  0  0  0  0  0  0
    3.0735   11.0108   -2.5803 H   0  0  0  0  0  0  0  0  0  0  0  0
    2.6911   11.7140   -0.9225 H   0  0  0  0  0  0  0  0  0  0  0  0
    1.8647    9.2512   -1.3643 H   0  0  0  0  0  0  0  0  0  0  0  0
   -1.1620   11.5498   -2.7246 H   0  0  0  0  0  0  0  0  0  0  0  0
   -1.3012   11.8366    0.3410 H   0  0  0  0  0  0  0  0  0  0  0  0
   -2.3882   12.6342   -0.8808 H   0  0  0  0  0  0  0  0  0  0  0  0
   -3.4681   10.6905    0.2052 H   0  0  0  0  0  0  0  0  0  0  0  0
   -3.2460   10.4711   -1.5748 H   0  0  0  0  0  0  0  0  0  0  0  0
   -2.6774    8.4189   -0.4687 H   0  0  0  0  0  0  0  0  0  0  0  0
   -1.7010    8.4760    1.4240 H   0  0  0  0  0  0  0  0  0  0  0  0
   -2.3989    8.1435   -2.6255 H   0  0  0  0  0  0  0  0  0  0  0  0
   -1.6155    9.5991   -3.3284 H   0  0  0  0  0  0  0  0  0  0  0  0
   -0.7501    8.0250   -3.3284 H   0  0  0  0  0  0  0  0  0  0  0  0
   -0.0162    7.6994    0.1597 H   0  0  0  0  0  0  0  0  0  0  0  0
   -0.5418    6.8444   -1.3300 H   0  0  0  0  0  0  0  0  0  0  0  0
    0.9829    7.7940   -1.3300 H   0  0  0  0  0  0  0  0  0  0  0  0
    0.1442   12.7647    0.3352 H   0  0  0  0  0  0  0  0  0  0  0  0
    1.6237   13.5568   -0.3054 H   0  0  0  0  0  0  0  0  0  0  0  0
    0.0600   14.4408   -0.3054 H   0  0  0  0  0  0  0  0  0  0  0  0
   -1.6415   13.9141   -2.3331 H   0  0  0  0  0  0  0  0  0  0  0  0
   -0.1182   14.9686   -2.2767 H   0  0  0  0  0  0  0  0  0  0  0  0
   -1.0437   13.1766   -4.5392 H   0  0  0  0  0  0  0  0  0  0  0  0
   -0.9108   14.9790   -4.5089 H   0  0  0  0  0  0  0  0  0  0  0  0
    1.7199   15.2205   -2.9780 H   0  0  0  0  0  0  0  0  0  0  0  0
    2.7558   15.2129   -4.4455 H   0  0  0  0  0  0  0  0  0  0  0  0
    1.2051   16.1195   -4.4455 H   0  0  0  0  0  0  0  0  0  0  0  0
  1  2  1  0
  2  3  1  0
  3  4  1  0
  4  5  1  0
  5  6  1  0
  6  7  1  0
  7  8  1  0
  7  9  1  0
  2 10  1  0
 10 11  1  0
 11 12  1  0
 12 13  1  0
 13 14  1  1
 13 15  1  0
 15 16  1  0
 16 17  1  0
 17 18  2  0
 18 19  1  0
 19 20  1  0
 20 21  1  0
 21 22  1  0
 22 23  1  0
 22 24  1  0
 24 25  1  0
 24 26  1  0
 19 27  1  0
 27 28  1  1
 27 29  1  0
 29 30  1  0
 30 31  1  0
 31 32  1  1
  7  5  1  0
 31 10  1  0
 31 13  1  0
 27 15  1  0
 24 18  1  0
  1 33  1  0
  1 34  1  0
  1 35  1  0
  2 36  1  1
  3 37  1  0
  3 38  1  0
  4 39  1  0
  4 40  1  0
  5 41  1  6
  8 42  1  0
  8 43  1  0
  8 44  1  0
  9 45  1  0
  9 46  1  0
  9 47  1  0
 10 48  1  6
 11 49  1  0
 11 50  1  0
 12 51  1  0
 12 52  1  0
 14 53  1  0
 14 54  1  0
 14 55  1  0
 15 56  1  6
 16 57  1  0
 16 58  1  0
 17 59  1  0
 19 60  1  6
 20 61  1  0
 20 62  1  0
 21 63  1  0
 21 64  1  0
 22 65  1  1
 23 66  1  0
 25 67  1  0
 25 68  1  0
 25 69  1  0
 26 70  1  0
 26 71  1  0
 26 72  1  0
 28 73  1  0
 28 74  1  0
 28 75  1  0
 29 76  1  0
 29 77  1  0
 30 78  1  0
 30 79  1  0
 32 80  1  0
 32 81  1  0
 32 82  1  0
M  END
>  <meeko>  (11) 
{"is_sidechain": [false], "intermolecular_energy": 2.731, "internal_energy": -0.839}

$$$$
EPH_relaxed_0001_pdb2pqr_Repair_293_r2_0001_out
     RDKit          3D

 82 86  0  0  0  0  0  0  0  0999 V2000
    3.1380   18.6350   -0.9030 C   0  0  0  0  0  0  0  0  0  0  0  0
    2.8590   17.5980   -1.9940 C   0  0  2  0  0  0  0  0  0  0  0  0
    1.5300   17.8700   -2.7270 C   0  0  0  0  0  0  0  0  0  0  0  0
    0.8730   19.1970   -2.3370 C   0  0  0  0  0  0  0  0  0  0  0  0
   -0.5050   18.9920   -1.7850 C   0  0  2  0  0  0  0  0  0  0  0  0
   -1.2650   20.1940   -1.6080 O   0  0  0  0  0  0  0  0  0  0  0  0
   -0.9360   19.4710   -0.4110 C   0  0  0  0  0  0  0  0  0  0  0  0
    0.0110   20.1930    0.4950 C   0  0  0  0  0  0  0  0  0  0  0  0
   -2.1140   18.8140    0.2390 C   0  0  0  0  0  0  0  0  0  0  0  0
    2.8420   16.1990   -1.3890 C   0  0  1  0  0  0  0  0  0  0  0  0
    3.3020   16.1830    0.0930 C   0  0  0  0  0  0  0  0  0  0  0  0
    2.4690   15.0880    0.8080 C   0  0  0  0  0  0  0  0  0  0  0  0
    1.8060   14.2910   -0.3390 C   0  0  1  0  0  0  0  0  0  0  0  0
    2.9100   13.3060   -0.8340 C   0  0  0  0  0  0  0  0  0  0  0  0
    0.4810   13.5410    0.0160 C   0  0  2  0  0  0  0  0  0  0  0  0
    0.6180   12.4450    1.0870 C   0  0  0  0  0  0  0  0  0  0  0  0
    0.9210   11.0790    0.5650 C   0  0  0  0  0  0  0  0  0  0  0  0
    0.7960   10.6860   -0.7160 C   0  0  0  0  0  0  0  0  0  0  0  0
    0.2160   11.6300   -1.7770 C   0  0  1  0  0  0  0  0  0  0  0  0
   -0.8340   10.8680   -2.6290 C   0  0  0  0  0  0  0  0  0  0  0  0
   -0.2750    9.5840   -3.2340 C   0  0  0  0  0  0  0  0  0  0  0  0
    0.2390    8.6470   -2.1440 C   0  0  2  0  0  0  0  0  0  0  0  0
   -0.8710    8.1940   -1.3630 O   0  0  0  0  0  0  0  0  0  0  0  0
    1.2960    9.3080   -1.2160 C   0  0  0  0  0  0  0  0  0  0  0  0
    2.6140    9.5240   -1.9990 C   0  0  0  0  0  0  0  0  0  0  0  0
    1.6260    8.3040   -0.0780 C   0  0  0  0  0  0  0  0  0  0  0  0
   -0.3290   13.0240   -1.2410 C   0  0  1  0  0  0  0  0  0  0  0  0
   -1.8130   12.8760   -0.7860 C   0  0  0  0  0  0  0  0  0  0  0  0
   -0.3280   14.0640   -2.4230 C   0  0  0  0  0  0  0  0  0  0  0  0
    0.9720   14.8590   -2.6480 C   0  0  0  0  0  0  0  0  0  0  0  0
    1.4800   15.4630   -1.3350 C   0  0  2  0  0  0  0  0  0  0  0  0
    0.3990   16.4760   -0.8250 C   0  0  0  0  0  0  0  0  0  0  0  0
    3.0128   18.1696    0.0858 H   0  0  0  0  0  0  0  0  0  0  0  0
    4.1681   19.0069   -1.0054 H   0  0  0  0  0  0  0  0  0  0  0  0
    2.4335   19.4736   -1.0054 H   0  0  0  0  0  0  0  0  0  0  0  0
    3.6674   17.6729   -2.7362 H   0  0  0  0  0  0  0  0  0  0  0  0
    1.7268   17.8846   -3.8092 H   0  0  0  0  0  0  0  0  0  0  0  0
    0.8335   17.0691   -2.4382 H   0  0  0  0  0  0  0  0  0  0  0  0
    1.4927   19.6910   -1.5742 H   0  0  0  0  0  0  0  0  0  0  0  0
    0.7913   19.8180   -3.2412 H   0  0  0  0  0  0  0  0  0  0  0  0
   -0.5846   18.0153   -2.2847 H   0  0  0  0  0  0  0  0  0  0  0  0
   -0.2563   19.9892    1.5424 H   0  0  0  0  0  0  0  0  0  0  0  0
    1.0373   19.8460    0.3043 H   0  0  0  0  0  0  0  0  0  0  0  0
   -0.0518   21.2745    0.3043 H   0  0  0  0  0  0  0  0  0  0  0  0
   -2.0093   18.8724    1.3324 H   0  0  0  0  0  0  0  0  0  0  0  0
   -3.0366   19.3279   -0.0690 H   0  0  0  0  0  0  0  0  0  0  0  0
   -2.1616   17.7591   -0.0690 H   0  0  0  0  0  0  0  0  0  0  0  0
    3.5180   15.6877   -2.0902 H   0  0  0  0  0  0  0  0  0  0  0  0
    4.3740   15.9440    0.1544 H   0  0  0  0  0  0  0  0  0  0  0  0
    3.1505   17.1653    0.5643 H   0  0  0  0  0  0  0  0  0  0  0  0
    3.1196   14.4355    1.4087 H   0  0  0  0  0  0  0  0  0  0  0  0
    1.7293   15.5134    1.5022 H   0  0  0  0  0  0  0  0  0  0  0  0
    3.4150   12.8554    0.0332 H   0  0  0  0  0  0  0  0  0  0  0  0
    2.4488   12.5139   -1.4421 H   0  0  0  0  0  0  0  0  0  0  0  0
    3.6446   13.8542   -1.4421 H   0  0  0  0  0  0  0  0  0  0  0  0
   -0.1225   14.3360    0.4784 H   0  0  0  0  0  0  0  0  0  0  0  0
    1.4300   12.7361    1.7696 H   0  0  0  0  0  0  0  0  0  0  0  0
   -0.3642   12.3732    1.5771 H   0  0  0  0  0  0  0  0  0  0  0  0
    1.2764   10.3308    1.2888 H   0  0  0  0  0  0  0  0  0  0  0  0
    1.0626   11.9330   -2.4106 H   0  0  0  0  0  0  0  0  0  0  0  0
   -1.6902   10.6121   -1.9876 H   0  0  0  0  0  0  0  0  0  0  0  0
   -1.1324   11.5260   -3.4585 H   0  0  0  0  0  0  0  0  0  0  0  0
   -1.0702    9.0764   -3.7997 H   0  0  0  0  0  0  0  0  0  0  0  0
    0.5627    9.8439   -3.8978 H   0  0  0  0  0  0  0  0  0  0  0  0
    0.7423    7.8059   -2.6433 H   0  0  0  0  0  0  0  0  0  0  0  0
   -1.1160    7.3100   -1.6850 H   0  0  0  0  0  0  0  0  0  0  0  0
    3.4438    9.6600   -1.2898 H   0  0  0  0  0  0  0  0  0  0  0  0
    2.8126    8.6464   -2.6318 H   0  0  0  0  0  0  0  0  0  0  0  0
    2.5221   10.4191   -2.6318 H   0  0  0  0  0  0  0  0  0  0  0  0
    1.4666    8.7889    0.8964 H   0  0  0  0  0  0  0  0  0  0  0  0
    0.9693    7.4255   -0.1622 H   0  0  0  0  0  0  0  0  0  0  0  0
    2.6758    7.9864   -0.1622 H   0  0  0  0  0  0  0  0  0  0  0  0
   -1.8608   12.8712    0.3129 H   0  0  0  0  0  0  0  0  0  0  0  0
   -2.4017   13.7199   -1.1750 H   0  0  0  0  0  0  0  0  0  0  0  0
   -2.2234   11.9325   -1.1750 H   0  0  0  0  0  0  0  0  0  0  0  0
   -0.5463   13.5140   -3.3503 H   0  0  0  0  0  0  0  0  0  0  0  0
   -1.0808   14.8163   -2.1448 H   0  0  0  0  0  0  0  0  0  0  0  0
    1.7401   14.1849   -3.0548 H   0  0  0  0  0  0  0  0  0  0  0  0
    0.7649   15.6773   -3.3533 H   0  0  0  0  0  0  0  0  0  0  0  0
    0.3923   16.4822    0.2750 H   0  0  0  0  0  0  0  0  0  0  0  0
    0.6370   17.4838   -1.1960 H   0  0  0  0  0  0  0  0  0  0  0  0
   -0.5913   16.1731   -1.1960 H   0  0  0  0  0  0  0  0  0  0  0  0
  1  2  1  0
  2  3  1  0
  3  4  1  0
  4  5  1  0
  5  6  1  0
  6  7  1  0
  7  8  1  0
  7  9  1  0
  2 10  1  0
 10 11  1  0
 11 12  1  0
 12 13  1  0
 13 14  1  6
 13 15  1  0
 15 16  1  0
 16 17  1  0
 17 18  2  0
 18 19  1  0
 19 20  1  0
 20 21  1  0
 21 22  1  0
 22 23  1  0
 22 24  1  0
 24 25  1  0
 24 26  1  0
 19 27  1  0
 27 28  1  1
 27 29  1  0
 29 30  1  0
 30 31  1  0
 31 32  1  1
  7  5  1  0
 31 10  1  0
 31 13  1  0
 27 15  1  0
 24 18  1  0
  1 33  1  0
  1 34  1  0
  1 35  1  0
  2 36  1  6
  3 37  1  0
  3 38  1  0
  4 39  1  0
  4 40  1  0
  5 41  1  6
  8 42  1  0
  8 43  1  0
  8 44  1  0
  9 45  1  0
  9 46  1  0
  9 47  1  0
 10 48  1  6
 11 49  1  0
 11 50  1  0
 12 51  1  0
 12 52  1  0
 14 53  1  0
 14 54  1  0
 14 55  1  0
 15 56  1  1
 16 57  1  0
 16 58  1  0
 17 59  1  0
 19 60  1  6
 20 61  1  0
 20 62  1  0
 21 63  1  0
 21 64  1  0
 22 65  1  6
 23 66  1  0
 25 67  1  0
 25 68  1  0
 25 69  1  0
 26 70  1  0
 26 71  1  0
 26 72  1  0
 28 73  1  0
 28 74  1  0
 28 75  1  0
 29 76  1  0
 29 77  1  0
 30 78  1  0
 30 79  1  0
 32 80  1  0
 32 81  1  0
 32 82  1  0
M  END
>  <meeko>  (12) 
{"is_sidechain": [false], "intermolecular_energy": 2.731, "internal_energy": -0.839}

$$$$
EPH_relaxed_0001_pdb2pqr_Repair_293_r2_0001_out
     RDKit          3D

 82 86  0  0  0  0  0  0  0  0999 V2000
    0.1470    9.3570   -2.2780 C   0  0  0  0  0  0  0  0  0  0  0  0
    1.2110   10.3590   -2.7350 C   0  0  2  0  0  0  0  0  0  0  0  0
    2.6130    9.7220   -2.8120 C   0  0  0  0  0  0  0  0  0  0  0  0
    3.5330   10.3810   -3.8430 C   0  0  0  0  0  0  0  0  0  0  0  0
    4.9180   10.5760   -3.3060 C   0  0  2  0  0  0  0  0  0  0  0  0
    5.4910   11.8620   -3.5780 O   0  0  0  0  0  0  0  0  0  0  0  0
    6.1430   10.7350   -4.1870 C   0  0  0  0  0  0  0  0  0  0  0  0
    6.0390   10.7060   -5.6800 C   0  0  0  0  0  0  0  0  0  0  0  0
    7.4880   10.4300   -3.6050 C   0  0  0  0  0  0  0  0  0  0  0  0
    1.2350   11.5580   -1.7940 C   0  0  1  0  0  0  0  0  0  0  0  0
    2.3380   11.4430   -0.7080 C   0  0  0  0  0  0  0  0  0  0  0  0
    2.8620   12.8790   -0.4490 C   0  0  0  0  0  0  0  0  0  0  0  0
    1.8290   13.8010   -1.1380 C   0  0  1  0  0  0  0  0  0  0  0  0
    0.6490   13.9120   -0.1220 C   0  0  0  0  0  0  0  0  0  0  0  0
    2.3460   15.2090   -1.5790 C   0  0  2  0  0  0  0  0  0  0  0  0
    2.8230   16.1180   -0.4330 C   0  0  0  0  0  0  0  0  0  0  0  0
    1.7740   16.9990    0.1610 C   0  0  0  0  0  0  0  0  0  0  0  0
    0.5760   17.2700   -0.3900 C   0  0  0  0  0  0  0  0  0  0  0  0
    0.2130   16.7420   -1.7840 C   0  0  1  0  0  0  0  0  0  0  0  0
   -0.4130   17.8870   -2.6240 C   0  0  0  0  0  0  0  0  0  0  0  0
   -1.5960   18.5460   -1.9230 C   0  0  0  0  0  0  0  0  0  0  0  0
   -1.1820   19.1090   -0.5660 C   0  0  2  0  0  0  0  0  0  0  0  0
   -0.2710   20.1920   -0.7750 O   0  0  0  0  0  0  0  0  0  0  0  0
   -0.5300   18.0490    0.3640 C   0  0  0  0  0  0  0  0  0  0  0  0
   -1.6040   17.0370    0.8330 C   0  0  0  0  0  0  0  0  0  0  0  0
   -0.0310   18.7760    1.6420 C   0  0  0  0  0  0  0  0  0  0  0  0
    1.3720   15.9790   -2.5600 C   0  0  1  0  0  0  0  0  0  0  0  0
    2.2480   17.0010   -3.3460 C   0  0  0  0  0  0  0  0  0  0  0  0
    0.7290   15.0260   -3.6360 C   0  0  0  0  0  0  0  0  0  0  0  0
    0.3490   13.6080   -3.1690 C   0  0  0  0  0  0  0  0  0  0  0  0
    1.5110   12.9480   -2.4200 C   0  0  2  0  0  0  0  0  0  0  0  0
    2.7060   12.8020   -3.4230 C   0  0  0  0  0  0  0  0  0  0  0  0
    0.1176    9.3293   -1.1787 H   0  0  0  0  0  0  0  0  0  0  0  0
   -0.8362    9.6648   -2.6635 H   0  0  0  0  0  0  0  0  0  0  0  0
    0.3953    8.3571   -2.6635 H   0  0  0  0  0  0  0  0  0  0  0  0
    0.9413   10.6881   -3.7494 H   0  0  0  0  0  0  0  0  0  0  0  0
    3.0861    9.8033   -1.8223 H   0  0  0  0  0  0  0  0  0  0  0  0
    2.4743    8.6771   -3.1266 H   0  0  0  0  0  0  0  0  0  0  0  0
    3.5839    9.7408   -4.7360 H   0  0  0  0  0  0  0  0  0  0  0  0
    3.1187   11.3697   -4.0896 H   0  0  0  0  0  0  0  0  0  0  0  0
    4.7042    9.9166   -2.4519 H   0  0  0  0  0  0  0  0  0  0  0  0
    5.0171   10.4211   -5.9709 H   0  0  0  0  0  0  0  0  0  0  0  0
    6.2705   11.7030   -6.0831 H   0  0  0  0  0  0  0  0  0  0  0  0
    6.7530    9.9727   -6.0831 H   0  0  0  0  0  0  0  0  0  0  0  0
    7.4242   10.4445   -2.5069 H   0  0  0  0  0  0  0  0  0  0  0  0
    7.8154    9.4348   -3.9402 H   0  0  0  0  0  0  0  0  0  0  0  0
    8.2127   11.1866   -3.9402 H   0  0  0  0  0  0  0  0  0  0  0  0
    0.2036   11.5148   -1.4139 H   0  0  0  0  0  0  0  0  0  0  0  0
    1.9169   11.0209    0.2164 H   0  0  0  0  0  0  0  0  0  0  0  0
    3.1507   10.7797   -1.0391 H   0  0  0  0  0  0  0  0  0  0  0  0
    2.9089   13.0866    0.6302 H   0  0  0  0  0  0  0  0  0  0  0  0
    3.8799   13.0284   -0.8384 H   0  0  0  0  0  0  0  0  0  0  0  0
    1.0438   13.8749    0.9040 H   0  0  0  0  0  0  0  0  0  0  0  0
    0.1200   14.8639   -0.2771 H   0  0  0  0  0  0  0  0  0  0  0  0
   -0.0483   13.0755   -0.2771 H   0  0  0  0  0  0  0  0  0  0  0  0
    3.2482   14.9582   -2.1562 H   0  0  0  0  0  0  0  0  0  0  0  0
    3.2207   15.4761    0.3669 H   0  0  0  0  0  0  0  0  0  0  0  0
    3.5738   16.7918   -0.8714 H   0  0  0  0  0  0  0  0  0  0  0  0
    1.9992   17.4662    1.1311 H   0  0  0  0  0  0  0  0  0  0  0  0
   -0.5299   15.9466   -1.6245 H   0  0  0  0  0  0  0  0  0  0  0  0
    0.3571   18.6503   -2.8092 H   0  0  0  0  0  0  0  0  0  0  0  0
   -0.7825   17.4491   -3.5630 H   0  0  0  0  0  0  0  0  0  0  0  0
   -1.9762   19.3648   -2.5515 H   0  0  0  0  0  0  0  0  0  0  0  0
   -2.3770   17.7877   -1.7648 H   0  0  0  0  0  0  0  0  0  0  0  0
   -2.0957   19.4512   -0.0581 H   0  0  0  0  0  0  0  0  0  0  0  0
    0.4440   19.8690   -1.3490 H   0  0  0  0  0  0  0  0  0  0  0  0
   -1.6297   17.0128    1.9324 H   0  0  0  0  0  0  0  0  0  0  0  0
   -2.5886   17.3433    0.4499 H   0  0  0  0  0  0  0  0  0  0  0  0
   -1.3567   16.0360    0.4499 H   0  0  0  0  0  0  0  0  0  0  0  0
   -0.3962   18.2439    2.5328 H   0  0  0  0  0  0  0  0  0  0  0  0
    1.0689   18.7913    1.6493 H   0  0  0  0  0  0  0  0  0  0  0  0
   -0.4121   19.8078    1.6493 H   0  0  0  0  0  0  0  0  0  0  0  0
    2.7944   17.6385   -2.6353 H   0  0  0  0  0  0  0  0  0  0  0  0
    2.9658   16.4584   -3.9787 H   0  0  0  0  0  0  0  0  0  0  0  0
    1.6020   17.6274   -3.9787 H   0  0  0  0  0  0  0  0  0  0  0  0
   -0.1864   15.5111   -4.0057 H   0  0  0  0  0  0  0  0  0  0  0  0
    1.5115   14.8792   -4.3950 H   0  0  0  0  0  0  0  0  0  0  0  0
   -0.5215   13.6708   -2.4994 H   0  0  0  0  0  0  0  0  0  0  0  0
    0.1109   12.9992   -4.0537 H   0  0  0  0  0  0  0  0  0  0  0  0
    3.6446   12.6873   -2.8609 H   0  0  0  0  0  0  0  0  0  0  0  0
    2.5472   11.9166   -4.0561 H   0  0  0  0  0  0  0  0  0  0  0  0
    2.7651   13.6996   -4.0561 H   0  0  0  0  0  0  0  0  0  0  0  0
  1  2  1  0
  2  3  1  0
  3  4  1  0
  4  5  1  0
  5  6  1  0
  6  7  1  0
  7  8  1  0
  7  9  1  0
  2 10  1  0
 10 11  1  0
 11 12  1  0
 12 13  1  0
 13 14  1  1
 13 15  1  0
 15 16  1  0
 16 17  1  0
 17 18  2  0
 18 19  1  0
 19 20  1  0
 20 21  1  0
 21 22  1  0
 22 23  1  0
 22 24  1  0
 24 25  1  0
 24 26  1  0
 19 27  1  0
 27 28  1  6
 27 29  1  0
 29 30  1  0
 30 31  1  0
 31 32  1  6
  7  5  1  0
 31 10  1  0
 31 13  1  0
 27 15  1  0
 24 18  1  0
  1 33  1  0
  1 34  1  0
  1 35  1  0
  2 36  1  6
  3 37  1  0
  3 38  1  0
  4 39  1  0
  4 40  1  0
  5 41  1  1
  8 42  1  0
  8 43  1  0
  8 44  1  0
  9 45  1  0
  9 46  1  0
  9 47  1  0
 10 48  1  1
 11 49  1  0
 11 50  1  0
 12 51  1  0
 12 52  1  0
 14 53  1  0
 14 54  1  0
 14 55  1  0
 15 56  1  6
 16 57  1  0
 16 58  1  0
 17 59  1  0
 19 60  1  1
 20 61  1  0
 20 62  1  0
 21 63  1  0
 21 64  1  0
 22 65  1  1
 23 66  1  0
 25 67  1  0
 25 68  1  0
 25 69  1  0
 26 70  1  0
 26 71  1  0
 26 72  1  0
 28 73  1  0
 28 74  1  0
 28 75  1  0
 29 76  1  0
 29 77  1  0
 30 78  1  0
 30 79  1  0
 32 80  1  0
 32 81  1  0
 32 82  1  0
M  END
>  <meeko>  (13) 
{"is_sidechain": [false], "intermolecular_energy": 2.731, "internal_energy": -0.839}

$$$$
EPH_relaxed_0001_pdb2pqr_Repair_293_r2_0001_out
     RDKit          3D

 82 86  0  0  0  0  0  0  0  0999 V2000
    2.8180   11.3960   -5.3560 C   0  0  0  0  0  0  0  0  0  0  0  0
    1.8240   11.0880   -4.2330 C   0  0  2  0  0  0  0  0  0  0  0  0
    0.7100   10.1260   -4.6920 C   0  0  0  0  0  0  0  0  0  0  0  0
   -0.3600    9.8700   -3.6270 C   0  0  0  0  0  0  0  0  0  0  0  0
    0.1760    9.0580   -2.4870 C   0  0  2  0  0  0  0  0  0  0  0  0
   -0.6660    7.9720   -2.0770 O   0  0  0  0  0  0  0  0  0  0  0  0
   -0.4670    9.0190   -1.1130 C   0  0  0  0  0  0  0  0  0  0  0  0
   -1.7010    9.8070   -0.8060 C   0  0  0  0  0  0  0  0  0  0  0  0
    0.3720    8.6070    0.0570 C   0  0  0  0  0  0  0  0  0  0  0  0
    1.2120   12.3830   -3.7120 C   0  0  1  0  0  0  0  0  0  0  0  0
   -0.3230   12.2780   -3.5080 C   0  0  0  0  0  0  0  0  0  0  0  0
   -0.6700   13.1430   -2.2690 C   0  0  0  0  0  0  0  0  0  0  0  0
    0.6080   13.9740   -2.0030 C   0  0  1  0  0  0  0  0  0  0  0  0
    0.5300   15.1630   -3.0120 C   0  0  0  0  0  0  0  0  0  0  0  0
    0.8150   14.4740   -0.5360 C   0  0  2  0  0  0  0  0  0  0  0  0
   -0.2680   15.4360   -0.0160 C   0  0  0  0  0  0  0  0  0  0  0  0
    0.0020   16.8850   -0.2500 C   0  0  0  0  0  0  0  0  0  0  0  0
    1.1910   17.4140   -0.5950 C   0  0  0  0  0  0  0  0  0  0  0  0
    2.4460   16.5370   -0.6880 C   0  0  1  0  0  0  0  0  0  0  0  0
    3.6240   17.2400    0.0370 C   0  0  0  0  0  0  0  0  0  0  0  0
    3.8630   18.6570   -0.4750 C   0  0  0  0  0  0  0  0  0  0  0  0
    2.6110   19.5140   -0.3120 C   0  0  2  0  0  0  0  0  0  0  0  0
    2.3580   19.7000    1.0840 O   0  0  0  0  0  0  0  0  0  0  0  0
    1.3560   18.9020   -0.9930 C   0  0  0  0  0  0  0  0  0  0  0  0
    1.5090   18.9780   -2.5320 C   0  0  0  0  0  0  0  0  0  0  0  0
    0.1350   19.7910   -0.6340 C   0  0  0  0  0  0  0  0  0  0  0  0
    2.2680   15.0230   -0.2380 C   0  0  1  0  0  0  0  0  0  0  0  0
    2.4850   14.8970    1.3010 C   0  0  0  0  0  0  0  0  0  0  0  0
    3.3890   14.1500   -0.9170 C   0  0  0  0  0  0  0  0  0  0  0  0
    3.0780   13.5860   -2.3160 C   0  0  0  0  0  0  0  0  0  0  0  0
    1.7070   12.9010   -2.3390 C   0  0  2  0  0  0  0  0  0  0  0  0
    1.7630   11.6870   -1.3500 C   0  0  0  0  0  0  0  0  0  0  0  0
    3.7827   11.6949   -4.9200 H   0  0  0  0  0  0  0  0  0  0  0  0
    2.9586   10.4993   -5.9774 H   0  0  0  0  0  0  0  0  0  0  0  0
    2.4269   12.2151   -5.9774 H   0  0  0  0  0  0  0  0  0  0  0  0
    2.3799   10.5883   -3.4260 H   0  0  0  0  0  0  0  0  0  0  0  0
    0.2217   10.5578   -5.5781 H   0  0  0  0  0  0  0  0  0  0  0  0
    1.1885    9.1589   -4.9058 H   0  0  0  0  0  0  0  0  0  0  0  0
   -0.7162   10.8361   -3.2401 H   0  0  0  0  0  0  0  0  0  0  0  0
   -1.1807    9.3057   -4.0940 H   0  0  0  0  0  0  0  0  0  0  0  0
    1.2107    9.2404   -2.8127 H   0  0  0  0  0  0  0  0  0  0  0  0
   -1.8241    9.8856    0.2843 H   0  0  0  0  0  0  0  0  0  0  0  0
   -1.6098   10.8144   -1.2383 H   0  0  0  0  0  0  0  0  0  0  0  0
   -2.5765    9.3004   -1.2383 H   0  0  0  0  0  0  0  0  0  0  0  0
   -0.1499    8.8633    0.9908 H   0  0  0  0  0  0  0  0  0  0  0  0
    0.5452    7.5214    0.0198 H   0  0  0  0  0  0  0  0  0  0  0  0
    1.3370    9.1337    0.0198 H   0  0  0  0  0  0  0  0  0  0  0  0
    1.5281   13.0709   -4.5100 H   0  0  0  0  0  0  0  0  0  0  0  0
   -0.8499   12.6587   -4.3953 H   0  0  0  0  0  0  0  0  0  0  0  0
   -0.6309   11.2326   -3.3585 H   0  0  0  0  0  0  0  0  0  0  0  0
   -1.5244   13.8021   -2.4825 H   0  0  0  0  0  0  0  0  0  0  0  0
   -0.9585   12.5319   -1.4011 H   0  0  0  0  0  0  0  0  0  0  0  0
    0.4678   16.1110   -2.4575 H   0  0  0  0  0  0  0  0  0  0  0  0
    1.4298   15.1666   -3.6447 H   0  0  0  0  0  0  0  0  0  0  0  0
   -0.3626   15.0490   -3.6447 H   0  0  0  0  0  0  0  0  0  0  0  0
    0.6978   13.5492    0.0479 H   0  0  0  0  0  0  0  0  0  0  0  0
   -1.2157   15.1820   -0.5134 H   0  0  0  0  0  0  0  0  0  0  0  0
   -0.2946   15.3034    1.0757 H   0  0  0  0  0  0  0  0  0  0  0  0
   -0.8423   17.5799   -0.1304 H   0  0  0  0  0  0  0  0  0  0  0  0
    2.6720   16.4414   -1.7603 H   0  0  0  0  0  0  0  0  0  0  0  0
    3.3986   17.2869    1.1126 H   0  0  0  0  0  0  0  0  0  0  0  0
    4.5346   16.6553   -0.1603 H   0  0  0  0  0  0  0  0  0  0  0  0
    4.6870   19.1114    0.0946 H   0  0  0  0  0  0  0  0  0  0  0  0
    4.1169   18.6059   -1.5441 H   0  0  0  0  0  0  0  0  0  0  0  0
    2.8020   20.4746   -0.8128 H   0  0  0  0  0  0  0  0  0  0  0  0
    1.6070   20.3120    1.1680 H   0  0  0  0  0  0  0  0  0  0  0  0
    2.4684   19.4546   -2.7820 H   0  0  0  0  0  0  0  0  0  0  0  0
    1.4832   17.9623   -2.9536 H   0  0  0  0  0  0  0  0  0  0  0  0
    0.6841   19.5711   -2.9536 H   0  0  0  0  0  0  0  0  0  0  0  0
    0.0405   19.8598    0.4598 H   0  0  0  0  0  0  0  0  0  0  0  0
    0.2783   20.7976   -1.0537 H   0  0  0  0  0  0  0  0  0  0  0  0
   -0.7790   19.3455   -1.0537 H   0  0  0  0  0  0  0  0  0  0  0  0
    1.6508   15.3813    1.8298 H   0  0  0  0  0  0  0  0  0  0  0  0
    2.5276   13.8337    1.5794 H   0  0  0  0  0  0  0  0  0  0  0  0
    3.4296   15.3871    1.5794 H   0  0  0  0  0  0  0  0  0  0  0  0
    4.2906   14.7742   -1.0028 H   0  0  0  0  0  0  0  0  0  0  0  0
    3.4989   13.2679   -0.2690 H   0  0  0  0  0  0  0  0  0  0  0  0
    3.0809   14.4098   -3.0449 H   0  0  0  0  0  0  0  0  0  0  0  0
    3.8463   12.8418   -2.5729 H   0  0  0  0  0  0  0  0  0  0  0  0
    1.7459   12.0568   -0.3142 H   0  0  0  0  0  0  0  0  0  0  0  0
    0.8940   11.0346   -1.5208 H   0  0  0  0  0  0  0  0  0  0  0  0
    2.6884   11.1173   -1.5208 H   0  0  0  0  0  0  0  0  0  0  0  0
  1  2  1  0
  2  3  1  0
  3  4  1  0
  4  5  1  0
  5  6  1  0
  6  7  1  0
  7  8  1  0
  7  9  1  0
  2 10  1  0
 10 11  1  0
 11 12  1  0
 12 13  1  0
 13 14  1  6
 13 15  1  0
 15 16  1  0
 16 17  1  0
 17 18  2  0
 18 19  1  0
 19 20  1  0
 20 21  1  0
 21 22  1  0
 22 23  1  0
 22 24  1  0
 24 25  1  0
 24 26  1  0
 19 27  1  0
 27 28  1  1
 27 29  1  0
 29 30  1  0
 30 31  1  0
 31 32  1  1
  7  5  1  0
 31 10  1  0
 31 13  1  0
 27 15  1  0
 24 18  1  0
  1 33  1  0
  1 34  1  0
  1 35  1  0
  2 36  1  1
  3 37  1  0
  3 38  1  0
  4 39  1  0
  4 40  1  0
  5 41  1  1
  8 42  1  0
  8 43  1  0
  8 44  1  0
  9 45  1  0
  9 46  1  0
  9 47  1  0
 10 48  1  6
 11 49  1  0
 11 50  1  0
 12 51  1  0
 12 52  1  0
 14 53  1  0
 14 54  1  0
 14 55  1  0
 15 56  1  1
 16 57  1  0
 16 58  1  0
 17 59  1  0
 19 60  1  6
 20 61  1  0
 20 62  1  0
 21 63  1  0
 21 64  1  0
 22 65  1  6
 23 66  1  0
 25 67  1  0
 25 68  1  0
 25 69  1  0
 26 70  1  0
 26 71  1  0
 26 72  1  0
 28 73  1  0
 28 74  1  0
 28 75  1  0
 29 76  1  0
 29 77  1  0
 30 78  1  0
 30 79  1  0
 32 80  1  0
 32 81  1  0
 32 82  1  0
M  END
>  <meeko>  (14) 
{"is_sidechain": [false], "intermolecular_energy": 2.731, "internal_energy": -0.839}

$$$$
EPH_relaxed_0001_pdb2pqr_Repair_293_r2_0001_out
     RDKit          3D

 82 86  0  0  0  0  0  0  0  0999 V2000
   -2.3460    7.7420   -2.3800 C   0  0  0  0  0  0  0  0  0  0  0  0
   -2.3700    8.3220   -0.9630 C   0  0  2  0  0  0  0  0  0  0  0  0
   -3.7840    8.3000   -0.3500 C   0  0  0  0  0  0  0  0  0  0  0  0
   -4.8760    7.8790   -1.3370 C   0  0  0  0  0  0  0  0  0  0  0  0
   -6.0170    7.1980   -0.6440 C   0  0  2  0  0  0  0  0  0  0  0  0
   -6.5110    6.0290   -1.3110 O   0  0  0  0  0  0  0  0  0  0  0  0
   -7.4230    7.1340   -1.2120 C   0  0  0  0  0  0  0  0  0  0  0  0
   -7.7620    7.7630   -2.5270 C   0  0  0  0  0  0  0  0  0  0  0  0
   -8.5640    6.8930   -0.2730 C   0  0  0  0  0  0  0  0  0  0  0  0
   -1.8300    9.7480   -0.9760 C   0  0  1  0  0  0  0  0  0  0  0  0
   -1.4270   10.2470    0.4370 C   0  0  0  0  0  0  0  0  0  0  0  0
   -0.1920   11.1660    0.2510 C   0  0  0  0  0  0  0  0  0  0  0  0
   -0.1290   11.4310   -1.2720 C   0  0  1  0  0  0  0  0  0  0  0  0
   -1.1690   12.5670   -1.5250 C   0  0  0  0  0  0  0  0  0  0  0  0
    1.2760   11.7960   -1.8520 C   0  0  2  0  0  0  0  0  0  0  0  0
    1.8890   13.0980   -1.3070 C   0  0  0  0  0  0  0  0  0  0  0  0
    1.5600   14.3310   -2.0830 C   0  0  0  0  0  0  0  0  0  0  0  0
    1.0430   14.3580   -3.3250 C   0  0  0  0  0  0  0  0  0  0  0  0
    0.8280   13.0630   -4.1180 C   0  0  1  0  0  0  0  0  0  0  0  0
    1.3650   13.2440   -5.5620 C   0  0  0  0  0  0  0  0  0  0  0  0
    0.7660   14.4610   -6.2600 C   0  0  0  0  0  0  0  0  0  0  0  0
    1.0510   15.7370   -5.4720 C   0  0  2  0  0  0  0  0  0  0  0  0
    2.4590   15.9930   -5.5010 O   0  0  0  0  0  0  0  0  0  0  0  0
    0.5630   15.6680   -3.9970 C   0  0  0  0  0  0  0  0  0  0  0  0
   -0.9850   15.6950   -3.9600 C   0  0  0  0  0  0  0  0  0  0  0  0
    1.0370   16.9590   -3.2770 C   0  0  0  0  0  0  0  0  0  0  0  0
    1.3620   11.7330   -3.4310 C   0  0  1  0  0  0  0  0  0  0  0  0
    2.8650   11.5160   -3.7870 C   0  0  0  0  0  0  0  0  0  0  0  0
    0.5830   10.4990   -4.0240 C   0  0  0  0  0  0  0  0  0  0  0  0
   -0.7390   10.1150   -3.3320 C   0  0  0  0  0  0  0  0  0  0  0  0
   -0.5560   10.0190   -1.8140 C   0  0  2  0  0  0  0  0  0  0  0  0
    0.4690    8.8690   -1.5280 C   0  0  0  0  0  0  0  0  0  0  0  0
   -2.3006    6.6443   -2.3261 H   0  0  0  0  0  0  0  0  0  0  0  0
   -3.2575    8.0454   -2.9159 H   0  0  0  0  0  0  0  0  0  0  0  0
   -1.4627    8.1197   -2.9159 H   0  0  0  0  0  0  0  0  0  0  0  0
   -1.7283    7.6868   -0.3347 H   0  0  0  0  0  0  0  0  0  0  0  0
   -3.7862    7.5930    0.4927 H   0  0  0  0  0  0  0  0  0  0  0  0
   -4.0141    9.3286   -0.0354 H   0  0  0  0  0  0  0  0  0  0  0  0
   -5.2549    8.7739   -1.8524 H   0  0  0  0  0  0  0  0  0  0  0  0
   -4.4362    7.1686   -2.0524 H   0  0  0  0  0  0  0  0  0  0  0  0
   -5.6318    7.5028    0.3402 H   0  0  0  0  0  0  0  0  0  0  0  0
   -8.2774    8.7193   -2.3540 H   0  0  0  0  0  0  0  0  0  0  0  0
   -6.8383    7.9421   -3.0968 H   0  0  0  0  0  0  0  0  0  0  0  0
   -8.4195    7.0899   -3.0968 H   0  0  0  0  0  0  0  0  0  0  0  0
   -8.2070    6.9684    0.7647 H   0  0  0  0  0  0  0  0  0  0  0  0
   -9.3472    7.6455   -0.4469 H   0  0  0  0  0  0  0  0  0  0  0  0
   -8.9760    5.8880   -0.4469 H   0  0  0  0  0  0  0  0  0  0  0  0
   -2.6910   10.2666   -1.4230 H   0  0  0  0  0  0  0  0  0  0  0  0
   -2.2551   10.8121    0.8897 H   0  0  0  0  0  0  0  0  0  0  0  0
   -1.1946    9.4028    1.1028 H   0  0  0  0  0  0  0  0  0  0  0  0
   -0.3220   12.1079    0.8041 H   0  0  0  0  0  0  0  0  0  0  0  0
    0.7315   10.7064    0.6331 H   0  0  0  0  0  0  0  0  0  0  0  0
   -1.5268   12.9579   -0.5611 H   0  0  0  0  0  0  0  0  0  0  0  0
   -0.6941   13.3784   -2.0961 H   0  0  0  0  0  0  0  0  0  0  0  0
   -2.0190   12.1654   -2.0961 H   0  0  0  0  0  0  0  0  0  0  0  0
    1.9088   10.9835   -1.4654 H   0  0  0  0  0  0  0  0  0  0  0  0
    1.5290   13.2383   -0.2771 H   0  0  0  0  0  0  0  0  0  0  0  0
    2.9797   12.9747   -1.3791 H   0  0  0  0  0  0  0  0  0  0  0  0
    1.7569   15.2986   -1.5983 H   0  0  0  0  0  0  0  0  0  0  0  0
   -0.2594   12.8987   -4.1424 H   0  0  0  0  0  0  0  0  0  0  0  0
    2.4576   13.3640   -5.5195 H   0  0  0  0  0  0  0  0  0  0  0  0
    1.0780   12.3528   -6.1394 H   0  0  0  0  0  0  0  0  0  0  0  0
    1.2053   14.5524   -7.2643 H   0  0  0  0  0  0  0  0  0  0  0  0
   -0.3236   14.3261   -6.3276 H   0  0  0  0  0  0  0  0  0  0  0  0
    0.4892   16.5525   -5.9510 H   0  0  0  0  0  0  0  0  0  0  0  0
    2.8600   15.5190   -4.7530 H   0  0  0  0  0  0  0  0  0  0  0  0
   -1.3267   15.7010   -2.9144 H   0  0  0  0  0  0  0  0  0  0  0  0
   -1.3482   16.5996   -4.4696 H   0  0  0  0  0  0  0  0  0  0  0  0
   -1.3796   14.8036   -4.4696 H   0  0  0  0  0  0  0  0  0  0  0  0
    0.9832   16.8124   -2.1881 H   0  0  0  0  0  0  0  0  0  0  0  0
    2.0750   17.1802   -3.5663 H   0  0  0  0  0  0  0  0  0  0  0  0
    0.3887   17.7993   -3.5663 H   0  0  0  0  0  0  0  0  0  0  0  0
    3.4526   11.4312   -2.8610 H   0  0  0  0  0  0  0  0  0  0  0  0
    2.9728   10.5930   -4.3755 H   0  0  0  0  0  0  0  0  0  0  0  0
    3.2295   12.3708   -4.3755 H   0  0  0  0  0  0  0  0  0  0  0  0
    0.3548   10.7238   -5.0763 H   0  0  0  0  0  0  0  0  0  0  0  0
    1.2492    9.6372   -3.8710 H   0  0  0  0  0  0  0  0  0  0  0  0
   -1.4974   10.8799   -3.5553 H   0  0  0  0  0  0  0  0  0  0  0  0
   -1.0598    9.1328   -3.7093 H   0  0  0  0  0  0  0  0  0  0  0  0
    0.5829    8.7412   -0.4414 H   0  0  0  0  0  0  0  0  0  0  0  0
    0.1014    7.9316   -1.9709 H   0  0  0  0  0  0  0  0  0  0  0  0
    1.4423    9.1268   -1.9709 H   0  0  0  0  0  0  0  0  0  0  0  0
  1  2  1  0
  2  3  1  0
  3  4  1  0
  4  5  1  0
  5  6  1  0
  6  7  1  0
  7  8  1  0
  7  9  1  0
  2 10  1  0
 10 11  1  0
 11 12  1  0
 12 13  1  0
 13 14  1  1
 13 15  1  0
 15 16  1  0
 16 17  1  0
 17 18  2  0
 18 19  1  0
 19 20  1  0
 20 21  1  0
 21 22  1  0
 22 23  1  0
 22 24  1  0
 24 25  1  0
 24 26  1  0
 19 27  1  0
 27 28  1  1
 27 29  1  0
 29 30  1  0
 30 31  1  0
 31 32  1  6
  7  5  1  0
 31 10  1  0
 31 13  1  0
 27 15  1  0
 24 18  1  0
  1 33  1  0
  1 34  1  0
  1 35  1  0
  2 36  1  1
  3 37  1  0
  3 38  1  0
  4 39  1  0
  4 40  1  0
  5 41  1  1
  8 42  1  0
  8 43  1  0
  8 44  1  0
  9 45  1  0
  9 46  1  0
  9 47  1  0
 10 48  1  6
 11 49  1  0
 11 50  1  0
 12 51  1  0
 12 52  1  0
 14 53  1  0
 14 54  1  0
 14 55  1  0
 15 56  1  1
 16 57  1  0
 16 58  1  0
 17 59  1  0
 19 60  1  6
 20 61  1  0
 20 62  1  0
 21 63  1  0
 21 64  1  0
 22 65  1  6
 23 66  1  0
 25 67  1  0
 25 68  1  0
 25 69  1  0
 26 70  1  0
 26 71  1  0
 26 72  1  0
 28 73  1  0
 28 74  1  0
 28 75  1  0
 29 76  1  0
 29 77  1  0
 30 78  1  0
 30 79  1  0
 32 80  1  0
 32 81  1  0
 32 82  1  0
M  END
>  <meeko>  (15) 
{"is_sidechain": [false], "intermolecular_energy": 2.731, "internal_energy": -0.839}

$$$$
EPH_relaxed_0001_pdb2pqr_Repair_293_r2_0001_out
     RDKit          3D

 82 86  0  0  0  0  0  0  0  0999 V2000
    0.8650   14.7710   -2.6210 C   0  0  0  0  0  0  0  0  0  0  0  0
    1.1570   14.0890   -3.9600 C   0  0  2  0  0  0  0  0  0  0  0  0
    0.4990   14.8260   -5.1440 C   0  0  0  0  0  0  0  0  0  0  0  0
    1.2100   14.6030   -6.4810 C   0  0  0  0  0  0  0  0  0  0  0  0
    0.9530   15.7250   -7.4400 C   0  0  2  0  0  0  0  0  0  0  0  0
    0.4390   15.3170   -8.7150 O   0  0  0  0  0  0  0  0  0  0  0  0
    1.7390   15.9280   -8.7220 C   0  0  0  0  0  0  0  0  0  0  0  0
    2.8460   14.9990   -9.1130 C   0  0  0  0  0  0  0  0  0  0  0  0
    1.7620   17.2910   -9.3390 C   0  0  0  0  0  0  0  0  0  0  0  0
    0.6840   12.6410   -3.9200 C   0  0  1  0  0  0  0  0  0  0  0  0
    1.8010   11.6360   -4.3070 C   0  0  0  0  0  0  0  0  0  0  0  0
    1.5790   10.3660   -3.4460 C   0  0  0  0  0  0  0  0  0  0  0  0
    0.1670   10.5470   -2.8420 C   0  0  1  0  0  0  0  0  0  0  0  0
   -0.8130   10.1030   -3.9740 C   0  0  0  0  0  0  0  0  0  0  0  0
   -0.1150    9.7880   -1.5040 C   0  0  2  0  0  0  0  0  0  0  0  0
   -0.0340    8.2540   -1.5950 C   0  0  0  0  0  0  0  0  0  0  0  0
   -1.3170    7.5670   -1.9280 C   0  0  0  0  0  0  0  0  0  0  0  0
   -2.5410    8.1220   -1.8670 C   0  0  0  0  0  0  0  0  0  0  0  0
   -2.7330    9.5480   -1.3350 C   0  0  1  0  0  0  0  0  0  0  0  0
   -3.9160    9.5710   -0.3310 C   0  0  0  0  0  0  0  0  0  0  0  0
   -5.1970    8.9920   -0.9240 C   0  0  0  0  0  0  0  0  0  0  0  0
   -4.9820    7.5540   -1.3890 C   0  0  2  0  0  0  0  0  0  0  0  0
   -4.7400    6.7310   -0.2430 O   0  0  0  0  0  0  0  0  0  0  0  0
   -3.8080    7.4050   -2.3960 C   0  0  0  0  0  0  0  0  0  0  0  0
   -4.2000    8.0470   -3.7500 C   0  0  0  0  0  0  0  0  0  0  0  0
   -3.6070    5.8910   -2.6750 C   0  0  0  0  0  0  0  0  0  0  0  0
   -1.4310   10.2550   -0.7600 C   0  0  1  0  0  0  0  0  0  0  0  0
   -1.2460    9.8860    0.7440 C   0  0  0  0  0  0  0  0  0  0  0  0
   -1.6270   11.8160   -0.8130 C   0  0  0  0  0  0  0  0  0  0  0  0
   -1.2180   12.5230   -2.1190 C   0  0  0  0  0  0  0  0  0  0  0  0
    0.1840   12.0930   -2.5600 C   0  0  2  0  0  0  0  0  0  0  0  0
    1.1940   12.5460   -1.4510 C   0  0  0  0  0  0  0  0  0  0  0  0
    1.1521   14.1004   -1.7977 H   0  0  0  0  0  0  0  0  0  0  0  0
    1.4422   15.7048   -2.5516 H   0  0  0  0  0  0  0  0  0  0  0  0
   -0.2091   14.9978   -2.5516 H   0  0  0  0  0  0  0  0  0  0  0  0
    2.2454   14.1204   -4.1162 H   0  0  0  0  0  0  0  0  0  0  0  0
   -0.5383   14.4727   -5.2394 H   0  0  0  0  0  0  0  0  0  0  0  0
    0.5580   15.9023   -4.9248 H   0  0  0  0  0  0  0  0  0  0  0  0
    2.2926   14.5291   -6.3009 H   0  0  0  0  0  0  0  0  0  0  0  0
    0.8198   13.6758   -6.9260 H   0  0  0  0  0  0  0  0  0  0  0  0
    0.7026   16.4054   -6.6127 H   0  0  0  0  0  0  0  0  0  0  0  0
    3.3246   14.5974   -8.2077 H   0  0  0  0  0  0  0  0  0  0  0  0
    2.4360   14.1705   -9.7093 H   0  0  0  0  0  0  0  0  0  0  0  0
    3.5907   15.5465   -9.7093 H   0  0  0  0  0  0  0  0  0  0  0  0
    1.7749   18.0526   -8.5454 H   0  0  0  0  0  0  0  0  0  0  0  0
    2.6620   17.3961   -9.9626 H   0  0  0  0  0  0  0  0  0  0  0  0
    0.8660   17.4264   -9.9626 H   0  0  0  0  0  0  0  0  0  0  0  0
   -0.1524   12.7015   -4.6319 H   0  0  0  0  0  0  0  0  0  0  0  0
    1.7315   11.3857   -5.3759 H   0  0  0  0  0  0  0  0  0  0  0  0
    2.7977   12.0653   -4.1274 H   0  0  0  0  0  0  0  0  0  0  0  0
    1.6214    9.4612   -4.0702 H   0  0  0  0  0  0  0  0  0  0  0  0
    2.3517   10.2459   -2.6724 H   0  0  0  0  0  0  0  0  0  0  0  0
   -1.7278    9.6885   -3.5253 H   0  0  0  0  0  0  0  0  0  0  0  0
   -1.0714   10.9720   -4.5970 H   0  0  0  0  0  0  0  0  0  0  0  0
   -0.3301    9.3358   -4.5970 H   0  0  0  0  0  0  0  0  0  0  0  0
    0.7333   10.0946   -0.8743 H   0  0  0  0  0  0  0  0  0  0  0  0
    0.7007    7.9978   -2.3726 H   0  0  0  0  0  0  0  0  0  0  0  0
    0.2475    7.9037   -0.5910 H   0  0  0  0  0  0  0  0  0  0  0  0
   -1.2563    6.5172   -2.2509 H   0  0  0  0  0  0  0  0  0  0  0  0
   -2.9737   10.1692   -2.2103 H   0  0  0  0  0  0  0  0  0  0  0  0
   -3.6387    8.9802    0.5545 H   0  0  0  0  0  0  0  0  0  0  0  0
   -4.1132   10.6214   -0.0708 H   0  0  0  0  0  0  0  0  0  0  0  0
   -5.9873    9.0086   -0.1590 H   0  0  0  0  0  0  0  0  0  0  0  0
   -5.4887    9.6016   -1.7919 H   0  0  0  0  0  0  0  0  0  0  0  0
   -5.8924    7.2390   -1.9200 H   0  0  0  0  0  0  0  0  0  0  0  0
   -3.8190    6.8730    0.0320 H   0  0  0  0  0  0  0  0  0  0  0  0
   -4.7652    8.9727   -3.5669 H   0  0  0  0  0  0  0  0  0  0  0  0
   -3.2900    8.2802   -4.3224 H   0  0  0  0  0  0  0  0  0  0  0  0
   -4.8231    7.3441   -4.3224 H   0  0  0  0  0  0  0  0  0  0  0  0
   -3.5350    5.3487   -1.7207 H   0  0  0  0  0  0  0  0  0  0  0  0
   -4.4621    5.5076   -3.2510 H   0  0  0  0  0  0  0  0  0  0  0  0
   -2.6815    5.7440   -3.2510 H   0  0  0  0  0  0  0  0  0  0  0  0
   -1.6507   10.6933    1.3721 H   0  0  0  0  0  0  0  0  0  0  0  0
   -1.7813    8.9497    0.9604 H   0  0  0  0  0  0  0  0  0  0  0  0
   -0.1755    9.7548    0.9604 H   0  0  0  0  0  0  0  0  0  0  0  0
   -2.6936   12.0235   -0.6421 H   0  0  0  0  0  0  0  0  0  0  0  0
   -0.9505   12.2175   -0.0441 H   0  0  0  0  0  0  0  0  0  0  0  0
   -1.9386   12.2645   -2.9089 H   0  0  0  0  0  0  0  0  0  0  0  0
   -1.2123   13.6088   -1.9428 H   0  0  0  0  0  0  0  0  0  0  0  0
    0.7606   12.3516   -0.4588 H   0  0  0  0  0  0  0  0  0  0  0  0
    2.1328   11.9827   -1.5578 H   0  0  0  0  0  0  0  0  0  0  0  0
    1.3977   13.6217   -1.5578 H   0  0  0  0  0  0  0  0  0  0  0  0
  1  2  1  0
  2  3  1  0
  3  4  1  0
  4  5  1  0
  5  6  1  0
  6  7  1  0
  7  8  1  0
  7  9  1  0
  2 10  1  0
 10 11  1  0
 11 12  1  0
 12 13  1  0
 13 14  1  6
 13 15  1  0
 15 16  1  0
 16 17  1  0
 17 18  2  0
 18 19  1  0
 19 20  1  0
 20 21  1  0
 21 22  1  0
 22 23  1  0
 22 24  1  0
 24 25  1  0
 24 26  1  0
 19 27  1  0
 27 28  1  1
 27 29  1  0
 29 30  1  0
 30 31  1  0
 31 32  1  1
  7  5  1  0
 31 10  1  0
 31 13  1  0
 27 15  1  0
 24 18  1  0
  1 33  1  0
  1 34  1  0
  1 35  1  0
  2 36  1  6
  3 37  1  0
  3 38  1  0
  4 39  1  0
  4 40  1  0
  5 41  1  1
  8 42  1  0
  8 43  1  0
  8 44  1  0
  9 45  1  0
  9 46  1  0
  9 47  1  0
 10 48  1  6
 11 49  1  0
 11 50  1  0
 12 51  1  0
 12 52  1  0
 14 53  1  0
 14 54  1  0
 14 55  1  0
 15 56  1  1
 16 57  1  0
 16 58  1  0
 17 59  1  0
 19 60  1  6
 20 61  1  0
 20 62  1  0
 21 63  1  0
 21 64  1  0
 22 65  1  6
 23 66  1  0
 25 67  1  0
 25 68  1  0
 25 69  1  0
 26 70  1  0
 26 71  1  0
 26 72  1  0
 28 73  1  0
 28 74  1  0
 28 75  1  0
 29 76  1  0
 29 77  1  0
 30 78  1  0
 30 79  1  0
 32 80  1  0
 32 81  1  0
 32 82  1  0
M  END
>  <meeko>  (16) 
{"is_sidechain": [false], "intermolecular_energy": 2.731, "internal_energy": -0.839}

$$$$
EPH_relaxed_0001_pdb2pqr_Repair_293_r2_0001_out
     RDKit          3D

 82 86  0  0  0  0  0  0  0  0999 V2000
    0.9560   18.1010   -2.2320 C   0  0  0  0  0  0  0  0  0  0  0  0
    0.7960   17.2570   -0.9640 C   0  0  2  0  0  0  0  0  0  0  0  0
    0.9760   18.0960    0.3180 C   0  0  0  0  0  0  0  0  0  0  0  0
    0.3660   19.4970    0.2270 C   0  0  0  0  0  0  0  0  0  0  0  0
   -1.0910   19.4920    0.5820 C   0  0  2  0  0  0  0  0  0  0  0  0
   -1.8420   18.4120    0.0120 O   0  0  0  0  0  0  0  0  0  0  0  0
   -2.1980   19.7330   -0.4260 C   0  0  0  0  0  0  0  0  0  0  0  0
   -1.8970   19.9980   -1.8680 C   0  0  0  0  0  0  0  0  0  0  0  0
   -3.5320   20.1940    0.0720 C   0  0  0  0  0  0  0  0  0  0  0  0
    1.7930   16.1050   -0.9770 C   0  0  1  0  0  0  0  0  0  0  0  0
    2.1480   15.6060    0.4490 C   0  0  0  0  0  0  0  0  0  0  0  0
    2.3600   14.0740    0.3470 C   0  0  0  0  0  0  0  0  0  0  0  0
    2.4480   13.7920   -1.1710 C   0  0  1  0  0  0  0  0  0  0  0  0
    3.9170   14.1480   -1.5600 C   0  0  0  0  0  0  0  0  0  0  0  0
    2.0620   12.3480   -1.6300 C   0  0  2  0  0  0  0  0  0  0  0  0
    2.9590   11.2270   -1.0770 C   0  0  0  0  0  0  0  0  0  0  0  0
    4.1390   10.8780   -1.9230 C   0  0  0  0  0  0  0  0  0  0  0  0
    4.3130   11.2360   -3.2080 C   0  0  0  0  0  0  0  0  0  0  0  0
    3.2160   11.9900   -3.9720 C   0  0  1  0  0  0  0  0  0  0  0  0
    3.0130   11.3380   -5.3650 C   0  0  0  0  0  0  0  0  0  0  0  0
    4.3120   11.2380   -6.1580 C   0  0  0  0  0  0  0  0  0  0  0  0
    5.3590   10.4330   -5.3920 C   0  0  2  0  0  0  0  0  0  0  0  0
    4.9170    9.0750   -5.2990 O   0  0  0  0  0  0  0  0  0  0  0  0
    5.6390   10.9900   -3.9690 C   0  0  0  0  0  0  0  0  0  0  0  0
    6.3950   12.3370   -4.0770 C   0  0  0  0  0  0  0  0  0  0  0  0
    6.6050   10.0070   -3.2530 C   0  0  0  0  0  0  0  0  0  0  0  0
    1.8470   12.2000   -3.1910 C   0  0  1  0  0  0  0  0  0  0  0  0
    0.9220   10.9620   -3.3970 C   0  0  0  0  0  0  0  0  0  0  0  0
    1.0860   13.4310   -3.8100 C   0  0  0  0  0  0  0  0  0  0  0  0
    1.4230   14.8190   -3.2320 C   0  0  0  0  0  0  0  0  0  0  0  0
    1.3670   14.8040   -1.7010 C   0  0  2  0  0  0  0  0  0  0  0  0
   -0.1050   14.4710   -1.2800 C   0  0  0  0  0  0  0  0  0  0  0  0
    1.1542   19.1466   -1.9539 H   0  0  0  0  0  0  0  0  0  0  0  0
    1.7968   17.7140   -2.8264 H   0  0  0  0  0  0  0  0  0  0  0  0
    0.0319   18.0486   -2.8264 H   0  0  0  0  0  0  0  0  0  0  0  0
   -0.2299   16.8600   -0.9577 H   0  0  0  0  0  0  0  0  0  0  0  0
    0.4974   17.5623    1.1524 H   0  0  0  0  0  0  0  0  0  0  0  0
    2.0580   18.2255    0.4682 H   0  0  0  0  0  0  0  0  0  0  0  0
    0.8995   20.1638    0.9204 H   0  0  0  0  0  0  0  0  0  0  0  0
    0.4647   19.8471   -0.8111 H   0  0  0  0  0  0  0  0  0  0  0  0
   -0.8776   19.9389    1.5642 H   0  0  0  0  0  0  0  0  0  0  0  0
   -1.0733   20.7232   -1.9434 H   0  0  0  0  0  0  0  0  0  0  0  0
   -1.6047   19.0587   -2.3602 H   0  0  0  0  0  0  0  0  0  0  0  0
   -2.7917   20.4069   -2.3602 H   0  0  0  0  0  0  0  0  0  0  0  0
   -3.5327   20.1942    1.1720 H   0  0  0  0  0  0  0  0  0  0  0  0
   -3.7285   21.2122   -0.2950 H   0  0  0  0  0  0  0  0  0  0  0  0
   -4.3152   19.5144   -0.2950 H   0  0  0  0  0  0  0  0  0  0  0  0
    2.6208   16.5841   -1.5203 H   0  0  0  0  0  0  0  0  0  0  0  0
    3.0688   16.0931    0.8024 H   0  0  0  0  0  0  0  0  0  0  0  0
    1.3464   15.8471    1.1627 H   0  0  0  0  0  0  0  0  0  0  0  0
    3.2910   13.7764    0.8518 H   0  0  0  0  0  0  0  0  0  0  0  0
    1.5499   13.5079    0.8299 H   0  0  0  0  0  0  0  0  0  0  0  0
    4.5133   14.2925   -0.6470 H   0  0  0  0  0  0  0  0  0  0  0  0
    4.3480   13.3283   -2.1536 H   0  0  0  0  0  0  0  0  0  0  0  0
    3.9250   15.0741   -2.1536 H   0  0  0  0  0  0  0  0  0  0  0  0
    1.0789   12.2044   -1.1579 H   0  0  0  0  0  0  0  0  0  0  0  0
    3.3296   11.5436   -0.0909 H   0  0  0  0  0  0  0  0  0  0  0  0
    2.3315   10.3242   -1.0430 H   0  0  0  0  0  0  0  0  0  0  0  0
    4.9333   10.2773   -1.4558 H   0  0  0  0  0  0  0  0  0  0  0  0
    3.5822   13.0202   -4.0923 H   0  0  0  0  0  0  0  0  0  0  0  0
    2.6065   10.3255   -5.2247 H   0  0  0  0  0  0  0  0  0  0  0  0
    2.3217   11.9760   -5.9351 H   0  0  0  0  0  0  0  0  0  0  0  0
    4.1097   10.7428   -7.1192 H   0  0  0  0  0  0  0  0  0  0  0  0
    4.7016   12.2534   -6.3227 H   0  0  0  0  0  0  0  0  0  0  0  0
    6.3049   10.5063   -5.9486 H   0  0  0  0  0  0  0  0  0  0  0  0
    3.9870    9.0860   -5.0170 H   0  0  0  0  0  0  0  0  0  0  0  0
    6.6094   12.7190   -3.0680 H   0  0  0  0  0  0  0  0  0  0  0  0
    7.3395   12.1849   -4.6199 H   0  0  0  0  0  0  0  0  0  0  0  0
    5.7731   13.0640   -4.6199 H   0  0  0  0  0  0  0  0  0  0  0  0
    6.4979   10.1159   -2.1637 H   0  0  0  0  0  0  0  0  0  0  0  0
    6.3600    8.9749   -3.5441 H   0  0  0  0  0  0  0  0  0  0  0  0
    7.6412   10.2339   -3.5441 H   0  0  0  0  0  0  0  0  0  0  0  0
    0.6224   10.5611   -2.4174 H   0  0  0  0  0  0  0  0  0  0  0  0
    0.0260   11.2633   -3.9594 H   0  0  0  0  0  0  0  0  0  0  0  0
    1.4650   10.1881   -3.9594 H   0  0  0  0  0  0  0  0  0  0  0  0
    1.3121   13.4550   -4.8862 H   0  0  0  0  0  0  0  0  0  0  0  0
    0.0263   13.2669   -3.5648 H   0  0  0  0  0  0  0  0  0  0  0  0
    2.4355   15.1060   -3.5522 H   0  0  0  0  0  0  0  0  0  0  0  0
    0.6822   15.5426   -3.6029 H   0  0  0  0  0  0  0  0  0  0  0  0
   -0.1777   14.4546   -0.1825 H   0  0  0  0  0  0  0  0  0  0  0  0
   -0.7836   15.2383   -1.6810 H   0  0  0  0  0  0  0  0  0  0  0  0
   -0.3872   13.4863   -1.6810 H   0  0  0  0  0  0  0  0  0  0  0  0
  1  2  1  0
  2  3  1  0
  3  4  1  0
  4  5  1  0
  5  6  1  0
  6  7  1  0
  7  8  1  0
  7  9  1  0
  2 10  1  0
 10 11  1  0
 11 12  1  0
 12 13  1  0
 13 14  1  6
 13 15  1  0
 15 16  1  0
 16 17  1  0
 17 18  2  0
 18 19  1  0
 19 20  1  0
 20 21  1  0
 21 22  1  0
 22 23  1  0
 22 24  1  0
 24 25  1  0
 24 26  1  0
 19 27  1  0
 27 28  1  1
 27 29  1  0
 29 30  1  0
 30 31  1  0
 31 32  1  6
  7  5  1  0
 31 10  1  0
 31 13  1  0
 27 15  1  0
 24 18  1  0
  1 33  1  0
  1 34  1  0
  1 35  1  0
  2 36  1  1
  3 37  1  0
  3 38  1  0
  4 39  1  0
  4 40  1  0
  5 41  1  1
  8 42  1  0
  8 43  1  0
  8 44  1  0
  9 45  1  0
  9 46  1  0
  9 47  1  0
 10 48  1  6
 11 49  1  0
 11 50  1  0
 12 51  1  0
 12 52  1  0
 14 53  1  0
 14 54  1  0
 14 55  1  0
 15 56  1  1
 16 57  1  0
 16 58  1  0
 17 59  1  0
 19 60  1  6
 20 61  1  0
 20 62  1  0
 21 63  1  0
 21 64  1  0
 22 65  1  6
 23 66  1  0
 25 67  1  0
 25 68  1  0
 25 69  1  0
 26 70  1  0
 26 71  1  0
 26 72  1  0
 28 73  1  0
 28 74  1  0
 28 75  1  0
 29 76  1  0
 29 77  1  0
 30 78  1  0
 30 79  1  0
 32 80  1  0
 32 81  1  0
 32 82  1  0
M  END
>  <meeko>  (17) 
{"is_sidechain": [false], "intermolecular_energy": 2.731, "internal_energy": -0.839}

$$$$
EPH_relaxed_0001_pdb2pqr_Repair_293_r2_0001_out
     RDKit          3D

 82 86  0  0  0  0  0  0  0  0999 V2000
   -2.4330    7.7330   -0.0470 C   0  0  0  0  0  0  0  0  0  0  0  0
   -3.0980    9.1110   -0.0790 C   0  0  2  0  0  0  0  0  0  0  0  0
   -4.5760    9.0330   -0.5140 C   0  0  0  0  0  0  0  0  0  0  0  0
   -5.1100    7.6020   -0.6220 C   0  0  0  0  0  0  0  0  0  0  0  0
   -5.9040    7.4000   -1.8770 C   0  0  2  0  0  0  0  0  0  0  0  0
   -6.8180    8.4610   -2.1850 O   0  0  0  0  0  0  0  0  0  0  0  0
   -7.4050    7.1820   -1.8920 C   0  0  0  0  0  0  0  0  0  0  0  0
   -8.2020    7.1540   -0.6260 C   0  0  0  0  0  0  0  0  0  0  0  0
   -8.0200    6.5150   -3.0830 C   0  0  0  0  0  0  0  0  0  0  0  0
   -2.3290   10.0380   -1.0130 C   0  0  1  0  0  0  0  0  0  0  0  0
   -2.9790   11.4430   -1.1300 C   0  0  0  0  0  0  0  0  0  0  0  0
   -1.8200   12.4610   -1.2830 C   0  0  0  0  0  0  0  0  0  0  0  0
   -0.5760   11.5930   -1.5820 C   0  0  1  0  0  0  0  0  0  0  0  0
   -0.6650   11.2750   -3.1070 C   0  0  0  0  0  0  0  0  0  0  0  0
    0.8080   12.2140   -1.2020 C   0  0  2  0  0  0  0  0  0  0  0  0
    1.1710   13.5070   -1.9540 C   0  0  0  0  0  0  0  0  0  0  0  0
    1.9240   13.3130   -3.2290 C   0  0  0  0  0  0  0  0  0  0  0  0
    2.5410   12.1790   -3.6080 C   0  0  0  0  0  0  0  0  0  0  0  0
    2.6020   10.9650   -2.6720 C   0  0  1  0  0  0  0  0  0  0  0  0
    4.0470   10.4010   -2.6480 C   0  0  0  0  0  0  0  0  0  0  0  0
    4.5770   10.0890   -4.0440 C   0  0  0  0  0  0  0  0  0  0  0  0
    4.5550   11.3340   -4.9270 C   0  0  2  0  0  0  0  0  0  0  0  0
    5.4990   12.2790   -4.4140 O   0  0  0  0  0  0  0  0  0  0  0  0
    3.1510   11.9950   -5.0190 C   0  0  0  0  0  0  0  0  0  0  0  0
    2.2030   11.0900   -5.8440 C   0  0  0  0  0  0  0  0  0  0  0  0
    3.2970   13.3160   -5.8210 C   0  0  0  0  0  0  0  0  0  0  0  0
    2.0070   11.1820   -1.2140 C   0  0  1  0  0  0  0  0  0  0  0  0
    3.1060   11.7660   -0.2730 C   0  0  0  0  0  0  0  0  0  0  0  0
    1.6010    9.7860   -0.6100 C   0  0  0  0  0  0  0  0  0  0  0  0
    0.1800    9.2810   -0.9220 C   0  0  0  0  0  0  0  0  0  0  0  0
   -0.8620   10.3670   -0.6390 C   0  0  2  0  0  0  0  0  0  0  0  0
   -0.8110   10.6920    0.8920 C   0  0  0  0  0  0  0  0  0  0  0  0
   -2.2831    7.4224    0.9975 H   0  0  0  0  0  0  0  0  0  0  0  0
   -3.0778    7.0027   -0.5578 H   0  0  0  0  0  0  0  0  0  0  0  0
   -1.4601    7.7834   -0.5578 H   0  0  0  0  0  0  0  0  0  0  0  0
   -3.0757    9.5126    0.9448 H   0  0  0  0  0  0  0  0  0  0  0  0
   -5.1845    9.5762    0.2240 H   0  0  0  0  0  0  0  0  0  0  0  0
   -4.6399    9.4771   -1.5183 H   0  0  0  0  0  0  0  0  0  0  0  0
   -4.2603    6.9034   -0.6214 H   0  0  0  0  0  0  0  0  0  0  0  0
   -5.7726    7.4175    0.2365 H   0  0  0  0  0  0  0  0  0  0  0  0
   -5.0738    6.8469   -2.3406 H   0  0  0  0  0  0  0  0  0  0  0  0
   -7.5203    7.1779    0.2370 H   0  0  0  0  0  0  0  0  0  0  0  0
   -8.8673    8.0293   -0.5921 H   0  0  0  0  0  0  0  0  0  0  0  0
   -8.8043    6.2341   -0.5921 H   0  0  0  0  0  0  0  0  0  0  0  0
   -8.7298    5.7451   -2.7462 H   0  0  0  0  0  0  0  0  0  0  0  0
   -8.5513    7.2637   -3.6889 H   0  0  0  0  0  0  0  0  0  0  0  0
   -7.2307    6.0461   -3.6889 H   0  0  0  0  0  0  0  0  0  0  0  0
   -2.3570    9.4363   -1.9334 H   0  0  0  0  0  0  0  0  0  0  0  0
   -3.6374   11.4836   -2.0103 H   0  0  0  0  0  0  0  0  0  0  0  0
   -3.5899   11.6704   -0.2439 H   0  0  0  0  0  0  0  0  0  0  0  0
   -2.0189   13.1540   -2.1138 H   0  0  0  0  0  0  0  0  0  0  0  0
   -1.6891   13.0825   -0.3849 H   0  0  0  0  0  0  0  0  0  0  0  0
   -0.9591   10.2242   -3.2459 H   0  0  0  0  0  0  0  0  0  0  0  0
   -1.4142   11.9304   -3.5751 H   0  0  0  0  0  0  0  0  0  0  0  0
    0.3156   11.4463   -3.5751 H   0  0  0  0  0  0  0  0  0  0  0  0
    0.6539   12.5109   -0.1541 H   0  0  0  0  0  0  0  0  0  0  0  0
    0.2364   14.0377   -2.1885 H   0  0  0  0  0  0  0  0  0  0  0  0
    1.8412   14.0692   -1.2871 H   0  0  0  0  0  0  0  0  0  0  0  0
    1.9789   14.1699   -3.9166 H   0  0  0  0  0  0  0  0  0  0  0  0
    1.9169   10.2178   -3.0991 H   0  0  0  0  0  0  0  0  0  0  0  0
    4.7078   11.1443   -2.1781 H   0  0  0  0  0  0  0  0  0  0  0  0
    4.0282    9.4591   -2.0801 H   0  0  0  0  0  0  0  0  0  0  0  0
    5.6113    9.7234   -3.9629 H   0  0  0  0  0  0  0  0  0  0  0  0
    3.9330    9.3232   -4.5009 H   0  0  0  0  0  0  0  0  0  0  0  0
    4.8211   11.0201   -5.9471 H   0  0  0  0  0  0  0  0  0  0  0  0
    5.9990   11.8410   -3.7050 H   0  0  0  0  0  0  0  0  0  0  0  0
    1.5789   10.4942   -5.1616 H   0  0  0  0  0  0  0  0  0  0  0  0
    1.5582   11.7161   -6.4782 H   0  0  0  0  0  0  0  0  0  0  0  0
    2.7985   10.4168   -6.4782 H   0  0  0  0  0  0  0  0  0  0  0  0
    3.3903   14.1606   -5.1225 H   0  0  0  0  0  0  0  0  0  0  0  0
    4.1948   13.2631   -6.4544 H   0  0  0  0  0  0  0  0  0  0  0  0
    2.4093   13.4604   -6.4544 H   0  0  0  0  0  0  0  0  0  0  0  0
    2.8119   11.6097    0.7754 H   0  0  0  0  0  0  0  0  0  0  0  0
    4.0619   11.2569   -0.4655 H   0  0  0  0  0  0  0  0  0  0  0  0
    3.2190   12.8431   -0.4655 H   0  0  0  0  0  0  0  0  0  0  0  0
    2.3113    9.0385   -0.9929 H   0  0  0  0  0  0  0  0  0  0  0  0
    1.6233    9.9269    0.4807 H   0  0  0  0  0  0  0  0  0  0  0  0
    0.1241    8.9964   -1.9831 H   0  0  0  0  0  0  0  0  0  0  0  0
   -0.0333    8.4142   -0.2792 H   0  0  0  0  0  0  0  0  0  0  0  0
   -0.9562    9.7664    1.4684 H   0  0  0  0  0  0  0  0  0  0  0  0
    0.1668   11.1297    1.1415 H   0  0  0  0  0  0  0  0  0  0  0  0
   -1.6078   11.4082    1.1415 H   0  0  0  0  0  0  0  0  0  0  0  0
  1  2  1  0
  2  3  1  0
  3  4  1  0
  4  5  1  0
  5  6  1  0
  6  7  1  0
  7  8  1  0
  7  9  1  0
  2 10  1  0
 10 11  1  0
 11 12  1  0
 12 13  1  0
 13 14  1  6
 13 15  1  0
 15 16  1  0
 16 17  1  0
 17 18  2  0
 18 19  1  0
 19 20  1  0
 20 21  1  0
 21 22  1  0
 22 23  1  0
 22 24  1  0
 24 25  1  0
 24 26  1  0
 19 27  1  0
 27 28  1  1
 27 29  1  0
 29 30  1  0
 30 31  1  0
 31 32  1  1
  7  5  1  0
 31 10  1  0
 31 13  1  0
 27 15  1  0
 24 18  1  0
  1 33  1  0
  1 34  1  0
  1 35  1  0
  2 36  1  1
  3 37  1  0
  3 38  1  0
  4 39  1  0
  4 40  1  0
  5 41  1  6
  8 42  1  0
  8 43  1  0
  8 44  1  0
  9 45  1  0
  9 46  1  0
  9 47  1  0
 10 48  1  6
 11 49  1  0
 11 50  1  0
 12 51  1  0
 12 52  1  0
 14 53  1  0
 14 54  1  0
 14 55  1  0
 15 56  1  1
 16 57  1  0
 16 58  1  0
 17 59  1  0
 19 60  1  6
 20 61  1  0
 20 62  1  0
 21 63  1  0
 21 64  1  0
 22 65  1  6
 23 66  1  0
 25 67  1  0
 25 68  1  0
 25 69  1  0
 26 70  1  0
 26 71  1  0
 26 72  1  0
 28 73  1  0
 28 74  1  0
 28 75  1  0
 29 76  1  0
 29 77  1  0
 30 78  1  0
 30 79  1  0
 32 80  1  0
 32 81  1  0
 32 82  1  0
M  END
>  <meeko>  (18) 
{"is_sidechain": [false], "intermolecular_energy": 2.731, "internal_energy": -0.839}

$$$$
EPH_relaxed_0001_pdb2pqr_Repair_293_r2_0001_out
     RDKit          3D

 82 86  0  0  0  0  0  0  0  0999 V2000
    0.8810   14.7400   -4.8730 C   0  0  0  0  0  0  0  0  0  0  0  0
    0.5900   14.2010   -3.4700 C   0  0  2  0  0  0  0  0  0  0  0  0
    1.7850   14.3940   -2.5150 C   0  0  0  0  0  0  0  0  0  0  0  0
    1.6030   15.5490   -1.5270 C   0  0  0  0  0  0  0  0  0  0  0  0
    1.2530   16.8270   -2.2270 C   0  0  2  0  0  0  0  0  0  0  0  0
    2.3760   17.5550   -2.7420 O   0  0  0  0  0  0  0  0  0  0  0  0
    1.6270   18.2000   -1.6990 C   0  0  0  0  0  0  0  0  0  0  0  0
    2.3830   18.3640   -0.4180 C   0  0  0  0  0  0  0  0  0  0  0  0
    0.8410   19.3850   -2.1670 C   0  0  0  0  0  0  0  0  0  0  0  0
    0.2180   12.7250   -3.5470 C   0  0  1  0  0  0  0  0  0  0  0  0
    1.4280   11.8220   -3.9080 C   0  0  0  0  0  0  0  0  0  0  0  0
    1.2370   10.4890   -3.1390 C   0  0  0  0  0  0  0  0  0  0  0  0
   -0.2230   10.5380   -2.6310 C   0  0  1  0  0  0  0  0  0  0  0  0
   -1.0880   10.1010   -3.8540 C   0  0  0  0  0  0  0  0  0  0  0  0
   -0.5420    9.6810   -1.3630 C   0  0  2  0  0  0  0  0  0  0  0  0
   -0.3480    8.1650   -1.5340 C   0  0  0  0  0  0  0  0  0  0  0  0
   -1.5520    7.4150   -1.9990 C   0  0  0  0  0  0  0  0  0  0  0  0
   -2.8140    7.8840   -1.9960 C   0  0  0  0  0  0  0  0  0  0  0  0
   -3.1430    9.2580   -1.3990 C   0  0  1  0  0  0  0  0  0  0  0  0
   -4.3910    9.1410   -0.4850 C   0  0  0  0  0  0  0  0  0  0  0  0
   -5.5840    8.5160   -1.2020 C   0  0  0  0  0  0  0  0  0  0  0  0
   -5.2360    7.1270   -1.7310 C   0  0  2  0  0  0  0  0  0  0  0  0
   -5.0160    6.2520   -0.6200 O   0  0  0  0  0  0  0  0  0  0  0  0
   -3.9870    7.1190   -2.6570 C   0  0  0  0  0  0  0  0  0  0  0  0
   -4.3290    7.8150   -3.9970 C   0  0  0  0  0  0  0  0  0  0  0  0
   -3.6610    5.6410   -3.0060 C   0  0  0  0  0  0  0  0  0  0  0  0
   -1.9360   10.0130   -0.6910 C   0  0  1  0  0  0  0  0  0  0  0  0
   -1.8300    9.5650    0.7990 C   0  0  0  0  0  0  0  0  0  0  0  0
   -2.2380   11.5580   -0.6690 C   0  0  0  0  0  0  0  0  0  0  0  0
   -1.7910   12.3700   -1.9000 C   0  0  0  0  0  0  0  0  0  0  0  0
   -0.3340   12.0620   -2.2610 C   0  0  2  0  0  0  0  0  0  0  0  0
    0.5620   12.5120   -1.0570 C   0  0  0  0  0  0  0  0  0  0  0  0
    1.4022   15.7054   -4.7941 H   0  0  0  0  0  0  0  0  0  0  0  0
    1.5152   14.0242   -5.4165 H   0  0  0  0  0  0  0  0  0  0  0  0
   -0.0654   14.8776   -5.4165 H   0  0  0  0  0  0  0  0  0  0  0  0
   -0.2545   14.7763   -3.0629 H   0  0  0  0  0  0  0  0  0  0  0  0
    1.9250   13.4656   -1.9419 H   0  0  0  0  0  0  0  0  0  0  0  0
    2.6580   14.6385   -3.1379 H   0  0  0  0  0  0  0  0  0  0  0  0
    0.7951   15.2940   -0.8254 H   0  0  0  0  0  0  0  0  0  0  0  0
    2.5542   15.6986   -0.9952 H   0  0  0  0  0  0  0  0  0  0  0  0
    0.2979   16.4040   -2.5717 H   0  0  0  0  0  0  0  0  0  0  0  0
    1.7006   18.2160    0.4320 H   0  0  0  0  0  0  0  0  0  0  0  0
    3.1924   17.6206   -0.3722 H   0  0  0  0  0  0  0  0  0  0  0  0
    2.8116   19.3760   -0.3722 H   0  0  0  0  0  0  0  0  0  0  0  0
    0.4693   19.9454   -1.2965 H   0  0  0  0  0  0  0  0  0  0  0  0
    1.4866   20.0366   -2.7742 H   0  0  0  0  0  0  0  0  0  0  0  0
   -0.0104   19.0437   -2.7742 H   0  0  0  0  0  0  0  0  0  0  0  0
   -0.5700   12.7739   -4.3129 H   0  0  0  0  0  0  0  0  0  0  0  0
    1.4505   11.6342   -4.9916 H   0  0  0  0  0  0  0  0  0  0  0  0
    2.3771   12.3046   -3.6319 H   0  0  0  0  0  0  0  0  0  0  0  0
    1.3866    9.6293   -3.8088 H   0  0  0  0  0  0  0  0  0  0  0  0
    1.9606   10.3730   -2.3187 H   0  0  0  0  0  0  0  0  0  0  0  0
   -2.0168    9.6318   -3.4973 H   0  0  0  0  0  0  0  0  0  0  0  0
   -1.3335   10.9832   -4.4634 H   0  0  0  0  0  0  0  0  0  0  0  0
   -0.5235    9.3799   -4.4634 H   0  0  0  0  0  0  0  0  0  0  0  0
    0.2381   10.0038   -0.6578 H   0  0  0  0  0  0  0  0  0  0  0  0
    0.4556    8.0062   -2.2682 H   0  0  0  0  0  0  0  0  0  0  0  0
   -0.1147    7.7739   -0.5327 H   0  0  0  0  0  0  0  0  0  0  0  0
   -1.3950    6.3935   -2.3757 H   0  0  0  0  0  0  0  0  0  0  0  0
   -3.3668    9.9147   -2.2526 H   0  0  0  0  0  0  0  0  0  0  0  0
   -4.1348    8.5166    0.3836 H   0  0  0  0  0  0  0  0  0  0  0  0
   -4.6792   10.1582   -0.1811 H   0  0  0  0  0  0  0  0  0  0  0  0
   -6.4244    8.4327   -0.4972 H   0  0  0  0  0  0  0  0  0  0  0  0
   -5.8577    9.1573   -2.0527 H   0  0  0  0  0  0  0  0  0  0  0  0
   -6.0834    6.7860   -2.3439 H   0  0  0  0  0  0  0  0  0  0  0  0
   -5.6290    6.5160    0.0880 H   0  0  0  0  0  0  0  0  0  0  0  0
   -4.8059    8.7854   -3.7949 H   0  0  0  0  0  0  0  0  0  0  0  0
   -3.4060    7.9731   -4.5741 H   0  0  0  0  0  0  0  0  0  0  0  0
   -5.0182    7.1809   -4.5741 H   0  0  0  0  0  0  0  0  0  0  0  0
   -3.5339    5.0645   -2.0778 H   0  0  0  0  0  0  0  0  0  0  0  0
   -4.4862    5.2124   -3.5937 H   0  0  0  0  0  0  0  0  0  0  0  0
   -2.7321    5.5993   -3.5937 H   0  0  0  0  0  0  0  0  0  0  0  0
   -2.0332   10.4239    1.4555 H   0  0  0  0  0  0  0  0  0  0  0  0
   -2.5650    8.7707    0.9963 H   0  0  0  0  0  0  0  0  0  0  0  0
   -0.8170    9.1843    0.9963 H   0  0  0  0  0  0  0  0  0  0  0  0
   -3.3259   11.6832   -0.5647 H   0  0  0  0  0  0  0  0  0  0  0  0
   -1.6463   11.9554    0.1688 H   0  0  0  0  0  0  0  0  0  0  0  0
   -2.4352   12.1131   -2.7538 H   0  0  0  0  0  0  0  0  0  0  0  0
   -1.8746   13.4409   -1.6629 H   0  0  0  0  0  0  0  0  0  0  0  0
    0.0595   12.2596   -0.1116 H   0  0  0  0  0  0  0  0  0  0  0  0
    1.5309   11.9935   -1.1071 H   0  0  0  0  0  0  0  0  0  0  0  0
    0.7247   13.5988   -1.1071 H   0  0  0  0  0  0  0  0  0  0  0  0
  1  2  1  0
  2  3  1  0
  3  4  1  0
  4  5  1  0
  5  6  1  0
  6  7  1  0
  7  8  1  0
  7  9  1  0
  2 10  1  0
 10 11  1  0
 11 12  1  0
 12 13  1  0
 13 14  1  6
 13 15  1  0
 15 16  1  0
 16 17  1  0
 17 18  2  0
 18 19  1  0
 19 20  1  0
 20 21  1  0
 21 22  1  0
 22 23  1  0
 22 24  1  0
 24 25  1  0
 24 26  1  0
 19 27  1  0
 27 28  1  1
 27 29  1  0
 29 30  1  0
 30 31  1  0
 31 32  1  1
  7  5  1  0
 31 10  1  0
 31 13  1  0
 27 15  1  0
 24 18  1  0
  1 33  1  0
  1 34  1  0
  1 35  1  0
  2 36  1  1
  3 37  1  0
  3 38  1  0
  4 39  1  0
  4 40  1  0
  5 41  1  6
  8 42  1  0
  8 43  1  0
  8 44  1  0
  9 45  1  0
  9 46  1  0
  9 47  1  0
 10 48  1  6
 11 49  1  0
 11 50  1  0
 12 51  1  0
 12 52  1  0
 14 53  1  0
 14 54  1  0
 14 55  1  0
 15 56  1  1
 16 57  1  0
 16 58  1  0
 17 59  1  0
 19 60  1  6
 20 61  1  0
 20 62  1  0
 21 63  1  0
 21 64  1  0
 22 65  1  6
 23 66  1  0
 25 67  1  0
 25 68  1  0
 25 69  1  0
 26 70  1  0
 26 71  1  0
 26 72  1  0
 28 73  1  0
 28 74  1  0
 28 75  1  0
 29 76  1  0
 29 77  1  0
 30 78  1  0
 30 79  1  0
 32 80  1  0
 32 81  1  0
 32 82  1  0
M  END
>  <meeko>  (19) 
{"is_sidechain": [false], "intermolecular_energy": 2.731, "internal_energy": -0.839}

$$$$
