EPH_relaxed_0001_pdb2pqr_Repair_320_r2_0001_out
     RDKit          3D

 82 86  0  0  0  0  0  0  0  0999 V2000
    2.9020   17.3730   -1.8600 C   0  0  0  0  0  0  0  0  0  0  0  0
    1.8720   17.4820   -2.9880 C   0  0  2  0  0  0  0  0  0  0  0  0
    0.8210   18.5750   -2.7110 C   0  0  0  0  0  0  0  0  0  0  0  0
    0.9820   19.2520   -1.3470 C   0  0  0  0  0  0  0  0  0  0  0  0
   -0.2770   19.9440   -0.9190 C   0  0  2  0  0  0  0  0  0  0  0  0
   -0.3740   20.1940    0.4890 O   0  0  0  0  0  0  0  0  0  0  0  0
   -1.3430   19.2870   -0.0620 C   0  0  0  0  0  0  0  0  0  0  0  0
   -1.1990   17.8770    0.4190 C   0  0  0  0  0  0  0  0  0  0  0  0
   -2.7330   19.8400   -0.1000 C   0  0  0  0  0  0  0  0  0  0  0  0
    1.1840   16.1380   -3.1950 C   0  0  1  0  0  0  0  0  0  0  0  0
    0.8580   15.8570   -4.6870 C   0  0  0  0  0  0  0  0  0  0  0  0
    1.0290   14.3320   -4.9020 C   0  0  0  0  0  0  0  0  0  0  0  0
    1.1200   13.7440   -3.4750 C   0  0  1  0  0  0  0  0  0  0  0  0
   -0.3600   13.6370   -2.9900 C   0  0  0  0  0  0  0  0  0  0  0  0
    1.8730   12.3800   -3.3360 C   0  0  2  0  0  0  0  0  0  0  0  0
    1.2340   11.2020   -4.0920 C   0  0  0  0  0  0  0  0  0  0  0  0
    0.2370   10.4100   -3.3140 C   0  0  0  0  0  0  0  0  0  0  0  0
    0.0740   10.4530   -1.9780 C   0  0  0  0  0  0  0  0  0  0  0  0
    1.0100   11.2910   -1.0980 C   0  0  1  0  0  0  0  0  0  0  0  0
    1.4630   10.4490    0.1240 C   0  0  0  0  0  0  0  0  0  0  0  0
    0.2860    9.8730    0.9060 C   0  0  0  0  0  0  0  0  0  0  0  0
   -0.5880    8.9990    0.0100 C   0  0  2  0  0  0  0  0  0  0  0  0
    0.1580    7.8400   -0.3730 O   0  0  0  0  0  0  0  0  0  0  0  0
   -1.0960    9.7380   -1.2590 C   0  0  0  0  0  0  0  0  0  0  0  0
   -2.1440   10.8050   -0.8560 C   0  0  0  0  0  0  0  0  0  0  0  0
   -1.8460    8.7060   -2.1440 C   0  0  0  0  0  0  0  0  0  0  0  0
    2.2280   11.9850   -1.8450 C   0  0  1  0  0  0  0  0  0  0  0  0
    3.4360   11.0020   -1.9220 C   0  0  0  0  0  0  0  0  0  0  0  0
    2.7140   13.2210   -0.9990 C   0  0  0  0  0  0  0  0  0  0  0  0
    2.0130   14.5660   -1.2670 C   0  0  0  0  0  0  0  0  0  0  0  0
    1.9610   14.8680   -2.7680 C   0  0  2  0  0  0  0  0  0  0  0  0
    3.4360   15.0030   -3.2800 C   0  0  0  0  0  0  0  0  0  0  0  0
    2.3890   17.4273   -0.8885 H   0  0  0  0  0  0  0  0  0  0  0  0
    3.4339   16.4135   -1.9406 H   0  0  0  0  0  0  0  0  0  0  0  0
    3.6230   18.1999   -1.9406 H   0  0  0  0  0  0  0  0  0  0  0  0
    2.4119   17.7680   -3.9027 H   0  0  0  0  0  0  0  0  0  0  0  0
    0.9056   19.3443   -3.4927 H   0  0  0  0  0  0  0  0  0  0  0  0
   -0.1627   18.0827   -2.7115 H   0  0  0  0  0  0  0  0  0  0  0  0
    1.2412   18.4886   -0.5986 H   0  0  0  0  0  0  0  0  0  0  0  0
    1.7769   20.0077   -1.4312 H   0  0  0  0  0  0  0  0  0  0  0  0
   -0.3297   20.4887   -1.8732 H   0  0  0  0  0  0  0  0  0  0  0  0
   -1.1976   17.8631    1.5189 H   0  0  0  0  0  0  0  0  0  0  0  0
   -2.0403   17.2745    0.0458 H   0  0  0  0  0  0  0  0  0  0  0  0
   -0.2533   17.4570    0.0458 H   0  0  0  0  0  0  0  0  0  0  0  0
   -3.0981   19.9852    0.9274 H   0  0  0  0  0  0  0  0  0  0  0  0
   -2.7293   20.8052   -0.6277 H   0  0  0  0  0  0  0  0  0  0  0  0
   -3.3934   19.1361   -0.6277 H   0  0  0  0  0  0  0  0  0  0  0  0
    0.3067   16.2785   -2.5465 H   0  0  0  0  0  0  0  0  0  0  0  0
   -0.1759   16.1578   -4.9121 H   0  0  0  0  0  0  0  0  0  0  0  0
    1.5244   16.4268   -5.3512 H   0  0  0  0  0  0  0  0  0  0  0  0
    0.1636   13.9162   -5.4387 H   0  0  0  0  0  0  0  0  0  0  0  0
    1.9151   14.0933   -5.5085 H   0  0  0  0  0  0  0  0  0  0  0  0
   -0.3863   13.6351   -1.8903 H   0  0  0  0  0  0  0  0  0  0  0  0
   -0.9331   14.4961   -3.3690 H   0  0  0  0  0  0  0  0  0  0  0  0
   -0.8035   12.7044   -3.3690 H   0  0  0  0  0  0  0  0  0  0  0  0
    2.8251   12.5827   -3.8483 H   0  0  0  0  0  0  0  0  0  0  0  0
    0.7284   11.6039   -4.9824 H   0  0  0  0  0  0  0  0  0  0  0  0
    2.0560   10.5096   -4.3265 H   0  0  0  0  0  0  0  0  0  0  0  0
   -0.4206    9.7337   -3.8798 H   0  0  0  0  0  0  0  0  0  0  0  0
    0.4170   12.1532   -0.7590 H   0  0  0  0  0  0  0  0  0  0  0  0
    2.0897    9.6184   -0.2328 H   0  0  0  0  0  0  0  0  0  0  0  0
    2.0197   11.1144    0.8002 H   0  0  0  0  0  0  0  0  0  0  0  0
    0.6698    9.2649    1.7384 H   0  0  0  0  0  0  0  0  0  0  0  0
   -0.3236   10.7054    1.2874 H   0  0  0  0  0  0  0  0  0  0  0  0
   -1.4812    8.7220    0.5893 H   0  0  0  0  0  0  0  0  0  0  0  0
    0.9090    8.1400   -0.9140 H   0  0  0  0  0  0  0  0  0  0  0  0
   -2.2030   10.8651    0.2408 H   0  0  0  0  0  0  0  0  0  0  0  0
   -1.8459   11.7832   -1.2613 H   0  0  0  0  0  0  0  0  0  0  0  0
   -3.1274   10.5245   -1.2613 H   0  0  0  0  0  0  0  0  0  0  0  0
   -2.3706    7.9841   -1.5009 H   0  0  0  0  0  0  0  0  0  0  0  0
   -2.5759    9.2294   -2.7791 H   0  0  0  0  0  0  0  0  0  0  0  0
   -1.1228    8.1734   -2.7791 H   0  0  0  0  0  0  0  0  0  0  0  0
    3.7598   10.7385   -0.9043 H   0  0  0  0  0  0  0  0  0  0  0  0
    3.1333   10.0904   -2.4580 H   0  0  0  0  0  0  0  0  0  0  0  0
    4.2671   11.4837   -2.4580 H   0  0  0  0  0  0  0  0  0  0  0  0
    2.5674   12.9754    0.0632 H   0  0  0  0  0  0  0  0  0  0  0  0
    3.7614   13.3786   -1.2960 H   0  0  0  0  0  0  0  0  0  0  0  0
    0.9869   14.5217   -0.8731 H   0  0  0  0  0  0  0  0  0  0  0  0
    2.5828   15.3639   -0.7683 H   0  0  0  0  0  0  0  0  0  0  0  0
    4.1185   15.0655   -2.4196 H   0  0  0  0  0  0  0  0  0  0  0  0
    3.6943   14.1247   -3.8899 H   0  0  0  0  0  0  0  0  0  0  0  0
    3.5305   15.9136   -3.8899 H   0  0  0  0  0  0  0  0  0  0  0  0
  1  2  1  0
  2  3  1  0
  3  4  1  0
  4  5  1  0
  5  6  1  0
  6  7  1  0
  7  8  1  0
  7  9  1  0
  2 10  1  0
 10 11  1  0
 11 12  1  0
 12 13  1  0
 13 14  1  1
 13 15  1  0
 15 16  1  0
 16 17  1  0
 17 18  2  0
 18 19  1  0
 19 20  1  0
 20 21  1  0
 21 22  1  0
 22 23  1  0
 22 24  1  0
 24 25  1  0
 24 26  1  0
 19 27  1  0
 27 28  1  6
 27 29  1  0
 29 30  1  0
 30 31  1  0
 31 32  1  6
  7  5  1  0
 31 10  1  0
 31 13  1  0
 27 15  1  0
 24 18  1  0
  1 33  1  0
  1 34  1  0
  1 35  1  0
  2 36  1  6
  3 37  1  0
  3 38  1  0
  4 39  1  0
  4 40  1  0
  5 41  1  6
  8 42  1  0
  8 43  1  0
  8 44  1  0
  9 45  1  0
  9 46  1  0
  9 47  1  0
 10 48  1  1
 11 49  1  0
 11 50  1  0
 12 51  1  0
 12 52  1  0
 14 53  1  0
 14 54  1  0
 14 55  1  0
 15 56  1  6
 16 57  1  0
 16 58  1  0
 17 59  1  0
 19 60  1  1
 20 61  1  0
 20 62  1  0
 21 63  1  0
 21 64  1  0
 22 65  1  1
 23 66  1  0
 25 67  1  0
 25 68  1  0
 25 69  1  0
 26 70  1  0
 26 71  1  0
 26 72  1  0
 28 73  1  0
 28 74  1  0
 28 75  1  0
 29 76  1  0
 29 77  1  0
 30 78  1  0
 30 79  1  0
 32 80  1  0
 32 81  1  0
 32 82  1  0
M  END
>  <meeko>  (1) 
{"is_sidechain": [false], "intermolecular_energy": 2.731, "internal_energy": -0.839}

$$$$
EPH_relaxed_0001_pdb2pqr_Repair_320_r2_0001_out
     RDKit          3D

 82 86  0  0  0  0  0  0  0  0999 V2000
    3.7420   17.6160   -3.5910 C   0  0  0  0  0  0  0  0  0  0  0  0
    2.3900   17.5490   -2.8750 C   0  0  2  0  0  0  0  0  0  0  0  0
    2.5260   17.7790   -1.3560 C   0  0  0  0  0  0  0  0  0  0  0  0
    1.9280   19.1050   -0.8790 C   0  0  0  0  0  0  0  0  0  0  0  0
    0.6080   18.9060   -0.1990 C   0  0  2  0  0  0  0  0  0  0  0  0
   -0.1720   17.8170   -0.7110 O   0  0  0  0  0  0  0  0  0  0  0  0
   -0.7280   19.1310   -0.8820 C   0  0  0  0  0  0  0  0  0  0  0  0
   -0.8100   19.5770   -2.3080 C   0  0  0  0  0  0  0  0  0  0  0  0
   -1.9320   19.3900   -0.0320 C   0  0  0  0  0  0  0  0  0  0  0  0
    1.7280   16.2020   -3.1410 C   0  0  1  0  0  0  0  0  0  0  0  0
    1.7240   15.8250   -4.6460 C   0  0  0  0  0  0  0  0  0  0  0  0
    1.8960   14.2870   -4.7230 C   0  0  0  0  0  0  0  0  0  0  0  0
    1.6610   13.7960   -3.2750 C   0  0  1  0  0  0  0  0  0  0  0  0
    0.1090   13.7400   -3.1170 C   0  0  0  0  0  0  0  0  0  0  0  0
    2.3300   12.4360   -2.8890 C   0  0  2  0  0  0  0  0  0  0  0  0
    1.8390   11.2170   -3.6900 C   0  0  0  0  0  0  0  0  0  0  0  0
    0.6760   10.4920   -3.0980 C   0  0  0  0  0  0  0  0  0  0  0  0
    0.2300   10.6270   -1.8350 C   0  0  0  0  0  0  0  0  0  0  0  0
    0.9760   11.5110   -0.8270 C   0  0  1  0  0  0  0  0  0  0  0  0
    1.1310   10.7490    0.5150 C   0  0  0  0  0  0  0  0  0  0  0  0
   -0.2010   10.2410    1.0570 C   0  0  0  0  0  0  0  0  0  0  0  0
   -0.8850    9.3190    0.0500 C   0  0  2  0  0  0  0  0  0  0  0  0
   -0.1040    8.1280   -0.0880 O   0  0  0  0  0  0  0  0  0  0  0  0
   -1.0860    9.9770   -1.3430 C   0  0  0  0  0  0  0  0  0  0  0  0
   -2.1670   11.0820   -1.2460 C   0  0  0  0  0  0  0  0  0  0  0  0
   -1.6550    8.8970   -2.3030 C   0  0  0  0  0  0  0  0  0  0  0  0
    2.3450   12.1380   -1.3350 C   0  0  1  0  0  0  0  0  0  0  0  0
    3.5140   11.1380   -1.0850 C   0  0  0  0  0  0  0  0  0  0  0  0
    2.6690   13.4220   -0.4830 C   0  0  0  0  0  0  0  0  0  0  0  0
    2.0780   14.7550   -0.9830 C   0  0  0  0  0  0  0  0  0  0  0  0
    2.3600   14.9550   -2.4750 C   0  0  2  0  0  0  0  0  0  0  0  0
    3.9130   15.0370   -2.6620 C   0  0  0  0  0  0  0  0  0  0  0  0
    4.5500   17.6560   -2.8457 H   0  0  0  0  0  0  0  0  0  0  0  0
    3.8680   16.7230   -4.2208 H   0  0  0  0  0  0  0  0  0  0  0  0
    3.7791   18.5171   -4.2208 H   0  0  0  0  0  0  0  0  0  0  0  0
    1.7616   18.3577   -3.2763 H   0  0  0  0  0  0  0  0  0  0  0  0
    2.0129   16.9585   -0.8331 H   0  0  0  0  0  0  0  0  0  0  0  0
    3.6022   17.8119   -1.1307 H   0  0  0  0  0  0  0  0  0  0  0  0
    2.6258   19.5765   -0.1714 H   0  0  0  0  0  0  0  0  0  0  0  0
    1.7667   19.7443   -1.7595 H   0  0  0  0  0  0  0  0  0  0  0  0
    1.0191   19.2678    0.7550 H   0  0  0  0  0  0  0  0  0  0  0  0
   -1.0088   20.6583   -2.3431 H   0  0  0  0  0  0  0  0  0  0  0  0
    0.1426   19.3627   -2.8146 H   0  0  0  0  0  0  0  0  0  0  0  0
   -1.6241   19.0379   -2.8146 H   0  0  0  0  0  0  0  0  0  0  0  0
   -1.6511   19.3296    1.0298 H   0  0  0  0  0  0  0  0  0  0  0  0
   -2.3261   20.3935   -0.2505 H   0  0  0  0  0  0  0  0  0  0  0  0
   -2.7039   18.6373   -0.2505 H   0  0  0  0  0  0  0  0  0  0  0  0
    0.7352   16.3965   -2.7090 H   0  0  0  0  0  0  0  0  0  0  0  0
    0.7715   16.1231   -5.1085 H   0  0  0  0  0  0  0  0  0  0  0  0
    2.5336   16.3400   -5.1839 H   0  0  0  0  0  0  0  0  0  0  0  0
    1.1556   13.8471   -5.4073 H   0  0  0  0  0  0  0  0  0  0  0  0
    2.8849   13.9962   -5.1072 H   0  0  0  0  0  0  0  0  0  0  0  0
   -0.1506   13.7306   -2.0481 H   0  0  0  0  0  0  0  0  0  0  0  0
   -0.3404   14.6225   -3.5958 H   0  0  0  0  0  0  0  0  0  0  0  0
   -0.2756   12.8274   -3.5958 H   0  0  0  0  0  0  0  0  0  0  0  0
    3.3753   12.5931   -3.1935 H   0  0  0  0  0  0  0  0  0  0  0  0
    1.5489   11.5636   -4.6929 H   0  0  0  0  0  0  0  0  0  0  0  0
    2.6735   10.5004   -3.6961 H   0  0  0  0  0  0  0  0  0  0  0  0
    0.1377    9.7876   -3.7492 H   0  0  0  0  0  0  0  0  0  0  0  0
    0.3472   12.4014   -0.6796 H   0  0  0  0  0  0  0  0  0  0  0  0
    1.7983    9.8889    0.3570 H   0  0  0  0  0  0  0  0  0  0  0  0
    1.5447   11.4527    1.2524 H   0  0  0  0  0  0  0  0  0  0  0  0
   -0.0218    9.6856    1.9894 H   0  0  0  0  0  0  0  0  0  0  0  0
   -0.8562   11.1047    1.2431 H   0  0  0  0  0  0  0  0  0  0  0  0
   -1.8892    9.0925    0.4376 H   0  0  0  0  0  0  0  0  0  0  0  0
   -0.5510    7.5570   -0.7350 H   0  0  0  0  0  0  0  0  0  0  0  0
   -2.3775   11.2972   -0.1880 H   0  0  0  0  0  0  0  0  0  0  0  0
   -1.8036   11.9949   -1.7406 H   0  0  0  0  0  0  0  0  0  0  0  0
   -3.0876   10.7387   -1.7406 H   0  0  0  0  0  0  0  0  0  0  0  0
   -2.0882    8.0748   -1.7145 H   0  0  0  0  0  0  0  0  0  0  0  0
   -2.4345    9.3442   -2.9373 H   0  0  0  0  0  0  0  0  0  0  0  0
   -0.8453    8.5070   -2.9373 H   0  0  0  0  0  0  0  0  0  0  0  0
    3.6626   11.0109   -0.0025 H   0  0  0  0  0  0  0  0  0  0  0  0
    3.2684   10.1662   -1.5380 H   0  0  0  0  0  0  0  0  0  0  0  0
    4.4361   11.5312   -1.5380 H   0  0  0  0  0  0  0  0  0  0  0  0
    2.2891   13.2505    0.5350 H   0  0  0  0  0  0  0  0  0  0  0  0
    3.7597   13.5463   -0.5530 H   0  0  0  0  0  0  0  0  0  0  0  0
    0.9901   14.7498   -0.8200 H   0  0  0  0  0  0  0  0  0  0  0  0
    2.5474   15.5780   -0.4242 H   0  0  0  0  0  0  0  0  0  0  0  0
    4.4002   15.0627   -1.6761 H   0  0  0  0  0  0  0  0  0  0  0  0
    4.2621   14.1560   -3.2206 H   0  0  0  0  0  0  0  0  0  0  0  0
    4.1674   15.9498   -3.2206 H   0  0  0  0  0  0  0  0  0  0  0  0
  1  2  1  0
  2  3  1  0
  3  4  1  0
  4  5  1  0
  5  6  1  0
  6  7  1  0
  7  8  1  0
  7  9  1  0
  2 10  1  0
 10 11  1  0
 11 12  1  0
 12 13  1  0
 13 14  1  1
 13 15  1  0
 15 16  1  0
 16 17  1  0
 17 18  2  0
 18 19  1  0
 19 20  1  0
 20 21  1  0
 21 22  1  0
 22 23  1  0
 22 24  1  0
 24 25  1  0
 24 26  1  0
 19 27  1  0
 27 28  1  6
 27 29  1  0
 29 30  1  0
 30 31  1  0
 31 32  1  1
  7  5  1  0
 31 10  1  0
 31 13  1  0
 27 15  1  0
 24 18  1  0
  1 33  1  0
  1 34  1  0
  1 35  1  0
  2 36  1  6
  3 37  1  0
  3 38  1  0
  4 39  1  0
  4 40  1  0
  5 41  1  1
  8 42  1  0
  8 43  1  0
  8 44  1  0
  9 45  1  0
  9 46  1  0
  9 47  1  0
 10 48  1  1
 11 49  1  0
 11 50  1  0
 12 51  1  0
 12 52  1  0
 14 53  1  0
 14 54  1  0
 14 55  1  0
 15 56  1  6
 16 57  1  0
 16 58  1  0
 17 59  1  0
 19 60  1  1
 20 61  1  0
 20 62  1  0
 21 63  1  0
 21 64  1  0
 22 65  1  1
 23 66  1  0
 25 67  1  0
 25 68  1  0
 25 69  1  0
 26 70  1  0
 26 71  1  0
 26 72  1  0
 28 73  1  0
 28 74  1  0
 28 75  1  0
 29 76  1  0
 29 77  1  0
 30 78  1  0
 30 79  1  0
 32 80  1  0
 32 81  1  0
 32 82  1  0
M  END
>  <meeko>  (2) 
{"is_sidechain": [false], "intermolecular_energy": 2.731, "internal_energy": -0.839}

$$$$
EPH_relaxed_0001_pdb2pqr_Repair_320_r2_0001_out
     RDKit          3D

 82 86  0  0  0  0  0  0  0  0999 V2000
    4.8710   17.4340   -1.3620 C   0  0  0  0  0  0  0  0  0  0  0  0
    3.5060   18.1250   -1.3140 C   0  0  2  0  0  0  0  0  0  0  0  0
    3.3760   19.0710   -0.1030 C   0  0  0  0  0  0  0  0  0  0  0  0
    3.8610   18.4560    1.2120 C   0  0  0  0  0  0  0  0  0  0  0  0
    3.9770   19.4850    2.2960 C   0  0  2  0  0  0  0  0  0  0  0  0
    5.2230   20.1940    2.3170 O   0  0  0  0  0  0  0  0  0  0  0  0
    4.9430   19.3690    3.4600 C   0  0  0  0  0  0  0  0  0  0  0  0
    5.8580   18.1930    3.6000 C   0  0  0  0  0  0  0  0  0  0  0  0
    4.6570   20.1450    4.7080 C   0  0  0  0  0  0  0  0  0  0  0  0
    2.3960   17.0820   -1.2820 C   0  0  1  0  0  0  0  0  0  0  0  0
    1.0290   17.6500   -1.7480 C   0  0  0  0  0  0  0  0  0  0  0  0
    0.3010   16.5050   -2.4990 C   0  0  0  0  0  0  0  0  0  0  0  0
    1.1150   15.2350   -2.1570 C   0  0  1  0  0  0  0  0  0  0  0  0
    0.6090   14.8010   -0.7460 C   0  0  0  0  0  0  0  0  0  0  0  0
    1.0300   14.0620   -3.1870 C   0  0  2  0  0  0  0  0  0  0  0  0
   -0.3740   13.4610   -3.3770 C   0  0  0  0  0  0  0  0  0  0  0  0
   -0.7070   12.3200   -2.4740 C   0  0  0  0  0  0  0  0  0  0  0  0
    0.1790   11.6140   -1.7470 C   0  0  0  0  0  0  0  0  0  0  0  0
    1.6850   11.8780   -1.8670 C   0  0  1  0  0  0  0  0  0  0  0  0
    2.4390   10.5290   -2.0020 C   0  0  0  0  0  0  0  0  0  0  0  0
    2.1050    9.5570   -0.8750 C   0  0  0  0  0  0  0  0  0  0  0  0
    0.6060    9.2730   -0.8250 C   0  0  2  0  0  0  0  0  0  0  0  0
    0.2320    8.5580   -2.0070 O   0  0  0  0  0  0  0  0  0  0  0  0
   -0.2570   10.5600   -0.6990 C   0  0  0  0  0  0  0  0  0  0  0  0
   -0.0740   11.1730    0.7110 C   0  0  0  0  0  0  0  0  0  0  0  0
   -1.7500   10.1460   -0.8020 C   0  0  0  0  0  0  0  0  0  0  0  0
    2.1180   12.9330   -2.9740 C   0  0  1  0  0  0  0  0  0  0  0  0
    2.2930   12.2180   -4.3500 C   0  0  0  0  0  0  0  0  0  0  0  0
    3.5280   13.5230   -2.5980 C   0  0  0  0  0  0  0  0  0  0  0  0
    3.5410   14.7550   -1.6730 C   0  0  0  0  0  0  0  0  0  0  0  0
    2.5710   15.8290   -2.1760 C   0  0  2  0  0  0  0  0  0  0  0  0
    3.0680   16.3010   -3.5850 C   0  0  0  0  0  0  0  0  0  0  0  0
    5.2270   17.2538   -0.3369 H   0  0  0  0  0  0  0  0  0  0  0  0
    4.7778   16.4745   -1.8918 H   0  0  0  0  0  0  0  0  0  0  0  0
    5.5891   18.0771   -1.8918 H   0  0  0  0  0  0  0  0  0  0  0  0
    3.4135   18.7379   -2.2227 H   0  0  0  0  0  0  0  0  0  0  0  0
    3.9694   19.9753   -0.3033 H   0  0  0  0  0  0  0  0  0  0  0  0
    2.3052   19.2908    0.0202 H   0  0  0  0  0  0  0  0  0  0  0  0
    3.1455   17.6831    1.5293 H   0  0  0  0  0  0  0  0  0  0  0  0
    4.8581   18.0240    1.0413 H   0  0  0  0  0  0  0  0  0  0  0  0
    2.8968   19.6879    2.2515 H   0  0  0  0  0  0  0  0  0  0  0  0
    6.0226   17.9815    4.6668 H   0  0  0  0  0  0  0  0  0  0  0  0
    5.4031   17.3151    3.1180 H   0  0  0  0  0  0  0  0  0  0  0  0
    6.8208   18.4181    3.1180 H   0  0  0  0  0  0  0  0  0  0  0  0
    4.8859   19.5239    5.5865 H   0  0  0  0  0  0  0  0  0  0  0  0
    5.2802   21.0512    4.7272 H   0  0  0  0  0  0  0  0  0  0  0  0
    3.5947   20.4300    4.7272 H   0  0  0  0  0  0  0  0  0  0  0  0
    2.4424   16.7964   -0.2207 H   0  0  0  0  0  0  0  0  0  0  0  0
    0.4357   17.9701   -0.8788 H   0  0  0  0  0  0  0  0  0  0  0  0
    1.1667   18.5250   -2.4002 H   0  0  0  0  0  0  0  0  0  0  0  0
   -0.7366   16.4078   -2.1469 H   0  0  0  0  0  0  0  0  0  0  0  0
    0.2456   16.6858   -3.5826 H   0  0  0  0  0  0  0  0  0  0  0  0
    1.2019   15.3095    0.0285 H   0  0  0  0  0  0  0  0  0  0  0  0
   -0.4505   15.0755   -0.6360 H   0  0  0  0  0  0  0  0  0  0  0  0
    0.7190   13.7121   -0.6360 H   0  0  0  0  0  0  0  0  0  0  0  0
    1.2713   14.5630   -4.1361 H   0  0  0  0  0  0  0  0  0  0  0  0
   -1.1114   14.2585   -3.2031 H   0  0  0  0  0  0  0  0  0  0  0  0
   -0.3957   13.0560   -4.3995 H   0  0  0  0  0  0  0  0  0  0  0  0
   -1.7657   12.0318   -2.3961 H   0  0  0  0  0  0  0  0  0  0  0  0
    1.9809   12.3784   -0.9332 H   0  0  0  0  0  0  0  0  0  0  0  0
    2.1634   10.0654   -2.9607 H   0  0  0  0  0  0  0  0  0  0  0  0
    3.5169   10.7423   -1.9505 H   0  0  0  0  0  0  0  0  0  0  0  0
    2.6447    8.6132   -1.0420 H   0  0  0  0  0  0  0  0  0  0  0  0
    2.4083   10.0100    0.0804 H   0  0  0  0  0  0  0  0  0  0  0  0
    0.4137    8.6756    0.0784 H   0  0  0  0  0  0  0  0  0  0  0  0
    0.9350    7.9130   -2.1940 H   0  0  0  0  0  0  0  0  0  0  0  0
   -0.3008   10.4132    1.4734 H   0  0  0  0  0  0  0  0  0  0  0  0
    0.9650   11.5137    0.8307 H   0  0  0  0  0  0  0  0  0  0  0  0
   -0.7562   12.0276    0.8307 H   0  0  0  0  0  0  0  0  0  0  0  0
   -2.1688   10.0299    0.2085 H   0  0  0  0  0  0  0  0  0  0  0  0
   -2.3094   10.9229   -1.3437 H   0  0  0  0  0  0  0  0  0  0  0  0
   -1.8294    9.1919   -1.3437 H   0  0  0  0  0  0  0  0  0  0  0  0
    2.5515   11.1618   -4.1841 H   0  0  0  0  0  0  0  0  0  0  0  0
    1.3530   12.2806   -4.9179 H   0  0  0  0  0  0  0  0  0  0  0  0
    3.0978   12.7076   -4.9179 H   0  0  0  0  0  0  0  0  0  0  0  0
    4.0999   12.7265   -2.0995 H   0  0  0  0  0  0  0  0  0  0  0  0
    3.9568   13.8723   -3.5488 H   0  0  0  0  0  0  0  0  0  0  0  0
    3.2432   14.4473   -0.6598 H   0  0  0  0  0  0  0  0  0  0  0  0
    4.5570   15.1764   -1.6646 H   0  0  0  0  0  0  0  0  0  0  0  0
    3.8605   17.0537   -3.4611 H   0  0  0  0  0  0  0  0  0  0  0  0
    3.4647   15.4391   -4.1416 H   0  0  0  0  0  0  0  0  0  0  0  0
    2.2277   16.7416   -4.1416 H   0  0  0  0  0  0  0  0  0  0  0  0
  1  2  1  0
  2  3  1  0
  3  4  1  0
  4  5  1  0
  5  6  1  0
  6  7  1  0
  7  8  1  0
  7  9  1  0
  2 10  1  0
 10 11  1  0
 11 12  1  0
 12 13  1  0
 13 14  1  1
 13 15  1  0
 15 16  1  0
 16 17  1  0
 17 18  2  0
 18 19  1  0
 19 20  1  0
 20 21  1  0
 21 22  1  0
 22 23  1  0
 22 24  1  0
 24 25  1  0
 24 26  1  0
 19 27  1  0
 27 28  1  6
 27 29  1  0
 29 30  1  0
 30 31  1  0
 31 32  1  6
  7  5  1  0
 31 10  1  0
 31 13  1  0
 27 15  1  0
 24 18  1  0
  1 33  1  0
  1 34  1  0
  1 35  1  0
  2 36  1  6
  3 37  1  0
  3 38  1  0
  4 39  1  0
  4 40  1  0
  5 41  1  1
  8 42  1  0
  8 43  1  0
  8 44  1  0
  9 45  1  0
  9 46  1  0
  9 47  1  0
 10 48  1  1
 11 49  1  0
 11 50  1  0
 12 51  1  0
 12 52  1  0
 14 53  1  0
 14 54  1  0
 14 55  1  0
 15 56  1  6
 16 57  1  0
 16 58  1  0
 17 59  1  0
 19 60  1  1
 20 61  1  0
 20 62  1  0
 21 63  1  0
 21 64  1  0
 22 65  1  1
 23 66  1  0
 25 67  1  0
 25 68  1  0
 25 69  1  0
 26 70  1  0
 26 71  1  0
 26 72  1  0
 28 73  1  0
 28 74  1  0
 28 75  1  0
 29 76  1  0
 29 77  1  0
 30 78  1  0
 30 79  1  0
 32 80  1  0
 32 81  1  0
 32 82  1  0
M  END
>  <meeko>  (3) 
{"is_sidechain": [false], "intermolecular_energy": 2.731, "internal_energy": -0.839}

$$$$
EPH_relaxed_0001_pdb2pqr_Repair_320_r2_0001_out
     RDKit          3D

 82 86  0  0  0  0  0  0  0  0999 V2000
   -0.6600    8.1230   -1.3280 C   0  0  0  0  0  0  0  0  0  0  0  0
   -0.9470    9.3390   -0.4430 C   0  0  2  0  0  0  0  0  0  0  0  0
   -2.2690   10.0360   -0.8240 C   0  0  0  0  0  0  0  0  0  0  0  0
   -3.4830    9.5180   -0.0490 C   0  0  0  0  0  0  0  0  0  0  0  0
   -3.8770    8.1410   -0.4900 C   0  0  2  0  0  0  0  0  0  0  0  0
   -4.0350    7.9890   -1.9070 O   0  0  0  0  0  0  0  0  0  0  0  0
   -5.2210    7.8160   -1.1150 C   0  0  0  0  0  0  0  0  0  0  0  0
   -6.2570    8.8730   -1.3330 C   0  0  0  0  0  0  0  0  0  0  0  0
   -5.7100    6.4020   -1.0630 C   0  0  0  0  0  0  0  0  0  0  0  0
    0.2080   10.3290   -0.5300 C   0  0  1  0  0  0  0  0  0  0  0  0
    1.5950    9.6380   -0.4500 C   0  0  0  0  0  0  0  0  0  0  0  0
    2.5490   10.4410   -1.3710 C   0  0  0  0  0  0  0  0  0  0  0  0
    1.7800   11.7460   -1.6850 C   0  0  1  0  0  0  0  0  0  0  0  0
    2.0110   12.6580   -0.4390 C   0  0  0  0  0  0  0  0  0  0  0  0
    2.1690   12.4740   -3.0130 C   0  0  2  0  0  0  0  0  0  0  0  0
    3.6230   12.9730   -3.0830 C   0  0  0  0  0  0  0  0  0  0  0  0
    3.8450   14.3630   -2.5850 C   0  0  0  0  0  0  0  0  0  0  0  0
    2.8830   15.2790   -2.3680 C   0  0  0  0  0  0  0  0  0  0  0  0
    1.4200   14.9830   -2.7200 C   0  0  1  0  0  0  0  0  0  0  0  0
    0.8170   16.1920   -3.4830 C   0  0  0  0  0  0  0  0  0  0  0  0
    0.9800   17.5040   -2.7220 C   0  0  0  0  0  0  0  0  0  0  0  0
    2.4520   17.7920   -2.4410 C   0  0  2  0  0  0  0  0  0  0  0  0
    3.1190   18.0400   -3.6820 O   0  0  0  0  0  0  0  0  0  0  0  0
    3.1690   16.6390   -1.6840 C   0  0  0  0  0  0  0  0  0  0  0  0
    2.6480   16.5690   -0.2270 C   0  0  0  0  0  0  0  0  0  0  0  0
    4.6770   16.9940   -1.5890 C   0  0  0  0  0  0  0  0  0  0  0  0
    1.1500   13.6010   -3.4570 C   0  0  1  0  0  0  0  0  0  0  0  0
    1.3220   13.7760   -4.9970 C   0  0  0  0  0  0  0  0  0  0  0  0
   -0.3490   13.1780   -3.2230 C   0  0  0  0  0  0  0  0  0  0  0  0
   -0.6490   12.3580   -1.9540 C   0  0  0  0  0  0  0  0  0  0  0  0
    0.3200   11.1790   -1.8200 C   0  0  2  0  0  0  0  0  0  0  0  0
    0.0950   10.2330   -3.0480 C   0  0  0  0  0  0  0  0  0  0  0  0
   -0.4536    7.2484   -0.6936 H   0  0  0  0  0  0  0  0  0  0  0  0
   -1.5342    7.9172   -1.9631 H   0  0  0  0  0  0  0  0  0  0  0  0
    0.2140    8.3298   -1.9631 H   0  0  0  0  0  0  0  0  0  0  0  0
   -1.0505    8.9786    0.5911 H   0  0  0  0  0  0  0  0  0  0  0  0
   -2.1637   11.1128   -0.6253 H   0  0  0  0  0  0  0  0  0  0  0  0
   -2.4508    9.8213   -1.8874 H   0  0  0  0  0  0  0  0  0  0  0  0
   -3.2369    9.4921    1.0228 H   0  0  0  0  0  0  0  0  0  0  0  0
   -4.3279   10.1949   -0.2437 H   0  0  0  0  0  0  0  0  0  0  0  0
   -3.3231    7.6886    0.3457 H   0  0  0  0  0  0  0  0  0  0  0  0
   -6.6167    9.2400   -0.3604 H   0  0  0  0  0  0  0  0  0  0  0  0
   -5.8166    9.7068   -1.8994 H   0  0  0  0  0  0  0  0  0  0  0  0
   -7.0995    8.4494   -1.8994 H   0  0  0  0  0  0  0  0  0  0  0  0
   -5.8180    6.0897   -0.0138 H   0  0  0  0  0  0  0  0  0  0  0  0
   -6.6845    6.3322   -1.5685 H   0  0  0  0  0  0  0  0  0  0  0  0
   -4.9868    5.7451   -1.5685 H   0  0  0  0  0  0  0  0  0  0  0  0
   -0.0380   10.9747    0.3259 H   0  0  0  0  0  0  0  0  0  0  0  0
    1.9664    9.6530    0.5853 H   0  0  0  0  0  0  0  0  0  0  0  0
    1.5313    8.5869   -0.7679 H   0  0  0  0  0  0  0  0  0  0  0  0
    3.4941   10.6620   -0.8533 H   0  0  0  0  0  0  0  0  0  0  0  0
    2.8167    9.8848   -2.2815 H   0  0  0  0  0  0  0  0  0  0  0  0
    1.8620   12.0699    0.4785 H   0  0  0  0  0  0  0  0  0  0  0  0
    3.0375   13.0528   -0.4588 H   0  0  0  0  0  0  0  0  0  0  0  0
    1.2962   13.4939   -0.4588 H   0  0  0  0  0  0  0  0  0  0  0  0
    2.0948   11.6651   -3.7548 H   0  0  0  0  0  0  0  0  0  0  0  0
    4.2449   12.2933   -2.4820 H   0  0  0  0  0  0  0  0  0  0  0  0
    3.8892   12.9860   -4.1502 H   0  0  0  0  0  0  0  0  0  0  0  0
    4.8826   14.6639   -2.3779 H   0  0  0  0  0  0  0  0  0  0  0  0
    0.8978   14.8474   -1.7614 H   0  0  0  0  0  0  0  0  0  0  0  0
    1.3229   16.2832   -4.4555 H   0  0  0  0  0  0  0  0  0  0  0  0
   -0.2607   16.0073   -3.6032 H   0  0  0  0  0  0  0  0  0  0  0  0
    0.5613   18.3239   -3.3241 H   0  0  0  0  0  0  0  0  0  0  0  0
    0.4488   17.4216   -1.7623 H   0  0  0  0  0  0  0  0  0  0  0  0
    2.4952   18.6731   -1.7838 H   0  0  0  0  0  0  0  0  0  0  0  0
    2.7090   18.8250   -4.0840 H   0  0  0  0  0  0  0  0  0  0  0  0
    3.4915   16.6823    0.4699 H   0  0  0  0  0  0  0  0  0  0  0  0
    1.9216   17.3776   -0.0581 H   0  0  0  0  0  0  0  0  0  0  0  0
    2.1608   15.5973   -0.0581 H   0  0  0  0  0  0  0  0  0  0  0  0
    4.9714   17.0633   -0.5314 H   0  0  0  0  0  0  0  0  0  0  0  0
    5.2699   16.2109   -2.0841 H   0  0  0  0  0  0  0  0  0  0  0  0
    4.8583   17.9594   -2.0841 H   0  0  0  0  0  0  0  0  0  0  0  0
    2.0804   14.5476   -5.1959 H   0  0  0  0  0  0  0  0  0  0  0  0
    1.6440   12.8224   -5.4407 H   0  0  0  0  0  0  0  0  0  0  0  0
    0.3629   14.0815   -5.4407 H   0  0  0  0  0  0  0  0  0  0  0  0
   -0.9507   14.0976   -3.1750 H   0  0  0  0  0  0  0  0  0  0  0  0
   -0.5941   12.5102   -4.0620 H   0  0  0  0  0  0  0  0  0  0  0  0
   -0.5477   13.0088   -1.0730 H   0  0  0  0  0  0  0  0  0  0  0  0
   -1.6732   11.9633   -2.0260 H   0  0  0  0  0  0  0  0  0  0  0  0
   -0.1458    9.2206   -2.6916 H   0  0  0  0  0  0  0  0  0  0  0  0
   -0.7374   10.6149   -3.6574 H   0  0  0  0  0  0  0  0  0  0  0  0
    1.0102   10.1992   -3.6574 H   0  0  0  0  0  0  0  0  0  0  0  0
  1  2  1  0
  2  3  1  0
  3  4  1  0
  4  5  1  0
  5  6  1  0
  6  7  1  0
  7  8  1  0
  7  9  1  0
  2 10  1  0
 10 11  1  0
 11 12  1  0
 12 13  1  0
 13 14  1  1
 13 15  1  0
 15 16  1  0
 16 17  1  0
 17 18  2  0
 18 19  1  0
 19 20  1  0
 20 21  1  0
 21 22  1  0
 22 23  1  0
 22 24  1  0
 24 25  1  0
 24 26  1  0
 19 27  1  0
 27 28  1  6
 27 29  1  0
 29 30  1  0
 30 31  1  0
 31 32  1  6
  7  5  1  0
 31 10  1  0
 31 13  1  0
 27 15  1  0
 24 18  1  0
  1 33  1  0
  1 34  1  0
  1 35  1  0
  2 36  1  1
  3 37  1  0
  3 38  1  0
  4 39  1  0
  4 40  1  0
  5 41  1  1
  8 42  1  0
  8 43  1  0
  8 44  1  0
  9 45  1  0
  9 46  1  0
  9 47  1  0
 10 48  1  1
 11 49  1  0
 11 50  1  0
 12 51  1  0
 12 52  1  0
 14 53  1  0
 14 54  1  0
 14 55  1  0
 15 56  1  6
 16 57  1  0
 16 58  1  0
 17 59  1  0
 19 60  1  1
 20 61  1  0
 20 62  1  0
 21 63  1  0
 21 64  1  0
 22 65  1  1
 23 66  1  0
 25 67  1  0
 25 68  1  0
 25 69  1  0
 26 70  1  0
 26 71  1  0
 26 72  1  0
 28 73  1  0
 28 74  1  0
 28 75  1  0
 29 76  1  0
 29 77  1  0
 30 78  1  0
 30 79  1  0
 32 80  1  0
 32 81  1  0
 32 82  1  0
M  END
>  <meeko>  (4) 
{"is_sidechain": [false], "intermolecular_energy": 2.731, "internal_energy": -0.839}

$$$$
EPH_relaxed_0001_pdb2pqr_Repair_320_r2_0001_out
     RDKit          3D

 82 86  0  0  0  0  0  0  0  0999 V2000
   -2.2780    8.0330   -2.1580 C   0  0  0  0  0  0  0  0  0  0  0  0
   -2.4910    8.7050   -0.7990 C   0  0  2  0  0  0  0  0  0  0  0  0
   -3.9830    8.9600   -0.5050 C   0  0  0  0  0  0  0  0  0  0  0  0
   -4.8280    7.6840   -0.4560 C   0  0  0  0  0  0  0  0  0  0  0  0
   -5.5950    7.4780   -1.7270 C   0  0  2  0  0  0  0  0  0  0  0  0
   -6.5740    8.4860   -2.0060 O   0  0  0  0  0  0  0  0  0  0  0  0
   -7.0780    7.1620   -1.7670 C   0  0  0  0  0  0  0  0  0  0  0  0
   -7.8830    7.0340   -0.5120 C   0  0  0  0  0  0  0  0  0  0  0  0
   -7.6360    6.5000   -2.9880 C   0  0  0  0  0  0  0  0  0  0  0  0
   -1.7170   10.0160   -0.7400 C   0  0  1  0  0  0  0  0  0  0  0  0
   -1.3750   10.4430    0.7120 C   0  0  0  0  0  0  0  0  0  0  0  0
    0.0110   11.1350    0.6610 C   0  0  0  0  0  0  0  0  0  0  0  0
    0.2690   11.3800   -0.8450 C   0  0  1  0  0  0  0  0  0  0  0  0
   -0.5310   12.6770   -1.1830 C   0  0  0  0  0  0  0  0  0  0  0  0
    1.7660   11.4960   -1.2790 C   0  0  2  0  0  0  0  0  0  0  0  0
    2.5360   12.6750   -0.6600 C   0  0  0  0  0  0  0  0  0  0  0  0
    2.5020   13.9430   -1.4470 C   0  0  0  0  0  0  0  0  0  0  0  0
    2.1230   14.0550   -2.7340 C   0  0  0  0  0  0  0  0  0  0  0  0
    1.7680   12.8130   -3.5610 C   0  0  1  0  0  0  0  0  0  0  0  0
    2.4680   12.8940   -4.9430 C   0  0  0  0  0  0  0  0  0  0  0  0
    2.1590   14.1940   -5.6800 C   0  0  0  0  0  0  0  0  0  0  0  0
    2.5790   15.4040   -4.8500 C   0  0  2  0  0  0  0  0  0  0  0  0
    4.0060   15.4130   -4.7380 O   0  0  0  0  0  0  0  0  0  0  0  0
    1.9430   15.4250   -3.4320 C   0  0  0  0  0  0  0  0  0  0  0  0
    0.4270   15.7180   -3.5460 C   0  0  0  0  0  0  0  0  0  0  0  0
    2.5580   16.6180   -2.6510 C   0  0  0  0  0  0  0  0  0  0  0  0
    1.9950   11.4130   -2.8430 C   0  0  1  0  0  0  0  0  0  0  0  0
    3.4660   10.9400   -3.0530 C   0  0  0  0  0  0  0  0  0  0  0  0
    1.0790   10.3300   -3.5260 C   0  0  0  0  0  0  0  0  0  0  0  0
   -0.3510   10.1820   -2.9720 C   0  0  0  0  0  0  0  0  0  0  0  0
   -0.3380   10.0600   -1.4450 C   0  0  2  0  0  0  0  0  0  0  0  0
    0.4410    8.7520   -1.0760 C   0  0  0  0  0  0  0  0  0  0  0  0
   -1.9488    6.9945   -2.0059 H   0  0  0  0  0  0  0  0  0  0  0  0
   -3.2222    8.0395   -2.7223 H   0  0  0  0  0  0  0  0  0  0  0  0
   -1.5099    8.5822   -2.7223 H   0  0  0  0  0  0  0  0  0  0  0  0
   -2.1153    8.0170   -0.0273 H   0  0  0  0  0  0  0  0  0  0  0  0
   -4.0634    9.4673    0.4677 H   0  0  0  0  0  0  0  0  0  0  0  0
   -4.3732    9.5722   -1.3314 H   0  0  0  0  0  0  0  0  0  0  0  0
   -4.1633    6.8221   -0.2971 H   0  0  0  0  0  0  0  0  0  0  0  0
   -5.5499    7.7822    0.3681 H   0  0  0  0  0  0  0  0  0  0  0  0
   -4.7255    6.9993   -2.2013 H   0  0  0  0  0  0  0  0  0  0  0  0
   -7.2213    7.1392    0.3604 H   0  0  0  0  0  0  0  0  0  0  0  0
   -8.6508    7.8213   -0.4869 H   0  0  0  0  0  0  0  0  0  0  0  0
   -8.3687    6.0473   -0.4869 H   0  0  0  0  0  0  0  0  0  0  0  0
   -8.3179    5.6910   -2.6872 H   0  0  0  0  0  0  0  0  0  0  0  0
   -8.1868    7.2401   -3.5870 H   0  0  0  0  0  0  0  0  0  0  0  0
   -6.8133    6.0824   -3.5870 H   0  0  0  0  0  0  0  0  0  0  0  0
   -2.4281   10.6733   -1.2618 H   0  0  0  0  0  0  0  0  0  0  0  0
   -2.1344   11.1437    1.0894 H   0  0  0  0  0  0  0  0  0  0  0  0
   -1.3572    9.5732    1.3852 H   0  0  0  0  0  0  0  0  0  0  0  0
   -0.0097   12.0871    1.2115 H   0  0  0  0  0  0  0  0  0  0  0  0
    0.7995   10.5249    1.1258 H   0  0  0  0  0  0  0  0  0  0  0  0
   -0.8368   13.1728   -0.2499 H   0  0  0  0  0  0  0  0  0  0  0  0
    0.1044   13.3576   -1.7686 H   0  0  0  0  0  0  0  0  0  0  0  0
   -1.4244   12.4146   -1.7686 H   0  0  0  0  0  0  0  0  0  0  0  0
    2.2091   10.5888   -0.8423 H   0  0  0  0  0  0  0  0  0  0  0  0
    2.1055   12.8789    0.3315 H   0  0  0  0  0  0  0  0  0  0  0  0
    3.5911   12.3655   -0.6274 H   0  0  0  0  0  0  0  0  0  0  0  0
    2.8129   14.8638   -0.9318 H   0  0  0  0  0  0  0  0  0  0  0  0
    0.6763   12.8377   -3.6932 H   0  0  0  0  0  0  0  0  0  0  0  0
    3.5554   12.8240   -4.7922 H   0  0  0  0  0  0  0  0  0  0  0  0
    2.0904   12.0637   -5.5578 H   0  0  0  0  0  0  0  0  0  0  0  0
    2.7051   14.2052   -6.6348 H   0  0  0  0  0  0  0  0  0  0  0  0
    1.0747   14.2485   -5.8567 H   0  0  0  0  0  0  0  0  0  0  0  0
    2.2156   16.3029   -5.3695 H   0  0  0  0  0  0  0  0  0  0  0  0
    4.2400   16.0140   -4.0100 H   0  0  0  0  0  0  0  0  0  0  0  0
   -0.0070   15.8019   -2.5387 H   0  0  0  0  0  0  0  0  0  0  0  0
    0.2759   16.6620   -4.0901 H   0  0  0  0  0  0  0  0  0  0  0  0
   -0.0650   14.8983   -4.0901 H   0  0  0  0  0  0  0  0  0  0  0  0
    2.4642   16.4361   -1.5702 H   0  0  0  0  0  0  0  0  0  0  0  0
    3.6210   16.7200   -2.9148 H   0  0  0  0  0  0  0  0  0  0  0  0
    2.0244   17.5430   -2.9148 H   0  0  0  0  0  0  0  0  0  0  0  0
    3.9448   10.7860   -2.0747 H   0  0  0  0  0  0  0  0  0  0  0  0
    3.4705    9.9951   -3.6162 H   0  0  0  0  0  0  0  0  0  0  0  0
    4.0203   11.7052   -3.6162 H   0  0  0  0  0  0  0  0  0  0  0  0
    0.9980   10.5870   -4.5925 H   0  0  0  0  0  0  0  0  0  0  0  0
    1.5690    9.3668   -3.3205 H   0  0  0  0  0  0  0  0  0  0  0  0
   -0.9406   11.0657   -3.2573 H   0  0  0  0  0  0  0  0  0  0  0  0
   -0.7972    9.2689   -3.3928 H   0  0  0  0  0  0  0  0  0  0  0  0
    0.4983    8.6557    0.0183 H   0  0  0  0  0  0  0  0  0  0  0  0
   -0.0858    7.8813   -1.4936 H   0  0  0  0  0  0  0  0  0  0  0  0
    1.4575    8.8005   -1.4936 H   0  0  0  0  0  0  0  0  0  0  0  0
  1  2  1  0
  2  3  1  0
  3  4  1  0
  4  5  1  0
  5  6  1  0
  6  7  1  0
  7  8  1  0
  7  9  1  0
  2 10  1  0
 10 11  1  0
 11 12  1  0
 12 13  1  0
 13 14  1  6
 13 15  1  0
 15 16  1  0
 16 17  1  0
 17 18  2  0
 18 19  1  0
 19 20  1  0
 20 21  1  0
 21 22  1  0
 22 23  1  0
 22 24  1  0
 24 25  1  0
 24 26  1  0
 19 27  1  0
 27 28  1  1
 27 29  1  0
 29 30  1  0
 30 31  1  0
 31 32  1  6
  7  5  1  0
 31 10  1  0
 31 13  1  0
 27 15  1  0
 24 18  1  0
  1 33  1  0
  1 34  1  0
  1 35  1  0
  2 36  1  1
  3 37  1  0
  3 38  1  0
  4 39  1  0
  4 40  1  0
  5 41  1  6
  8 42  1  0
  8 43  1  0
  8 44  1  0
  9 45  1  0
  9 46  1  0
  9 47  1  0
 10 48  1  6
 11 49  1  0
 11 50  1  0
 12 51  1  0
 12 52  1  0
 14 53  1  0
 14 54  1  0
 14 55  1  0
 15 56  1  1
 16 57  1  0
 16 58  1  0
 17 59  1  0
 19 60  1  6
 20 61  1  0
 20 62  1  0
 21 63  1  0
 21 64  1  0
 22 65  1  6
 23 66  1  0
 25 67  1  0
 25 68  1  0
 25 69  1  0
 26 70  1  0
 26 71  1  0
 26 72  1  0
 28 73  1  0
 28 74  1  0
 28 75  1  0
 29 76  1  0
 29 77  1  0
 30 78  1  0
 30 79  1  0
 32 80  1  0
 32 81  1  0
 32 82  1  0
M  END
>  <meeko>  (5) 
{"is_sidechain": [false], "intermolecular_energy": 2.731, "internal_energy": -0.839}

$$$$
EPH_relaxed_0001_pdb2pqr_Repair_320_r2_0001_out
     RDKit          3D

 82 86  0  0  0  0  0  0  0  0999 V2000
   -0.8840    9.1630   -2.2840 C   0  0  0  0  0  0  0  0  0  0  0  0
   -1.1110    9.3630   -0.7830 C   0  0  2  0  0  0  0  0  0  0  0  0
   -2.6070    9.3310   -0.4120 C   0  0  0  0  0  0  0  0  0  0  0  0
   -3.3900    8.2140   -1.1070 C   0  0  0  0  0  0  0  0  0  0  0  0
   -4.8510    8.2730   -0.7770 C   0  0  2  0  0  0  0  0  0  0  0  0
   -5.3930    7.0590   -0.2410 O   0  0  0  0  0  0  0  0  0  0  0  0
   -5.9080    7.4740   -1.5160 C   0  0  0  0  0  0  0  0  0  0  0  0
   -5.5480    6.5600   -2.6450 C   0  0  0  0  0  0  0  0  0  0  0  0
   -7.3270    7.9490   -1.4680 C   0  0  0  0  0  0  0  0  0  0  0  0
   -0.4900   10.6800   -0.3340 C   0  0  1  0  0  0  0  0  0  0  0  0
    0.4860   10.5050    0.8590 C   0  0  0  0  0  0  0  0  0  0  0  0
    1.6250   11.5380    0.6600 C   0  0  0  0  0  0  0  0  0  0  0  0
    1.1030   12.4870   -0.4440 C   0  0  1  0  0  0  0  0  0  0  0  0
    0.1590   13.4840    0.2990 C   0  0  0  0  0  0  0  0  0  0  0  0
    2.1900   13.2360   -1.2810 C   0  0  2  0  0  0  0  0  0  0  0  0
    3.0870   14.1940   -0.4790 C   0  0  0  0  0  0  0  0  0  0  0  0
    2.5940   15.6000   -0.3830 C   0  0  0  0  0  0  0  0  0  0  0  0
    1.6320   16.1450   -1.1490 C   0  0  0  0  0  0  0  0  0  0  0  0
    0.9990   15.3540   -2.3010 C   0  0  1  0  0  0  0  0  0  0  0  0
    0.9330   16.2460   -3.5680 C   0  0  0  0  0  0  0  0  0  0  0  0
    0.2230   17.5720   -3.3130 C   0  0  0  0  0  0  0  0  0  0  0  0
    0.9150   18.3560   -2.2010 C   0  0  2  0  0  0  0  0  0  0  0  0
    2.2130   18.7530   -2.6560 O   0  0  0  0  0  0  0  0  0  0  0  0
    1.0490   17.5540   -0.8770 C   0  0  0  0  0  0  0  0  0  0  0  0
   -0.3470   17.3850   -0.2280 C   0  0  0  0  0  0  0  0  0  0  0  0
    1.8890   18.4040    0.1140 C   0  0  0  0  0  0  0  0  0  0  0  0
    1.6350   13.9270   -2.5930 C   0  0  1  0  0  0  0  0  0  0  0  0
    2.8460   14.0720   -3.5650 C   0  0  0  0  0  0  0  0  0  0  0  0
    0.5730   13.0330   -3.3360 C   0  0  0  0  0  0  0  0  0  0  0  0
   -0.3950   12.2240   -2.4520 C   0  0  0  0  0  0  0  0  0  0  0  0
    0.3660   11.4520   -1.3700 C   0  0  2  0  0  0  0  0  0  0  0  0
    1.3080   10.4260   -2.0860 C   0  0  0  0  0  0  0  0  0  0  0  0
   -0.0668    8.4430   -2.4385 H   0  0  0  0  0  0  0  0  0  0  0  0
   -1.8048    8.7772   -2.7459 H   0  0  0  0  0  0  0  0  0  0  0  0
   -0.6173   10.1250   -2.7459 H   0  0  0  0  0  0  0  0  0  0  0  0
   -0.6244    8.5261   -0.2607 H   0  0  0  0  0  0  0  0  0  0  0  0
   -2.6921    9.1898    0.6756 H   0  0  0  0  0  0  0  0  0  0  0  0
   -3.0416   10.2844   -0.7469 H   0  0  0  0  0  0  0  0  0  0  0  0
   -3.2660    8.3156   -2.1953 H   0  0  0  0  0  0  0  0  0  0  0  0
   -2.9974    7.2490   -0.7539 H   0  0  0  0  0  0  0  0  0  0  0  0
   -4.7753    9.3411   -0.5250 H   0  0  0  0  0  0  0  0  0  0  0  0
   -5.1731    5.6081   -2.2409 H   0  0  0  0  0  0  0  0  0  0  0  0
   -6.4388    6.3709   -3.2620 H   0  0  0  0  0  0  0  0  0  0  0  0
   -4.7675    7.0292   -3.2620 H   0  0  0  0  0  0  0  0  0  0  0  0
   -7.6430    8.0548   -0.4197 H   0  0  0  0  0  0  0  0  0  0  0  0
   -7.4052    8.9223   -1.9745 H   0  0  0  0  0  0  0  0  0  0  0  0
   -7.9754    7.2189   -1.9745 H   0  0  0  0  0  0  0  0  0  0  0  0
   -1.4048   11.2462   -0.1046 H   0  0  0  0  0  0  0  0  0  0  0  0
   -0.0371   10.6959    1.8076 H   0  0  0  0  0  0  0  0  0  0  0  0
    0.8841    9.4803    0.8967 H   0  0  0  0  0  0  0  0  0  0  0  0
    1.8135   12.0923    1.5912 H   0  0  0  0  0  0  0  0  0  0  0  0
    2.5770   11.0610    0.3840 H   0  0  0  0  0  0  0  0  0  0  0  0
    0.2766   13.3597    1.3856 H   0  0  0  0  0  0  0  0  0  0  0  0
    0.4198   14.5149    0.0175 H   0  0  0  0  0  0  0  0  0  0  0  0
   -0.8846   13.2799    0.0175 H   0  0  0  0  0  0  0  0  0  0  0  0
    2.8456   12.4141   -1.6044 H   0  0  0  0  0  0  0  0  0  0  0  0
    3.1811   13.7964    0.5423 H   0  0  0  0  0  0  0  0  0  0  0  0
    4.0420   14.2431   -1.0227 H   0  0  0  0  0  0  0  0  0  0  0  0
    3.0567   16.2448    0.3787 H   0  0  0  0  0  0  0  0  0  0  0  0
   -0.0189   15.0991   -1.9710 H   0  0  0  0  0  0  0  0  0  0  0  0
    1.9587   16.4545   -3.9064 H   0  0  0  0  0  0  0  0  0  0  0  0
    0.3582   15.7006   -4.3310 H   0  0  0  0  0  0  0  0  0  0  0  0
    0.2347   18.1700   -4.2362 H   0  0  0  0  0  0  0  0  0  0  0  0
   -0.8116   17.3626   -3.0036 H   0  0  0  0  0  0  0  0  0  0  0  0
    0.2876   19.2309   -1.9752 H   0  0  0  0  0  0  0  0  0  0  0  0
    2.7470   18.9680   -1.8720 H   0  0  0  0  0  0  0  0  0  0  0  0
   -0.2461   17.3972    0.8673 H   0  0  0  0  0  0  0  0  0  0  0  0
   -1.0012   18.2105   -0.5452 H   0  0  0  0  0  0  0  0  0  0  0  0
   -0.7853   16.4272   -0.5452 H   0  0  0  0  0  0  0  0  0  0  0  0
    1.6221   18.1339    1.1464 H   0  0  0  0  0  0  0  0  0  0  0  0
    2.9589   18.2089   -0.0511 H   0  0  0  0  0  0  0  0  0  0  0  0
    1.6812   19.4715   -0.0511 H   0  0  0  0  0  0  0  0  0  0  0  0
    3.7725   14.1829   -2.9825 H   0  0  0  0  0  0  0  0  0  0  0  0
    2.9166   13.1759   -4.1990 H   0  0  0  0  0  0  0  0  0  0  0  0
    2.7030   14.9594   -4.1990 H   0  0  0  0  0  0  0  0  0  0  0  0
   -0.0323   13.6952   -3.9725 H   0  0  0  0  0  0  0  0  0  0  0  0
    1.1616   12.2805   -3.8813 H   0  0  0  0  0  0  0  0  0  0  0  0
   -1.1043   12.9134   -1.9707 H   0  0  0  0  0  0  0  0  0  0  0  0
   -0.9301   11.5025   -3.0870 H   0  0  0  0  0  0  0  0  0  0  0  0
    1.8492    9.8365   -1.3313 H   0  0  0  0  0  0  0  0  0  0  0  0
    0.7066    9.7530   -2.7148 H   0  0  0  0  0  0  0  0  0  0  0  0
    2.0298   10.9678   -2.7148 H   0  0  0  0  0  0  0  0  0  0  0  0
  1  2  1  0
  2  3  1  0
  3  4  1  0
  4  5  1  0
  5  6  1  0
  6  7  1  0
  7  8  1  0
  7  9  1  0
  2 10  1  0
 10 11  1  0
 11 12  1  0
 12 13  1  0
 13 14  1  1
 13 15  1  0
 15 16  1  0
 16 17  1  0
 17 18  2  0
 18 19  1  0
 19 20  1  0
 20 21  1  0
 21 22  1  0
 22 23  1  0
 22 24  1  0
 24 25  1  0
 24 26  1  0
 19 27  1  0
 27 28  1  6
 27 29  1  0
 29 30  1  0
 30 31  1  0
 31 32  1  6
  7  5  1  0
 31 10  1  0
 31 13  1  0
 27 15  1  0
 24 18  1  0
  1 33  1  0
  1 34  1  0
  1 35  1  0
  2 36  1  1
  3 37  1  0
  3 38  1  0
  4 39  1  0
  4 40  1  0
  5 41  1  1
  8 42  1  0
  8 43  1  0
  8 44  1  0
  9 45  1  0
  9 46  1  0
  9 47  1  0
 10 48  1  1
 11 49  1  0
 11 50  1  0
 12 51  1  0
 12 52  1  0
 14 53  1  0
 14 54  1  0
 14 55  1  0
 15 56  1  6
 16 57  1  0
 16 58  1  0
 17 59  1  0
 19 60  1  1
 20 61  1  0
 20 62  1  0
 21 63  1  0
 21 64  1  0
 22 65  1  1
 23 66  1  0
 25 67  1  0
 25 68  1  0
 25 69  1  0
 26 70  1  0
 26 71  1  0
 26 72  1  0
 28 73  1  0
 28 74  1  0
 28 75  1  0
 29 76  1  0
 29 77  1  0
 30 78  1  0
 30 79  1  0
 32 80  1  0
 32 81  1  0
 32 82  1  0
M  END
>  <meeko>  (6) 
{"is_sidechain": [false], "intermolecular_energy": 2.731, "internal_energy": -0.839}

$$$$
EPH_relaxed_0001_pdb2pqr_Repair_320_r2_0001_out
     RDKit          3D

 82 86  0  0  0  0  0  0  0  0999 V2000
   -0.8900    9.4330   -2.8040 C   0  0  0  0  0  0  0  0  0  0  0  0
    0.2930    9.1140   -1.8840 C   0  0  2  0  0  0  0  0  0  0  0  0
   -0.1570    8.8290   -0.4370 C   0  0  0  0  0  0  0  0  0  0  0  0
   -0.6840   10.0650    0.2970 C   0  0  0  0  0  0  0  0  0  0  0  0
    0.3400   10.6310    1.2340 C   0  0  2  0  0  0  0  0  0  0  0  0
   -0.1930   11.4650    2.2710 O   0  0  0  0  0  0  0  0  0  0  0  0
    0.6690   12.1100    1.3190 C   0  0  0  0  0  0  0  0  0  0  0  0
   -0.0240   13.1150    0.4530 C   0  0  0  0  0  0  0  0  0  0  0  0
    1.9940   12.5170    1.8850 C   0  0  0  0  0  0  0  0  0  0  0  0
    1.2920   10.2650   -1.9030 C   0  0  1  0  0  0  0  0  0  0  0  0
    2.7260    9.8050   -2.2760 C   0  0  0  0  0  0  0  0  0  0  0  0
    3.3660   10.9550   -3.0950 C   0  0  0  0  0  0  0  0  0  0  0  0
    2.4160   12.1580   -2.8860 C   0  0  1  0  0  0  0  0  0  0  0  0
    2.8200   12.7520   -1.5000 C   0  0  0  0  0  0  0  0  0  0  0  0
    2.4250   13.2490   -4.0060 C   0  0  2  0  0  0  0  0  0  0  0  0
    3.7680   13.9730   -4.2010 C   0  0  0  0  0  0  0  0  0  0  0  0
    3.9500   15.2100   -3.3850 C   0  0  0  0  0  0  0  0  0  0  0  0
    2.9700   15.8770   -2.7480 C   0  0  0  0  0  0  0  0  0  0  0  0
    1.5030   15.4510   -2.8930 C   0  0  1  0  0  0  0  0  0  0  0  0
    0.6250   16.7010   -3.1640 C   0  0  0  0  0  0  0  0  0  0  0  0
    0.8150   17.7890   -2.1100 C   0  0  0  0  0  0  0  0  0  0  0  0
    2.2750   18.2270   -2.0360 C   0  0  2  0  0  0  0  0  0  0  0  0
    2.6230   18.8820   -3.2600 O   0  0  0  0  0  0  0  0  0  0  0  0
    3.2560   17.0490   -1.7770 C   0  0  0  0  0  0  0  0  0  0  0  0
    3.0780   16.5340   -0.3270 C   0  0  0  0  0  0  0  0  0  0  0  0
    4.7030   17.6050   -1.8660 C   0  0  0  0  0  0  0  0  0  0  0  0
    1.2220   14.2740   -3.9230 C   0  0  1  0  0  0  0  0  0  0  0  0
    1.0320   14.8550   -5.3570 C   0  0  0  0  0  0  0  0  0  0  0  0
   -0.1360   13.5730   -3.5450 C   0  0  0  0  0  0  0  0  0  0  0  0
   -0.0630   12.4230   -2.5220 C   0  0  0  0  0  0  0  0  0  0  0  0
    1.0280   11.4190   -2.9030 C   0  0  2  0  0  0  0  0  0  0  0  0
    0.6380   10.7880   -4.2830 C   0  0  0  0  0  0  0  0  0  0  0  0
   -1.7743    9.6715   -2.1948 H   0  0  0  0  0  0  0  0  0  0  0  0
   -0.6386   10.2954   -3.4388 H   0  0  0  0  0  0  0  0  0  0  0  0
   -1.1063    8.5611   -3.4388 H   0  0  0  0  0  0  0  0  0  0  0  0
    0.7723    8.2006   -2.2659 H   0  0  0  0  0  0  0  0  0  0  0  0
   -0.9563    8.0737   -0.4640 H   0  0  0  0  0  0  0  0  0  0  0  0
    0.7296    8.4813    0.1134 H   0  0  0  0  0  0  0  0  0  0  0  0
   -0.9522   10.8325   -0.4440 H   0  0  0  0  0  0  0  0  0  0  0  0
   -1.5616    9.7648    0.8883 H   0  0  0  0  0  0  0  0  0  0  0  0
    0.9738    9.7396    1.1173 H   0  0  0  0  0  0  0  0  0  0  0  0
   -0.5344   13.8552    1.0867 H   0  0  0  0  0  0  0  0  0  0  0  0
    0.7159   13.6241   -0.1821 H   0  0  0  0  0  0  0  0  0  0  0  0
   -0.7629   12.6044   -0.1821 H   0  0  0  0  0  0  0  0  0  0  0  0
    1.9437   12.5016    2.9837 H   0  0  0  0  0  0  0  0  0  0  0  0
    2.7696   11.8157    1.5435 H   0  0  0  0  0  0  0  0  0  0  0  0
    2.2422   13.5328    1.5435 H   0  0  0  0  0  0  0  0  0  0  0  0
    1.1756   10.6277   -0.8711 H   0  0  0  0  0  0  0  0  0  0  0  0
    3.3126    9.6171   -1.3646 H   0  0  0  0  0  0  0  0  0  0  0  0
    2.7025    8.8716   -2.8576 H   0  0  0  0  0  0  0  0  0  0  0  0
    4.3735   11.1858   -2.7187 H   0  0  0  0  0  0  0  0  0  0  0  0
    3.4833   10.6955   -4.1575 H   0  0  0  0  0  0  0  0  0  0  0  0
    2.3971   12.1302   -0.6972 H   0  0  0  0  0  0  0  0  0  0  0  0
    3.9165   12.7671   -1.4131 H   0  0  0  0  0  0  0  0  0  0  0  0
    2.4311   13.7773   -1.4131 H   0  0  0  0  0  0  0  0  0  0  0  0
    2.2728   12.6520   -4.9173 H   0  0  0  0  0  0  0  0  0  0  0  0
    4.5736   13.2713   -3.9389 H   0  0  0  0  0  0  0  0  0  0  0  0
    3.7898   14.2960   -5.2523 H   0  0  0  0  0  0  0  0  0  0  0  0
    4.9710   15.6098   -3.2971 H   0  0  0  0  0  0  0  0  0  0  0  0
    1.2213   14.9983   -1.9308 H   0  0  0  0  0  0  0  0  0  0  0  0
    0.8922   17.1130   -4.1483 H   0  0  0  0  0  0  0  0  0  0  0  0
   -0.4277   16.3835   -3.1304 H   0  0  0  0  0  0  0  0  0  0  0  0
    0.1916   18.6567   -2.3717 H   0  0  0  0  0  0  0  0  0  0  0  0
    0.5194   17.3848   -1.1306 H   0  0  0  0  0  0  0  0  0  0  0  0
    2.3710   18.9097   -1.1788 H   0  0  0  0  0  0  0  0  0  0  0  0
    2.7090   18.1980   -3.9460 H   0  0  0  0  0  0  0  0  0  0  0  0
    3.3530   17.3296    0.3810 H   0  0  0  0  0  0  0  0  0  0  0  0
    2.0284   16.2467   -0.1662 H   0  0  0  0  0  0  0  0  0  0  0  0
    3.7262   15.6599   -0.1662 H   0  0  0  0  0  0  0  0  0  0  0  0
    5.1002   17.7576   -0.8516 H   0  0  0  0  0  0  0  0  0  0  0  0
    5.3391   16.8873   -2.4047 H   0  0  0  0  0  0  0  0  0  0  0  0
    4.6948   18.5640   -2.4047 H   0  0  0  0  0  0  0  0  0  0  0  0
    0.6908   15.8984   -5.2876 H   0  0  0  0  0  0  0  0  0  0  0  0
    1.9892   14.8174   -5.8976 H   0  0  0  0  0  0  0  0  0  0  0  0
    0.2819   14.2591   -5.8976 H   0  0  0  0  0  0  0  0  0  0  0  0
   -0.8046   14.3431   -3.1328 H   0  0  0  0  0  0  0  0  0  0  0  0
   -0.4887   13.1072   -4.4770 H   0  0  0  0  0  0  0  0  0  0  0  0
    0.1616   12.8388   -1.5287 H   0  0  0  0  0  0  0  0  0  0  0  0
   -1.0314   11.9013   -2.5111 H   0  0  0  0  0  0  0  0  0  0  0  0
    0.0665    9.8633   -4.1149 H   0  0  0  0  0  0  0  0  0  0  0  0
    0.0229   11.5010   -4.8515 H   0  0  0  0  0  0  0  0  0  0  0  0
    1.5509   10.5566   -4.8515 H   0  0  0  0  0  0  0  0  0  0  0  0
  1  2  1  0
  2  3  1  0
  3  4  1  0
  4  5  1  0
  5  6  1  0
  6  7  1  0
  7  8  1  0
  7  9  1  0
  2 10  1  0
 10 11  1  0
 11 12  1  0
 12 13  1  0
 13 14  1  1
 13 15  1  0
 15 16  1  0
 16 17  1  0
 17 18  2  0
 18 19  1  0
 19 20  1  0
 20 21  1  0
 21 22  1  0
 22 23  1  0
 22 24  1  0
 24 25  1  0
 24 26  1  0
 19 27  1  0
 27 28  1  6
 27 29  1  0
 29 30  1  0
 30 31  1  0
 31 32  1  6
  7  5  1  0
 31 10  1  0
 31 13  1  0
 27 15  1  0
 24 18  1  0
  1 33  1  0
  1 34  1  0
  1 35  1  0
  2 36  1  6
  3 37  1  0
  3 38  1  0
  4 39  1  0
  4 40  1  0
  5 41  1  1
  8 42  1  0
  8 43  1  0
  8 44  1  0
  9 45  1  0
  9 46  1  0
  9 47  1  0
 10 48  1  1
 11 49  1  0
 11 50  1  0
 12 51  1  0
 12 52  1  0
 14 53  1  0
 14 54  1  0
 14 55  1  0
 15 56  1  6
 16 57  1  0
 16 58  1  0
 17 59  1  0
 19 60  1  1
 20 61  1  0
 20 62  1  0
 21 63  1  0
 21 64  1  0
 22 65  1  1
 23 66  1  0
 25 67  1  0
 25 68  1  0
 25 69  1  0
 26 70  1  0
 26 71  1  0
 26 72  1  0
 28 73  1  0
 28 74  1  0
 28 75  1  0
 29 76  1  0
 29 77  1  0
 30 78  1  0
 30 79  1  0
 32 80  1  0
 32 81  1  0
 32 82  1  0
M  END
>  <meeko>  (7) 
{"is_sidechain": [false], "intermolecular_energy": 2.731, "internal_energy": -0.839}

$$$$
EPH_relaxed_0001_pdb2pqr_Repair_320_r2_0001_out
     RDKit          3D

 82 86  0  0  0  0  0  0  0  0999 V2000
    4.7320   16.9810   -2.1560 C   0  0  0  0  0  0  0  0  0  0  0  0
    3.4310   17.3790   -2.8600 C   0  0  2  0  0  0  0  0  0  0  0  0
    3.0230   18.8320   -2.5480 C   0  0  0  0  0  0  0  0  0  0  0  0
    2.6830   19.0730   -1.0740 C   0  0  0  0  0  0  0  0  0  0  0  0
    1.4660   19.9340   -0.9190 C   0  0  2  0  0  0  0  0  0  0  0  0
    1.0860   20.1940    0.4380 O   0  0  0  0  0  0  0  0  0  0  0  0
    0.1540   19.4330   -0.3460 C   0  0  0  0  0  0  0  0  0  0  0  0
   -0.0090   18.0160    0.1080 C   0  0  0  0  0  0  0  0  0  0  0  0
   -1.1030   20.1750   -0.6790 C   0  0  0  0  0  0  0  0  0  0  0  0
    2.3110   16.4250   -2.4610 C   0  0  1  0  0  0  0  0  0  0  0  0
    0.9140   16.9180   -2.9230 C   0  0  0  0  0  0  0  0  0  0  0  0
    0.0930   15.6540   -3.2880 C   0  0  0  0  0  0  0  0  0  0  0  0
    0.9150   14.4760   -2.7160 C   0  0  1  0  0  0  0  0  0  0  0  0
    0.5480   14.4300   -1.1990 C   0  0  0  0  0  0  0  0  0  0  0  0
    0.7040   13.0880   -3.4030 C   0  0  2  0  0  0  0  0  0  0  0  0
   -0.7230   12.5200   -3.3010 C   0  0  0  0  0  0  0  0  0  0  0  0
   -0.9820   11.6550   -2.1120 C   0  0  0  0  0  0  0  0  0  0  0  0
   -0.0400   11.1150   -1.3180 C   0  0  0  0  0  0  0  0  0  0  0  0
    1.4510   11.2760   -1.6420 C   0  0  1  0  0  0  0  0  0  0  0  0
    2.1620    9.9040   -1.5030 C   0  0  0  0  0  0  0  0  0  0  0  0
    1.9280    9.2600   -0.1400 C   0  0  0  0  0  0  0  0  0  0  0  0
    0.4370    9.0630    0.1210 C   0  0  2  0  0  0  0  0  0  0  0  0
   -0.0680    8.0920   -0.8000 O   0  0  0  0  0  0  0  0  0  0  0  0
   -0.3850   10.3760   -0.0010 C   0  0  0  0  0  0  0  0  0  0  0  0
   -0.0470   11.3140    1.1850 C   0  0  0  0  0  0  0  0  0  0  0  0
   -1.8870   10.0150    0.1460 C   0  0  0  0  0  0  0  0  0  0  0  0
    1.7870   12.0010   -3.0160 C   0  0  1  0  0  0  0  0  0  0  0  0
    1.8070   10.9600   -4.1760 C   0  0  0  0  0  0  0  0  0  0  0  0
    3.2390   12.6060   -2.9370 C   0  0  0  0  0  0  0  0  0  0  0  0
    3.3680   14.0280   -2.3580 C   0  0  0  0  0  0  0  0  0  0  0  0
    2.3710   14.9830   -3.0220 C   0  0  2  0  0  0  0  0  0  0  0  0
    2.7300   15.0660   -4.5450 C   0  0  0  0  0  0  0  0  0  0  0  0
    4.5876   17.0252   -1.0664 H   0  0  0  0  0  0  0  0  0  0  0  0
    5.0086   15.9572   -2.4480 H   0  0  0  0  0  0  0  0  0  0  0  0
    5.5340   17.6749   -2.4480 H   0  0  0  0  0  0  0  0  0  0  0  0
    3.6072   17.3119   -3.9437 H   0  0  0  0  0  0  0  0  0  0  0  0
    3.8568   19.4939   -2.8248 H   0  0  0  0  0  0  0  0  0  0  0  0
    2.1112   19.0412   -3.1266 H   0  0  0  0  0  0  0  0  0  0  0  0
    2.4981   18.1038   -0.5878 H   0  0  0  0  0  0  0  0  0  0  0  0
    3.5324   19.5929   -0.6069 H   0  0  0  0  0  0  0  0  0  0  0  0
    1.7066   20.4810   -1.8425 H   0  0  0  0  0  0  0  0  0  0  0  0
   -0.0130   17.9814    1.2074 H   0  0  0  0  0  0  0  0  0  0  0  0
   -0.9592   17.6153   -0.2749 H   0  0  0  0  0  0  0  0  0  0  0  0
    0.8254   17.4100   -0.2749 H   0  0  0  0  0  0  0  0  0  0  0  0
   -1.6095   20.4740    0.2506 H   0  0  0  0  0  0  0  0  0  0  0  0
   -0.8550   21.0715   -1.2661 H   0  0  0  0  0  0  0  0  0  0  0  0
   -1.7681   19.5246   -1.2661 H   0  0  0  0  0  0  0  0  0  0  0  0
    2.4609   16.4105   -1.3714 H   0  0  0  0  0  0  0  0  0  0  0  0
    0.4190   17.4698   -2.1103 H   0  0  0  0  0  0  0  0  0  0  0  0
    0.9991   17.5966   -3.7845 H   0  0  0  0  0  0  0  0  0  0  0  0
   -0.9045   15.6920   -2.8258 H   0  0  0  0  0  0  0  0  0  0  0  0
   -0.0701   15.5613   -4.3719 H   0  0  0  0  0  0  0  0  0  0  0  0
    1.4616   14.5445   -0.5971 H   0  0  0  0  0  0  0  0  0  0  0  0
   -0.1498   15.2477   -0.9656 H   0  0  0  0  0  0  0  0  0  0  0  0
    0.0736   13.4654   -0.9656 H   0  0  0  0  0  0  0  0  0  0  0  0
    0.8566   13.3258   -4.4661 H   0  0  0  0  0  0  0  0  0  0  0  0
   -1.4240   13.3669   -3.2643 H   0  0  0  0  0  0  0  0  0  0  0  0
   -0.8571   11.8746   -4.1816 H   0  0  0  0  0  0  0  0  0  0  0  0
   -2.0322   11.4411   -1.8643 H   0  0  0  0  0  0  0  0  0  0  0  0
    1.8502   11.9803   -0.8973 H   0  0  0  0  0  0  0  0  0  0  0  0
    1.7803    9.2283   -2.2826 H   0  0  0  0  0  0  0  0  0  0  0  0
    3.2432   10.0756   -1.6103 H   0  0  0  0  0  0  0  0  0  0  0  0
    2.4306    8.2819   -0.1128 H   0  0  0  0  0  0  0  0  0  0  0  0
    2.3359    9.9235    0.6367 H   0  0  0  0  0  0  0  0  0  0  0  0
    0.3268    8.7196    1.1602 H   0  0  0  0  0  0  0  0  0  0  0  0
   -1.0340    8.0620   -0.6960 H   0  0  0  0  0  0  0  0  0  0  0  0
   -0.2361   10.7891    2.1330 H   0  0  0  0  0  0  0  0  0  0  0  0
    1.0125   11.6049    1.1320 H   0  0  0  0  0  0  0  0  0  0  0  0
   -0.6774   12.2139    1.1320 H   0  0  0  0  0  0  0  0  0  0  0  0
   -2.1464    9.9527    1.2132 H   0  0  0  0  0  0  0  0  0  0  0  0
   -2.4996   10.7915   -0.3355 H   0  0  0  0  0  0  0  0  0  0  0  0
   -2.0798    9.0449   -0.3355 H   0  0  0  0  0  0  0  0  0  0  0  0
    1.8265    9.9435   -3.7561 H   0  0  0  0  0  0  0  0  0  0  0  0
    0.9063   11.0837   -4.7952 H   0  0  0  0  0  0  0  0  0  0  0  0
    2.7023   11.1182   -4.7952 H   0  0  0  0  0  0  0  0  0  0  0  0
    3.8455   11.9353   -2.3106 H   0  0  0  0  0  0  0  0  0  0  0  0
    3.5738   12.6888   -3.9815 H   0  0  0  0  0  0  0  0  0  0  0  0
    3.1696   13.9955   -1.2765 H   0  0  0  0  0  0  0  0  0  0  0  0
    4.3869   14.3944   -2.5517 H   0  0  0  0  0  0  0  0  0  0  0  0
    3.7961   15.3125   -4.6575 H   0  0  0  0  0  0  0  0  0  0  0  0
    2.5253   14.0968   -5.0233 H   0  0  0  0  0  0  0  0  0  0  0  0
    2.1206   15.8470   -5.0233 H   0  0  0  0  0  0  0  0  0  0  0  0
  1  2  1  0
  2  3  1  0
  3  4  1  0
  4  5  1  0
  5  6  1  0
  6  7  1  0
  7  8  1  0
  7  9  1  0
  2 10  1  0
 10 11  1  0
 11 12  1  0
 12 13  1  0
 13 14  1  1
 13 15  1  0
 15 16  1  0
 16 17  1  0
 17 18  2  0
 18 19  1  0
 19 20  1  0
 20 21  1  0
 21 22  1  0
 22 23  1  0
 22 24  1  0
 24 25  1  0
 24 26  1  0
 19 27  1  0
 27 28  1  6
 27 29  1  0
 29 30  1  0
 30 31  1  0
 31 32  1  6
  7  5  1  0
 31 10  1  0
 31 13  1  0
 27 15  1  0
 24 18  1  0
  1 33  1  0
  1 34  1  0
  1 35  1  0
  2 36  1  6
  3 37  1  0
  3 38  1  0
  4 39  1  0
  4 40  1  0
  5 41  1  6
  8 42  1  0
  8 43  1  0
  8 44  1  0
  9 45  1  0
  9 46  1  0
  9 47  1  0
 10 48  1  1
 11 49  1  0
 11 50  1  0
 12 51  1  0
 12 52  1  0
 14 53  1  0
 14 54  1  0
 14 55  1  0
 15 56  1  6
 16 57  1  0
 16 58  1  0
 17 59  1  0
 19 60  1  1
 20 61  1  0
 20 62  1  0
 21 63  1  0
 21 64  1  0
 22 65  1  1
 23 66  1  0
 25 67  1  0
 25 68  1  0
 25 69  1  0
 26 70  1  0
 26 71  1  0
 26 72  1  0
 28 73  1  0
 28 74  1  0
 28 75  1  0
 29 76  1  0
 29 77  1  0
 30 78  1  0
 30 79  1  0
 32 80  1  0
 32 81  1  0
 32 82  1  0
M  END
>  <meeko>  (8) 
{"is_sidechain": [false], "intermolecular_energy": 2.731, "internal_energy": -0.839}

$$$$
EPH_relaxed_0001_pdb2pqr_Repair_320_r2_0001_out
     RDKit          3D

 82 86  0  0  0  0  0  0  0  0999 V2000
    4.4680   10.8250   -4.6770 C   0  0  0  0  0  0  0  0  0  0  0  0
    3.8640   11.1430   -3.3060 C   0  0  2  0  0  0  0  0  0  0  0  0
    2.3690   10.7720   -3.2310 C   0  0  0  0  0  0  0  0  0  0  0  0
    1.9880   10.0090   -1.9590 C   0  0  0  0  0  0  0  0  0  0  0  0
    0.5270    9.6760   -1.9290 C   0  0  2  0  0  0  0  0  0  0  0  0
   -0.3450   10.8120   -1.8670 O   0  0  0  0  0  0  0  0  0  0  0  0
   -0.3660    9.9340   -0.7300 C   0  0  0  0  0  0  0  0  0  0  0  0
    0.1710   10.5500    0.5240 C   0  0  0  0  0  0  0  0  0  0  0  0
   -1.6320    9.1470   -0.5980 C   0  0  0  0  0  0  0  0  0  0  0  0
    4.0500   12.6220   -2.9870 C   0  0  1  0  0  0  0  0  0  0  0  0
    5.2170   13.2630   -3.7840 C   0  0  0  0  0  0  0  0  0  0  0  0
    4.7960   14.7220   -4.0980 C   0  0  0  0  0  0  0  0  0  0  0  0
    3.5640   14.9740   -3.1970 C   0  0  1  0  0  0  0  0  0  0  0  0
    4.1570   15.3140   -1.7940 C   0  0  0  0  0  0  0  0  0  0  0  0
    2.5660   16.0750   -3.6840 C   0  0  2  0  0  0  0  0  0  0  0  0
    3.1540   17.4950   -3.7740 C   0  0  0  0  0  0  0  0  0  0  0  0
    3.0210   18.3190   -2.5360 C   0  0  0  0  0  0  0  0  0  0  0  0
    2.2090   18.0460   -1.4980 C   0  0  0  0  0  0  0  0  0  0  0  0
    1.2390   16.8590   -1.5470 C   0  0  1  0  0  0  0  0  0  0  0  0
   -0.1610   17.3130   -1.0570 C   0  0  0  0  0  0  0  0  0  0  0  0
   -0.1140   17.9710    0.3180 C   0  0  0  0  0  0  0  0  0  0  0  0
    0.8150   19.1820    0.3120 C   0  0  2  0  0  0  0  0  0  0  0  0
    0.2480   20.1940   -0.5250 O   0  0  0  0  0  0  0  0  0  0  0  0
    2.2530   18.8480   -0.1740 C   0  0  0  0  0  0  0  0  0  0  0  0
    2.9760   17.9870    0.8910 C   0  0  0  0  0  0  0  0  0  0  0  0
    3.0470   20.1790   -0.2670 C   0  0  0  0  0  0  0  0  0  0  0  0
    1.1770   16.0710   -2.9260 C   0  0  1  0  0  0  0  0  0  0  0  0
    0.1480   16.7500   -3.8810 C   0  0  0  0  0  0  0  0  0  0  0  0
    0.6440   14.6130   -2.6620 C   0  0  0  0  0  0  0  0  0  0  0  0
    1.6930   13.5440   -2.3020 C   0  0  0  0  0  0  0  0  0  0  0  0
    2.8630   13.5700   -3.2900 C   0  0  2  0  0  0  0  0  0  0  0  0
    2.3010   13.2100   -4.7070 C   0  0  0  0  0  0  0  0  0  0  0  0
    5.4341   10.3164   -4.5430 H   0  0  0  0  0  0  0  0  0  0  0  0
    3.7834   10.1704   -5.2364 H   0  0  0  0  0  0  0  0  0  0  0  0
    4.6203   11.7598   -5.2364 H   0  0  0  0  0  0  0  0  0  0  0  0
    4.3941   10.5322   -2.5603 H   0  0  0  0  0  0  0  0  0  0  0  0
    1.7785   11.6993   -3.2699 H   0  0  0  0  0  0  0  0  0  0  0  0
    2.1597   10.1057   -4.0808 H   0  0  0  0  0  0  0  0  0  0  0  0
    2.5675    9.0750   -1.9165 H   0  0  0  0  0  0  0  0  0  0  0  0
    2.2112   10.6510   -1.0942 H   0  0  0  0  0  0  0  0  0  0  0  0
    0.6950    8.7799   -2.5444 H   0  0  0  0  0  0  0  0  0  0  0  0
   -0.2684   10.0460    1.3974 H   0  0  0  0  0  0  0  0  0  0  0  0
    1.2650   10.4382    0.5481 H   0  0  0  0  0  0  0  0  0  0  0  0
   -0.0890   11.6186    0.5481 H   0  0  0  0  0  0  0  0  0  0  0  0
   -1.8645    9.0025    0.4674 H   0  0  0  0  0  0  0  0  0  0  0  0
   -2.4552    9.6928   -1.0822 H   0  0  0  0  0  0  0  0  0  0  0  0
   -1.5069    8.1673   -1.0822 H   0  0  0  0  0  0  0  0  0  0  0  0
    4.2111   12.5571   -1.9008 H   0  0  0  0  0  0  0  0  0  0  0  0
    6.1368   13.2556   -3.1807 H   0  0  0  0  0  0  0  0  0  0  0  0
    5.4186   12.7024   -4.7087 H   0  0  0  0  0  0  0  0  0  0  0  0
    5.6076   15.4222   -3.8511 H   0  0  0  0  0  0  0  0  0  0  0  0
    4.5710   14.8714   -5.1643 H   0  0  0  0  0  0  0  0  0  0  0  0
    3.4875   14.9301   -1.0101 H   0  0  0  0  0  0  0  0  0  0  0  0
    5.1475   14.8466   -1.6915 H   0  0  0  0  0  0  0  0  0  0  0  0
    4.2540   16.4049   -1.6915 H   0  0  0  0  0  0  0  0  0  0  0  0
    2.3643   15.7693   -4.7212 H   0  0  0  0  0  0  0  0  0  0  0  0
    4.2248   17.4054   -4.0095 H   0  0  0  0  0  0  0  0  0  0  0  0
    2.5748   18.0160   -4.5505 H   0  0  0  0  0  0  0  0  0  0  0  0
    3.6392   19.2262   -2.4664 H   0  0  0  0  0  0  0  0  0  0  0  0
    1.6478   16.1039   -0.8595 H   0  0  0  0  0  0  0  0  0  0  0  0
   -0.5707   18.0344   -1.7794 H   0  0  0  0  0  0  0  0  0  0  0  0
   -0.7937   16.4167   -0.9769 H   0  0  0  0  0  0  0  0  0  0  0  0
   -1.1273   18.2961    0.5963 H   0  0  0  0  0  0  0  0  0  0  0  0
    0.2683   17.2389    1.0446 H   0  0  0  0  0  0  0  0  0  0  0  0
    0.9078   19.5316    1.3508 H   0  0  0  0  0  0  0  0  0  0  0  0
    0.2400   21.0240   -0.0180 H   0  0  0  0  0  0  0  0  0  0  0  0
    2.6885   18.3293    1.8961 H   0  0  0  0  0  0  0  0  0  0  0  0
    2.6887   16.9325    0.7667 H   0  0  0  0  0  0  0  0  0  0  0  0
    4.0643   18.0876    0.7667 H   0  0  0  0  0  0  0  0  0  0  0  0
    3.2663   20.5467    0.7463 H   0  0  0  0  0  0  0  0  0  0  0  0
    3.9899   20.0065   -0.8066 H   0  0  0  0  0  0  0  0  0  0  0  0
    2.4473   20.9268   -0.8066 H   0  0  0  0  0  0  0  0  0  0  0  0
   -0.6240   17.2594   -3.2857 H   0  0  0  0  0  0  0  0  0  0  0  0
    0.6658   17.4844   -4.5155 H   0  0  0  0  0  0  0  0  0  0  0  0
   -0.3236   15.9851   -4.5155 H   0  0  0  0  0  0  0  0  0  0  0  0
   -0.0747   14.6669   -1.8310 H   0  0  0  0  0  0  0  0  0  0  0  0
    0.2166   14.2850   -3.6210 H   0  0  0  0  0  0  0  0  0  0  0  0
    2.0733   13.7398   -1.2886 H   0  0  0  0  0  0  0  0  0  0  0  0
    1.2157   12.5541   -2.3493 H   0  0  0  0  0  0  0  0  0  0  0  0
    1.3794   12.6197   -4.5968 H   0  0  0  0  0  0  0  0  0  0  0  0
    2.0800   14.1350   -5.2597 H   0  0  0  0  0  0  0  0  0  0  0  0
    3.0489   12.6225   -5.2597 H   0  0  0  0  0  0  0  0  0  0  0  0
  1  2  1  0
  2  3  1  0
  3  4  1  0
  4  5  1  0
  5  6  1  0
  6  7  1  0
  7  8  1  0
  7  9  1  0
  2 10  1  0
 10 11  1  0
 11 12  1  0
 12 13  1  0
 13 14  1  1
 13 15  1  0
 15 16  1  0
 16 17  1  0
 17 18  2  0
 18 19  1  0
 19 20  1  0
 20 21  1  0
 21 22  1  0
 22 23  1  0
 22 24  1  0
 24 25  1  0
 24 26  1  0
 19 27  1  0
 27 28  1  6
 27 29  1  0
 29 30  1  0
 30 31  1  0
 31 32  1  6
  7  5  1  0
 31 10  1  0
 31 13  1  0
 27 15  1  0
 24 18  1  0
  1 33  1  0
  1 34  1  0
  1 35  1  0
  2 36  1  1
  3 37  1  0
  3 38  1  0
  4 39  1  0
  4 40  1  0
  5 41  1  6
  8 42  1  0
  8 43  1  0
  8 44  1  0
  9 45  1  0
  9 46  1  0
  9 47  1  0
 10 48  1  1
 11 49  1  0
 11 50  1  0
 12 51  1  0
 12 52  1  0
 14 53  1  0
 14 54  1  0
 14 55  1  0
 15 56  1  6
 16 57  1  0
 16 58  1  0
 17 59  1  0
 19 60  1  1
 20 61  1  0
 20 62  1  0
 21 63  1  0
 21 64  1  0
 22 65  1  1
 23 66  1  0
 25 67  1  0
 25 68  1  0
 25 69  1  0
 26 70  1  0
 26 71  1  0
 26 72  1  0
 28 73  1  0
 28 74  1  0
 28 75  1  0
 29 76  1  0
 29 77  1  0
 30 78  1  0
 30 79  1  0
 32 80  1  0
 32 81  1  0
 32 82  1  0
M  END
>  <meeko>  (9) 
{"is_sidechain": [false], "intermolecular_energy": 2.731, "internal_energy": -0.839}

$$$$
EPH_relaxed_0001_pdb2pqr_Repair_320_r2_0001_out
     RDKit          3D

 82 86  0  0  0  0  0  0  0  0999 V2000
   -0.0860   10.4180   -4.1230 C   0  0  0  0  0  0  0  0  0  0  0  0
    1.1120   10.2140   -3.1910 C   0  0  2  0  0  0  0  0  0  0  0  0
    0.9950    8.9130   -2.3710 C   0  0  0  0  0  0  0  0  0  0  0  0
   -0.4310    8.6020   -1.9100 C   0  0  0  0  0  0  0  0  0  0  0  0
   -0.6420    8.9720   -0.4730 C   0  0  2  0  0  0  0  0  0  0  0  0
   -2.0140    9.0250   -0.0630 O   0  0  0  0  0  0  0  0  0  0  0  0
   -1.2950   10.2680   -0.0290 C   0  0  0  0  0  0  0  0  0  0  0  0
   -1.7780   11.2780   -1.0220 C   0  0  0  0  0  0  0  0  0  0  0  0
   -1.0230   10.7700    1.3540 C   0  0  0  0  0  0  0  0  0  0  0  0
    1.2500   11.4090   -2.2550 C   0  0  1  0  0  0  0  0  0  0  0  0
    2.2040   11.1260   -1.0630 C   0  0  0  0  0  0  0  0  0  0  0  0
    2.9410   12.4550   -0.7550 C   0  0  0  0  0  0  0  0  0  0  0  0
    2.1570   13.5280   -1.5470 C   0  0  1  0  0  0  0  0  0  0  0  0
    0.9200   13.8610   -0.6550 C   0  0  0  0  0  0  0  0  0  0  0  0
    2.9520   14.8170   -1.9360 C   0  0  2  0  0  0  0  0  0  0  0  0
    3.4640   15.6520   -0.7490 C   0  0  0  0  0  0  0  0  0  0  0  0
    2.5310   16.7120   -0.2660 C   0  0  0  0  0  0  0  0  0  0  0  0
    1.4590   17.1750   -0.9350 C   0  0  0  0  0  0  0  0  0  0  0  0
    1.1490   16.6910   -2.3580 C   0  0  1  0  0  0  0  0  0  0  0  0
    0.8180   17.9100   -3.2580 C   0  0  0  0  0  0  0  0  0  0  0  0
   -0.2960   18.7780   -2.6820 C   0  0  0  0  0  0  0  0  0  0  0  0
    0.0730   19.2870   -1.2910 C   0  0  2  0  0  0  0  0  0  0  0  0
    1.1750   20.1920   -1.4090 O   0  0  0  0  0  0  0  0  0  0  0  0
    0.4360   18.1480   -0.2980 C   0  0  0  0  0  0  0  0  0  0  0  0
   -0.8380   17.3460    0.0630 C   0  0  0  0  0  0  0  0  0  0  0  0
    0.9250   18.8030    1.0220 C   0  0  0  0  0  0  0  0  0  0  0  0
    2.2280   15.7250   -3.0120 C   0  0  1  0  0  0  0  0  0  0  0  0
    3.3430   16.5650   -3.7080 C   0  0  0  0  0  0  0  0  0  0  0  0
    1.5390   14.8760   -4.1440 C   0  0  0  0  0  0  0  0  0  0  0  0
    0.8750   13.5540   -3.7150 C   0  0  0  0  0  0  0  0  0  0  0  0
    1.8240   12.7180   -2.8520 C   0  0  2  0  0  0  0  0  0  0  0  0
    3.0690   12.3490   -3.7300 C   0  0  0  0  0  0  0  0  0  0  0  0
   -0.9950   10.5728   -3.5232 H   0  0  0  0  0  0  0  0  0  0  0  0
    0.0890   11.2993   -4.7576 H   0  0  0  0  0  0  0  0  0  0  0  0
   -0.2125    9.5285   -4.7576 H   0  0  0  0  0  0  0  0  0  0  0  0
    2.0104   10.1278   -3.8198 H   0  0  0  0  0  0  0  0  0  0  0  0
    1.3488    8.0776   -2.9930 H   0  0  0  0  0  0  0  0  0  0  0  0
    1.6033    9.0487   -1.4646 H   0  0  0  0  0  0  0  0  0  0  0  0
   -1.1386    9.1699   -2.5320 H   0  0  0  0  0  0  0  0  0  0  0  0
   -0.5964    7.5194   -2.0133 H   0  0  0  0  0  0  0  0  0  0  0  0
    0.3013    8.4847   -0.1855 H   0  0  0  0  0  0  0  0  0  0  0  0
   -2.1932   12.1463   -0.4894 H   0  0  0  0  0  0  0  0  0  0  0  0
   -0.9376   11.6025   -1.6532 H   0  0  0  0  0  0  0  0  0  0  0  0
   -2.5582   10.8276   -1.6532 H   0  0  0  0  0  0  0  0  0  0  0  0
   -1.4130   10.0502    2.0887 H   0  0  0  0  0  0  0  0  0  0  0  0
    0.0617   10.8866    1.4950 H   0  0  0  0  0  0  0  0  0  0  0  0
   -1.5177   11.7423    1.4950 H   0  0  0  0  0  0  0  0  0  0  0  0
    0.1942   11.5521   -1.9813 H   0  0  0  0  0  0  0  0  0  0  0  0
    1.6269   10.8005   -0.1849 H   0  0  0  0  0  0  0  0  0  0  0  0
    2.9179   10.3263   -1.3096 H   0  0  0  0  0  0  0  0  0  0  0  0
    2.9158   12.6723    0.3230 H   0  0  0  0  0  0  0  0  0  0  0  0
    4.0029   12.4190   -1.0397 H   0  0  0  0  0  0  0  0  0  0  0  0
    1.2017   13.7852    0.4056 H   0  0  0  0  0  0  0  0  0  0  0  0
    0.5768   14.8835   -0.8710 H   0  0  0  0  0  0  0  0  0  0  0  0
    0.1098   13.1490   -0.8710 H   0  0  0  0  0  0  0  0  0  0  0  0
    3.8497   14.4033   -2.4187 H   0  0  0  0  0  0  0  0  0  0  0  0
    3.6625   14.9667    0.0882 H   0  0  0  0  0  0  0  0  0  0  0  0
    4.3604   16.1771   -1.1104 H   0  0  0  0  0  0  0  0  0  0  0  0
    2.7371   17.1523    0.7208 H   0  0  0  0  0  0  0  0  0  0  0  0
    0.2671   16.0392   -2.2726 H   0  0  0  0  0  0  0  0  0  0  0  0
    1.7238   18.5248   -3.3659 H   0  0  0  0  0  0  0  0  0  0  0  0
    0.4722   17.5241   -4.2283 H   0  0  0  0  0  0  0  0  0  0  0  0
   -0.4630   19.6379   -3.3474 H   0  0  0  0  0  0  0  0  0  0  0  0
   -1.2093   18.1701   -2.6026 H   0  0  0  0  0  0  0  0  0  0  0  0
   -0.8131   19.7915   -0.8785 H   0  0  0  0  0  0  0  0  0  0  0  0
    0.8280   21.0940   -1.3000 H   0  0  0  0  0  0  0  0  0  0  0  0
   -0.9351   17.2849    1.1570 H   0  0  0  0  0  0  0  0  0  0  0  0
   -1.7206   17.8517   -0.3557 H   0  0  0  0  0  0  0  0  0  0  0  0
   -0.7636   16.3315   -0.3557 H   0  0  0  0  0  0  0  0  0  0  0  0
    0.5130   18.2511    1.8797 H   0  0  0  0  0  0  0  0  0  0  0  0
    2.0239   18.7737    1.0607 H   0  0  0  0  0  0  0  0  0  0  0  0
    0.5845   19.8483    1.0607 H   0  0  0  0  0  0  0  0  0  0  0  0
    3.9747   17.0409   -2.9435 H   0  0  0  0  0  0  0  0  0  0  0  0
    3.9607   15.9059   -4.3357 H   0  0  0  0  0  0  0  0  0  0  0  0
    2.8799   17.3406   -4.3357 H   0  0  0  0  0  0  0  0  0  0  0  0
    0.7624   15.5041   -4.6048 H   0  0  0  0  0  0  0  0  0  0  0  0
    2.3555   14.5816   -4.8198 H   0  0  0  0  0  0  0  0  0  0  0  0
   -0.0333   13.7788   -3.1366 H   0  0  0  0  0  0  0  0  0  0  0  0
    0.6242   12.9786   -4.6183 H   0  0  0  0  0  0  0  0  0  0  0  0
    3.9172   12.0976   -3.0762 H   0  0  0  0  0  0  0  0  0  0  0  0
    2.8265   11.4841   -4.3649 H   0  0  0  0  0  0  0  0  0  0  0  0
    3.3370   13.2063   -4.3649 H   0  0  0  0  0  0  0  0  0  0  0  0
  1  2  1  0
  2  3  1  0
  3  4  1  0
  4  5  1  0
  5  6  1  0
  6  7  1  0
  7  8  1  0
  7  9  1  0
  2 10  1  0
 10 11  1  0
 11 12  1  0
 12 13  1  0
 13 14  1  1
 13 15  1  0
 15 16  1  0
 16 17  1  0
 17 18  2  0
 18 19  1  0
 19 20  1  0
 20 21  1  0
 21 22  1  0
 22 23  1  0
 22 24  1  0
 24 25  1  0
 24 26  1  0
 19 27  1  0
 27 28  1  6
 27 29  1  0
 29 30  1  0
 30 31  1  0
 31 32  1  6
  7  5  1  0
 31 10  1  0
 31 13  1  0
 27 15  1  0
 24 18  1  0
  1 33  1  0
  1 34  1  0
  1 35  1  0
  2 36  1  6
  3 37  1  0
  3 38  1  0
  4 39  1  0
  4 40  1  0
  5 41  1  1
  8 42  1  0
  8 43  1  0
  8 44  1  0
  9 45  1  0
  9 46  1  0
  9 47  1  0
 10 48  1  1
 11 49  1  0
 11 50  1  0
 12 51  1  0
 12 52  1  0
 14 53  1  0
 14 54  1  0
 14 55  1  0
 15 56  1  6
 16 57  1  0
 16 58  1  0
 17 59  1  0
 19 60  1  1
 20 61  1  0
 20 62  1  0
 21 63  1  0
 21 64  1  0
 22 65  1  1
 23 66  1  0
 25 67  1  0
 25 68  1  0
 25 69  1  0
 26 70  1  0
 26 71  1  0
 26 72  1  0
 28 73  1  0
 28 74  1  0
 28 75  1  0
 29 76  1  0
 29 77  1  0
 30 78  1  0
 30 79  1  0
 32 80  1  0
 32 81  1  0
 32 82  1  0
M  END
>  <meeko>  (10) 
{"is_sidechain": [false], "intermolecular_energy": 2.731, "internal_energy": -0.839}

$$$$
EPH_relaxed_0001_pdb2pqr_Repair_320_r2_0001_out
     RDKit          3D

 82 86  0  0  0  0  0  0  0  0999 V2000
    4.1460   17.5460   -2.5760 C   0  0  0  0  0  0  0  0  0  0  0  0
    2.9100   17.0720   -3.3460 C   0  0  2  0  0  0  0  0  0  0  0  0
    1.6090   17.6840   -2.7900 C   0  0  0  0  0  0  0  0  0  0  0  0
    1.8280   18.9660   -1.9830 C   0  0  0  0  0  0  0  0  0  0  0  0
    0.8790   19.0620   -0.8270 C   0  0  2  0  0  0  0  0  0  0  0  0
   -0.2880   18.2370   -0.9400 O   0  0  0  0  0  0  0  0  0  0  0  0
   -0.5130   19.6560   -0.9340 C   0  0  0  0  0  0  0  0  0  0  0  0
   -1.0340   20.1940   -2.2300 C   0  0  0  0  0  0  0  0  0  0  0  0
   -1.1760   20.1560    0.3110 C   0  0  0  0  0  0  0  0  0  0  0  0
    2.8280   15.5500   -3.3090 C   0  0  1  0  0  0  0  0  0  0  0  0
    4.2030   14.8710   -3.5430 C   0  0  0  0  0  0  0  0  0  0  0  0
    4.2250   13.5910   -2.6690 C   0  0  0  0  0  0  0  0  0  0  0  0
    2.7560   13.3980   -2.2240 C   0  0  1  0  0  0  0  0  0  0  0  0
    2.0560   12.7090   -3.4380 C   0  0  0  0  0  0  0  0  0  0  0  0
    2.5350   12.5970   -0.9000 C   0  0  2  0  0  0  0  0  0  0  0  0
    3.0200   11.1370   -0.9310 C   0  0  0  0  0  0  0  0  0  0  0  0
    2.0050   10.1370   -1.3760 C   0  0  0  0  0  0  0  0  0  0  0  0
    0.6800   10.3530   -1.4630 C   0  0  0  0  0  0  0  0  0  0  0  0
    0.0670   11.6810   -1.0000 C   0  0  1  0  0  0  0  0  0  0  0  0
   -1.1850   11.3980   -0.1280 C   0  0  0  0  0  0  0  0  0  0  0  0
   -2.1980   10.5010   -0.8330 C   0  0  0  0  0  0  0  0  0  0  0  0
   -1.5670    9.1680   -1.2260 C   0  0  2  0  0  0  0  0  0  0  0  0
   -1.2480    8.4410   -0.0360 O   0  0  0  0  0  0  0  0  0  0  0  0
   -0.2910    9.3280   -2.0990 C   0  0  0  0  0  0  0  0  0  0  0  0
   -0.6840    9.8390   -3.5070 C   0  0  0  0  0  0  0  0  0  0  0  0
    0.3250    7.9180   -2.3060 C   0  0  0  0  0  0  0  0  0  0  0  0
    1.0690   12.7060   -0.3140 C   0  0  1  0  0  0  0  0  0  0  0  0
    1.1760   12.4040    1.2120 C   0  0  0  0  0  0  0  0  0  0  0  0
    0.4820   14.1610   -0.4380 C   0  0  0  0  0  0  0  0  0  0  0  0
    0.8340   14.9460   -1.7160 C   0  0  0  0  0  0  0  0  0  0  0  0
    2.3400   14.8960   -1.9920 C   0  0  2  0  0  0  0  0  0  0  0  0
    3.0690   15.6010   -0.7980 C   0  0  0  0  0  0  0  0  0  0  0  0
    3.9551   17.4728   -1.4952 H   0  0  0  0  0  0  0  0  0  0  0  0
    5.0070   16.9143   -2.8399 H   0  0  0  0  0  0  0  0  0  0  0  0
    4.3638   18.5914   -2.8399 H   0  0  0  0  0  0  0  0  0  0  0  0
    3.0162   17.4138   -4.3861 H   0  0  0  0  0  0  0  0  0  0  0  0
    0.9448   17.9152   -3.6358 H   0  0  0  0  0  0  0  0  0  0  0  0
    1.1726   16.9430   -2.1041 H   0  0  0  0  0  0  0  0  0  0  0  0
    2.8590   18.9742   -1.5995 H   0  0  0  0  0  0  0  0  0  0  0  0
    1.6477   19.8243   -2.6470 H   0  0  0  0  0  0  0  0  0  0  0  0
    1.7096   19.2496   -0.1307 H   0  0  0  0  0  0  0  0  0  0  0  0
   -1.7863   20.9708   -2.0286 H   0  0  0  0  0  0  0  0  0  0  0  0
   -0.2041   20.6281   -2.8069 H   0  0  0  0  0  0  0  0  0  0  0  0
   -1.4945   19.3785   -2.8069 H   0  0  0  0  0  0  0  0  0  0  0  0
   -0.6496   19.7590    1.1915 H   0  0  0  0  0  0  0  0  0  0  0  0
   -1.1421   21.2553    0.3283 H   0  0  0  0  0  0  0  0  0  0  0  0
   -2.2237   19.8212    0.3283 H   0  0  0  0  0  0  0  0  0  0  0  0
    2.0888   15.3863   -4.1070 H   0  0  0  0  0  0  0  0  0  0  0  0
    4.3191   14.6068   -4.6045 H   0  0  0  0  0  0  0  0  0  0  0  0
    5.0279   15.5470   -3.2737 H   0  0  0  0  0  0  0  0  0  0  0  0
    4.5702   12.7264   -3.2550 H   0  0  0  0  0  0  0  0  0  0  0  0
    4.9117   13.6808   -1.8144 H   0  0  0  0  0  0  0  0  0  0  0  0
    1.3170   11.9816   -3.0707 H   0  0  0  0  0  0  0  0  0  0  0  0
    1.5489   13.4701   -4.0492 H   0  0  0  0  0  0  0  0  0  0  0  0
    2.8090   12.1899   -4.0492 H   0  0  0  0  0  0  0  0  0  0  0  0
    3.2007   13.1178   -0.1960 H   0  0  0  0  0  0  0  0  0  0  0  0
    3.8781   11.0784   -1.6167 H   0  0  0  0  0  0  0  0  0  0  0  0
    3.2680   10.8767    0.1086 H   0  0  0  0  0  0  0  0  0  0  0  0
    2.3716    9.1386   -1.6567 H   0  0  0  0  0  0  0  0  0  0  0  0
   -0.2285   12.2143   -1.9156 H   0  0  0  0  0  0  0  0  0  0  0  0
   -0.8635   10.9046    0.8011 H   0  0  0  0  0  0  0  0  0  0  0  0
   -1.6758   12.3614    0.0744 H   0  0  0  0  0  0  0  0  0  0  0  0
   -3.0444   10.3128   -0.1561 H   0  0  0  0  0  0  0  0  0  0  0  0
   -2.5409   11.0095   -1.7462 H   0  0  0  0  0  0  0  0  0  0  0  0
   -2.3001    8.6238   -1.8395 H   0  0  0  0  0  0  0  0  0  0  0  0
   -0.3870    8.7610    0.2830 H   0  0  0  0  0  0  0  0  0  0  0  0
   -1.3519   10.7075   -3.4087 H   0  0  0  0  0  0  0  0  0  0  0  0
    0.2223   10.1338   -4.0563 H   0  0  0  0  0  0  0  0  0  0  0  0
   -1.2016    9.0387   -4.0563 H   0  0  0  0  0  0  0  0  0  0  0  0
    0.5258    7.4583   -1.3271 H   0  0  0  0  0  0  0  0  0  0  0  0
   -0.3802    7.2888   -2.8688 H   0  0  0  0  0  0  0  0  0  0  0  0
    1.2658    8.0079   -2.8688 H   0  0  0  0  0  0  0  0  0  0  0  0
    0.8622   13.2897    1.7839 H   0  0  0  0  0  0  0  0  0  0  0  0
    0.5241   11.5547    1.4643 H   0  0  0  0  0  0  0  0  0  0  0  0
    2.2172   12.1546    1.4643 H   0  0  0  0  0  0  0  0  0  0  0  0
   -0.6140   14.0830   -0.3867 H   0  0  0  0  0  0  0  0  0  0  0  0
    0.9431   14.7282    0.3840 H   0  0  0  0  0  0  0  0  0  0  0  0
    0.2969   14.5051   -2.5687 H   0  0  0  0  0  0  0  0  0  0  0  0
    0.5374   15.9960   -1.5759 H   0  0  0  0  0  0  0  0  0  0  0  0
    2.6714   15.2165    0.1528 H   0  0  0  0  0  0  0  0  0  0  0  0
    4.1481   15.3951   -0.8542 H   0  0  0  0  0  0  0  0  0  0  0  0
    2.8994   16.6864   -0.8542 H   0  0  0  0  0  0  0  0  0  0  0  0
  1  2  1  0
  2  3  1  0
  3  4  1  0
  4  5  1  0
  5  6  1  0
  6  7  1  0
  7  8  1  0
  7  9  1  0
  2 10  1  0
 10 11  1  0
 11 12  1  0
 12 13  1  0
 13 14  1  6
 13 15  1  0
 15 16  1  0
 16 17  1  0
 17 18  2  0
 18 19  1  0
 19 20  1  0
 20 21  1  0
 21 22  1  0
 22 23  1  0
 22 24  1  0
 24 25  1  0
 24 26  1  0
 19 27  1  0
 27 28  1  1
 27 29  1  0
 29 30  1  0
 30 31  1  0
 31 32  1  1
  7  5  1  0
 31 10  1  0
 31 13  1  0
 27 15  1  0
 24 18  1  0
  1 33  1  0
  1 34  1  0
  1 35  1  0
  2 36  1  6
  3 37  1  0
  3 38  1  0
  4 39  1  0
  4 40  1  0
  5 41  1  1
  8 42  1  0
  8 43  1  0
  8 44  1  0
  9 45  1  0
  9 46  1  0
  9 47  1  0
 10 48  1  6
 11 49  1  0
 11 50  1  0
 12 51  1  0
 12 52  1  0
 14 53  1  0
 14 54  1  0
 14 55  1  0
 15 56  1  1
 16 57  1  0
 16 58  1  0
 17 59  1  0
 19 60  1  6
 20 61  1  0
 20 62  1  0
 21 63  1  0
 21 64  1  0
 22 65  1  6
 23 66  1  0
 25 67  1  0
 25 68  1  0
 25 69  1  0
 26 70  1  0
 26 71  1  0
 26 72  1  0
 28 73  1  0
 28 74  1  0
 28 75  1  0
 29 76  1  0
 29 77  1  0
 30 78  1  0
 30 79  1  0
 32 80  1  0
 32 81  1  0
 32 82  1  0
M  END
>  <meeko>  (11) 
{"is_sidechain": [false], "intermolecular_energy": 2.731, "internal_energy": -0.839}

$$$$
EPH_relaxed_0001_pdb2pqr_Repair_320_r2_0001_out
     RDKit          3D

 82 86  0  0  0  0  0  0  0  0999 V2000
   -0.6690   16.5320   -6.1710 C   0  0  0  0  0  0  0  0  0  0  0  0
    0.6710   15.9280   -6.5980 C   0  0  2  0  0  0  0  0  0  0  0  0
    0.7170   15.6290   -8.1100 C   0  0  0  0  0  0  0  0  0  0  0  0
    1.6510   16.5560   -8.8930 C   0  0  0  0  0  0  0  0  0  0  0  0
    1.5570   16.3180  -10.3700 C   0  0  2  0  0  0  0  0  0  0  0  0
    0.9190   15.0890  -10.7390 O   0  0  0  0  0  0  0  0  0  0  0  0
    2.3070   15.2120  -11.0880 C   0  0  0  0  0  0  0  0  0  0  0  0
    3.2060   14.2710  -10.3490 C   0  0  0  0  0  0  0  0  0  0  0  0
    2.5490   15.3490  -12.5590 C   0  0  0  0  0  0  0  0  0  0  0  0
    0.9440   14.6550   -5.8060 C   0  0  1  0  0  0  0  0  0  0  0  0
    2.0170   13.7540   -6.4740 C   0  0  0  0  0  0  0  0  0  0  0  0
    2.8160   13.0850   -5.3260 C   0  0  0  0  0  0  0  0  0  0  0  0
    1.9760   13.3560   -4.0560 C   0  0  1  0  0  0  0  0  0  0  0  0
    0.8550   12.2710   -4.0770 C   0  0  0  0  0  0  0  0  0  0  0  0
    2.7550   13.3570   -2.7000 C   0  0  2  0  0  0  0  0  0  0  0  0
    3.4160   12.0180   -2.3270 C   0  0  0  0  0  0  0  0  0  0  0  0
    2.5700   11.0920   -1.5190 C   0  0  0  0  0  0  0  0  0  0  0  0
    1.4420   11.4300   -0.8680 C   0  0  0  0  0  0  0  0  0  0  0  0
    0.9630   12.8870   -0.8260 C   0  0  1  0  0  0  0  0  0  0  0  0
    0.5640   13.2600    0.6260 C   0  0  0  0  0  0  0  0  0  0  0  0
   -0.4570   12.2940    1.2180 C   0  0  0  0  0  0  0  0  0  0  0  0
    0.0780   10.8640    1.2120 C   0  0  2  0  0  0  0  0  0  0  0  0
    1.1820   10.7810    2.1190 O   0  0  0  0  0  0  0  0  0  0  0  0
    0.5210   10.3810   -0.1970 C   0  0  0  0  0  0  0  0  0  0  0  0
   -0.7250   10.1820   -1.0950 C   0  0  0  0  0  0  0  0  0  0  0  0
    1.1710    8.9800   -0.0390 C   0  0  0  0  0  0  0  0  0  0  0  0
    1.9380   13.9560   -1.4840 C   0  0  1  0  0  0  0  0  0  0  0  0
    2.9880   14.4350   -0.4360 C   0  0  0  0  0  0  0  0  0  0  0  0
    1.1060   15.2290   -1.8920 C   0  0  0  0  0  0  0  0  0  0  0  0
    0.4610   15.2180   -3.2910 C   0  0  0  0  0  0  0  0  0  0  0  0
    1.4800   14.8160   -4.3620 C   0  0  2  0  0  0  0  0  0  0  0  0
    2.6080   15.9030   -4.3790 C   0  0  0  0  0  0  0  0  0  0  0  0
   -0.7262   16.5578   -5.0728 H   0  0  0  0  0  0  0  0  0  0  0  0
   -0.7528   17.5549   -6.5667 H   0  0  0  0  0  0  0  0  0  0  0  0
   -1.4910   15.9173   -6.5667 H   0  0  0  0  0  0  0  0  0  0  0  0
    1.4525   16.6722   -6.3847 H   0  0  0  0  0  0  0  0  0  0  0  0
    1.0597   14.5930   -8.2488 H   0  0  0  0  0  0  0  0  0  0  0  0
   -0.2984   15.7913   -8.5007 H   0  0  0  0  0  0  0  0  0  0  0  0
    1.3764   17.6000   -8.6819 H   0  0  0  0  0  0  0  0  0  0  0  0
    2.6841   16.3488   -8.5771 H   0  0  0  0  0  0  0  0  0  0  0  0
    1.4724   17.3977  -10.5625 H   0  0  0  0  0  0  0  0  0  0  0  0
    3.0725   14.4107   -9.2661 H   0  0  0  0  0  0  0  0  0  0  0  0
    2.9537   13.2349  -10.6189 H   0  0  0  0  0  0  0  0  0  0  0  0
    4.2525   14.4757  -10.6189 H   0  0  0  0  0  0  0  0  0  0  0  0
    3.4951   15.8846  -12.7266 H   0  0  0  0  0  0  0  0  0  0  0  0
    2.6073   14.3499  -13.0156 H   0  0  0  0  0  0  0  0  0  0  0  0
    1.7224   15.9131  -13.0156 H   0  0  0  0  0  0  0  0  0  0  0  0
   -0.0707   14.2307   -5.7851 H   0  0  0  0  0  0  0  0  0  0  0  0
    1.5334   12.9867   -7.0963 H   0  0  0  0  0  0  0  0  0  0  0  0
    2.6791   14.3441   -7.1247 H   0  0  0  0  0  0  0  0  0  0  0  0
    2.9165   12.0038   -5.5016 H   0  0  0  0  0  0  0  0  0  0  0  0
    3.8382   13.4826   -5.2426 H   0  0  0  0  0  0  0  0  0  0  0  0
    0.5815   12.0063   -3.0449 H   0  0  0  0  0  0  0  0  0  0  0  0
   -0.0281   12.6662   -4.6004 H   0  0  0  0  0  0  0  0  0  0  0  0
    1.2212   11.3755   -4.6004 H   0  0  0  0  0  0  0  0  0  0  0  0
    3.5822   14.0530   -2.9030 H   0  0  0  0  0  0  0  0  0  0  0  0
    3.6888   11.5024   -3.2596 H   0  0  0  0  0  0  0  0  0  0  0  0
    4.2794   12.2711   -1.6942 H   0  0  0  0  0  0  0  0  0  0  0  0
    2.8962   10.0438   -1.4496 H   0  0  0  0  0  0  0  0  0  0  0  0
    0.0796   12.9354   -1.4797 H   0  0  0  0  0  0  0  0  0  0  0  0
    1.4669   13.2475    1.2542 H   0  0  0  0  0  0  0  0  0  0  0  0
    0.1031   14.2585    0.5998 H   0  0  0  0  0  0  0  0  0  0  0  0
   -0.6762   12.5921    2.2539 H   0  0  0  0  0  0  0  0  0  0  0  0
   -1.3704   12.3299    0.6061 H   0  0  0  0  0  0  0  0  0  0  0  0
   -0.7437   10.2032    1.5251 H   0  0  0  0  0  0  0  0  0  0  0  0
    1.2850   11.6530    2.5370 H   0  0  0  0  0  0  0  0  0  0  0  0
   -1.6138   10.0400   -0.4627 H   0  0  0  0  0  0  0  0  0  0  0  0
   -0.8647   11.0692   -1.7301 H   0  0  0  0  0  0  0  0  0  0  0  0
   -0.5814    9.2954   -1.7301 H   0  0  0  0  0  0  0  0  0  0  0  0
    1.2801    8.7449    1.0300 H   0  0  0  0  0  0  0  0  0  0  0  0
    0.5320    8.2232   -0.5175 H   0  0  0  0  0  0  0  0  0  0  0  0
    2.1615    8.9792   -0.5175 H   0  0  0  0  0  0  0  0  0  0  0  0
    2.6007   14.2583    0.5783 H   0  0  0  0  0  0  0  0  0  0  0  0
    3.9249   13.8752   -0.5734 H   0  0  0  0  0  0  0  0  0  0  0  0
    3.1794   15.5095   -0.5734 H   0  0  0  0  0  0  0  0  0  0  0  0
    0.2989   15.3496   -1.1544 H   0  0  0  0  0  0  0  0  0  0  0  0
    1.8343   16.0530   -1.9172 H   0  0  0  0  0  0  0  0  0  0  0  0
   -0.3710   14.4985   -3.2979 H   0  0  0  0  0  0  0  0  0  0  0  0
    0.0963   16.2309   -3.5168 H   0  0  0  0  0  0  0  0  0  0  0  0
    2.8801   16.1652   -3.3459 H   0  0  0  0  0  0  0  0  0  0  0  0
    3.4912   15.5068   -4.9015 H   0  0  0  0  0  0  0  0  0  0  0  0
    2.2447   16.8002   -4.9015 H   0  0  0  0  0  0  0  0  0  0  0  0
  1  2  1  0
  2  3  1  0
  3  4  1  0
  4  5  1  0
  5  6  1  0
  6  7  1  0
  7  8  1  0
  7  9  1  0
  2 10  1  0
 10 11  1  0
 11 12  1  0
 12 13  1  0
 13 14  1  1
 13 15  1  0
 15 16  1  0
 16 17  1  0
 17 18  2  0
 18 19  1  0
 19 20  1  0
 20 21  1  0
 21 22  1  0
 22 23  1  0
 22 24  1  0
 24 25  1  0
 24 26  1  0
 19 27  1  0
 27 28  1  1
 27 29  1  0
 29 30  1  0
 30 31  1  0
 31 32  1  6
  7  5  1  0
 31 10  1  0
 31 13  1  0
 27 15  1  0
 24 18  1  0
  1 33  1  0
  1 34  1  0
  1 35  1  0
  2 36  1  6
  3 37  1  0
  3 38  1  0
  4 39  1  0
  4 40  1  0
  5 41  1  6
  8 42  1  0
  8 43  1  0
  8 44  1  0
  9 45  1  0
  9 46  1  0
  9 47  1  0
 10 48  1  1
 11 49  1  0
 11 50  1  0
 12 51  1  0
 12 52  1  0
 14 53  1  0
 14 54  1  0
 14 55  1  0
 15 56  1  6
 16 57  1  0
 16 58  1  0
 17 59  1  0
 19 60  1  6
 20 61  1  0
 20 62  1  0
 21 63  1  0
 21 64  1  0
 22 65  1  1
 23 66  1  0
 25 67  1  0
 25 68  1  0
 25 69  1  0
 26 70  1  0
 26 71  1  0
 26 72  1  0
 28 73  1  0
 28 74  1  0
 28 75  1  0
 29 76  1  0
 29 77  1  0
 30 78  1  0
 30 79  1  0
 32 80  1  0
 32 81  1  0
 32 82  1  0
M  END
>  <meeko>  (12) 
{"is_sidechain": [false], "intermolecular_energy": 2.731, "internal_energy": -0.839}

$$$$
EPH_relaxed_0001_pdb2pqr_Repair_320_r2_0001_out
     RDKit          3D

 82 86  0  0  0  0  0  0  0  0999 V2000
    3.6150   11.9860   -4.8460 C   0  0  0  0  0  0  0  0  0  0  0  0
    2.5810   12.7850   -5.6450 C   0  0  2  0  0  0  0  0  0  0  0  0
    3.2420   13.7710   -6.6280 C   0  0  0  0  0  0  0  0  0  0  0  0
    2.3050   14.8820   -7.1100 C   0  0  0  0  0  0  0  0  0  0  0  0
    2.4680   15.1480   -8.5760 C   0  0  2  0  0  0  0  0  0  0  0  0
    2.2250   16.5050   -8.9680 O   0  0  0  0  0  0  0  0  0  0  0  0
    1.3170   15.5220   -9.4910 C   0  0  0  0  0  0  0  0  0  0  0  0
   -0.0820   15.6500   -8.9740 C   0  0  0  0  0  0  0  0  0  0  0  0
    1.4660   15.2850  -10.9620 C   0  0  0  0  0  0  0  0  0  0  0  0
    1.6590   13.5380   -4.6930 C   0  0  1  0  0  0  0  0  0  0  0  0
    0.5600   12.6290   -4.0810 C   0  0  0  0  0  0  0  0  0  0  0  0
    0.3180   13.1320   -2.6350 C   0  0  0  0  0  0  0  0  0  0  0  0
    1.0320   14.5020   -2.5730 C   0  0  1  0  0  0  0  0  0  0  0  0
    0.0300   15.5060   -3.2240 C   0  0  0  0  0  0  0  0  0  0  0  0
    1.4900   14.9800   -1.1570 C   0  0  2  0  0  0  0  0  0  0  0  0
    0.3530   15.2020   -0.1440 C   0  0  0  0  0  0  0  0  0  0  0  0
   -0.2160   16.5820   -0.1170 C   0  0  0  0  0  0  0  0  0  0  0  0
    0.3510   17.6730   -0.6650 C   0  0  0  0  0  0  0  0  0  0  0  0
    1.7400   17.5980   -1.3110 C   0  0  1  0  0  0  0  0  0  0  0  0
    2.6040   18.7900   -0.8220 C   0  0  0  0  0  0  0  0  0  0  0  0
    1.9250   20.1370   -1.0520 C   0  0  0  0  0  0  0  0  0  0  0  0
    0.5730   20.1940   -0.3460 C   0  0  2  0  0  0  0  0  0  0  0  0
    0.7900   20.1650    1.0680 O   0  0  0  0  0  0  0  0  0  0  0  0
   -0.3800   19.0360   -0.7520 C   0  0  0  0  0  0  0  0  0  0  0  0
   -0.8540   19.2400   -2.2120 C   0  0  0  0  0  0  0  0  0  0  0  0
   -1.6510   19.1290    0.1340 C   0  0  0  0  0  0  0  0  0  0  0  0
    2.4920   16.2050   -1.1780 C   0  0  1  0  0  0  0  0  0  0  0  0
    3.2860   16.1540    0.1630 C   0  0  0  0  0  0  0  0  0  0  0  0
    3.5590   16.0840   -2.3300 C   0  0  0  0  0  0  0  0  0  0  0  0
    3.0740   15.4940   -3.6680 C   0  0  0  0  0  0  0  0  0  0  0  0
    2.3030   14.1890   -3.4440 C   0  0  2  0  0  0  0  0  0  0  0  0
    3.2930   13.1520   -2.8100 C   0  0  0  0  0  0  0  0  0  0  0  0
    3.4344   12.1255   -3.7699 H   0  0  0  0  0  0  0  0  0  0  0  0
    3.5274   10.9186   -5.0971 H   0  0  0  0  0  0  0  0  0  0  0  0
    4.6257   12.3400   -5.0971 H   0  0  0  0  0  0  0  0  0  0  0  0
    1.9965   12.0682   -6.2404 H   0  0  0  0  0  0  0  0  0  0  0  0
    4.1031   14.2365   -6.1263 H   0  0  0  0  0  0  0  0  0  0  0  0
    3.5358   13.1912   -7.5154 H   0  0  0  0  0  0  0  0  0  0  0  0
    1.2651   14.5804   -6.9160 H   0  0  0  0  0  0  0  0  0  0  0  0
    2.5567   15.8034   -6.5644 H   0  0  0  0  0  0  0  0  0  0  0  0
    3.2519   14.3801   -8.6527 H   0  0  0  0  0  0  0  0  0  0  0  0
   -0.0680   15.6487   -7.8741 H   0  0  0  0  0  0  0  0  0  0  0  0
   -0.5212   16.5921   -9.3340 H   0  0  0  0  0  0  0  0  0  0  0  0
   -0.6849   14.8033   -9.3340 H   0  0  0  0  0  0  0  0  0  0  0  0
    2.0447   14.3645  -11.1283 H   0  0  0  0  0  0  0  0  0  0  0  0
    0.4710   15.1802  -11.4191 H   0  0  0  0  0  0  0  0  0  0  0  0
    1.9917   16.1363  -11.4191 H   0  0  0  0  0  0  0  0  0  0  0  0
    1.2892   14.3181   -5.3747 H   0  0  0  0  0  0  0  0  0  0  0  0
   -0.3664   12.7064   -4.6690 H   0  0  0  0  0  0  0  0  0  0  0  0
    0.8722   11.5742   -4.0853 H   0  0  0  0  0  0  0  0  0  0  0  0
   -0.7583   13.2460   -2.4387 H   0  0  0  0  0  0  0  0  0  0  0  0
    0.6991   12.4288   -1.8798 H   0  0  0  0  0  0  0  0  0  0  0  0
   -0.5110   16.0481   -2.4344 H   0  0  0  0  0  0  0  0  0  0  0  0
    0.5831   16.2232   -3.8482 H   0  0  0  0  0  0  0  0  0  0  0  0
   -0.6883   14.9543   -3.8482 H   0  0  0  0  0  0  0  0  0  0  0  0
    2.0553   14.1118   -0.7872 H   0  0  0  0  0  0  0  0  0  0  0  0
   -0.4609   14.5034   -0.3879 H   0  0  0  0  0  0  0  0  0  0  0  0
    0.7937   15.0348    0.8499 H   0  0  0  0  0  0  0  0  0  0  0  0
   -1.1804   16.7189    0.3941 H   0  0  0  0  0  0  0  0  0  0  0  0
    1.5751   17.6768   -2.3957 H   0  0  0  0  0  0  0  0  0  0  0  0
    2.7936   18.6699    0.2548 H   0  0  0  0  0  0  0  0  0  0  0  0
    3.5395   18.7842   -1.4006 H   0  0  0  0  0  0  0  0  0  0  0  0
    2.5700   20.9370   -0.6596 H   0  0  0  0  0  0  0  0  0  0  0  0
    1.7629   20.2686   -2.1320 H   0  0  0  0  0  0  0  0  0  0  0  0
    0.0797   21.1279   -0.6535 H   0  0  0  0  0  0  0  0  0  0  0  0
    1.5860   20.6920    1.2550 H   0  0  0  0  0  0  0  0  0  0  0  0
   -1.8644   19.6749   -2.2121 H   0  0  0  0  0  0  0  0  0  0  0  0
   -0.1621   19.9200   -2.7305 H   0  0  0  0  0  0  0  0  0  0  0  0
   -0.8722   18.2700   -2.7305 H   0  0  0  0  0  0  0  0  0  0  0  0
   -1.3608   19.1078    1.1948 H   0  0  0  0  0  0  0  0  0  0  0  0
   -2.1809   20.0683   -0.0825 H   0  0  0  0  0  0  0  0  0  0  0  0
   -2.3120   18.2768   -0.0825 H   0  0  0  0  0  0  0  0  0  0  0  0
    2.5826   16.1992    1.0075 H   0  0  0  0  0  0  0  0  0  0  0  0
    3.8602   15.2171    0.2137 H   0  0  0  0  0  0  0  0  0  0  0  0
    3.9753   17.0097    0.2137 H   0  0  0  0  0  0  0  0  0  0  0  0
    3.9459   17.0936   -2.5324 H   0  0  0  0  0  0  0  0  0  0  0  0
    4.3070   15.3698   -1.9552 H   0  0  0  0  0  0  0  0  0  0  0  0
    2.4143   16.2212   -4.1640 H   0  0  0  0  0  0  0  0  0  0  0  0
    3.9515   15.2798   -4.2957 H   0  0  0  0  0  0  0  0  0  0  0  0
    3.2349   13.2128   -1.7132 H   0  0  0  0  0  0  0  0  0  0  0  0
    3.0197   12.1376   -3.1360 H   0  0  0  0  0  0  0  0  0  0  0  0
    4.3190   13.3779   -3.1360 H   0  0  0  0  0  0  0  0  0  0  0  0
  1  2  1  0
  2  3  1  0
  3  4  1  0
  4  5  1  0
  5  6  1  0
  6  7  1  0
  7  8  1  0
  7  9  1  0
  2 10  1  0
 10 11  1  0
 11 12  1  0
 12 13  1  0
 13 14  1  6
 13 15  1  0
 15 16  1  0
 16 17  1  0
 17 18  2  0
 18 19  1  0
 19 20  1  0
 20 21  1  0
 21 22  1  0
 22 23  1  0
 22 24  1  0
 24 25  1  0
 24 26  1  0
 19 27  1  0
 27 28  1  1
 27 29  1  0
 29 30  1  0
 30 31  1  0
 31 32  1  1
  7  5  1  0
 31 10  1  0
 31 13  1  0
 27 15  1  0
 24 18  1  0
  1 33  1  0
  1 34  1  0
  1 35  1  0
  2 36  1  6
  3 37  1  0
  3 38  1  0
  4 39  1  0
  4 40  1  0
  5 41  1  6
  8 42  1  0
  8 43  1  0
  8 44  1  0
  9 45  1  0
  9 46  1  0
  9 47  1  0
 10 48  1  6
 11 49  1  0
 11 50  1  0
 12 51  1  0
 12 52  1  0
 14 53  1  0
 14 54  1  0
 14 55  1  0
 15 56  1  1
 16 57  1  0
 16 58  1  0
 17 59  1  0
 19 60  1  6
 20 61  1  0
 20 62  1  0
 21 63  1  0
 21 64  1  0
 22 65  1  1
 23 66  1  0
 25 67  1  0
 25 68  1  0
 25 69  1  0
 26 70  1  0
 26 71  1  0
 26 72  1  0
 28 73  1  0
 28 74  1  0
 28 75  1  0
 29 76  1  0
 29 77  1  0
 30 78  1  0
 30 79  1  0
 32 80  1  0
 32 81  1  0
 32 82  1  0
M  END
>  <meeko>  (13) 
{"is_sidechain": [false], "intermolecular_energy": 2.731, "internal_energy": -0.839}

$$$$
EPH_relaxed_0001_pdb2pqr_Repair_320_r2_0001_out
     RDKit          3D

 82 86  0  0  0  0  0  0  0  0999 V2000
    0.1470    9.7180   -3.2500 C   0  0  0  0  0  0  0  0  0  0  0  0
    1.4460    9.5360   -2.4610 C   0  0  2  0  0  0  0  0  0  0  0  0
    1.1960    8.9410   -1.0600 C   0  0  0  0  0  0  0  0  0  0  0  0
    0.2640    9.7880   -0.1900 C   0  0  0  0  0  0  0  0  0  0  0  0
   -1.0970    9.1710   -0.0720 C   0  0  2  0  0  0  0  0  0  0  0  0
   -1.7380    8.8910   -1.3230 O   0  0  0  0  0  0  0  0  0  0  0  0
   -2.3740    9.8750   -0.4900 C   0  0  0  0  0  0  0  0  0  0  0  0
   -2.3510   11.2590   -1.0580 C   0  0  0  0  0  0  0  0  0  0  0  0
   -3.6700    9.4160    0.1010 C   0  0  0  0  0  0  0  0  0  0  0  0
    2.1720   10.8710   -2.3380 C   0  0  1  0  0  0  0  0  0  0  0  0
    3.6510   10.7910   -2.8010 C   0  0  0  0  0  0  0  0  0  0  0  0
    3.9860   12.1520   -3.4640 C   0  0  0  0  0  0  0  0  0  0  0  0
    2.8110   13.0780   -3.0690 C   0  0  1  0  0  0  0  0  0  0  0  0
    3.1470   13.5580   -1.6230 C   0  0  0  0  0  0  0  0  0  0  0  0
    2.5290   14.2820   -4.0260 C   0  0  2  0  0  0  0  0  0  0  0  0
    3.6740   15.3040   -4.1440 C   0  0  0  0  0  0  0  0  0  0  0  0
    3.6250   16.4310   -3.1670 C   0  0  0  0  0  0  0  0  0  0  0  0
    2.5580   16.7760   -2.4230 C   0  0  0  0  0  0  0  0  0  0  0  0
    1.2120   16.0610   -2.5970 C   0  0  1  0  0  0  0  0  0  0  0  0
    0.0730   17.1110   -2.6730 C   0  0  0  0  0  0  0  0  0  0  0  0
    0.0770   18.0650   -1.4820 C   0  0  0  0  0  0  0  0  0  0  0  0
    1.4110   18.8000   -1.3760 C   0  0  2  0  0  0  0  0  0  0  0  0
    1.5470   19.6710   -2.5030 O   0  0  0  0  0  0  0  0  0  0  0  0
    2.6340   17.8440   -1.3040 C   0  0  0  0  0  0  0  0  0  0  0  0
    2.6440   17.1150    0.0630 C   0  0  0  0  0  0  0  0  0  0  0  0
    3.9210   18.7110   -1.3430 C   0  0  0  0  0  0  0  0  0  0  0  0
    1.1400   14.9970   -3.7760 C   0  0  1  0  0  0  0  0  0  0  0  0
    0.7580   15.7070   -5.1110 C   0  0  0  0  0  0  0  0  0  0  0  0
   -0.0150   13.9710   -3.4720 C   0  0  0  0  0  0  0  0  0  0  0  0
    0.3550   12.7400   -2.6220 C   0  0  0  0  0  0  0  0  0  0  0  0
    1.6170   12.0600   -3.1610 C   0  0  2  0  0  0  0  0  0  0  0  0
    1.3020   11.5470   -4.6080 C   0  0  0  0  0  0  0  0  0  0  0  0
   -0.6936    9.8358   -2.5503 H   0  0  0  0  0  0  0  0  0  0  0  0
    0.2252   10.6140   -3.8834 H   0  0  0  0  0  0  0  0  0  0  0  0
   -0.0241    8.8351   -3.8834 H   0  0  0  0  0  0  0  0  0  0  0  0
    2.0726    8.8223   -3.0160 H   0  0  0  0  0  0  0  0  0  0  0  0
    0.7475    7.9439   -1.1810 H   0  0  0  0  0  0  0  0  0  0  0  0
    2.1688    8.9038   -0.5479 H   0  0  0  0  0  0  0  0  0  0  0  0
    0.7014    9.8813    0.8150 H   0  0  0  0  0  0  0  0  0  0  0  0
    0.1535   10.7740   -0.6649 H   0  0  0  0  0  0  0  0  0  0  0  0
   -0.8087    8.6563    0.8564 H   0  0  0  0  0  0  0  0  0  0  0  0
   -2.3388   11.9918   -0.2377 H   0  0  0  0  0  0  0  0  0  0  0  0
   -1.4506   11.3864   -1.6769 H   0  0  0  0  0  0  0  0  0  0  0  0
   -3.2467   11.4163   -1.6769 H   0  0  0  0  0  0  0  0  0  0  0  0
   -3.6015    9.4403    1.1986 H   0  0  0  0  0  0  0  0  0  0  0  0
   -4.4804   10.0818   -0.2306 H   0  0  0  0  0  0  0  0  0  0  0  0
   -3.8807    8.3886   -0.2306 H   0  0  0  0  0  0  0  0  0  0  0  0
    2.0320   11.0593   -1.2633 H   0  0  0  0  0  0  0  0  0  0  0  0
    4.3096   10.6181   -1.9371 H   0  0  0  0  0  0  0  0  0  0  0  0
    3.7997    9.9605   -3.5067 H   0  0  0  0  0  0  0  0  0  0  0  0
    4.9380   12.5472   -3.0799 H   0  0  0  0  0  0  0  0  0  0  0  0
    4.1022   12.0675   -4.5546 H   0  0  0  0  0  0  0  0  0  0  0  0
    2.6748   12.8834   -0.8937 H   0  0  0  0  0  0  0  0  0  0  0  0
    4.2374   13.5495   -1.4779 H   0  0  0  0  0  0  0  0  0  0  0  0
    2.7658   14.5796   -1.4779 H   0  0  0  0  0  0  0  0  0  0  0  0
    2.4635   13.7919   -5.0086 H   0  0  0  0  0  0  0  0  0  0  0  0
    4.6239   14.7687   -3.9982 H   0  0  0  0  0  0  0  0  0  0  0  0
    3.5739   15.7599   -5.1401 H   0  0  0  0  0  0  0  0  0  0  0  0
    4.5389   17.0308   -3.0446 H   0  0  0  0  0  0  0  0  0  0  0  0
    1.0828   15.4348   -1.7019 H   0  0  0  0  0  0  0  0  0  0  0  0
    0.1952   17.6978   -3.5954 H   0  0  0  0  0  0  0  0  0  0  0  0
   -0.8835   16.5678   -2.6628 H   0  0  0  0  0  0  0  0  0  0  0  0
   -0.7306   18.8012   -1.6077 H   0  0  0  0  0  0  0  0  0  0  0  0
   -0.0755   17.4799   -0.5631 H   0  0  0  0  0  0  0  0  0  0  0  0
    1.4013   19.3671   -0.4335 H   0  0  0  0  0  0  0  0  0  0  0  0
    0.6570   19.8340   -2.8590 H   0  0  0  0  0  0  0  0  0  0  0  0
    2.6338   17.8575    0.8746 H   0  0  0  0  0  0  0  0  0  0  0  0
    1.7546   16.4726    0.1425 H   0  0  0  0  0  0  0  0  0  0  0  0
    3.5507   16.4973    0.1425 H   0  0  0  0  0  0  0  0  0  0  0  0
    4.2466   18.9304   -0.3154 H   0  0  0  0  0  0  0  0  0  0  0  0
    4.7160   18.1636   -1.8706 H   0  0  0  0  0  0  0  0  0  0  0  0
    3.7124   19.6534   -1.8706 H   0  0  0  0  0  0  0  0  0  0  0  0
    0.2476   16.6557   -4.8887 H   0  0  0  0  0  0  0  0  0  0  0  0
    1.6694   15.9086   -5.6929 H   0  0  0  0  0  0  0  0  0  0  0  0
    0.0876   15.0575   -5.6929 H   0  0  0  0  0  0  0  0  0  0  0  0
   -0.8115   14.5140   -2.9422 H   0  0  0  0  0  0  0  0  0  0  0  0
   -0.3063   13.5666   -4.4526 H   0  0  0  0  0  0  0  0  0  0  0  0
    0.5337   13.0596   -1.5847 H   0  0  0  0  0  0  0  0  0  0  0  0
   -0.4764   12.0211   -2.6659 H   0  0  0  0  0  0  0  0  0  0  0  0
    0.7273   10.6110   -4.5482 H   0  0  0  0  0  0  0  0  0  0  0  0
    0.7134   12.3049   -5.1457 H   0  0  0  0  0  0  0  0  0  0  0  0
    2.2442   11.3650   -5.1457 H   0  0  0  0  0  0  0  0  0  0  0  0
  1  2  1  0
  2  3  1  0
  3  4  1  0
  4  5  1  0
  5  6  1  0
  6  7  1  0
  7  8  1  0
  7  9  1  0
  2 10  1  0
 10 11  1  0
 11 12  1  0
 12 13  1  0
 13 14  1  1
 13 15  1  0
 15 16  1  0
 16 17  1  0
 17 18  2  0
 18 19  1  0
 19 20  1  0
 20 21  1  0
 21 22  1  0
 22 23  1  0
 22 24  1  0
 24 25  1  0
 24 26  1  0
 19 27  1  0
 27 28  1  6
 27 29  1  0
 29 30  1  0
 30 31  1  0
 31 32  1  6
  7  5  1  0
 31 10  1  0
 31 13  1  0
 27 15  1  0
 24 18  1  0
  1 33  1  0
  1 34  1  0
  1 35  1  0
  2 36  1  6
  3 37  1  0
  3 38  1  0
  4 39  1  0
  4 40  1  0
  5 41  1  1
  8 42  1  0
  8 43  1  0
  8 44  1  0
  9 45  1  0
  9 46  1  0
  9 47  1  0
 10 48  1  1
 11 49  1  0
 11 50  1  0
 12 51  1  0
 12 52  1  0
 14 53  1  0
 14 54  1  0
 14 55  1  0
 15 56  1  6
 16 57  1  0
 16 58  1  0
 17 59  1  0
 19 60  1  1
 20 61  1  0
 20 62  1  0
 21 63  1  0
 21 64  1  0
 22 65  1  1
 23 66  1  0
 25 67  1  0
 25 68  1  0
 25 69  1  0
 26 70  1  0
 26 71  1  0
 26 72  1  0
 28 73  1  0
 28 74  1  0
 28 75  1  0
 29 76  1  0
 29 77  1  0
 30 78  1  0
 30 79  1  0
 32 80  1  0
 32 81  1  0
 32 82  1  0
M  END
>  <meeko>  (14) 
{"is_sidechain": [false], "intermolecular_energy": 2.731, "internal_energy": -0.839}

$$$$
EPH_relaxed_0001_pdb2pqr_Repair_320_r2_0001_out
     RDKit          3D

 82 86  0  0  0  0  0  0  0  0999 V2000
    3.4330   16.8180   -3.5200 C   0  0  0  0  0  0  0  0  0  0  0  0
    3.2160   15.9370   -4.7540 C   0  0  2  0  0  0  0  0  0  0  0  0
    2.0190   16.4110   -5.6020 C   0  0  0  0  0  0  0  0  0  0  0  0
    1.3650   15.2960   -6.4220 C   0  0  0  0  0  0  0  0  0  0  0  0
    1.7930   15.3400   -7.8580 C   0  0  2  0  0  0  0  0  0  0  0  0
    1.9870   16.6590   -8.3840 O   0  0  0  0  0  0  0  0  0  0  0  0
    0.9250   15.8920   -8.9730 C   0  0  0  0  0  0  0  0  0  0  0  0
   -0.4420   16.4370   -8.7000 C   0  0  0  0  0  0  0  0  0  0  0  0
    1.2020   15.4570  -10.3780 C   0  0  0  0  0  0  0  0  0  0  0  0
    3.0110   14.4880   -4.3280 C   0  0  1  0  0  0  0  0  0  0  0  0
    4.3390   13.6850   -4.2820 C   0  0  0  0  0  0  0  0  0  0  0  0
    4.2160   12.6830   -3.1060 C   0  0  0  0  0  0  0  0  0  0  0  0
    2.7160   12.7080   -2.7280 C   0  0  1  0  0  0  0  0  0  0  0  0
    2.0250   11.7690   -3.7660 C   0  0  0  0  0  0  0  0  0  0  0  0
    2.3670   12.3020   -1.2590 C   0  0  2  0  0  0  0  0  0  0  0  0
    2.7360   10.8580   -0.8760 C   0  0  0  0  0  0  0  0  0  0  0  0
    1.6690    9.8420   -1.1140 C   0  0  0  0  0  0  0  0  0  0  0  0
    0.3700   10.1110   -1.3440 C   0  0  0  0  0  0  0  0  0  0  0  0
   -0.1580   11.5500   -1.2860 C   0  0  1  0  0  0  0  0  0  0  0  0
   -1.4700   11.5870   -0.4590 C   0  0  0  0  0  0  0  0  0  0  0  0
   -2.5150   10.6020   -0.9750 C   0  0  0  0  0  0  0  0  0  0  0  0
   -1.9720    9.1760   -0.9620 C   0  0  2  0  0  0  0  0  0  0  0  0
   -1.7710    8.7710    0.3950 O   0  0  0  0  0  0  0  0  0  0  0  0
   -0.6460    9.0180   -1.7570 C   0  0  0  0  0  0  0  0  0  0  0  0
   -0.9270    9.1620   -3.2730 C   0  0  0  0  0  0  0  0  0  0  0  0
   -0.1330    7.5670   -1.5470 C   0  0  0  0  0  0  0  0  0  0  0  0
    0.8870   12.6540   -0.8230 C   0  0  1  0  0  0  0  0  0  0  0  0
    0.8940   12.7610    0.7320 C   0  0  0  0  0  0  0  0  0  0  0  0
    0.4230   14.0590   -1.3620 C   0  0  0  0  0  0  0  0  0  0  0  0
    0.9000   14.4540   -2.7730 C   0  0  0  0  0  0  0  0  0  0  0  0
    2.4090   14.2380   -2.9230 C   0  0  2  0  0  0  0  0  0  0  0  0
    3.1310   15.1860   -1.9070 C   0  0  0  0  0  0  0  0  0  0  0  0
    3.2851   16.2176   -2.6102 H   0  0  0  0  0  0  0  0  0  0  0  0
    4.4569   17.2197   -3.5318 H   0  0  0  0  0  0  0  0  0  0  0  0
    2.7128   17.6494   -3.5318 H   0  0  0  0  0  0  0  0  0  0  0  0
    4.1167   16.0166   -5.3805 H   0  0  0  0  0  0  0  0  0  0  0  0
    1.2615   16.8353   -4.9266 H   0  0  0  0  0  0  0  0  0  0  0  0
    2.4056   17.1515   -6.3177 H   0  0  0  0  0  0  0  0  0  0  0  0
    1.6515   14.3239   -5.9942 H   0  0  0  0  0  0  0  0  0  0  0  0
    0.2747   15.4371   -6.3846 H   0  0  0  0  0  0  0  0  0  0  0  0
    2.3391   14.3913   -7.7491 H   0  0  0  0  0  0  0  0  0  0  0  0
   -0.6012   16.5005   -7.6134 H   0  0  0  0  0  0  0  0  0  0  0  0
   -0.5321   17.4398   -9.1430 H   0  0  0  0  0  0  0  0  0  0  0  0
   -1.1974   15.7713   -9.1430 H   0  0  0  0  0  0  0  0  0  0  0  0
    1.7928   14.5292  -10.3649 H   0  0  0  0  0  0  0  0  0  0  0  0
    0.2508   15.2786  -10.9009 H   0  0  0  0  0  0  0  0  0  0  0  0
    1.7660   16.2435  -10.9009 H   0  0  0  0  0  0  0  0  0  0  0  0
    2.3010   14.1667   -5.1043 H   0  0  0  0  0  0  0  0  0  0  0  0
    4.4866   13.1428   -5.2276 H   0  0  0  0  0  0  0  0  0  0  0  0
    5.2004   14.3545   -4.1416 H   0  0  0  0  0  0  0  0  0  0  0  0
    4.5202   11.6742   -3.4218 H   0  0  0  0  0  0  0  0  0  0  0  0
    4.8644   12.9518   -2.2591 H   0  0  0  0  0  0  0  0  0  0  0  0
    1.4539   10.9930   -3.2352 H   0  0  0  0  0  0  0  0  0  0  0  0
    1.3437   12.3585   -4.3971 H   0  0  0  0  0  0  0  0  0  0  0  0
    2.7904   11.2938   -4.3971 H   0  0  0  0  0  0  0  0  0  0  0  0
    3.0356   12.9481   -0.6712 H   0  0  0  0  0  0  0  0  0  0  0  0
    3.6198   10.5663   -1.4624 H   0  0  0  0  0  0  0  0  0  0  0  0
    2.9105   10.8668    0.2100 H   0  0  0  0  0  0  0  0  0  0  0  0
    1.9693    8.7839   -1.1003 H   0  0  0  0  0  0  0  0  0  0  0  0
   -0.3645   11.8404   -2.3267 H   0  0  0  0  0  0  0  0  0  0  0  0
   -1.2352   11.3367    0.5861 H   0  0  0  0  0  0  0  0  0  0  0  0
   -1.8923   12.5988   -0.5479 H   0  0  0  0  0  0  0  0  0  0  0  0
   -3.4067   10.6537   -0.3330 H   0  0  0  0  0  0  0  0  0  0  0  0
   -2.7710   10.8713   -2.0104 H   0  0  0  0  0  0  0  0  0  0  0  0
   -2.7146    8.5361   -1.4610 H   0  0  0  0  0  0  0  0  0  0  0  0
   -1.2400    9.4580    0.8320 H   0  0  0  0  0  0  0  0  0  0  0  0
   -1.8971    9.6591   -3.4205 H   0  0  0  0  0  0  0  0  0  0  0  0
   -0.1321    9.7639   -3.7377 H   0  0  0  0  0  0  0  0  0  0  0  0
   -0.9514    8.1653   -3.7377 H   0  0  0  0  0  0  0  0  0  0  0  0
   -0.0586    7.3567   -0.4699 H   0  0  0  0  0  0  0  0  0  0  0  0
   -0.8353    6.8590   -2.0112 H   0  0  0  0  0  0  0  0  0  0  0  0
    0.8582    7.4578   -2.0112 H   0  0  0  0  0  0  0  0  0  0  0  0
    0.8281   11.7537    1.1691 H   0  0  0  0  0  0  0  0  0  0  0  0
    1.8256   13.2438    1.0621 H   0  0  0  0  0  0  0  0  0  0  0  0
    0.0332   13.3610    1.0621 H   0  0  0  0  0  0  0  0  0  0  0  0
   -0.6770   14.0663   -1.3684 H   0  0  0  0  0  0  0  0  0  0  0  0
    0.8849   14.7935   -0.6859 H   0  0  0  0  0  0  0  0  0  0  0  0
    0.3728   13.8381   -3.5164 H   0  0  0  0  0  0  0  0  0  0  0  0
    0.6813   15.5204   -2.9311 H   0  0  0  0  0  0  0  0  0  0  0  0
    2.8924   14.8727   -0.8799 H   0  0  0  0  0  0  0  0  0  0  0  0
    4.2184   15.1314   -2.0637 H   0  0  0  0  0  0  0  0  0  0  0  0
    2.7894   16.2198   -2.0637 H   0  0  0  0  0  0  0  0  0  0  0  0
  1  2  1  0
  2  3  1  0
  3  4  1  0
  4  5  1  0
  5  6  1  0
  6  7  1  0
  7  8  1  0
  7  9  1  0
  2 10  1  0
 10 11  1  0
 11 12  1  0
 12 13  1  0
 13 14  1  6
 13 15  1  0
 15 16  1  0
 16 17  1  0
 17 18  2  0
 18 19  1  0
 19 20  1  0
 20 21  1  0
 21 22  1  0
 22 23  1  0
 22 24  1  0
 24 25  1  0
 24 26  1  0
 19 27  1  0
 27 28  1  1
 27 29  1  0
 29 30  1  0
 30 31  1  0
 31 32  1  1
  7  5  1  0
 31 10  1  0
 31 13  1  0
 27 15  1  0
 24 18  1  0
  1 33  1  0
  1 34  1  0
  1 35  1  0
  2 36  1  6
  3 37  1  0
  3 38  1  0
  4 39  1  0
  4 40  1  0
  5 41  1  6
  8 42  1  0
  8 43  1  0
  8 44  1  0
  9 45  1  0
  9 46  1  0
  9 47  1  0
 10 48  1  6
 11 49  1  0
 11 50  1  0
 12 51  1  0
 12 52  1  0
 14 53  1  0
 14 54  1  0
 14 55  1  0
 15 56  1  1
 16 57  1  0
 16 58  1  0
 17 59  1  0
 19 60  1  6
 20 61  1  0
 20 62  1  0
 21 63  1  0
 21 64  1  0
 22 65  1  6
 23 66  1  0
 25 67  1  0
 25 68  1  0
 25 69  1  0
 26 70  1  0
 26 71  1  0
 26 72  1  0
 28 73  1  0
 28 74  1  0
 28 75  1  0
 29 76  1  0
 29 77  1  0
 30 78  1  0
 30 79  1  0
 32 80  1  0
 32 81  1  0
 32 82  1  0
M  END
>  <meeko>  (15) 
{"is_sidechain": [false], "intermolecular_energy": 2.731, "internal_energy": -0.839}

$$$$
EPH_relaxed_0001_pdb2pqr_Repair_320_r2_0001_out
     RDKit          3D

 82 86  0  0  0  0  0  0  0  0999 V2000
   -0.9320    7.8990   -1.9200 C   0  0  0  0  0  0  0  0  0  0  0  0
   -1.4180    8.9310   -0.8980 C   0  0  2  0  0  0  0  0  0  0  0  0
   -2.9090    8.7460   -0.5500 C   0  0  0  0  0  0  0  0  0  0  0  0
   -3.6690    7.8660   -1.5460 C   0  0  0  0  0  0  0  0  0  0  0  0
   -5.1390    7.8390   -1.2520 C   0  0  2  0  0  0  0  0  0  0  0  0
   -5.6580    6.5470   -0.9140 O   0  0  0  0  0  0  0  0  0  0  0  0
   -6.1540    7.1310   -2.1300 C   0  0  0  0  0  0  0  0  0  0  0  0
   -5.7400    6.4010   -3.3690 C   0  0  0  0  0  0  0  0  0  0  0  0
   -7.5870    7.5570   -2.0530 C   0  0  0  0  0  0  0  0  0  0  0  0
   -1.1790   10.3400   -1.4290 C   0  0  1  0  0  0  0  0  0  0  0  0
   -2.3980   11.2750   -1.2120 C   0  0  0  0  0  0  0  0  0  0  0  0
   -1.8320   12.6900   -0.9270 C   0  0  0  0  0  0  0  0  0  0  0  0
   -0.3370   12.5970   -1.3140 C   0  0  1  0  0  0  0  0  0  0  0  0
   -0.3140   12.7620   -2.8660 C   0  0  0  0  0  0  0  0  0  0  0  0
    0.6230   13.6110   -0.6110 C   0  0  2  0  0  0  0  0  0  0  0  0
    0.3400   15.0930   -0.9110 C   0  0  0  0  0  0  0  0  0  0  0  0
    1.0650   15.6550   -2.0890 C   0  0  0  0  0  0  0  0  0  0  0  0
    2.1190   15.0870   -2.7030 C   0  0  0  0  0  0  0  0  0  0  0  0
    2.7490   13.8000   -2.1560 C   0  0  1  0  0  0  0  0  0  0  0  0
    4.2930   13.9510   -2.1240 C   0  0  0  0  0  0  0  0  0  0  0  0
    4.8690   14.3530   -3.4790 C   0  0  0  0  0  0  0  0  0  0  0  0
    4.2610   15.6670   -3.9620 C   0  0  2  0  0  0  0  0  0  0  0  0
    4.6860   16.7200   -3.0920 O   0  0  0  0  0  0  0  0  0  0  0  0
    2.7080   15.6370   -4.0250 C   0  0  0  0  0  0  0  0  0  0  0  0
    2.2520   14.7140   -5.1820 C   0  0  0  0  0  0  0  0  0  0  0  0
    2.2170   17.0640   -4.3900 C   0  0  0  0  0  0  0  0  0  0  0  0
    2.1600   13.2710   -0.7780 C   0  0  1  0  0  0  0  0  0  0  0  0
    2.8990   13.9530    0.4140 C   0  0  0  0  0  0  0  0  0  0  0  0
    2.4480   11.7280   -0.6540 C   0  0  0  0  0  0  0  0  0  0  0  0
    1.4020   10.7750   -1.2640 C   0  0  0  0  0  0  0  0  0  0  0  0
   -0.0110   11.1460   -0.8050 C   0  0  2  0  0  0  0  0  0  0  0  0
   -0.0720   10.9670    0.7500 C   0  0  0  0  0  0  0  0  0  0  0  0
   -0.5208    7.0258   -1.3922 H   0  0  0  0  0  0  0  0  0  0  0  0
   -1.7756    7.5823   -2.5509 H   0  0  0  0  0  0  0  0  0  0  0  0
   -0.1505    8.3476   -2.5509 H   0  0  0  0  0  0  0  0  0  0  0  0
   -0.8415    8.7784    0.0263 H   0  0  0  0  0  0  0  0  0  0  0  0
   -2.9784    8.2833    0.4455 H   0  0  0  0  0  0  0  0  0  0  0  0
   -3.3728    9.7429   -0.5828 H   0  0  0  0  0  0  0  0  0  0  0  0
   -3.5155    8.2617   -2.5608 H   0  0  0  0  0  0  0  0  0  0  0  0
   -3.2831    6.8394   -1.4609 H   0  0  0  0  0  0  0  0  0  0  0  0
   -5.1006    8.8600   -0.8446 H   0  0  0  0  0  0  0  0  0  0  0  0
   -5.2150    5.4752   -3.0910 H   0  0  0  0  0  0  0  0  0  0  0  0
   -6.6316    6.1525   -3.9634 H   0  0  0  0  0  0  0  0  0  0  0  0
   -5.0691    7.0387   -3.9634 H   0  0  0  0  0  0  0  0  0  0  0  0
   -7.8869    7.6461   -0.9984 H   0  0  0  0  0  0  0  0  0  0  0  0
   -7.7076    8.5299   -2.5520 H   0  0  0  0  0  0  0  0  0  0  0  0
   -8.2195    6.8080   -2.5520 H   0  0  0  0  0  0  0  0  0  0  0  0
   -0.9559   10.1058   -2.4804 H   0  0  0  0  0  0  0  0  0  0  0  0
   -3.0266   11.2933   -2.1145 H   0  0  0  0  0  0  0  0  0  0  0  0
   -3.0213   10.9235   -0.3765 H   0  0  0  0  0  0  0  0  0  0  0  0
   -2.3458   13.4447   -1.5405 H   0  0  0  0  0  0  0  0  0  0  0  0
   -1.9738   12.9929    0.1209 H   0  0  0  0  0  0  0  0  0  0  0  0
   -0.1662   13.8221   -3.1199 H   0  0  0  0  0  0  0  0  0  0  0  0
    0.5098   12.1661   -3.2859 H   0  0  0  0  0  0  0  0  0  0  0  0
   -1.2693   12.4141   -3.2859 H   0  0  0  0  0  0  0  0  0  0  0  0
    0.3780   13.4693    0.4520 H   0  0  0  0  0  0  0  0  0  0  0  0
   -0.7394   15.2030   -1.0920 H   0  0  0  0  0  0  0  0  0  0  0  0
    0.6995   15.6546   -0.0361 H   0  0  0  0  0  0  0  0  0  0  0  0
    0.7070   16.6151   -2.4890 H   0  0  0  0  0  0  0  0  0  0  0  0
    2.4665   13.0019   -2.8583 H   0  0  0  0  0  0  0  0  0  0  0  0
    4.5568   14.7225   -1.3856 H   0  0  0  0  0  0  0  0  0  0  0  0
    4.7191   12.9728   -1.8565 H   0  0  0  0  0  0  0  0  0  0  0  0
    5.9584   14.4732   -3.3857 H   0  0  0  0  0  0  0  0  0  0  0  0
    4.6300   13.5661   -4.2095 H   0  0  0  0  0  0  0  0  0  0  0  0
    4.6140   15.8346   -4.9902 H   0  0  0  0  0  0  0  0  0  0  0  0
    5.4770   17.1260   -3.4860 H   0  0  0  0  0  0  0  0  0  0  0  0
    1.8009   13.8008   -4.7665 H   0  0  0  0  0  0  0  0  0  0  0  0
    1.5104   15.2406   -5.8006 H   0  0  0  0  0  0  0  0  0  0  0  0
    3.1209   14.4450   -5.8006 H   0  0  0  0  0  0  0  0  0  0  0  0
    2.0217   17.6315   -3.4682 H   0  0  0  0  0  0  0  0  0  0  0  0
    2.9900   17.5779   -4.9802 H   0  0  0  0  0  0  0  0  0  0  0  0
    1.2914   16.9935   -4.9802 H   0  0  0  0  0  0  0  0  0  0  0  0
    2.4902   13.5757    1.3630 H   0  0  0  0  0  0  0  0  0  0  0  0
    3.9731   13.7221    0.3599 H   0  0  0  0  0  0  0  0  0  0  0  0
    2.7549   15.0422    0.3599 H   0  0  0  0  0  0  0  0  0  0  0  0
    3.4095   11.5280   -1.1495 H   0  0  0  0  0  0  0  0  0  0  0  0
    2.4336   11.5183    0.4257 H   0  0  0  0  0  0  0  0  0  0  0  0
    1.4526   10.8397   -2.3609 H   0  0  0  0  0  0  0  0  0  0  0  0
    1.6224    9.7510   -0.9281 H   0  0  0  0  0  0  0  0  0  0  0  0
    0.2458   11.8996    1.2392 H   0  0  0  0  0  0  0  0  0  0  0  0
   -1.1025   10.7276    1.0514 H   0  0  0  0  0  0  0  0  0  0  0  0
    0.5978   10.1482    1.0514 H   0  0  0  0  0  0  0  0  0  0  0  0
  1  2  1  0
  2  3  1  0
  3  4  1  0
  4  5  1  0
  5  6  1  0
  6  7  1  0
  7  8  1  0
  7  9  1  0
  2 10  1  0
 10 11  1  0
 11 12  1  0
 12 13  1  0
 13 14  1  6
 13 15  1  0
 15 16  1  0
 16 17  1  0
 17 18  2  0
 18 19  1  0
 19 20  1  0
 20 21  1  0
 21 22  1  0
 22 23  1  0
 22 24  1  0
 24 25  1  0
 24 26  1  0
 19 27  1  0
 27 28  1  1
 27 29  1  0
 29 30  1  0
 30 31  1  0
 31 32  1  1
  7  5  1  0
 31 10  1  0
 31 13  1  0
 27 15  1  0
 24 18  1  0
  1 33  1  0
  1 34  1  0
  1 35  1  0
  2 36  1  1
  3 37  1  0
  3 38  1  0
  4 39  1  0
  4 40  1  0
  5 41  1  1
  8 42  1  0
  8 43  1  0
  8 44  1  0
  9 45  1  0
  9 46  1  0
  9 47  1  0
 10 48  1  6
 11 49  1  0
 11 50  1  0
 12 51  1  0
 12 52  1  0
 14 53  1  0
 14 54  1  0
 14 55  1  0
 15 56  1  1
 16 57  1  0
 16 58  1  0
 17 59  1  0
 19 60  1  6
 20 61  1  0
 20 62  1  0
 21 63  1  0
 21 64  1  0
 22 65  1  6
 23 66  1  0
 25 67  1  0
 25 68  1  0
 25 69  1  0
 26 70  1  0
 26 71  1  0
 26 72  1  0
 28 73  1  0
 28 74  1  0
 28 75  1  0
 29 76  1  0
 29 77  1  0
 30 78  1  0
 30 79  1  0
 32 80  1  0
 32 81  1  0
 32 82  1  0
M  END
>  <meeko>  (16) 
{"is_sidechain": [false], "intermolecular_energy": 2.731, "internal_energy": -0.839}

$$$$
EPH_relaxed_0001_pdb2pqr_Repair_320_r2_0001_out
     RDKit          3D

 82 86  0  0  0  0  0  0  0  0999 V2000
    4.6810   16.9450   -2.1410 C   0  0  0  0  0  0  0  0  0  0  0  0
    4.7500   15.4180   -2.0600 C   0  0  2  0  0  0  0  0  0  0  0  0
    5.1430   14.7820   -3.4090 C   0  0  0  0  0  0  0  0  0  0  0  0
    6.0480   13.5550   -3.2700 C   0  0  0  0  0  0  0  0  0  0  0  0
    5.6500   12.4620   -4.2160 C   0  0  2  0  0  0  0  0  0  0  0  0
    5.1450   11.2790   -3.5840 O   0  0  0  0  0  0  0  0  0  0  0  0
    6.3750   11.1330   -4.3110 C   0  0  0  0  0  0  0  0  0  0  0  0
    7.5590   10.8260   -3.4490 C   0  0  0  0  0  0  0  0  0  0  0  0
    6.2410   10.3340   -5.5700 C   0  0  0  0  0  0  0  0  0  0  0  0
    3.4110   14.8610   -1.5920 C   0  0  1  0  0  0  0  0  0  0  0  0
    2.3730   15.9750   -1.2910 C   0  0  0  0  0  0  0  0  0  0  0  0
    0.9860   15.4160   -1.7000 C   0  0  0  0  0  0  0  0  0  0  0  0
    1.2210   13.9020   -1.9060 C   0  0  1  0  0  0  0  0  0  0  0  0
    1.1840   13.2910   -0.4700 C   0  0  0  0  0  0  0  0  0  0  0  0
    0.2270   13.1730   -2.8690 C   0  0  2  0  0  0  0  0  0  0  0  0
   -1.2430   13.1770   -2.4150 C   0  0  0  0  0  0  0  0  0  0  0  0
   -1.6520   12.0170   -1.5690 C   0  0  0  0  0  0  0  0  0  0  0  0
   -0.9590   10.8730   -1.4230 C   0  0  0  0  0  0  0  0  0  0  0  0
    0.3230   10.6200   -2.2270 C   0  0  1  0  0  0  0  0  0  0  0  0
    0.2840    9.1900   -2.8270 C   0  0  0  0  0  0  0  0  0  0  0  0
    0.0370    8.1180   -1.7700 C   0  0  0  0  0  0  0  0  0  0  0  0
   -1.2750    8.3710   -1.0320 C   0  0  2  0  0  0  0  0  0  0  0  0
   -2.3600    8.1950   -1.9480 O   0  0  0  0  0  0  0  0  0  0  0  0
   -1.3550    9.7860   -0.3930 C   0  0  0  0  0  0  0  0  0  0  0  0
   -0.3770    9.8720    0.8050 C   0  0  0  0  0  0  0  0  0  0  0  0
   -2.7800    9.9630    0.1970 C   0  0  0  0  0  0  0  0  0  0  0  0
    0.6930   11.7250   -3.3070 C   0  0  1  0  0  0  0  0  0  0  0  0
   -0.0270   11.4150   -4.6550 C   0  0  0  0  0  0  0  0  0  0  0  0
    2.2380   11.6580   -3.6030 C   0  0  0  0  0  0  0  0  0  0  0  0
    3.1570   12.4940   -2.6910 C   0  0  0  0  0  0  0  0  0  0  0  0
    2.6460   13.9320   -2.5690 C   0  0  2  0  0  0  0  0  0  0  0  0
    2.6930   14.5800   -3.9940 C   0  0  0  0  0  0  0  0  0  0  0  0
    4.6620   17.3656   -1.1248 H   0  0  0  0  0  0  0  0  0  0  0  0
    5.5629   17.3239   -2.6782 H   0  0  0  0  0  0  0  0  0  0  0  0
    3.7685   17.2428   -2.6782 H   0  0  0  0  0  0  0  0  0  0  0  0
    5.5341   15.1605   -1.3327 H   0  0  0  0  0  0  0  0  0  0  0  0
    4.2235   14.4781   -3.9307 H   0  0  0  0  0  0  0  0  0  0  0  0
    5.7118   15.5395   -3.9682 H   0  0  0  0  0  0  0  0  0  0  0  0
    7.0855   13.8513   -3.4839 H   0  0  0  0  0  0  0  0  0  0  0  0
    5.9509   13.1720   -2.2434 H   0  0  0  0  0  0  0  0  0  0  0  0
    5.3544   13.1972   -4.9790 H   0  0  0  0  0  0  0  0  0  0  0  0
    7.2708   10.9007   -2.3901 H   0  0  0  0  0  0  0  0  0  0  0  0
    7.9128    9.8064   -3.6616 H   0  0  0  0  0  0  0  0  0  0  0  0
    8.3637   11.5452   -3.6616 H   0  0  0  0  0  0  0  0  0  0  0  0
    6.0639    9.2782   -5.3171 H   0  0  0  0  0  0  0  0  0  0  0  0
    5.3945   10.7169   -6.1589 H   0  0  0  0  0  0  0  0  0  0  0  0
    7.1661   10.4198   -6.1589 H   0  0  0  0  0  0  0  0  0  0  0  0
    3.7460   14.2894   -0.7139 H   0  0  0  0  0  0  0  0  0  0  0  0
    2.3812   16.2208   -0.2188 H   0  0  0  0  0  0  0  0  0  0  0  0
    2.6079   16.8946   -1.8471 H   0  0  0  0  0  0  0  0  0  0  0  0
    0.2472   15.5895   -0.9037 H   0  0  0  0  0  0  0  0  0  0  0  0
    0.5896   15.9033   -2.6030 H   0  0  0  0  0  0  0  0  0  0  0  0
    1.2330   14.0998    0.2740 H   0  0  0  0  0  0  0  0  0  0  0  0
    0.2500   12.7256   -0.3360 H   0  0  0  0  0  0  0  0  0  0  0  0
    2.0430   12.6170   -0.3360 H   0  0  0  0  0  0  0  0  0  0  0  0
    0.2633   13.8056   -3.7681 H   0  0  0  0  0  0  0  0  0  0  0  0
   -1.4181   14.0970   -1.8380 H   0  0  0  0  0  0  0  0  0  0  0  0
   -1.8453   13.1116   -3.3331 H   0  0  0  0  0  0  0  0  0  0  0  0
   -2.6002   12.1050   -1.0184 H   0  0  0  0  0  0  0  0  0  0  0  0
    1.1531   10.7012   -1.5098 H   0  0  0  0  0  0  0  0  0  0  0  0
   -0.5233    9.1425   -3.5726 H   0  0  0  0  0  0  0  0  0  0  0  0
    1.2664    8.9915   -3.2803 H   0  0  0  0  0  0  0  0  0  0  0  0
   -0.0093    7.1339   -2.2594 H   0  0  0  0  0  0  0  0  0  0  0  0
    0.8607    8.1471   -1.0415 H   0  0  0  0  0  0  0  0  0  0  0  0
   -1.3328    7.6491   -0.2041 H   0  0  0  0  0  0  0  0  0  0  0  0
   -2.6830    7.2830   -1.8490 H   0  0  0  0  0  0  0  0  0  0  0  0
   -0.9445    9.8221    1.7460 H   0  0  0  0  0  0  0  0  0  0  0  0
    0.3327    9.0328    0.7599 H   0  0  0  0  0  0  0  0  0  0  0  0
    0.1754   10.8222    0.7599 H   0  0  0  0  0  0  0  0  0  0  0  0
   -2.7254    9.9562    1.2956 H   0  0  0  0  0  0  0  0  0  0  0  0
   -3.2014   10.9204   -0.1433 H   0  0  0  0  0  0  0  0  0  0  0  0
   -3.4228    9.1378   -0.1433 H   0  0  0  0  0  0  0  0  0  0  0  0
   -1.0197   10.9876   -4.4506 H   0  0  0  0  0  0  0  0  0  0  0  0
   -0.1398   12.3443   -5.2326 H   0  0  0  0  0  0  0  0  0  0  0  0
    0.5706   10.6944   -5.2326 H   0  0  0  0  0  0  0  0  0  0  0  0
    2.5485   10.6065   -3.5144 H   0  0  0  0  0  0  0  0  0  0  0  0
    2.3578   12.0909   -4.6071 H   0  0  0  0  0  0  0  0  0  0  0  0
    3.1851   12.0360   -1.6913 H   0  0  0  0  0  0  0  0  0  0  0  0
    4.1641   12.5158   -3.1328 H   0  0  0  0  0  0  0  0  0  0  0  0
    2.7723   15.6729   -3.8974 H   0  0  0  0  0  0  0  0  0  0  0  0
    3.5657   14.1962   -4.5427 H   0  0  0  0  0  0  0  0  0  0  0  0
    1.7741   14.3261   -4.5427 H   0  0  0  0  0  0  0  0  0  0  0  0
  1  2  1  0
  2  3  1  0
  3  4  1  0
  4  5  1  0
  5  6  1  0
  6  7  1  0
  7  8  1  0
  7  9  1  0
  2 10  1  0
 10 11  1  0
 11 12  1  0
 12 13  1  0
 13 14  1  1
 13 15  1  0
 15 16  1  0
 16 17  1  0
 17 18  2  0
 18 19  1  0
 19 20  1  0
 20 21  1  0
 21 22  1  0
 22 23  1  0
 22 24  1  0
 24 25  1  0
 24 26  1  0
 19 27  1  0
 27 28  1  6
 27 29  1  0
 29 30  1  0
 30 31  1  0
 31 32  1  6
  7  5  1  0
 31 10  1  0
 31 13  1  0
 27 15  1  0
 24 18  1  0
  1 33  1  0
  1 34  1  0
  1 35  1  0
  2 36  1  1
  3 37  1  0
  3 38  1  0
  4 39  1  0
  4 40  1  0
  5 41  1  6
  8 42  1  0
  8 43  1  0
  8 44  1  0
  9 45  1  0
  9 46  1  0
  9 47  1  0
 10 48  1  1
 11 49  1  0
 11 50  1  0
 12 51  1  0
 12 52  1  0
 14 53  1  0
 14 54  1  0
 14 55  1  0
 15 56  1  6
 16 57  1  0
 16 58  1  0
 17 59  1  0
 19 60  1  1
 20 61  1  0
 20 62  1  0
 21 63  1  0
 21 64  1  0
 22 65  1  1
 23 66  1  0
 25 67  1  0
 25 68  1  0
 25 69  1  0
 26 70  1  0
 26 71  1  0
 26 72  1  0
 28 73  1  0
 28 74  1  0
 28 75  1  0
 29 76  1  0
 29 77  1  0
 30 78  1  0
 30 79  1  0
 32 80  1  0
 32 81  1  0
 32 82  1  0
M  END
>  <meeko>  (17) 
{"is_sidechain": [false], "intermolecular_energy": 2.731, "internal_energy": -0.839}

$$$$
EPH_relaxed_0001_pdb2pqr_Repair_320_r2_0001_out
     RDKit          3D

 82 86  0  0  0  0  0  0  0  0999 V2000
   -3.2270    9.3230    0.3050 C   0  0  0  0  0  0  0  0  0  0  0  0
   -3.0010    9.3480   -1.2090 C   0  0  2  0  0  0  0  0  0  0  0  0
   -2.4440    8.0100   -1.7360 C   0  0  0  0  0  0  0  0  0  0  0  0
   -3.3930    7.2820   -2.6910 C   0  0  0  0  0  0  0  0  0  0  0  0
   -4.7900    7.2260   -2.1490 C   0  0  2  0  0  0  0  0  0  0  0  0
   -5.2390    5.9140   -1.7850 O   0  0  0  0  0  0  0  0  0  0  0  0
   -5.9400    6.5470   -2.8680 C   0  0  0  0  0  0  0  0  0  0  0  0
   -5.7450    5.8770   -4.1930 C   0  0  0  0  0  0  0  0  0  0  0  0
   -7.3390    6.9530   -2.5250 C   0  0  0  0  0  0  0  0  0  0  0  0
   -2.0540   10.4860   -1.5740 C   0  0  1  0  0  0  0  0  0  0  0  0
   -2.4290   11.8220   -0.8780 C   0  0  0  0  0  0  0  0  0  0  0  0
   -1.0980   12.5530   -0.5670 C   0  0  0  0  0  0  0  0  0  0  0  0
   -0.0310   11.7830   -1.3800 C   0  0  1  0  0  0  0  0  0  0  0  0
   -0.1470   12.3490   -2.8300 C   0  0  0  0  0  0  0  0  0  0  0  0
    1.4360   11.8640   -0.8450 C   0  0  2  0  0  0  0  0  0  0  0  0
    2.0480   13.2760   -0.8300 C   0  0  0  0  0  0  0  0  0  0  0  0
    2.7780   13.6690   -2.0720 C   0  0  0  0  0  0  0  0  0  0  0  0
    3.1800   12.8270   -3.0420 C   0  0  0  0  0  0  0  0  0  0  0  0
    2.9960   11.3110   -2.8950 C   0  0  1  0  0  0  0  0  0  0  0  0
    4.3100   10.5880   -3.2920 C   0  0  0  0  0  0  0  0  0  0  0  0
    4.8000   10.9850   -4.6810 C   0  0  0  0  0  0  0  0  0  0  0  0
    5.0280   12.4920   -4.7690 C   0  0  2  0  0  0  0  0  0  0  0  0
    6.1210   12.8440   -3.9150 O   0  0  0  0  0  0  0  0  0  0  0  0
    3.7740   13.3250   -4.3830 C   0  0  0  0  0  0  0  0  0  0  0  0
    2.6900   13.1740   -5.4790 C   0  0  0  0  0  0  0  0  0  0  0  0
    4.1790   14.8230   -4.3760 C   0  0  0  0  0  0  0  0  0  0  0  0
    2.4230   10.8140   -1.4990 C   0  0  1  0  0  0  0  0  0  0  0  0
    3.5920   10.6110   -0.4860 C   0  0  0  0  0  0  0  0  0  0  0  0
    1.7520    9.4020   -1.6910 C   0  0  0  0  0  0  0  0  0  0  0  0
    0.2680    9.3890   -2.1040 C   0  0  0  0  0  0  0  0  0  0  0  0
   -0.5590   10.3130   -1.2050 C   0  0  2  0  0  0  0  0  0  0  0  0
   -0.4790    9.7570    0.2570 C   0  0  0  0  0  0  0  0  0  0  0  0
   -2.2618    9.4298    0.8216 H   0  0  0  0  0  0  0  0  0  0  0  0
   -3.8896   10.1533    0.5906 H   0  0  0  0  0  0  0  0  0  0  0  0
   -3.6921    8.3679    0.5906 H   0  0  0  0  0  0  0  0  0  0  0  0
   -3.9787    9.5092   -1.6867 H   0  0  0  0  0  0  0  0  0  0  0  0
   -1.5026    8.2113   -2.2683 H   0  0  0  0  0  0  0  0  0  0  0  0
   -2.3012    7.3553   -0.8636 H   0  0  0  0  0  0  0  0  0  0  0  0
   -3.4054    7.8126   -3.6545 H   0  0  0  0  0  0  0  0  0  0  0  0
   -3.0312    6.2505   -2.8137 H   0  0  0  0  0  0  0  0  0  0  0  0
   -4.6843    8.2286   -1.7090 H   0  0  0  0  0  0  0  0  0  0  0  0
   -5.4408    4.8319   -4.0342 H   0  0  0  0  0  0  0  0  0  0  0  0
   -6.6878    5.9025   -4.7591 H   0  0  0  0  0  0  0  0  0  0  0  0
   -4.9631    6.4045   -4.7591 H   0  0  0  0  0  0  0  0  0  0  0  0
   -7.4535    6.9862   -1.4315 H   0  0  0  0  0  0  0  0  0  0  0  0
   -7.5456    7.9482   -2.9457 H   0  0  0  0  0  0  0  0  0  0  0  0
   -8.0462    6.2230   -2.9457 H   0  0  0  0  0  0  0  0  0  0  0  0
   -2.1747   10.4829   -2.6674 H   0  0  0  0  0  0  0  0  0  0  0  0
   -3.0511   12.4357   -1.5462 H   0  0  0  0  0  0  0  0  0  0  0  0
   -3.0042   11.6403    0.0419 H   0  0  0  0  0  0  0  0  0  0  0  0
   -1.1477   13.6038   -0.8886 H   0  0  0  0  0  0  0  0  0  0  0  0
   -0.8718   12.5680    0.5094 H   0  0  0  0  0  0  0  0  0  0  0  0
   -0.3677   13.4258   -2.7867 H   0  0  0  0  0  0  0  0  0  0  0  0
    0.8023   12.1904   -3.3626 H   0  0  0  0  0  0  0  0  0  0  0  0
   -0.9574   11.8297   -3.3626 H   0  0  0  0  0  0  0  0  0  0  0  0
    1.3183   11.5778    0.2106 H   0  0  0  0  0  0  0  0  0  0  0  0
    1.2331   13.9978   -0.6721 H   0  0  0  0  0  0  0  0  0  0  0  0
    2.7974   13.2738   -0.0248 H   0  0  0  0  0  0  0  0  0  0  0  0
    3.0065   14.7367   -2.2054 H   0  0  0  0  0  0  0  0  0  0  0  0
    2.1926   11.0336   -3.5933 H   0  0  0  0  0  0  0  0  0  0  0  0
    5.0883   10.8427   -2.5575 H   0  0  0  0  0  0  0  0  0  0  0  0
    4.1049    9.5074   -3.3067 H   0  0  0  0  0  0  0  0  0  0  0  0
    5.7462   10.4649   -4.8912 H   0  0  0  0  0  0  0  0  0  0  0  0
    4.0337   10.7022   -5.4178 H   0  0  0  0  0  0  0  0  0  0  0  0
    5.2519   12.7306   -5.8192 H   0  0  0  0  0  0  0  0  0  0  0  0
    6.9410   12.5760   -4.3630 H   0  0  0  0  0  0  0  0  0  0  0  0
    1.7066   13.0370   -5.0056 H   0  0  0  0  0  0  0  0  0  0  0  0
    2.6729   14.0784   -6.1049 H   0  0  0  0  0  0  0  0  0  0  0  0
    2.9207   12.2993   -6.1049 H   0  0  0  0  0  0  0  0  0  0  0  0
    4.2735   15.1724   -3.3373 H   0  0  0  0  0  0  0  0  0  0  0  0
    5.1423   14.9448   -4.8929 H   0  0  0  0  0  0  0  0  0  0  0  0
    3.4083   15.4136   -4.8929 H   0  0  0  0  0  0  0  0  0  0  0  0
    3.2033   10.6785    0.5408 H   0  0  0  0  0  0  0  0  0  0  0  0
    4.0448    9.6208   -0.6423 H   0  0  0  0  0  0  0  0  0  0  0  0
    4.3521   11.3906   -0.6423 H   0  0  0  0  0  0  0  0  0  0  0  0
    2.3183    8.8672   -2.4677 H   0  0  0  0  0  0  0  0  0  0  0  0
    1.7782    8.9330   -0.6963 H   0  0  0  0  0  0  0  0  0  0  0  0
    0.1815    9.7293   -3.1465 H   0  0  0  0  0  0  0  0  0  0  0  0
   -0.1160    8.3634   -2.0008 H   0  0  0  0  0  0  0  0  0  0  0  0
   -0.5981   10.5851    0.9712 H   0  0  0  0  0  0  0  0  0  0  0  0
   -1.2803    9.0198    0.4133 H   0  0  0  0  0  0  0  0  0  0  0  0
    0.4977    9.2756    0.4133 H   0  0  0  0  0  0  0  0  0  0  0  0
  1  2  1  0
  2  3  1  0
  3  4  1  0
  4  5  1  0
  5  6  1  0
  6  7  1  0
  7  8  1  0
  7  9  1  0
  2 10  1  0
 10 11  1  0
 11 12  1  0
 12 13  1  0
 13 14  1  6
 13 15  1  0
 15 16  1  0
 16 17  1  0
 17 18  2  0
 18 19  1  0
 19 20  1  0
 20 21  1  0
 21 22  1  0
 22 23  1  0
 22 24  1  0
 24 25  1  0
 24 26  1  0
 19 27  1  0
 27 28  1  1
 27 29  1  0
 29 30  1  0
 30 31  1  0
 31 32  1  1
  7  5  1  0
 31 10  1  0
 31 13  1  0
 27 15  1  0
 24 18  1  0
  1 33  1  0
  1 34  1  0
  1 35  1  0
  2 36  1  6
  3 37  1  0
  3 38  1  0
  4 39  1  0
  4 40  1  0
  5 41  1  1
  8 42  1  0
  8 43  1  0
  8 44  1  0
  9 45  1  0
  9 46  1  0
  9 47  1  0
 10 48  1  6
 11 49  1  0
 11 50  1  0
 12 51  1  0
 12 52  1  0
 14 53  1  0
 14 54  1  0
 14 55  1  0
 15 56  1  1
 16 57  1  0
 16 58  1  0
 17 59  1  0
 19 60  1  6
 20 61  1  0
 20 62  1  0
 21 63  1  0
 21 64  1  0
 22 65  1  6
 23 66  1  0
 25 67  1  0
 25 68  1  0
 25 69  1  0
 26 70  1  0
 26 71  1  0
 26 72  1  0
 28 73  1  0
 28 74  1  0
 28 75  1  0
 29 76  1  0
 29 77  1  0
 30 78  1  0
 30 79  1  0
 32 80  1  0
 32 81  1  0
 32 82  1  0
M  END
>  <meeko>  (18) 
{"is_sidechain": [false], "intermolecular_energy": 2.731, "internal_energy": -0.839}

$$$$
