EPH_relaxed_0001_pdb2pqr_Repair_115_r2_0001_out
     RDKit          3D

 82 86  0  0  0  0  0  0  0  0999 V2000
   -1.7100    8.5920   -1.8740 C   0  0  0  0  0  0  0  0  0  0  0  0
   -2.0870    9.1120   -0.4840 C   0  0  2  0  0  0  0  0  0  0  0  0
   -3.5820    9.4800   -0.3880 C   0  0  0  0  0  0  0  0  0  0  0  0
   -4.5050    8.2690   -0.2350 C   0  0  0  0  0  0  0  0  0  0  0  0
   -5.2060    7.9400   -1.5180 C   0  0  2  0  0  0  0  0  0  0  0  0
   -6.3550    8.7500   -1.7970 O   0  0  0  0  0  0  0  0  0  0  0  0
   -6.6030    7.3510   -1.5820 C   0  0  0  0  0  0  0  0  0  0  0  0
   -7.3820    7.0560   -0.3390 C   0  0  0  0  0  0  0  0  0  0  0  0
   -7.0130    6.6140   -2.8180 C   0  0  0  0  0  0  0  0  0  0  0  0
   -1.2290   10.3210   -0.1310 C   0  0  1  0  0  0  0  0  0  0  0  0
   -0.2000   10.0170    0.9900 C   0  0  0  0  0  0  0  0  0  0  0  0
    1.0700   10.8460    0.6680 C   0  0  0  0  0  0  0  0  0  0  0  0
    0.6190   11.8420   -0.4260 C   0  0  1  0  0  0  0  0  0  0  0  0
   -0.0900   12.9960    0.3510 C   0  0  0  0  0  0  0  0  0  0  0  0
    1.7400   12.3850   -1.3700 C   0  0  2  0  0  0  0  0  0  0  0  0
    2.8420   13.2020   -0.6730 C   0  0  0  0  0  0  0  0  0  0  0  0
    2.5900   14.6710   -0.5900 C   0  0  0  0  0  0  0  0  0  0  0  0
    1.6680   15.3480   -1.3000 C   0  0  0  0  0  0  0  0  0  0  0  0
    0.8250   14.6440   -2.3710 C   0  0  1  0  0  0  0  0  0  0  0  0
    0.8000   15.5070   -3.6600 C   0  0  0  0  0  0  0  0  0  0  0  0
    0.3350   16.9360   -3.3980 C   0  0  0  0  0  0  0  0  0  0  0  0
    1.2330   17.6220   -2.3710 C   0  0  2  0  0  0  0  0  0  0  0  0
    2.5350   17.7920   -2.9380 O   0  0  0  0  0  0  0  0  0  0  0  0
    1.3430   16.8390   -1.0330 C   0  0  0  0  0  0  0  0  0  0  0  0
   -0.0050   16.9140   -0.2740 C   0  0  0  0  0  0  0  0  0  0  0  0
    2.3850   17.5640   -0.1400 C   0  0  0  0  0  0  0  0  0  0  0  0
    1.1990   13.1270   -2.6590 C   0  0  1  0  0  0  0  0  0  0  0  0
    2.3340   13.0510   -3.7260 C   0  0  0  0  0  0  0  0  0  0  0  0
   -0.0500   12.4010   -3.2870 C   0  0  0  0  0  0  0  0  0  0  0  0
   -1.0600   11.7800   -2.3030 C   0  0  0  0  0  0  0  0  0  0  0  0
   -0.3480   10.9200   -1.2550 C   0  0  2  0  0  0  0  0  0  0  0  0
    0.3560    9.7380   -2.0050 C   0  0  0  0  0  0  0  0  0  0  0  0
   -1.0671    7.7053   -1.7718 H   0  0  0  0  0  0  0  0  0  0  0  0
   -2.6232    8.3214   -2.4244 H   0  0  0  0  0  0  0  0  0  0  0  0
   -1.1689    9.3758   -2.4244 H   0  0  0  0  0  0  0  0  0  0  0  0
   -1.8997    8.3010    0.2352 H   0  0  0  0  0  0  0  0  0  0  0  0
   -3.7228   10.1363    0.4835 H   0  0  0  0  0  0  0  0  0  0  0  0
   -3.8530    9.9734   -1.3331 H   0  0  0  0  0  0  0  0  0  0  0  0
   -3.9053    7.4009    0.0762 H   0  0  0  0  0  0  0  0  0  0  0  0
   -5.2676    8.5126    0.5194 H   0  0  0  0  0  0  0  0  0  0  0  0
   -4.2570    7.6400   -1.9865 H   0  0  0  0  0  0  0  0  0  0  0  0
   -6.7672    7.2888    0.5429 H   0  0  0  0  0  0  0  0  0  0  0  0
   -8.2938    7.6711   -0.3231 H   0  0  0  0  0  0  0  0  0  0  0  0
   -7.6577    5.9912   -0.3231 H   0  0  0  0  0  0  0  0  0  0  0  0
   -7.5299    5.6848   -2.5363 H   0  0  0  0  0  0  0  0  0  0  0  0
   -7.6901    7.2443   -3.4131 H   0  0  0  0  0  0  0  0  0  0  0  0
   -6.1204    6.3711   -3.4131 H   0  0  0  0  0  0  0  0  0  0  0  0
   -2.0199   11.0332    0.1468 H   0  0  0  0  0  0  0  0  0  0  0  0
   -0.6072   10.3123    1.9683 H   0  0  0  0  0  0  0  0  0  0  0  0
    0.0304    8.9423    1.0339 H   0  0  0  0  0  0  0  0  0  0  0  0
    1.4200   11.3832    1.5618 H   0  0  0  0  0  0  0  0  0  0  0  0
    1.9076   10.2143    0.3373 H   0  0  0  0  0  0  0  0  0  0  0  0
    0.0137   12.8273    1.4330 H   0  0  0  0  0  0  0  0  0  0  0  0
    0.3737   13.9570    0.0837 H   0  0  0  0  0  0  0  0  0  0  0  0
   -1.1568   13.0167    0.0837 H   0  0  0  0  0  0  0  0  0  0  0  0
    2.2262   11.4601   -1.7138 H   0  0  0  0  0  0  0  0  0  0  0  0
    2.9535   12.8177    0.3516 H   0  0  0  0  0  0  0  0  0  0  0  0
    3.7455   13.0823   -1.2889 H   0  0  0  0  0  0  0  0  0  0  0  0
    3.2102   15.2493    0.1106 H   0  0  0  0  0  0  0  0  0  0  0  0
   -0.1907   14.5643   -1.9562 H   0  0  0  0  0  0  0  0  0  0  0  0
    1.8149   15.5384   -4.0831 H   0  0  0  0  0  0  0  0  0  0  0  0
    0.0850   15.0456   -4.3570 H   0  0  0  0  0  0  0  0  0  0  0  0
    0.3665   17.5033   -4.3399 H   0  0  0  0  0  0  0  0  0  0  0  0
   -0.6909   16.9046   -3.0023 H   0  0  0  0  0  0  0  0  0  0  0  0
    0.7757   18.5927   -2.1289 H   0  0  0  0  0  0  0  0  0  0  0  0
    3.1660   17.8830   -2.2040 H   0  0  0  0  0  0  0  0  0  0  0  0
    0.1833   16.9035    0.8097 H   0  0  0  0  0  0  0  0  0  0  0  0
   -0.5280   17.8426   -0.5463 H   0  0  0  0  0  0  0  0  0  0  0  0
   -0.6277   16.0491   -0.5463 H   0  0  0  0  0  0  0  0  0  0  0  0
    2.1414   17.3945    0.9192 H   0  0  0  0  0  0  0  0  0  0  0  0
    3.3890   17.1684   -0.3531 H   0  0  0  0  0  0  0  0  0  0  0  0
    2.3631   18.6429   -0.3531 H   0  0  0  0  0  0  0  0  0  0  0  0
    3.3088   12.9857   -3.2204 H   0  0  0  0  0  0  0  0  0  0  0  0
    2.1869   12.1607   -4.3551 H   0  0  0  0  0  0  0  0  0  0  0  0
    2.3069   13.9530   -4.3551 H   0  0  0  0  0  0  0  0  0  0  0  0
   -0.5911   13.1384   -3.8981 H   0  0  0  0  0  0  0  0  0  0  0  0
    0.3638   11.5510   -3.8494 H   0  0  0  0  0  0  0  0  0  0  0  0
   -1.6086   12.5863   -1.7941 H   0  0  0  0  0  0  0  0  0  0  0  0
   -1.7527   11.1401   -2.8693 H   0  0  0  0  0  0  0  0  0  0  0  0
    0.7748    9.0349   -1.2699 H   0  0  0  0  0  0  0  0  0  0  0  0
   -0.3779    9.2151   -2.6358 H   0  0  0  0  0  0  0  0  0  0  0  0
    1.1654   10.1342   -2.6358 H   0  0  0  0  0  0  0  0  0  0  0  0
  1  2  1  0
  2  3  1  0
  3  4  1  0
  4  5  1  0
  5  6  1  0
  6  7  1  0
  7  8  1  0
  7  9  1  0
  2 10  1  0
 10 11  1  0
 11 12  1  0
 12 13  1  0
 13 14  1  1
 13 15  1  0
 15 16  1  0
 16 17  1  0
 17 18  2  0
 18 19  1  0
 19 20  1  0
 20 21  1  0
 21 22  1  0
 22 23  1  0
 22 24  1  0
 24 25  1  0
 24 26  1  0
 19 27  1  0
 27 28  1  6
 27 29  1  0
 29 30  1  0
 30 31  1  0
 31 32  1  6
  7  5  1  0
 31 10  1  0
 31 13  1  0
 27 15  1  0
 24 18  1  0
  1 33  1  0
  1 34  1  0
  1 35  1  0
  2 36  1  1
  3 37  1  0
  3 38  1  0
  4 39  1  0
  4 40  1  0
  5 41  1  6
  8 42  1  0
  8 43  1  0
  8 44  1  0
  9 45  1  0
  9 46  1  0
  9 47  1  0
 10 48  1  1
 11 49  1  0
 11 50  1  0
 12 51  1  0
 12 52  1  0
 14 53  1  0
 14 54  1  0
 14 55  1  0
 15 56  1  6
 16 57  1  0
 16 58  1  0
 17 59  1  0
 19 60  1  1
 20 61  1  0
 20 62  1  0
 21 63  1  0
 21 64  1  0
 22 65  1  1
 23 66  1  0
 25 67  1  0
 25 68  1  0
 25 69  1  0
 26 70  1  0
 26 71  1  0
 26 72  1  0
 28 73  1  0
 28 74  1  0
 28 75  1  0
 29 76  1  0
 29 77  1  0
 30 78  1  0
 30 79  1  0
 32 80  1  0
 32 81  1  0
 32 82  1  0
M  END
>  <meeko>  (1) 
{"is_sidechain": [false], "intermolecular_energy": 2.731, "internal_energy": -0.839}

$$$$
EPH_relaxed_0001_pdb2pqr_Repair_115_r2_0001_out
     RDKit          3D

 82 86  0  0  0  0  0  0  0  0999 V2000
    4.1290   17.5220   -0.0890 C   0  0  0  0  0  0  0  0  0  0  0  0
    2.7180   18.1130   -0.1560 C   0  0  2  0  0  0  0  0  0  0  0  0
    2.4360   19.0750    1.0160 C   0  0  0  0  0  0  0  0  0  0  0  0
    3.6740   19.8310    1.5040 C   0  0  0  0  0  0  0  0  0  0  0  0
    4.1990   19.2650    2.7890 C   0  0  2  0  0  0  0  0  0  0  0  0
    4.9450   20.1900    3.5910 O   0  0  0  0  0  0  0  0  0  0  0  0
    5.6760   19.0660    3.0750 C   0  0  0  0  0  0  0  0  0  0  0  0
    6.7210   19.4300    2.0670 C   0  0  0  0  0  0  0  0  0  0  0  0
    6.0750   18.0740    4.1220 C   0  0  0  0  0  0  0  0  0  0  0  0
    1.6850   16.9930   -0.1710 C   0  0  1  0  0  0  0  0  0  0  0  0
    0.2610   17.4980   -0.5250 C   0  0  0  0  0  0  0  0  0  0  0  0
   -0.4220   16.3740   -1.3450 C   0  0  0  0  0  0  0  0  0  0  0  0
    0.4940   15.1420   -1.1550 C   0  0  1  0  0  0  0  0  0  0  0  0
    0.0870   14.5500    0.2310 C   0  0  0  0  0  0  0  0  0  0  0  0
    0.4390   14.0600   -2.2830 C   0  0  2  0  0  0  0  0  0  0  0  0
   -0.9270   13.3780   -2.4680 C   0  0  0  0  0  0  0  0  0  0  0  0
   -1.1370   12.1410   -1.6590 C   0  0  0  0  0  0  0  0  0  0  0  0
   -0.1710   11.4400   -1.0370 C   0  0  0  0  0  0  0  0  0  0  0  0
    1.3070   11.8230   -1.1960 C   0  0  1  0  0  0  0  0  0  0  0  0
    2.1430   10.5490   -1.4850 C   0  0  0  0  0  0  0  0  0  0  0  0
    1.9320    9.4600   -0.4380 C   0  0  0  0  0  0  0  0  0  0  0  0
    0.4600    9.0650   -0.3500 C   0  0  2  0  0  0  0  0  0  0  0  0
    0.0800    8.4300   -1.5750 O   0  0  0  0  0  0  0  0  0  0  0  0
   -0.4810   10.2700   -0.0710 C   0  0  0  0  0  0  0  0  0  0  0  0
   -0.2730   10.7690    1.3800 C   0  0  0  0  0  0  0  0  0  0  0  0
   -1.9450    9.7590   -0.1480 C   0  0  0  0  0  0  0  0  0  0  0  0
    1.6110   12.9990   -2.2200 C   0  0  1  0  0  0  0  0  0  0  0  0
    1.7680   12.4230   -3.6610 C   0  0  0  0  0  0  0  0  0  0  0  0
    2.9940   13.6560   -1.8520 C   0  0  0  0  0  0  0  0  0  0  0  0
    2.9670   14.8000   -0.8210 C   0  0  0  0  0  0  0  0  0  0  0  0
    1.9020   15.8390   -1.1820 C   0  0  2  0  0  0  0  0  0  0  0  0
    2.2970   16.4680   -2.5620 C   0  0  0  0  0  0  0  0  0  0  0  0
    4.4250   17.3980    0.9631 H   0  0  0  0  0  0  0  0  0  0  0  0
    4.1408   16.5433   -0.5910 H   0  0  0  0  0  0  0  0  0  0  0  0
    4.8348   18.2001   -0.5910 H   0  0  0  0  0  0  0  0  0  0  0  0
    2.6469   18.6957   -1.0863 H   0  0  0  0  0  0  0  0  0  0  0  0
    1.6867   19.8107    0.6886 H   0  0  0  0  0  0  0  0  0  0  0  0
    2.0823   18.4610    1.8574 H   0  0  0  0  0  0  0  0  0  0  0  0
    4.4593   19.7617    0.7369 H   0  0  0  0  0  0  0  0  0  0  0  0
    3.3880   20.8781    1.6822 H   0  0  0  0  0  0  0  0  0  0  0  0
    3.3340   18.5905    2.8717 H   0  0  0  0  0  0  0  0  0  0  0  0
    7.6365   19.7489    2.5868 H   0  0  0  0  0  0  0  0  0  0  0  0
    6.9427   18.5561    1.4367 H   0  0  0  0  0  0  0  0  0  0  0  0
    6.3518   20.2525    1.4367 H   0  0  0  0  0  0  0  0  0  0  0  0
    5.9020   18.5041    5.1195 H   0  0  0  0  0  0  0  0  0  0  0  0
    5.4749   17.1592    4.0080 H   0  0  0  0  0  0  0  0  0  0  0  0
    7.1414   17.8295    4.0080 H   0  0  0  0  0  0  0  0  0  0  0  0
    1.8027   16.6202    0.8572 H   0  0  0  0  0  0  0  0  0  0  0  0
   -0.3098   17.6964    0.3942 H   0  0  0  0  0  0  0  0  0  0  0  0
    0.3061   18.4345   -1.1003 H   0  0  0  0  0  0  0  0  0  0  0  0
   -1.4318   16.1705   -0.9592 H   0  0  0  0  0  0  0  0  0  0  0  0
   -0.5433   16.6447   -2.4042 H   0  0  0  0  0  0  0  0  0  0  0  0
    0.5130   15.1697    1.0338 H   0  0  0  0  0  0  0  0  0  0  0  0
   -1.0095   14.5404    0.3179 H   0  0  0  0  0  0  0  0  0  0  0  0
    0.4707   13.5228    0.3179 H   0  0  0  0  0  0  0  0  0  0  0  0
    0.5982   14.6589   -3.1918 H   0  0  0  0  0  0  0  0  0  0  0  0
   -1.7083   14.1014   -2.1918 H   0  0  0  0  0  0  0  0  0  0  0  0
   -0.9700   13.0637   -3.5213 H   0  0  0  0  0  0  0  0  0  0  0  0
   -2.1685   11.7712   -1.5632 H   0  0  0  0  0  0  0  0  0  0  0  0
    1.6143   12.2602   -0.2345 H   0  0  0  0  0  0  0  0  0  0  0  0
    1.8527   10.1527   -2.4692 H   0  0  0  0  0  0  0  0  0  0  0  0
    3.2051   10.8343   -1.4602 H   0  0  0  0  0  0  0  0  0  0  0  0
    2.5260    8.5761   -0.7133 H   0  0  0  0  0  0  0  0  0  0  0  0
    2.2503    9.8479    0.5409 H   0  0  0  0  0  0  0  0  0  0  0  0
    0.3517    8.3789    0.5030 H   0  0  0  0  0  0  0  0  0  0  0  0
    0.7640    8.6310   -2.2360 H   0  0  0  0  0  0  0  0  0  0  0  0
   -0.5977    9.9901    2.0857 H   0  0  0  0  0  0  0  0  0  0  0  0
    0.7922   10.9901    1.5426 H   0  0  0  0  0  0  0  0  0  0  0  0
   -0.8658   11.6812    1.5426 H   0  0  0  0  0  0  0  0  0  0  0  0
   -2.3393    9.6214    0.8696 H   0  0  0  0  0  0  0  0  0  0  0  0
   -2.5625   10.4948   -0.6841 H   0  0  0  0  0  0  0  0  0  0  0  0
   -1.9705    8.7988   -0.6841 H   0  0  0  0  0  0  0  0  0  0  0  0
    2.0569   11.3632   -3.6028 H   0  0  0  0  0  0  0  0  0  0  0  0
    0.8124   12.5136   -4.1982 H   0  0  0  0  0  0  0  0  0  0  0  0
    2.5455   12.9860   -4.1982 H   0  0  0  0  0  0  0  0  0  0  0  0
    3.6432   12.8631   -1.4523 H   0  0  0  0  0  0  0  0  0  0  0  0
    3.3507   14.1174   -2.7847 H   0  0  0  0  0  0  0  0  0  0  0  0
    2.7417   14.3840    0.1721 H   0  0  0  0  0  0  0  0  0  0  0  0
    3.9505   15.2927   -0.8184 H   0  0  0  0  0  0  0  0  0  0  0  0
    2.8751   17.3885   -2.3934 H   0  0  0  0  0  0  0  0  0  0  0  0
    2.9072   15.7508   -3.1306 H   0  0  0  0  0  0  0  0  0  0  0  0
    1.3860   16.7061   -3.1306 H   0  0  0  0  0  0  0  0  0  0  0  0
  1  2  1  0
  2  3  1  0
  3  4  1  0
  4  5  1  0
  5  6  1  0
  6  7  1  0
  7  8  1  0
  7  9  1  0
  2 10  1  0
 10 11  1  0
 11 12  1  0
 12 13  1  0
 13 14  1  1
 13 15  1  0
 15 16  1  0
 16 17  1  0
 17 18  2  0
 18 19  1  0
 19 20  1  0
 20 21  1  0
 21 22  1  0
 22 23  1  0
 22 24  1  0
 24 25  1  0
 24 26  1  0
 19 27  1  0
 27 28  1  6
 27 29  1  0
 29 30  1  0
 30 31  1  0
 31 32  1  6
  7  5  1  0
 31 10  1  0
 31 13  1  0
 27 15  1  0
 24 18  1  0
  1 33  1  0
  1 34  1  0
  1 35  1  0
  2 36  1  6
  3 37  1  0
  3 38  1  0
  4 39  1  0
  4 40  1  0
  5 41  1  1
  8 42  1  0
  8 43  1  0
  8 44  1  0
  9 45  1  0
  9 46  1  0
  9 47  1  0
 10 48  1  1
 11 49  1  0
 11 50  1  0
 12 51  1  0
 12 52  1  0
 14 53  1  0
 14 54  1  0
 14 55  1  0
 15 56  1  6
 16 57  1  0
 16 58  1  0
 17 59  1  0
 19 60  1  1
 20 61  1  0
 20 62  1  0
 21 63  1  0
 21 64  1  0
 22 65  1  1
 23 66  1  0
 25 67  1  0
 25 68  1  0
 25 69  1  0
 26 70  1  0
 26 71  1  0
 26 72  1  0
 28 73  1  0
 28 74  1  0
 28 75  1  0
 29 76  1  0
 29 77  1  0
 30 78  1  0
 30 79  1  0
 32 80  1  0
 32 81  1  0
 32 82  1  0
M  END
>  <meeko>  (2) 
{"is_sidechain": [false], "intermolecular_energy": 2.731, "internal_energy": -0.839}

$$$$
EPH_relaxed_0001_pdb2pqr_Repair_115_r2_0001_out
     RDKit          3D

 82 86  0  0  0  0  0  0  0  0999 V2000
    2.1230   18.0660   -2.6260 C   0  0  0  0  0  0  0  0  0  0  0  0
    0.6030   17.8820   -2.6200 C   0  0  2  0  0  0  0  0  0  0  0  0
   -0.0300   18.3220   -1.2850 C   0  0  0  0  0  0  0  0  0  0  0  0
    0.7820   17.9110   -0.0540 C   0  0  0  0  0  0  0  0  0  0  0  0
    1.3260   19.1030    0.6740 C   0  0  2  0  0  0  0  0  0  0  0  0
    2.2090   19.9260   -0.1000 O   0  0  0  0  0  0  0  0  0  0  0  0
    2.7910   19.2650    1.0350 C   0  0  0  0  0  0  0  0  0  0  0  0
    3.8030   18.2220    0.6800 C   0  0  0  0  0  0  0  0  0  0  0  0
    3.1530   20.1940    2.1520 C   0  0  0  0  0  0  0  0  0  0  0  0
    0.2550   16.4260   -2.9070 C   0  0  1  0  0  0  0  0  0  0  0  0
    0.3380   16.0780   -4.4170 C   0  0  0  0  0  0  0  0  0  0  0  0
    0.8470   14.6170   -4.5130 C   0  0  0  0  0  0  0  0  0  0  0  0
    0.7240   14.0660   -3.0720 C   0  0  1  0  0  0  0  0  0  0  0  0
   -0.7780   13.6660   -2.9230 C   0  0  0  0  0  0  0  0  0  0  0  0
    1.6760   12.8830   -2.7020 C   0  0  2  0  0  0  0  0  0  0  0  0
    1.4680   11.5970   -3.5200 C   0  0  0  0  0  0  0  0  0  0  0  0
    0.4940   10.6240   -2.9440 C   0  0  0  0  0  0  0  0  0  0  0  0
    0.0270   10.6400   -1.6810 C   0  0  0  0  0  0  0  0  0  0  0  0
    0.5570   11.6530   -0.6580 C   0  0  1  0  0  0  0  0  0  0  0  0
    0.8750   10.9250    0.6740 C   0  0  0  0  0  0  0  0  0  0  0  0
   -0.3130   10.1280    1.2040 C   0  0  0  0  0  0  0  0  0  0  0  0
   -0.7740    9.0920    0.1820 C   0  0  2  0  0  0  0  0  0  0  0  0
    0.2510    8.1050    0.0320 O   0  0  0  0  0  0  0  0  0  0  0  0
   -1.1140    9.7080   -1.2040 C   0  0  0  0  0  0  0  0  0  0  0  0
   -2.4130   10.5440   -1.0980 C   0  0  0  0  0  0  0  0  0  0  0  0
   -1.4280    8.5420   -2.1800 C   0  0  0  0  0  0  0  0  0  0  0  0
    1.7540   12.5750   -1.1510 C   0  0  1  0  0  0  0  0  0  0  0  0
    3.1150   11.8540   -0.9080 C   0  0  0  0  0  0  0  0  0  0  0  0
    1.7840   13.8870   -0.2810 C   0  0  0  0  0  0  0  0  0  0  0  0
    0.9140   15.0620   -0.7660 C   0  0  0  0  0  0  0  0  0  0  0  0
    1.1470   15.3400   -2.2540 C   0  0  2  0  0  0  0  0  0  0  0  0
    2.6440   15.7660   -2.4330 C   0  0  0  0  0  0  0  0  0  0  0  0
    2.4910   18.1106   -1.5904 H   0  0  0  0  0  0  0  0  0  0  0  0
    2.5929   17.2182   -3.1460 H   0  0  0  0  0  0  0  0  0  0  0  0
    2.3771   19.0015   -3.1460 H   0  0  0  0  0  0  0  0  0  0  0  0
    0.1884   18.5260   -3.4095 H   0  0  0  0  0  0  0  0  0  0  0  0
   -0.1233   19.4180   -1.2894 H   0  0  0  0  0  0  0  0  0  0  0  0
   -1.0049   17.8181   -1.2100 H   0  0  0  0  0  0  0  0  0  0  0  0
    0.1326   17.3425    0.6280 H   0  0  0  0  0  0  0  0  0  0  0  0
    1.6309   17.2984   -0.3918 H   0  0  0  0  0  0  0  0  0  0  0  0
    0.4051   19.1896    1.2693 H   0  0  0  0  0  0  0  0  0  0  0  0
    4.2224   17.7897    1.6005 H   0  0  0  0  0  0  0  0  0  0  0  0
    3.3208   17.4292    0.0893 H   0  0  0  0  0  0  0  0  0  0  0  0
    4.6099   18.6801    0.0893 H   0  0  0  0  0  0  0  0  0  0  0  0
    2.9607   19.7006    3.1162 H   0  0  0  0  0  0  0  0  0  0  0  0
    4.2190   20.4559    2.0802 H   0  0  0  0  0  0  0  0  0  0  0  0
    2.5453   21.1081    2.0802 H   0  0  0  0  0  0  0  0  0  0  0  0
   -0.7573   16.3904   -2.4780 H   0  0  0  0  0  0  0  0  0  0  0  0
   -0.6559   16.1639   -4.8805 H   0  0  0  0  0  0  0  0  0  0  0  0
    1.0145   16.7669   -4.9440 H   0  0  0  0  0  0  0  0  0  0  0  0
    0.2238   14.0333   -5.2066 H   0  0  0  0  0  0  0  0  0  0  0  0
    1.8765   14.5579   -4.8960 H   0  0  0  0  0  0  0  0  0  0  0  0
   -1.0351   13.5975   -1.8557 H   0  0  0  0  0  0  0  0  0  0  0  0
   -1.4096   14.4272   -3.4042 H   0  0  0  0  0  0  0  0  0  0  0  0
   -0.9474   12.6914   -3.4042 H   0  0  0  0  0  0  0  0  0  0  0  0
    2.6609   13.2708   -3.0012 H   0  0  0  0  0  0  0  0  0  0  0  0
    1.1100   11.8845   -4.5196 H   0  0  0  0  0  0  0  0  0  0  0  0
    2.4405   11.0831   -3.5304 H   0  0  0  0  0  0  0  0  0  0  0  0
    0.1266    9.8267   -3.6068 H   0  0  0  0  0  0  0  0  0  0  0  0
   -0.2536   12.3800   -0.5017 H   0  0  0  0  0  0  0  0  0  0  0  0
    1.7156   10.2355    0.5069 H   0  0  0  0  0  0  0  0  0  0  0  0
    1.1227   11.6921    1.4225 H   0  0  0  0  0  0  0  0  0  0  0  0
   -0.0170    9.6133    2.1300 H   0  0  0  0  0  0  0  0  0  0  0  0
   -1.1432   10.8228    1.3989 H   0  0  0  0  0  0  0  0  0  0  0  0
   -1.7039    8.6441    0.5623 H   0  0  0  0  0  0  0  0  0  0  0  0
    0.0810    7.4030    0.6830 H   0  0  0  0  0  0  0  0  0  0  0  0
   -2.6609   10.7035   -0.0382 H   0  0  0  0  0  0  0  0  0  0  0  0
   -2.2644   11.5164   -1.5902 H   0  0  0  0  0  0  0  0  0  0  0  0
   -3.2365   10.0059   -1.5902 H   0  0  0  0  0  0  0  0  0  0  0  0
   -1.6717    7.6372   -1.6039 H   0  0  0  0  0  0  0  0  0  0  0  0
   -2.2846    8.8149   -2.8138 H   0  0  0  0  0  0  0  0  0  0  0  0
   -0.5501    8.3478   -2.8138 H   0  0  0  0  0  0  0  0  0  0  0  0
    3.2922   11.7601    0.1736 H   0  0  0  0  0  0  0  0  0  0  0  0
    3.0860   10.8530   -1.3631 H   0  0  0  0  0  0  0  0  0  0  0  0
    3.9269   12.4403   -1.3631 H   0  0  0  0  0  0  0  0  0  0  0  0
    1.4497   13.6217    0.7328 H   0  0  0  0  0  0  0  0  0  0  0  0
    2.8202   14.2507   -0.3443 H   0  0  0  0  0  0  0  0  0  0  0  0
   -0.1460   14.8139   -0.6081 H   0  0  0  0  0  0  0  0  0  0  0  0
    1.1888   15.9608   -0.1944 H   0  0  0  0  0  0  0  0  0  0  0  0
    3.1083   15.8981   -1.4446 H   0  0  0  0  0  0  0  0  0  0  0  0
    3.1832   14.9856   -2.9900 H   0  0  0  0  0  0  0  0  0  0  0  0
    2.6916   16.7133   -2.9900 H   0  0  0  0  0  0  0  0  0  0  0  0
  1  2  1  0
  2  3  1  0
  3  4  1  0
  4  5  1  0
  5  6  1  0
  6  7  1  0
  7  8  1  0
  7  9  1  0
  2 10  1  0
 10 11  1  0
 11 12  1  0
 12 13  1  0
 13 14  1  1
 13 15  1  0
 15 16  1  0
 16 17  1  0
 17 18  2  0
 18 19  1  0
 19 20  1  0
 20 21  1  0
 21 22  1  0
 22 23  1  0
 22 24  1  0
 24 25  1  0
 24 26  1  0
 19 27  1  0
 27 28  1  6
 27 29  1  0
 29 30  1  0
 30 31  1  0
 31 32  1  1
  7  5  1  0
 31 10  1  0
 31 13  1  0
 27 15  1  0
 24 18  1  0
  1 33  1  0
  1 34  1  0
  1 35  1  0
  2 36  1  6
  3 37  1  0
  3 38  1  0
  4 39  1  0
  4 40  1  0
  5 41  1  1
  8 42  1  0
  8 43  1  0
  8 44  1  0
  9 45  1  0
  9 46  1  0
  9 47  1  0
 10 48  1  1
 11 49  1  0
 11 50  1  0
 12 51  1  0
 12 52  1  0
 14 53  1  0
 14 54  1  0
 14 55  1  0
 15 56  1  6
 16 57  1  0
 16 58  1  0
 17 59  1  0
 19 60  1  1
 20 61  1  0
 20 62  1  0
 21 63  1  0
 21 64  1  0
 22 65  1  1
 23 66  1  0
 25 67  1  0
 25 68  1  0
 25 69  1  0
 26 70  1  0
 26 71  1  0
 26 72  1  0
 28 73  1  0
 28 74  1  0
 28 75  1  0
 29 76  1  0
 29 77  1  0
 30 78  1  0
 30 79  1  0
 32 80  1  0
 32 81  1  0
 32 82  1  0
M  END
>  <meeko>  (3) 
{"is_sidechain": [false], "intermolecular_energy": 2.731, "internal_energy": -0.839}

$$$$
EPH_relaxed_0001_pdb2pqr_Repair_115_r2_0001_out
     RDKit          3D

 82 86  0  0  0  0  0  0  0  0999 V2000
    2.3870   18.0200   -2.6750 C   0  0  0  0  0  0  0  0  0  0  0  0
    1.0720   17.6650   -1.9760 C   0  0  2  0  0  0  0  0  0  0  0  0
    1.1910   17.7400   -0.4410 C   0  0  0  0  0  0  0  0  0  0  0  0
    1.2300   19.1700    0.1040 C   0  0  0  0  0  0  0  0  0  0  0  0
   -0.0670   19.8860   -0.1250 C   0  0  2  0  0  0  0  0  0  0  0  0
   -0.7990   20.1940    1.0690 O   0  0  0  0  0  0  0  0  0  0  0  0
   -1.4240   19.2700    0.1630 C   0  0  0  0  0  0  0  0  0  0  0  0
   -1.5520   17.8810    0.7040 C   0  0  0  0  0  0  0  0  0  0  0  0
   -2.6250   19.8290   -0.5340 C   0  0  0  0  0  0  0  0  0  0  0  0
    0.6200   16.2710   -2.3960 C   0  0  1  0  0  0  0  0  0  0  0  0
    0.7020   16.0530   -3.9300 C   0  0  0  0  0  0  0  0  0  0  0  0
    1.1010   14.5710   -4.1510 C   0  0  0  0  0  0  0  0  0  0  0  0
    0.9120   13.9060   -2.7670 C   0  0  1  0  0  0  0  0  0  0  0  0
   -0.6180   13.6110   -2.6700 C   0  0  0  0  0  0  0  0  0  0  0  0
    1.7660   12.6250   -2.4940 C   0  0  2  0  0  0  0  0  0  0  0  0
    1.4760   11.4360   -3.4270 C   0  0  0  0  0  0  0  0  0  0  0  0
    0.4210   10.4940   -2.9500 C   0  0  0  0  0  0  0  0  0  0  0  0
   -0.0650   10.4330   -1.6960 C   0  0  0  0  0  0  0  0  0  0  0  0
    0.5220   11.3090   -0.5810 C   0  0  1  0  0  0  0  0  0  0  0  0
    0.7610   10.4440    0.6840 C   0  0  0  0  0  0  0  0  0  0  0  0
   -0.4930    9.6960    1.1280 C   0  0  0  0  0  0  0  0  0  0  0  0
   -1.0130    8.7930    0.0130 C   0  0  2  0  0  0  0  0  0  0  0  0
   -0.0620    7.7470   -0.2140 O   0  0  0  0  0  0  0  0  0  0  0  0
   -1.2810    9.5530   -1.3160 C   0  0  0  0  0  0  0  0  0  0  0  0
   -2.5150   10.4740   -1.1490 C   0  0  0  0  0  0  0  0  0  0  0  0
   -1.6650    8.5060   -2.3960 C   0  0  0  0  0  0  0  0  0  0  0  0
    1.7930   12.1760   -0.9770 C   0  0  1  0  0  0  0  0  0  0  0  0
    3.0920   11.3340   -0.7850 C   0  0  0  0  0  0  0  0  0  0  0  0
    1.9080   13.3990    0.0070 C   0  0  0  0  0  0  0  0  0  0  0  0
    1.1370   14.6760   -0.3790 C   0  0  0  0  0  0  0  0  0  0  0  0
    1.4160   15.0660   -1.8340 C   0  0  2  0  0  0  0  0  0  0  0  0
    2.9440   15.3900   -1.9580 C   0  0  0  0  0  0  0  0  0  0  0  0
    3.1591   18.2284   -1.9197 H   0  0  0  0  0  0  0  0  0  0  0  0
    2.7075   17.1762   -3.3038 H   0  0  0  0  0  0  0  0  0  0  0  0
    2.2393   18.9104   -3.3038 H   0  0  0  0  0  0  0  0  0  0  0  0
    0.3222   18.4081   -2.2852 H   0  0  0  0  0  0  0  0  0  0  0  0
    0.3256   17.2237    0.0001 H   0  0  0  0  0  0  0  0  0  0  0  0
    2.1457   17.2662   -0.1690 H   0  0  0  0  0  0  0  0  0  0  0  0
    1.4315   19.1342    1.1848 H   0  0  0  0  0  0  0  0  0  0  0  0
    2.0226   19.7178   -0.4268 H   0  0  0  0  0  0  0  0  0  0  0  0
    0.3405   20.3913   -1.0130 H   0  0  0  0  0  0  0  0  0  0  0  0
   -1.5490   17.9140    1.8035 H   0  0  0  0  0  0  0  0  0  0  0  0
   -2.4949   17.4363    0.3531 H   0  0  0  0  0  0  0  0  0  0  0  0
   -0.7062   17.2715    0.3531 H   0  0  0  0  0  0  0  0  0  0  0  0
   -3.3570   20.1697    0.2131 H   0  0  0  0  0  0  0  0  0  0  0  0
   -2.3213   20.6783   -1.1636 H   0  0  0  0  0  0  0  0  0  0  0  0
   -3.0793   19.0498   -1.1636 H   0  0  0  0  0  0  0  0  0  0  0  0
   -0.3991   16.2753   -1.9821 H   0  0  0  0  0  0  0  0  0  0  0  0
   -0.2745   16.2555   -4.3940 H   0  0  0  0  0  0  0  0  0  0  0  0
    1.4372   16.7321   -4.3865 H   0  0  0  0  0  0  0  0  0  0  0  0
    0.4477   14.1005   -4.9005 H   0  0  0  0  0  0  0  0  0  0  0  0
    2.1296   14.4673   -4.5269 H   0  0  0  0  0  0  0  0  0  0  0  0
   -0.9141   13.5539   -1.6121 H   0  0  0  0  0  0  0  0  0  0  0  0
   -1.1790   14.4175   -3.1648 H   0  0  0  0  0  0  0  0  0  0  0  0
   -0.8389   12.6537   -3.1648 H   0  0  0  0  0  0  0  0  0  0  0  0
    2.7827   12.9610   -2.7460 H   0  0  0  0  0  0  0  0  0  0  0  0
    1.1583   11.8375   -4.4006 H   0  0  0  0  0  0  0  0  0  0  0  0
    2.4069   10.8519   -3.4740 H   0  0  0  0  0  0  0  0  0  0  0  0
    0.0053    9.7897   -3.6856 H   0  0  0  0  0  0  0  0  0  0  0  0
   -0.2338   12.0796   -0.3692 H   0  0  0  0  0  0  0  0  0  0  0  0
    1.5503    9.7098    0.4650 H   0  0  0  0  0  0  0  0  0  0  0  0
    1.0523   11.1208    1.5007 H   0  0  0  0  0  0  0  0  0  0  0  0
   -0.2525    9.0803    2.0072 H   0  0  0  0  0  0  0  0  0  0  0  0
   -1.2719   10.4323    1.3754 H   0  0  0  0  0  0  0  0  0  0  0  0
   -1.9806    8.3861    0.3419 H   0  0  0  0  0  0  0  0  0  0  0  0
    0.2510    7.8290   -1.1310 H   0  0  0  0  0  0  0  0  0  0  0  0
   -2.7175   10.6251   -0.0784 H   0  0  0  0  0  0  0  0  0  0  0  0
   -2.3147   11.4453   -1.6250 H   0  0  0  0  0  0  0  0  0  0  0  0
   -3.3891   10.0057   -1.6250 H   0  0  0  0  0  0  0  0  0  0  0  0
   -2.0041    7.5814   -1.9061 H   0  0  0  0  0  0  0  0  0  0  0  0
   -2.4747    8.9067   -3.0236 H   0  0  0  0  0  0  0  0  0  0  0  0
   -0.7883    8.2881   -3.0236 H   0  0  0  0  0  0  0  0  0  0  0  0
    3.2902   11.2055    0.2893 H   0  0  0  0  0  0  0  0  0  0  0  0
    2.9624   10.3477   -1.2545 H   0  0  0  0  0  0  0  0  0  0  0  0
    3.9394   11.8550   -1.2545 H   0  0  0  0  0  0  0  0  0  0  0  0
    1.5383   13.0713    0.9898 H   0  0  0  0  0  0  0  0  0  0  0  0
    2.9696   13.6863   -0.0137 H   0  0  0  0  0  0  0  0  0  0  0  0
    0.0588   14.4968   -0.2549 H   0  0  0  0  0  0  0  0  0  0  0  0
    1.4685   15.4968    0.2740 H   0  0  0  0  0  0  0  0  0  0  0  0
    3.3819   15.4828   -0.9532 H   0  0  0  0  0  0  0  0  0  0  0  0
    3.4477   14.5787   -2.5039 H   0  0  0  0  0  0  0  0  0  0  0  0
    3.0751   16.3359   -2.5039 H   0  0  0  0  0  0  0  0  0  0  0  0
  1  2  1  0
  2  3  1  0
  3  4  1  0
  4  5  1  0
  5  6  1  0
  6  7  1  0
  7  8  1  0
  7  9  1  0
  2 10  1  0
 10 11  1  0
 11 12  1  0
 12 13  1  0
 13 14  1  1
 13 15  1  0
 15 16  1  0
 16 17  1  0
 17 18  2  0
 18 19  1  0
 19 20  1  0
 20 21  1  0
 21 22  1  0
 22 23  1  0
 22 24  1  0
 24 25  1  0
 24 26  1  0
 19 27  1  0
 27 28  1  6
 27 29  1  0
 29 30  1  0
 30 31  1  0
 31 32  1  1
  7  5  1  0
 31 10  1  0
 31 13  1  0
 27 15  1  0
 24 18  1  0
  1 33  1  0
  1 34  1  0
  1 35  1  0
  2 36  1  6
  3 37  1  0
  3 38  1  0
  4 39  1  0
  4 40  1  0
  5 41  1  6
  8 42  1  0
  8 43  1  0
  8 44  1  0
  9 45  1  0
  9 46  1  0
  9 47  1  0
 10 48  1  1
 11 49  1  0
 11 50  1  0
 12 51  1  0
 12 52  1  0
 14 53  1  0
 14 54  1  0
 14 55  1  0
 15 56  1  6
 16 57  1  0
 16 58  1  0
 17 59  1  0
 19 60  1  1
 20 61  1  0
 20 62  1  0
 21 63  1  0
 21 64  1  0
 22 65  1  1
 23 66  1  0
 25 67  1  0
 25 68  1  0
 25 69  1  0
 26 70  1  0
 26 71  1  0
 26 72  1  0
 28 73  1  0
 28 74  1  0
 28 75  1  0
 29 76  1  0
 29 77  1  0
 30 78  1  0
 30 79  1  0
 32 80  1  0
 32 81  1  0
 32 82  1  0
M  END
>  <meeko>  (4) 
{"is_sidechain": [false], "intermolecular_energy": 2.731, "internal_energy": -0.839}

$$$$
EPH_relaxed_0001_pdb2pqr_Repair_115_r2_0001_out
     RDKit          3D

 82 86  0  0  0  0  0  0  0  0999 V2000
   -0.2380   14.7510   -7.7530 C   0  0  0  0  0  0  0  0  0  0  0  0
    0.7030   13.6340   -8.2130 C   0  0  2  0  0  0  0  0  0  0  0  0
    0.2360   12.9890   -9.5340 C   0  0  0  0  0  0  0  0  0  0  0  0
    0.9740   13.5120  -10.7690 C   0  0  0  0  0  0  0  0  0  0  0  0
    1.0900   15.0070  -10.7530 C   0  0  2  0  0  0  0  0  0  0  0  0
    2.1770   15.5310  -11.5270 O   0  0  0  0  0  0  0  0  0  0  0  0
    2.2460   15.7490  -10.1090 C   0  0  0  0  0  0  0  0  0  0  0  0
    3.3630   15.0190   -9.4330 C   0  0  0  0  0  0  0  0  0  0  0  0
    2.0440   17.1780   -9.7090 C   0  0  0  0  0  0  0  0  0  0  0  0
    0.8180   12.5710   -7.1270 C   0  0  1  0  0  0  0  0  0  0  0  0
    1.7840   11.4210   -7.5160 C   0  0  0  0  0  0  0  0  0  0  0  0
    2.4910   10.9690   -6.2120 C   0  0  0  0  0  0  0  0  0  0  0  0
    1.6790   11.6350   -5.0770 C   0  0  1  0  0  0  0  0  0  0  0  0
    0.4390   10.7080   -4.8750 C   0  0  0  0  0  0  0  0  0  0  0  0
    2.4400   11.8810   -3.7350 C   0  0  2  0  0  0  0  0  0  0  0  0
    2.9390   10.6100   -3.0250 C   0  0  0  0  0  0  0  0  0  0  0  0
    1.9830   10.0090   -2.0470 C   0  0  0  0  0  0  0  0  0  0  0  0
    0.8970   10.6200   -1.5390 C   0  0  0  0  0  0  0  0  0  0  0  0
    0.5910   12.0870   -1.8690 C   0  0  1  0  0  0  0  0  0  0  0  0
    0.2260   12.8460   -0.5660 C   0  0  0  0  0  0  0  0  0  0  0  0
   -0.9050   12.1740    0.2050 C   0  0  0  0  0  0  0  0  0  0  0  0
   -0.5410   10.7360    0.5650 C   0  0  2  0  0  0  0  0  0  0  0  0
    0.5390   10.7560    1.5040 O   0  0  0  0  0  0  0  0  0  0  0  0
   -0.1450    9.8760   -0.6680 C   0  0  0  0  0  0  0  0  0  0  0  0
   -1.3980    9.6030   -1.5350 C   0  0  0  0  0  0  0  0  0  0  0  0
    0.3350    8.4930   -0.1510 C   0  0  0  0  0  0  0  0  0  0  0  0
    1.6900   12.8470   -2.7310 C   0  0  1  0  0  0  0  0  0  0  0  0
    2.7800   13.4480   -1.7920 C   0  0  0  0  0  0  0  0  0  0  0  0
    1.0150   14.0650   -3.4650 C   0  0  0  0  0  0  0  0  0  0  0  0
    0.3840   13.7840   -4.8420 C   0  0  0  0  0  0  0  0  0  0  0  0
    1.3580   13.0210   -5.7460 C   0  0  2  0  0  0  0  0  0  0  0  0
    2.6060   13.9380   -5.9850 C   0  0  0  0  0  0  0  0  0  0  0  0
   -0.2626   14.7802   -6.6537 H   0  0  0  0  0  0  0  0  0  0  0  0
    0.1232   15.7163   -8.1374 H   0  0  0  0  0  0  0  0  0  0  0  0
   -1.2506   14.5589   -8.1374 H   0  0  0  0  0  0  0  0  0  0  0  0
    1.6888   14.0863   -8.3964 H   0  0  0  0  0  0  0  0  0  0  0  0
    0.3981   11.9031   -9.4666 H   0  0  0  0  0  0  0  0  0  0  0  0
   -0.8256   13.2479   -9.6604 H   0  0  0  0  0  0  0  0  0  0  0  0
    1.9837   13.0762  -10.7923 H   0  0  0  0  0  0  0  0  0  0  0  0
    0.3992   13.2218  -11.6609 H   0  0  0  0  0  0  0  0  0  0  0  0
   -0.0006   15.1146  -10.6577 H   0  0  0  0  0  0  0  0  0  0  0  0
    3.2445   15.0965   -8.3422 H   0  0  0  0  0  0  0  0  0  0  0  0
    3.3416   13.9600   -9.7299 H   0  0  0  0  0  0  0  0  0  0  0  0
    4.3243   15.4637   -9.7299 H   0  0  0  0  0  0  0  0  0  0  0  0
    2.0333   17.2536   -8.6117 H   0  0  0  0  0  0  0  0  0  0  0  0
    2.8645   17.7907  -10.1108 H   0  0  0  0  0  0  0  0  0  0  0  0
    1.0859   17.5393  -10.1108 H   0  0  0  0  0  0  0  0  0  0  0  0
   -0.2393   12.2798   -7.0418 H   0  0  0  0  0  0  0  0  0  0  0  0
    1.2194   10.5830   -7.9506 H   0  0  0  0  0  0  0  0  0  0  0  0
    2.5157   11.7568   -8.2655 H   0  0  0  0  0  0  0  0  0  0  0  0
    2.4657    9.8735   -6.1163 H   0  0  0  0  0  0  0  0  0  0  0  0
    3.5521   11.2583   -6.1910 H   0  0  0  0  0  0  0  0  0  0  0  0
    0.2553   10.5706   -3.7992 H   0  0  0  0  0  0  0  0  0  0  0  0
   -0.4437   11.1695   -5.3417 H   0  0  0  0  0  0  0  0  0  0  0  0
    0.6318    9.7308   -5.3417 H   0  0  0  0  0  0  0  0  0  0  0  0
    3.3439   12.4101   -4.0711 H   0  0  0  0  0  0  0  0  0  0  0  0
    3.1583    9.8548   -3.7941 H   0  0  0  0  0  0  0  0  0  0  0  0
    3.8209   10.9133   -2.4417 H   0  0  0  0  0  0  0  0  0  0  0  0
    2.1838    8.9800   -1.7140 H   0  0  0  0  0  0  0  0  0  0  0  0
   -0.2752   12.0723   -2.5468 H   0  0  0  0  0  0  0  0  0  0  0  0
    1.1162   12.8878    0.0789 H   0  0  0  0  0  0  0  0  0  0  0  0
   -0.1156   13.8522   -0.8503 H   0  0  0  0  0  0  0  0  0  0  0  0
   -1.0960   12.7391    1.1292 H   0  0  0  0  0  0  0  0  0  0  0  0
   -1.8030   12.1603   -0.4301 H   0  0  0  0  0  0  0  0  0  0  0  0
   -1.4370   10.2677    0.9985 H   0  0  0  0  0  0  0  0  0  0  0  0
    0.5090    9.9230    2.0050 H   0  0  0  0  0  0  0  0  0  0  0  0
   -2.2623    9.4147   -0.8812 H   0  0  0  0  0  0  0  0  0  0  0  0
   -1.6022   10.4777   -2.1699 H   0  0  0  0  0  0  0  0  0  0  0  0
   -1.2198    8.7226   -2.1699 H   0  0  0  0  0  0  0  0  0  0  0  0
    0.3351    8.4926    0.9490 H   0  0  0  0  0  0  0  0  0  0  0  0
   -0.3435    7.7088   -0.5178 H   0  0  0  0  0  0  0  0  0  0  0  0
    1.3535    8.2977   -0.5178 H   0  0  0  0  0  0  0  0  0  0  0  0
    2.4894   13.2878   -0.7433 H   0  0  0  0  0  0  0  0  0  0  0  0
    3.7435   12.9536   -1.9851 H   0  0  0  0  0  0  0  0  0  0  0  0
    2.8761   14.5266   -1.9851 H   0  0  0  0  0  0  0  0  0  0  0  0
    0.2217   14.4511   -2.8081 H   0  0  0  0  0  0  0  0  0  0  0  0
    1.8346   14.7715   -3.6630 H   0  0  0  0  0  0  0  0  0  0  0  0
   -0.5263   13.1819   -4.7046 H   0  0  0  0  0  0  0  0  0  0  0  0
    0.1416   14.7449   -5.3195 H   0  0  0  0  0  0  0  0  0  0  0  0
    3.0255   14.2462   -5.0160 H   0  0  0  0  0  0  0  0  0  0  0  0
    3.3661   13.3820   -6.5534 H   0  0  0  0  0  0  0  0  0  0  0  0
    2.3025   14.8295   -6.5534 H   0  0  0  0  0  0  0  0  0  0  0  0
  1  2  1  0
  2  3  1  0
  3  4  1  0
  4  5  1  0
  5  6  1  0
  6  7  1  0
  7  8  1  0
  7  9  1  0
  2 10  1  0
 10 11  1  0
 11 12  1  0
 12 13  1  0
 13 14  1  1
 13 15  1  0
 15 16  1  0
 16 17  1  0
 17 18  2  0
 18 19  1  0
 19 20  1  0
 20 21  1  0
 21 22  1  0
 22 23  1  0
 22 24  1  0
 24 25  1  0
 24 26  1  0
 19 27  1  0
 27 28  1  1
 27 29  1  0
 29 30  1  0
 30 31  1  0
 31 32  1  6
  7  5  1  0
 31 10  1  0
 31 13  1  0
 27 15  1  0
 24 18  1  0
  1 33  1  0
  1 34  1  0
  1 35  1  0
  2 36  1  6
  3 37  1  0
  3 38  1  0
  4 39  1  0
  4 40  1  0
  5 41  1  6
  8 42  1  0
  8 43  1  0
  8 44  1  0
  9 45  1  0
  9 46  1  0
  9 47  1  0
 10 48  1  1
 11 49  1  0
 11 50  1  0
 12 51  1  0
 12 52  1  0
 14 53  1  0
 14 54  1  0
 14 55  1  0
 15 56  1  6
 16 57  1  0
 16 58  1  0
 17 59  1  0
 19 60  1  6
 20 61  1  0
 20 62  1  0
 21 63  1  0
 21 64  1  0
 22 65  1  1
 23 66  1  0
 25 67  1  0
 25 68  1  0
 25 69  1  0
 26 70  1  0
 26 71  1  0
 26 72  1  0
 28 73  1  0
 28 74  1  0
 28 75  1  0
 29 76  1  0
 29 77  1  0
 30 78  1  0
 30 79  1  0
 32 80  1  0
 32 81  1  0
 32 82  1  0
M  END
>  <meeko>  (5) 
{"is_sidechain": [false], "intermolecular_energy": 2.731, "internal_energy": -0.839}

$$$$
EPH_relaxed_0001_pdb2pqr_Repair_115_r2_0001_out
     RDKit          3D

 82 86  0  0  0  0  0  0  0  0999 V2000
    3.3490   11.3900   -5.4190 C   0  0  0  0  0  0  0  0  0  0  0  0
    1.8460   11.1960   -5.2050 C   0  0  2  0  0  0  0  0  0  0  0  0
    1.0990   10.9410   -6.5290 C   0  0  0  0  0  0  0  0  0  0  0  0
    1.6090   11.7900   -7.6970 C   0  0  0  0  0  0  0  0  0  0  0  0
    0.6450   12.8810   -8.0510 C   0  0  2  0  0  0  0  0  0  0  0  0
    0.4650   13.0870   -9.4590 O   0  0  0  0  0  0  0  0  0  0  0  0
    1.0580   14.1740   -8.7300 C   0  0  0  0  0  0  0  0  0  0  0  0
    2.4850   14.4430   -9.0930 C   0  0  0  0  0  0  0  0  0  0  0  0
    0.1660   15.3690   -8.5970 C   0  0  0  0  0  0  0  0  0  0  0  0
    1.2590   12.4150   -4.5020 C   0  0  1  0  0  0  0  0  0  0  0  0
   -0.2850   12.3400   -4.3640 C   0  0  0  0  0  0  0  0  0  0  0  0
   -0.6470   13.0100   -3.0140 C   0  0  0  0  0  0  0  0  0  0  0  0
    0.6480   13.7370   -2.5800 C   0  0  1  0  0  0  0  0  0  0  0  0
    0.6470   15.0730   -3.3880 C   0  0  0  0  0  0  0  0  0  0  0  0
    0.8180   13.9900   -1.0470 C   0  0  2  0  0  0  0  0  0  0  0  0
   -0.2490   14.8990   -0.4130 C   0  0  0  0  0  0  0  0  0  0  0  0
    0.0780   16.3550   -0.4040 C   0  0  0  0  0  0  0  0  0  0  0  0
    1.2960   16.8850   -0.6230 C   0  0  0  0  0  0  0  0  0  0  0  0
    2.5230   15.9850   -0.8160 C   0  0  1  0  0  0  0  0  0  0  0  0
    3.6960   16.5170    0.0480 C   0  0  0  0  0  0  0  0  0  0  0  0
    4.0030   17.9860   -0.2230 C   0  0  0  0  0  0  0  0  0  0  0  0
    2.7750   18.8560    0.0360 C   0  0  2  0  0  0  0  0  0  0  0  0
    2.4780   18.8280    1.4360 O   0  0  0  0  0  0  0  0  0  0  0  0
    1.5260   18.4090   -0.7730 C   0  0  0  0  0  0  0  0  0  0  0  0
    1.7380   18.7230   -2.2740 C   0  0  0  0  0  0  0  0  0  0  0  0
    0.3240   19.2780   -0.3140 C   0  0  0  0  0  0  0  0  0  0  0  0
    2.2770   14.4270   -0.6200 C   0  0  1  0  0  0  0  0  0  0  0  0
    2.4330   14.0490    0.8850 C   0  0  0  0  0  0  0  0  0  0  0  0
    3.3920   13.6290   -1.3950 C   0  0  0  0  0  0  0  0  0  0  0  0
    3.1130   13.3060   -2.8750 C   0  0  0  0  0  0  0  0  0  0  0  0
    1.7220   12.6890   -3.0490 C   0  0  2  0  0  0  0  0  0  0  0  0
    1.6990   11.3320   -2.2660 C   0  0  0  0  0  0  0  0  0  0  0  0
    3.8529   11.4550   -4.4434 H   0  0  0  0  0  0  0  0  0  0  0  0
    3.7521   10.5364   -5.9837 H   0  0  0  0  0  0  0  0  0  0  0  0
    3.5222   12.3180   -5.9837 H   0  0  0  0  0  0  0  0  0  0  0  0
    1.7142   10.3042   -4.5747 H   0  0  0  0  0  0  0  0  0  0  0  0
    1.2150    9.8798   -6.7944 H   0  0  0  0  0  0  0  0  0  0  0  0
    0.0478   11.2198   -6.3639 H   0  0  0  0  0  0  0  0  0  0  0  0
    2.5715   12.2421   -7.4156 H   0  0  0  0  0  0  0  0  0  0  0  0
    1.7226   11.1349   -8.5733 H   0  0  0  0  0  0  0  0  0  0  0  0
    0.0479   12.6789   -7.1495 H   0  0  0  0  0  0  0  0  0  0  0  0
    3.0817   14.5555   -8.1758 H   0  0  0  0  0  0  0  0  0  0  0  0
    2.8774   13.6030   -9.6850 H   0  0  0  0  0  0  0  0  0  0  0  0
    2.5446   15.3682   -9.6850 H   0  0  0  0  0  0  0  0  0  0  0  0
    0.0026   15.5878   -7.5314 H   0  0  0  0  0  0  0  0  0  0  0  0
    0.6397   16.2358   -9.0809 H   0  0  0  0  0  0  0  0  0  0  0  0
   -0.7998   15.1613   -9.0809 H   0  0  0  0  0  0  0  0  0  0  0  0
    1.6265   13.2077   -5.1702 H   0  0  0  0  0  0  0  0  0  0  0  0
   -0.7660   12.8775   -5.1945 H   0  0  0  0  0  0  0  0  0  0  0  0
   -0.6337   11.2971   -4.3931 H   0  0  0  0  0  0  0  0  0  0  0  0
   -1.4701   13.7278   -3.1450 H   0  0  0  0  0  0  0  0  0  0  0  0
   -0.9875   12.2807   -2.2642 H   0  0  0  0  0  0  0  0  0  0  0  0
    0.6464   15.9234   -2.6903 H   0  0  0  0  0  0  0  0  0  0  0  0
    1.5451   15.1191   -4.0215 H   0  0  0  0  0  0  0  0  0  0  0  0
   -0.2512   15.1177   -4.0215 H   0  0  0  0  0  0  0  0  0  0  0  0
    0.6477   12.9893   -0.6231 H   0  0  0  0  0  0  0  0  0  0  0  0
   -1.1863   14.7646   -0.9728 H   0  0  0  0  0  0  0  0  0  0  0  0
   -0.3189   14.5962    0.6422 H   0  0  0  0  0  0  0  0  0  0  0  0
   -0.7462   17.0547   -0.2012 H   0  0  0  0  0  0  0  0  0  0  0  0
    2.7854   16.0517   -1.8822 H   0  0  0  0  0  0  0  0  0  0  0  0
    3.4323   16.4020    1.1097 H   0  0  0  0  0  0  0  0  0  0  0  0
    4.5926   15.9352   -0.2119 H   0  0  0  0  0  0  0  0  0  0  0  0
    4.8204   18.3109    0.4375 H   0  0  0  0  0  0  0  0  0  0  0  0
    4.2950   18.0953   -1.2779 H   0  0  0  0  0  0  0  0  0  0  0  0
    3.0159   19.8758   -0.2986 H   0  0  0  0  0  0  0  0  0  0  0  0
    1.8600   18.0930    1.5900 H   0  0  0  0  0  0  0  0  0  0  0  0
    2.3509   19.6308   -2.3757 H   0  0  0  0  0  0  0  0  0  0  0  0
    2.2512   17.8781   -2.7564 H   0  0  0  0  0  0  0  0  0  0  0  0
    0.7625   18.8832   -2.7564 H   0  0  0  0  0  0  0  0  0  0  0  0
    0.2886   19.3036    0.7851 H   0  0  0  0  0  0  0  0  0  0  0  0
    0.4421   20.3009   -0.7010 H   0  0  0  0  0  0  0  0  0  0  0  0
   -0.6103   18.8452   -0.7010 H   0  0  0  0  0  0  0  0  0  0  0  0
    2.0879   14.8852    1.5108 H   0  0  0  0  0  0  0  0  0  0  0  0
    1.8304   13.1549    1.1029 H   0  0  0  0  0  0  0  0  0  0  0  0
    3.4908   13.8402    1.1029 H   0  0  0  0  0  0  0  0  0  0  0  0
    4.3168   14.2231   -1.3526 H   0  0  0  0  0  0  0  0  0  0  0  0
    3.4485   12.6520   -0.8928 H   0  0  0  0  0  0  0  0  0  0  0  0
    3.1711   14.2339   -3.4629 H   0  0  0  0  0  0  0  0  0  0  0  0
    3.8639   12.5816   -3.2234 H   0  0  0  0  0  0  0  0  0  0  0  0
    1.7024   11.5326   -1.1845 H   0  0  0  0  0  0  0  0  0  0  0  0
    0.7912   10.7706   -2.5319 H   0  0  0  0  0  0  0  0  0  0  0  0
    2.5872   10.7401   -2.5319 H   0  0  0  0  0  0  0  0  0  0  0  0
  1  2  1  0
  2  3  1  0
  3  4  1  0
  4  5  1  0
  5  6  1  0
  6  7  1  0
  7  8  1  0
  7  9  1  0
  2 10  1  0
 10 11  1  0
 11 12  1  0
 12 13  1  0
 13 14  1  6
 13 15  1  0
 15 16  1  0
 16 17  1  0
 17 18  2  0
 18 19  1  0
 19 20  1  0
 20 21  1  0
 21 22  1  0
 22 23  1  0
 22 24  1  0
 24 25  1  0
 24 26  1  0
 19 27  1  0
 27 28  1  1
 27 29  1  0
 29 30  1  0
 30 31  1  0
 31 32  1  1
  7  5  1  0
 31 10  1  0
 31 13  1  0
 27 15  1  0
 24 18  1  0
  1 33  1  0
  1 34  1  0
  1 35  1  0
  2 36  1  1
  3 37  1  0
  3 38  1  0
  4 39  1  0
  4 40  1  0
  5 41  1  1
  8 42  1  0
  8 43  1  0
  8 44  1  0
  9 45  1  0
  9 46  1  0
  9 47  1  0
 10 48  1  6
 11 49  1  0
 11 50  1  0
 12 51  1  0
 12 52  1  0
 14 53  1  0
 14 54  1  0
 14 55  1  0
 15 56  1  1
 16 57  1  0
 16 58  1  0
 17 59  1  0
 19 60  1  6
 20 61  1  0
 20 62  1  0
 21 63  1  0
 21 64  1  0
 22 65  1  6
 23 66  1  0
 25 67  1  0
 25 68  1  0
 25 69  1  0
 26 70  1  0
 26 71  1  0
 26 72  1  0
 28 73  1  0
 28 74  1  0
 28 75  1  0
 29 76  1  0
 29 77  1  0
 30 78  1  0
 30 79  1  0
 32 80  1  0
 32 81  1  0
 32 82  1  0
M  END
>  <meeko>  (6) 
{"is_sidechain": [false], "intermolecular_energy": 2.731, "internal_energy": -0.839}

$$$$
EPH_relaxed_0001_pdb2pqr_Repair_115_r2_0001_out
     RDKit          3D

 82 86  0  0  0  0  0  0  0  0999 V2000
    0.8890   12.7010   -9.0920 C   0  0  0  0  0  0  0  0  0  0  0  0
    0.2610   13.2540   -7.8090 C   0  0  2  0  0  0  0  0  0  0  0  0
    0.7530   14.6800   -7.4900 C   0  0  0  0  0  0  0  0  0  0  0  0
    0.6460   15.6470   -8.6720 C   0  0  0  0  0  0  0  0  0  0  0  0
    1.9360   15.7420   -9.4300 C   0  0  2  0  0  0  0  0  0  0  0  0
    1.9030   16.6240  -10.5600 O   0  0  0  0  0  0  0  0  0  0  0  0
    2.1130   15.2320  -10.8480 C   0  0  0  0  0  0  0  0  0  0  0  0
    0.9850   14.5890  -11.5920 C   0  0  0  0  0  0  0  0  0  0  0  0
    3.4950   14.9180  -11.3280 C   0  0  0  0  0  0  0  0  0  0  0  0
    0.5640   12.3250   -6.6400 C   0  0  1  0  0  0  0  0  0  0  0  0
    1.6290   11.2510   -6.9900 C   0  0  0  0  0  0  0  0  0  0  0  0
    2.4620   11.0120   -5.7040 C   0  0  0  0  0  0  0  0  0  0  0  0
    1.6500   11.6980   -4.5800 C   0  0  1  0  0  0  0  0  0  0  0  0
    0.5390   10.6690   -4.2030 C   0  0  0  0  0  0  0  0  0  0  0  0
    2.4600   12.1580   -3.3250 C   0  0  2  0  0  0  0  0  0  0  0  0
    3.1430   11.0260   -2.5380 C   0  0  0  0  0  0  0  0  0  0  0  0
    2.3240   10.4280   -1.4420 C   0  0  0  0  0  0  0  0  0  0  0  0
    1.2090   10.9670   -0.9150 C   0  0  0  0  0  0  0  0  0  0  0  0
    0.7190   12.3510   -1.3580 C   0  0  1  0  0  0  0  0  0  0  0  0
    0.3510   13.1940   -0.1080 C   0  0  0  0  0  0  0  0  0  0  0  0
   -0.6470   12.4850    0.8020 C   0  0  0  0  0  0  0  0  0  0  0  0
   -0.0990   11.1390    1.2680 C   0  0  2  0  0  0  0  0  0  0  0  0
    1.0270   11.3690    2.1200 O   0  0  0  0  0  0  0  0  0  0  0  0
    0.3140   10.2070    0.0950 C   0  0  0  0  0  0  0  0  0  0  0  0
   -0.9510    9.7150   -0.6500 C   0  0  0  0  0  0  0  0  0  0  0  0
    0.9800    8.9420    0.7020 C   0  0  0  0  0  0  0  0  0  0  0  0
    1.6680   13.1340   -2.3640 C   0  0  1  0  0  0  0  0  0  0  0  0
    2.7390   13.9400   -1.5670 C   0  0  0  0  0  0  0  0  0  0  0  0
    0.8150   14.1930   -3.1580 C   0  0  0  0  0  0  0  0  0  0  0  0
    0.1360   13.7080   -4.4530 C   0  0  0  0  0  0  0  0  0  0  0  0
    1.1330   12.9670   -5.3500 C   0  0  2  0  0  0  0  0  0  0  0  0
    2.2510   13.9840   -5.7640 C   0  0  0  0  0  0  0  0  0  0  0  0
    1.6913   11.9946   -8.8326 H   0  0  0  0  0  0  0  0  0  0  0  0
    0.1198   12.1816   -9.6824 H   0  0  0  0  0  0  0  0  0  0  0  0
    1.3069   13.5297   -9.6824 H   0  0  0  0  0  0  0  0  0  0  0  0
   -0.8260   13.3078   -7.9689 H   0  0  0  0  0  0  0  0  0  0  0  0
    0.1502   15.0778   -6.6603 H   0  0  0  0  0  0  0  0  0  0  0  0
    1.8200   14.6021   -7.2341 H   0  0  0  0  0  0  0  0  0  0  0  0
   -0.1419   15.2921   -9.3526 H   0  0  0  0  0  0  0  0  0  0  0  0
    0.4062   16.6454   -8.2773 H   0  0  0  0  0  0  0  0  0  0  0  0
    2.5159   15.5789   -8.5096 H   0  0  0  0  0  0  0  0  0  0  0  0
    0.2607   14.1761  -10.8745 H   0  0  0  0  0  0  0  0  0  0  0  0
    0.4878   15.3394  -12.2242 H   0  0  0  0  0  0  0  0  0  0  0  0
    1.3774   13.7788  -12.2242 H   0  0  0  0  0  0  0  0  0  0  0  0
    4.1581   14.7673  -10.4633 H   0  0  0  0  0  0  0  0  0  0  0  0
    3.4725   14.0021  -11.9368 H   0  0  0  0  0  0  0  0  0  0  0  0
    3.8704   15.7537  -11.9368 H   0  0  0  0  0  0  0  0  0  0  0  0
   -0.4459   11.9322   -6.4509 H   0  0  0  0  0  0  0  0  0  0  0  0
    1.1375   10.3177   -7.3020 H   0  0  0  0  0  0  0  0  0  0  0  0
    2.2696   11.5853   -7.8194 H   0  0  0  0  0  0  0  0  0  0  0  0
    2.5683    9.9354   -5.5047 H   0  0  0  0  0  0  0  0  0  0  0  0
    3.4822   11.4148   -5.7870 H   0  0  0  0  0  0  0  0  0  0  0  0
    0.4618   10.5975   -3.1080 H   0  0  0  0  0  0  0  0  0  0  0  0
   -0.4243   11.0010   -4.6176 H   0  0  0  0  0  0  0  0  0  0  0  0
    0.7964    9.6832   -4.6176 H   0  0  0  0  0  0  0  0  0  0  0  0
    3.2757   12.7443   -3.7732 H   0  0  0  0  0  0  0  0  0  0  0  0
    3.3987   10.2250   -3.2472 H   0  0  0  0  0  0  0  0  0  0  0  0
    4.0192   11.4790   -2.0511 H   0  0  0  0  0  0  0  0  0  0  0  0
    2.6606    9.4651   -1.0303 H   0  0  0  0  0  0  0  0  0  0  0  0
   -0.1793   12.1747   -1.9678 H   0  0  0  0  0  0  0  0  0  0  0  0
    1.2686   13.3955    0.4642 H   0  0  0  0  0  0  0  0  0  0  0  0
   -0.1194   14.1243   -0.4591 H   0  0  0  0  0  0  0  0  0  0  0  0
   -0.8451   13.1167    1.6805 H   0  0  0  0  0  0  0  0  0  0  0  0
   -1.5746   12.3101    0.2372 H   0  0  0  0  0  0  0  0  0  0  0  0
   -0.9064   10.6234    1.8087 H   0  0  0  0  0  0  0  0  0  0  0  0
    1.0960   12.3280    2.2640 H   0  0  0  0  0  0  0  0  0  0  0  0
   -1.7156    9.4176    0.0827 H   0  0  0  0  0  0  0  0  0  0  0  0
   -1.3436   10.5260   -1.2810 H   0  0  0  0  0  0  0  0  0  0  0  0
   -0.6925    8.8519   -1.2810 H   0  0  0  0  0  0  0  0  0  0  0  0
    0.9484    9.0020    1.7999 H   0  0  0  0  0  0  0  0  0  0  0  0
    0.4369    8.0456    0.3680 H   0  0  0  0  0  0  0  0  0  0  0  0
    2.0264    8.8824    0.3680 H   0  0  0  0  0  0  0  0  0  0  0  0
    2.5673   13.8108   -0.4882 H   0  0  0  0  0  0  0  0  0  0  0  0
    3.7426   13.5712   -1.8253 H   0  0  0  0  0  0  0  0  0  0  0  0
    2.6625   15.0065   -1.8253 H   0  0  0  0  0  0  0  0  0  0  0  0
    0.0252   14.5568   -2.4843 H   0  0  0  0  0  0  0  0  0  0  0  0
    1.5352   14.9594   -3.4803 H   0  0  0  0  0  0  0  0  0  0  0  0
   -0.6892   13.0284   -4.1940 H   0  0  0  0  0  0  0  0  0  0  0  0
   -0.2439   14.5839   -4.9993 H   0  0  0  0  0  0  0  0  0  0  0  0
    2.7153   14.4063   -4.8606 H   0  0  0  0  0  0  0  0  0  0  0  0
    3.0156   13.4654   -6.3610 H   0  0  0  0  0  0  0  0  0  0  0  0
    1.8069   14.7942   -6.3610 H   0  0  0  0  0  0  0  0  0  0  0  0
  1  2  1  0
  2  3  1  0
  3  4  1  0
  4  5  1  0
  5  6  1  0
  6  7  1  0
  7  8  1  0
  7  9  1  0
  2 10  1  0
 10 11  1  0
 11 12  1  0
 12 13  1  0
 13 14  1  1
 13 15  1  0
 15 16  1  0
 16 17  1  0
 17 18  2  0
 18 19  1  0
 19 20  1  0
 20 21  1  0
 21 22  1  0
 22 23  1  0
 22 24  1  0
 24 25  1  0
 24 26  1  0
 19 27  1  0
 27 28  1  1
 27 29  1  0
 29 30  1  0
 30 31  1  0
 31 32  1  6
  7  5  1  0
 31 10  1  0
 31 13  1  0
 27 15  1  0
 24 18  1  0
  1 33  1  0
  1 34  1  0
  1 35  1  0
  2 36  1  6
  3 37  1  0
  3 38  1  0
  4 39  1  0
  4 40  1  0
  5 41  1  1
  8 42  1  0
  8 43  1  0
  8 44  1  0
  9 45  1  0
  9 46  1  0
  9 47  1  0
 10 48  1  1
 11 49  1  0
 11 50  1  0
 12 51  1  0
 12 52  1  0
 14 53  1  0
 14 54  1  0
 14 55  1  0
 15 56  1  6
 16 57  1  0
 16 58  1  0
 17 59  1  0
 19 60  1  6
 20 61  1  0
 20 62  1  0
 21 63  1  0
 21 64  1  0
 22 65  1  1
 23 66  1  0
 25 67  1  0
 25 68  1  0
 25 69  1  0
 26 70  1  0
 26 71  1  0
 26 72  1  0
 28 73  1  0
 28 74  1  0
 28 75  1  0
 29 76  1  0
 29 77  1  0
 30 78  1  0
 30 79  1  0
 32 80  1  0
 32 81  1  0
 32 82  1  0
M  END
>  <meeko>  (7) 
{"is_sidechain": [false], "intermolecular_energy": 2.731, "internal_energy": -0.839}

$$$$
EPH_relaxed_0001_pdb2pqr_Repair_115_r2_0001_out
     RDKit          3D

 82 86  0  0  0  0  0  0  0  0999 V2000
   -5.2900    5.7500   -1.6040 C   0  0  0  0  0  0  0  0  0  0  0  0
   -5.5030    7.2510   -1.8220 C   0  0  2  0  0  0  0  0  0  0  0  0
   -5.2040    8.0710   -0.5510 C   0  0  0  0  0  0  0  0  0  0  0  0
   -4.2030    9.2070   -0.7740 C   0  0  0  0  0  0  0  0  0  0  0  0
   -2.8270    8.8320   -0.3130 C   0  0  2  0  0  0  0  0  0  0  0  0
   -2.3190    9.6260    0.7670 O   0  0  0  0  0  0  0  0  0  0  0  0
   -1.6150    9.7290   -0.4810 C   0  0  0  0  0  0  0  0  0  0  0  0
   -1.7230   11.0730   -1.1310 C   0  0  0  0  0  0  0  0  0  0  0  0
   -0.2540    9.1060   -0.4580 C   0  0  0  0  0  0  0  0  0  0  0  0
   -6.9320    7.5110   -2.2860 C   0  0  1  0  0  0  0  0  0  0  0  0
   -7.2580    6.8170   -3.6350 C   0  0  0  0  0  0  0  0  0  0  0  0
   -8.7440    6.3810   -3.5670 C   0  0  0  0  0  0  0  0  0  0  0  0
   -9.3110    7.1230   -2.3340 C   0  0  1  0  0  0  0  0  0  0  0  0
   -9.6270    8.5640   -2.8430 C   0  0  0  0  0  0  0  0  0  0  0  0
  -10.5530    6.4690   -1.6460 C   0  0  2  0  0  0  0  0  0  0  0  0
  -11.8110    6.3710   -2.5260 C   0  0  0  0  0  0  0  0  0  0  0  0
  -12.7360    7.5400   -2.4500 C   0  0  0  0  0  0  0  0  0  0  0  0
  -12.7150    8.4930   -1.5000 C   0  0  0  0  0  0  0  0  0  0  0  0
  -11.7520    8.3970   -0.3090 C   0  0  1  0  0  0  0  0  0  0  0  0
  -12.5190    8.7020    1.0040 C   0  0  0  0  0  0  0  0  0  0  0  0
  -13.2560   10.0370    0.9550 C   0  0  0  0  0  0  0  0  0  0  0  0
  -14.2460   10.0720   -0.2060 C   0  0  2  0  0  0  0  0  0  0  0  0
  -15.2870    9.1240    0.0480 O   0  0  0  0  0  0  0  0  0  0  0  0
  -13.5880    9.7690   -1.5820 C   0  0  0  0  0  0  0  0  0  0  0  0
  -12.6800   10.9530   -1.9960 C   0  0  0  0  0  0  0  0  0  0  0  0
  -14.7170    9.6950   -2.6450 C   0  0  0  0  0  0  0  0  0  0  0  0
  -10.8920    7.0640   -0.2190 C   0  0  1  0  0  0  0  0  0  0  0  0
  -11.6940    5.9650    0.5430 C   0  0  0  0  0  0  0  0  0  0  0  0
   -9.5990    7.3430    0.6350 C   0  0  0  0  0  0  0  0  0  0  0  0
   -8.3680    7.8750   -0.1220 C   0  0  0  0  0  0  0  0  0  0  0  0
   -8.0780    7.0260   -1.3630 C   0  0  2  0  0  0  0  0  0  0  0  0
   -7.7350    5.5750   -0.8810 C   0  0  0  0  0  0  0  0  0  0  0  0
   -5.2597    5.5368   -0.5253 H   0  0  0  0  0  0  0  0  0  0  0  0
   -6.1179    5.1914   -2.0651 H   0  0  0  0  0  0  0  0  0  0  0  0
   -4.3394    5.4438   -2.0651 H   0  0  0  0  0  0  0  0  0  0  0  0
   -4.7949    7.5764   -2.5983 H   0  0  0  0  0  0  0  0  0  0  0  0
   -6.1471    8.5053   -0.1879 H   0  0  0  0  0  0  0  0  0  0  0  0
   -4.7518    7.3820    0.1775 H   0  0  0  0  0  0  0  0  0  0  0  0
   -4.1669    9.4447   -1.8474 H   0  0  0  0  0  0  0  0  0  0  0  0
   -4.5355   10.0769   -0.1885 H   0  0  0  0  0  0  0  0  0  0  0  0
   -3.0049    7.7765   -0.5665 H   0  0  0  0  0  0  0  0  0  0  0  0
   -1.7855   11.8511   -0.3560 H   0  0  0  0  0  0  0  0  0  0  0  0
   -0.8362   11.2497   -1.7573 H   0  0  0  0  0  0  0  0  0  0  0  0
   -2.6267   11.1058   -1.7573 H   0  0  0  0  0  0  0  0  0  0  0  0
    0.0649    8.9600    0.5846 H   0  0  0  0  0  0  0  0  0  0  0  0
   -0.2872    8.1334   -0.9709 H   0  0  0  0  0  0  0  0  0  0  0  0
    0.4604    9.7667   -0.9709 H   0  0  0  0  0  0  0  0  0  0  0  0
   -6.9171    8.6103   -2.3222 H   0  0  0  0  0  0  0  0  0  0  0  0
   -7.1072    7.5191   -4.4682 H   0  0  0  0  0  0  0  0  0  0  0  0
   -6.6001    5.9515   -3.8026 H   0  0  0  0  0  0  0  0  0  0  0  0
   -9.2789    6.6802   -4.4804 H   0  0  0  0  0  0  0  0  0  0  0  0
   -8.8557    5.2897   -3.4856 H   0  0  0  0  0  0  0  0  0  0  0  0
   -9.7737    9.2330   -1.9822 H   0  0  0  0  0  0  0  0  0  0  0  0
   -8.7877    8.9298   -3.4528 H   0  0  0  0  0  0  0  0  0  0  0  0
  -10.5423    8.5450   -3.4528 H   0  0  0  0  0  0  0  0  0  0  0  0
  -10.2165    5.4335   -1.4893 H   0  0  0  0  0  0  0  0  0  0  0  0
  -11.4866    6.2619   -3.5714 H   0  0  0  0  0  0  0  0  0  0  0  0
  -12.3796    5.5085   -2.1483 H   0  0  0  0  0  0  0  0  0  0  0  0
  -13.4993    7.6302   -3.2369 H   0  0  0  0  0  0  0  0  0  0  0  0
  -10.9826    9.1649   -0.4774 H   0  0  0  0  0  0  0  0  0  0  0  0
  -13.2522    7.9007    1.1782 H   0  0  0  0  0  0  0  0  0  0  0  0
  -11.7799    8.7585    1.8167 H   0  0  0  0  0  0  0  0  0  0  0  0
  -13.8027   10.1811    1.8986 H   0  0  0  0  0  0  0  0  0  0  0  0
  -12.5181   10.8400    0.8111 H   0  0  0  0  0  0  0  0  0  0  0  0
  -14.6459   11.0949   -0.2680 H   0  0  0  0  0  0  0  0  0  0  0  0
  -15.8630    9.1020   -0.7360 H   0  0  0  0  0  0  0  0  0  0  0  0
  -12.2963   11.4534   -1.0947 H   0  0  0  0  0  0  0  0  0  0  0  0
  -11.8367   10.5768   -2.5937 H   0  0  0  0  0  0  0  0  0  0  0  0
  -13.2621   11.6699   -2.5937 H   0  0  0  0  0  0  0  0  0  0  0  0
  -15.6923    9.6311   -2.1402 H   0  0  0  0  0  0  0  0  0  0  0  0
  -14.6881   10.5970   -3.2740 H   0  0  0  0  0  0  0  0  0  0  0  0
  -14.5706    8.8045   -3.2740 H   0  0  0  0  0  0  0  0  0  0  0  0
  -11.5838    6.1160    1.6270 H   0  0  0  0  0  0  0  0  0  0  0  0
  -12.7575    6.0313    0.2698 H   0  0  0  0  0  0  0  0  0  0  0  0
  -11.3064    4.9725    0.2698 H   0  0  0  0  0  0  0  0  0  0  0  0
   -9.8620    8.0836    1.4047 H   0  0  0  0  0  0  0  0  0  0  0  0
   -9.2944    6.3607    1.0252 H   0  0  0  0  0  0  0  0  0  0  0  0
   -8.5576    8.9131   -0.4326 H   0  0  0  0  0  0  0  0  0  0  0  0
   -7.4966    7.8262    0.5476 H   0  0  0  0  0  0  0  0  0  0  0  0
   -7.7281    5.5459    0.2186 H   0  0  0  0  0  0  0  0  0  0  0  0
   -8.4921    4.8736   -1.2616 H   0  0  0  0  0  0  0  0  0  0  0  0
   -6.7440    5.2869   -1.2616 H   0  0  0  0  0  0  0  0  0  0  0  0
  1  2  1  0
  2  3  1  0
  3  4  1  0
  4  5  1  0
  5  6  1  0
  6  7  1  0
  7  8  1  0
  7  9  1  0
  2 10  1  0
 10 11  1  0
 11 12  1  0
 12 13  1  0
 13 14  1  6
 13 15  1  0
 15 16  1  0
 16 17  1  0
 17 18  2  0
 18 19  1  0
 19 20  1  0
 20 21  1  0
 21 22  1  0
 22 23  1  0
 22 24  1  0
 24 25  1  0
 24 26  1  0
 19 27  1  0
 27 28  1  1
 27 29  1  0
 29 30  1  0
 30 31  1  0
 31 32  1  1
  7  5  1  0
 31 10  1  0
 31 13  1  0
 27 15  1  0
 24 18  1  0
  1 33  1  0
  1 34  1  0
  1 35  1  0
  2 36  1  6
  3 37  1  0
  3 38  1  0
  4 39  1  0
  4 40  1  0
  5 41  1  1
  8 42  1  0
  8 43  1  0
  8 44  1  0
  9 45  1  0
  9 46  1  0
  9 47  1  0
 10 48  1  6
 11 49  1  0
 11 50  1  0
 12 51  1  0
 12 52  1  0
 14 53  1  0
 14 54  1  0
 14 55  1  0
 15 56  1  1
 16 57  1  0
 16 58  1  0
 17 59  1  0
 19 60  1  6
 20 61  1  0
 20 62  1  0
 21 63  1  0
 21 64  1  0
 22 65  1  6
 23 66  1  0
 25 67  1  0
 25 68  1  0
 25 69  1  0
 26 70  1  0
 26 71  1  0
 26 72  1  0
 28 73  1  0
 28 74  1  0
 28 75  1  0
 29 76  1  0
 29 77  1  0
 30 78  1  0
 30 79  1  0
 32 80  1  0
 32 81  1  0
 32 82  1  0
M  END
>  <meeko>  (8) 
{"is_sidechain": [false], "intermolecular_energy": 2.731, "internal_energy": -0.839}

$$$$
EPH_relaxed_0001_pdb2pqr_Repair_115_r2_0001_out
     RDKit          3D

 82 86  0  0  0  0  0  0  0  0999 V2000
    0.3980    8.8400   -2.3840 C   0  0  0  0  0  0  0  0  0  0  0  0
    1.1510    9.9860   -3.0660 C   0  0  2  0  0  0  0  0  0  0  0  0
    2.6480    9.9970   -2.6980 C   0  0  0  0  0  0  0  0  0  0  0  0
    3.5540   10.5060   -3.8230 C   0  0  0  0  0  0  0  0  0  0  0  0
    4.9430   10.7860   -3.3320 C   0  0  2  0  0  0  0  0  0  0  0  0
    5.5080   12.0160   -3.8040 O   0  0  0  0  0  0  0  0  0  0  0  0
    6.1600   10.8110   -4.2370 C   0  0  0  0  0  0  0  0  0  0  0  0
    6.0460   10.5520   -5.7060 C   0  0  0  0  0  0  0  0  0  0  0  0
    7.5110   10.6040   -3.6250 C   0  0  0  0  0  0  0  0  0  0  0  0
    0.5130   11.3200   -2.6940 C   0  0  1  0  0  0  0  0  0  0  0  0
   -0.8500   11.1500   -1.9730 C   0  0  0  0  0  0  0  0  0  0  0  0
   -0.9520   12.2950   -0.9320 C   0  0  0  0  0  0  0  0  0  0  0  0
    0.1880   13.2690   -1.3120 C   0  0  1  0  0  0  0  0  0  0  0  0
   -0.3860   14.1190   -2.4890 C   0  0  0  0  0  0  0  0  0  0  0  0
    0.7360   14.1740   -0.1600 C   0  0  2  0  0  0  0  0  0  0  0  0
   -0.2880   15.1500    0.4450 C   0  0  0  0  0  0  0  0  0  0  0  0
   -0.3480   16.4940   -0.2020 C   0  0  0  0  0  0  0  0  0  0  0  0
    0.5770   17.0020   -1.0370 C   0  0  0  0  0  0  0  0  0  0  0  0
    1.8760   16.2400   -1.3310 C   0  0  1  0  0  0  0  0  0  0  0  0
    3.0810   17.2120   -1.2270 C   0  0  0  0  0  0  0  0  0  0  0  0
    2.9150   18.4450   -2.1100 C   0  0  0  0  0  0  0  0  0  0  0  0
    1.6430   19.2080   -1.7490 C   0  0  2  0  0  0  0  0  0  0  0  0
    1.7900   19.7540   -0.4350 O   0  0  0  0  0  0  0  0  0  0  0  0
    0.3630   18.3270   -1.8090 C   0  0  0  0  0  0  0  0  0  0  0  0
    0.0360   17.9840   -3.2830 C   0  0  0  0  0  0  0  0  0  0  0  0
   -0.8260   19.1780   -1.2870 C   0  0  0  0  0  0  0  0  0  0  0  0
    2.0980   14.9030   -0.5010 C   0  0  1  0  0  0  0  0  0  0  0  0
    2.7810   15.2290    0.8620 C   0  0  0  0  0  0  0  0  0  0  0  0
    3.0950   13.9710   -1.2860 C   0  0  0  0  0  0  0  0  0  0  0  0
    2.4810   13.0140   -2.3260 C   0  0  0  0  0  0  0  0  0  0  0  0
    1.3010   12.2400   -1.7290 C   0  0  2  0  0  0  0  0  0  0  0  0
    1.8520   11.3590   -0.5560 C   0  0  0  0  0  0  0  0  0  0  0  0
    0.4713    8.9516   -1.2921 H   0  0  0  0  0  0  0  0  0  0  0  0
   -0.6597    8.8658   -2.6850 H   0  0  0  0  0  0  0  0  0  0  0  0
    0.8415    7.8794   -2.6850 H   0  0  0  0  0  0  0  0  0  0  0  0
    1.0796    9.8295   -4.1525 H   0  0  0  0  0  0  0  0  0  0  0  0
    2.7853   10.6462   -1.8207 H   0  0  0  0  0  0  0  0  0  0  0  0
    2.9379    8.9549   -2.4980 H   0  0  0  0  0  0  0  0  0  0  0  0
    3.6025    9.7435   -4.6144 H   0  0  0  0  0  0  0  0  0  0  0  0
    3.1298   11.4456   -4.2067 H   0  0  0  0  0  0  0  0  0  0  0  0
    4.7387   10.2660   -2.3844 H   0  0  0  0  0  0  0  0  0  0  0  0
    5.6078    9.5564   -5.8699 H   0  0  0  0  0  0  0  0  0  0  0  0
    5.4011   11.3164   -6.1641 H   0  0  0  0  0  0  0  0  0  0  0  0
    7.0452   10.5927   -6.1641 H   0  0  0  0  0  0  0  0  0  0  0  0
    7.4228   10.6175   -2.5286 H   0  0  0  0  0  0  0  0  0  0  0  0
    7.9152    9.6334   -3.9484 H   0  0  0  0  0  0  0  0  0  0  0  0
    8.1873   11.4090   -3.9484 H   0  0  0  0  0  0  0  0  0  0  0  0
    0.4556   11.7812   -3.6910 H   0  0  0  0  0  0  0  0  0  0  0  0
   -1.6738   11.2231   -2.6983 H   0  0  0  0  0  0  0  0  0  0  0  0
   -0.9188   10.1662   -1.4857 H   0  0  0  0  0  0  0  0  0  0  0  0
   -1.9292   12.7955   -0.9994 H   0  0  0  0  0  0  0  0  0  0  0  0
   -0.8615   11.9291    0.1014 H   0  0  0  0  0  0  0  0  0  0  0  0
   -0.9584   14.9666   -2.0841 H   0  0  0  0  0  0  0  0  0  0  0  0
    0.4423   14.4973   -3.1061 H   0  0  0  0  0  0  0  0  0  0  0  0
   -1.0464   13.4920   -3.1061 H   0  0  0  0  0  0  0  0  0  0  0  0
    0.9555   13.4424    0.6315 H   0  0  0  0  0  0  0  0  0  0  0  0
   -1.2840   14.6899    0.3656 H   0  0  0  0  0  0  0  0  0  0  0  0
    0.0351   15.3257    1.4817 H   0  0  0  0  0  0  0  0  0  0  0  0
   -1.2224   17.1223    0.0229 H   0  0  0  0  0  0  0  0  0  0  0  0
    1.7840   15.8680   -2.3621 H   0  0  0  0  0  0  0  0  0  0  0  0
    3.1820   17.5380   -0.1813 H   0  0  0  0  0  0  0  0  0  0  0  0
    3.9760   16.6728   -1.5708 H   0  0  0  0  0  0  0  0  0  0  0  0
    3.7830   19.1064   -1.9715 H   0  0  0  0  0  0  0  0  0  0  0  0
    2.8430   18.1189   -3.1581 H   0  0  0  0  0  0  0  0  0  0  0  0
    1.5118   20.0038   -2.4970 H   0  0  0  0  0  0  0  0  0  0  0  0
    2.7410   19.8770   -0.2720 H   0  0  0  0  0  0  0  0  0  0  0  0
   -0.7227   17.1882   -3.3146 H   0  0  0  0  0  0  0  0  0  0  0  0
   -0.3509   18.8798   -3.7908 H   0  0  0  0  0  0  0  0  0  0  0  0
    0.9493   17.6403   -3.7908 H   0  0  0  0  0  0  0  0  0  0  0  0
   -0.8233   19.1760   -0.1870 H   0  0  0  0  0  0  0  0  0  0  0  0
   -0.7259   20.2108   -1.6521 H   0  0  0  0  0  0  0  0  0  0  0  0
   -1.7713   18.7501   -1.6521 H   0  0  0  0  0  0  0  0  0  0  0  0
    2.1234   14.9151    1.6860 H   0  0  0  0  0  0  0  0  0  0  0  0
    3.7376   14.6904    0.9308 H   0  0  0  0  0  0  0  0  0  0  0  0
    2.9639   16.3115    0.9308 H   0  0  0  0  0  0  0  0  0  0  0  0
    3.8112   14.6189   -1.8125 H   0  0  0  0  0  0  0  0  0  0  0  0
    3.5394   13.3171   -0.5212 H   0  0  0  0  0  0  0  0  0  0  0  0
    2.1286   13.5982   -3.1889 H   0  0  0  0  0  0  0  0  0  0  0  0
    3.2515   12.2935   -2.6379 H   0  0  0  0  0  0  0  0  0  0  0  0
    1.5693   11.8110    0.4062 H   0  0  0  0  0  0  0  0  0  0  0  0
    1.4253   10.3475   -0.6254 H   0  0  0  0  0  0  0  0  0  0  0  0
    2.9482   11.3000   -0.6254 H   0  0  0  0  0  0  0  0  0  0  0  0
  1  2  1  0
  2  3  1  0
  3  4  1  0
  4  5  1  0
  5  6  1  0
  6  7  1  0
  7  8  1  0
  7  9  1  0
  2 10  1  0
 10 11  1  0
 11 12  1  0
 12 13  1  0
 13 14  1  6
 13 15  1  0
 15 16  1  0
 16 17  1  0
 17 18  2  0
 18 19  1  0
 19 20  1  0
 20 21  1  0
 21 22  1  0
 22 23  1  0
 22 24  1  0
 24 25  1  0
 24 26  1  0
 19 27  1  0
 27 28  1  1
 27 29  1  0
 29 30  1  0
 30 31  1  0
 31 32  1  1
  7  5  1  0
 31 10  1  0
 31 13  1  0
 27 15  1  0
 24 18  1  0
  1 33  1  0
  1 34  1  0
  1 35  1  0
  2 36  1  6
  3 37  1  0
  3 38  1  0
  4 39  1  0
  4 40  1  0
  5 41  1  1
  8 42  1  0
  8 43  1  0
  8 44  1  0
  9 45  1  0
  9 46  1  0
  9 47  1  0
 10 48  1  6
 11 49  1  0
 11 50  1  0
 12 51  1  0
 12 52  1  0
 14 53  1  0
 14 54  1  0
 14 55  1  0
 15 56  1  1
 16 57  1  0
 16 58  1  0
 17 59  1  0
 19 60  1  6
 20 61  1  0
 20 62  1  0
 21 63  1  0
 21 64  1  0
 22 65  1  6
 23 66  1  0
 25 67  1  0
 25 68  1  0
 25 69  1  0
 26 70  1  0
 26 71  1  0
 26 72  1  0
 28 73  1  0
 28 74  1  0
 28 75  1  0
 29 76  1  0
 29 77  1  0
 30 78  1  0
 30 79  1  0
 32 80  1  0
 32 81  1  0
 32 82  1  0
M  END
>  <meeko>  (9) 
{"is_sidechain": [false], "intermolecular_energy": 2.731, "internal_energy": -0.839}

$$$$
EPH_relaxed_0001_pdb2pqr_Repair_115_r2_0001_out
     RDKit          3D

 82 86  0  0  0  0  0  0  0  0999 V2000
    3.5830   14.8790   -8.0450 C   0  0  0  0  0  0  0  0  0  0  0  0
    2.0530   14.8870   -7.9850 C   0  0  2  0  0  0  0  0  0  0  0  0
    1.4500   16.1060   -8.7110 C   0  0  0  0  0  0  0  0  0  0  0  0
    1.5120   16.0060  -10.2380 C   0  0  0  0  0  0  0  0  0  0  0  0
    1.8750   14.6230  -10.6880 C   0  0  2  0  0  0  0  0  0  0  0  0
    1.0550   14.1040  -11.7430 O   0  0  0  0  0  0  0  0  0  0  0  0
    0.9800   13.4160  -10.4840 C   0  0  0  0  0  0  0  0  0  0  0  0
   -0.3480   13.5350   -9.8040 C   0  0  0  0  0  0  0  0  0  0  0  0
    1.6000   12.0540  -10.5030 C   0  0  0  0  0  0  0  0  0  0  0  0
    1.5900   14.8640   -6.5330 C   0  0  1  0  0  0  0  0  0  0  0  0
    0.2750   15.6570   -6.3130 C   0  0  0  0  0  0  0  0  0  0  0  0
   -0.5230   14.9050   -5.2170 C   0  0  0  0  0  0  0  0  0  0  0  0
    0.4920   13.9070   -4.6120 C   0  0  1  0  0  0  0  0  0  0  0  0
    1.3300   14.7500   -3.6000 C   0  0  0  0  0  0  0  0  0  0  0  0
   -0.1110   12.6310   -3.9390 C   0  0  2  0  0  0  0  0  0  0  0  0
   -1.0120   12.8990   -2.7210 C   0  0  0  0  0  0  0  0  0  0  0  0
   -0.3120   12.9210   -1.4020 C   0  0  0  0  0  0  0  0  0  0  0  0
    0.9280   12.4550   -1.1670 C   0  0  0  0  0  0  0  0  0  0  0  0
    1.7240   11.7450   -2.2700 C   0  0  1  0  0  0  0  0  0  0  0  0
    2.3560   10.4480   -1.6980 C   0  0  0  0  0  0  0  0  0  0  0  0
    3.1920   10.7050   -0.4490 C   0  0  0  0  0  0  0  0  0  0  0  0
    2.3510   11.3590    0.6450 C   0  0  2  0  0  0  0  0  0  0  0  0
    1.3640   10.4230    1.0890 O   0  0  0  0  0  0  0  0  0  0  0  0
    1.6570   12.6710    0.1820 C   0  0  0  0  0  0  0  0  0  0  0  0
    2.7190   13.7820   -0.0110 C   0  0  0  0  0  0  0  0  0  0  0  0
    0.7300   13.1510    1.3310 C   0  0  0  0  0  0  0  0  0  0  0  0
    0.9490   11.4960   -3.6340 C   0  0  1  0  0  0  0  0  0  0  0  0
    0.1570   10.1550   -3.5600 C   0  0  0  0  0  0  0  0  0  0  0  0
    1.9960   11.3280   -4.7980 C   0  0  0  0  0  0  0  0  0  0  0  0
    2.4640   12.6160   -5.5030 C   0  0  0  0  0  0  0  0  0  0  0  0
    1.2680   13.4820   -5.9110 C   0  0  2  0  0  0  0  0  0  0  0  0
    0.4180   12.6680   -6.9460 C   0  0  0  0  0  0  0  0  0  0  0  0
    3.9900   14.8769   -7.0231 H   0  0  0  0  0  0  0  0  0  0  0  0
    3.9244   13.9791   -8.5775 H   0  0  0  0  0  0  0  0  0  0  0  0
    3.9338   15.7753   -8.5775 H   0  0  0  0  0  0  0  0  0  0  0  0
    1.6966   13.9846   -8.5033 H   0  0  0  0  0  0  0  0  0  0  0  0
    0.3958   16.2019   -8.4118 H   0  0  0  0  0  0  0  0  0  0  0  0
    2.0498   16.9815   -8.4216 H   0  0  0  0  0  0  0  0  0  0  0  0
    0.5278   16.2692  -10.6529 H   0  0  0  0  0  0  0  0  0  0  0  0
    2.2882   16.6983  -10.5961 H   0  0  0  0  0  0  0  0  0  0  0  0
    2.9364   14.8009  -10.4603 H   0  0  0  0  0  0  0  0  0  0  0  0
   -0.2040   13.5221   -8.7135 H   0  0  0  0  0  0  0  0  0  0  0  0
   -0.8278   14.4797  -10.0993 H   0  0  0  0  0  0  0  0  0  0  0  0
   -0.9881   12.6906  -10.0993 H   0  0  0  0  0  0  0  0  0  0  0  0
    1.7574   11.7083   -9.4706 H   0  0  0  0  0  0  0  0  0  0  0  0
    0.9317   11.3542  -11.0262 H   0  0  0  0  0  0  0  0  0  0  0  0
    2.5666   12.0984  -11.0262 H   0  0  0  0  0  0  0  0  0  0  0  0
    2.4784   15.2962   -6.0493 H   0  0  0  0  0  0  0  0  0  0  0  0
    0.5013   16.6811   -5.9814 H   0  0  0  0  0  0  0  0  0  0  0  0
   -0.3045   15.7272   -7.2453 H   0  0  0  0  0  0  0  0  0  0  0  0
   -0.8837   15.6055   -4.4494 H   0  0  0  0  0  0  0  0  0  0  0  0
   -1.4138   14.4014   -5.6206 H   0  0  0  0  0  0  0  0  0  0  0  0
    1.0528   14.4712   -2.5726 H   0  0  0  0  0  0  0  0  0  0  0  0
    2.4008   14.5532   -3.7571 H   0  0  0  0  0  0  0  0  0  0  0  0
    1.1268   15.8196   -3.7571 H   0  0  0  0  0  0  0  0  0  0  0  0
   -0.7770   12.2438   -4.7242 H   0  0  0  0  0  0  0  0  0  0  0  0
   -1.4964   13.8760   -2.8650 H   0  0  0  0  0  0  0  0  0  0  0  0
   -1.7201   12.0585   -2.6756 H   0  0  0  0  0  0  0  0  0  0  0  0
   -0.8564   13.3550   -0.5504 H   0  0  0  0  0  0  0  0  0  0  0  0
    2.5166   12.4453   -2.5724 H   0  0  0  0  0  0  0  0  0  0  0  0
    1.5489    9.7453   -1.4434 H   0  0  0  0  0  0  0  0  0  0  0  0
    3.0249   10.0356   -2.4678 H   0  0  0  0  0  0  0  0  0  0  0  0
    3.5863    9.7481   -0.0764 H   0  0  0  0  0  0  0  0  0  0  0  0
    4.0164   11.3843   -0.7117 H   0  0  0  0  0  0  0  0  0  0  0  0
    3.0316   11.6364    1.4634 H   0  0  0  0  0  0  0  0  0  0  0  0
    1.4120    9.6460    0.5070 H   0  0  0  0  0  0  0  0  0  0  0  0
    3.0597   14.1384    0.9723 H   0  0  0  0  0  0  0  0  0  0  0  0
    3.5750   13.3777   -0.5712 H   0  0  0  0  0  0  0  0  0  0  0  0
    2.2765   14.6189   -0.5712 H   0  0  0  0  0  0  0  0  0  0  0  0
    1.1927   12.9114    2.2998 H   0  0  0  0  0  0  0  0  0  0  0  0
    0.5832   14.2384    1.2537 H   0  0  0  0  0  0  0  0  0  0  0  0
   -0.2428   12.6433    1.2537 H   0  0  0  0  0  0  0  0  0  0  0  0
   -0.0042    9.8820   -2.5067 H   0  0  0  0  0  0  0  0  0  0  0  0
   -0.8151   10.2752   -4.0606 H   0  0  0  0  0  0  0  0  0  0  0  0
    0.7316    9.3617   -4.0606 H   0  0  0  0  0  0  0  0  0  0  0  0
    2.8858   10.8370   -4.3770 H   0  0  0  0  0  0  0  0  0  0  0  0
    1.4735   10.7489   -5.5737 H   0  0  0  0  0  0  0  0  0  0  0  0
    3.1060   13.1887   -4.8176 H   0  0  0  0  0  0  0  0  0  0  0  0
    3.0214   12.3375   -6.4095 H   0  0  0  0  0  0  0  0  0  0  0  0
   -0.2755   12.0039   -6.4094 H   0  0  0  0  0  0  0  0  0  0  0  0
   -0.1547   13.3631   -7.5775 H   0  0  0  0  0  0  0  0  0  0  0  0
    1.0877   12.0657   -7.5775 H   0  0  0  0  0  0  0  0  0  0  0  0
  1  2  1  0
  2  3  1  0
  3  4  1  0
  4  5  1  0
  5  6  1  0
  6  7  1  0
  7  8  1  0
  7  9  1  0
  2 10  1  0
 10 11  1  0
 11 12  1  0
 12 13  1  0
 13 14  1  1
 13 15  1  0
 15 16  1  0
 16 17  1  0
 17 18  2  0
 18 19  1  0
 19 20  1  0
 20 21  1  0
 21 22  1  0
 22 23  1  0
 22 24  1  0
 24 25  1  0
 24 26  1  0
 19 27  1  0
 27 28  1  1
 27 29  1  0
 29 30  1  0
 30 31  1  0
 31 32  1  6
  7  5  1  0
 31 10  1  0
 31 13  1  0
 27 15  1  0
 24 18  1  0
  1 33  1  0
  1 34  1  0
  1 35  1  0
  2 36  1  6
  3 37  1  0
  3 38  1  0
  4 39  1  0
  4 40  1  0
  5 41  1  6
  8 42  1  0
  8 43  1  0
  8 44  1  0
  9 45  1  0
  9 46  1  0
  9 47  1  0
 10 48  1  1
 11 49  1  0
 11 50  1  0
 12 51  1  0
 12 52  1  0
 14 53  1  0
 14 54  1  0
 14 55  1  0
 15 56  1  6
 16 57  1  0
 16 58  1  0
 17 59  1  0
 19 60  1  6
 20 61  1  0
 20 62  1  0
 21 63  1  0
 21 64  1  0
 22 65  1  1
 23 66  1  0
 25 67  1  0
 25 68  1  0
 25 69  1  0
 26 70  1  0
 26 71  1  0
 26 72  1  0
 28 73  1  0
 28 74  1  0
 28 75  1  0
 29 76  1  0
 29 77  1  0
 30 78  1  0
 30 79  1  0
 32 80  1  0
 32 81  1  0
 32 82  1  0
M  END
>  <meeko>  (10) 
{"is_sidechain": [false], "intermolecular_energy": 2.731, "internal_energy": -0.839}

$$$$
EPH_relaxed_0001_pdb2pqr_Repair_115_r2_0001_out
     RDKit          3D

 82 86  0  0  0  0  0  0  0  0999 V2000
   -0.2480   15.2590   -7.5580 C   0  0  0  0  0  0  0  0  0  0  0  0
    1.2240   14.9510   -7.2740 C   0  0  2  0  0  0  0  0  0  0  0  0
    2.0370   14.7540   -8.5700 C   0  0  0  0  0  0  0  0  0  0  0  0
    1.2800   13.9930   -9.6610 C   0  0  0  0  0  0  0  0  0  0  0  0
    1.6690   12.5460   -9.6980 C   0  0  2  0  0  0  0  0  0  0  0  0
    0.7520   11.6970  -10.4020 O   0  0  0  0  0  0  0  0  0  0  0  0
    0.8890   11.4520   -8.9930 C   0  0  0  0  0  0  0  0  0  0  0  0
   -0.3420   11.7590   -8.1990 C   0  0  0  0  0  0  0  0  0  0  0  0
    1.5890   10.1680   -8.6700 C   0  0  0  0  0  0  0  0  0  0  0  0
    1.3360   13.7110   -6.3960 C   0  0  1  0  0  0  0  0  0  0  0  0
    2.7420   13.0570   -6.4600 C   0  0  0  0  0  0  0  0  0  0  0  0
    3.0360   12.4890   -5.0480 C   0  0  0  0  0  0  0  0  0  0  0  0
    1.6740   12.5360   -4.3170 C   0  0  1  0  0  0  0  0  0  0  0  0
    0.9110   11.2650   -4.8070 C   0  0  0  0  0  0  0  0  0  0  0  0
    1.7290   12.6100   -2.7560 C   0  0  2  0  0  0  0  0  0  0  0  0
    2.3830   11.3990   -2.0690 C   0  0  0  0  0  0  0  0  0  0  0  0
    1.4500   10.2920   -1.7030 C   0  0  0  0  0  0  0  0  0  0  0  0
    0.1080   10.3840   -1.6570 C   0  0  0  0  0  0  0  0  0  0  0  0
   -0.5990   11.7250   -1.8970 C   0  0  1  0  0  0  0  0  0  0  0  0
   -1.6800   11.9430   -0.8060 C   0  0  0  0  0  0  0  0  0  0  0  0
   -2.6590   10.7760   -0.7110 C   0  0  0  0  0  0  0  0  0  0  0  0
   -1.9250    9.4710   -0.4140 C   0  0  2  0  0  0  0  0  0  0  0  0
   -1.3650    9.5470    0.9000 O   0  0  0  0  0  0  0  0  0  0  0  0
   -0.8040    9.1510   -1.4420 C   0  0  0  0  0  0  0  0  0  0  0  0
   -1.4390    8.7730   -2.8030 C   0  0  0  0  0  0  0  0  0  0  0  0
   -0.0510    7.8860   -0.9490 C   0  0  0  0  0  0  0  0  0  0  0  0
    0.3510   12.9860   -2.0760 C   0  0  1  0  0  0  0  0  0  0  0  0
    0.6940   13.5960   -0.6820 C   0  0  0  0  0  0  0  0  0  0  0  0
   -0.4230   14.1040   -2.8700 C   0  0  0  0  0  0  0  0  0  0  0  0
   -0.3410   14.0460   -4.4080 C   0  0  0  0  0  0  0  0  0  0  0  0
    1.1100   13.8940   -4.8740 C   0  0  2  0  0  0  0  0  0  0  0  0
    1.8970   15.1680   -4.4140 C   0  0  0  0  0  0  0  0  0  0  0  0
   -0.7890   15.3722   -6.6070 H   0  0  0  0  0  0  0  0  0  0  0  0
   -0.3225   16.1922   -8.1356 H   0  0  0  0  0  0  0  0  0  0  0  0
   -0.6904   14.4340   -8.1356 H   0  0  0  0  0  0  0  0  0  0  0  0
    1.6474   15.8189   -6.7472 H   0  0  0  0  0  0  0  0  0  0  0  0
    2.3097   15.7446   -8.9629 H   0  0  0  0  0  0  0  0  0  0  0  0
    2.9179   14.1494   -8.3083 H   0  0  0  0  0  0  0  0  0  0  0  0
    0.2003   14.0671   -9.4639 H   0  0  0  0  0  0  0  0  0  0  0  0
    1.5347   14.4419  -10.6324 H   0  0  0  0  0  0  0  0  0  0  0  0
    2.7372   12.8087   -9.6969 H   0  0  0  0  0  0  0  0  0  0  0  0
   -0.1097   11.7011   -7.1254 H   0  0  0  0  0  0  0  0  0  0  0  0
   -0.6932   12.7722   -8.4440 H   0  0  0  0  0  0  0  0  0  0  0  0
   -1.1278   11.0293   -8.4440 H   0  0  0  0  0  0  0  0  0  0  0  0
    1.6533   10.0500   -7.5782 H   0  0  0  0  0  0  0  0  0  0  0  0
    1.0253    9.3255   -9.0973 H   0  0  0  0  0  0  0  0  0  0  0  0
    2.6025   10.1854   -9.0973 H   0  0  0  0  0  0  0  0  0  0  0  0
    0.5240   13.1071   -6.8273 H   0  0  0  0  0  0  0  0  0  0  0  0
    2.7491   12.2463   -7.2034 H   0  0  0  0  0  0  0  0  0  0  0  0
    3.5056   13.7908   -6.7573 H   0  0  0  0  0  0  0  0  0  0  0  0
    3.4055   11.4550   -5.1146 H   0  0  0  0  0  0  0  0  0  0  0  0
    3.8123   13.0630   -4.5209 H   0  0  0  0  0  0  0  0  0  0  0  0
    0.5643   10.6875   -3.9374 H   0  0  0  0  0  0  0  0  0  0  0  0
    0.0455   11.5683   -5.4144 H   0  0  0  0  0  0  0  0  0  0  0  0
    1.5856   10.6438   -5.4144 H   0  0  0  0  0  0  0  0  0  0  0  0
    2.4107   13.4559   -2.5834 H   0  0  0  0  0  0  0  0  0  0  0  0
    3.1434   10.9910   -2.7512 H   0  0  0  0  0  0  0  0  0  0  0  0
    2.7968   11.7738   -1.1212 H   0  0  0  0  0  0  0  0  0  0  0  0
    1.8972    9.3194   -1.4496 H   0  0  0  0  0  0  0  0  0  0  0  0
   -1.0771   11.6451   -2.8845 H   0  0  0  0  0  0  0  0  0  0  0  0
   -1.1802   12.0641    0.1664 H   0  0  0  0  0  0  0  0  0  0  0  0
   -2.2550   12.8398   -1.0800 H   0  0  0  0  0  0  0  0  0  0  0  0
   -3.3796   10.9754    0.0958 H   0  0  0  0  0  0  0  0  0  0  0  0
   -3.1792   10.6747   -1.6749 H   0  0  0  0  0  0  0  0  0  0  0  0
   -2.6592    8.6551   -0.4868 H   0  0  0  0  0  0  0  0  0  0  0  0
   -0.8430    8.7390    1.0450 H   0  0  0  0  0  0  0  0  0  0  0  0
   -2.3725    8.2173   -2.6304 H   0  0  0  0  0  0  0  0  0  0  0  0
   -1.6572    9.6884   -3.3727 H   0  0  0  0  0  0  0  0  0  0  0  0
   -0.7384    8.1448   -3.3727 H   0  0  0  0  0  0  0  0  0  0  0  0
   -0.0416    7.8702    0.1508 H   0  0  0  0  0  0  0  0  0  0  0  0
   -0.5607    6.9863   -1.3243 H   0  0  0  0  0  0  0  0  0  0  0  0
    0.9828    7.9051   -1.3243 H   0  0  0  0  0  0  0  0  0  0  0  0
    0.3204   12.9315    0.1110 H   0  0  0  0  0  0  0  0  0  0  0  0
    1.7846   13.7031   -0.5870 H   0  0  0  0  0  0  0  0  0  0  0  0
    0.2189   14.5835   -0.5870 H   0  0  0  0  0  0  0  0  0  0  0  0
   -1.4847   14.0365   -2.5904 H   0  0  0  0  0  0  0  0  0  0  0  0
    0.0676   15.0480   -2.5906 H   0  0  0  0  0  0  0  0  0  0  0  0
   -0.9263   13.1868   -4.7675 H   0  0  0  0  0  0  0  0  0  0  0  0
   -0.7442   14.9844   -4.8165 H   0  0  0  0  0  0  0  0  0  0  0  0
    1.9212   15.2071   -3.3150 H   0  0  0  0  0  0  0  0  0  0  0  0
    2.9253   15.1237   -4.8020 H   0  0  0  0  0  0  0  0  0  0  0  0
    1.3971   16.0678   -4.8020 H   0  0  0  0  0  0  0  0  0  0  0  0
  1  2  1  0
  2  3  1  0
  3  4  1  0
  4  5  1  0
  5  6  1  0
  6  7  1  0
  7  8  1  0
  7  9  1  0
  2 10  1  0
 10 11  1  0
 11 12  1  0
 12 13  1  0
 13 14  1  1
 13 15  1  0
 15 16  1  0
 16 17  1  0
 17 18  2  0
 18 19  1  0
 19 20  1  0
 20 21  1  0
 21 22  1  0
 22 23  1  0
 22 24  1  0
 24 25  1  0
 24 26  1  0
 19 27  1  0
 27 28  1  1
 27 29  1  0
 29 30  1  0
 30 31  1  0
 31 32  1  1
  7  5  1  0
 31 10  1  0
 31 13  1  0
 27 15  1  0
 24 18  1  0
  1 33  1  0
  1 34  1  0
  1 35  1  0
  2 36  1  1
  3 37  1  0
  3 38  1  0
  4 39  1  0
  4 40  1  0
  5 41  1  6
  8 42  1  0
  8 43  1  0
  8 44  1  0
  9 45  1  0
  9 46  1  0
  9 47  1  0
 10 48  1  6
 11 49  1  0
 11 50  1  0
 12 51  1  0
 12 52  1  0
 14 53  1  0
 14 54  1  0
 14 55  1  0
 15 56  1  6
 16 57  1  0
 16 58  1  0
 17 59  1  0
 19 60  1  6
 20 61  1  0
 20 62  1  0
 21 63  1  0
 21 64  1  0
 22 65  1  1
 23 66  1  0
 25 67  1  0
 25 68  1  0
 25 69  1  0
 26 70  1  0
 26 71  1  0
 26 72  1  0
 28 73  1  0
 28 74  1  0
 28 75  1  0
 29 76  1  0
 29 77  1  0
 30 78  1  0
 30 79  1  0
 32 80  1  0
 32 81  1  0
 32 82  1  0
M  END
>  <meeko>  (11) 
{"is_sidechain": [false], "intermolecular_energy": 2.731, "internal_energy": -0.839}

$$$$
EPH_relaxed_0001_pdb2pqr_Repair_115_r2_0001_out
     RDKit          3D

 82 86  0  0  0  0  0  0  0  0999 V2000
   -0.0570   10.2270   -8.0710 C   0  0  0  0  0  0  0  0  0  0  0  0
    0.6530   11.5050   -7.6150 C   0  0  2  0  0  0  0  0  0  0  0  0
    1.7380   11.9550   -8.6140 C   0  0  0  0  0  0  0  0  0  0  0  0
    1.7520   13.4640   -8.8690 C   0  0  0  0  0  0  0  0  0  0  0  0
    2.2480   13.7890  -10.2460 C   0  0  2  0  0  0  0  0  0  0  0  0
    3.4690   14.5390  -10.2810 O   0  0  0  0  0  0  0  0  0  0  0  0
    2.3050   15.1990  -10.8030 C   0  0  0  0  0  0  0  0  0  0  0  0
    1.8590   16.3770   -9.9940 C   0  0  0  0  0  0  0  0  0  0  0  0
    2.3300   15.3810  -12.2890 C   0  0  0  0  0  0  0  0  0  0  0  0
    1.2690   11.2930   -6.2370 C   0  0  1  0  0  0  0  0  0  0  0  0
    2.8120   11.1300   -6.2910 C   0  0  0  0  0  0  0  0  0  0  0  0
    3.3760   11.7900   -5.0060 C   0  0  0  0  0  0  0  0  0  0  0  0
    2.1390   12.0120   -4.1050 C   0  0  1  0  0  0  0  0  0  0  0  0
    1.8790   10.6280   -3.4320 C   0  0  0  0  0  0  0  0  0  0  0  0
    2.2510   13.1570   -3.0470 C   0  0  2  0  0  0  0  0  0  0  0  0
    3.3480   12.9600   -1.9860 C   0  0  0  0  0  0  0  0  0  0  0  0
    2.9170   12.2410   -0.7500 C   0  0  0  0  0  0  0  0  0  0  0  0
    1.6430   12.0240   -0.3750 C   0  0  0  0  0  0  0  0  0  0  0  0
    0.4750   12.6070   -1.1800 C   0  0  1  0  0  0  0  0  0  0  0  0
   -0.5460   13.2610   -0.2120 C   0  0  0  0  0  0  0  0  0  0  0  0
   -1.0120   12.3030    0.8810 C   0  0  0  0  0  0  0  0  0  0  0  0
    0.1720   11.7900    1.6960 C   0  0  2  0  0  0  0  0  0  0  0  0
    0.7370   12.8830    2.4270 O   0  0  0  0  0  0  0  0  0  0  0  0
    1.2720   11.1190    0.8250 C   0  0  0  0  0  0  0  0  0  0  0  0
    0.7480    9.7700    0.2740 C   0  0  0  0  0  0  0  0  0  0  0  0
    2.4690   10.7740    1.7510 C   0  0  0  0  0  0  0  0  0  0  0  0
    0.8730   13.5650   -2.3850 C   0  0  1  0  0  0  0  0  0  0  0  0
    1.0420   15.0270   -1.8690 C   0  0  0  0  0  0  0  0  0  0  0  0
   -0.3060   13.5960   -3.4280 C   0  0  0  0  0  0  0  0  0  0  0  0
   -0.2960   12.5100   -4.5210 C   0  0  0  0  0  0  0  0  0  0  0  0
    1.0780   12.4210   -5.1920 C   0  0  2  0  0  0  0  0  0  0  0  0
    1.3570   13.7920   -5.8970 C   0  0  0  0  0  0  0  0  0  0  0  0
   -0.3770    9.6511   -7.1901 H   0  0  0  0  0  0  0  0  0  0  0  0
   -0.9371   10.4922   -8.6752 H   0  0  0  0  0  0  0  0  0  0  0  0
    0.6331    9.6198   -8.6752 H   0  0  0  0  0  0  0  0  0  0  0  0
   -0.1017   12.3038   -7.5663 H   0  0  0  0  0  0  0  0  0  0  0  0
    2.7203   11.6610   -8.2156 H   0  0  0  0  0  0  0  0  0  0  0  0
    1.5120   11.4688   -9.5745 H   0  0  0  0  0  0  0  0  0  0  0  0
    0.7295   13.8540   -8.7571 H   0  0  0  0  0  0  0  0  0  0  0  0
    2.4330   13.9286   -8.1407 H   0  0  0  0  0  0  0  0  0  0  0  0
    1.8257   12.8547  -10.6443 H   0  0  0  0  0  0  0  0  0  0  0  0
    1.9482   16.1414   -8.9232 H   0  0  0  0  0  0  0  0  0  0  0  0
    2.4905   17.2456  -10.2322 H   0  0  0  0  0  0  0  0  0  0  0  0
    0.8106   16.6096  -10.2322 H   0  0  0  0  0  0  0  0  0  0  0  0
    2.4762   16.4452  -12.5256 H   0  0  0  0  0  0  0  0  0  0  0  0
    3.1559   14.7935  -12.7165 H   0  0  0  0  0  0  0  0  0  0  0  0
    1.3763   15.0380  -12.7165 H   0  0  0  0  0  0  0  0  0  0  0  0
    0.7183   10.3934   -5.9248 H   0  0  0  0  0  0  0  0  0  0  0  0
    3.0797   10.0634   -6.3180 H   0  0  0  0  0  0  0  0  0  0  0  0
    3.2280   11.6022   -7.1932 H   0  0  0  0  0  0  0  0  0  0  0  0
    4.1004   11.1245   -4.5137 H   0  0  0  0  0  0  0  0  0  0  0  0
    3.9100   12.7278   -5.2191 H   0  0  0  0  0  0  0  0  0  0  0  0
    1.9005   10.7424   -2.3382 H   0  0  0  0  0  0  0  0  0  0  0  0
    0.8939   10.2489   -3.7418 H   0  0  0  0  0  0  0  0  0  0  0  0
    2.6593    9.9173   -3.7418 H   0  0  0  0  0  0  0  0  0  0  0  0
    2.5767   14.0117   -3.6581 H   0  0  0  0  0  0  0  0  0  0  0  0
    4.1663   12.3861   -2.4454 H   0  0  0  0  0  0  0  0  0  0  0  0
    3.6450   13.9689   -1.6637 H   0  0  0  0  0  0  0  0  0  0  0  0
    3.7083   11.8560   -0.0900 H   0  0  0  0  0  0  0  0  0  0  0  0
    0.0074   11.7559   -1.6967 H   0  0  0  0  0  0  0  0  0  0  0  0
   -0.0734   14.1339    0.2620 H   0  0  0  0  0  0  0  0  0  0  0  0
   -1.4284   13.5493   -0.8021 H   0  0  0  0  0  0  0  0  0  0  0  0
   -1.7080   12.8306    1.5497 H   0  0  0  0  0  0  0  0  0  0  0  0
   -1.5109   11.4448    0.4071 H   0  0  0  0  0  0  0  0  0  0  0  0
   -0.2077   11.0121    2.3748 H   0  0  0  0  0  0  0  0  0  0  0  0
    0.0090   13.3420    2.8790 H   0  0  0  0  0  0  0  0  0  0  0  0
    0.4903    9.1066    1.1128 H   0  0  0  0  0  0  0  0  0  0  0  0
   -0.1465    9.9478   -0.3411 H   0  0  0  0  0  0  0  0  0  0  0  0
    1.5279    9.2974   -0.3411 H   0  0  0  0  0  0  0  0  0  0  0  0
    2.1573   10.8639    2.8021 H   0  0  0  0  0  0  0  0  0  0  0  0
    2.8003    9.7438    1.5536 H   0  0  0  0  0  0  0  0  0  0  0  0
    3.2978   11.4698    1.5536 H   0  0  0  0  0  0  0  0  0  0  0  0
    1.0423   15.0299   -0.7690 H   0  0  0  0  0  0  0  0  0  0  0  0
    1.9936   15.4380   -2.2370 H   0  0  0  0  0  0  0  0  0  0  0  0
    0.2092   15.6443   -2.2370 H   0  0  0  0  0  0  0  0  0  0  0  0
   -1.2478   13.4963   -2.8685 H   0  0  0  0  0  0  0  0  0  0  0  0
   -0.1882   14.5476   -3.9670 H   0  0  0  0  0  0  0  0  0  0  0  0
   -0.5376   11.5384   -4.0653 H   0  0  0  0  0  0  0  0  0  0  0  0
   -1.0430   12.7734   -5.2843 H   0  0  0  0  0  0  0  0  0  0  0  0
    1.5154   14.5702   -5.1358 H   0  0  0  0  0  0  0  0  0  0  0  0
    2.2559   13.7051   -6.5251 H   0  0  0  0  0  0  0  0  0  0  0  0
    0.4957   14.0633   -6.5251 H   0  0  0  0  0  0  0  0  0  0  0  0
  1  2  1  0
  2  3  1  0
  3  4  1  0
  4  5  1  0
  5  6  1  0
  6  7  1  0
  7  8  1  0
  7  9  1  0
  2 10  1  0
 10 11  1  0
 11 12  1  0
 12 13  1  0
 13 14  1  1
 13 15  1  0
 15 16  1  0
 16 17  1  0
 17 18  2  0
 18 19  1  0
 19 20  1  0
 20 21  1  0
 21 22  1  0
 22 23  1  0
 22 24  1  0
 24 25  1  0
 24 26  1  0
 19 27  1  0
 27 28  1  1
 27 29  1  0
 29 30  1  0
 30 31  1  0
 31 32  1  6
  7  5  1  0
 31 10  1  0
 31 13  1  0
 27 15  1  0
 24 18  1  0
  1 33  1  0
  1 34  1  0
  1 35  1  0
  2 36  1  1
  3 37  1  0
  3 38  1  0
  4 39  1  0
  4 40  1  0
  5 41  1  6
  8 42  1  0
  8 43  1  0
  8 44  1  0
  9 45  1  0
  9 46  1  0
  9 47  1  0
 10 48  1  1
 11 49  1  0
 11 50  1  0
 12 51  1  0
 12 52  1  0
 14 53  1  0
 14 54  1  0
 14 55  1  0
 15 56  1  6
 16 57  1  0
 16 58  1  0
 17 59  1  0
 19 60  1  6
 20 61  1  0
 20 62  1  0
 21 63  1  0
 21 64  1  0
 22 65  1  1
 23 66  1  0
 25 67  1  0
 25 68  1  0
 25 69  1  0
 26 70  1  0
 26 71  1  0
 26 72  1  0
 28 73  1  0
 28 74  1  0
 28 75  1  0
 29 76  1  0
 29 77  1  0
 30 78  1  0
 30 79  1  0
 32 80  1  0
 32 81  1  0
 32 82  1  0
M  END
>  <meeko>  (12) 
{"is_sidechain": [false], "intermolecular_energy": 2.731, "internal_energy": -0.839}

$$$$
EPH_relaxed_0001_pdb2pqr_Repair_115_r2_0001_out
     RDKit          3D

 82 86  0  0  0  0  0  0  0  0999 V2000
    2.6070   13.3940   -0.8850 C   0  0  0  0  0  0  0  0  0  0  0  0
    2.2770   12.1010   -1.6370 C   0  0  2  0  0  0  0  0  0  0  0  0
    2.9090   10.8630   -0.9680 C   0  0  0  0  0  0  0  0  0  0  0  0
    1.8930    9.9570   -0.2670 C   0  0  0  0  0  0  0  0  0  0  0  0
    0.5460   10.6060   -0.1700 C   0  0  2  0  0  0  0  0  0  0  0  0
   -0.3670    9.9580    0.7260 O   0  0  0  0  0  0  0  0  0  0  0  0
   -0.7330    9.9560   -0.6630 C   0  0  0  0  0  0  0  0  0  0  0  0
   -0.7260    8.5980   -1.2920 C   0  0  0  0  0  0  0  0  0  0  0  0
   -1.9050   10.8320   -0.9790 C   0  0  0  0  0  0  0  0  0  0  0  0
    2.7450   12.2070   -3.0840 C   0  0  1  0  0  0  0  0  0  0  0  0
    3.7310   11.0750   -3.4770 C   0  0  0  0  0  0  0  0  0  0  0  0
    3.4460   10.7310   -4.9620 C   0  0  0  0  0  0  0  0  0  0  0  0
    2.5500   11.8860   -5.4660 C   0  0  1  0  0  0  0  0  0  0  0  0
    3.5390   13.0480   -5.7940 C   0  0  0  0  0  0  0  0  0  0  0  0
    1.6190   11.5610   -6.6790 C   0  0  2  0  0  0  0  0  0  0  0  0
    2.3500   11.1770   -7.9770 C   0  0  0  0  0  0  0  0  0  0  0  0
    2.6710   12.3140   -8.8890 C   0  0  0  0  0  0  0  0  0  0  0  0
    2.1390   13.5490   -8.8160 C   0  0  0  0  0  0  0  0  0  0  0  0
    1.0370   13.8730   -7.7990 C   0  0  1  0  0  0  0  0  0  0  0  0
   -0.1030   14.6560   -8.5020 C   0  0  0  0  0  0  0  0  0  0  0  0
    0.4030   15.8980   -9.2300 C   0  0  0  0  0  0  0  0  0  0  0  0
    1.4540   15.5280  -10.2730 C   0  0  2  0  0  0  0  0  0  0  0  0
    0.8270   14.7650  -11.3080 O   0  0  0  0  0  0  0  0  0  0  0  0
    2.6480   14.7270   -9.6830 C   0  0  0  0  0  0  0  0  0  0  0  0
    3.5050   15.6540   -8.7860 C   0  0  0  0  0  0  0  0  0  0  0  0
    3.5630   14.2950  -10.8610 C   0  0  0  0  0  0  0  0  0  0  0  0
    0.4980   12.6450   -6.9460 C   0  0  1  0  0  0  0  0  0  0  0  0
   -0.6460   11.9220   -7.7190 C   0  0  0  0  0  0  0  0  0  0  0  0
   -0.1400   13.1870   -5.6120 C   0  0  0  0  0  0  0  0  0  0  0  0
    0.8100   13.3740   -4.4140 C   0  0  0  0  0  0  0  0  0  0  0  0
    1.6630   12.1220   -4.1890 C   0  0  2  0  0  0  0  0  0  0  0  0
    0.6960   10.9420   -3.8350 C   0  0  0  0  0  0  0  0  0  0  0  0
    2.5601   13.2102    0.1985 H   0  0  0  0  0  0  0  0  0  0  0  0
    3.6192   13.7281   -1.1567 H   0  0  0  0  0  0  0  0  0  0  0  0
    1.8787   14.1723   -1.1567 H   0  0  0  0  0  0  0  0  0  0  0  0
    1.1851   11.9708   -1.6082 H   0  0  0  0  0  0  0  0  0  0  0  0
    3.4234   10.2745   -1.7420 H   0  0  0  0  0  0  0  0  0  0  0  0
    3.5985   11.2321   -0.1944 H   0  0  0  0  0  0  0  0  0  0  0  0
    1.7975    9.0209   -0.8367 H   0  0  0  0  0  0  0  0  0  0  0  0
    2.2541    9.7622    0.7536 H   0  0  0  0  0  0  0  0  0  0  0  0
    0.9850   11.5988   -0.3477 H   0  0  0  0  0  0  0  0  0  0  0  0
   -0.7220    7.8294   -0.5051 H   0  0  0  0  0  0  0  0  0  0  0  0
   -1.6235    8.4786   -1.9166 H   0  0  0  0  0  0  0  0  0  0  0  0
    0.1727    8.4879   -1.9166 H   0  0  0  0  0  0  0  0  0  0  0  0
   -2.3674   11.1776   -0.0427 H   0  0  0  0  0  0  0  0  0  0  0  0
   -1.5667   11.7004   -1.5633 H   0  0  0  0  0  0  0  0  0  0  0  0
   -2.6421   10.2616   -1.5633 H   0  0  0  0  0  0  0  0  0  0  0  0
    3.1824   13.2161   -3.0633 H   0  0  0  0  0  0  0  0  0  0  0  0
    4.7692   11.4191   -3.3602 H   0  0  0  0  0  0  0  0  0  0  0  0
    3.5970   10.1927   -2.8339 H   0  0  0  0  0  0  0  0  0  0  0  0
    4.3828   10.6872   -5.5370 H   0  0  0  0  0  0  0  0  0  0  0  0
    2.9640    9.7489   -5.0772 H   0  0  0  0  0  0  0  0  0  0  0  0
    3.9126   13.4870   -4.8571 H   0  0  0  0  0  0  0  0  0  0  0  0
    4.3847   12.6559   -6.3780 H   0  0  0  0  0  0  0  0  0  0  0  0
    3.0168   13.8201   -6.3780 H   0  0  0  0  0  0  0  0  0  0  0  0
    1.1052   10.6481   -6.3434 H   0  0  0  0  0  0  0  0  0  0  0  0
    3.2946   10.6848   -7.7021 H   0  0  0  0  0  0  0  0  0  0  0  0
    1.6595   10.5264   -8.5337 H   0  0  0  0  0  0  0  0  0  0  0  0
    3.4037   12.1275   -9.6880 H   0  0  0  0  0  0  0  0  0  0  0  0
    1.5074   14.5067   -7.0327 H   0  0  0  0  0  0  0  0  0  0  0  0
   -0.5883   13.9922   -9.2326 H   0  0  0  0  0  0  0  0  0  0  0  0
   -0.8082   14.9879   -7.7258 H   0  0  0  0  0  0  0  0  0  0  0  0
   -0.4430   16.3916   -9.7307 H   0  0  0  0  0  0  0  0  0  0  0  0
    0.8617   16.5744   -8.4937 H   0  0  0  0  0  0  0  0  0  0  0  0
    1.8712   16.4660  -10.6680 H   0  0  0  0  0  0  0  0  0  0  0  0
    1.5030   14.5670  -11.9780 H   0  0  0  0  0  0  0  0  0  0  0  0
    3.3001   15.4324   -7.7282 H   0  0  0  0  0  0  0  0  0  0  0  0
    4.5713   15.4843   -8.9963 H   0  0  0  0  0  0  0  0  0  0  0  0
    3.2523   16.7037   -8.9963 H   0  0  0  0  0  0  0  0  0  0  0  0
    4.4905   13.8571  -10.4634 H   0  0  0  0  0  0  0  0  0  0  0  0
    3.0399   13.5488  -11.4770 H   0  0  0  0  0  0  0  0  0  0  0  0
    3.8068   15.1731  -11.4770 H   0  0  0  0  0  0  0  0  0  0  0  0
   -1.3500   11.4771   -7.0003 H   0  0  0  0  0  0  0  0  0  0  0  0
   -1.1776   12.6485   -8.3511 H   0  0  0  0  0  0  0  0  0  0  0  0
   -0.2179   11.1301   -8.3511 H   0  0  0  0  0  0  0  0  0  0  0  0
   -0.5933   14.1646   -5.8331 H   0  0  0  0  0  0  0  0  0  0  0  0
   -0.8516   12.4098   -5.2966 H   0  0  0  0  0  0  0  0  0  0  0  0
    1.4724   14.2300   -4.6104 H   0  0  0  0  0  0  0  0  0  0  0  0
    0.2058   13.5530   -3.5124 H   0  0  0  0  0  0  0  0  0  0  0  0
    0.6182   10.8471   -2.7419 H   0  0  0  0  0  0  0  0  0  0  0  0
   -0.2994   11.1444   -4.2572 H   0  0  0  0  0  0  0  0  0  0  0  0
    1.0900   10.0058   -4.2572 H   0  0  0  0  0  0  0  0  0  0  0  0
  1  2  1  0
  2  3  1  0
  3  4  1  0
  4  5  1  0
  5  6  1  0
  6  7  1  0
  7  8  1  0
  7  9  1  0
  2 10  1  0
 10 11  1  0
 11 12  1  0
 12 13  1  0
 13 14  1  6
 13 15  1  0
 15 16  1  0
 16 17  1  0
 17 18  2  0
 18 19  1  0
 19 20  1  0
 20 21  1  0
 21 22  1  0
 22 23  1  0
 22 24  1  0
 24 25  1  0
 24 26  1  0
 19 27  1  0
 27 28  1  6
 27 29  1  0
 29 30  1  0
 30 31  1  0
 31 32  1  1
  7  5  1  0
 31 10  1  0
 31 13  1  0
 27 15  1  0
 24 18  1  0
  1 33  1  0
  1 34  1  0
  1 35  1  0
  2 36  1  6
  3 37  1  0
  3 38  1  0
  4 39  1  0
  4 40  1  0
  5 41  1  1
  8 42  1  0
  8 43  1  0
  8 44  1  0
  9 45  1  0
  9 46  1  0
  9 47  1  0
 10 48  1  1
 11 49  1  0
 11 50  1  0
 12 51  1  0
 12 52  1  0
 14 53  1  0
 14 54  1  0
 14 55  1  0
 15 56  1  1
 16 57  1  0
 16 58  1  0
 17 59  1  0
 19 60  1  1
 20 61  1  0
 20 62  1  0
 21 63  1  0
 21 64  1  0
 22 65  1  6
 23 66  1  0
 25 67  1  0
 25 68  1  0
 25 69  1  0
 26 70  1  0
 26 71  1  0
 26 72  1  0
 28 73  1  0
 28 74  1  0
 28 75  1  0
 29 76  1  0
 29 77  1  0
 30 78  1  0
 30 79  1  0
 32 80  1  0
 32 81  1  0
 32 82  1  0
M  END
>  <meeko>  (13) 
{"is_sidechain": [false], "intermolecular_energy": 2.731, "internal_energy": -0.839}

$$$$
EPH_relaxed_0001_pdb2pqr_Repair_115_r2_0001_out
     RDKit          3D

 82 86  0  0  0  0  0  0  0  0999 V2000
    2.7000   16.0670   -8.2600 C   0  0  0  0  0  0  0  0  0  0  0  0
    1.8090   14.8610   -7.9490 C   0  0  2  0  0  0  0  0  0  0  0  0
    0.5410   14.8350   -8.8260 C   0  0  0  0  0  0  0  0  0  0  0  0
    0.5860   13.7880   -9.9420 C   0  0  0  0  0  0  0  0  0  0  0  0
    1.5230   12.6650   -9.6110 C   0  0  2  0  0  0  0  0  0  0  0  0
    1.4140   11.5220  -10.4700 O   0  0  0  0  0  0  0  0  0  0  0  0
    1.0620   11.3160   -9.0920 C   0  0  0  0  0  0  0  0  0  0  0  0
   -0.3880   11.0190   -8.8720 C   0  0  0  0  0  0  0  0  0  0  0  0
    2.0390   10.4670   -8.3410 C   0  0  0  0  0  0  0  0  0  0  0  0
    1.4230   14.8660   -6.4750 C   0  0  1  0  0  0  0  0  0  0  0  0
    0.1610   15.7230   -6.1900 C   0  0  0  0  0  0  0  0  0  0  0  0
   -0.6130   15.0150   -5.0490 C   0  0  0  0  0  0  0  0  0  0  0  0
    0.3830   13.9710   -4.4920 C   0  0  1  0  0  0  0  0  0  0  0  0
    1.3130   14.7770   -3.5310 C   0  0  0  0  0  0  0  0  0  0  0  0
   -0.2440   12.7290   -3.7790 C   0  0  2  0  0  0  0  0  0  0  0  0
   -1.0650   13.0450   -2.5170 C   0  0  0  0  0  0  0  0  0  0  0  0
   -0.2960   13.0390   -1.2380 C   0  0  0  0  0  0  0  0  0  0  0  0
    0.9310   12.5140   -1.0660 C   0  0  0  0  0  0  0  0  0  0  0  0
    1.6330   11.7610   -2.2040 C   0  0  1  0  0  0  0  0  0  0  0  0
    2.2300   10.4380   -1.6580 C   0  0  0  0  0  0  0  0  0  0  0  0
    3.1430   10.6600   -0.4560 C   0  0  0  0  0  0  0  0  0  0  0  0
    2.3940   11.3580    0.6760 C   0  0  2  0  0  0  0  0  0  0  0  0
    1.3880   10.4730    1.1780 O   0  0  0  0  0  0  0  0  0  0  0  0
    1.7400   12.7000    0.2420 C   0  0  0  0  0  0  0  0  0  0  0  0
    2.8420   13.7570   -0.0140 C   0  0  0  0  0  0  0  0  0  0  0  0
    0.8990   13.2290    1.4350 C   0  0  0  0  0  0  0  0  0  0  0  0
    0.7750   11.5450   -3.5240 C   0  0  1  0  0  0  0  0  0  0  0  0
   -0.0760   10.2440   -3.3990 C   0  0  0  0  0  0  0  0  0  0  0  0
    1.7500   11.3220   -4.7400 C   0  0  0  0  0  0  0  0  0  0  0  0
    2.2410   12.5830   -5.4770 C   0  0  0  0  0  0  0  0  0  0  0  0
    1.0680   13.5040   -5.8270 C   0  0  2  0  0  0  0  0  0  0  0  0
    0.1270   12.7280   -6.8100 C   0  0  0  0  0  0  0  0  0  0  0  0
    3.0385   16.5252   -7.3190 H   0  0  0  0  0  0  0  0  0  0  0  0
    3.5731   15.7374   -8.8422 H   0  0  0  0  0  0  0  0  0  0  0  0
    2.1284   16.8048   -8.8422 H   0  0  0  0  0  0  0  0  0  0  0  0
    2.3877   13.9540   -8.1781 H   0  0  0  0  0  0  0  0  0  0  0  0
   -0.3231   14.6180   -8.1808 H   0  0  0  0  0  0  0  0  0  0  0  0
    0.4656   15.8192   -9.3114 H   0  0  0  0  0  0  0  0  0  0  0  0
   -0.4244   13.3782  -10.0874 H   0  0  0  0  0  0  0  0  0  0  0  0
    0.9479   14.2781  -10.8578 H   0  0  0  0  0  0  0  0  0  0  0  0
    2.2827   13.3738   -9.2498 H   0  0  0  0  0  0  0  0  0  0  0  0
   -0.5939   10.9768   -7.7923 H   0  0  0  0  0  0  0  0  0  0  0  0
   -0.9982   11.8108   -9.3310 H   0  0  0  0  0  0  0  0  0  0  0  0
   -0.6378   10.0510   -9.3310 H   0  0  0  0  0  0  0  0  0  0  0  0
    1.8855   10.6004   -7.2600 H   0  0  0  0  0  0  0  0  0  0  0  0
    1.8857    9.4103   -8.6055 H   0  0  0  0  0  0  0  0  0  0  0  0
    3.0639   10.7662   -8.6055 H   0  0  0  0  0  0  0  0  0  0  0  0
    2.3561   15.2563   -6.0427 H   0  0  0  0  0  0  0  0  0  0  0  0
    0.4540   16.7360   -5.8770 H   0  0  0  0  0  0  0  0  0  0  0  0
   -0.4633   15.8178   -7.0907 H   0  0  0  0  0  0  0  0  0  0  0  0
   -0.8981   15.7352   -4.2679 H   0  0  0  0  0  0  0  0  0  0  0  0
   -1.5472   14.5538   -5.4019 H   0  0  0  0  0  0  0  0  0  0  0  0
    1.0490   14.5482   -2.4879 H   0  0  0  0  0  0  0  0  0  0  0  0
    2.3608   14.4966   -3.7140 H   0  0  0  0  0  0  0  0  0  0  0  0
    1.1843   15.8540   -3.7140 H   0  0  0  0  0  0  0  0  0  0  0  0
   -0.9695   12.3716   -4.5246 H   0  0  0  0  0  0  0  0  0  0  0  0
   -1.5093   14.0435   -2.6418 H   0  0  0  0  0  0  0  0  0  0  0  0
   -1.8090   12.2396   -2.4285 H   0  0  0  0  0  0  0  0  0  0  0  0
   -0.7725   13.5030   -0.3618 H   0  0  0  0  0  0  0  0  0  0  0  0
    2.4425   12.4197   -2.5516 H   0  0  0  0  0  0  0  0  0  0  0  0
    1.4044    9.7767   -1.3563 H   0  0  0  0  0  0  0  0  0  0  0  0
    2.8359    9.9896   -2.4591 H   0  0  0  0  0  0  0  0  0  0  0  0
    3.5104    9.6868   -0.0983 H   0  0  0  0  0  0  0  0  0  0  0  0
    3.9837   11.2978   -0.7666 H   0  0  0  0  0  0  0  0  0  0  0  0
    3.1301   11.6053    1.4551 H   0  0  0  0  0  0  0  0  0  0  0  0
    0.5350   10.7550    0.8060 H   0  0  0  0  0  0  0  0  0  0  0  0
    3.2267   14.1260    0.9482 H   0  0  0  0  0  0  0  0  0  0  0  0
    3.6628   13.2998   -0.5860 H   0  0  0  0  0  0  0  0  0  0  0  0
    2.4194   14.5962   -0.5860 H   0  0  0  0  0  0  0  0  0  0  0  0
    1.3749   12.9296    2.3804 H   0  0  0  0  0  0  0  0  0  0  0  0
    0.8413   14.3263    1.3849 H   0  0  0  0  0  0  0  0  0  0  0  0
   -0.1151   12.8058    1.3849 H   0  0  0  0  0  0  0  0  0  0  0  0
   -0.2306   10.0077   -2.3359 H   0  0  0  0  0  0  0  0  0  0  0  0
   -1.0504   10.3950   -3.8865 H   0  0  0  0  0  0  0  0  0  0  0  0
    0.4528    9.4117   -3.8865 H   0  0  0  0  0  0  0  0  0  0  0  0
    2.6363   10.7907   -4.3629 H   0  0  0  0  0  0  0  0  0  0  0  0
    1.1605   10.7653   -5.4833 H   0  0  0  0  0  0  0  0  0  0  0  0
    2.9451   13.1268   -4.8301 H   0  0  0  0  0  0  0  0  0  0  0  0
    2.7356   12.2743   -6.4098 H   0  0  0  0  0  0  0  0  0  0  0  0
   -0.5953   12.1323   -6.2326 H   0  0  0  0  0  0  0  0  0  0  0  0
   -0.4136   13.4463   -7.4438 H   0  0  0  0  0  0  0  0  0  0  0  0
    0.7292   12.0605   -7.4438 H   0  0  0  0  0  0  0  0  0  0  0  0
  1  2  1  0
  2  3  1  0
  3  4  1  0
  4  5  1  0
  5  6  1  0
  6  7  1  0
  7  8  1  0
  7  9  1  0
  2 10  1  0
 10 11  1  0
 11 12  1  0
 12 13  1  0
 13 14  1  1
 13 15  1  0
 15 16  1  0
 16 17  1  0
 17 18  2  0
 18 19  1  0
 19 20  1  0
 20 21  1  0
 21 22  1  0
 22 23  1  0
 22 24  1  0
 24 25  1  0
 24 26  1  0
 19 27  1  0
 27 28  1  1
 27 29  1  0
 29 30  1  0
 30 31  1  0
 31 32  1  6
  7  5  1  0
 31 10  1  0
 31 13  1  0
 27 15  1  0
 24 18  1  0
  1 33  1  0
  1 34  1  0
  1 35  1  0
  2 36  1  1
  3 37  1  0
  3 38  1  0
  4 39  1  0
  4 40  1  0
  5 41  1  1
  8 42  1  0
  8 43  1  0
  8 44  1  0
  9 45  1  0
  9 46  1  0
  9 47  1  0
 10 48  1  1
 11 49  1  0
 11 50  1  0
 12 51  1  0
 12 52  1  0
 14 53  1  0
 14 54  1  0
 14 55  1  0
 15 56  1  6
 16 57  1  0
 16 58  1  0
 17 59  1  0
 19 60  1  6
 20 61  1  0
 20 62  1  0
 21 63  1  0
 21 64  1  0
 22 65  1  1
 23 66  1  0
 25 67  1  0
 25 68  1  0
 25 69  1  0
 26 70  1  0
 26 71  1  0
 26 72  1  0
 28 73  1  0
 28 74  1  0
 28 75  1  0
 29 76  1  0
 29 77  1  0
 30 78  1  0
 30 79  1  0
 32 80  1  0
 32 81  1  0
 32 82  1  0
M  END
>  <meeko>  (14) 
{"is_sidechain": [false], "intermolecular_energy": 2.731, "internal_energy": -0.839}

$$$$
EPH_relaxed_0001_pdb2pqr_Repair_115_r2_0001_out
     RDKit          3D

 82 86  0  0  0  0  0  0  0  0999 V2000
   -2.0800    7.8590   -1.7360 C   0  0  0  0  0  0  0  0  0  0  0  0
   -2.0890    8.6900   -0.4500 C   0  0  2  0  0  0  0  0  0  0  0  0
   -3.4940    8.7720    0.1790 C   0  0  0  0  0  0  0  0  0  0  0  0
   -4.6270    8.8100   -0.8500 C   0  0  0  0  0  0  0  0  0  0  0  0
   -5.2870    7.4720   -0.9990 C   0  0  2  0  0  0  0  0  0  0  0  0
   -5.3920    7.0030   -2.3490 O   0  0  0  0  0  0  0  0  0  0  0  0
   -6.6310    7.2730   -1.6740 C   0  0  0  0  0  0  0  0  0  0  0  0
   -7.3970    8.4250   -2.2440 C   0  0  0  0  0  0  0  0  0  0  0  0
   -7.4200    6.0430   -1.3480 C   0  0  0  0  0  0  0  0  0  0  0  0
   -1.5620   10.0920   -0.7330 C   0  0  1  0  0  0  0  0  0  0  0  0
   -1.0790   10.8180    0.5510 C   0  0  0  0  0  0  0  0  0  0  0  0
    0.1360   11.6900    0.1410 C   0  0  0  0  0  0  0  0  0  0  0  0
    0.1070   11.6970   -1.4060 C   0  0  1  0  0  0  0  0  0  0  0  0
   -0.9550   12.7770   -1.7820 C   0  0  0  0  0  0  0  0  0  0  0  0
    1.4720   11.9570   -2.1210 C   0  0  2  0  0  0  0  0  0  0  0  0
    2.1070   13.3300   -1.8390 C   0  0  0  0  0  0  0  0  0  0  0  0
    1.7230   14.4160   -2.7880 C   0  0  0  0  0  0  0  0  0  0  0  0
    1.1330   14.2380   -3.9850 C   0  0  0  0  0  0  0  0  0  0  0  0
    0.8810   12.8290   -4.5360 C   0  0  1  0  0  0  0  0  0  0  0  0
    1.3300   12.7650   -6.0200 C   0  0  0  0  0  0  0  0  0  0  0  0
    0.6820   13.8500   -6.8740 C   0  0  0  0  0  0  0  0  0  0  0  0
    1.0030   15.2390   -6.3280 C   0  0  2  0  0  0  0  0  0  0  0  0
    2.4050   15.4820   -6.4830 O   0  0  0  0  0  0  0  0  0  0  0  0
    0.6040   15.4180   -4.8360 C   0  0  0  0  0  0  0  0  0  0  0  0
   -0.9390   15.4550   -4.7110 C   0  0  0  0  0  0  0  0  0  0  0  0
    1.1110   16.8100   -4.3710 C   0  0  0  0  0  0  0  0  0  0  0  0
    1.4650   11.6310   -3.6700 C   0  0  1  0  0  0  0  0  0  0  0  0
    2.9450   11.3540   -4.0740 C   0  0  0  0  0  0  0  0  0  0  0  0
    0.6610   10.3180   -4.0010 C   0  0  0  0  0  0  0  0  0  0  0  0
   -0.6150   10.0570   -3.1780 C   0  0  0  0  0  0  0  0  0  0  0  0
   -0.3410   10.2150   -1.6790 C   0  0  2  0  0  0  0  0  0  0  0  0
    0.7070    9.1270   -1.2670 C   0  0  0  0  0  0  0  0  0  0  0  0
   -2.0684    6.7890   -1.4811 H   0  0  0  0  0  0  0  0  0  0  0  0
   -2.9807    8.0858   -2.3254 H   0  0  0  0  0  0  0  0  0  0  0  0
   -1.1845    8.1052   -2.3254 H   0  0  0  0  0  0  0  0  0  0  0  0
   -1.4325    8.1854    0.2742 H   0  0  0  0  0  0  0  0  0  0  0  0
   -3.6385    7.8916    0.8224 H   0  0  0  0  0  0  0  0  0  0  0  0
   -3.5396    9.7155    0.7427 H   0  0  0  0  0  0  0  0  0  0  0  0
   -5.3790    9.5441   -0.5250 H   0  0  0  0  0  0  0  0  0  0  0  0
   -4.1969    9.0900   -1.8229 H   0  0  0  0  0  0  0  0  0  0  0  0
   -4.8945    7.1438   -0.0252 H   0  0  0  0  0  0  0  0  0  0  0  0
   -7.8035    9.0363   -1.4248 H   0  0  0  0  0  0  0  0  0  0  0  0
   -6.7274    9.0401   -2.8631 H   0  0  0  0  0  0  0  0  0  0  0  0
   -8.2232    8.0455   -2.8631 H   0  0  0  0  0  0  0  0  0  0  0  0
   -7.4913    5.9318   -0.2560 H   0  0  0  0  0  0  0  0  0  0  0  0
   -8.4302    6.1317   -1.7743 H   0  0  0  0  0  0  0  0  0  0  0  0
   -6.9182    5.1618   -1.7743 H   0  0  0  0  0  0  0  0  0  0  0  0
   -2.4513   10.5319   -1.2080 H   0  0  0  0  0  0  0  0  0  0  0  0
   -1.8827   11.4528    0.9524 H   0  0  0  0  0  0  0  0  0  0  0  0
   -0.8012   10.0956    1.3326 H   0  0  0  0  0  0  0  0  0  0  0  0
    0.0319   12.7113    0.5360 H   0  0  0  0  0  0  0  0  0  0  0  0
    1.0838   11.2982    0.5387 H   0  0  0  0  0  0  0  0  0  0  0  0
   -1.3797   13.2089   -0.8638 H   0  0  0  0  0  0  0  0  0  0  0  0
   -0.4765   13.5714   -2.3736 H   0  0  0  0  0  0  0  0  0  0  0  0
   -1.7573   12.3119   -2.3736 H   0  0  0  0  0  0  0  0  0  0  0  0
    2.1322   11.2192   -1.6417 H   0  0  0  0  0  0  0  0  0  0  0  0
    1.8085   13.6414   -0.8271 H   0  0  0  0  0  0  0  0  0  0  0  0
    3.1923   13.1934   -1.9552 H   0  0  0  0  0  0  0  0  0  0  0  0
    1.9406   15.4503   -2.4834 H   0  0  0  0  0  0  0  0  0  0  0  0
   -0.2046   12.6655   -4.4669 H   0  0  0  0  0  0  0  0  0  0  0  0
    2.4223   12.8873   -6.0636 H   0  0  0  0  0  0  0  0  0  0  0  0
    1.0155   11.7908   -6.4225 H   0  0  0  0  0  0  0  0  0  0  0  0
    1.0608   13.7717   -7.9038 H   0  0  0  0  0  0  0  0  0  0  0  0
   -0.4086   13.7082   -6.8533 H   0  0  0  0  0  0  0  0  0  0  0  0
    0.4077   15.9648   -6.9014 H   0  0  0  0  0  0  0  0  0  0  0  0
    2.7280   14.8990   -7.1910 H   0  0  0  0  0  0  0  0  0  0  0  0
   -1.2207   15.4618   -3.6477 H   0  0  0  0  0  0  0  0  0  0  0  0
   -1.3247   16.3627   -5.1983 H   0  0  0  0  0  0  0  0  0  0  0  0
   -1.3677   14.5669   -5.1983 H   0  0  0  0  0  0  0  0  0  0  0  0
    1.1244   16.8469   -3.2717 H   0  0  0  0  0  0  0  0  0  0  0  0
    2.1278   16.9773   -4.7559 H   0  0  0  0  0  0  0  0  0  0  0  0
    0.4400   17.5920   -4.7559 H   0  0  0  0  0  0  0  0  0  0  0  0
    3.5573   11.2394   -3.1674 H   0  0  0  0  0  0  0  0  0  0  0  0
    2.9958   10.4308   -4.6699 H   0  0  0  0  0  0  0  0  0  0  0  0
    3.3262   12.1964   -4.6699 H   0  0  0  0  0  0  0  0  0  0  0  0
    0.3694   10.3649   -5.0606 H   0  0  0  0  0  0  0  0  0  0  0  0
    1.3415    9.4924   -3.7454 H   0  0  0  0  0  0  0  0  0  0  0  0
   -1.3914   10.7754   -3.4798 H   0  0  0  0  0  0  0  0  0  0  0  0
   -0.9504    9.0266   -3.3671 H   0  0  0  0  0  0  0  0  0  0  0  0
    0.7631    9.0688   -0.1700 H   0  0  0  0  0  0  0  0  0  0  0  0
    0.4002    8.1509   -1.6708 H   0  0  0  0  0  0  0  0  0  0  0  0
    1.6939    9.3970   -1.6708 H   0  0  0  0  0  0  0  0  0  0  0  0
  1  2  1  0
  2  3  1  0
  3  4  1  0
  4  5  1  0
  5  6  1  0
  6  7  1  0
  7  8  1  0
  7  9  1  0
  2 10  1  0
 10 11  1  0
 11 12  1  0
 12 13  1  0
 13 14  1  1
 13 15  1  0
 15 16  1  0
 16 17  1  0
 17 18  2  0
 18 19  1  0
 19 20  1  0
 20 21  1  0
 21 22  1  0
 22 23  1  0
 22 24  1  0
 24 25  1  0
 24 26  1  0
 19 27  1  0
 27 28  1  6
 27 29  1  0
 29 30  1  0
 30 31  1  0
 31 32  1  1
  7  5  1  0
 31 10  1  0
 31 13  1  0
 27 15  1  0
 24 18  1  0
  1 33  1  0
  1 34  1  0
  1 35  1  0
  2 36  1  1
  3 37  1  0
  3 38  1  0
  4 39  1  0
  4 40  1  0
  5 41  1  1
  8 42  1  0
  8 43  1  0
  8 44  1  0
  9 45  1  0
  9 46  1  0
  9 47  1  0
 10 48  1  6
 11 49  1  0
 11 50  1  0
 12 51  1  0
 12 52  1  0
 14 53  1  0
 14 54  1  0
 14 55  1  0
 15 56  1  1
 16 57  1  0
 16 58  1  0
 17 59  1  0
 19 60  1  6
 20 61  1  0
 20 62  1  0
 21 63  1  0
 21 64  1  0
 22 65  1  6
 23 66  1  0
 25 67  1  0
 25 68  1  0
 25 69  1  0
 26 70  1  0
 26 71  1  0
 26 72  1  0
 28 73  1  0
 28 74  1  0
 28 75  1  0
 29 76  1  0
 29 77  1  0
 30 78  1  0
 30 79  1  0
 32 80  1  0
 32 81  1  0
 32 82  1  0
M  END
>  <meeko>  (15) 
{"is_sidechain": [false], "intermolecular_energy": 2.731, "internal_energy": -0.839}

$$$$
EPH_relaxed_0001_pdb2pqr_Repair_115_r2_0001_out
     RDKit          3D

 82 86  0  0  0  0  0  0  0  0999 V2000
   -3.7490    7.1470   -3.3350 C   0  0  0  0  0  0  0  0  0  0  0  0
   -3.8030    7.2630   -1.8090 C   0  0  2  0  0  0  0  0  0  0  0  0
   -5.2330    7.0770   -1.2640 C   0  0  0  0  0  0  0  0  0  0  0  0
   -6.3280    7.3640   -2.2950 C   0  0  0  0  0  0  0  0  0  0  0  0
   -7.6680    7.5420   -1.6470 C   0  0  2  0  0  0  0  0  0  0  0  0
   -8.2330    6.3420   -1.1030 O   0  0  0  0  0  0  0  0  0  0  0  0
   -8.9480    6.9410   -2.1950 C   0  0  0  0  0  0  0  0  0  0  0  0
   -8.9510    6.1170   -3.4450 C   0  0  0  0  0  0  0  0  0  0  0  0
  -10.2540    7.5540   -1.7970 C   0  0  0  0  0  0  0  0  0  0  0  0
   -3.2500    8.6140   -1.3700 C   0  0  1  0  0  0  0  0  0  0  0  0
   -3.8510    9.0960   -0.0230 C   0  0  0  0  0  0  0  0  0  0  0  0
   -2.7240    9.8570    0.7220 C   0  0  0  0  0  0  0  0  0  0  0  0
   -1.6280   10.0750   -0.3470 C   0  0  1  0  0  0  0  0  0  0  0  0
   -2.1030   11.3200   -1.1610 C   0  0  0  0  0  0  0  0  0  0  0  0
   -0.1690   10.2570    0.1860 C   0  0  2  0  0  0  0  0  0  0  0  0
    0.0510   11.4900    1.0790 C   0  0  0  0  0  0  0  0  0  0  0  0
    0.4590   12.7330    0.3610 C   0  0  0  0  0  0  0  0  0  0  0  0
    0.9170   12.7920   -0.9040 C   0  0  0  0  0  0  0  0  0  0  0  0
    1.1560   11.5110   -1.7150 C   0  0  1  0  0  0  0  0  0  0  0  0
    2.5380   11.5920   -2.4140 C   0  0  0  0  0  0  0  0  0  0  0  0
    2.6950   12.8540   -3.2570 C   0  0  0  0  0  0  0  0  0  0  0  0
    2.5070   14.1060   -2.4040 C   0  0  2  0  0  0  0  0  0  0  0  0
    3.5870   14.1920   -1.4680 O   0  0  0  0  0  0  0  0  0  0  0  0
    1.1530   14.1320   -1.6420 C   0  0  0  0  0  0  0  0  0  0  0  0
   -0.0060   14.3430   -2.6490 C   0  0  0  0  0  0  0  0  0  0  0  0
    1.1510   15.3750   -0.7120 C   0  0  0  0  0  0  0  0  0  0  0  0
    0.9470   10.1450   -0.9300 C   0  0  1  0  0  0  0  0  0  0  0  0
    2.2660    9.7430   -0.2020 C   0  0  0  0  0  0  0  0  0  0  0  0
    0.6450    8.9980   -1.9660 C   0  0  0  0  0  0  0  0  0  0  0  0
   -0.8290    8.7910   -2.3620 C   0  0  0  0  0  0  0  0  0  0  0  0
   -1.7240    8.7110   -1.1220 C   0  0  2  0  0  0  0  0  0  0  0  0
   -1.2840    7.4550   -0.2950 C   0  0  0  0  0  0  0  0  0  0  0  0
   -3.2999    6.1823   -3.6137 H   0  0  0  0  0  0  0  0  0  0  0  0
   -4.7684    7.2086   -3.7437 H   0  0  0  0  0  0  0  0  0  0  0  0
   -3.1399    7.9667   -3.7437 H   0  0  0  0  0  0  0  0  0  0  0  0
   -3.1829    6.4552   -1.3933 H   0  0  0  0  0  0  0  0  0  0  0  0
   -5.3418    6.0370   -0.9226 H   0  0  0  0  0  0  0  0  0  0  0  0
   -5.3624    7.8030   -0.4478 H   0  0  0  0  0  0  0  0  0  0  0  0
   -6.0712    8.2838   -2.8409 H   0  0  0  0  0  0  0  0  0  0  0  0
   -6.3893    6.5039   -2.9779 H   0  0  0  0  0  0  0  0  0  0  0  0
   -7.4078    8.5639   -1.3340 H   0  0  0  0  0  0  0  0  0  0  0  0
   -8.9549    5.0493   -3.1803 H   0  0  0  0  0  0  0  0  0  0  0  0
   -9.8483    6.3514   -4.0365 H   0  0  0  0  0  0  0  0  0  0  0  0
   -8.0520    6.3449   -4.0365 H   0  0  0  0  0  0  0  0  0  0  0  0
  -10.3243    7.5870   -0.6997 H   0  0  0  0  0  0  0  0  0  0  0  0
  -10.3172    8.5758   -2.1994 H   0  0  0  0  0  0  0  0  0  0  0  0
  -11.0804    6.9497   -2.1994 H   0  0  0  0  0  0  0  0  0  0  0  0
   -3.5278    9.2203   -2.2448 H   0  0  0  0  0  0  0  0  0  0  0  0
   -4.7035    9.7664   -0.2067 H   0  0  0  0  0  0  0  0  0  0  0  0
   -4.2157    8.2468    0.5735 H   0  0  0  0  0  0  0  0  0  0  0  0
   -3.0923   10.8210    1.1027 H   0  0  0  0  0  0  0  0  0  0  0  0
   -2.3510    9.3005    1.5945 H   0  0  0  0  0  0  0  0  0  0  0  0
   -2.4073   12.1175   -0.4671 H   0  0  0  0  0  0  0  0  0  0  0  0
   -1.2790   11.6799   -1.7947 H   0  0  0  0  0  0  0  0  0  0  0  0
   -2.9573   11.0396   -1.7947 H   0  0  0  0  0  0  0  0  0  0  0  0
   -0.0491    9.3855    0.8464 H   0  0  0  0  0  0  0  0  0  0  0  0
   -0.8899   11.6974    1.6097 H   0  0  0  0  0  0  0  0  0  0  0  0
    0.8872   11.2363    1.7471 H   0  0  0  0  0  0  0  0  0  0  0  0
    0.3788   13.6817    0.9119 H   0  0  0  0  0  0  0  0  0  0  0  0
    0.3575   11.4749   -2.4707 H   0  0  0  0  0  0  0  0  0  0  0  0
    3.3235   11.5825   -1.6440 H   0  0  0  0  0  0  0  0  0  0  0  0
    2.6216   10.7274   -3.0889 H   0  0  0  0  0  0  0  0  0  0  0  0
    3.7016   12.8681   -3.7003 H   0  0  0  0  0  0  0  0  0  0  0  0
    1.9280   12.8476   -4.0454 H   0  0  0  0  0  0  0  0  0  0  0  0
    2.4999   14.9702   -3.0845 H   0  0  0  0  0  0  0  0  0  0  0  0
    3.7590   15.1350   -1.3040 H   0  0  0  0  0  0  0  0  0  0  0  0
   -0.9432   14.5136   -2.0989 H   0  0  0  0  0  0  0  0  0  0  0  0
    0.2121   15.2162   -3.2814 H   0  0  0  0  0  0  0  0  0  0  0  0
   -0.1096   13.4490   -3.2814 H   0  0  0  0  0  0  0  0  0  0  0  0
    1.1515   15.0473    0.3381 H   0  0  0  0  0  0  0  0  0  0  0  0
    2.0482   15.9807   -0.9075 H   0  0  0  0  0  0  0  0  0  0  0  0
    0.2519   15.9778   -0.9075 H   0  0  0  0  0  0  0  0  0  0  0  0
    2.1130    9.7896    0.8863 H   0  0  0  0  0  0  0  0  0  0  0  0
    2.5459    8.7188   -0.4894 H   0  0  0  0  0  0  0  0  0  0  0  0
    3.0696   10.4370   -0.4894 H   0  0  0  0  0  0  0  0  0  0  0  0
    1.2080    9.2219   -2.8841 H   0  0  0  0  0  0  0  0  0  0  0  0
    0.9407    8.0673   -1.4597 H   0  0  0  0  0  0  0  0  0  0  0  0
   -1.1554    9.6349   -2.9875 H   0  0  0  0  0  0  0  0  0  0  0  0
   -0.9134    7.8450   -2.9169 H   0  0  0  0  0  0  0  0  0  0  0  0
   -1.3620    7.6777    0.7794 H   0  0  0  0  0  0  0  0  0  0  0  0
   -1.9382    6.6058   -0.5419 H   0  0  0  0  0  0  0  0  0  0  0  0
   -0.2429    7.1997   -0.5419 H   0  0  0  0  0  0  0  0  0  0  0  0
  1  2  1  0
  2  3  1  0
  3  4  1  0
  4  5  1  0
  5  6  1  0
  6  7  1  0
  7  8  1  0
  7  9  1  0
  2 10  1  0
 10 11  1  0
 11 12  1  0
 12 13  1  0
 13 14  1  6
 13 15  1  0
 15 16  1  0
 16 17  1  0
 17 18  2  0
 18 19  1  0
 19 20  1  0
 20 21  1  0
 21 22  1  0
 22 23  1  0
 22 24  1  0
 24 25  1  0
 24 26  1  0
 19 27  1  0
 27 28  1  1
 27 29  1  0
 29 30  1  0
 30 31  1  0
 31 32  1  1
  7  5  1  0
 31 10  1  0
 31 13  1  0
 27 15  1  0
 24 18  1  0
  1 33  1  0
  1 34  1  0
  1 35  1  0
  2 36  1  1
  3 37  1  0
  3 38  1  0
  4 39  1  0
  4 40  1  0
  5 41  1  1
  8 42  1  0
  8 43  1  0
  8 44  1  0
  9 45  1  0
  9 46  1  0
  9 47  1  0
 10 48  1  6
 11 49  1  0
 11 50  1  0
 12 51  1  0
 12 52  1  0
 14 53  1  0
 14 54  1  0
 14 55  1  0
 15 56  1  1
 16 57  1  0
 16 58  1  0
 17 59  1  0
 19 60  1  6
 20 61  1  0
 20 62  1  0
 21 63  1  0
 21 64  1  0
 22 65  1  6
 23 66  1  0
 25 67  1  0
 25 68  1  0
 25 69  1  0
 26 70  1  0
 26 71  1  0
 26 72  1  0
 28 73  1  0
 28 74  1  0
 28 75  1  0
 29 76  1  0
 29 77  1  0
 30 78  1  0
 30 79  1  0
 32 80  1  0
 32 81  1  0
 32 82  1  0
M  END
>  <meeko>  (16) 
{"is_sidechain": [false], "intermolecular_energy": 2.731, "internal_energy": -0.839}

$$$$
EPH_relaxed_0001_pdb2pqr_Repair_115_r2_0001_out
     RDKit          3D

 82 86  0  0  0  0  0  0  0  0999 V2000
    2.3740   10.5520   -1.2210 C   0  0  0  0  0  0  0  0  0  0  0  0
    2.6960   12.0080   -1.5680 C   0  0  2  0  0  0  0  0  0  0  0  0
    1.5230   12.9550   -1.2460 C   0  0  0  0  0  0  0  0  0  0  0  0
    1.9590   14.2880   -0.6320 C   0  0  0  0  0  0  0  0  0  0  0  0
    1.0090   15.3950   -0.9780 C   0  0  2  0  0  0  0  0  0  0  0  0
    1.3730   16.1550   -2.1380 O   0  0  0  0  0  0  0  0  0  0  0  0
    1.3710   16.8660   -0.8890 C   0  0  0  0  0  0  0  0  0  0  0  0
    2.7280   17.3100   -0.4390 C   0  0  0  0  0  0  0  0  0  0  0  0
    0.2660   17.8680   -0.7680 C   0  0  0  0  0  0  0  0  0  0  0  0
    3.0670   12.1210   -3.0420 C   0  0  1  0  0  0  0  0  0  0  0  0
    3.9860   10.9640   -3.5170 C   0  0  0  0  0  0  0  0  0  0  0  0
    3.5900   10.6510   -4.9830 C   0  0  0  0  0  0  0  0  0  0  0  0
    2.6990   11.8410   -5.4090 C   0  0  1  0  0  0  0  0  0  0  0  0
    3.7010   12.9760   -5.7900 C   0  0  0  0  0  0  0  0  0  0  0  0
    1.6770   11.5630   -6.5590 C   0  0  2  0  0  0  0  0  0  0  0  0
    2.3050   11.1750   -7.9100 C   0  0  0  0  0  0  0  0  0  0  0  0
    2.6000   12.3160   -8.8270 C   0  0  0  0  0  0  0  0  0  0  0  0
    2.1140   13.5650   -8.7020 C   0  0  0  0  0  0  0  0  0  0  0  0
    1.0960   13.9090   -7.6080 C   0  0  1  0  0  0  0  0  0  0  0  0
   -0.0630   14.7380   -8.2200 C   0  0  0  0  0  0  0  0  0  0  0  0
    0.4320   15.9740   -8.9660 C   0  0  0  0  0  0  0  0  0  0  0  0
    1.3970   15.5860  -10.0840 C   0  0  2  0  0  0  0  0  0  0  0  0
    0.6760   14.8580  -11.0830 O   0  0  0  0  0  0  0  0  0  0  0  0
    2.6010   14.7390   -9.5870 C   0  0  0  0  0  0  0  0  0  0  0  0
    3.5470   15.6260   -8.7400 C   0  0  0  0  0  0  0  0  0  0  0  0
    3.4190   14.2960  -10.8310 C   0  0  0  0  0  0  0  0  0  0  0  0
    0.5770   12.6860   -6.7350 C   0  0  1  0  0  0  0  0  0  0  0  0
   -0.6410   12.0110   -7.4370 C   0  0  0  0  0  0  0  0  0  0  0  0
    0.0490   13.2280   -5.3540 C   0  0  0  0  0  0  0  0  0  0  0  0
    1.0840   13.3680   -4.2210 C   0  0  0  0  0  0  0  0  0  0  0  0
    1.9100   12.0860   -4.0710 C   0  0  2  0  0  0  0  0  0  0  0  0
    0.9310   10.9310   -3.6660 C   0  0  0  0  0  0  0  0  0  0  0  0
    2.3476   10.4328   -0.1278 H   0  0  0  0  0  0  0  0  0  0  0  0
    1.3945   10.2825   -1.6429 H   0  0  0  0  0  0  0  0  0  0  0  0
    3.1485    9.8946   -1.6429 H   0  0  0  0  0  0  0  0  0  0  0  0
    3.5489   12.3157   -0.9451 H   0  0  0  0  0  0  0  0  0  0  0  0
    0.9790   13.1638   -2.1790 H   0  0  0  0  0  0  0  0  0  0  0  0
    0.8954   12.4470   -0.4990 H   0  0  0  0  0  0  0  0  0  0  0  0
    1.9981   14.1807    0.4621 H   0  0  0  0  0  0  0  0  0  0  0  0
    2.9482   14.5455   -1.0384 H   0  0  0  0  0  0  0  0  0  0  0  0
    0.1577   14.8197   -0.5852 H   0  0  0  0  0  0  0  0  0  0  0  0
    2.7641   17.3218    0.6603 H   0  0  0  0  0  0  0  0  0  0  0  0
    3.4878   16.6136   -0.8233 H   0  0  0  0  0  0  0  0  0  0  0  0
    2.9292   18.3208   -0.8233 H   0  0  0  0  0  0  0  0  0  0  0  0
    0.0574   18.0572    0.2953 H   0  0  0  0  0  0  0  0  0  0  0  0
    0.5675   18.8070   -1.2552 H   0  0  0  0  0  0  0  0  0  0  0  0
   -0.6391   17.4763   -1.2552 H   0  0  0  0  0  0  0  0  0  0  0  0
    3.5373   13.1154   -3.0380 H   0  0  0  0  0  0  0  0  0  0  0  0
    5.0405   11.2731   -3.4673 H   0  0  0  0  0  0  0  0  0  0  0  0
    3.8665   10.0769   -2.8777 H   0  0  0  0  0  0  0  0  0  0  0  0
    4.4835   10.5869   -5.6214 H   0  0  0  0  0  0  0  0  0  0  0  0
    3.0705    9.6860   -5.0778 H   0  0  0  0  0  0  0  0  0  0  0  0
    4.1038   13.4323   -4.8737 H   0  0  0  0  0  0  0  0  0  0  0  0
    4.5259   12.5533   -6.3823 H   0  0  0  0  0  0  0  0  0  0  0  0
    3.1793   13.7421   -6.3823 H   0  0  0  0  0  0  0  0  0  0  0  0
    1.1580   10.6620   -6.2001 H   0  0  0  0  0  0  0  0  0  0  0  0
    3.2495   10.6488   -7.7073 H   0  0  0  0  0  0  0  0  0  0  0  0
    1.5575   10.5548   -8.4263 H   0  0  0  0  0  0  0  0  0  0  0  0
    3.2710   12.1192   -9.6762 H   0  0  0  0  0  0  0  0  0  0  0  0
    1.6384   14.5164   -6.8685 H   0  0  0  0  0  0  0  0  0  0  0  0
   -0.6192   14.1008   -8.9233 H   0  0  0  0  0  0  0  0  0  0  0  0
   -0.7015   15.0808   -7.3925 H   0  0  0  0  0  0  0  0  0  0  0  0
   -0.4299   16.5012   -9.4011 H   0  0  0  0  0  0  0  0  0  0  0  0
    0.9617   16.6249   -8.2548 H   0  0  0  0  0  0  0  0  0  0  0  0
    1.8166   16.5159  -10.4955 H   0  0  0  0  0  0  0  0  0  0  0  0
    0.8400   13.9120  -10.9340 H   0  0  0  0  0  0  0  0  0  0  0  0
    3.3572   15.4481   -7.6712 H   0  0  0  0  0  0  0  0  0  0  0  0
    4.5921   15.3747   -8.9736 H   0  0  0  0  0  0  0  0  0  0  0  0
    3.3635   16.6851   -8.9736 H   0  0  0  0  0  0  0  0  0  0  0  0
    4.3424   13.7959  -10.5036 H   0  0  0  0  0  0  0  0  0  0  0  0
    2.8192   13.5994  -11.4352 H   0  0  0  0  0  0  0  0  0  0  0  0
    3.6746   15.1790  -11.4352 H   0  0  0  0  0  0  0  0  0  0  0  0
   -1.3357   11.6260   -6.6760 H   0  0  0  0  0  0  0  0  0  0  0  0
   -1.1586   12.7510   -8.0651 H   0  0  0  0  0  0  0  0  0  0  0  0
   -0.2879   11.1799   -8.0651 H   0  0  0  0  0  0  0  0  0  0  0  0
   -0.3868   14.2223   -5.5314 H   0  0  0  0  0  0  0  0  0  0  0  0
   -0.6640   12.4686   -5.0004 H   0  0  0  0  0  0  0  0  0  0  0  0
    1.7586   14.2058   -4.4514 H   0  0  0  0  0  0  0  0  0  0  0  0
    0.5488   13.5527   -3.2779 H   0  0  0  0  0  0  0  0  0  0  0  0
    0.8752   10.8652   -2.5694 H   0  0  0  0  0  0  0  0  0  0  0  0
   -0.0698   11.1393   -4.0722 H   0  0  0  0  0  0  0  0  0  0  0  0
    1.3005    9.9778   -4.0722 H   0  0  0  0  0  0  0  0  0  0  0  0
  1  2  1  0
  2  3  1  0
  3  4  1  0
  4  5  1  0
  5  6  1  0
  6  7  1  0
  7  8  1  0
  7  9  1  0
  2 10  1  0
 10 11  1  0
 11 12  1  0
 12 13  1  0
 13 14  1  6
 13 15  1  0
 15 16  1  0
 16 17  1  0
 17 18  2  0
 18 19  1  0
 19 20  1  0
 20 21  1  0
 21 22  1  0
 22 23  1  0
 22 24  1  0
 24 25  1  0
 24 26  1  0
 19 27  1  0
 27 28  1  6
 27 29  1  0
 29 30  1  0
 30 31  1  0
 31 32  1  1
  7  5  1  0
 31 10  1  0
 31 13  1  0
 27 15  1  0
 24 18  1  0
  1 33  1  0
  1 34  1  0
  1 35  1  0
  2 36  1  1
  3 37  1  0
  3 38  1  0
  4 39  1  0
  4 40  1  0
  5 41  1  6
  8 42  1  0
  8 43  1  0
  8 44  1  0
  9 45  1  0
  9 46  1  0
  9 47  1  0
 10 48  1  1
 11 49  1  0
 11 50  1  0
 12 51  1  0
 12 52  1  0
 14 53  1  0
 14 54  1  0
 14 55  1  0
 15 56  1  1
 16 57  1  0
 16 58  1  0
 17 59  1  0
 19 60  1  1
 20 61  1  0
 20 62  1  0
 21 63  1  0
 21 64  1  0
 22 65  1  6
 23 66  1  0
 25 67  1  0
 25 68  1  0
 25 69  1  0
 26 70  1  0
 26 71  1  0
 26 72  1  0
 28 73  1  0
 28 74  1  0
 28 75  1  0
 29 76  1  0
 29 77  1  0
 30 78  1  0
 30 79  1  0
 32 80  1  0
 32 81  1  0
 32 82  1  0
M  END
>  <meeko>  (17) 
{"is_sidechain": [false], "intermolecular_energy": 2.731, "internal_energy": -0.839}

$$$$
EPH_relaxed_0001_pdb2pqr_Repair_115_r2_0001_out
     RDKit          3D

 82 86  0  0  0  0  0  0  0  0999 V2000
   -1.8050   10.8030   -1.1620 C   0  0  0  0  0  0  0  0  0  0  0  0
   -0.4460   10.3060   -1.6600 C   0  0  2  0  0  0  0  0  0  0  0  0
    0.4980    9.9350   -0.4990 C   0  0  0  0  0  0  0  0  0  0  0  0
    0.2640   10.7570    0.7710 C   0  0  0  0  0  0  0  0  0  0  0  0
    1.3490   11.7690    0.9840 C   0  0  2  0  0  0  0  0  0  0  0  0
    1.0610   12.7530    1.9860 O   0  0  0  0  0  0  0  0  0  0  0  0
    1.2000   13.2400    0.6420 C   0  0  0  0  0  0  0  0  0  0  0  0
   -0.0670   13.7800    0.0560 C   0  0  0  0  0  0  0  0  0  0  0  0
    2.4380   14.0520    0.4190 C   0  0  0  0  0  0  0  0  0  0  0  0
    0.2040   11.3650   -2.5420 C   0  0  1  0  0  0  0  0  0  0  0  0
    1.4710   11.9860   -1.8960 C   0  0  0  0  0  0  0  0  0  0  0  0
    2.4620   12.2840   -3.0510 C   0  0  0  0  0  0  0  0  0  0  0  0
    1.6160   12.1390   -4.3380 C   0  0  1  0  0  0  0  0  0  0  0  0
    0.8550   13.4950   -4.4720 C   0  0  0  0  0  0  0  0  0  0  0  0
    2.4000   11.7850   -5.6430 C   0  0  2  0  0  0  0  0  0  0  0  0
    3.4290   12.8370   -6.0920 C   0  0  0  0  0  0  0  0  0  0  0  0
    2.9080   13.8820   -7.0230 C   0  0  0  0  0  0  0  0  0  0  0  0
    1.7490   13.8150   -7.7040 C   0  0  0  0  0  0  0  0  0  0  0  0
    0.8730   12.5570   -7.6470 C   0  0  1  0  0  0  0  0  0  0  0  0
    0.4250   12.1730   -9.0820 C   0  0  0  0  0  0  0  0  0  0  0  0
   -0.2570   13.3260   -9.8100 C   0  0  0  0  0  0  0  0  0  0  0  0
    0.6660   14.5390   -9.8980 C   0  0  2  0  0  0  0  0  0  0  0  0
    1.7730   14.2150  -10.7450 O   0  0  0  0  0  0  0  0  0  0  0  0
    1.1900   15.0120   -8.5120 C   0  0  0  0  0  0  0  0  0  0  0  0
    0.0280   15.6430   -7.7050 C   0  0  0  0  0  0  0  0  0  0  0  0
    2.2190   16.1490   -8.7540 C   0  0  0  0  0  0  0  0  0  0  0  0
    1.4800   11.3250   -6.8470 C   0  0  1  0  0  0  0  0  0  0  0  0
    2.3780   10.4680   -7.7900 C   0  0  0  0  0  0  0  0  0  0  0  0
    0.3050   10.3880   -6.3780 C   0  0  0  0  0  0  0  0  0  0  0  0
   -0.3490   10.7180   -5.0230 C   0  0  0  0  0  0  0  0  0  0  0  0
    0.7120   10.9170   -3.9360 C   0  0  2  0  0  0  0  0  0  0  0  0
    1.4790    9.5620   -3.7630 C   0  0  0  0  0  0  0  0  0  0  0  0
   -1.8137   10.8062   -0.0620 H   0  0  0  0  0  0  0  0  0  0  0  0
   -1.9806   11.8235   -1.5330 H   0  0  0  0  0  0  0  0  0  0  0  0
   -2.5976   10.1365   -1.5330 H   0  0  0  0  0  0  0  0  0  0  0  0
   -0.6229    9.3921   -2.2461 H   0  0  0  0  0  0  0  0  0  0  0  0
    0.3499    8.8722   -0.2570 H   0  0  0  0  0  0  0  0  0  0  0  0
    1.5226   10.1497   -0.8367 H   0  0  0  0  0  0  0  0  0  0  0  0
   -0.6996   11.2803    0.6844 H   0  0  0  0  0  0  0  0  0  0  0  0
    0.2632   10.0692    1.6294 H   0  0  0  0  0  0  0  0  0  0  0  0
    2.1222   11.0278    0.7334 H   0  0  0  0  0  0  0  0  0  0  0  0
   -0.7509   14.0715    0.8667 H   0  0  0  0  0  0  0  0  0  0  0  0
    0.1615   14.6589   -0.5647 H   0  0  0  0  0  0  0  0  0  0  0  0
   -0.5428   13.0065   -0.5647 H   0  0  0  0  0  0  0  0  0  0  0  0
    2.8703   14.3356    1.3899 H   0  0  0  0  0  0  0  0  0  0  0  0
    3.1692   13.4575   -0.1484 H   0  0  0  0  0  0  0  0  0  0  0  0
    2.1840   14.9595   -0.1484 H   0  0  0  0  0  0  0  0  0  0  0  0
   -0.6447   12.0555   -2.6551 H   0  0  0  0  0  0  0  0  0  0  0  0
    1.2108   12.9167   -1.3705 H   0  0  0  0  0  0  0  0  0  0  0  0
    1.9163   11.2995   -1.1608 H   0  0  0  0  0  0  0  0  0  0  0  0
    2.8647   13.3039   -2.9638 H   0  0  0  0  0  0  0  0  0  0  0  0
    3.3284   11.6063   -3.0427 H   0  0  0  0  0  0  0  0  0  0  0  0
    0.6326   13.8912   -3.4702 H   0  0  0  0  0  0  0  0  0  0  0  0
    1.4812   14.2143   -5.0201 H   0  0  0  0  0  0  0  0  0  0  0  0
   -0.0852   13.3352   -5.0201 H   0  0  0  0  0  0  0  0  0  0  0  0
    2.9864   10.9067   -5.3352 H   0  0  0  0  0  0  0  0  0  0  0  0
    3.8122   13.3428   -5.1935 H   0  0  0  0  0  0  0  0  0  0  0  0
    4.2009   12.2883   -6.6516 H   0  0  0  0  0  0  0  0  0  0  0  0
    3.5235   14.7827   -7.1641 H   0  0  0  0  0  0  0  0  0  0  0  0
   -0.0049   12.8247   -7.0407 H   0  0  0  0  0  0  0  0  0  0  0  0
    1.3109   11.8671   -9.6579 H   0  0  0  0  0  0  0  0  0  0  0  0
   -0.3046   11.3543   -8.9960 H   0  0  0  0  0  0  0  0  0  0  0  0
   -0.5235   13.0021  -10.8269 H   0  0  0  0  0  0  0  0  0  0  0  0
   -1.1586   13.6113   -9.2481 H   0  0  0  0  0  0  0  0  0  0  0  0
    0.0784   15.3715  -10.3124 H   0  0  0  0  0  0  0  0  0  0  0  0
    1.6070   13.3350  -11.1220 H   0  0  0  0  0  0  0  0  0  0  0  0
    0.2277   15.5345   -6.6287 H   0  0  0  0  0  0  0  0  0  0  0  0
   -0.0558   16.7106   -7.9566 H   0  0  0  0  0  0  0  0  0  0  0  0
   -0.9130   15.1320   -7.9566 H   0  0  0  0  0  0  0  0  0  0  0  0
    2.5705   16.5374   -7.7867 H   0  0  0  0  0  0  0  0  0  0  0  0
    3.0737   15.7549   -9.3234 H   0  0  0  0  0  0  0  0  0  0  0  0
    1.7419   16.9603   -9.3234 H   0  0  0  0  0  0  0  0  0  0  0  0
    3.0431    9.8333   -7.1860 H   0  0  0  0  0  0  0  0  0  0  0  0
    1.7422    9.8332   -8.4247 H   0  0  0  0  0  0  0  0  0  0  0  0
    2.9824   11.1327   -8.4247 H   0  0  0  0  0  0  0  0  0  0  0  0
   -0.4813   10.4308   -7.1460 H   0  0  0  0  0  0  0  0  0  0  0  0
    0.7639    9.3976   -6.2421 H   0  0  0  0  0  0  0  0  0  0  0  0
   -0.9388   11.6411   -5.1234 H   0  0  0  0  0  0  0  0  0  0  0  0
   -0.9960    9.8774   -4.7319 H   0  0  0  0  0  0  0  0  0  0  0  0
    1.6021    9.3445   -2.6918 H   0  0  0  0  0  0  0  0  0  0  0  0
    0.9051    8.7526   -4.2379 H   0  0  0  0  0  0  0  0  0  0  0  0
    2.4683    9.6375   -4.2379 H   0  0  0  0  0  0  0  0  0  0  0  0
  1  2  1  0
  2  3  1  0
  3  4  1  0
  4  5  1  0
  5  6  1  0
  6  7  1  0
  7  8  1  0
  7  9  1  0
  2 10  1  0
 10 11  1  0
 11 12  1  0
 12 13  1  0
 13 14  1  6
 13 15  1  0
 15 16  1  0
 16 17  1  0
 17 18  2  0
 18 19  1  0
 19 20  1  0
 20 21  1  0
 21 22  1  0
 22 23  1  0
 22 24  1  0
 24 25  1  0
 24 26  1  0
 19 27  1  0
 27 28  1  6
 27 29  1  0
 29 30  1  0
 30 31  1  0
 31 32  1  1
  7  5  1  0
 31 10  1  0
 31 13  1  0
 27 15  1  0
 24 18  1  0
  1 33  1  0
  1 34  1  0
  1 35  1  0
  2 36  1  6
  3 37  1  0
  3 38  1  0
  4 39  1  0
  4 40  1  0
  5 41  1  1
  8 42  1  0
  8 43  1  0
  8 44  1  0
  9 45  1  0
  9 46  1  0
  9 47  1  0
 10 48  1  6
 11 49  1  0
 11 50  1  0
 12 51  1  0
 12 52  1  0
 14 53  1  0
 14 54  1  0
 14 55  1  0
 15 56  1  1
 16 57  1  0
 16 58  1  0
 17 59  1  0
 19 60  1  1
 20 61  1  0
 20 62  1  0
 21 63  1  0
 21 64  1  0
 22 65  1  6
 23 66  1  0
 25 67  1  0
 25 68  1  0
 25 69  1  0
 26 70  1  0
 26 71  1  0
 26 72  1  0
 28 73  1  0
 28 74  1  0
 28 75  1  0
 29 76  1  0
 29 77  1  0
 30 78  1  0
 30 79  1  0
 32 80  1  0
 32 81  1  0
 32 82  1  0
M  END
>  <meeko>  (18) 
{"is_sidechain": [false], "intermolecular_energy": 2.731, "internal_energy": -0.839}

$$$$
EPH_relaxed_0001_pdb2pqr_Repair_115_r2_0001_out
     RDKit          3D

 82 86  0  0  0  0  0  0  0  0999 V2000
   -1.3820   11.1850   -0.7580 C   0  0  0  0  0  0  0  0  0  0  0  0
    0.1000   10.8890   -1.0020 C   0  0  2  0  0  0  0  0  0  0  0  0
    0.9300   10.9730    0.2950 C   0  0  0  0  0  0  0  0  0  0  0  0
    0.1460   10.5900    1.5530 C   0  0  0  0  0  0  0  0  0  0  0  0
   -0.4010   11.7970    2.2540 C   0  0  2  0  0  0  0  0  0  0  0  0
    0.3600   12.9970    2.0620 O   0  0  0  0  0  0  0  0  0  0  0  0
    0.3070   12.4880    3.4050 C   0  0  0  0  0  0  0  0  0  0  0  0
    1.6220   11.9950    3.9220 C   0  0  0  0  0  0  0  0  0  0  0  0
   -0.5030   13.3330    4.3380 C   0  0  0  0  0  0  0  0  0  0  0  0
    0.6590   11.8540   -2.0410 C   0  0  1  0  0  0  0  0  0  0  0  0
    1.9610   12.5540   -1.5680 C   0  0  0  0  0  0  0  0  0  0  0  0
    2.8530   12.7360   -2.8220 C   0  0  0  0  0  0  0  0  0  0  0  0
    1.9130   12.4430   -4.0150 C   0  0  1  0  0  0  0  0  0  0  0  0
    1.1170   13.7680   -4.2340 C   0  0  0  0  0  0  0  0  0  0  0  0
    2.5990   11.9580   -5.3330 C   0  0  2  0  0  0  0  0  0  0  0  0
    3.5700   12.9660   -5.9730 C   0  0  0  0  0  0  0  0  0  0  0  0
    2.9590   13.8980   -6.9660 C   0  0  0  0  0  0  0  0  0  0  0  0
    1.7520   13.7450   -7.5420 C   0  0  0  0  0  0  0  0  0  0  0  0
    0.9070   12.4910   -7.2810 C   0  0  1  0  0  0  0  0  0  0  0  0
    0.3570   11.9490   -8.6260 C   0  0  0  0  0  0  0  0  0  0  0  0
   -0.4020   13.0090   -9.4180 C   0  0  0  0  0  0  0  0  0  0  0  0
    0.4880   14.2150   -9.7080 C   0  0  2  0  0  0  0  0  0  0  0  0
    1.5320   13.8130  -10.6010 O   0  0  0  0  0  0  0  0  0  0  0  0
    1.1080   14.8410   -8.4270 C   0  0  0  0  0  0  0  0  0  0  0  0
    0.0010   15.5430   -7.6030 C   0  0  0  0  0  0  0  0  0  0  0  0
    2.0930   15.9560   -8.8700 C   0  0  0  0  0  0  0  0  0  0  0  0
    1.5980   11.3610   -6.4040 C   0  0  1  0  0  0  0  0  0  0  0  0
    2.4360   10.4150   -7.3180 C   0  0  0  0  0  0  0  0  0  0  0  0
    0.4820   10.4670   -5.7450 C   0  0  0  0  0  0  0  0  0  0  0  0
   -0.0720   10.9350   -4.3860 C   0  0  0  0  0  0  0  0  0  0  0  0
    1.0660   11.2620   -3.4140 C   0  0  2  0  0  0  0  0  0  0  0  0
    1.8700    9.9430   -3.1580 C   0  0  0  0  0  0  0  0  0  0  0  0
   -1.5749   11.2235    0.3243 H   0  0  0  0  0  0  0  0  0  0  0  0
   -1.6421   12.1528   -1.2115 H   0  0  0  0  0  0  0  0  0  0  0  0
   -1.9939   10.3913   -1.2115 H   0  0  0  0  0  0  0  0  0  0  0  0
    0.1740    9.8570   -1.3754 H   0  0  0  0  0  0  0  0  0  0  0  0
    1.7901   10.2937    0.2015 H   0  0  0  0  0  0  0  0  0  0  0  0
    1.2356   12.0230    0.4138 H   0  0  0  0  0  0  0  0  0  0  0  0
   -0.6898    9.9348    1.2665 H   0  0  0  0  0  0  0  0  0  0  0  0
    0.8323   10.0751    2.2414 H   0  0  0  0  0  0  0  0  0  0  0  0
   -1.4307   11.4288    2.1354 H   0  0  0  0  0  0  0  0  0  0  0  0
    1.6087   12.0000    5.0219 H   0  0  0  0  0  0  0  0  0  0  0  0
    1.7966   10.9703    3.5621 H   0  0  0  0  0  0  0  0  0  0  0  0
    2.4272   12.6523    3.5621 H   0  0  0  0  0  0  0  0  0  0  0  0
   -0.2541   13.0733    5.3775 H   0  0  0  0  0  0  0  0  0  0  0  0
   -0.2767   14.3948    4.1611 H   0  0  0  0  0  0  0  0  0  0  0  0
   -1.5734   13.1518    4.1611 H   0  0  0  0  0  0  0  0  0  0  0  0
   -0.2084   12.5200   -2.1595 H   0  0  0  0  0  0  0  0  0  0  0  0
    1.7252   13.5332   -1.1258 H   0  0  0  0  0  0  0  0  0  0  0  0
    2.4750   11.9550   -0.8018 H   0  0  0  0  0  0  0  0  0  0  0  0
    3.2411   13.7638   -2.8767 H   0  0  0  0  0  0  0  0  0  0  0  0
    3.7306   12.0729   -2.8096 H   0  0  0  0  0  0  0  0  0  0  0  0
    0.8551   14.2039   -3.2586 H   0  0  0  0  0  0  0  0  0  0  0  0
    1.7374   14.4794   -4.7989 H   0  0  0  0  0  0  0  0  0  0  0  0
    0.1976   13.5543   -4.7989 H   0  0  0  0  0  0  0  0  0  0  0  0
    3.2234   11.1242   -4.9796 H   0  0  0  0  0  0  0  0  0  0  0  0
    4.0124   13.5702   -5.1673 H   0  0  0  0  0  0  0  0  0  0  0  0
    4.3059   12.3677   -6.5302 H   0  0  0  0  0  0  0  0  0  0  0  0
    3.5444   14.7846   -7.2511 H   0  0  0  0  0  0  0  0  0  0  0  0
    0.0732   12.8129   -6.6398 H   0  0  0  0  0  0  0  0  0  0  0  0
    1.2014   11.5921   -9.2339 H   0  0  0  0  0  0  0  0  0  0  0  0
   -0.3479   11.1367   -8.3951 H   0  0  0  0  0  0  0  0  0  0  0  0
   -0.7399   12.5737  -10.3700 H   0  0  0  0  0  0  0  0  0  0  0  0
   -1.2631   13.3437   -8.8209 H   0  0  0  0  0  0  0  0  0  0  0  0
   -0.1456   14.9916  -10.1613 H   0  0  0  0  0  0  0  0  0  0  0  0
    2.3800   13.9910  -10.1600 H   0  0  0  0  0  0  0  0  0  0  0  0
    0.2050   15.4137   -6.5298 H   0  0  0  0  0  0  0  0  0  0  0  0
   -0.0132   16.6155   -7.8469 H   0  0  0  0  0  0  0  0  0  0  0  0
   -0.9752   15.0986   -7.8469 H   0  0  0  0  0  0  0  0  0  0  0  0
    2.5216   16.4412   -7.9807 H   0  0  0  0  0  0  0  0  0  0  0  0
    2.9008   15.5138   -9.4716 H   0  0  0  0  0  0  0  0  0  0  0  0
    1.5546   16.7031   -9.4716 H   0  0  0  0  0  0  0  0  0  0  0  0
    3.0360    9.7377   -6.6925 H   0  0  0  0  0  0  0  0  0  0  0  0
    1.7592    9.8245   -7.9531 H   0  0  0  0  0  0  0  0  0  0  0  0
    3.1038   11.0156   -7.9531 H   0  0  0  0  0  0  0  0  0  0  0  0
   -0.3621   10.4164   -6.4486 H   0  0  0  0  0  0  0  0  0  0  0  0
    0.9703    9.5030   -5.5396 H   0  0  0  0  0  0  0  0  0  0  0  0
   -0.6854   11.8354   -4.5381 H   0  0  0  0  0  0  0  0  0  0  0  0
   -0.6787   10.1243   -3.9562 H   0  0  0  0  0  0  0  0  0  0  0  0
    1.9700    9.7789   -2.0749 H   0  0  0  0  0  0  0  0  0  0  0  0
    1.3355    9.0943   -3.6096 H   0  0  0  0  0  0  0  0  0  0  0  0
    2.8693   10.0292   -3.6096 H   0  0  0  0  0  0  0  0  0  0  0  0
  1  2  1  0
  2  3  1  0
  3  4  1  0
  4  5  1  0
  5  6  1  0
  6  7  1  0
  7  8  1  0
  7  9  1  0
  2 10  1  0
 10 11  1  0
 11 12  1  0
 12 13  1  0
 13 14  1  6
 13 15  1  0
 15 16  1  0
 16 17  1  0
 17 18  2  0
 18 19  1  0
 19 20  1  0
 20 21  1  0
 21 22  1  0
 22 23  1  0
 22 24  1  0
 24 25  1  0
 24 26  1  0
 19 27  1  0
 27 28  1  6
 27 29  1  0
 29 30  1  0
 30 31  1  0
 31 32  1  1
  7  5  1  0
 31 10  1  0
 31 13  1  0
 27 15  1  0
 24 18  1  0
  1 33  1  0
  1 34  1  0
  1 35  1  0
  2 36  1  6
  3 37  1  0
  3 38  1  0
  4 39  1  0
  4 40  1  0
  5 41  1  1
  8 42  1  0
  8 43  1  0
  8 44  1  0
  9 45  1  0
  9 46  1  0
  9 47  1  0
 10 48  1  6
 11 49  1  0
 11 50  1  0
 12 51  1  0
 12 52  1  0
 14 53  1  0
 14 54  1  0
 14 55  1  0
 15 56  1  1
 16 57  1  0
 16 58  1  0
 17 59  1  0
 19 60  1  1
 20 61  1  0
 20 62  1  0
 21 63  1  0
 21 64  1  0
 22 65  1  6
 23 66  1  0
 25 67  1  0
 25 68  1  0
 25 69  1  0
 26 70  1  0
 26 71  1  0
 26 72  1  0
 28 73  1  0
 28 74  1  0
 28 75  1  0
 29 76  1  0
 29 77  1  0
 30 78  1  0
 30 79  1  0
 32 80  1  0
 32 81  1  0
 32 82  1  0
M  END
>  <meeko>  (19) 
{"is_sidechain": [false], "intermolecular_energy": 2.731, "internal_energy": -0.839}

$$$$
