EPH_relaxed_0001_pdb2pqr_Repair_83_r2_0001_out
     RDKit          3D

 82 86  0  0  0  0  0  0  0  0999 V2000
   -1.4600    8.5420   -1.8060 C   0  0  0  0  0  0  0  0  0  0  0  0
   -1.8330    9.0790   -0.4220 C   0  0  2  0  0  0  0  0  0  0  0  0
   -3.3330    9.4230   -0.3170 C   0  0  0  0  0  0  0  0  0  0  0  0
   -4.2530    8.2030   -0.4200 C   0  0  0  0  0  0  0  0  0  0  0  0
   -4.7720    8.0170   -1.8140 C   0  0  2  0  0  0  0  0  0  0  0  0
   -6.1360    7.5840   -1.8920 O   0  0  0  0  0  0  0  0  0  0  0  0
   -5.1500    6.6660   -2.3920 C   0  0  0  0  0  0  0  0  0  0  0  0
   -5.0240    5.4100   -1.5880 C   0  0  0  0  0  0  0  0  0  0  0  0
   -5.1760    6.5060   -3.8800 C   0  0  0  0  0  0  0  0  0  0  0  0
   -0.9930   10.3080   -0.0970 C   0  0  1  0  0  0  0  0  0  0  0  0
    0.0910   10.0240    0.9770 C   0  0  0  0  0  0  0  0  0  0  0  0
    1.3240   10.8880    0.6070 C   0  0  0  0  0  0  0  0  0  0  0  0
    0.8010   11.8780   -0.4600 C   0  0  1  0  0  0  0  0  0  0  0  0
    0.0960   13.0090    0.3540 C   0  0  0  0  0  0  0  0  0  0  0  0
    1.8670   12.4560   -1.4470 C   0  0  2  0  0  0  0  0  0  0  0  0
    2.9750   13.2980   -0.7910 C   0  0  0  0  0  0  0  0  0  0  0  0
    2.6890   14.7590   -0.6880 C   0  0  0  0  0  0  0  0  0  0  0  0
    1.7210   15.4160   -1.3530 C   0  0  0  0  0  0  0  0  0  0  0  0
    0.8520   14.6960   -2.3930 C   0  0  1  0  0  0  0  0  0  0  0  0
    0.7500   15.5650   -3.6740 C   0  0  0  0  0  0  0  0  0  0  0  0
    0.2600   16.9800   -3.3830 C   0  0  0  0  0  0  0  0  0  0  0  0
    1.1820   17.6830   -2.3910 C   0  0  2  0  0  0  0  0  0  0  0  0
    2.4540   17.8910   -3.0110 O   0  0  0  0  0  0  0  0  0  0  0  0
    1.3690   16.8960   -1.0640 C   0  0  0  0  0  0  0  0  0  0  0  0
    0.0530   16.9310   -0.2470 C   0  0  0  0  0  0  0  0  0  0  0  0
    2.4290   17.6430   -0.2100 C   0  0  0  0  0  0  0  0  0  0  0  0
    1.2520   13.1900   -2.7070 C   0  0  1  0  0  0  0  0  0  0  0  0
    2.3430   13.1500   -3.8210 C   0  0  0  0  0  0  0  0  0  0  0  0
   -0.0020   12.4350   -3.2860 C   0  0  0  0  0  0  0  0  0  0  0  0
   -0.9530   11.7830   -2.2650 C   0  0  0  0  0  0  0  0  0  0  0  0
   -0.1750   10.9360   -1.2540 C   0  0  2  0  0  0  0  0  0  0  0  0
    0.5270    9.7770   -2.0400 C   0  0  0  0  0  0  0  0  0  0  0  0
   -0.8357    7.6432   -1.6945 H   0  0  0  0  0  0  0  0  0  0  0  0
   -2.3758    8.2861   -2.3590 H   0  0  0  0  0  0  0  0  0  0  0  0
   -0.9005    9.3108   -2.3590 H   0  0  0  0  0  0  0  0  0  0  0  0
   -1.6249    8.2831    0.3083 H   0  0  0  0  0  0  0  0  0  0  0  0
   -3.5104    9.9108    0.6528 H   0  0  0  0  0  0  0  0  0  0  0  0
   -3.5726   10.0790   -1.1668 H   0  0  0  0  0  0  0  0  0  0  0  0
   -3.6890    7.3053   -0.1267 H   0  0  0  0  0  0  0  0  0  0  0  0
   -5.1123    8.3638    0.2476 H   0  0  0  0  0  0  0  0  0  0  0  0
   -4.1258    8.8249   -2.1879 H   0  0  0  0  0  0  0  0  0  0  0  0
   -5.0487    5.6566   -0.5163 H   0  0  0  0  0  0  0  0  0  0  0  0
   -5.8590    4.7354   -1.8284 H   0  0  0  0  0  0  0  0  0  0  0  0
   -4.0717    4.9148   -1.8284 H   0  0  0  0  0  0  0  0  0  0  0  0
   -5.3477    5.4492   -4.1322 H   0  0  0  0  0  0  0  0  0  0  0  0
   -5.9862    7.1197   -4.3007 H   0  0  0  0  0  0  0  0  0  0  0  0
   -4.2132    6.8316   -4.3007 H   0  0  0  0  0  0  0  0  0  0  0  0
   -1.7895   10.9977    0.2191 H   0  0  0  0  0  0  0  0  0  0  0  0
   -0.2813   10.3024    1.9739 H   0  0  0  0  0  0  0  0  0  0  0  0
    0.3508    8.9555    1.0031 H   0  0  0  0  0  0  0  0  0  0  0  0
    1.6976   11.4292    1.4888 H   0  0  0  0  0  0  0  0  0  0  0  0
    2.1629   10.2805    0.2367 H   0  0  0  0  0  0  0  0  0  0  0  0
    0.2164   12.8158    1.4302 H   0  0  0  0  0  0  0  0  0  0  0  0
    0.5497   13.9790    0.1026 H   0  0  0  0  0  0  0  0  0  0  0  0
   -0.9747   13.0288    0.1026 H   0  0  0  0  0  0  0  0  0  0  0  0
    2.3633   11.5470   -1.8176 H   0  0  0  0  0  0  0  0  0  0  0  0
    3.1389   12.9113    0.2256 H   0  0  0  0  0  0  0  0  0  0  0  0
    3.8548   13.2055   -1.4448 H   0  0  0  0  0  0  0  0  0  0  0  0
    3.3236   15.3493   -0.0107 H   0  0  0  0  0  0  0  0  0  0  0  0
   -0.1427   14.5877   -1.9359 H   0  0  0  0  0  0  0  0  0  0  0  0
    1.7448   15.6250   -4.1396 H   0  0  0  0  0  0  0  0  0  0  0  0
    0.0181   15.0890   -4.3432 H   0  0  0  0  0  0  0  0  0  0  0  0
    0.2370   17.5532   -4.3216 H   0  0  0  0  0  0  0  0  0  0  0  0
   -0.7470   16.9197   -2.9445 H   0  0  0  0  0  0  0  0  0  0  0  0
    0.7099   18.6398   -2.1235 H   0  0  0  0  0  0  0  0  0  0  0  0
    2.5140   17.2860   -3.7700 H   0  0  0  0  0  0  0  0  0  0  0  0
    0.2882   16.9247    0.8275 H   0  0  0  0  0  0  0  0  0  0  0  0
   -0.5079   17.8444   -0.4942 H   0  0  0  0  0  0  0  0  0  0  0  0
   -0.5557   16.0487   -0.4942 H   0  0  0  0  0  0  0  0  0  0  0  0
    2.2131   17.4908    0.8578 H   0  0  0  0  0  0  0  0  0  0  0  0
    3.4298   17.2495   -0.4414 H   0  0  0  0  0  0  0  0  0  0  0  0
    2.3951   18.7178   -0.4414 H   0  0  0  0  0  0  0  0  0  0  0  0
    3.3397   13.1135   -3.3570 H   0  0  0  0  0  0  0  0  0  0  0  0
    2.1965   12.2566   -4.4458 H   0  0  0  0  0  0  0  0  0  0  0  0
    2.2623   14.0517   -4.4458 H   0  0  0  0  0  0  0  0  0  0  0  0
   -0.5873   13.1609   -3.8695 H   0  0  0  0  0  0  0  0  0  0  0  0
    0.4100   11.5989   -3.8701 H   0  0  0  0  0  0  0  0  0  0  0  0
   -1.5000   12.5719   -1.7280 H   0  0  0  0  0  0  0  0  0  0  0  0
   -1.6527   11.1288   -2.8057 H   0  0  0  0  0  0  0  0  0  0  0  0
    0.9609    9.0606   -1.3269 H   0  0  0  0  0  0  0  0  0  0  0  0
   -0.2117    9.2630   -2.6725 H   0  0  0  0  0  0  0  0  0  0  0  0
    1.3247   10.1936   -2.6725 H   0  0  0  0  0  0  0  0  0  0  0  0
  1  2  1  0
  2  3  1  0
  3  4  1  0
  4  5  1  0
  5  6  1  0
  6  7  1  0
  7  8  1  0
  7  9  1  0
  2 10  1  0
 10 11  1  0
 11 12  1  0
 12 13  1  0
 13 14  1  1
 13 15  1  0
 15 16  1  0
 16 17  1  0
 17 18  2  0
 18 19  1  0
 19 20  1  0
 20 21  1  0
 21 22  1  0
 22 23  1  0
 22 24  1  0
 24 25  1  0
 24 26  1  0
 19 27  1  0
 27 28  1  6
 27 29  1  0
 29 30  1  0
 30 31  1  0
 31 32  1  6
  7  5  1  0
 31 10  1  0
 31 13  1  0
 27 15  1  0
 24 18  1  0
  1 33  1  0
  1 34  1  0
  1 35  1  0
  2 36  1  1
  3 37  1  0
  3 38  1  0
  4 39  1  0
  4 40  1  0
  5 41  1  6
  8 42  1  0
  8 43  1  0
  8 44  1  0
  9 45  1  0
  9 46  1  0
  9 47  1  0
 10 48  1  1
 11 49  1  0
 11 50  1  0
 12 51  1  0
 12 52  1  0
 14 53  1  0
 14 54  1  0
 14 55  1  0
 15 56  1  6
 16 57  1  0
 16 58  1  0
 17 59  1  0
 19 60  1  1
 20 61  1  0
 20 62  1  0
 21 63  1  0
 21 64  1  0
 22 65  1  1
 23 66  1  0
 25 67  1  0
 25 68  1  0
 25 69  1  0
 26 70  1  0
 26 71  1  0
 26 72  1  0
 28 73  1  0
 28 74  1  0
 28 75  1  0
 29 76  1  0
 29 77  1  0
 30 78  1  0
 30 79  1  0
 32 80  1  0
 32 81  1  0
 32 82  1  0
M  END
>  <meeko>  (1) 
{"is_sidechain": [false], "intermolecular_energy": 2.731, "internal_energy": -0.839}

$$$$
EPH_relaxed_0001_pdb2pqr_Repair_83_r2_0001_out
     RDKit          3D

 82 86  0  0  0  0  0  0  0  0999 V2000
    4.1930   17.5560   -0.5700 C   0  0  0  0  0  0  0  0  0  0  0  0
    2.8390   18.1040   -0.1100 C   0  0  2  0  0  0  0  0  0  0  0  0
    2.9160   18.7360    1.2940 C   0  0  0  0  0  0  0  0  0  0  0  0
    4.3420   18.8560    1.8390 C   0  0  0  0  0  0  0  0  0  0  0  0
    4.3570   19.3820    3.2420 C   0  0  2  0  0  0  0  0  0  0  0  0
    5.4930   20.1940    3.5640 O   0  0  0  0  0  0  0  0  0  0  0  0
    5.3740   18.9570    4.2840 C   0  0  0  0  0  0  0  0  0  0  0  0
    6.4470   17.9620    3.9670 C   0  0  0  0  0  0  0  0  0  0  0  0
    5.0320   19.1310    5.7310 C   0  0  0  0  0  0  0  0  0  0  0  0
    1.7960   16.9930   -0.1250 C   0  0  1  0  0  0  0  0  0  0  0  0
    0.3700   17.5170   -0.4420 C   0  0  0  0  0  0  0  0  0  0  0  0
   -0.3390   16.4130   -1.2690 C   0  0  0  0  0  0  0  0  0  0  0  0
    0.5690   15.1700   -1.1190 C   0  0  1  0  0  0  0  0  0  0  0  0
    0.1850   14.5570    0.2640 C   0  0  0  0  0  0  0  0  0  0  0  0
    0.4840   14.1090   -2.2640 C   0  0  2  0  0  0  0  0  0  0  0  0
   -0.8920   13.4420   -2.4340 C   0  0  0  0  0  0  0  0  0  0  0  0
   -1.0970   12.1920   -1.6430 C   0  0  0  0  0  0  0  0  0  0  0  0
   -0.1250   11.4720   -1.0530 C   0  0  0  0  0  0  0  0  0  0  0  0
    1.3520   11.8450   -1.2340 C   0  0  1  0  0  0  0  0  0  0  0  0
    2.1720   10.5700   -1.5620 C   0  0  0  0  0  0  0  0  0  0  0  0
    1.9720    9.4640   -0.5300 C   0  0  0  0  0  0  0  0  0  0  0  0
    0.4990    9.0810   -0.4210 C   0  0  2  0  0  0  0  0  0  0  0  0
    0.0890    8.4710   -1.6490 O   0  0  0  0  0  0  0  0  0  0  0  0
   -0.4270   10.2880   -0.1020 C   0  0  0  0  0  0  0  0  0  0  0  0
   -0.1860   10.7590    1.3530 C   0  0  0  0  0  0  0  0  0  0  0  0
   -1.8970    9.7910   -0.1600 C   0  0  0  0  0  0  0  0  0  0  0  0
    1.6470   13.0370   -2.2430 C   0  0  1  0  0  0  0  0  0  0  0  0
    1.7710   12.4860   -3.6970 C   0  0  0  0  0  0  0  0  0  0  0  0
    3.0430   13.6760   -1.8910 C   0  0  0  0  0  0  0  0  0  0  0  0
    3.0460   14.8010   -0.8390 C   0  0  0  0  0  0  0  0  0  0  0  0
    1.9830   15.8560   -1.1610 C   0  0  2  0  0  0  0  0  0  0  0  0
    2.3560   16.5060   -2.5370 C   0  0  0  0  0  0  0  0  0  0  0  0
    4.8059   17.3079    0.3091 H   0  0  0  0  0  0  0  0  0  0  0  0
    4.0359   16.6507   -1.1747 H   0  0  0  0  0  0  0  0  0  0  0  0
    4.7098   18.3158   -1.1747 H   0  0  0  0  0  0  0  0  0  0  0  0
    2.5464   18.8972   -0.8137 H   0  0  0  0  0  0  0  0  0  0  0  0
    2.4770   19.7435    1.2456 H   0  0  0  0  0  0  0  0  0  0  0  0
    2.3667   18.0704    1.9761 H   0  0  0  0  0  0  0  0  0  0  0  0
    4.8134   17.8622    1.8259 H   0  0  0  0  0  0  0  0  0  0  0  0
    4.8940   19.5628    1.2020 H   0  0  0  0  0  0  0  0  0  0  0  0
    3.2582   19.4308    3.2606 H   0  0  0  0  0  0  0  0  0  0  0  0
    6.8708   17.5690    4.9030 H   0  0  0  0  0  0  0  0  0  0  0  0
    6.0186   17.1344    3.3826 H   0  0  0  0  0  0  0  0  0  0  0  0
    7.2400   18.4516    3.3826 H   0  0  0  0  0  0  0  0  0  0  0  0
    5.8417   18.7191    6.3512 H   0  0  0  0  0  0  0  0  0  0  0  0
    4.9088   20.2014    5.9525 H   0  0  0  0  0  0  0  0  0  0  0  0
    4.0942   18.6004    5.9525 H   0  0  0  0  0  0  0  0  0  0  0  0
    1.9303   16.6001    0.8936 H   0  0  0  0  0  0  0  0  0  0  0  0
   -0.1811   17.7038    0.4915 H   0  0  0  0  0  0  0  0  0  0  0  0
    0.4123   18.4634   -1.0011 H   0  0  0  0  0  0  0  0  0  0  0  0
   -1.3430   16.2113   -0.8674 H   0  0  0  0  0  0  0  0  0  0  0  0
   -0.4779   16.7038   -2.3207 H   0  0  0  0  0  0  0  0  0  0  0  0
    0.5826   15.1918    1.0696 H   0  0  0  0  0  0  0  0  0  0  0  0
   -0.9103   14.5004    0.3486 H   0  0  0  0  0  0  0  0  0  0  0  0
    0.6120   13.5468    0.3486 H   0  0  0  0  0  0  0  0  0  0  0  0
    0.6326   14.7225   -3.1649 H   0  0  0  0  0  0  0  0  0  0  0  0
   -1.6611   14.1670   -2.1294 H   0  0  0  0  0  0  0  0  0  0  0  0
   -0.9587   13.1472   -3.4917 H   0  0  0  0  0  0  0  0  0  0  0  0
   -2.1296   11.8291   -1.5333 H   0  0  0  0  0  0  0  0  0  0  0  0
    1.6807   12.2619   -0.2706 H   0  0  0  0  0  0  0  0  0  0  0  0
    1.8596   10.1936   -2.5473 H   0  0  0  0  0  0  0  0  0  0  0  0
    3.2367   10.8463   -1.5531 H   0  0  0  0  0  0  0  0  0  0  0  0
    2.5526    8.5800   -0.8324 H   0  0  0  0  0  0  0  0  0  0  0  0
    2.3131    9.8311    0.4492 H   0  0  0  0  0  0  0  0  0  0  0  0
    0.4022    8.3811    0.4221 H   0  0  0  0  0  0  0  0  0  0  0  0
   -0.8830    8.4880   -1.6760 H   0  0  0  0  0  0  0  0  0  0  0  0
   -0.5729   10.0029    2.0520 H   0  0  0  0  0  0  0  0  0  0  0  0
    0.8926   10.8953    1.5204 H   0  0  0  0  0  0  0  0  0  0  0  0
   -0.7065   11.7135    1.5204 H   0  0  0  0  0  0  0  0  0  0  0  0
   -2.2808    9.6612    0.8627 H   0  0  0  0  0  0  0  0  0  0  0  0
   -2.5134   10.5307   -0.6919 H   0  0  0  0  0  0  0  0  0  0  0  0
   -1.9381    8.8290   -0.6919 H   0  0  0  0  0  0  0  0  0  0  0  0
    2.0124   11.4133   -3.6633 H   0  0  0  0  0  0  0  0  0  0  0  0
    0.8178   12.6309   -4.2265 H   0  0  0  0  0  0  0  0  0  0  0  0
    2.5703   13.0252   -4.2265 H   0  0  0  0  0  0  0  0  0  0  0  0
    3.6934   12.8707   -1.5189 H   0  0  0  0  0  0  0  0  0  0  0  0
    3.3851   14.1515   -2.8221 H   0  0  0  0  0  0  0  0  0  0  0  0
    2.8359   14.3689    0.1505 H   0  0  0  0  0  0  0  0  0  0  0  0
    4.0338   15.2850   -0.8461 H   0  0  0  0  0  0  0  0  0  0  0  0
    2.8966   17.4481   -2.3630 H   0  0  0  0  0  0  0  0  0  0  0  0
    2.9956   15.8161   -3.1070 H   0  0  0  0  0  0  0  0  0  0  0  0
    1.4376   16.7102   -3.1070 H   0  0  0  0  0  0  0  0  0  0  0  0
  1  2  1  0
  2  3  1  0
  3  4  1  0
  4  5  1  0
  5  6  1  0
  6  7  1  0
  7  8  1  0
  7  9  1  0
  2 10  1  0
 10 11  1  0
 11 12  1  0
 12 13  1  0
 13 14  1  1
 13 15  1  0
 15 16  1  0
 16 17  1  0
 17 18  2  0
 18 19  1  0
 19 20  1  0
 20 21  1  0
 21 22  1  0
 22 23  1  0
 22 24  1  0
 24 25  1  0
 24 26  1  0
 19 27  1  0
 27 28  1  6
 27 29  1  0
 29 30  1  0
 30 31  1  0
 31 32  1  6
  7  5  1  0
 31 10  1  0
 31 13  1  0
 27 15  1  0
 24 18  1  0
  1 33  1  0
  1 34  1  0
  1 35  1  0
  2 36  1  6
  3 37  1  0
  3 38  1  0
  4 39  1  0
  4 40  1  0
  5 41  1  1
  8 42  1  0
  8 43  1  0
  8 44  1  0
  9 45  1  0
  9 46  1  0
  9 47  1  0
 10 48  1  1
 11 49  1  0
 11 50  1  0
 12 51  1  0
 12 52  1  0
 14 53  1  0
 14 54  1  0
 14 55  1  0
 15 56  1  6
 16 57  1  0
 16 58  1  0
 17 59  1  0
 19 60  1  1
 20 61  1  0
 20 62  1  0
 21 63  1  0
 21 64  1  0
 22 65  1  1
 23 66  1  0
 25 67  1  0
 25 68  1  0
 25 69  1  0
 26 70  1  0
 26 71  1  0
 26 72  1  0
 28 73  1  0
 28 74  1  0
 28 75  1  0
 29 76  1  0
 29 77  1  0
 30 78  1  0
 30 79  1  0
 32 80  1  0
 32 81  1  0
 32 82  1  0
M  END
>  <meeko>  (2) 
{"is_sidechain": [false], "intermolecular_energy": 2.731, "internal_energy": -0.839}

$$$$
EPH_relaxed_0001_pdb2pqr_Repair_83_r2_0001_out
     RDKit          3D

 82 86  0  0  0  0  0  0  0  0999 V2000
    2.3240   18.0430   -2.7070 C   0  0  0  0  0  0  0  0  0  0  0  0
    1.0670   17.6370   -1.9320 C   0  0  2  0  0  0  0  0  0  0  0  0
    1.2880   17.6780   -0.4060 C   0  0  0  0  0  0  0  0  0  0  0  0
    0.9530   19.0310    0.2270 C   0  0  0  0  0  0  0  0  0  0  0  0
   -0.4970   19.1290    0.5920 C   0  0  2  0  0  0  0  0  0  0  0  0
   -1.3630   18.2700   -0.1620 O   0  0  0  0  0  0  0  0  0  0  0  0
   -1.5590   19.6820   -0.3410 C   0  0  0  0  0  0  0  0  0  0  0  0
   -1.2130   20.1760   -1.7100 C   0  0  0  0  0  0  0  0  0  0  0  0
   -2.8350   20.1940    0.2510 C   0  0  0  0  0  0  0  0  0  0  0  0
    0.6230   16.2420   -2.3560 C   0  0  1  0  0  0  0  0  0  0  0  0
    0.7200   16.0250   -3.8900 C   0  0  0  0  0  0  0  0  0  0  0  0
    1.1250   14.5440   -4.1080 C   0  0  0  0  0  0  0  0  0  0  0  0
    0.9250   13.8780   -2.7270 C   0  0  1  0  0  0  0  0  0  0  0  0
   -0.6050   13.5790   -2.6440 C   0  0  0  0  0  0  0  0  0  0  0  0
    1.7800   12.5990   -2.4460 C   0  0  2  0  0  0  0  0  0  0  0  0
    1.5010   11.4100   -3.3820 C   0  0  0  0  0  0  0  0  0  0  0  0
    0.4450   10.4640   -2.9160 C   0  0  0  0  0  0  0  0  0  0  0  0
   -0.0530   10.4020   -1.6670 C   0  0  0  0  0  0  0  0  0  0  0  0
    0.5210   11.2780   -0.5460 C   0  0  1  0  0  0  0  0  0  0  0  0
    0.7510   10.4130    0.7210 C   0  0  0  0  0  0  0  0  0  0  0  0
   -0.5050    9.6620    1.1530 C   0  0  0  0  0  0  0  0  0  0  0  0
   -1.0120    8.7580    0.0320 C   0  0  2  0  0  0  0  0  0  0  0  0
   -0.0570    7.7150   -0.1870 O   0  0  0  0  0  0  0  0  0  0  0  0
   -1.2700    9.5180   -1.2990 C   0  0  0  0  0  0  0  0  0  0  0  0
   -2.5080   10.4360   -1.1430 C   0  0  0  0  0  0  0  0  0  0  0  0
   -1.6410    8.4710   -2.3830 C   0  0  0  0  0  0  0  0  0  0  0  0
    1.7940   12.1490   -0.9290 C   0  0  1  0  0  0  0  0  0  0  0  0
    3.0930   11.3110   -0.7260 C   0  0  0  0  0  0  0  0  0  0  0  0
    1.8960   13.3720    0.0570 C   0  0  0  0  0  0  0  0  0  0  0  0
    1.1260   14.6470   -0.3360 C   0  0  0  0  0  0  0  0  0  0  0  0
    1.4170   15.0390   -1.7880 C   0  0  2  0  0  0  0  0  0  0  0  0
    2.9450   15.3670   -1.8970 C   0  0  0  0  0  0  0  0  0  0  0  0
    3.1243   18.3015   -1.9980 H   0  0  0  0  0  0  0  0  0  0  0  0
    2.6513   17.2049   -3.3398 H   0  0  0  0  0  0  0  0  0  0  0  0
    2.0992   18.9142   -3.3398 H   0  0  0  0  0  0  0  0  0  0  0  0
    0.2797   18.3668   -2.1720 H   0  0  0  0  0  0  0  0  0  0  0  0
    0.6516   16.9101    0.0580 H   0  0  0  0  0  0  0  0  0  0  0  0
    2.3587   17.4968   -0.2307 H   0  0  0  0  0  0  0  0  0  0  0  0
    1.5588   19.1588    1.1362 H   0  0  0  0  0  0  0  0  0  0  0  0
    1.1750   19.8179   -0.5089 H   0  0  0  0  0  0  0  0  0  0  0  0
   -0.2432   19.3558    1.6380 H   0  0  0  0  0  0  0  0  0  0  0  0
   -0.5837   21.0744   -1.6274 H   0  0  0  0  0  0  0  0  0  0  0  0
   -0.6648   19.3932   -2.2546 H   0  0  0  0  0  0  0  0  0  0  0  0
   -2.1361   20.4237   -2.2546 H   0  0  0  0  0  0  0  0  0  0  0  0
   -2.7669   20.1667    1.3486 H   0  0  0  0  0  0  0  0  0  0  0  0
   -3.0034   21.2293   -0.0803 H   0  0  0  0  0  0  0  0  0  0  0  0
   -3.6723   19.5622   -0.0803 H   0  0  0  0  0  0  0  0  0  0  0  0
   -0.3996   16.2432   -1.9507 H   0  0  0  0  0  0  0  0  0  0  0  0
   -0.2527   16.2252   -4.3631 H   0  0  0  0  0  0  0  0  0  0  0  0
    1.4576   16.7062   -4.3392 H   0  0  0  0  0  0  0  0  0  0  0  0
    0.4799   14.0722   -4.8638 H   0  0  0  0  0  0  0  0  0  0  0  0
    2.1573   14.4433   -4.4743 H   0  0  0  0  0  0  0  0  0  0  0  0
   -0.9102   13.5194   -1.5889 H   0  0  0  0  0  0  0  0  0  0  0  0
   -1.1637   14.3850   -3.1423 H   0  0  0  0  0  0  0  0  0  0  0  0
   -0.8191   12.6220   -3.1423 H   0  0  0  0  0  0  0  0  0  0  0  0
    2.7982   12.9378   -2.6877 H   0  0  0  0  0  0  0  0  0  0  0  0
    1.1905   11.8116   -4.3579 H   0  0  0  0  0  0  0  0  0  0  0  0
    2.4340   10.8285   -3.4205 H   0  0  0  0  0  0  0  0  0  0  0  0
    0.0394    9.7579   -3.6555 H   0  0  0  0  0  0  0  0  0  0  0  0
   -0.2396   12.0458   -0.3411 H   0  0  0  0  0  0  0  0  0  0  0  0
    1.5441    9.6809    0.5089 H   0  0  0  0  0  0  0  0  0  0  0  0
    1.0335   11.0901    1.5406 H   0  0  0  0  0  0  0  0  0  0  0  0
   -0.2714    9.0464    2.0342 H   0  0  0  0  0  0  0  0  0  0  0  0
   -1.2880   10.3961    1.3937 H   0  0  0  0  0  0  0  0  0  0  0  0
   -1.9814    8.3483    0.3520 H   0  0  0  0  0  0  0  0  0  0  0  0
    0.7820    7.9960    0.2150 H   0  0  0  0  0  0  0  0  0  0  0  0
   -2.7171   10.5911   -0.0743 H   0  0  0  0  0  0  0  0  0  0  0  0
   -2.3080   11.4058   -1.6220 H   0  0  0  0  0  0  0  0  0  0  0  0
   -3.3779    9.9630   -1.6220 H   0  0  0  0  0  0  0  0  0  0  0  0
   -1.9706    7.5409   -1.8969 H   0  0  0  0  0  0  0  0  0  0  0  0
   -2.4543    8.8650   -3.0102 H   0  0  0  0  0  0  0  0  0  0  0  0
   -0.7611    8.2650   -3.0102 H   0  0  0  0  0  0  0  0  0  0  0  0
    3.2850   11.1871    0.3500 H   0  0  0  0  0  0  0  0  0  0  0  0
    2.9683   10.3226   -1.1924 H   0  0  0  0  0  0  0  0  0  0  0  0
    3.9421   11.8320   -1.1924 H   0  0  0  0  0  0  0  0  0  0  0  0
    1.5171   13.0428    1.0358 H   0  0  0  0  0  0  0  0  0  0  0  0
    2.9570   13.6620    0.0472 H   0  0  0  0  0  0  0  0  0  0  0  0
    0.0472   14.4651   -0.2219 H   0  0  0  0  0  0  0  0  0  0  0  0
    1.4501   15.4682    0.3202 H   0  0  0  0  0  0  0  0  0  0  0  0
    3.3732   15.4589   -0.8879 H   0  0  0  0  0  0  0  0  0  0  0  0
    3.4559   14.5581   -2.4398 H   0  0  0  0  0  0  0  0  0  0  0  0
    3.0789   16.3143   -2.4398 H   0  0  0  0  0  0  0  0  0  0  0  0
  1  2  1  0
  2  3  1  0
  3  4  1  0
  4  5  1  0
  5  6  1  0
  6  7  1  0
  7  8  1  0
  7  9  1  0
  2 10  1  0
 10 11  1  0
 11 12  1  0
 12 13  1  0
 13 14  1  1
 13 15  1  0
 15 16  1  0
 16 17  1  0
 17 18  2  0
 18 19  1  0
 19 20  1  0
 20 21  1  0
 21 22  1  0
 22 23  1  0
 22 24  1  0
 24 25  1  0
 24 26  1  0
 19 27  1  0
 27 28  1  6
 27 29  1  0
 29 30  1  0
 30 31  1  0
 31 32  1  1
  7  5  1  0
 31 10  1  0
 31 13  1  0
 27 15  1  0
 24 18  1  0
  1 33  1  0
  1 34  1  0
  1 35  1  0
  2 36  1  1
  3 37  1  0
  3 38  1  0
  4 39  1  0
  4 40  1  0
  5 41  1  1
  8 42  1  0
  8 43  1  0
  8 44  1  0
  9 45  1  0
  9 46  1  0
  9 47  1  0
 10 48  1  1
 11 49  1  0
 11 50  1  0
 12 51  1  0
 12 52  1  0
 14 53  1  0
 14 54  1  0
 14 55  1  0
 15 56  1  6
 16 57  1  0
 16 58  1  0
 17 59  1  0
 19 60  1  1
 20 61  1  0
 20 62  1  0
 21 63  1  0
 21 64  1  0
 22 65  1  1
 23 66  1  0
 25 67  1  0
 25 68  1  0
 25 69  1  0
 26 70  1  0
 26 71  1  0
 26 72  1  0
 28 73  1  0
 28 74  1  0
 28 75  1  0
 29 76  1  0
 29 77  1  0
 30 78  1  0
 30 79  1  0
 32 80  1  0
 32 81  1  0
 32 82  1  0
M  END
>  <meeko>  (3) 
{"is_sidechain": [false], "intermolecular_energy": 2.731, "internal_energy": -0.839}

$$$$
EPH_relaxed_0001_pdb2pqr_Repair_83_r2_0001_out
     RDKit          3D

 82 86  0  0  0  0  0  0  0  0999 V2000
    0.4110   18.4150   -0.0420 C   0  0  0  0  0  0  0  0  0  0  0  0
    1.4990   17.3580   -0.2530 C   0  0  2  0  0  0  0  0  0  0  0  0
    2.7140   17.9200   -1.0170 C   0  0  0  0  0  0  0  0  0  0  0  0
    3.9490   18.1340   -0.1380 C   0  0  0  0  0  0  0  0  0  0  0  0
    3.5760   18.6050    1.2360 C   0  0  2  0  0  0  0  0  0  0  0  0
    3.8230   19.9960    1.4790 O   0  0  0  0  0  0  0  0  0  0  0  0
    4.5900   19.0690    2.2650 C   0  0  0  0  0  0  0  0  0  0  0  0
    6.0560   19.0850    1.9640 C   0  0  0  0  0  0  0  0  0  0  0  0
    4.2050   19.0420    3.7110 C   0  0  0  0  0  0  0  0  0  0  0  0
    0.9220   16.1610   -1.0000 C   0  0  1  0  0  0  0  0  0  0  0  0
    0.7900   16.4160   -2.5250 C   0  0  0  0  0  0  0  0  0  0  0  0
    1.0760   15.0650   -3.2310 C   0  0  0  0  0  0  0  0  0  0  0  0
    1.0360   14.0160   -2.0960 C   0  0  1  0  0  0  0  0  0  0  0  0
   -0.4810   13.7220   -1.8750 C   0  0  0  0  0  0  0  0  0  0  0  0
    1.8480   12.7020   -2.3400 C   0  0  2  0  0  0  0  0  0  0  0  0
    1.3750   11.8540   -3.5340 C   0  0  0  0  0  0  0  0  0  0  0  0
    0.3430   10.8240   -3.2140 C   0  0  0  0  0  0  0  0  0  0  0  0
    0.0240   10.3930   -1.9800 C   0  0  0  0  0  0  0  0  0  0  0  0
    0.7990   10.8840   -0.7490 C   0  0  1  0  0  0  0  0  0  0  0  0
    1.1560    9.6740    0.1540 C   0  0  0  0  0  0  0  0  0  0  0  0
   -0.0670    8.8420    0.5280 C   0  0  0  0  0  0  0  0  0  0  0  0
   -0.7760    8.3240   -0.7200 C   0  0  2  0  0  0  0  0  0  0  0  0
    0.0780    7.3850   -1.3810 O   0  0  0  0  0  0  0  0  0  0  0  0
   -1.1770    9.4530   -1.7110 C   0  0  0  0  0  0  0  0  0  0  0  0
   -2.3270   10.2940   -1.1040 C   0  0  0  0  0  0  0  0  0  0  0  0
   -1.7550    8.7850   -2.9880 C   0  0  0  0  0  0  0  0  0  0  0  0
    2.0510   11.8160   -1.0450 C   0  0  1  0  0  0  0  0  0  0  0  0
    3.3170   10.9410   -1.2990 C   0  0  0  0  0  0  0  0  0  0  0  0
    2.3600   12.6830    0.2320 C   0  0  0  0  0  0  0  0  0  0  0  0
    1.6140   14.0260    0.3560 C   0  0  0  0  0  0  0  0  0  0  0  0
    1.7200   14.8340   -0.9410 C   0  0  2  0  0  0  0  0  0  0  0  0
    3.2330   15.1630   -1.1780 C   0  0  0  0  0  0  0  0  0  0  0  0
    0.2530   18.5685    1.0357 H   0  0  0  0  0  0  0  0  0  0  0  0
    0.7251   19.3620   -0.5051 H   0  0  0  0  0  0  0  0  0  0  0  0
   -0.5266   18.0737   -0.5051 H   0  0  0  0  0  0  0  0  0  0  0  0
    1.8511   17.0423    0.7401 H   0  0  0  0  0  0  0  0  0  0  0  0
    2.9766   17.2143   -1.8189 H   0  0  0  0  0  0  0  0  0  0  0  0
    2.4211   18.9067   -1.4052 H   0  0  0  0  0  0  0  0  0  0  0  0
    4.4953   17.1831   -0.0529 H   0  0  0  0  0  0  0  0  0  0  0  0
    4.5749   18.9071   -0.6077 H   0  0  0  0  0  0  0  0  0  0  0  0
    2.7524   17.8776    1.2878 H   0  0  0  0  0  0  0  0  0  0  0  0
    6.6237   19.0912    2.9062 H   0  0  0  0  0  0  0  0  0  0  0  0
    6.3207   18.1897    1.3823 H   0  0  0  0  0  0  0  0  0  0  0  0
    6.3011   19.9859    1.3823 H   0  0  0  0  0  0  0  0  0  0  0  0
    5.1102   19.1055    4.3327 H   0  0  0  0  0  0  0  0  0  0  0  0
    3.5481   19.8963    3.9315 H   0  0  0  0  0  0  0  0  0  0  0  0
    3.6737   18.1044    3.9315 H   0  0  0  0  0  0  0  0  0  0  0  0
   -0.0320   16.0510   -0.4635 H   0  0  0  0  0  0  0  0  0  0  0  0
   -0.2266   16.7609   -2.7648 H   0  0  0  0  0  0  0  0  0  0  0  0
    1.4944   17.1925   -2.8580 H   0  0  0  0  0  0  0  0  0  0  0  0
    0.3050   14.8503   -3.9856 H   0  0  0  0  0  0  0  0  0  0  0  0
    2.0389   15.0678   -3.7629 H   0  0  0  0  0  0  0  0  0  0  0  0
   -0.6932   13.6809   -0.7964 H   0  0  0  0  0  0  0  0  0  0  0  0
   -1.0803   14.5207   -2.3364 H   0  0  0  0  0  0  0  0  0  0  0  0
   -0.7385   12.7572   -2.3364 H   0  0  0  0  0  0  0  0  0  0  0  0
    2.8393   13.0864   -2.6221 H   0  0  0  0  0  0  0  0  0  0  0  0
    0.9539   12.5344   -4.2888 H   0  0  0  0  0  0  0  0  0  0  0  0
    2.2590   11.3012   -3.8845 H   0  0  0  0  0  0  0  0  0  0  0  0
   -0.2032   10.3795   -4.0590 H   0  0  0  0  0  0  0  0  0  0  0  0
    0.1200   11.5626   -0.2119 H   0  0  0  0  0  0  0  0  0  0  0  0
    1.8688    9.0312   -0.3833 H   0  0  0  0  0  0  0  0  0  0  0  0
    1.5888   10.0685    1.0851 H   0  0  0  0  0  0  0  0  0  0  0  0
    0.2531    7.9868    1.1414 H   0  0  0  0  0  0  0  0  0  0  0  0
   -0.7661    9.4783    1.0906 H   0  0  0  0  0  0  0  0  0  0  0  0
   -1.7116    7.8473   -0.3923 H   0  0  0  0  0  0  0  0  0  0  0  0
    0.4780    7.8370   -2.1430 H   0  0  0  0  0  0  0  0  0  0  0  0
   -2.2712   10.2532   -0.0062 H   0  0  0  0  0  0  0  0  0  0  0  0
   -2.2332   11.3381   -1.4373 H   0  0  0  0  0  0  0  0  0  0  0  0
   -3.2935    9.8881   -1.4373 H   0  0  0  0  0  0  0  0  0  0  0  0
   -2.4496    7.9823   -2.6996 H   0  0  0  0  0  0  0  0  0  0  0  0
   -2.2916    9.5374   -3.5845 H   0  0  0  0  0  0  0  0  0  0  0  0
   -0.9333    8.3621   -3.5845 H   0  0  0  0  0  0  0  0  0  0  0  0
    3.7535   10.6393   -0.3355 H   0  0  0  0  0  0  0  0  0  0  0  0
    3.0345   10.0445   -1.8703 H   0  0  0  0  0  0  0  0  0  0  0  0
    4.0558   11.5222   -1.8703 H   0  0  0  0  0  0  0  0  0  0  0  0
    2.1056   12.0780    1.1148 H   0  0  0  0  0  0  0  0  0  0  0  0
    3.4236   12.9507    0.1483 H   0  0  0  0  0  0  0  0  0  0  0  0
    0.5534   13.8299    0.5721 H   0  0  0  0  0  0  0  0  0  0  0  0
    2.0717   14.6075    1.1698 H   0  0  0  0  0  0  0  0  0  0  0  0
    3.7405   15.2734   -0.2083 H   0  0  0  0  0  0  0  0  0  0  0  0
    3.7013   14.3457   -1.7461 H   0  0  0  0  0  0  0  0  0  0  0  0
    3.3197   16.1010   -1.7461 H   0  0  0  0  0  0  0  0  0  0  0  0
  1  2  1  0
  2  3  1  0
  3  4  1  0
  4  5  1  0
  5  6  1  0
  6  7  1  0
  7  8  1  0
  7  9  1  0
  2 10  1  0
 10 11  1  0
 11 12  1  0
 12 13  1  0
 13 14  1  1
 13 15  1  0
 15 16  1  0
 16 17  1  0
 17 18  2  0
 18 19  1  0
 19 20  1  0
 20 21  1  0
 21 22  1  0
 22 23  1  0
 22 24  1  0
 24 25  1  0
 24 26  1  0
 19 27  1  0
 27 28  1  6
 27 29  1  0
 29 30  1  0
 30 31  1  0
 31 32  1  6
  7  5  1  0
 31 10  1  0
 31 13  1  0
 27 15  1  0
 24 18  1  0
  1 33  1  0
  1 34  1  0
  1 35  1  0
  2 36  1  1
  3 37  1  0
  3 38  1  0
  4 39  1  0
  4 40  1  0
  5 41  1  1
  8 42  1  0
  8 43  1  0
  8 44  1  0
  9 45  1  0
  9 46  1  0
  9 47  1  0
 10 48  1  1
 11 49  1  0
 11 50  1  0
 12 51  1  0
 12 52  1  0
 14 53  1  0
 14 54  1  0
 14 55  1  0
 15 56  1  6
 16 57  1  0
 16 58  1  0
 17 59  1  0
 19 60  1  1
 20 61  1  0
 20 62  1  0
 21 63  1  0
 21 64  1  0
 22 65  1  1
 23 66  1  0
 25 67  1  0
 25 68  1  0
 25 69  1  0
 26 70  1  0
 26 71  1  0
 26 72  1  0
 28 73  1  0
 28 74  1  0
 28 75  1  0
 29 76  1  0
 29 77  1  0
 30 78  1  0
 30 79  1  0
 32 80  1  0
 32 81  1  0
 32 82  1  0
M  END
>  <meeko>  (4) 
{"is_sidechain": [false], "intermolecular_energy": 2.731, "internal_energy": -0.839}

$$$$
EPH_relaxed_0001_pdb2pqr_Repair_83_r2_0001_out
     RDKit          3D

 82 86  0  0  0  0  0  0  0  0999 V2000
    2.2370   17.9660   -2.5690 C   0  0  0  0  0  0  0  0  0  0  0  0
    0.7140   17.8230   -2.6290 C   0  0  2  0  0  0  0  0  0  0  0  0
    0.0350   18.2920   -1.3270 C   0  0  0  0  0  0  0  0  0  0  0  0
    0.7900   17.8880   -0.0580 C   0  0  0  0  0  0  0  0  0  0  0  0
    1.3100   19.0830    0.6820 C   0  0  2  0  0  0  0  0  0  0  0  0
    2.1780   19.9300   -0.0820 O   0  0  0  0  0  0  0  0  0  0  0  0
    2.7700   19.2700    1.0490 C   0  0  0  0  0  0  0  0  0  0  0  0
    3.8030   18.2490    0.6860 C   0  0  0  0  0  0  0  0  0  0  0  0
    3.1120   20.1940    2.1760 C   0  0  0  0  0  0  0  0  0  0  0  0
    0.3390   16.3740   -2.9190 C   0  0  1  0  0  0  0  0  0  0  0  0
    0.4200   16.0270   -4.4300 C   0  0  0  0  0  0  0  0  0  0  0  0
    0.9010   14.5560   -4.5250 C   0  0  0  0  0  0  0  0  0  0  0  0
    0.7620   14.0060   -3.0860 C   0  0  1  0  0  0  0  0  0  0  0  0
   -0.7480   13.6350   -2.9430 C   0  0  0  0  0  0  0  0  0  0  0  0
    1.6890   12.8040   -2.7140 C   0  0  2  0  0  0  0  0  0  0  0  0
    1.4590   11.5230   -3.5350 C   0  0  0  0  0  0  0  0  0  0  0  0
    0.4640   10.5690   -2.9630 C   0  0  0  0  0  0  0  0  0  0  0  0
   -0.0070   10.5920   -1.7020 C   0  0  0  0  0  0  0  0  0  0  0  0
    0.5380   11.5930   -0.6760 C   0  0  1  0  0  0  0  0  0  0  0  0
    0.8370   10.8580    0.6570 C   0  0  0  0  0  0  0  0  0  0  0  0
   -0.3680   10.0840    1.1810 C   0  0  0  0  0  0  0  0  0  0  0  0
   -0.8450    9.0580    0.1560 C   0  0  2  0  0  0  0  0  0  0  0  0
    0.1610    8.0510    0.0080 O   0  0  0  0  0  0  0  0  0  0  0  0
   -1.1680    9.6820   -1.2310 C   0  0  0  0  0  0  0  0  0  0  0  0
   -2.4510   10.5440   -1.1280 C   0  0  0  0  0  0  0  0  0  0  0  0
   -1.5010    8.5240   -2.2100 C   0  0  0  0  0  0  0  0  0  0  0  0
    1.7550   12.4920   -1.1640 C   0  0  1  0  0  0  0  0  0  0  0  0
    3.1010   11.7450   -0.9160 C   0  0  0  0  0  0  0  0  0  0  0  0
    1.8080   13.8020   -0.2920 C   0  0  0  0  0  0  0  0  0  0  0  0
    0.9630   14.9950   -0.7780 C   0  0  0  0  0  0  0  0  0  0  0  0
    1.2070   15.2700   -2.2650 C   0  0  2  0  0  0  0  0  0  0  0  0
    2.7120   15.6670   -2.4370 C   0  0  0  0  0  0  0  0  0  0  0  0
    2.5613   17.9964   -1.5183 H   0  0  0  0  0  0  0  0  0  0  0  0
    2.7060   17.1079   -3.0728 H   0  0  0  0  0  0  0  0  0  0  0  0
    2.5381   18.8964   -3.0728 H   0  0  0  0  0  0  0  0  0  0  0  0
    0.3527   18.4705   -3.4415 H   0  0  0  0  0  0  0  0  0  0  0  0
   -0.0413   19.3891   -1.3510 H   0  0  0  0  0  0  0  0  0  0  0  0
   -0.9495   17.8031   -1.2842 H   0  0  0  0  0  0  0  0  0  0  0  0
    0.1078   17.3302    0.6003 H   0  0  0  0  0  0  0  0  0  0  0  0
    1.6487   17.2671   -0.3530 H   0  0  0  0  0  0  0  0  0  0  0  0
    0.3862   19.1459    1.2758 H   0  0  0  0  0  0  0  0  0  0  0  0
    4.2348   17.8222    1.6032 H   0  0  0  0  0  0  0  0  0  0  0  0
    3.3352   17.4485    0.0940 H   0  0  0  0  0  0  0  0  0  0  0  0
    4.5979   18.7261    0.0940 H   0  0  0  0  0  0  0  0  0  0  0  0
    2.9247   19.6881    3.1346 H   0  0  0  0  0  0  0  0  0  0  0  0
    4.1736   20.4747    2.1108 H   0  0  0  0  0  0  0  0  0  0  0  0
    2.4890   21.0982    2.1108 H   0  0  0  0  0  0  0  0  0  0  0  0
   -0.6749   16.3571   -2.4927 H   0  0  0  0  0  0  0  0  0  0  0  0
   -0.5704   16.1327   -4.8967 H   0  0  0  0  0  0  0  0  0  0  0  0
    1.1108   16.7035   -4.9545 H   0  0  0  0  0  0  0  0  0  0  0  0
    0.2694   13.9852   -5.2215 H   0  0  0  0  0  0  0  0  0  0  0  0
    1.9308   14.4776   -4.9038 H   0  0  0  0  0  0  0  0  0  0  0  0
   -1.0103   13.5705   -1.8767 H   0  0  0  0  0  0  0  0  0  0  0  0
   -1.3630   14.4088   -3.4258 H   0  0  0  0  0  0  0  0  0  0  0  0
   -0.9344   12.6643   -3.4258 H   0  0  0  0  0  0  0  0  0  0  0  0
    2.6824   13.1732   -3.0087 H   0  0  0  0  0  0  0  0  0  0  0  0
    1.1102   11.8186   -4.5355 H   0  0  0  0  0  0  0  0  0  0  0  0
    2.4213   10.9902   -3.5434 H   0  0  0  0  0  0  0  0  0  0  0  0
    0.0831    9.7801   -3.6282 H   0  0  0  0  0  0  0  0  0  0  0  0
   -0.2593   12.3350   -0.5216 H   0  0  0  0  0  0  0  0  0  0  0  0
    1.6649   10.1526    0.4927 H   0  0  0  0  0  0  0  0  0  0  0  0
    1.0967   11.6194    1.4072 H   0  0  0  0  0  0  0  0  0  0  0  0
   -0.0859    9.5628    2.1077 H   0  0  0  0  0  0  0  0  0  0  0  0
   -1.1854   10.7946    1.3731 H   0  0  0  0  0  0  0  0  0  0  0  0
   -1.7846    8.6279    0.5330 H   0  0  0  0  0  0  0  0  0  0  0  0
    0.9970    8.5000   -0.2040 H   0  0  0  0  0  0  0  0  0  0  0  0
   -2.6974   10.7096   -0.0688 H   0  0  0  0  0  0  0  0  0  0  0  0
   -2.2824   11.5128   -1.6210 H   0  0  0  0  0  0  0  0  0  0  0  0
   -3.2842   10.0218   -1.6210 H   0  0  0  0  0  0  0  0  0  0  0  0
   -1.7604    7.6220   -1.6363 H   0  0  0  0  0  0  0  0  0  0  0  0
   -2.3524    8.8130   -2.8437 H   0  0  0  0  0  0  0  0  0  0  0  0
   -0.6261    8.3165   -2.8437 H   0  0  0  0  0  0  0  0  0  0  0  0
    3.2733   11.6494    0.1662 H   0  0  0  0  0  0  0  0  0  0  0  0
    3.0538   10.7440   -1.3696 H   0  0  0  0  0  0  0  0  0  0  0  0
    3.9255   12.3146   -1.3696 H   0  0  0  0  0  0  0  0  0  0  0  0
    1.4652   13.5419    0.7203 H   0  0  0  0  0  0  0  0  0  0  0  0
    2.8514   14.1452   -0.3516 H   0  0  0  0  0  0  0  0  0  0  0  0
   -0.1022   14.7679   -0.6241 H   0  0  0  0  0  0  0  0  0  0  0  0
    1.2532   15.8874   -0.2040 H   0  0  0  0  0  0  0  0  0  0  0  0
    3.1745   15.7890   -1.4465 H   0  0  0  0  0  0  0  0  0  0  0  0
    3.2384   14.8770   -2.9927 H   0  0  0  0  0  0  0  0  0  0  0  0
    2.7802   16.6139   -2.9927 H   0  0  0  0  0  0  0  0  0  0  0  0
  1  2  1  0
  2  3  1  0
  3  4  1  0
  4  5  1  0
  5  6  1  0
  6  7  1  0
  7  8  1  0
  7  9  1  0
  2 10  1  0
 10 11  1  0
 11 12  1  0
 12 13  1  0
 13 14  1  1
 13 15  1  0
 15 16  1  0
 16 17  1  0
 17 18  2  0
 18 19  1  0
 19 20  1  0
 20 21  1  0
 21 22  1  0
 22 23  1  0
 22 24  1  0
 24 25  1  0
 24 26  1  0
 19 27  1  0
 27 28  1  6
 27 29  1  0
 29 30  1  0
 30 31  1  0
 31 32  1  1
  7  5  1  0
 31 10  1  0
 31 13  1  0
 27 15  1  0
 24 18  1  0
  1 33  1  0
  1 34  1  0
  1 35  1  0
  2 36  1  6
  3 37  1  0
  3 38  1  0
  4 39  1  0
  4 40  1  0
  5 41  1  1
  8 42  1  0
  8 43  1  0
  8 44  1  0
  9 45  1  0
  9 46  1  0
  9 47  1  0
 10 48  1  1
 11 49  1  0
 11 50  1  0
 12 51  1  0
 12 52  1  0
 14 53  1  0
 14 54  1  0
 14 55  1  0
 15 56  1  6
 16 57  1  0
 16 58  1  0
 17 59  1  0
 19 60  1  1
 20 61  1  0
 20 62  1  0
 21 63  1  0
 21 64  1  0
 22 65  1  1
 23 66  1  0
 25 67  1  0
 25 68  1  0
 25 69  1  0
 26 70  1  0
 26 71  1  0
 26 72  1  0
 28 73  1  0
 28 74  1  0
 28 75  1  0
 29 76  1  0
 29 77  1  0
 30 78  1  0
 30 79  1  0
 32 80  1  0
 32 81  1  0
 32 82  1  0
M  END
>  <meeko>  (5) 
{"is_sidechain": [false], "intermolecular_energy": 2.731, "internal_energy": -0.839}

$$$$
EPH_relaxed_0001_pdb2pqr_Repair_83_r2_0001_out
     RDKit          3D

 82 86  0  0  0  0  0  0  0  0999 V2000
    3.6660   18.0060    0.7480 C   0  0  0  0  0  0  0  0  0  0  0  0
    2.6410   18.4150   -0.3130 C   0  0  2  0  0  0  0  0  0  0  0  0
    1.8920   19.7070    0.0700 C   0  0  0  0  0  0  0  0  0  0  0  0
    0.7140   19.4770    1.0210 C   0  0  0  0  0  0  0  0  0  0  0  0
   -0.5350   20.1420    0.5260 C   0  0  2  0  0  0  0  0  0  0  0  0
   -1.6030   20.1940    1.4810 O   0  0  0  0  0  0  0  0  0  0  0  0
   -1.8430   19.4060    0.3040 C   0  0  0  0  0  0  0  0  0  0  0  0
   -1.9670   17.9390    0.5690 C   0  0  0  0  0  0  0  0  0  0  0  0
   -2.8510   20.0040   -0.6270 C   0  0  0  0  0  0  0  0  0  0  0  0
    1.6450   17.2830   -0.5380 C   0  0  1  0  0  0  0  0  0  0  0  0
    0.4420   17.7120   -1.4200 C   0  0  0  0  0  0  0  0  0  0  0  0
    0.0510   16.4780   -2.2730 C   0  0  0  0  0  0  0  0  0  0  0  0
    0.8120   15.2980   -1.6240 C   0  0  1  0  0  0  0  0  0  0  0  0
   -0.0610   14.8850   -0.3970 C   0  0  0  0  0  0  0  0  0  0  0  0
    1.1170   14.0780   -2.5520 C   0  0  2  0  0  0  0  0  0  0  0  0
   -0.1220   13.3520   -3.1040 C   0  0  0  0  0  0  0  0  0  0  0  0
   -0.6300   12.2270   -2.2640 C   0  0  0  0  0  0  0  0  0  0  0  0
    0.0460   11.6310   -1.2640 C   0  0  0  0  0  0  0  0  0  0  0  0
    1.4980   12.0170   -0.9550 C   0  0  1  0  0  0  0  0  0  0  0  0
    2.3480   10.7320   -0.7730 C   0  0  0  0  0  0  0  0  0  0  0  0
    1.7610    9.7860    0.2700 C   0  0  0  0  0  0  0  0  0  0  0  0
    0.3380    9.3790   -0.1030 C   0  0  2  0  0  0  0  0  0  0  0  0
    0.3820    8.5820   -1.2910 O   0  0  0  0  0  0  0  0  0  0  0  0
   -0.6090   10.5920   -0.3210 C   0  0  0  0  0  0  0  0  0  0  0  0
   -0.8960   11.2790    1.0360 C   0  0  0  0  0  0  0  0  0  0  0  0
   -1.9720   10.0480   -0.8290 C   0  0  0  0  0  0  0  0  0  0  0  0
    2.1670   13.0550   -1.9550 C   0  0  1  0  0  0  0  0  0  0  0  0
    2.7920   12.2990   -3.1670 C   0  0  0  0  0  0  0  0  0  0  0  0
    3.3580   13.7800   -1.2230 C   0  0  0  0  0  0  0  0  0  0  0  0
    3.0110   15.0480   -0.4190 C   0  0  0  0  0  0  0  0  0  0  0  0
    2.1630   16.0120   -1.2550 C   0  0  2  0  0  0  0  0  0  0  0  0
    3.0230   16.4620   -2.4850 C   0  0  0  0  0  0  0  0  0  0  0  0
    3.2439   18.1744    1.7497 H   0  0  0  0  0  0  0  0  0  0  0  0
    3.9124   16.9407    0.6283 H   0  0  0  0  0  0  0  0  0  0  0  0
    4.5782   18.6090    0.6283 H   0  0  0  0  0  0  0  0  0  0  0  0
    3.1916   18.6163   -1.2438 H   0  0  0  0  0  0  0  0  0  0  0  0
    2.6037   20.3894    0.5576 H   0  0  0  0  0  0  0  0  0  0  0  0
    1.4780   20.1259   -0.8590 H   0  0  0  0  0  0  0  0  0  0  0  0
    0.5318   18.3957    1.1081 H   0  0  0  0  0  0  0  0  0  0  0  0
    0.9711   19.9129    1.9977 H   0  0  0  0  0  0  0  0  0  0  0  0
    0.0500   20.8166   -0.1165 H   0  0  0  0  0  0  0  0  0  0  0  0
   -1.9819   17.7625    1.6546 H   0  0  0  0  0  0  0  0  0  0  0  0
   -2.9001   17.5635    0.1236 H   0  0  0  0  0  0  0  0  0  0  0  0
   -1.1102   17.4122    0.1236 H   0  0  0  0  0  0  0  0  0  0  0  0
   -3.6527   20.4796   -0.0430 H   0  0  0  0  0  0  0  0  0  0  0  0
   -2.3623   20.7584   -1.2611 H   0  0  0  0  0  0  0  0  0  0  0  0
   -3.2788   19.2135   -1.2611 H   0  0  0  0  0  0  0  0  0  0  0  0
    1.3934   17.0487    0.5069 H   0  0  0  0  0  0  0  0  0  0  0  0
   -0.4032   18.0172   -0.7856 H   0  0  0  0  0  0  0  0  0  0  0  0
    0.7061   18.5670   -2.0597 H   0  0  0  0  0  0  0  0  0  0  0  0
   -1.0351   16.3077   -2.2346 H   0  0  0  0  0  0  0  0  0  0  0  0
    0.3080   16.6065   -3.3348 H   0  0  0  0  0  0  0  0  0  0  0  0
    0.4707   15.1365    0.5326 H   0  0  0  0  0  0  0  0  0  0  0  0
   -1.0184   15.4256   -0.4296 H   0  0  0  0  0  0  0  0  0  0  0  0
   -0.2502   13.8019   -0.4296 H   0  0  0  0  0  0  0  0  0  0  0  0
    1.5948   14.5565   -3.4196 H   0  0  0  0  0  0  0  0  0  0  0  0
   -0.9305   14.0906   -3.2076 H   0  0  0  0  0  0  0  0  0  0  0  0
    0.1894   12.9022   -4.0583 H   0  0  0  0  0  0  0  0  0  0  0  0
   -1.6418   11.8538   -2.4805 H   0  0  0  0  0  0  0  0  0  0  0  0
    1.4685   12.5814   -0.0113 H   0  0  0  0  0  0  0  0  0  0  0  0
    2.4014   10.2049   -1.7370 H   0  0  0  0  0  0  0  0  0  0  0  0
    3.3452   11.0376   -0.4234 H   0  0  0  0  0  0  0  0  0  0  0  0
    2.3886    8.8848    0.3325 H   0  0  0  0  0  0  0  0  0  0  0  0
    1.7353   10.3045    1.2398 H   0  0  0  0  0  0  0  0  0  0  0  0
   -0.0739    8.8082    0.7423 H   0  0  0  0  0  0  0  0  0  0  0  0
   -0.2600    8.9550   -1.9190 H   0  0  0  0  0  0  0  0  0  0  0  0
   -0.6135   10.6028    1.8563 H   0  0  0  0  0  0  0  0  0  0  0  0
   -0.3105   12.2074    1.1080 H   0  0  0  0  0  0  0  0  0  0  0  0
   -1.9680   11.5150    1.1080 H   0  0  0  0  0  0  0  0  0  0  0  0
   -2.6089    9.7938    0.0311 H   0  0  0  0  0  0  0  0  0  0  0  0
   -2.4692   10.8166   -1.4390 H   0  0  0  0  0  0  0  0  0  0  0  0
   -1.8033    9.1483   -1.4390 H   0  0  0  0  0  0  0  0  0  0  0  0
    3.4526   11.4999   -2.7996 H   0  0  0  0  0  0  0  0  0  0  0  0
    1.9899   11.8596   -3.7782 H   0  0  0  0  0  0  0  0  0  0  0  0
    3.3744   13.0041   -3.7782 H   0  0  0  0  0  0  0  0  0  0  0  0
    3.8097   13.0579   -0.5269 H   0  0  0  0  0  0  0  0  0  0  0  0
    4.0243   14.1232   -2.0281 H   0  0  0  0  0  0  0  0  0  0  0  0
    2.4474   14.7606    0.4809 H   0  0  0  0  0  0  0  0  0  0  0  0
    3.9471   15.5546   -0.1413 H   0  0  0  0  0  0  0  0  0  0  0  0
    3.9456   16.9448   -2.1304 H   0  0  0  0  0  0  0  0  0  0  0  0
    3.2800   15.5828   -3.0941 H   0  0  0  0  0  0  0  0  0  0  0  0
    2.4472   17.1744   -3.0941 H   0  0  0  0  0  0  0  0  0  0  0  0
  1  2  1  0
  2  3  1  0
  3  4  1  0
  4  5  1  0
  5  6  1  0
  6  7  1  0
  7  8  1  0
  7  9  1  0
  2 10  1  0
 10 11  1  0
 11 12  1  0
 12 13  1  0
 13 14  1  1
 13 15  1  0
 15 16  1  0
 16 17  1  0
 17 18  2  0
 18 19  1  0
 19 20  1  0
 20 21  1  0
 21 22  1  0
 22 23  1  0
 22 24  1  0
 24 25  1  0
 24 26  1  0
 19 27  1  0
 27 28  1  6
 27 29  1  0
 29 30  1  0
 30 31  1  0
 31 32  1  6
  7  5  1  0
 31 10  1  0
 31 13  1  0
 27 15  1  0
 24 18  1  0
  1 33  1  0
  1 34  1  0
  1 35  1  0
  2 36  1  6
  3 37  1  0
  3 38  1  0
  4 39  1  0
  4 40  1  0
  5 41  1  6
  8 42  1  0
  8 43  1  0
  8 44  1  0
  9 45  1  0
  9 46  1  0
  9 47  1  0
 10 48  1  1
 11 49  1  0
 11 50  1  0
 12 51  1  0
 12 52  1  0
 14 53  1  0
 14 54  1  0
 14 55  1  0
 15 56  1  6
 16 57  1  0
 16 58  1  0
 17 59  1  0
 19 60  1  1
 20 61  1  0
 20 62  1  0
 21 63  1  0
 21 64  1  0
 22 65  1  1
 23 66  1  0
 25 67  1  0
 25 68  1  0
 25 69  1  0
 26 70  1  0
 26 71  1  0
 26 72  1  0
 28 73  1  0
 28 74  1  0
 28 75  1  0
 29 76  1  0
 29 77  1  0
 30 78  1  0
 30 79  1  0
 32 80  1  0
 32 81  1  0
 32 82  1  0
M  END
>  <meeko>  (6) 
{"is_sidechain": [false], "intermolecular_energy": 2.731, "internal_energy": -0.839}

$$$$
EPH_relaxed_0001_pdb2pqr_Repair_83_r2_0001_out
     RDKit          3D

 82 86  0  0  0  0  0  0  0  0999 V2000
    0.4370    8.8040   -2.3580 C   0  0  0  0  0  0  0  0  0  0  0  0
    1.1750    9.9450   -3.0650 C   0  0  2  0  0  0  0  0  0  0  0  0
    2.6780    9.9670   -2.7190 C   0  0  0  0  0  0  0  0  0  0  0  0
    3.5500   10.5950   -3.8090 C   0  0  0  0  0  0  0  0  0  0  0  0
    4.9470   10.8430   -3.3260 C   0  0  2  0  0  0  0  0  0  0  0  0
    5.5460   12.0490   -3.8190 O   0  0  0  0  0  0  0  0  0  0  0  0
    6.1630   10.8190   -4.2330 C   0  0  0  0  0  0  0  0  0  0  0  0
    6.0380   10.5380   -5.6980 C   0  0  0  0  0  0  0  0  0  0  0  0
    7.5080   10.5830   -3.6210 C   0  0  0  0  0  0  0  0  0  0  0  0
    0.5370   11.2800   -2.7000 C   0  0  1  0  0  0  0  0  0  0  0  0
   -0.8410   11.1150   -2.0060 C   0  0  0  0  0  0  0  0  0  0  0  0
   -0.9560   12.2560   -0.9630 C   0  0  0  0  0  0  0  0  0  0  0  0
    0.1960   13.2260   -1.3180 C   0  0  1  0  0  0  0  0  0  0  0  0
   -0.3520   14.0830   -2.5020 C   0  0  0  0  0  0  0  0  0  0  0  0
    0.7260   14.1240   -0.1530 C   0  0  2  0  0  0  0  0  0  0  0  0
   -0.3040   15.1040    0.4370 C   0  0  0  0  0  0  0  0  0  0  0  0
   -0.3460   16.4500   -0.2070 C   0  0  0  0  0  0  0  0  0  0  0  0
    0.5980   16.9560   -1.0220 C   0  0  0  0  0  0  0  0  0  0  0  0
    1.8980   16.1890   -1.2940 C   0  0  1  0  0  0  0  0  0  0  0  0
    3.1060   17.1550   -1.1650 C   0  0  0  0  0  0  0  0  0  0  0  0
    2.9630   18.3920   -2.0460 C   0  0  0  0  0  0  0  0  0  0  0  0
    1.6880   19.1590   -1.7070 C   0  0  2  0  0  0  0  0  0  0  0  0
    1.8130   19.7000   -0.3880 O   0  0  0  0  0  0  0  0  0  0  0  0
    0.4050   18.2850   -1.7930 C   0  0  0  0  0  0  0  0  0  0  0  0
    0.1040   17.9490   -3.2750 C   0  0  0  0  0  0  0  0  0  0  0  0
   -0.7900   19.1400   -1.2910 C   0  0  0  0  0  0  0  0  0  0  0  0
    2.0980   14.8480   -0.4650 C   0  0  1  0  0  0  0  0  0  0  0  0
    2.7570   15.1660    0.9110 C   0  0  0  0  0  0  0  0  0  0  0  0
    3.1050   13.9130   -1.2350 C   0  0  0  0  0  0  0  0  0  0  0  0
    2.5060   12.9640   -2.2890 C   0  0  0  0  0  0  0  0  0  0  0  0
    1.3120   12.1940   -1.7170 C   0  0  2  0  0  0  0  0  0  0  0  0
    1.8360   11.3060   -0.5370 C   0  0  0  0  0  0  0  0  0  0  0  0
    0.5203    8.9328   -1.2687 H   0  0  0  0  0  0  0  0  0  0  0  0
   -0.6238    8.8177   -2.6488 H   0  0  0  0  0  0  0  0  0  0  0  0
    0.8845    7.8421   -2.6488 H   0  0  0  0  0  0  0  0  0  0  0  0
    1.0884    9.7748   -4.1483 H   0  0  0  0  0  0  0  0  0  0  0  0
    2.8127   10.5429   -1.7915 H   0  0  0  0  0  0  0  0  0  0  0  0
    2.9993    8.9203   -2.6128 H   0  0  0  0  0  0  0  0  0  0  0  0
    3.5867    9.9145   -4.6725 H   0  0  0  0  0  0  0  0  0  0  0  0
    3.1067   11.5622   -4.0884 H   0  0  0  0  0  0  0  0  0  0  0  0
    4.7298   10.3440   -2.3701 H   0  0  0  0  0  0  0  0  0  0  0  0
    5.5949    9.5418   -5.8438 H   0  0  0  0  0  0  0  0  0  0  0  0
    5.3930   11.2979   -6.1634 H   0  0  0  0  0  0  0  0  0  0  0  0
    7.0343   10.5678   -6.1634 H   0  0  0  0  0  0  0  0  0  0  0  0
    7.4198   10.5985   -2.5247 H   0  0  0  0  0  0  0  0  0  0  0  0
    7.8912    9.6039   -3.9442 H   0  0  0  0  0  0  0  0  0  0  0  0
    8.2017   11.3732   -3.9442 H   0  0  0  0  0  0  0  0  0  0  0  0
    0.5008   11.7446   -3.6964 H   0  0  0  0  0  0  0  0  0  0  0  0
   -1.6502   11.1959   -2.7467 H   0  0  0  0  0  0  0  0  0  0  0  0
   -0.9251   10.1297   -1.5243 H   0  0  0  0  0  0  0  0  0  0  0  0
   -1.9293   12.7618   -1.0463 H   0  0  0  0  0  0  0  0  0  0  0  0
   -0.8862   11.8855    0.0704 H   0  0  0  0  0  0  0  0  0  0  0  0
   -0.9045   14.9470   -2.1043 H   0  0  0  0  0  0  0  0  0  0  0  0
    0.4878   14.4368   -3.1180 H   0  0  0  0  0  0  0  0  0  0  0  0
   -1.0255   13.4691   -3.1180 H   0  0  0  0  0  0  0  0  0  0  0  0
    0.9259   13.3874    0.6391 H   0  0  0  0  0  0  0  0  0  0  0  0
   -1.3007   14.6492    0.3389 H   0  0  0  0  0  0  0  0  0  0  0  0
    0.0018   15.2752    1.4797 H   0  0  0  0  0  0  0  0  0  0  0  0
   -1.2221   17.0814    0.0021 H   0  0  0  0  0  0  0  0  0  0  0  0
    1.8233   15.8207   -2.3278 H   0  0  0  0  0  0  0  0  0  0  0  0
    3.1897   17.4768   -0.1164 H   0  0  0  0  0  0  0  0  0  0  0  0
    4.0040   16.6122   -1.4951 H   0  0  0  0  0  0  0  0  0  0  0  0
    3.8310   19.0489   -1.8878 H   0  0  0  0  0  0  0  0  0  0  0  0
    2.9102   18.0704   -3.0966 H   0  0  0  0  0  0  0  0  0  0  0  0
    1.5745   19.9570   -2.4556 H   0  0  0  0  0  0  0  0  0  0  0  0
    1.8720   20.6670   -0.4710 H   0  0  0  0  0  0  0  0  0  0  0  0
   -0.6293   17.1305   -3.3238 H   0  0  0  0  0  0  0  0  0  0  0  0
   -0.3052   18.8382   -3.7768 H   0  0  0  0  0  0  0  0  0  0  0  0
    1.0327   17.6397   -3.7768 H   0  0  0  0  0  0  0  0  0  0  0  0
   -0.7995   19.1468   -0.1911 H   0  0  0  0  0  0  0  0  0  0  0  0
   -0.6859   20.1699   -1.6632 H   0  0  0  0  0  0  0  0  0  0  0  0
   -1.7311   18.7090   -1.6632 H   0  0  0  0  0  0  0  0  0  0  0  0
    2.0874   14.8429    1.7217 H   0  0  0  0  0  0  0  0  0  0  0  0
    3.7147   14.6309    0.9913 H   0  0  0  0  0  0  0  0  0  0  0  0
    2.9341   16.2487    0.9913 H   0  0  0  0  0  0  0  0  0  0  0  0
    3.8345   14.5589   -1.7455 H   0  0  0  0  0  0  0  0  0  0  0  0
    3.5314   13.2539   -0.4644 H   0  0  0  0  0  0  0  0  0  0  0  0
    2.1724   13.5533   -3.1558 H   0  0  0  0  0  0  0  0  0  0  0  0
    3.2785   12.2409   -2.5897 H   0  0  0  0  0  0  0  0  0  0  0  0
    1.5617   11.7708    0.4215 H   0  0  0  0  0  0  0  0  0  0  0  0
    1.3835   10.3055   -0.6021 H   0  0  0  0  0  0  0  0  0  0  0  0
    2.9306   11.2184   -0.6021 H   0  0  0  0  0  0  0  0  0  0  0  0
  1  2  1  0
  2  3  1  0
  3  4  1  0
  4  5  1  0
  5  6  1  0
  6  7  1  0
  7  8  1  0
  7  9  1  0
  2 10  1  0
 10 11  1  0
 11 12  1  0
 12 13  1  0
 13 14  1  6
 13 15  1  0
 15 16  1  0
 16 17  1  0
 17 18  2  0
 18 19  1  0
 19 20  1  0
 20 21  1  0
 21 22  1  0
 22 23  1  0
 22 24  1  0
 24 25  1  0
 24 26  1  0
 19 27  1  0
 27 28  1  1
 27 29  1  0
 29 30  1  0
 30 31  1  0
 31 32  1  1
  7  5  1  0
 31 10  1  0
 31 13  1  0
 27 15  1  0
 24 18  1  0
  1 33  1  0
  1 34  1  0
  1 35  1  0
  2 36  1  6
  3 37  1  0
  3 38  1  0
  4 39  1  0
  4 40  1  0
  5 41  1  1
  8 42  1  0
  8 43  1  0
  8 44  1  0
  9 45  1  0
  9 46  1  0
  9 47  1  0
 10 48  1  6
 11 49  1  0
 11 50  1  0
 12 51  1  0
 12 52  1  0
 14 53  1  0
 14 54  1  0
 14 55  1  0
 15 56  1  1
 16 57  1  0
 16 58  1  0
 17 59  1  0
 19 60  1  6
 20 61  1  0
 20 62  1  0
 21 63  1  0
 21 64  1  0
 22 65  1  6
 23 66  1  0
 25 67  1  0
 25 68  1  0
 25 69  1  0
 26 70  1  0
 26 71  1  0
 26 72  1  0
 28 73  1  0
 28 74  1  0
 28 75  1  0
 29 76  1  0
 29 77  1  0
 30 78  1  0
 30 79  1  0
 32 80  1  0
 32 81  1  0
 32 82  1  0
M  END
>  <meeko>  (7) 
{"is_sidechain": [false], "intermolecular_energy": 2.731, "internal_energy": -0.839}

$$$$
EPH_relaxed_0001_pdb2pqr_Repair_83_r2_0001_out
     RDKit          3D

 82 86  0  0  0  0  0  0  0  0999 V2000
    0.9740   19.7440   -1.6020 C   0  0  0  0  0  0  0  0  0  0  0  0
    1.3970   19.2510   -0.2160 C   0  0  2  0  0  0  0  0  0  0  0  0
    2.9150   19.3930    0.0130 C   0  0  0  0  0  0  0  0  0  0  0  0
    3.5410   18.2030    0.7460 C   0  0  0  0  0  0  0  0  0  0  0  0
    4.7310   18.6160    1.5580 C   0  0  2  0  0  0  0  0  0  0  0  0
    4.8180   18.0000    2.8490 O   0  0  0  0  0  0  0  0  0  0  0  0
    4.6310   19.4240    2.8380 C   0  0  0  0  0  0  0  0  0  0  0  0
    3.3080   19.8680    3.3790 C   0  0  0  0  0  0  0  0  0  0  0  0
    5.8310   20.1930    3.2950 C   0  0  0  0  0  0  0  0  0  0  0  0
    0.9760   17.7980   -0.0300 C   0  0  1  0  0  0  0  0  0  0  0  0
   -0.4410   17.6600    0.5870 C   0  0  0  0  0  0  0  0  0  0  0  0
   -1.0880   16.4050   -0.0530 C   0  0  0  0  0  0  0  0  0  0  0  0
    0.0820   15.6790   -0.7560 C   0  0  1  0  0  0  0  0  0  0  0  0
    0.8020   14.8850    0.3780 C   0  0  0  0  0  0  0  0  0  0  0  0
   -0.3010   14.7520   -1.9560 C   0  0  2  0  0  0  0  0  0  0  0  0
   -1.2050   13.5600   -1.5970 C   0  0  0  0  0  0  0  0  0  0  0  0
   -0.4880   12.3060   -1.2210 C   0  0  0  0  0  0  0  0  0  0  0  0
    0.8150   12.0530   -1.4460 C   0  0  0  0  0  0  0  0  0  0  0  0
    1.6860   13.0440   -2.2280 C   0  0  1  0  0  0  0  0  0  0  0  0
    2.5230   12.2770   -3.2850 C   0  0  0  0  0  0  0  0  0  0  0  0
    3.3370   11.1410   -2.6740 C   0  0  0  0  0  0  0  0  0  0  0  0
    2.4300   10.1450   -1.9550 C   0  0  2  0  0  0  0  0  0  0  0  0
    1.6100    9.4860   -2.9250 O   0  0  0  0  0  0  0  0  0  0  0  0
    1.5310   10.8060   -0.8730 C   0  0  0  0  0  0  0  0  0  0  0  0
    2.4040   11.2540    0.3260 C   0  0  0  0  0  0  0  0  0  0  0  0
    0.5670    9.7190   -0.3250 C   0  0  0  0  0  0  0  0  0  0  0  0
    0.9280   14.2980   -2.8430 C   0  0  1  0  0  0  0  0  0  0  0  0
    0.3550   13.9370   -4.2470 C   0  0  0  0  0  0  0  0  0  0  0  0
    1.9630   15.4630   -3.0720 C   0  0  0  0  0  0  0  0  0  0  0  0
    2.2090   16.4170   -1.8880 C   0  0  0  0  0  0  0  0  0  0  0  0
    0.8850   16.9160   -1.3010 C   0  0  2  0  0  0  0  0  0  0  0  0
    0.1490   17.7380   -2.4130 C   0  0  0  0  0  0  0  0  0  0  0  0
    0.2612   20.5748   -1.4939 H   0  0  0  0  0  0  0  0  0  0  0  0
    1.8600   20.0906   -2.1541 H   0  0  0  0  0  0  0  0  0  0  0  0
    0.4968   18.9209   -2.1541 H   0  0  0  0  0  0  0  0  0  0  0  0
    0.8905   19.8830    0.5283 H   0  0  0  0  0  0  0  0  0  0  0  0
    3.4059   19.4950   -0.9661 H   0  0  0  0  0  0  0  0  0  0  0  0
    3.0626   20.2771    0.6507 H   0  0  0  0  0  0  0  0  0  0  0  0
    2.7886   17.7608    1.4156 H   0  0  0  0  0  0  0  0  0  0  0  0
    3.8757   17.4740   -0.0067 H   0  0  0  0  0  0  0  0  0  0  0  0
    5.3355   18.7467    0.6483 H   0  0  0  0  0  0  0  0  0  0  0  0
    3.3393   19.8575    4.4785 H   0  0  0  0  0  0  0  0  0  0  0  0
    3.0920   20.8879    3.0280 H   0  0  0  0  0  0  0  0  0  0  0  0
    2.5204   19.1849    3.0280 H   0  0  0  0  0  0  0  0  0  0  0  0
    5.8584   20.2105    4.3945 H   0  0  0  0  0  0  0  0  0  0  0  0
    6.7429   19.7106    2.9132 H   0  0  0  0  0  0  0  0  0  0  0  0
    5.7737   21.2230    2.9132 H   0  0  0  0  0  0  0  0  0  0  0  0
    1.7976   17.4494    0.6130 H   0  0  0  0  0  0  0  0  0  0  0  0
   -0.3686   17.5344    1.6774 H   0  0  0  0  0  0  0  0  0  0  0  0
   -1.0454   18.5583    0.3925 H   0  0  0  0  0  0  0  0  0  0  0  0
   -1.5360   15.7624    0.7192 H   0  0  0  0  0  0  0  0  0  0  0  0
   -1.8984   16.6631   -0.7506 H   0  0  0  0  0  0  0  0  0  0  0  0
    0.4649   15.2568    1.3569 H   0  0  0  0  0  0  0  0  0  0  0  0
    0.5590   13.8159    0.2883 H   0  0  0  0  0  0  0  0  0  0  0  0
    1.8897   15.0226    0.2883 H   0  0  0  0  0  0  0  0  0  0  0  0
   -0.9164   15.4169   -2.5798 H   0  0  0  0  0  0  0  0  0  0  0  0
   -1.8379   13.8572   -0.7478 H   0  0  0  0  0  0  0  0  0  0  0  0
   -1.7731   13.3237   -2.5088 H   0  0  0  0  0  0  0  0  0  0  0  0
   -1.0736   11.5226   -0.7177 H   0  0  0  0  0  0  0  0  0  0  0  0
    2.3547   13.5092   -1.4888 H   0  0  0  0  0  0  0  0  0  0  0  0
    1.8403   11.8563   -4.0379 H   0  0  0  0  0  0  0  0  0  0  0  0
    3.2298   12.9907   -3.7334 H   0  0  0  0  0  0  0  0  0  0  0  0
    3.8828   10.6187   -3.4736 H   0  0  0  0  0  0  0  0  0  0  0  0
    4.0401   11.5667   -1.9429 H   0  0  0  0  0  0  0  0  0  0  0  0
    3.0777    9.4281   -1.4291 H   0  0  0  0  0  0  0  0  0  0  0  0
    1.7840    9.8990   -3.7870 H   0  0  0  0  0  0  0  0  0  0  0  0
    1.8966   10.9936    1.2666 H   0  0  0  0  0  0  0  0  0  0  0  0
    3.3777   10.7442    0.2813 H   0  0  0  0  0  0  0  0  0  0  0  0
    2.5576   12.3423    0.2813 H   0  0  0  0  0  0  0  0  0  0  0  0
    0.5822    9.7362    0.7748 H   0  0  0  0  0  0  0  0  0  0  0  0
   -0.4540    9.9213   -0.6808 H   0  0  0  0  0  0  0  0  0  0  0  0
    0.8899    8.7295   -0.6808 H   0  0  0  0  0  0  0  0  0  0  0  0
   -0.5701   13.3542   -4.1267 H   0  0  0  0  0  0  0  0  0  0  0  0
    0.1366   14.8610   -4.8025 H   0  0  0  0  0  0  0  0  0  0  0  0
    1.0941   13.3411   -4.8025 H   0  0  0  0  0  0  0  0  0  0  0  0
    2.9274   15.0042   -3.3354 H   0  0  0  0  0  0  0  0  0  0  0  0
    1.5201   16.0904   -3.8596 H   0  0  0  0  0  0  0  0  0  0  0  0
    2.7705   15.8836   -1.1069 H   0  0  0  0  0  0  0  0  0  0  0  0
    2.7810   17.2842   -2.2496 H   0  0  0  0  0  0  0  0  0  0  0  0
   -0.5144   18.4789   -1.9428 H   0  0  0  0  0  0  0  0  0  0  0  0
    0.8914   18.2553   -3.0385 H   0  0  0  0  0  0  0  0  0  0  0  0
   -0.4469   17.0571   -3.0385 H   0  0  0  0  0  0  0  0  0  0  0  0
  1  2  1  0
  2  3  1  0
  3  4  1  0
  4  5  1  0
  5  6  1  0
  6  7  1  0
  7  8  1  0
  7  9  1  0
  2 10  1  0
 10 11  1  0
 11 12  1  0
 12 13  1  0
 13 14  1  1
 13 15  1  0
 15 16  1  0
 16 17  1  0
 17 18  2  0
 18 19  1  0
 19 20  1  0
 20 21  1  0
 21 22  1  0
 22 23  1  0
 22 24  1  0
 24 25  1  0
 24 26  1  0
 19 27  1  0
 27 28  1  6
 27 29  1  0
 29 30  1  0
 30 31  1  0
 31 32  1  6
  7  5  1  0
 31 10  1  0
 31 13  1  0
 27 15  1  0
 24 18  1  0
  1 33  1  0
  1 34  1  0
  1 35  1  0
  2 36  1  1
  3 37  1  0
  3 38  1  0
  4 39  1  0
  4 40  1  0
  5 41  1  6
  8 42  1  0
  8 43  1  0
  8 44  1  0
  9 45  1  0
  9 46  1  0
  9 47  1  0
 10 48  1  1
 11 49  1  0
 11 50  1  0
 12 51  1  0
 12 52  1  0
 14 53  1  0
 14 54  1  0
 14 55  1  0
 15 56  1  6
 16 57  1  0
 16 58  1  0
 17 59  1  0
 19 60  1  1
 20 61  1  0
 20 62  1  0
 21 63  1  0
 21 64  1  0
 22 65  1  1
 23 66  1  0
 25 67  1  0
 25 68  1  0
 25 69  1  0
 26 70  1  0
 26 71  1  0
 26 72  1  0
 28 73  1  0
 28 74  1  0
 28 75  1  0
 29 76  1  0
 29 77  1  0
 30 78  1  0
 30 79  1  0
 32 80  1  0
 32 81  1  0
 32 82  1  0
M  END
>  <meeko>  (8) 
{"is_sidechain": [false], "intermolecular_energy": 2.731, "internal_energy": -0.839}

$$$$
EPH_relaxed_0001_pdb2pqr_Repair_83_r2_0001_out
     RDKit          3D

 82 86  0  0  0  0  0  0  0  0999 V2000
   -0.8690   16.3580   -5.8390 C   0  0  0  0  0  0  0  0  0  0  0  0
    0.2170   15.6570   -6.6600 C   0  0  2  0  0  0  0  0  0  0  0  0
   -0.1940   15.4800   -8.1360 C   0  0  0  0  0  0  0  0  0  0  0  0
    0.4490   16.4980   -9.0810 C   0  0  0  0  0  0  0  0  0  0  0  0
    1.8520   16.1120   -9.4400 C   0  0  2  0  0  0  0  0  0  0  0  0
    2.3300   16.6680  -10.6720 O   0  0  0  0  0  0  0  0  0  0  0  0
    2.2010   15.2380  -10.6300 C   0  0  0  0  0  0  0  0  0  0  0  0
    1.1410   14.6950  -11.5360 C   0  0  0  0  0  0  0  0  0  0  0  0
    3.5110   14.5150  -10.6270 C   0  0  0  0  0  0  0  0  0  0  0  0
    0.5410   14.3020   -6.0440 C   0  0  1  0  0  0  0  0  0  0  0  0
    1.8010   13.6460   -6.6700 C   0  0  0  0  0  0  0  0  0  0  0  0
    2.5180   12.8770   -5.5310 C   0  0  0  0  0  0  0  0  0  0  0  0
    1.4880   12.8360   -4.3790 C   0  0  1  0  0  0  0  0  0  0  0  0
    0.5280   11.6590   -4.7400 C   0  0  0  0  0  0  0  0  0  0  0  0
    2.0700   12.6840   -2.9360 C   0  0  2  0  0  0  0  0  0  0  0  0
    2.8420   11.3780   -2.6790 C   0  0  0  0  0  0  0  0  0  0  0  0
    2.0210   10.2420   -2.1640 C   0  0  0  0  0  0  0  0  0  0  0  0
    0.7810   10.3440   -1.6490 C   0  0  0  0  0  0  0  0  0  0  0  0
    0.1190   11.7140   -1.4550 C   0  0  1  0  0  0  0  0  0  0  0  0
   -0.5160   11.7870   -0.0420 C   0  0  0  0  0  0  0  0  0  0  0  0
   -1.4750   10.6320    0.2290 C   0  0  0  0  0  0  0  0  0  0  0  0
   -0.7650    9.2880    0.0840 C   0  0  2  0  0  0  0  0  0  0  0  0
    0.2090    9.1670    1.1250 O   0  0  0  0  0  0  0  0  0  0  0  0
   -0.0780    9.1050   -1.2980 C   0  0  0  0  0  0  0  0  0  0  0  0
   -1.1570    8.9350   -2.3970 C   0  0  0  0  0  0  0  0  0  0  0  0
    0.7180    7.7730   -1.2630 C   0  0  0  0  0  0  0  0  0  0  0  0
    1.0280   12.9760   -1.7820 C   0  0  1  0  0  0  0  0  0  0  0  0
    1.8580   13.3740   -0.5230 C   0  0  0  0  0  0  0  0  0  0  0  0
    0.1020   14.2060   -2.1100 C   0  0  0  0  0  0  0  0  0  0  0  0
   -0.3430   14.3700   -3.5760 C   0  0  0  0  0  0  0  0  0  0  0  0
    0.8530   14.2670   -4.5260 C   0  0  2  0  0  0  0  0  0  0  0  0
    1.8260   15.4520   -4.2020 C   0  0  0  0  0  0  0  0  0  0  0  0
   -0.6619   16.2243   -4.7670 H   0  0  0  0  0  0  0  0  0  0  0  0
   -0.8755   17.4312   -6.0801 H   0  0  0  0  0  0  0  0  0  0  0  0
   -1.8497   15.9220   -6.0801 H   0  0  0  0  0  0  0  0  0  0  0  0
    1.1111   16.2974   -6.6407 H   0  0  0  0  0  0  0  0  0  0  0  0
    0.1011   14.4710   -8.4599 H   0  0  0  0  0  0  0  0  0  0  0  0
   -1.2816   15.6365   -8.1874 H   0  0  0  0  0  0  0  0  0  0  0  0
   -0.1506   16.5585  -10.0012 H   0  0  0  0  0  0  0  0  0  0  0  0
    0.4816   17.4700   -8.5671 H   0  0  0  0  0  0  0  0  0  0  0  0
    2.1339   16.0596   -8.3780 H   0  0  0  0  0  0  0  0  0  0  0  0
    0.3224   14.2757  -10.9326 H   0  0  0  0  0  0  0  0  0  0  0  0
    0.7512   15.5045  -12.1707 H   0  0  0  0  0  0  0  0  0  0  0  0
    1.5702   13.9057  -12.1707 H   0  0  0  0  0  0  0  0  0  0  0  0
    3.8302   14.3388   -9.5892 H   0  0  0  0  0  0  0  0  0  0  0  0
    3.3989   13.5510  -11.1448 H   0  0  0  0  0  0  0  0  0  0  0  0
    4.2669   15.1237  -11.1448 H   0  0  0  0  0  0  0  0  0  0  0  0
   -0.4042   13.7772   -6.2467 H   0  0  0  0  0  0  0  0  0  0  0  0
    1.5079   12.9507   -7.4704 H   0  0  0  0  0  0  0  0  0  0  0  0
    2.4633   14.4052   -7.1116 H   0  0  0  0  0  0  0  0  0  0  0  0
    2.7793   11.8587   -5.8546 H   0  0  0  0  0  0  0  0  0  0  0  0
    3.4601   13.3592   -5.2310 H   0  0  0  0  0  0  0  0  0  0  0  0
    0.1510   11.1967   -3.8158 H   0  0  0  0  0  0  0  0  0  0  0  0
   -0.3177   12.0432   -5.3293 H   0  0  0  0  0  0  0  0  0  0  0  0
    1.0743   10.9078   -5.3293 H   0  0  0  0  0  0  0  0  0  0  0  0
    2.8202   13.4876   -2.8984 H   0  0  0  0  0  0  0  0  0  0  0  0
    3.3015   11.0626   -3.6274 H   0  0  0  0  0  0  0  0  0  0  0  0
    3.5731   11.6072   -1.8897 H   0  0  0  0  0  0  0  0  0  0  0  0
    2.4666    9.2373   -2.2091 H   0  0  0  0  0  0  0  0  0  0  0  0
   -0.6673   11.7829   -2.2212 H   0  0  0  0  0  0  0  0  0  0  0  0
    0.2884   11.7607    0.7078 H   0  0  0  0  0  0  0  0  0  0  0  0
   -1.0937   12.7213    0.0165 H   0  0  0  0  0  0  0  0  0  0  0  0
   -1.8681   10.7230    1.2523 H   0  0  0  0  0  0  0  0  0  0  0  0
   -2.2947   10.6770   -0.5032 H   0  0  0  0  0  0  0  0  0  0  0  0
   -1.5291    8.5005    0.1614 H   0  0  0  0  0  0  0  0  0  0  0  0
    0.0260    9.8600    1.7810 H   0  0  0  0  0  0  0  0  0  0  0  0
   -2.1389    8.7803   -1.9260 H   0  0  0  0  0  0  0  0  0  0  0  0
   -1.1888    9.8392   -3.0226 H   0  0  0  0  0  0  0  0  0  0  0  0
   -0.9092    8.0648   -3.0226 H   0  0  0  0  0  0  0  0  0  0  0  0
    0.8940    7.4784   -0.2179 H   0  0  0  0  0  0  0  0  0  0  0  0
    0.1411    6.9876   -1.7731 H   0  0  0  0  0  0  0  0  0  0  0  0
    1.6830    7.9090   -1.7731 H   0  0  0  0  0  0  0  0  0  0  0  0
    1.2982   13.1056    0.3851 H   0  0  0  0  0  0  0  0  0  0  0  0
    2.8189   12.8387   -0.5331 H   0  0  0  0  0  0  0  0  0  0  0  0
    2.0422   14.4584   -0.5331 H   0  0  0  0  0  0  0  0  0  0  0  0
   -0.8055   14.1124   -1.4954 H   0  0  0  0  0  0  0  0  0  0  0  0
    0.7155   15.0933   -1.8948 H   0  0  0  0  0  0  0  0  0  0  0  0
   -1.0677   13.5801   -3.8227 H   0  0  0  0  0  0  0  0  0  0  0  0
   -0.8010   15.3631   -3.6947 H   0  0  0  0  0  0  0  0  0  0  0  0
    1.9176   15.5635   -3.1115 H   0  0  0  0  0  0  0  0  0  0  0  0
    2.8158   15.2422   -4.6335 H   0  0  0  0  0  0  0  0  0  0  0  0
    1.4276   16.3821   -4.6335 H   0  0  0  0  0  0  0  0  0  0  0  0
  1  2  1  0
  2  3  1  0
  3  4  1  0
  4  5  1  0
  5  6  1  0
  6  7  1  0
  7  8  1  0
  7  9  1  0
  2 10  1  0
 10 11  1  0
 11 12  1  0
 12 13  1  0
 13 14  1  6
 13 15  1  0
 15 16  1  0
 16 17  1  0
 17 18  2  0
 18 19  1  0
 19 20  1  0
 20 21  1  0
 21 22  1  0
 22 23  1  0
 22 24  1  0
 24 25  1  0
 24 26  1  0
 19 27  1  0
 27 28  1  1
 27 29  1  0
 29 30  1  0
 30 31  1  0
 31 32  1  1
  7  5  1  0
 31 10  1  0
 31 13  1  0
 27 15  1  0
 24 18  1  0
  1 33  1  0
  1 34  1  0
  1 35  1  0
  2 36  1  6
  3 37  1  0
  3 38  1  0
  4 39  1  0
  4 40  1  0
  5 41  1  1
  8 42  1  0
  8 43  1  0
  8 44  1  0
  9 45  1  0
  9 46  1  0
  9 47  1  0
 10 48  1  1
 11 49  1  0
 11 50  1  0
 12 51  1  0
 12 52  1  0
 14 53  1  0
 14 54  1  0
 14 55  1  0
 15 56  1  6
 16 57  1  0
 16 58  1  0
 17 59  1  0
 19 60  1  6
 20 61  1  0
 20 62  1  0
 21 63  1  0
 21 64  1  0
 22 65  1  1
 23 66  1  0
 25 67  1  0
 25 68  1  0
 25 69  1  0
 26 70  1  0
 26 71  1  0
 26 72  1  0
 28 73  1  0
 28 74  1  0
 28 75  1  0
 29 76  1  0
 29 77  1  0
 30 78  1  0
 30 79  1  0
 32 80  1  0
 32 81  1  0
 32 82  1  0
M  END
>  <meeko>  (9) 
{"is_sidechain": [false], "intermolecular_energy": 2.731, "internal_energy": -0.839}

$$$$
EPH_relaxed_0001_pdb2pqr_Repair_83_r2_0001_out
     RDKit          3D

 82 86  0  0  0  0  0  0  0  0999 V2000
    0.1090   10.5420   -3.9630 C   0  0  0  0  0  0  0  0  0  0  0  0
    1.1410   10.3160   -2.8550 C   0  0  2  0  0  0  0  0  0  0  0  0
    0.8760    9.0150   -2.0710 C   0  0  0  0  0  0  0  0  0  0  0  0
    0.1190    9.2320   -0.7570 C   0  0  0  0  0  0  0  0  0  0  0  0
   -1.3070    8.7840   -0.8600 C   0  0  2  0  0  0  0  0  0  0  0  0
   -2.1710    9.6920   -1.5570 O   0  0  0  0  0  0  0  0  0  0  0  0
   -2.4570    9.4890   -0.1630 C   0  0  0  0  0  0  0  0  0  0  0  0
   -2.2300   10.6990    0.6870 C   0  0  0  0  0  0  0  0  0  0  0  0
   -3.7190    8.7230    0.0880 C   0  0  0  0  0  0  0  0  0  0  0  0
    1.1500   11.5060   -1.9020 C   0  0  1  0  0  0  0  0  0  0  0  0
    2.1630   11.3330   -0.7390 C   0  0  0  0  0  0  0  0  0  0  0  0
    2.7310   12.7420   -0.4270 C   0  0  0  0  0  0  0  0  0  0  0  0
    1.7950   13.7150   -1.1810 C   0  0  1  0  0  0  0  0  0  0  0  0
    0.5500   13.8730   -0.2530 C   0  0  0  0  0  0  0  0  0  0  0  0
    2.4060   15.1010   -1.5680 C   0  0  2  0  0  0  0  0  0  0  0  0
    2.8380   15.9790   -0.3800 C   0  0  0  0  0  0  0  0  0  0  0  0
    1.7890   16.9030    0.1440 C   0  0  0  0  0  0  0  0  0  0  0  0
    0.6490   17.2320   -0.4910 C   0  0  0  0  0  0  0  0  0  0  0  0
    0.3660   16.7320   -1.9130 C   0  0  1  0  0  0  0  0  0  0  0  0
   -0.1430   17.9100   -2.7840 C   0  0  0  0  0  0  0  0  0  0  0  0
   -1.3450   18.6180   -2.1660 C   0  0  0  0  0  0  0  0  0  0  0  0
   -1.0070   19.1520   -0.7760 C   0  0  2  0  0  0  0  0  0  0  0  0
   -0.0340   20.1940   -0.9060 O   0  0  0  0  0  0  0  0  0  0  0  0
   -0.4730   18.0560    0.1880 C   0  0  0  0  0  0  0  0  0  0  0  0
   -1.6240   17.0910    0.5670 C   0  0  0  0  0  0  0  0  0  0  0  0
   -0.0380   18.7510    1.5070 C   0  0  0  0  0  0  0  0  0  0  0  0
    1.5430   15.9220   -2.6100 C   0  0  1  0  0  0  0  0  0  0  0  0
    2.5210   16.9080   -3.3190 C   0  0  0  0  0  0  0  0  0  0  0  0
    0.9390   15.0070   -3.7390 C   0  0  0  0  0  0  0  0  0  0  0  0
    0.4620   13.6040   -3.3160 C   0  0  0  0  0  0  0  0  0  0  0  0
    1.5340   12.8860   -2.4910 C   0  0  2  0  0  0  0  0  0  0  0  0
    2.7920   12.6930   -3.4060 C   0  0  0  0  0  0  0  0  0  0  0  0
   -0.8714   10.7567   -3.5127 H   0  0  0  0  0  0  0  0  0  0  0  0
    0.4206   11.3932   -4.5862 H   0  0  0  0  0  0  0  0  0  0  0  0
    0.0363    9.6385   -4.5862 H   0  0  0  0  0  0  0  0  0  0  0  0
    2.1256   10.2171   -3.3353 H   0  0  0  0  0  0  0  0  0  0  0  0
    0.2827    8.3411   -2.7065 H   0  0  0  0  0  0  0  0  0  0  0  0
    1.8569    8.5906   -1.8109 H   0  0  0  0  0  0  0  0  0  0  0  0
    0.6161    8.6594    0.0398 H   0  0  0  0  0  0  0  0  0  0  0  0
    0.1253   10.3084   -0.5307 H   0  0  0  0  0  0  0  0  0  0  0  0
   -0.9986    7.7286   -0.8916 H   0  0  0  0  0  0  0  0  0  0  0  0
   -2.2830   10.4164    1.7488 H   0  0  0  0  0  0  0  0  0  0  0  0
   -1.2373   11.1195    0.4686 H   0  0  0  0  0  0  0  0  0  0  0  0
   -3.0028   11.4507    0.4686 H   0  0  0  0  0  0  0  0  0  0  0  0
   -3.8794    8.6256    1.1719 H   0  0  0  0  0  0  0  0  0  0  0  0
   -4.5683    9.2581   -0.3617 H   0  0  0  0  0  0  0  0  0  0  0  0
   -3.6363    7.7226   -0.3617 H   0  0  0  0  0  0  0  0  0  0  0  0
    0.0924   11.5072   -1.5994 H   0  0  0  0  0  0  0  0  0  0  0  0
    1.6559   10.9242    0.1474 H   0  0  0  0  0  0  0  0  0  0  0  0
    2.9672   10.6355   -1.0162 H   0  0  0  0  0  0  0  0  0  0  0  0
    2.7068   12.9397    0.6548 H   0  0  0  0  0  0  0  0  0  0  0  0
    3.7807   12.8472   -0.7384 H   0  0  0  0  0  0  0  0  0  0  0  0
    0.8692   13.8325    0.7989 H   0  0  0  0  0  0  0  0  0  0  0  0
    0.0647   14.8399   -0.4519 H   0  0  0  0  0  0  0  0  0  0  0  0
   -0.1614   13.0579   -0.4519 H   0  0  0  0  0  0  0  0  0  0  0  0
    3.3360   14.8134   -2.0802 H   0  0  0  0  0  0  0  0  0  0  0  0
    3.1457   15.3138    0.4403 H   0  0  0  0  0  0  0  0  0  0  0  0
    3.6494   16.6204   -0.7545 H   0  0  0  0  0  0  0  0  0  0  0  0
    1.9626   17.3529    1.1327 H   0  0  0  0  0  0  0  0  0  0  0  0
   -0.4224   15.9709   -1.8167 H   0  0  0  0  0  0  0  0  0  0  0  0
    0.6725   18.6386   -2.9031 H   0  0  0  0  0  0  0  0  0  0  0  0
   -0.4608   17.4962   -3.7524 H   0  0  0  0  0  0  0  0  0  0  0  0
   -1.6401   19.4576   -2.8125 H   0  0  0  0  0  0  0  0  0  0  0  0
   -2.1696   17.8957   -2.0742 H   0  0  0  0  0  0  0  0  0  0  0  0
   -1.9394   19.5322   -0.3331 H   0  0  0  0  0  0  0  0  0  0  0  0
    0.7470   19.9330   -0.3900 H   0  0  0  0  0  0  0  0  0  0  0  0
   -1.7020   17.0256    1.6623 H   0  0  0  0  0  0  0  0  0  0  0  0
   -2.5707   17.4693    0.1539 H   0  0  0  0  0  0  0  0  0  0  0  0
   -1.4166   16.0928    0.1539 H   0  0  0  0  0  0  0  0  0  0  0  0
   -0.4026   18.1685    2.3659 H   0  0  0  0  0  0  0  0  0  0  0  0
    1.0597   18.8119    1.5447 H   0  0  0  0  0  0  0  0  0  0  0  0
   -0.4630   19.7649    1.5447 H   0  0  0  0  0  0  0  0  0  0  0  0
    3.0831   17.4747   -2.5620 H   0  0  0  0  0  0  0  0  0  0  0  0
    3.2226   16.3400   -3.9476 H   0  0  0  0  0  0  0  0  0  0  0  0
    1.9473   17.6050   -3.9476 H   0  0  0  0  0  0  0  0  0  0  0  0
    0.0760   15.5359   -4.1697 H   0  0  0  0  0  0  0  0  0  0  0  0
    1.7681   14.8297   -4.4398 H   0  0  0  0  0  0  0  0  0  0  0  0
   -0.4518   13.7017   -2.7115 H   0  0  0  0  0  0  0  0  0  0  0  0
    0.2629   13.0133   -4.2223 H   0  0  0  0  0  0  0  0  0  0  0  0
    3.6847   12.5561   -2.7780 H   0  0  0  0  0  0  0  0  0  0  0  0
    2.6509   11.8060   -4.0411 H   0  0  0  0  0  0  0  0  0  0  0  0
    2.9233   13.5815   -4.0411 H   0  0  0  0  0  0  0  0  0  0  0  0
  1  2  1  0
  2  3  1  0
  3  4  1  0
  4  5  1  0
  5  6  1  0
  6  7  1  0
  7  8  1  0
  7  9  1  0
  2 10  1  0
 10 11  1  0
 11 12  1  0
 12 13  1  0
 13 14  1  1
 13 15  1  0
 15 16  1  0
 16 17  1  0
 17 18  2  0
 18 19  1  0
 19 20  1  0
 20 21  1  0
 21 22  1  0
 22 23  1  0
 22 24  1  0
 24 25  1  0
 24 26  1  0
 19 27  1  0
 27 28  1  6
 27 29  1  0
 29 30  1  0
 30 31  1  0
 31 32  1  6
  7  5  1  0
 31 10  1  0
 31 13  1  0
 27 15  1  0
 24 18  1  0
  1 33  1  0
  1 34  1  0
  1 35  1  0
  2 36  1  6
  3 37  1  0
  3 38  1  0
  4 39  1  0
  4 40  1  0
  5 41  1  6
  8 42  1  0
  8 43  1  0
  8 44  1  0
  9 45  1  0
  9 46  1  0
  9 47  1  0
 10 48  1  1
 11 49  1  0
 11 50  1  0
 12 51  1  0
 12 52  1  0
 14 53  1  0
 14 54  1  0
 14 55  1  0
 15 56  1  6
 16 57  1  0
 16 58  1  0
 17 59  1  0
 19 60  1  1
 20 61  1  0
 20 62  1  0
 21 63  1  0
 21 64  1  0
 22 65  1  1
 23 66  1  0
 25 67  1  0
 25 68  1  0
 25 69  1  0
 26 70  1  0
 26 71  1  0
 26 72  1  0
 28 73  1  0
 28 74  1  0
 28 75  1  0
 29 76  1  0
 29 77  1  0
 30 78  1  0
 30 79  1  0
 32 80  1  0
 32 81  1  0
 32 82  1  0
M  END
>  <meeko>  (10) 
{"is_sidechain": [false], "intermolecular_energy": 2.731, "internal_energy": -0.839}

$$$$
EPH_relaxed_0001_pdb2pqr_Repair_83_r2_0001_out
     RDKit          3D

 82 86  0  0  0  0  0  0  0  0999 V2000
    3.3820   18.3430   -2.3930 C   0  0  0  0  0  0  0  0  0  0  0  0
    2.1400   17.4890   -2.6610 C   0  0  2  0  0  0  0  0  0  0  0  0
    0.8400   18.2090   -2.2490 C   0  0  0  0  0  0  0  0  0  0  0  0
    1.0080   19.1410   -1.0460 C   0  0  0  0  0  0  0  0  0  0  0  0
   -0.2490   19.9020   -0.7550 C   0  0  2  0  0  0  0  0  0  0  0  0
   -0.4660   20.1940    0.6320 O   0  0  0  0  0  0  0  0  0  0  0  0
   -1.4220   19.3200    0.0110 C   0  0  0  0  0  0  0  0  0  0  0  0
   -1.3940   17.9170    0.5330 C   0  0  0  0  0  0  0  0  0  0  0  0
   -2.7740   19.9370   -0.1710 C   0  0  0  0  0  0  0  0  0  0  0  0
    2.2550   16.1590   -1.9250 C   0  0  1  0  0  0  0  0  0  0  0  0
    2.7080   16.3300   -0.4510 C   0  0  0  0  0  0  0  0  0  0  0  0
    1.9810   15.2340    0.3700 C   0  0  0  0  0  0  0  0  0  0  0  0
    1.4010   14.2710   -0.6920 C   0  0  1  0  0  0  0  0  0  0  0  0
    2.5960   13.3520   -1.0960 C   0  0  0  0  0  0  0  0  0  0  0  0
    0.1520   13.4360   -0.2590 C   0  0  2  0  0  0  0  0  0  0  0  0
    0.3890   12.4650    0.9110 C   0  0  0  0  0  0  0  0  0  0  0  0
    0.8230   11.0910    0.5210 C   0  0  0  0  0  0  0  0  0  0  0  0
    0.7400   10.5660   -0.7160 C   0  0  0  0  0  0  0  0  0  0  0  0
    0.0760   11.3450   -1.8590 C   0  0  1  0  0  0  0  0  0  0  0  0
   -0.8930   10.4090   -2.6290 C   0  0  0  0  0  0  0  0  0  0  0  0
   -0.2120    9.1320   -3.1110 C   0  0  0  0  0  0  0  0  0  0  0  0
    0.3850    8.3560   -1.9400 C   0  0  2  0  0  0  0  0  0  0  0  0
   -0.6800    7.8770   -1.1130 O   0  0  0  0  0  0  0  0  0  0  0  0
    1.3710    9.2010   -1.0850 C   0  0  0  0  0  0  0  0  0  0  0  0
    2.6660    9.4650   -1.8920 C   0  0  0  0  0  0  0  0  0  0  0  0
    1.7910    8.3470    0.1420 C   0  0  0  0  0  0  0  0  0  0  0  0
   -0.6000   12.7260   -1.4560 C   0  0  1  0  0  0  0  0  0  0  0  0
   -2.0650   12.4820   -0.9810 C   0  0  0  0  0  0  0  0  0  0  0  0
   -0.6940   13.6430   -2.7320 C   0  0  0  0  0  0  0  0  0  0  0  0
    0.5250   14.5330   -3.0400 C   0  0  0  0  0  0  0  0  0  0  0  0
    0.9680   15.3060   -1.7940 C   0  0  2  0  0  0  0  0  0  0  0  0
   -0.2060   16.2550   -1.3760 C   0  0  0  0  0  0  0  0  0  0  0  0
    3.5299   18.4447   -1.3077 H   0  0  0  0  0  0  0  0  0  0  0  0
    4.2631   17.8589   -2.8393 H   0  0  0  0  0  0  0  0  0  0  0  0
    3.2454   19.3390   -2.8393 H   0  0  0  0  0  0  0  0  0  0  0  0
    2.0888   17.3105   -3.7452 H   0  0  0  0  0  0  0  0  0  0  0  0
    0.4872   18.8050   -3.1036 H   0  0  0  0  0  0  0  0  0  0  0  0
    0.1205   17.4306   -1.9549 H   0  0  0  0  0  0  0  0  0  0  0  0
    1.2732   18.5400   -0.1637 H   0  0  0  0  0  0  0  0  0  0  0  0
    1.8009   19.8660   -1.2819 H   0  0  0  0  0  0  0  0  0  0  0  0
   -0.1844   20.4226   -1.7219 H   0  0  0  0  0  0  0  0  0  0  0  0
   -1.3944   17.9349    1.6329 H   0  0  0  0  0  0  0  0  0  0  0  0
   -2.2815   17.3747    0.1748 H   0  0  0  0  0  0  0  0  0  0  0  0
   -0.4856   17.4106    0.1748 H   0  0  0  0  0  0  0  0  0  0  0  0
   -3.2198   20.1404    0.8138 H   0  0  0  0  0  0  0  0  0  0  0  0
   -2.6749   20.8790   -0.7303 H   0  0  0  0  0  0  0  0  0  0  0  0
   -3.4206   19.2449   -0.7303 H   0  0  0  0  0  0  0  0  0  0  0  0
    2.9798   15.6488   -2.5764 H   0  0  0  0  0  0  0  0  0  0  0  0
    3.7977   16.2021   -0.3723 H   0  0  0  0  0  0  0  0  0  0  0  0
    2.4609   17.3340   -0.0757 H   0  0  0  0  0  0  0  0  0  0  0  0
    2.6889   14.7070    1.0266 H   0  0  0  0  0  0  0  0  0  0  0  0
    1.2016   15.6513    1.0245 H   0  0  0  0  0  0  0  0  0  0  0  0
    3.0896   12.9724   -0.1892 H   0  0  0  0  0  0  0  0  0  0  0  0
    2.2228   12.5060   -1.6918 H   0  0  0  0  0  0  0  0  0  0  0  0
    3.3179   13.9299   -1.6918 H   0  0  0  0  0  0  0  0  0  0  0  0
   -0.5257   14.2107    0.1289 H   0  0  0  0  0  0  0  0  0  0  0  0
    1.1667   12.8962    1.5584 H   0  0  0  0  0  0  0  0  0  0  0  0
   -0.5840   12.3467    1.4103 H   0  0  0  0  0  0  0  0  0  0  0  0
    1.2465   10.4535    1.3111 H   0  0  0  0  0  0  0  0  0  0  0  0
    0.8921   11.6652   -2.5234 H   0  0  0  0  0  0  0  0  0  0  0  0
   -1.7238   10.1355   -1.9619 H   0  0  0  0  0  0  0  0  0  0  0  0
   -1.2489   10.9533   -3.5162 H   0  0  0  0  0  0  0  0  0  0  0  0
   -0.9532    8.4995   -3.6214 H   0  0  0  0  0  0  0  0  0  0  0  0
    0.6000    9.4062   -3.8005 H   0  0  0  0  0  0  0  0  0  0  0  0
    0.9676    7.5224   -2.3592 H   0  0  0  0  0  0  0  0  0  0  0  0
   -1.5120    8.0110   -1.5980 H   0  0  0  0  0  0  0  0  0  0  0  0
    3.5022    9.6355   -1.1980 H   0  0  0  0  0  0  0  0  0  0  0  0
    2.8873    8.5935   -2.5256 H   0  0  0  0  0  0  0  0  0  0  0  0
    2.5284   10.3536   -2.5256 H   0  0  0  0  0  0  0  0  0  0  0  0
    1.5285    8.8807    1.0673 H   0  0  0  0  0  0  0  0  0  0  0  0
    1.2651    7.3813    0.1139 H   0  0  0  0  0  0  0  0  0  0  0  0
    2.8770    8.1740    0.1139 H   0  0  0  0  0  0  0  0  0  0  0  0
   -2.0979   12.4765    0.1185 H   0  0  0  0  0  0  0  0  0  0  0  0
   -2.7129   13.2846   -1.3632 H   0  0  0  0  0  0  0  0  0  0  0  0
   -2.4178   11.5127   -1.3632 H   0  0  0  0  0  0  0  0  0  0  0  0
   -0.8558   12.9882   -3.6010 H   0  0  0  0  0  0  0  0  0  0  0  0
   -1.5158   14.3435   -2.5227 H   0  0  0  0  0  0  0  0  0  0  0  0
    1.3555   13.8992   -3.3845 H   0  0  0  0  0  0  0  0  0  0  0  0
    0.2435   15.2560   -3.8197 H   0  0  0  0  0  0  0  0  0  0  0  0
   -0.2656   16.3032   -0.2787 H   0  0  0  0  0  0  0  0  0  0  0  0
   -0.0238   17.2626   -1.7779 H   0  0  0  0  0  0  0  0  0  0  0  0
   -1.1530   15.8657   -1.7779 H   0  0  0  0  0  0  0  0  0  0  0  0
  1  2  1  0
  2  3  1  0
  3  4  1  0
  4  5  1  0
  5  6  1  0
  6  7  1  0
  7  8  1  0
  7  9  1  0
  2 10  1  0
 10 11  1  0
 11 12  1  0
 12 13  1  0
 13 14  1  6
 13 15  1  0
 15 16  1  0
 16 17  1  0
 17 18  2  0
 18 19  1  0
 19 20  1  0
 20 21  1  0
 21 22  1  0
 22 23  1  0
 22 24  1  0
 24 25  1  0
 24 26  1  0
 19 27  1  0
 27 28  1  1
 27 29  1  0
 29 30  1  0
 30 31  1  0
 31 32  1  1
  7  5  1  0
 31 10  1  0
 31 13  1  0
 27 15  1  0
 24 18  1  0
  1 33  1  0
  1 34  1  0
  1 35  1  0
  2 36  1  6
  3 37  1  0
  3 38  1  0
  4 39  1  0
  4 40  1  0
  5 41  1  6
  8 42  1  0
  8 43  1  0
  8 44  1  0
  9 45  1  0
  9 46  1  0
  9 47  1  0
 10 48  1  6
 11 49  1  0
 11 50  1  0
 12 51  1  0
 12 52  1  0
 14 53  1  0
 14 54  1  0
 14 55  1  0
 15 56  1  1
 16 57  1  0
 16 58  1  0
 17 59  1  0
 19 60  1  6
 20 61  1  0
 20 62  1  0
 21 63  1  0
 21 64  1  0
 22 65  1  6
 23 66  1  0
 25 67  1  0
 25 68  1  0
 25 69  1  0
 26 70  1  0
 26 71  1  0
 26 72  1  0
 28 73  1  0
 28 74  1  0
 28 75  1  0
 29 76  1  0
 29 77  1  0
 30 78  1  0
 30 79  1  0
 32 80  1  0
 32 81  1  0
 32 82  1  0
M  END
>  <meeko>  (11) 
{"is_sidechain": [false], "intermolecular_energy": 2.731, "internal_energy": -0.839}

$$$$
EPH_relaxed_0001_pdb2pqr_Repair_83_r2_0001_out
     RDKit          3D

 82 86  0  0  0  0  0  0  0  0999 V2000
    0.1490    9.3240   -2.4140 C   0  0  0  0  0  0  0  0  0  0  0  0
    1.1700   10.3710   -2.8660 C   0  0  2  0  0  0  0  0  0  0  0  0
    2.5910    9.7840   -2.9820 C   0  0  0  0  0  0  0  0  0  0  0  0
    3.4960   10.5490   -3.9530 C   0  0  0  0  0  0  0  0  0  0  0  0
    4.8790   10.7220   -3.4020 C   0  0  2  0  0  0  0  0  0  0  0  0
    5.5330   11.9350   -3.7970 O   0  0  0  0  0  0  0  0  0  0  0  0
    6.1290   10.7140   -4.2620 C   0  0  0  0  0  0  0  0  0  0  0  0
    6.0540   10.5270   -5.7450 C   0  0  0  0  0  0  0  0  0  0  0  0
    7.4410   10.3980   -3.6140 C   0  0  0  0  0  0  0  0  0  0  0  0
    1.1700   11.5490   -1.8990 C   0  0  1  0  0  0  0  0  0  0  0  0
    2.2110   11.3860   -0.7590 C   0  0  0  0  0  0  0  0  0  0  0  0
    2.7510   12.8030   -0.4400 C   0  0  0  0  0  0  0  0  0  0  0  0
    1.7770   13.7630   -1.1620 C   0  0  1  0  0  0  0  0  0  0  0  0
    0.5480   13.8800   -0.2070 C   0  0  0  0  0  0  0  0  0  0  0  0
    2.3480   15.1680   -1.5430 C   0  0  2  0  0  0  0  0  0  0  0  0
    2.7820   16.0410   -0.3520 C   0  0  0  0  0  0  0  0  0  0  0  0
    1.7230   16.9330    0.2050 C   0  0  0  0  0  0  0  0  0  0  0  0
    0.5630   17.2430   -0.4030 C   0  0  0  0  0  0  0  0  0  0  0  0
    0.2630   16.7550   -1.8260 C   0  0  1  0  0  0  0  0  0  0  0  0
   -0.2920   17.9310   -2.6710 C   0  0  0  0  0  0  0  0  0  0  0  0
   -1.4970   18.6030   -2.0190 C   0  0  0  0  0  0  0  0  0  0  0  0
   -1.1430   19.1270   -0.6300 C   0  0  2  0  0  0  0  0  0  0  0  0
   -0.1980   20.1920   -0.7660 O   0  0  0  0  0  0  0  0  0  0  0  0
   -0.5640   18.0320    0.3090 C   0  0  0  0  0  0  0  0  0  0  0  0
   -1.6840   17.0350    0.6980 C   0  0  0  0  0  0  0  0  0  0  0  0
   -0.1190   18.7200    1.6280 C   0  0  0  0  0  0  0  0  0  0  0  0
    1.4440   15.9820   -2.5560 C   0  0  1  0  0  0  0  0  0  0  0  0
    2.3840   17.0000   -3.2720 C   0  0  0  0  0  0  0  0  0  0  0  0
    0.8390   15.0670   -3.6850 C   0  0  0  0  0  0  0  0  0  0  0  0
    0.4040   13.6480   -3.2710 C   0  0  0  0  0  0  0  0  0  0  0  0
    1.5100   12.9450   -2.4770 C   0  0  2  0  0  0  0  0  0  0  0  0
    2.7520   12.7940   -3.4190 C   0  0  0  0  0  0  0  0  0  0  0  0
    0.1182    9.2925   -1.3149 H   0  0  0  0  0  0  0  0  0  0  0  0
   -0.8455    9.5906   -2.8011 H   0  0  0  0  0  0  0  0  0  0  0  0
    0.4405    8.3365   -2.8011 H   0  0  0  0  0  0  0  0  0  0  0  0
    0.8715   10.7131   -3.8679 H   0  0  0  0  0  0  0  0  0  0  0  0
    3.0567    9.8023   -1.9856 H   0  0  0  0  0  0  0  0  0  0  0  0
    2.4857    8.7629   -3.3774 H   0  0  0  0  0  0  0  0  0  0  0  0
    3.5563    9.9909   -4.8990 H   0  0  0  0  0  0  0  0  0  0  0  0
    3.0625   11.5475   -4.1115 H   0  0  0  0  0  0  0  0  0  0  0  0
    4.6090   10.1737   -2.4874 H   0  0  0  0  0  0  0  0  0  0  0  0
    5.6531    9.5274   -5.9687 H   0  0  0  0  0  0  0  0  0  0  0  0
    5.3933   11.2924   -6.1781 H   0  0  0  0  0  0  0  0  0  0  0  0
    7.0605   10.6238   -6.1781 H   0  0  0  0  0  0  0  0  0  0  0  0
    7.3259   10.4257   -2.5204 H   0  0  0  0  0  0  0  0  0  0  0  0
    7.7703    9.3949   -3.9227 H   0  0  0  0  0  0  0  0  0  0  0  0
    8.1909   11.1412   -3.9227 H   0  0  0  0  0  0  0  0  0  0  0  0
    0.1188   11.5213   -1.5762 H   0  0  0  0  0  0  0  0  0  0  0  0
    1.7323   10.9537    0.1320 H   0  0  0  0  0  0  0  0  0  0  0  0
    3.0258   10.7120   -1.0619 H   0  0  0  0  0  0  0  0  0  0  0  0
    2.7442   12.9862    0.6446 H   0  0  0  0  0  0  0  0  0  0  0  0
    3.7914   12.9374   -0.7711 H   0  0  0  0  0  0  0  0  0  0  0  0
    0.8910   13.8473    0.8377 H   0  0  0  0  0  0  0  0  0  0  0  0
    0.0286   14.8317   -0.3928 H   0  0  0  0  0  0  0  0  0  0  0  0
   -0.1417   13.0435   -0.3928 H   0  0  0  0  0  0  0  0  0  0  0  0
    3.2740   14.9091   -2.0774 H   0  0  0  0  0  0  0  0  0  0  0  0
    3.1214   15.3728    0.4532 H   0  0  0  0  0  0  0  0  0  0  0  0
    3.5699   16.7066   -0.7343 H   0  0  0  0  0  0  0  0  0  0  0  0
    1.9060   17.3742    1.1959 H   0  0  0  0  0  0  0  0  0  0  0  0
   -0.5055   15.9745   -1.7247 H   0  0  0  0  0  0  0  0  0  0  0  0
    0.5035   18.6801   -2.7980 H   0  0  0  0  0  0  0  0  0  0  0  0
   -0.6208   17.5214   -3.6375 H   0  0  0  0  0  0  0  0  0  0  0  0
   -1.8248   19.4436   -2.6483 H   0  0  0  0  0  0  0  0  0  0  0  0
   -2.3024   17.8604   -1.9197 H   0  0  0  0  0  0  0  0  0  0  0  0
   -2.0747   19.4796   -0.1636 H   0  0  0  0  0  0  0  0  0  0  0  0
   -0.5400   20.9540   -0.2670 H   0  0  0  0  0  0  0  0  0  0  0  0
   -1.7546   16.9722    1.7939 H   0  0  0  0  0  0  0  0  0  0  0  0
   -2.6435   17.3833    0.2881 H   0  0  0  0  0  0  0  0  0  0  0  0
   -1.4492   16.0416    0.2881 H   0  0  0  0  0  0  0  0  0  0  0  0
   -0.4924   18.1428    2.4867 H   0  0  0  0  0  0  0  0  0  0  0  0
    0.9794   18.7645    1.6658 H   0  0  0  0  0  0  0  0  0  0  0  0
   -0.5288   19.7401    1.6658 H   0  0  0  0  0  0  0  0  0  0  0  0
    2.9280   17.5891   -2.5190 H   0  0  0  0  0  0  0  0  0  0  0  0
    3.1034   16.4551   -3.9010 H   0  0  0  0  0  0  0  0  0  0  0  0
    1.7836   17.6737   -3.9010 H   0  0  0  0  0  0  0  0  0  0  0  0
   -0.0447   15.5806   -4.0915 H   0  0  0  0  0  0  0  0  0  0  0  0
    1.6577   14.9185   -4.4045 H   0  0  0  0  0  0  0  0  0  0  0  0
   -0.4992   13.7163   -2.6469 H   0  0  0  0  0  0  0  0  0  0  0  0
    0.2002   13.0642   -4.1808 H   0  0  0  0  0  0  0  0  0  0  0  0
    3.6620   12.6834   -2.8110 H   0  0  0  0  0  0  0  0  0  0  0  0
    2.6248   11.9047   -4.0538 H   0  0  0  0  0  0  0  0  0  0  0  0
    2.8416   13.6879   -4.0538 H   0  0  0  0  0  0  0  0  0  0  0  0
  1  2  1  0
  2  3  1  0
  3  4  1  0
  4  5  1  0
  5  6  1  0
  6  7  1  0
  7  8  1  0
  7  9  1  0
  2 10  1  0
 10 11  1  0
 11 12  1  0
 12 13  1  0
 13 14  1  1
 13 15  1  0
 15 16  1  0
 16 17  1  0
 17 18  2  0
 18 19  1  0
 19 20  1  0
 20 21  1  0
 21 22  1  0
 22 23  1  0
 22 24  1  0
 24 25  1  0
 24 26  1  0
 19 27  1  0
 27 28  1  6
 27 29  1  0
 29 30  1  0
 30 31  1  0
 31 32  1  6
  7  5  1  0
 31 10  1  0
 31 13  1  0
 27 15  1  0
 24 18  1  0
  1 33  1  0
  1 34  1  0
  1 35  1  0
  2 36  1  6
  3 37  1  0
  3 38  1  0
  4 39  1  0
  4 40  1  0
  5 41  1  1
  8 42  1  0
  8 43  1  0
  8 44  1  0
  9 45  1  0
  9 46  1  0
  9 47  1  0
 10 48  1  1
 11 49  1  0
 11 50  1  0
 12 51  1  0
 12 52  1  0
 14 53  1  0
 14 54  1  0
 14 55  1  0
 15 56  1  6
 16 57  1  0
 16 58  1  0
 17 59  1  0
 19 60  1  1
 20 61  1  0
 20 62  1  0
 21 63  1  0
 21 64  1  0
 22 65  1  1
 23 66  1  0
 25 67  1  0
 25 68  1  0
 25 69  1  0
 26 70  1  0
 26 71  1  0
 26 72  1  0
 28 73  1  0
 28 74  1  0
 28 75  1  0
 29 76  1  0
 29 77  1  0
 30 78  1  0
 30 79  1  0
 32 80  1  0
 32 81  1  0
 32 82  1  0
M  END
>  <meeko>  (12) 
{"is_sidechain": [false], "intermolecular_energy": 2.731, "internal_energy": -0.839}

$$$$
EPH_relaxed_0001_pdb2pqr_Repair_83_r2_0001_out
     RDKit          3D

 82 86  0  0  0  0  0  0  0  0999 V2000
    2.1260   10.9600   -5.1840 C   0  0  0  0  0  0  0  0  0  0  0  0
    1.4440   10.7970   -3.8230 C   0  0  2  0  0  0  0  0  0  0  0  0
    0.3160    9.7470   -3.8600 C   0  0  0  0  0  0  0  0  0  0  0  0
    0.3780    8.7360   -2.7130 C   0  0  0  0  0  0  0  0  0  0  0  0
   -0.2880    9.2580   -1.4760 C   0  0  2  0  0  0  0  0  0  0  0  0
   -0.6010    8.2590   -0.4970 O   0  0  0  0  0  0  0  0  0  0  0  0
   -1.7200    8.9300   -1.0960 C   0  0  0  0  0  0  0  0  0  0  0  0
   -2.5730    8.0470   -1.9520 C   0  0  0  0  0  0  0  0  0  0  0  0
   -2.4410    9.8520   -0.1620 C   0  0  0  0  0  0  0  0  0  0  0  0
    0.8930   12.1390   -3.3540 C   0  0  1  0  0  0  0  0  0  0  0  0
   -0.6190   12.0750   -3.0080 C   0  0  0  0  0  0  0  0  0  0  0  0
   -0.8460   13.0400   -1.8160 C   0  0  0  0  0  0  0  0  0  0  0  0
    0.4570   13.8690   -1.7320 C   0  0  1  0  0  0  0  0  0  0  0  0
    0.3000   14.9760   -2.8210 C   0  0  0  0  0  0  0  0  0  0  0  0
    0.7990   14.4800   -0.3340 C   0  0  2  0  0  0  0  0  0  0  0  0
   -0.2240   15.4970    0.2010 C   0  0  0  0  0  0  0  0  0  0  0  0
    0.0360   16.9190   -0.1710 C   0  0  0  0  0  0  0  0  0  0  0  0
    1.1940   17.4000   -0.6600 C   0  0  0  0  0  0  0  0  0  0  0  0
    2.4280   16.4990   -0.7930 C   0  0  1  0  0  0  0  0  0  0  0  0
    3.6720   17.2380   -0.2340 C   0  0  0  0  0  0  0  0  0  0  0  0
    3.8770   18.6070   -0.8770 C   0  0  0  0  0  0  0  0  0  0  0  0
    2.6510   19.4940   -0.6730 C   0  0  2  0  0  0  0  0  0  0  0  0
    2.5260   19.7930    0.7210 O   0  0  0  0  0  0  0  0  0  0  0  0
    1.3350   18.8490   -1.1900 C   0  0  0  0  0  0  0  0  0  0  0  0
    1.3520   18.8020   -2.7380 C   0  0  0  0  0  0  0  0  0  0  0  0
    0.1590   19.7830   -0.7960 C   0  0  0  0  0  0  0  0  0  0  0  0
    2.2780   15.0280   -0.2100 C   0  0  1  0  0  0  0  0  0  0  0  0
    2.6300   15.0200    1.3090 C   0  0  0  0  0  0  0  0  0  0  0  0
    3.3260   14.0870   -0.9130 C   0  0  0  0  0  0  0  0  0  0  0  0
    2.8860   13.4190   -2.2300 C   0  0  0  0  0  0  0  0  0  0  0  0
    1.5130   12.7560   -2.0760 C   0  0  2  0  0  0  0  0  0  0  0  0
    1.6460   11.6230   -1.0020 C   0  0  0  0  0  0  0  0  0  0  0  0
    3.1860   11.2133   -5.0350 H   0  0  0  0  0  0  0  0  0  0  0  0
    2.0498   10.0183   -5.7474 H   0  0  0  0  0  0  0  0  0  0  0  0
    1.6322   11.7654   -5.7474 H   0  0  0  0  0  0  0  0  0  0  0  0
    2.2038   10.4386   -3.1129 H   0  0  0  0  0  0  0  0  0  0  0  0
   -0.6491   10.2723   -3.8080 H   0  0  0  0  0  0  0  0  0  0  0  0
    0.4357    9.1798   -4.7949 H   0  0  0  0  0  0  0  0  0  0  0  0
   -0.1273    7.8105   -3.0262 H   0  0  0  0  0  0  0  0  0  0  0  0
    1.4363    8.5482   -2.4789 H   0  0  0  0  0  0  0  0  0  0  0  0
    0.2545   10.2114   -1.5577 H   0  0  0  0  0  0  0  0  0  0  0  0
   -3.1941    7.4041   -1.3110 H   0  0  0  0  0  0  0  0  0  0  0  0
   -3.2219    8.6680   -2.5871 H   0  0  0  0  0  0  0  0  0  0  0  0
   -1.9300    7.4200   -2.5871 H   0  0  0  0  0  0  0  0  0  0  0  0
   -2.2191    9.5682    0.8773 H   0  0  0  0  0  0  0  0  0  0  0  0
   -2.1093   10.8858   -0.3386 H   0  0  0  0  0  0  0  0  0  0  0  0
   -3.5243    9.7793   -0.3386 H   0  0  0  0  0  0  0  0  0  0  0  0
    1.1437   12.7569   -4.2288 H   0  0  0  0  0  0  0  0  0  0  0  0
   -1.2194   12.3935   -3.8729 H   0  0  0  0  0  0  0  0  0  0  0  0
   -0.9221   11.0497   -2.7495 H   0  0  0  0  0  0  0  0  0  0  0  0
   -1.7106   13.6934   -2.0045 H   0  0  0  0  0  0  0  0  0  0  0  0
   -1.0604   12.5036   -0.8799 H   0  0  0  0  0  0  0  0  0  0  0  0
    0.1615   15.9525   -2.3339 H   0  0  0  0  0  0  0  0  0  0  0  0
    1.2032   15.0040   -3.4483 H   0  0  0  0  0  0  0  0  0  0  0  0
   -0.5753   14.7517   -3.4483 H   0  0  0  0  0  0  0  0  0  0  0  0
    0.7265   13.6057    0.3296 H   0  0  0  0  0  0  0  0  0  0  0  0
   -1.2146   15.2195   -0.1884 H   0  0  0  0  0  0  0  0  0  0  0  0
   -0.1531   15.4516    1.2978 H   0  0  0  0  0  0  0  0  0  0  0  0
   -0.7884   17.6342   -0.0339 H   0  0  0  0  0  0  0  0  0  0  0  0
    2.5563   16.3159   -1.8700 H   0  0  0  0  0  0  0  0  0  0  0  0
    3.5443   17.3731    0.8502 H   0  0  0  0  0  0  0  0  0  0  0  0
    4.5560   16.6251   -0.4641 H   0  0  0  0  0  0  0  0  0  0  0  0
    4.7524   19.0919   -0.4203 H   0  0  0  0  0  0  0  0  0  0  0  0
    4.0345   18.4681   -1.9568 H   0  0  0  0  0  0  0  0  0  0  0  0
    2.8036   20.4094   -1.2636 H   0  0  0  0  0  0  0  0  0  0  0  0
    3.2980   19.4150    1.1740 H   0  0  0  0  0  0  0  0  0  0  0  0
    1.7086   17.8161   -3.0710 H   0  0  0  0  0  0  0  0  0  0  0  0
    0.3351   18.9728   -3.1212 H   0  0  0  0  0  0  0  0  0  0  0  0
    2.0243   19.5837   -3.1212 H   0  0  0  0  0  0  0  0  0  0  0  0
    0.0874   19.8399    0.3002 H   0  0  0  0  0  0  0  0  0  0  0  0
    0.3368   20.7887   -1.2045 H   0  0  0  0  0  0  0  0  0  0  0  0
   -0.7804   19.3821   -1.2045 H   0  0  0  0  0  0  0  0  0  0  0  0
    1.7027   15.0411    1.9004 H   0  0  0  0  0  0  0  0  0  0  0  0
    3.1974   14.1087    1.5491 H   0  0  0  0  0  0  0  0  0  0  0  0
    3.2382   15.9046    1.5491 H   0  0  0  0  0  0  0  0  0  0  0  0
    4.2217   14.6883   -1.1278 H   0  0  0  0  0  0  0  0  0  0  0  0
    3.4859   13.2573   -0.2087 H   0  0  0  0  0  0  0  0  0  0  0  0
    2.8305   14.1825   -3.0199 H   0  0  0  0  0  0  0  0  0  0  0  0
    3.6218   12.6452   -2.4940 H   0  0  0  0  0  0  0  0  0  0  0  0
    1.5942   12.0639    0.0044 H   0  0  0  0  0  0  0  0  0  0  0  0
    0.8265   10.9001   -1.1282 H   0  0  0  0  0  0  0  0  0  0  0  0
    2.6106   11.1095   -1.1282 H   0  0  0  0  0  0  0  0  0  0  0  0
  1  2  1  0
  2  3  1  0
  3  4  1  0
  4  5  1  0
  5  6  1  0
  6  7  1  0
  7  8  1  0
  7  9  1  0
  2 10  1  0
 10 11  1  0
 11 12  1  0
 12 13  1  0
 13 14  1  6
 13 15  1  0
 15 16  1  0
 16 17  1  0
 17 18  2  0
 18 19  1  0
 19 20  1  0
 20 21  1  0
 21 22  1  0
 22 23  1  0
 22 24  1  0
 24 25  1  0
 24 26  1  0
 19 27  1  0
 27 28  1  1
 27 29  1  0
 29 30  1  0
 30 31  1  0
 31 32  1  1
  7  5  1  0
 31 10  1  0
 31 13  1  0
 27 15  1  0
 24 18  1  0
  1 33  1  0
  1 34  1  0
  1 35  1  0
  2 36  1  1
  3 37  1  0
  3 38  1  0
  4 39  1  0
  4 40  1  0
  5 41  1  1
  8 42  1  0
  8 43  1  0
  8 44  1  0
  9 45  1  0
  9 46  1  0
  9 47  1  0
 10 48  1  6
 11 49  1  0
 11 50  1  0
 12 51  1  0
 12 52  1  0
 14 53  1  0
 14 54  1  0
 14 55  1  0
 15 56  1  1
 16 57  1  0
 16 58  1  0
 17 59  1  0
 19 60  1  6
 20 61  1  0
 20 62  1  0
 21 63  1  0
 21 64  1  0
 22 65  1  6
 23 66  1  0
 25 67  1  0
 25 68  1  0
 25 69  1  0
 26 70  1  0
 26 71  1  0
 26 72  1  0
 28 73  1  0
 28 74  1  0
 28 75  1  0
 29 76  1  0
 29 77  1  0
 30 78  1  0
 30 79  1  0
 32 80  1  0
 32 81  1  0
 32 82  1  0
M  END
>  <meeko>  (13) 
{"is_sidechain": [false], "intermolecular_energy": 2.731, "internal_energy": -0.839}

$$$$
EPH_relaxed_0001_pdb2pqr_Repair_83_r2_0001_out
     RDKit          3D

 82 86  0  0  0  0  0  0  0  0999 V2000
    0.9200   14.9000   -2.5960 C   0  0  0  0  0  0  0  0  0  0  0  0
    1.1970   14.2270   -3.9430 C   0  0  2  0  0  0  0  0  0  0  0  0
    0.5050   14.9590   -5.1110 C   0  0  0  0  0  0  0  0  0  0  0  0
    1.0880   14.6160   -6.4840 C   0  0  0  0  0  0  0  0  0  0  0  0
    0.8390   15.7070   -7.4810 C   0  0  2  0  0  0  0  0  0  0  0  0
    0.3830   15.2540   -8.7630 O   0  0  0  0  0  0  0  0  0  0  0  0
    1.6680   15.8980   -8.7380 C   0  0  0  0  0  0  0  0  0  0  0  0
    2.8100   14.9890   -9.0640 C   0  0  0  0  0  0  0  0  0  0  0  0
    1.6790   17.2460   -9.3890 C   0  0  0  0  0  0  0  0  0  0  0  0
    0.7440   12.7720   -3.9000 C   0  0  1  0  0  0  0  0  0  0  0  0
    1.8750   11.7830   -4.2900 C   0  0  0  0  0  0  0  0  0  0  0  0
    1.6740   10.5110   -3.4260 C   0  0  0  0  0  0  0  0  0  0  0  0
    0.2610   10.6720   -2.8170 C   0  0  1  0  0  0  0  0  0  0  0  0
   -0.7160   10.2130   -3.9450 C   0  0  0  0  0  0  0  0  0  0  0  0
   -0.0050    9.9110   -1.4780 C   0  0  2  0  0  0  0  0  0  0  0  0
    0.0980    8.3780   -1.5660 C   0  0  0  0  0  0  0  0  0  0  0  0
   -1.1750    7.6720   -1.8940 C   0  0  0  0  0  0  0  0  0  0  0  0
   -2.4070    8.2100   -1.8290 C   0  0  0  0  0  0  0  0  0  0  0  0
   -2.6180    9.6340   -1.2980 C   0  0  1  0  0  0  0  0  0  0  0  0
   -3.7970    9.6410   -0.2900 C   0  0  0  0  0  0  0  0  0  0  0  0
   -5.0720    9.0430   -0.8770 C   0  0  0  0  0  0  0  0  0  0  0  0
   -4.8380    7.6070   -1.3410 C   0  0  2  0  0  0  0  0  0  0  0  0
   -4.5800    6.7890   -0.1950 O   0  0  0  0  0  0  0  0  0  0  0  0
   -3.6660    7.4740   -2.3530 C   0  0  0  0  0  0  0  0  0  0  0  0
   -4.0720    8.1080   -3.7060 C   0  0  0  0  0  0  0  0  0  0  0  0
   -3.4440    5.9630   -2.6300 C   0  0  0  0  0  0  0  0  0  0  0  0
   -1.3240   10.3600   -0.7280 C   0  0  1  0  0  0  0  0  0  0  0  0
   -1.1280    9.9960    0.7750 C   0  0  0  0  0  0  0  0  0  0  0  0
   -1.5430   11.9180   -0.7830 C   0  0  0  0  0  0  0  0  0  0  0  0
   -1.1500   12.6290   -2.0910 C   0  0  0  0  0  0  0  0  0  0  0  0
    0.2570   12.2190   -2.5370 C   0  0  2  0  0  0  0  0  0  0  0  0
    1.2650   12.6880   -1.4330 C   0  0  0  0  0  0  0  0  0  0  0  0
    1.2009   14.2174   -1.7804 H   0  0  0  0  0  0  0  0  0  0  0  0
    1.5106   15.8249   -2.5199 H   0  0  0  0  0  0  0  0  0  0  0  0
   -0.1505   15.1412   -2.5199 H   0  0  0  0  0  0  0  0  0  0  0  0
    2.2817   14.2741   -4.1194 H   0  0  0  0  0  0  0  0  0  0  0  0
   -0.5608   14.6870   -5.1085 H   0  0  0  0  0  0  0  0  0  0  0  0
    0.6637   16.0362   -4.9544 H   0  0  0  0  0  0  0  0  0  0  0  0
    2.1731   14.4663   -6.3831 H   0  0  0  0  0  0  0  0  0  0  0  0
    0.5956   13.7016   -6.8466 H   0  0  0  0  0  0  0  0  0  0  0  0
    0.5407   16.4013   -6.6816 H   0  0  0  0  0  0  0  0  0  0  0  0
    3.2669   14.6254   -8.1318 H   0  0  0  0  0  0  0  0  0  0  0  0
    2.4422   14.1338   -9.6500 H   0  0  0  0  0  0  0  0  0  0  0  0
    3.5609   15.5392   -9.6500 H   0  0  0  0  0  0  0  0  0  0  0  0
    1.6854   18.0271   -8.6146 H   0  0  0  0  0  0  0  0  0  0  0  0
    2.5780   17.3434  -10.0154 H   0  0  0  0  0  0  0  0  0  0  0  0
    0.7817   17.3580  -10.0154 H   0  0  0  0  0  0  0  0  0  0  0  0
   -0.0960   12.8188   -4.6087 H   0  0  0  0  0  0  0  0  0  0  0  0
    1.8056   11.5302   -5.3583 H   0  0  0  0  0  0  0  0  0  0  0  0
    2.8660   12.2271   -4.1149 H   0  0  0  0  0  0  0  0  0  0  0  0
    1.7275    9.6060   -4.0490 H   0  0  0  0  0  0  0  0  0  0  0  0
    2.4509   10.4037   -2.6547 H   0  0  0  0  0  0  0  0  0  0  0  0
   -1.6236    9.7866   -3.4929 H   0  0  0  0  0  0  0  0  0  0  0  0
   -0.9883   11.0774   -4.5684 H   0  0  0  0  0  0  0  0  0  0  0  0
   -0.2245    9.4516   -4.5684 H   0  0  0  0  0  0  0  0  0  0  0  0
    0.8419   10.2311   -0.8533 H   0  0  0  0  0  0  0  0  0  0  0  0
    0.8343    8.1309   -2.3450 H   0  0  0  0  0  0  0  0  0  0  0  0
    0.3871    8.0340   -0.5619 H   0  0  0  0  0  0  0  0  0  0  0  0
   -1.1002    6.6229   -2.2162 H   0  0  0  0  0  0  0  0  0  0  0  0
   -2.8711   10.2507   -2.1730 H   0  0  0  0  0  0  0  0  0  0  0  0
   -3.5078    9.0553    0.5950 H   0  0  0  0  0  0  0  0  0  0  0  0
   -4.0083   10.6889   -0.0306 H   0  0  0  0  0  0  0  0  0  0  0  0
   -5.8594    9.0493   -0.1089 H   0  0  0  0  0  0  0  0  0  0  0  0
   -5.3761    9.6471   -1.7445 H   0  0  0  0  0  0  0  0  0  0  0  0
   -5.7458    7.2778   -1.8678 H   0  0  0  0  0  0  0  0  0  0  0  0
   -4.4140    7.3810    0.5580 H   0  0  0  0  0  0  0  0  0  0  0  0
   -4.6569    9.0213   -3.5221 H   0  0  0  0  0  0  0  0  0  0  0  0
   -3.1674    8.3609   -4.2785 H   0  0  0  0  0  0  0  0  0  0  0  0
   -4.6801    7.3922   -4.2785 H   0  0  0  0  0  0  0  0  0  0  0  0
   -3.3647    5.4229   -1.6750 H   0  0  0  0  0  0  0  0  0  0  0  0
   -4.2936    5.5671   -3.2057 H   0  0  0  0  0  0  0  0  0  0  0  0
   -2.5164    5.8282   -3.2057 H   0  0  0  0  0  0  0  0  0  0  0  0
   -1.5560   10.7908    1.4036 H   0  0  0  0  0  0  0  0  0  0  0  0
   -1.6356    9.0444    0.9910 H   0  0  0  0  0  0  0  0  0  0  0  0
   -0.0541    9.8960    0.9910 H   0  0  0  0  0  0  0  0  0  0  0  0
   -2.6119   12.1101   -0.6081 H   0  0  0  0  0  0  0  0  0  0  0  0
   -0.8690   12.3304   -0.0177 H   0  0  0  0  0  0  0  0  0  0  0  0
   -1.8698   12.3588   -2.8777 H   0  0  0  0  0  0  0  0  0  0  0  0
   -1.1599   13.7150   -1.9163 H   0  0  0  0  0  0  0  0  0  0  0  0
    0.8383   12.4895   -0.4387 H   0  0  0  0  0  0  0  0  0  0  0  0
    2.2111   12.1376   -1.5426 H   0  0  0  0  0  0  0  0  0  0  0  0
    1.4533   13.7662   -1.5426 H   0  0  0  0  0  0  0  0  0  0  0  0
  1  2  1  0
  2  3  1  0
  3  4  1  0
  4  5  1  0
  5  6  1  0
  6  7  1  0
  7  8  1  0
  7  9  1  0
  2 10  1  0
 10 11  1  0
 11 12  1  0
 12 13  1  0
 13 14  1  6
 13 15  1  0
 15 16  1  0
 16 17  1  0
 17 18  2  0
 18 19  1  0
 19 20  1  0
 20 21  1  0
 21 22  1  0
 22 23  1  0
 22 24  1  0
 24 25  1  0
 24 26  1  0
 19 27  1  0
 27 28  1  1
 27 29  1  0
 29 30  1  0
 30 31  1  0
 31 32  1  1
  7  5  1  0
 31 10  1  0
 31 13  1  0
 27 15  1  0
 24 18  1  0
  1 33  1  0
  1 34  1  0
  1 35  1  0
  2 36  1  6
  3 37  1  0
  3 38  1  0
  4 39  1  0
  4 40  1  0
  5 41  1  1
  8 42  1  0
  8 43  1  0
  8 44  1  0
  9 45  1  0
  9 46  1  0
  9 47  1  0
 10 48  1  6
 11 49  1  0
 11 50  1  0
 12 51  1  0
 12 52  1  0
 14 53  1  0
 14 54  1  0
 14 55  1  0
 15 56  1  1
 16 57  1  0
 16 58  1  0
 17 59  1  0
 19 60  1  6
 20 61  1  0
 20 62  1  0
 21 63  1  0
 21 64  1  0
 22 65  1  6
 23 66  1  0
 25 67  1  0
 25 68  1  0
 25 69  1  0
 26 70  1  0
 26 71  1  0
 26 72  1  0
 28 73  1  0
 28 74  1  0
 28 75  1  0
 29 76  1  0
 29 77  1  0
 30 78  1  0
 30 79  1  0
 32 80  1  0
 32 81  1  0
 32 82  1  0
M  END
>  <meeko>  (14) 
{"is_sidechain": [false], "intermolecular_energy": 2.731, "internal_energy": -0.839}

$$$$
EPH_relaxed_0001_pdb2pqr_Repair_83_r2_0001_out
     RDKit          3D

 82 86  0  0  0  0  0  0  0  0999 V2000
   -1.6730   14.8940    0.5140 C   0  0  0  0  0  0  0  0  0  0  0  0
   -0.3300   15.5840    0.2610 C   0  0  2  0  0  0  0  0  0  0  0  0
   -0.3980   16.5760   -0.9170 C   0  0  0  0  0  0  0  0  0  0  0  0
   -0.0280   18.0110   -0.5350 C   0  0  0  0  0  0  0  0  0  0  0  0
    1.3970   18.1150   -0.0820 C   0  0  2  0  0  0  0  0  0  0  0  0
    2.0710   19.3120   -0.4930 O   0  0  0  0  0  0  0  0  0  0  0  0
    2.5810   18.0810   -1.0300 C   0  0  0  0  0  0  0  0  0  0  0  0
    2.3930   17.9380   -2.5080 C   0  0  0  0  0  0  0  0  0  0  0  0
    3.9220   17.6960   -0.4870 C   0  0  0  0  0  0  0  0  0  0  0  0
    0.7490   14.5390    0.0010 C   0  0  1  0  0  0  0  0  0  0  0  0
    0.8700   13.5050    1.1520 C   0  0  0  0  0  0  0  0  0  0  0  0
    1.2300   12.1470    0.4970 C   0  0  0  0  0  0  0  0  0  0  0  0
    1.6290   12.5070   -0.9540 C   0  0  1  0  0  0  0  0  0  0  0  0
    3.1090   12.9940   -0.8540 C   0  0  0  0  0  0  0  0  0  0  0  0
    1.4660   11.3720   -2.0170 C   0  0  2  0  0  0  0  0  0  0  0  0
    2.3360   10.1260   -1.7800 C   0  0  0  0  0  0  0  0  0  0  0  0
    3.6800   10.1540   -2.4280 C   0  0  0  0  0  0  0  0  0  0  0  0
    4.0630   11.0040   -3.3990 C   0  0  0  0  0  0  0  0  0  0  0  0
    3.0690   11.9990   -4.0110 C   0  0  1  0  0  0  0  0  0  0  0  0
    3.1920   11.9690   -5.5570 C   0  0  0  0  0  0  0  0  0  0  0  0
    4.6210   12.2040   -6.0350 C   0  0  0  0  0  0  0  0  0  0  0  0
    5.5700   11.1600   -5.4510 C   0  0  2  0  0  0  0  0  0  0  0  0
    5.2400    9.8800   -5.9990 O   0  0  0  0  0  0  0  0  0  0  0  0
    5.5260   11.0920   -3.8990 C   0  0  0  0  0  0  0  0  0  0  0  0
    6.1680   12.3700   -3.3040 C   0  0  0  0  0  0  0  0  0  0  0  0
    6.4210    9.9060   -3.4480 C   0  0  0  0  0  0  0  0  0  0  0  0
    1.5640   11.8700   -3.5160 C   0  0  1  0  0  0  0  0  0  0  0  0
    0.8070   10.8190   -4.3840 C   0  0  0  0  0  0  0  0  0  0  0  0
    0.8290   13.2440   -3.7400 C   0  0  0  0  0  0  0  0  0  0  0  0
    0.9280   14.2780   -2.6030 C   0  0  0  0  0  0  0  0  0  0  0  0
    0.5840   13.6430   -1.2520 C   0  0  2  0  0  0  0  0  0  0  0  0
   -0.9060   13.1630   -1.3150 C   0  0  0  0  0  0  0  0  0  0  0  0
   -1.8422   14.8071    1.5974 H   0  0  0  0  0  0  0  0  0  0  0  0
   -2.4813   15.4885    0.0632 H   0  0  0  0  0  0  0  0  0  0  0  0
   -1.6604   13.8907    0.0632 H   0  0  0  0  0  0  0  0  0  0  0  0
   -0.0797   16.1616    1.1631 H   0  0  0  0  0  0  0  0  0  0  0  0
    0.2964   16.2347   -1.6989 H   0  0  0  0  0  0  0  0  0  0  0  0
   -1.4423   16.5943   -1.2620 H   0  0  0  0  0  0  0  0  0  0  0  0
   -0.1720   18.6612   -1.4105 H   0  0  0  0  0  0  0  0  0  0  0  0
   -0.6758   18.3216    0.2980 H   0  0  0  0  0  0  0  0  0  0  0  0
    1.1703   17.5530    0.8360 H   0  0  0  0  0  0  0  0  0  0  0  0
    1.5318   17.2830   -2.7064 H   0  0  0  0  0  0  0  0  0  0  0  0
    2.2108   18.9278   -2.9519 H   0  0  0  0  0  0  0  0  0  0  0  0
    3.2982   17.4981   -2.9519 H   0  0  0  0  0  0  0  0  0  0  0  0
    3.8889   17.7055    0.6125 H   0  0  0  0  0  0  0  0  0  0  0  0
    4.1834   16.6865   -0.8372 H   0  0  0  0  0  0  0  0  0  0  0  0
    4.6791   18.4131   -0.8372 H   0  0  0  0  0  0  0  0  0  0  0  0
    1.6196   15.2001   -0.1213 H   0  0  0  0  0  0  0  0  0  0  0  0
    1.6614   13.8092    1.8528 H   0  0  0  0  0  0  0  0  0  0  0  0
   -0.0699   13.4333    1.7190 H   0  0  0  0  0  0  0  0  0  0  0  0
    2.0705   11.6722    1.0244 H   0  0  0  0  0  0  0  0  0  0  0  0
    0.3954   11.4314    0.5348 H   0  0  0  0  0  0  0  0  0  0  0  0
    3.3935   13.0876    0.2044 H   0  0  0  0  0  0  0  0  0  0  0  0
    3.7689   12.2656   -1.3480 H   0  0  0  0  0  0  0  0  0  0  0  0
    3.2074   13.9719   -1.3480 H   0  0  0  0  0  0  0  0  0  0  0  0
    0.4280   11.0451   -1.8564 H   0  0  0  0  0  0  0  0  0  0  0  0
    2.4838   10.0160   -0.6955 H   0  0  0  0  0  0  0  0  0  0  0  0
    1.7947    9.2853   -2.2385 H   0  0  0  0  0  0  0  0  0  0  0  0
    4.4206    9.4175   -2.0829 H   0  0  0  0  0  0  0  0  0  0  0  0
    3.3593   12.9901   -3.6323 H   0  0  0  0  0  0  0  0  0  0  0  0
    2.8566   10.9857   -5.9183 H   0  0  0  0  0  0  0  0  0  0  0  0
    2.5683   12.7819   -5.9572 H   0  0  0  0  0  0  0  0  0  0  0  0
    4.6483   12.1413   -7.1329 H   0  0  0  0  0  0  0  0  0  0  0  0
    4.9446   13.2001   -5.6986 H   0  0  0  0  0  0  0  0  0  0  0  0
    6.5941   11.4561   -5.7223 H   0  0  0  0  0  0  0  0  0  0  0  0
    6.0630    9.4790   -6.3270 H   0  0  0  0  0  0  0  0  0  0  0  0
    6.1411   12.3165   -2.2056 H   0  0  0  0  0  0  0  0  0  0  0  0
    7.2119   12.4473   -3.6419 H   0  0  0  0  0  0  0  0  0  0  0  0
    5.6068   13.2537   -3.6419 H   0  0  0  0  0  0  0  0  0  0  0  0
    6.4509    9.8664   -2.3491 H   0  0  0  0  0  0  0  0  0  0  0  0
    6.0062    8.9647   -3.8377 H   0  0  0  0  0  0  0  0  0  0  0  0
    7.4400   10.0467   -3.8377 H   0  0  0  0  0  0  0  0  0  0  0  0
    0.2916   10.1034   -3.7266 H   0  0  0  0  0  0  0  0  0  0  0  0
    0.0689   11.3310   -5.0189 H   0  0  0  0  0  0  0  0  0  0  0  0
    1.5265   10.2812   -5.0189 H   0  0  0  0  0  0  0  0  0  0  0  0
    1.2516   13.7037   -4.6456 H   0  0  0  0  0  0  0  0  0  0  0  0
   -0.2395   12.9913   -3.8069 H   0  0  0  0  0  0  0  0  0  0  0  0
    1.9540   14.6728   -2.5641 H   0  0  0  0  0  0  0  0  0  0  0  0
    0.2108   15.0879   -2.8024 H   0  0  0  0  0  0  0  0  0  0  0  0
   -1.2944   13.0379   -0.2935 H   0  0  0  0  0  0  0  0  0  0  0  0
   -1.5103   13.9119   -1.8479 H   0  0  0  0  0  0  0  0  0  0  0  0
   -0.9595   12.2022   -1.8479 H   0  0  0  0  0  0  0  0  0  0  0  0
  1  2  1  0
  2  3  1  0
  3  4  1  0
  4  5  1  0
  5  6  1  0
  6  7  1  0
  7  8  1  0
  7  9  1  0
  2 10  1  0
 10 11  1  0
 11 12  1  0
 12 13  1  0
 13 14  1  1
 13 15  1  0
 15 16  1  0
 16 17  1  0
 17 18  2  0
 18 19  1  0
 19 20  1  0
 20 21  1  0
 21 22  1  0
 22 23  1  0
 22 24  1  0
 24 25  1  0
 24 26  1  0
 19 27  1  0
 27 28  1  6
 27 29  1  0
 29 30  1  0
 30 31  1  0
 31 32  1  6
  7  5  1  0
 31 10  1  0
 31 13  1  0
 27 15  1  0
 24 18  1  0
  1 33  1  0
  1 34  1  0
  1 35  1  0
  2 36  1  1
  3 37  1  0
  3 38  1  0
  4 39  1  0
  4 40  1  0
  5 41  1  1
  8 42  1  0
  8 43  1  0
  8 44  1  0
  9 45  1  0
  9 46  1  0
  9 47  1  0
 10 48  1  6
 11 49  1  0
 11 50  1  0
 12 51  1  0
 12 52  1  0
 14 53  1  0
 14 54  1  0
 14 55  1  0
 15 56  1  6
 16 57  1  0
 16 58  1  0
 17 59  1  0
 19 60  1  1
 20 61  1  0
 20 62  1  0
 21 63  1  0
 21 64  1  0
 22 65  1  1
 23 66  1  0
 25 67  1  0
 25 68  1  0
 25 69  1  0
 26 70  1  0
 26 71  1  0
 26 72  1  0
 28 73  1  0
 28 74  1  0
 28 75  1  0
 29 76  1  0
 29 77  1  0
 30 78  1  0
 30 79  1  0
 32 80  1  0
 32 81  1  0
 32 82  1  0
M  END
>  <meeko>  (15) 
{"is_sidechain": [false], "intermolecular_energy": 2.731, "internal_energy": -0.839}

$$$$
EPH_relaxed_0001_pdb2pqr_Repair_83_r2_0001_out
     RDKit          3D

 82 86  0  0  0  0  0  0  0  0999 V2000
    0.9580   18.5340   -2.5490 C   0  0  0  0  0  0  0  0  0  0  0  0
    0.8480   17.6460   -1.3060 C   0  0  2  0  0  0  0  0  0  0  0  0
    1.7820   18.1160   -0.1720 C   0  0  0  0  0  0  0  0  0  0  0  0
    3.0860   18.7450   -0.6690 C   0  0  0  0  0  0  0  0  0  0  0  0
    4.2160   18.5060    0.2860 C   0  0  2  0  0  0  0  0  0  0  0  0
    3.8400   17.8600    1.5090 O   0  0  0  0  0  0  0  0  0  0  0  0
    4.3380   19.2030    1.6280 C   0  0  0  0  0  0  0  0  0  0  0  0
    3.3150   20.1930    2.0900 C   0  0  0  0  0  0  0  0  0  0  0  0
    5.6880   19.2900    2.2690 C   0  0  0  0  0  0  0  0  0  0  0  0
    1.1610   16.2000   -1.6720 C   0  0  1  0  0  0  0  0  0  0  0  0
    2.6230   16.0080   -2.1540 C   0  0  0  0  0  0  0  0  0  0  0  0
    3.0790   14.6120   -1.6550 C   0  0  0  0  0  0  0  0  0  0  0  0
    1.7750   13.9170   -1.1980 C   0  0  1  0  0  0  0  0  0  0  0  0
    1.1280   13.3760   -2.5110 C   0  0  0  0  0  0  0  0  0  0  0  0
    1.9330   12.7910   -0.1250 C   0  0  2  0  0  0  0  0  0  0  0  0
    2.7660   11.5760   -0.5710 C   0  0  0  0  0  0  0  0  0  0  0  0
    1.9910   10.4710   -1.2100 C   0  0  0  0  0  0  0  0  0  0  0  0
    0.6540   10.3250   -1.1630 C   0  0  0  0  0  0  0  0  0  0  0  0
   -0.2140   11.2770   -0.3300 C   0  0  1  0  0  0  0  0  0  0  0  0
   -1.2330   10.4550    0.5020 C   0  0  0  0  0  0  0  0  0  0  0  0
   -2.0650    9.5100   -0.3600 C   0  0  0  0  0  0  0  0  0  0  0  0
   -1.1700    8.5410   -1.1270 C   0  0  2  0  0  0  0  0  0  0  0  0
   -0.5300    7.6660   -0.1930 O   0  0  0  0  0  0  0  0  0  0  0  0
   -0.0960    9.2560   -1.9950 C   0  0  0  0  0  0  0  0  0  0  0  0
   -0.7790    9.9620   -3.1920 C   0  0  0  0  0  0  0  0  0  0  0  0
    0.8280    8.1660   -2.6040 C   0  0  0  0  0  0  0  0  0  0  0  0
    0.5730   12.3430    0.5490 C   0  0  1  0  0  0  0  0  0  0  0  0
    0.9440   11.7230    1.9310 C   0  0  0  0  0  0  0  0  0  0  0  0
   -0.3760   13.5620    0.8500 C   0  0  0  0  0  0  0  0  0  0  0  0
   -0.3980   14.6990   -0.1900 C   0  0  0  0  0  0  0  0  0  0  0  0
    1.0240   15.1380   -0.5520 C   0  0  2  0  0  0  0  0  0  0  0  0
    1.6930   15.7080    0.7450 C   0  0  0  0  0  0  0  0  0  0  0  0
    1.0878   19.5819   -2.2407 H   0  0  0  0  0  0  0  0  0  0  0  0
    1.8239   18.2185   -3.1495 H   0  0  0  0  0  0  0  0  0  0  0  0
    0.0413   18.4394   -3.1495 H   0  0  0  0  0  0  0  0  0  0  0  0
   -0.1850   17.7212   -0.9356 H   0  0  0  0  0  0  0  0  0  0  0  0
    1.2454   18.8616    0.4331 H   0  0  0  0  0  0  0  0  0  0  0  0
    2.0569   17.2231    0.4086 H   0  0  0  0  0  0  0  0  0  0  0  0
    3.3445   18.3063   -1.6440 H   0  0  0  0  0  0  0  0  0  0  0  0
    2.9324   19.8309   -0.7536 H   0  0  0  0  0  0  0  0  0  0  0  0
    4.9238   18.3788   -0.5464 H   0  0  0  0  0  0  0  0  0  0  0  0
    3.2944   20.2129    3.1896 H   0  0  0  0  0  0  0  0  0  0  0  0
    3.5739   21.1923    1.7100 H   0  0  0  0  0  0  0  0  0  0  0  0
    2.3248   19.9014    1.7100 H   0  0  0  0  0  0  0  0  0  0  0  0
    5.5755   19.2828    3.3632 H   0  0  0  0  0  0  0  0  0  0  0  0
    6.2980   18.4293    1.9574 H   0  0  0  0  0  0  0  0  0  0  0  0
    6.1825   20.2219    1.9574 H   0  0  0  0  0  0  0  0  0  0  0  0
    0.3941   16.0349   -2.4431 H   0  0  0  0  0  0  0  0  0  0  0  0
    2.6686   16.0512   -3.2522 H   0  0  0  0  0  0  0  0  0  0  0  0
    3.2760   16.8008   -1.7603 H   0  0  0  0  0  0  0  0  0  0  0  0
    3.5566   14.0457   -2.4681 H   0  0  0  0  0  0  0  0  0  0  0  0
    3.8216   14.6797   -0.8463 H   0  0  0  0  0  0  0  0  0  0  0  0
    0.3066   12.6892   -2.2590 H   0  0  0  0  0  0  0  0  0  0  0  0
    0.7346   14.2178   -3.0998 H   0  0  0  0  0  0  0  0  0  0  0  0
    1.8868   12.8397   -3.0998 H   0  0  0  0  0  0  0  0  0  0  0  0
    2.5271   13.2902    0.6547 H   0  0  0  0  0  0  0  0  0  0  0  0
    3.5176   11.9261   -1.2938 H   0  0  0  0  0  0  0  0  0  0  0  0
    3.2007   11.1519    0.3462 H   0  0  0  0  0  0  0  0  0  0  0  0
    2.5611    9.7123   -1.7661 H   0  0  0  0  0  0  0  0  0  0  0  0
   -0.7481   11.9119   -1.0523 H   0  0  0  0  0  0  0  0  0  0  0  0
   -0.6827    9.8609    1.2464 H   0  0  0  0  0  0  0  0  0  0  0  0
   -1.9232   11.1651    0.9809 H   0  0  0  0  0  0  0  0  0  0  0  0
   -2.7447    8.9366    0.2875 H   0  0  0  0  0  0  0  0  0  0  0  0
   -2.6372   10.1079   -1.0846 H   0  0  0  0  0  0  0  0  0  0  0  0
   -1.8114    7.9788   -1.8217 H   0  0  0  0  0  0  0  0  0  0  0  0
    0.2790    7.3280   -0.6140 H   0  0  0  0  0  0  0  0  0  0  0  0
   -1.4982   10.7054   -2.8175 H   0  0  0  0  0  0  0  0  0  0  0  0
   -0.0165   10.4656   -3.8044 H   0  0  0  0  0  0  0  0  0  0  0  0
   -1.3075    9.2166   -3.8044 H   0  0  0  0  0  0  0  0  0  0  0  0
    1.3090    7.5985   -1.7937 H   0  0  0  0  0  0  0  0  0  0  0  0
    0.2295    7.4830   -3.2248 H   0  0  0  0  0  0  0  0  0  0  0  0
    1.5998    8.6445   -3.2248 H   0  0  0  0  0  0  0  0  0  0  0  0
    0.5593   12.3659    2.7364 H   0  0  0  0  0  0  0  0  0  0  0  0
    0.4965   10.7217    2.0157 H   0  0  0  0  0  0  0  0  0  0  0  0
    2.0379   11.6441    2.0157 H   0  0  0  0  0  0  0  0  0  0  0  0
   -1.4007   13.1720    0.9384 H   0  0  0  0  0  0  0  0  0  0  0  0
    0.0243   14.0187    1.7672 H   0  0  0  0  0  0  0  0  0  0  0  0
   -0.9079   14.3460   -1.0985 H   0  0  0  0  0  0  0  0  0  0  0  0
   -0.9315   15.5588    0.2414 H   0  0  0  0  0  0  0  0  0  0  0  0
    1.1961   15.2846    1.6303 H   0  0  0  0  0  0  0  0  0  0  0  0
    2.7588   15.4361    0.7577 H   0  0  0  0  0  0  0  0  0  0  0  0
    1.5938   16.8034    0.7577 H   0  0  0  0  0  0  0  0  0  0  0  0
  1  2  1  0
  2  3  1  0
  3  4  1  0
  4  5  1  0
  5  6  1  0
  6  7  1  0
  7  8  1  0
  7  9  1  0
  2 10  1  0
 10 11  1  0
 11 12  1  0
 12 13  1  0
 13 14  1  6
 13 15  1  0
 15 16  1  0
 16 17  1  0
 17 18  2  0
 18 19  1  0
 19 20  1  0
 20 21  1  0
 21 22  1  0
 22 23  1  0
 22 24  1  0
 24 25  1  0
 24 26  1  0
 19 27  1  0
 27 28  1  1
 27 29  1  0
 29 30  1  0
 30 31  1  0
 31 32  1  1
  7  5  1  0
 31 10  1  0
 31 13  1  0
 27 15  1  0
 24 18  1  0
  1 33  1  0
  1 34  1  0
  1 35  1  0
  2 36  1  1
  3 37  1  0
  3 38  1  0
  4 39  1  0
  4 40  1  0
  5 41  1  6
  8 42  1  0
  8 43  1  0
  8 44  1  0
  9 45  1  0
  9 46  1  0
  9 47  1  0
 10 48  1  6
 11 49  1  0
 11 50  1  0
 12 51  1  0
 12 52  1  0
 14 53  1  0
 14 54  1  0
 14 55  1  0
 15 56  1  1
 16 57  1  0
 16 58  1  0
 17 59  1  0
 19 60  1  6
 20 61  1  0
 20 62  1  0
 21 63  1  0
 21 64  1  0
 22 65  1  6
 23 66  1  0
 25 67  1  0
 25 68  1  0
 25 69  1  0
 26 70  1  0
 26 71  1  0
 26 72  1  0
 28 73  1  0
 28 74  1  0
 28 75  1  0
 29 76  1  0
 29 77  1  0
 30 78  1  0
 30 79  1  0
 32 80  1  0
 32 81  1  0
 32 82  1  0
M  END
>  <meeko>  (16) 
{"is_sidechain": [false], "intermolecular_energy": 2.731, "internal_energy": -0.839}

$$$$
EPH_relaxed_0001_pdb2pqr_Repair_83_r2_0001_out
     RDKit          3D

 82 86  0  0  0  0  0  0  0  0999 V2000
   -0.8910    7.7260   -1.2990 C   0  0  0  0  0  0  0  0  0  0  0  0
   -1.5990    8.6330   -0.2890 C   0  0  2  0  0  0  0  0  0  0  0  0
   -3.1330    8.5690   -0.4250 C   0  0  0  0  0  0  0  0  0  0  0  0
   -3.6090    7.9790   -1.7550 C   0  0  0  0  0  0  0  0  0  0  0  0
   -5.0830    7.7110   -1.7470 C   0  0  2  0  0  0  0  0  0  0  0  0
   -5.4430    6.3480   -1.4880 O   0  0  0  0  0  0  0  0  0  0  0  0
   -5.7840    6.8570   -2.7880 C   0  0  0  0  0  0  0  0  0  0  0  0
   -5.0290    6.2180   -3.9100 C   0  0  0  0  0  0  0  0  0  0  0  0
   -7.2550    7.0450   -2.9950 C   0  0  0  0  0  0  0  0  0  0  0  0
   -1.1210   10.0710   -0.4570 C   0  0  1  0  0  0  0  0  0  0  0  0
   -0.5520   10.6690    0.8570 C   0  0  0  0  0  0  0  0  0  0  0  0
    0.6110   11.6120    0.4520 C   0  0  0  0  0  0  0  0  0  0  0  0
    0.4600   11.7830   -1.0780 C   0  0  1  0  0  0  0  0  0  0  0  0
   -0.6480   12.8690   -1.2520 C   0  0  0  0  0  0  0  0  0  0  0  0
    1.7600   12.1530   -1.8630 C   0  0  2  0  0  0  0  0  0  0  0  0
    2.3900   13.5050   -1.4830 C   0  0  0  0  0  0  0  0  0  0  0  0
    1.9130   14.6760   -2.2760 C   0  0  0  0  0  0  0  0  0  0  0  0
    1.2350   14.6100   -3.4370 C   0  0  0  0  0  0  0  0  0  0  0  0
    0.9650   13.2620   -4.1170 C   0  0  1  0  0  0  0  0  0  0  0  0
    1.2970   13.3690   -5.6280 C   0  0  0  0  0  0  0  0  0  0  0  0
    0.5650   14.5210   -6.3080 C   0  0  0  0  0  0  0  0  0  0  0  0
    0.9030   15.8520   -5.6410 C   0  0  2  0  0  0  0  0  0  0  0  0
    2.2830   16.1470   -5.8750 O   0  0  0  0  0  0  0  0  0  0  0  0
    0.6190   15.8600   -4.1120 C   0  0  0  0  0  0  0  0  0  0  0  0
   -0.9100   15.8430   -3.8670 C   0  0  0  0  0  0  0  0  0  0  0  0
    1.1350   17.2080   -3.5390 C   0  0  0  0  0  0  0  0  0  0  0  0
    1.6370   11.9940   -3.4330 C   0  0  1  0  0  0  0  0  0  0  0  0
    3.0860   11.8010   -3.9760 C   0  0  0  0  0  0  0  0  0  0  0  0
    0.8340   10.7030   -3.8420 C   0  0  0  0  0  0  0  0  0  0  0  0
   -0.3690   10.3230   -2.9570 C   0  0  0  0  0  0  0  0  0  0  0  0
    0.0190   10.3270   -1.4750 C   0  0  2  0  0  0  0  0  0  0  0  0
    1.1160    9.2290   -1.2640 C   0  0  0  0  0  0  0  0  0  0  0  0
   -0.3005    6.9695   -0.7615 H   0  0  0  0  0  0  0  0  0  0  0  0
   -1.6399    7.2258   -1.9306 H   0  0  0  0  0  0  0  0  0  0  0  0
   -0.2239    8.3311   -1.9306 H   0  0  0  0  0  0  0  0  0  0  0  0
   -1.3419    8.2704    0.7172 H   0  0  0  0  0  0  0  0  0  0  0  0
   -3.5284    7.9475    0.3919 H   0  0  0  0  0  0  0  0  0  0  0  0
   -3.5029    9.6040   -0.3818 H   0  0  0  0  0  0  0  0  0  0  0  0
   -3.3805    8.6902   -2.5625 H   0  0  0  0  0  0  0  0  0  0  0  0
   -3.0878    7.0231   -1.9119 H   0  0  0  0  0  0  0  0  0  0  0  0
   -5.2879    8.7204   -1.3610 H   0  0  0  0  0  0  0  0  0  0  0  0
   -4.2501    5.5588   -3.4992 H   0  0  0  0  0  0  0  0  0  0  0  0
   -5.7211    5.6271   -4.5280 H   0  0  0  0  0  0  0  0  0  0  0  0
   -4.5606    6.9982   -4.5280 H   0  0  0  0  0  0  0  0  0  0  0  0
   -7.7574    7.1092   -2.0186 H   0  0  0  0  0  0  0  0  0  0  0  0
   -7.4302    7.9728   -3.5593 H   0  0  0  0  0  0  0  0  0  0  0  0
   -7.6580    6.1911   -3.5593 H   0  0  0  0  0  0  0  0  0  0  0  0
   -2.0532   10.5350   -0.8116 H   0  0  0  0  0  0  0  0  0  0  0  0
   -1.3331   11.2358    1.3848 H   0  0  0  0  0  0  0  0  0  0  0  0
   -0.2003    9.8753    1.5326 H   0  0  0  0  0  0  0  0  0  0  0  0
    0.5198   12.5823    0.9621 H   0  0  0  0  0  0  0  0  0  0  0  0
    1.5942   11.2055    0.7313 H   0  0  0  0  0  0  0  0  0  0  0  0
   -0.9908   13.2050   -0.2622 H   0  0  0  0  0  0  0  0  0  0  0  0
   -0.2383   13.7250   -1.8082 H   0  0  0  0  0  0  0  0  0  0  0  0
   -1.4956   12.4422   -1.8082 H   0  0  0  0  0  0  0  0  0  0  0  0
    2.4691   11.3857   -1.5188 H   0  0  0  0  0  0  0  0  0  0  0  0
    2.1665   13.6983   -0.4234 H   0  0  0  0  0  0  0  0  0  0  0  0
    3.4650   13.4105   -1.6964 H   0  0  0  0  0  0  0  0  0  0  0  0
    2.1341   15.6774   -1.8782 H   0  0  0  0  0  0  0  0  0  0  0  0
   -0.1087   13.0635   -3.9839 H   0  0  0  0  0  0  0  0  0  0  0  0
    2.3802   13.5241   -5.7408 H   0  0  0  0  0  0  0  0  0  0  0  0
    0.9692   12.4354   -6.1085 H   0  0  0  0  0  0  0  0  0  0  0  0
    0.8633   14.5625   -7.3660 H   0  0  0  0  0  0  0  0  0  0  0  0
   -0.5180   14.3494   -6.2201 H   0  0  0  0  0  0  0  0  0  0  0  0
    0.2518   16.6191   -6.0854 H   0  0  0  0  0  0  0  0  0  0  0  0
    2.3670   16.4510   -6.7950 H   0  0  0  0  0  0  0  0  0  0  0  0
   -1.1080   15.8408   -2.7850 H   0  0  0  0  0  0  0  0  0  0  0  0
   -1.3640   16.7362   -4.3210 H   0  0  0  0  0  0  0  0  0  0  0  0
   -1.3441   14.9400   -4.3210 H   0  0  0  0  0  0  0  0  0  0  0  0
    1.1200   17.1689   -2.4398 H   0  0  0  0  0  0  0  0  0  0  0  0
    2.1640   17.3839   -3.8857 H   0  0  0  0  0  0  0  0  0  0  0  0
    0.4864   18.0260   -3.8857 H   0  0  0  0  0  0  0  0  0  0  0  0
    3.7847   11.7079   -3.1315 H   0  0  0  0  0  0  0  0  0  0  0  0
    3.1291   10.8892   -4.5898 H   0  0  0  0  0  0  0  0  0  0  0  0
    3.3663   12.6697   -4.5898 H   0  0  0  0  0  0  0  0  0  0  0  0
    0.4597   10.8543   -4.8652 H   0  0  0  0  0  0  0  0  0  0  0  0
    1.5472    9.8731   -3.7298 H   0  0  0  0  0  0  0  0  0  0  0  0
   -1.1789   11.0495   -3.1191 H   0  0  0  0  0  0  0  0  0  0  0  0
   -0.7003    9.3104   -3.2306 H   0  0  0  0  0  0  0  0  0  0  0  0
    1.2741    9.0708   -0.1870 H   0  0  0  0  0  0  0  0  0  0  0  0
    0.7868    8.2878   -1.7284 H   0  0  0  0  0  0  0  0  0  0  0  0
    2.0575    9.5574   -1.7284 H   0  0  0  0  0  0  0  0  0  0  0  0
  1  2  1  0
  2  3  1  0
  3  4  1  0
  4  5  1  0
  5  6  1  0
  6  7  1  0
  7  8  1  0
  7  9  1  0
  2 10  1  0
 10 11  1  0
 11 12  1  0
 12 13  1  0
 13 14  1  1
 13 15  1  0
 15 16  1  0
 16 17  1  0
 17 18  2  0
 18 19  1  0
 19 20  1  0
 20 21  1  0
 21 22  1  0
 22 23  1  0
 22 24  1  0
 24 25  1  0
 24 26  1  0
 19 27  1  0
 27 28  1  6
 27 29  1  0
 29 30  1  0
 30 31  1  0
 31 32  1  6
  7  5  1  0
 31 10  1  0
 31 13  1  0
 27 15  1  0
 24 18  1  0
  1 33  1  0
  1 34  1  0
  1 35  1  0
  2 36  1  1
  3 37  1  0
  3 38  1  0
  4 39  1  0
  4 40  1  0
  5 41  1  1
  8 42  1  0
  8 43  1  0
  8 44  1  0
  9 45  1  0
  9 46  1  0
  9 47  1  0
 10 48  1  6
 11 49  1  0
 11 50  1  0
 12 51  1  0
 12 52  1  0
 14 53  1  0
 14 54  1  0
 14 55  1  0
 15 56  1  1
 16 57  1  0
 16 58  1  0
 17 59  1  0
 19 60  1  6
 20 61  1  0
 20 62  1  0
 21 63  1  0
 21 64  1  0
 22 65  1  6
 23 66  1  0
 25 67  1  0
 25 68  1  0
 25 69  1  0
 26 70  1  0
 26 71  1  0
 26 72  1  0
 28 73  1  0
 28 74  1  0
 28 75  1  0
 29 76  1  0
 29 77  1  0
 30 78  1  0
 30 79  1  0
 32 80  1  0
 32 81  1  0
 32 82  1  0
M  END
>  <meeko>  (17) 
{"is_sidechain": [false], "intermolecular_energy": 2.731, "internal_energy": -0.839}

$$$$
EPH_relaxed_0001_pdb2pqr_Repair_83_r2_0001_out
     RDKit          3D

 82 86  0  0  0  0  0  0  0  0999 V2000
   -1.2000    6.8500   -3.0610 C   0  0  0  0  0  0  0  0  0  0  0  0
   -2.4420    7.2970   -2.2840 C   0  0  2  0  0  0  0  0  0  0  0  0
   -3.7180    7.2460   -3.1480 C   0  0  0  0  0  0  0  0  0  0  0  0
   -4.8360    6.3920   -2.5450 C   0  0  0  0  0  0  0  0  0  0  0  0
   -6.1800    6.7750   -3.0860 C   0  0  2  0  0  0  0  0  0  0  0  0
   -6.2720    8.1250   -3.5590 O   0  0  0  0  0  0  0  0  0  0  0  0
   -7.0880    7.7950   -2.4240 C   0  0  0  0  0  0  0  0  0  0  0  0
   -6.6880    8.4930   -1.1620 C   0  0  0  0  0  0  0  0  0  0  0  0
   -8.5530    7.7510   -2.7270 C   0  0  0  0  0  0  0  0  0  0  0  0
   -2.2350    8.7070   -1.7420 C   0  0  1  0  0  0  0  0  0  0  0  0
   -3.1490    9.0190   -0.5270 C   0  0  0  0  0  0  0  0  0  0  0  0
   -2.3350    9.9400    0.4190 C   0  0  0  0  0  0  0  0  0  0  0  0
   -1.1230   10.3940   -0.4270 C   0  0  1  0  0  0  0  0  0  0  0  0
   -1.6630   11.5640   -1.3070 C   0  0  0  0  0  0  0  0  0  0  0  0
    0.1560   10.8130    0.3690 C   0  0  2  0  0  0  0  0  0  0  0  0
   -0.0200   12.0290    1.2950 C   0  0  0  0  0  0  0  0  0  0  0  0
    0.2750   13.3530    0.6720 C   0  0  0  0  0  0  0  0  0  0  0  0
    0.9360   13.5430   -0.4850 C   0  0  0  0  0  0  0  0  0  0  0  0
    1.5500   12.3600   -1.2450 C   0  0  1  0  0  0  0  0  0  0  0  0
    2.9980   12.7160   -1.6750 C   0  0  0  0  0  0  0  0  0  0  0  0
    3.0700   14.0190   -2.4660 C   0  0  0  0  0  0  0  0  0  0  0  0
    2.5030   15.1810   -1.6550 C   0  0  2  0  0  0  0  0  0  0  0  0
    3.3600   15.4220   -0.5350 O   0  0  0  0  0  0  0  0  0  0  0  0
    1.0520   14.9330   -1.1590 C   0  0  0  0  0  0  0  0  0  0  0  0
    0.0770   14.9720   -2.3620 C   0  0  0  0  0  0  0  0  0  0  0  0
    0.6530   16.1170   -0.2380 C   0  0  0  0  0  0  0  0  0  0  0  0
    1.4580   10.9490   -0.5210 C   0  0  1  0  0  0  0  0  0  0  0  0
    2.6740   10.7620    0.4370 C   0  0  0  0  0  0  0  0  0  0  0  0
    1.5650    9.8090   -1.6020 C   0  0  0  0  0  0  0  0  0  0  0  0
    0.2510    9.3550   -2.2660 C   0  0  0  0  0  0  0  0  0  0  0  0
   -0.8240    9.0660   -1.2140 C   0  0  2  0  0  0  0  0  0  0  0  0
   -0.3180    7.8780   -0.3270 C   0  0  0  0  0  0  0  0  0  0  0  0
   -0.4077    6.5648   -2.3533 H   0  0  0  0  0  0  0  0  0  0  0  0
   -1.4543    5.9870   -3.6939 H   0  0  0  0  0  0  0  0  0  0  0  0
   -0.8460    7.6772   -3.6939 H   0  0  0  0  0  0  0  0  0  0  0  0
   -2.5815    6.5941   -1.4495 H   0  0  0  0  0  0  0  0  0  0  0  0
   -4.0939    8.2722   -3.2730 H   0  0  0  0  0  0  0  0  0  0  0  0
   -3.4395    6.7813   -4.1053 H   0  0  0  0  0  0  0  0  0  0  0  0
   -4.6444    5.3351   -2.7821 H   0  0  0  0  0  0  0  0  0  0  0  0
   -4.8447    6.5571   -1.4575 H   0  0  0  0  0  0  0  0  0  0  0  0
   -6.3571    5.7484   -3.4391 H   0  0  0  0  0  0  0  0  0  0  0  0
   -7.0248    7.9053   -0.2953 H   0  0  0  0  0  0  0  0  0  0  0  0
   -5.5933    8.5968   -1.1316 H   0  0  0  0  0  0  0  0  0  0  0  0
   -7.1519    9.4900   -1.1316 H   0  0  0  0  0  0  0  0  0  0  0  0
   -9.1218    7.7339   -1.7856 H   0  0  0  0  0  0  0  0  0  0  0  0
   -8.8339    8.6411   -3.3090 H   0  0  0  0  0  0  0  0  0  0  0  0
   -8.7800    6.8456   -3.3090 H   0  0  0  0  0  0  0  0  0  0  0  0
   -2.4552    9.2882   -2.6496 H   0  0  0  0  0  0  0  0  0  0  0  0
   -4.0626    9.5321   -0.8619 H   0  0  0  0  0  0  0  0  0  0  0  0
   -3.4535    8.0950   -0.0137 H   0  0  0  0  0  0  0  0  0  0  0  0
   -2.9372   10.8061    0.7308 H   0  0  0  0  0  0  0  0  0  0  0  0
   -2.0302    9.4252    1.3421 H   0  0  0  0  0  0  0  0  0  0  0  0
   -2.0350   12.3700   -0.6573 H   0  0  0  0  0  0  0  0  0  0  0  0
   -0.8519   11.9498   -1.9420 H   0  0  0  0  0  0  0  0  0  0  0  0
   -2.4828   11.1970   -1.9420 H   0  0  0  0  0  0  0  0  0  0  0  0
    0.3117    9.9509    1.0343 H   0  0  0  0  0  0  0  0  0  0  0  0
   -1.0631   12.0424    1.6438 H   0  0  0  0  0  0  0  0  0  0  0  0
    0.7138   11.9035    2.1048 H   0  0  0  0  0  0  0  0  0  0  0  0
   -0.0776   14.2492    1.2034 H   0  0  0  0  0  0  0  0  0  0  0  0
    0.9222   12.2117   -2.1360 H   0  0  0  0  0  0  0  0  0  0  0  0
    3.6191   12.8165   -0.7727 H   0  0  0  0  0  0  0  0  0  0  0  0
    3.3604   11.9085   -2.3282 H   0  0  0  0  0  0  0  0  0  0  0  0
    4.1202   14.2319   -2.7144 H   0  0  0  0  0  0  0  0  0  0  0  0
    2.4732   13.9066   -3.3832 H   0  0  0  0  0  0  0  0  0  0  0  0
    2.4606   16.0568   -2.3192 H   0  0  0  0  0  0  0  0  0  0  0  0
    4.0410   16.0570   -0.8170 H   0  0  0  0  0  0  0  0  0  0  0  0
   -0.9586   15.0134   -1.9935 H   0  0  0  0  0  0  0  0  0  0  0  0
    0.2845   15.8626   -2.9734 H   0  0  0  0  0  0  0  0  0  0  0  0
    0.2127   14.0677   -2.9734 H   0  0  0  0  0  0  0  0  0  0  0  0
    0.7553   15.8135    0.8144 H   0  0  0  0  0  0  0  0  0  0  0  0
    1.3116   16.9751   -0.4378 H   0  0  0  0  0  0  0  0  0  0  0  0
   -0.3906   16.4014   -0.4378 H   0  0  0  0  0  0  0  0  0  0  0  0
    2.3302   10.8149    1.4805 H   0  0  0  0  0  0  0  0  0  0  0  0
    3.1383    9.7819    0.2531 H   0  0  0  0  0  0  0  0  0  0  0  0
    3.4113   11.5573    0.2531 H   0  0  0  0  0  0  0  0  0  0  0  0
    2.2337   10.1675   -2.3985 H   0  0  0  0  0  0  0  0  0  0  0  0
    1.9304    8.9274   -1.0550 H   0  0  0  0  0  0  0  0  0  0  0  0
   -0.1066   10.1501   -2.9368 H   0  0  0  0  0  0  0  0  0  0  0  0
    0.4449    8.4319   -2.8319 H   0  0  0  0  0  0  0  0  0  0  0  0
   -0.4297    8.1402    0.7354 H   0  0  0  0  0  0  0  0  0  0  0  0
   -0.9108    6.9779   -0.5468 H   0  0  0  0  0  0  0  0  0  0  0  0
    0.7418    7.6818   -0.5468 H   0  0  0  0  0  0  0  0  0  0  0  0
  1  2  1  0
  2  3  1  0
  3  4  1  0
  4  5  1  0
  5  6  1  0
  6  7  1  0
  7  8  1  0
  7  9  1  0
  2 10  1  0
 10 11  1  0
 11 12  1  0
 12 13  1  0
 13 14  1  6
 13 15  1  0
 15 16  1  0
 16 17  1  0
 17 18  2  0
 18 19  1  0
 19 20  1  0
 20 21  1  0
 21 22  1  0
 22 23  1  0
 22 24  1  0
 24 25  1  0
 24 26  1  0
 19 27  1  0
 27 28  1  1
 27 29  1  0
 29 30  1  0
 30 31  1  0
 31 32  1  1
  7  5  1  0
 31 10  1  0
 31 13  1  0
 27 15  1  0
 24 18  1  0
  1 33  1  0
  1 34  1  0
  1 35  1  0
  2 36  1  1
  3 37  1  0
  3 38  1  0
  4 39  1  0
  4 40  1  0
  5 41  1  6
  8 42  1  0
  8 43  1  0
  8 44  1  0
  9 45  1  0
  9 46  1  0
  9 47  1  0
 10 48  1  6
 11 49  1  0
 11 50  1  0
 12 51  1  0
 12 52  1  0
 14 53  1  0
 14 54  1  0
 14 55  1  0
 15 56  1  1
 16 57  1  0
 16 58  1  0
 17 59  1  0
 19 60  1  6
 20 61  1  0
 20 62  1  0
 21 63  1  0
 21 64  1  0
 22 65  1  6
 23 66  1  0
 25 67  1  0
 25 68  1  0
 25 69  1  0
 26 70  1  0
 26 71  1  0
 26 72  1  0
 28 73  1  0
 28 74  1  0
 28 75  1  0
 29 76  1  0
 29 77  1  0
 30 78  1  0
 30 79  1  0
 32 80  1  0
 32 81  1  0
 32 82  1  0
M  END
>  <meeko>  (18) 
{"is_sidechain": [false], "intermolecular_energy": 2.731, "internal_energy": -0.839}

$$$$
