EPH_relaxed_0001_pdb2pqr_Repair_210_r2_0001_out
     RDKit          3D

 82 86  0  0  0  0  0  0  0  0999 V2000
   -1.7120    8.5830   -1.8670 C   0  0  0  0  0  0  0  0  0  0  0  0
   -2.0930    9.1080   -0.4800 C   0  0  2  0  0  0  0  0  0  0  0  0
   -3.5870    9.4800   -0.3900 C   0  0  0  0  0  0  0  0  0  0  0  0
   -4.5130    8.2720   -0.2280 C   0  0  0  0  0  0  0  0  0  0  0  0
   -5.2110    7.9320   -1.5100 C   0  0  2  0  0  0  0  0  0  0  0  0
   -6.3540    8.7460   -1.8030 O   0  0  0  0  0  0  0  0  0  0  0  0
   -6.6110    7.3510   -1.5710 C   0  0  0  0  0  0  0  0  0  0  0  0
   -7.3970    7.0760   -0.3280 C   0  0  0  0  0  0  0  0  0  0  0  0
   -7.0210    6.6020   -2.8010 C   0  0  0  0  0  0  0  0  0  0  0  0
   -1.2330   10.3170   -0.1280 C   0  0  1  0  0  0  0  0  0  0  0  0
   -0.2050   10.0120    0.9940 C   0  0  0  0  0  0  0  0  0  0  0  0
    1.0660   10.8380    0.6720 C   0  0  0  0  0  0  0  0  0  0  0  0
    0.6180   11.8340   -0.4230 C   0  0  1  0  0  0  0  0  0  0  0  0
   -0.0900   12.9900    0.3520 C   0  0  0  0  0  0  0  0  0  0  0  0
    1.7400   12.3750   -1.3670 C   0  0  2  0  0  0  0  0  0  0  0  0
    2.8430   13.1910   -0.6700 C   0  0  0  0  0  0  0  0  0  0  0  0
    2.5930   14.6610   -0.5880 C   0  0  0  0  0  0  0  0  0  0  0  0
    1.6730   15.3380   -1.2990 C   0  0  0  0  0  0  0  0  0  0  0  0
    0.8300   14.6340   -2.3710 C   0  0  1  0  0  0  0  0  0  0  0  0
    0.8070   15.4960   -3.6600 C   0  0  0  0  0  0  0  0  0  0  0  0
    0.3440   16.9260   -3.4000 C   0  0  0  0  0  0  0  0  0  0  0  0
    1.2410   17.6120   -2.3740 C   0  0  2  0  0  0  0  0  0  0  0  0
    2.5450   17.7790   -2.9390 O   0  0  0  0  0  0  0  0  0  0  0  0
    1.3490   16.8290   -1.0350 C   0  0  0  0  0  0  0  0  0  0  0  0
    0.0010   16.9070   -0.2760 C   0  0  0  0  0  0  0  0  0  0  0  0
    2.3920   17.5540   -0.1420 C   0  0  0  0  0  0  0  0  0  0  0  0
    1.2010   13.1160   -2.6570 C   0  0  1  0  0  0  0  0  0  0  0  0
    2.3370   13.0380   -3.7230 C   0  0  0  0  0  0  0  0  0  0  0  0
   -0.0480   12.3910   -3.2850 C   0  0  0  0  0  0  0  0  0  0  0  0
   -1.0600   11.7730   -2.3020 C   0  0  0  0  0  0  0  0  0  0  0  0
   -0.3500   10.9130   -1.2520 C   0  0  2  0  0  0  0  0  0  0  0  0
    0.3530    9.7290   -2.0000 C   0  0  0  0  0  0  0  0  0  0  0  0
   -1.0690    7.6970   -1.7598 H   0  0  0  0  0  0  0  0  0  0  0  0
   -2.6235    8.3099   -2.4188 H   0  0  0  0  0  0  0  0  0  0  0  0
   -1.1697    9.3650   -2.4188 H   0  0  0  0  0  0  0  0  0  0  0  0
   -1.9104    8.2986    0.2421 H   0  0  0  0  0  0  0  0  0  0  0  0
   -3.7280   10.1442    0.4754 H   0  0  0  0  0  0  0  0  0  0  0  0
   -3.8552    9.9657   -1.3398 H   0  0  0  0  0  0  0  0  0  0  0  0
   -3.9159    7.4058    0.0933 H   0  0  0  0  0  0  0  0  0  0  0  0
   -5.2773    8.5242    0.5218 H   0  0  0  0  0  0  0  0  0  0  0  0
   -4.2624    7.6207   -1.9718 H   0  0  0  0  0  0  0  0  0  0  0  0
   -6.7764    7.2931    0.5538 H   0  0  0  0  0  0  0  0  0  0  0  0
   -8.2929    7.7141   -0.3120 H   0  0  0  0  0  0  0  0  0  0  0  0
   -7.6997    6.0186   -0.3120 H   0  0  0  0  0  0  0  0  0  0  0  0
   -7.5305    5.6713   -2.5108 H   0  0  0  0  0  0  0  0  0  0  0  0
   -7.7047    7.2235   -3.3979 H   0  0  0  0  0  0  0  0  0  0  0  0
   -6.1290    6.3610   -3.3979 H   0  0  0  0  0  0  0  0  0  0  0  0
   -2.0228   11.0311    0.1481 H   0  0  0  0  0  0  0  0  0  0  0  0
   -0.6121   10.3089    1.9718 H   0  0  0  0  0  0  0  0  0  0  0  0
    0.0234    8.9369    1.0390 H   0  0  0  0  0  0  0  0  0  0  0  0
    1.4165   11.3753    1.5656 H   0  0  0  0  0  0  0  0  0  0  0  0
    1.9024   10.2043    0.3421 H   0  0  0  0  0  0  0  0  0  0  0  0
    0.0126   12.8225    1.4343 H   0  0  0  0  0  0  0  0  0  0  0  0
    0.3752   13.9500    0.0838 H   0  0  0  0  0  0  0  0  0  0  0  0
   -1.1566   13.0118    0.0838 H   0  0  0  0  0  0  0  0  0  0  0  0
    2.2250   11.4492   -1.7099 H   0  0  0  0  0  0  0  0  0  0  0  0
    2.9536   12.8072    0.3549 H   0  0  0  0  0  0  0  0  0  0  0  0
    3.7466   13.0696   -1.2855 H   0  0  0  0  0  0  0  0  0  0  0  0
    3.2133   15.2390    0.1128 H   0  0  0  0  0  0  0  0  0  0  0  0
   -0.1862   14.5559   -1.9572 H   0  0  0  0  0  0  0  0  0  0  0  0
    1.8222   15.5255   -4.0825 H   0  0  0  0  0  0  0  0  0  0  0  0
    0.0914   15.0351   -4.3568 H   0  0  0  0  0  0  0  0  0  0  0  0
    0.3771   17.4920   -4.3426 H   0  0  0  0  0  0  0  0  0  0  0  0
   -0.6821   16.8962   -3.0048 H   0  0  0  0  0  0  0  0  0  0  0  0
    0.7846   18.5838   -2.1345 H   0  0  0  0  0  0  0  0  0  0  0  0
    2.9530   18.5520   -2.5140 H   0  0  0  0  0  0  0  0  0  0  0  0
    0.1892   16.8961    0.8077 H   0  0  0  0  0  0  0  0  0  0  0  0
   -0.5199   17.8368   -0.5484 H   0  0  0  0  0  0  0  0  0  0  0  0
   -0.6236   16.0435   -0.5484 H   0  0  0  0  0  0  0  0  0  0  0  0
    2.1485   17.3848    0.9173 H   0  0  0  0  0  0  0  0  0  0  0  0
    3.3958   17.1579   -0.3553 H   0  0  0  0  0  0  0  0  0  0  0  0
    2.3705   18.6329   -0.3553 H   0  0  0  0  0  0  0  0  0  0  0  0
    3.3112   12.9711   -3.2165 H   0  0  0  0  0  0  0  0  0  0  0  0
    2.1890   12.1479   -4.3521 H   0  0  0  0  0  0  0  0  0  0  0  0
    2.3120   13.9400   -4.3521 H   0  0  0  0  0  0  0  0  0  0  0  0
   -0.5873   13.1283   -3.8978 H   0  0  0  0  0  0  0  0  0  0  0  0
    0.3655   11.5394   -3.8452 H   0  0  0  0  0  0  0  0  0  0  0  0
   -1.6080   12.5807   -1.7947 H   0  0  0  0  0  0  0  0  0  0  0  0
   -1.7532   11.1336   -2.8683 H   0  0  0  0  0  0  0  0  0  0  0  0
    0.7702    9.0263   -1.2637 H   0  0  0  0  0  0  0  0  0  0  0  0
   -0.3811    9.2063   -2.6307 H   0  0  0  0  0  0  0  0  0  0  0  0
    1.1634   10.1233   -2.6307 H   0  0  0  0  0  0  0  0  0  0  0  0
  1  2  1  0
  2  3  1  0
  3  4  1  0
  4  5  1  0
  5  6  1  0
  6  7  1  0
  7  8  1  0
  7  9  1  0
  2 10  1  0
 10 11  1  0
 11 12  1  0
 12 13  1  0
 13 14  1  1
 13 15  1  0
 15 16  1  0
 16 17  1  0
 17 18  2  0
 18 19  1  0
 19 20  1  0
 20 21  1  0
 21 22  1  0
 22 23  1  0
 22 24  1  0
 24 25  1  0
 24 26  1  0
 19 27  1  0
 27 28  1  6
 27 29  1  0
 29 30  1  0
 30 31  1  0
 31 32  1  6
  7  5  1  0
 31 10  1  0
 31 13  1  0
 27 15  1  0
 24 18  1  0
  1 33  1  0
  1 34  1  0
  1 35  1  0
  2 36  1  1
  3 37  1  0
  3 38  1  0
  4 39  1  0
  4 40  1  0
  5 41  1  6
  8 42  1  0
  8 43  1  0
  8 44  1  0
  9 45  1  0
  9 46  1  0
  9 47  1  0
 10 48  1  1
 11 49  1  0
 11 50  1  0
 12 51  1  0
 12 52  1  0
 14 53  1  0
 14 54  1  0
 14 55  1  0
 15 56  1  6
 16 57  1  0
 16 58  1  0
 17 59  1  0
 19 60  1  1
 20 61  1  0
 20 62  1  0
 21 63  1  0
 21 64  1  0
 22 65  1  1
 23 66  1  0
 25 67  1  0
 25 68  1  0
 25 69  1  0
 26 70  1  0
 26 71  1  0
 26 72  1  0
 28 73  1  0
 28 74  1  0
 28 75  1  0
 29 76  1  0
 29 77  1  0
 30 78  1  0
 30 79  1  0
 32 80  1  0
 32 81  1  0
 32 82  1  0
M  END
>  <meeko>  (1) 
{"is_sidechain": [false], "intermolecular_energy": 2.731, "internal_energy": -0.839}

$$$$
EPH_relaxed_0001_pdb2pqr_Repair_210_r2_0001_out
     RDKit          3D

 82 86  0  0  0  0  0  0  0  0999 V2000
    4.2130   17.6040   -0.5670 C   0  0  0  0  0  0  0  0  0  0  0  0
    2.8510   18.1650   -0.1450 C   0  0  2  0  0  0  0  0  0  0  0  0
    2.9060   18.8450    1.2370 C   0  0  0  0  0  0  0  0  0  0  0  0
    4.2580   18.6990    1.9420 C   0  0  0  0  0  0  0  0  0  0  0  0
    4.2190   19.2480    3.3360 C   0  0  2  0  0  0  0  0  0  0  0  0
    5.2530   20.1940    3.6360 O   0  0  0  0  0  0  0  0  0  0  0  0
    5.2850   18.9640    4.3770 C   0  0  0  0  0  0  0  0  0  0  0  0
    6.4660   18.0980    4.0680 C   0  0  0  0  0  0  0  0  0  0  0  0
    4.9330   19.1220    5.8230 C   0  0  0  0  0  0  0  0  0  0  0  0
    1.8110   17.0510   -0.1370 C   0  0  1  0  0  0  0  0  0  0  0  0
    0.3790   17.5680   -0.4370 C   0  0  0  0  0  0  0  0  0  0  0  0
   -0.3390   16.4560   -1.2440 C   0  0  0  0  0  0  0  0  0  0  0  0
    0.5750   15.2170   -1.0980 C   0  0  1  0  0  0  0  0  0  0  0  0
    0.2120   14.6140    0.2950 C   0  0  0  0  0  0  0  0  0  0  0  0
    0.4750   14.1470   -2.2340 C   0  0  2  0  0  0  0  0  0  0  0  0
   -0.9020   13.4750   -2.3790 C   0  0  0  0  0  0  0  0  0  0  0  0
   -1.0910   12.2310   -1.5750 C   0  0  0  0  0  0  0  0  0  0  0  0
   -0.1090   11.5180   -0.9940 C   0  0  0  0  0  0  0  0  0  0  0  0
    1.3640   11.8930   -1.2000 C   0  0  1  0  0  0  0  0  0  0  0  0
    2.1830   10.6180   -1.5300 C   0  0  0  0  0  0  0  0  0  0  0  0
    2.0010    9.5190   -0.4870 C   0  0  0  0  0  0  0  0  0  0  0  0
    0.5300    9.1330   -0.3530 C   0  0  2  0  0  0  0  0  0  0  0  0
    0.1040    8.5130   -1.5700 O   0  0  0  0  0  0  0  0  0  0  0  0
   -0.3940   10.3400   -0.0300 C   0  0  0  0  0  0  0  0  0  0  0  0
   -0.1330   10.8230    1.4180 C   0  0  0  0  0  0  0  0  0  0  0  0
   -1.8630    9.8390   -0.0620 C   0  0  0  0  0  0  0  0  0  0  0  0
    1.6420   13.0780   -2.2220 C   0  0  1  0  0  0  0  0  0  0  0  0
    1.7450   12.5160   -3.6730 C   0  0  0  0  0  0  0  0  0  0  0  0
    3.0410   13.7230   -1.8950 C   0  0  0  0  0  0  0  0  0  0  0  0
    3.0560   14.8560   -0.8510 C   0  0  0  0  0  0  0  0  0  0  0  0
    1.9860   15.9060   -1.1660 C   0  0  2  0  0  0  0  0  0  0  0  0
    2.3370   16.5460   -2.5520 C   0  0  0  0  0  0  0  0  0  0  0  0
    4.8030   17.3610    0.3290 H   0  0  0  0  0  0  0  0  0  0  0  0
    4.0648   16.6937   -1.1665 H   0  0  0  0  0  0  0  0  0  0  0  0
    4.7489   18.3546   -1.1665 H   0  0  0  0  0  0  0  0  0  0  0  0
    2.5673   18.9335   -0.8791 H   0  0  0  0  0  0  0  0  0  0  0  0
    2.6971   19.9169    1.1051 H   0  0  0  0  0  0  0  0  0  0  0  0
    2.1577   18.3463    1.8705 H   0  0  0  0  0  0  0  0  0  0  0  0
    4.5235   17.6324    1.9863 H   0  0  0  0  0  0  0  0  0  0  0  0
    5.0058   19.2682    1.3703 H   0  0  0  0  0  0  0  0  0  0  0  0
    3.1223   19.1675    3.3621 H   0  0  0  0  0  0  0  0  0  0  0  0
    6.9280   17.7592    5.0071 H   0  0  0  0  0  0  0  0  0  0  0  0
    6.1379   17.2249    3.4849 H   0  0  0  0  0  0  0  0  0  0  0  0
    7.2001   18.6734    3.4849 H   0  0  0  0  0  0  0  0  0  0  0  0
    5.7609   18.7504    6.4446 H   0  0  0  0  0  0  0  0  0  0  0  0
    4.7575   20.1853    6.0436 H   0  0  0  0  0  0  0  0  0  0  0  0
    4.0219   18.5465    6.0436 H   0  0  0  0  0  0  0  0  0  0  0  0
    1.9617   16.6668    0.8826 H   0  0  0  0  0  0  0  0  0  0  0  0
   -0.1587   17.7608    0.5031 H   0  0  0  0  0  0  0  0  0  0  0  0
    0.4103   18.5098   -1.0045 H   0  0  0  0  0  0  0  0  0  0  0  0
   -1.3361   16.2546   -0.8255 H   0  0  0  0  0  0  0  0  0  0  0  0
   -0.4950   16.7380   -2.2957 H   0  0  0  0  0  0  0  0  0  0  0  0
    0.6041   15.2654    1.0900 H   0  0  0  0  0  0  0  0  0  0  0  0
   -0.8815   14.5390    0.3884 H   0  0  0  0  0  0  0  0  0  0  0  0
    0.6575   13.6126    0.3884 H   0  0  0  0  0  0  0  0  0  0  0  0
    0.6075   14.7540   -3.1417 H   0  0  0  0  0  0  0  0  0  0  0  0
   -1.6688   14.2002   -2.0689 H   0  0  0  0  0  0  0  0  0  0  0  0
   -0.9839   13.1721   -3.4333 H   0  0  0  0  0  0  0  0  0  0  0  0
   -2.1209   11.8664   -1.4468 H   0  0  0  0  0  0  0  0  0  0  0  0
    1.7048   12.3181   -0.2444 H   0  0  0  0  0  0  0  0  0  0  0  0
    1.8578   10.2333   -2.5079 H   0  0  0  0  0  0  0  0  0  0  0  0
    3.2469   10.8975   -1.5382 H   0  0  0  0  0  0  0  0  0  0  0  0
    2.5792    8.6342   -0.7916 H   0  0  0  0  0  0  0  0  0  0  0  0
    2.3557    9.8942    0.4843 H   0  0  0  0  0  0  0  0  0  0  0  0
    0.4472    8.4395    0.4968 H   0  0  0  0  0  0  0  0  0  0  0  0
    0.2170    9.1610   -2.2860 H   0  0  0  0  0  0  0  0  0  0  0  0
   -0.5322   10.0842    2.1285 H   0  0  0  0  0  0  0  0  0  0  0  0
    0.9495   10.9370    1.5770 H   0  0  0  0  0  0  0  0  0  0  0  0
   -0.6309   11.7909    1.5770 H   0  0  0  0  0  0  0  0  0  0  0  0
   -2.2302    9.7138    0.9673 H   0  0  0  0  0  0  0  0  0  0  0  0
   -2.4898   10.5742   -0.5880 H   0  0  0  0  0  0  0  0  0  0  0  0
   -1.9099    8.8741   -0.5880 H   0  0  0  0  0  0  0  0  0  0  0  0
    1.9432   11.4347   -3.6342 H   0  0  0  0  0  0  0  0  0  0  0  0
    0.7988   12.6965   -4.2042 H   0  0  0  0  0  0  0  0  0  0  0  0
    2.5657   13.0203   -4.2042 H   0  0  0  0  0  0  0  0  0  0  0  0
    3.6989   12.9221   -1.5265 H   0  0  0  0  0  0  0  0  0  0  0  0
    3.3684   14.1925   -2.8344 H   0  0  0  0  0  0  0  0  0  0  0  0
    2.8607   14.4307    0.1445 H   0  0  0  0  0  0  0  0  0  0  0  0
    4.0424   15.3422   -0.8752 H   0  0  0  0  0  0  0  0  0  0  0  0
    2.8604   17.5004   -2.3932 H   0  0  0  0  0  0  0  0  0  0  0  0
    2.9860   15.8616   -3.1181 H   0  0  0  0  0  0  0  0  0  0  0  0
    1.4110   16.7254   -3.1181 H   0  0  0  0  0  0  0  0  0  0  0  0
  1  2  1  0
  2  3  1  0
  3  4  1  0
  4  5  1  0
  5  6  1  0
  6  7  1  0
  7  8  1  0
  7  9  1  0
  2 10  1  0
 10 11  1  0
 11 12  1  0
 12 13  1  0
 13 14  1  1
 13 15  1  0
 15 16  1  0
 16 17  1  0
 17 18  2  0
 18 19  1  0
 19 20  1  0
 20 21  1  0
 21 22  1  0
 22 23  1  0
 22 24  1  0
 24 25  1  0
 24 26  1  0
 19 27  1  0
 27 28  1  6
 27 29  1  0
 29 30  1  0
 30 31  1  0
 31 32  1  6
  7  5  1  0
 31 10  1  0
 31 13  1  0
 27 15  1  0
 24 18  1  0
  1 33  1  0
  1 34  1  0
  1 35  1  0
  2 36  1  6
  3 37  1  0
  3 38  1  0
  4 39  1  0
  4 40  1  0
  5 41  1  1
  8 42  1  0
  8 43  1  0
  8 44  1  0
  9 45  1  0
  9 46  1  0
  9 47  1  0
 10 48  1  1
 11 49  1  0
 11 50  1  0
 12 51  1  0
 12 52  1  0
 14 53  1  0
 14 54  1  0
 14 55  1  0
 15 56  1  6
 16 57  1  0
 16 58  1  0
 17 59  1  0
 19 60  1  1
 20 61  1  0
 20 62  1  0
 21 63  1  0
 21 64  1  0
 22 65  1  1
 23 66  1  0
 25 67  1  0
 25 68  1  0
 25 69  1  0
 26 70  1  0
 26 71  1  0
 26 72  1  0
 28 73  1  0
 28 74  1  0
 28 75  1  0
 29 76  1  0
 29 77  1  0
 30 78  1  0
 30 79  1  0
 32 80  1  0
 32 81  1  0
 32 82  1  0
M  END
>  <meeko>  (2) 
{"is_sidechain": [false], "intermolecular_energy": 2.731, "internal_energy": -0.839}

$$$$
EPH_relaxed_0001_pdb2pqr_Repair_210_r2_0001_out
     RDKit          3D

 82 86  0  0  0  0  0  0  0  0999 V2000
    2.3210   18.0630   -2.7100 C   0  0  0  0  0  0  0  0  0  0  0  0
    1.0370   17.6650   -1.9760 C   0  0  2  0  0  0  0  0  0  0  0  0
    1.2030   17.7200   -0.4440 C   0  0  0  0  0  0  0  0  0  0  0  0
    0.8860   19.0900    0.1600 C   0  0  0  0  0  0  0  0  0  0  0  0
   -0.5300   19.1680    0.6450 C   0  0  2  0  0  0  0  0  0  0  0  0
   -1.4430   18.2910   -0.0290 O   0  0  0  0  0  0  0  0  0  0  0  0
   -1.6750   19.6990   -0.1970 C   0  0  0  0  0  0  0  0  0  0  0  0
   -1.4540   20.1900   -1.5930 C   0  0  0  0  0  0  0  0  0  0  0  0
   -2.9050   20.1940    0.4980 C   0  0  0  0  0  0  0  0  0  0  0  0
    0.6070   16.2670   -2.4030 C   0  0  1  0  0  0  0  0  0  0  0  0
    0.7300   16.0460   -3.9350 C   0  0  0  0  0  0  0  0  0  0  0  0
    1.1450   14.5660   -4.1410 C   0  0  0  0  0  0  0  0  0  0  0  0
    0.9260   13.9030   -2.7610 C   0  0  1  0  0  0  0  0  0  0  0  0
   -0.6030   13.5970   -2.7020 C   0  0  0  0  0  0  0  0  0  0  0  0
    1.7820   12.6290   -2.4630 C   0  0  2  0  0  0  0  0  0  0  0  0
    1.5250   11.4360   -3.4000 C   0  0  0  0  0  0  0  0  0  0  0  0
    0.4650   10.4870   -2.9480 C   0  0  0  0  0  0  0  0  0  0  0  0
   -0.0520   10.4260   -1.7060 C   0  0  0  0  0  0  0  0  0  0  0  0
    0.4990   11.3080   -0.5790 C   0  0  1  0  0  0  0  0  0  0  0  0
    0.7130   10.4480    0.6940 C   0  0  0  0  0  0  0  0  0  0  0  0
   -0.5460    9.6920    1.1080 C   0  0  0  0  0  0  0  0  0  0  0  0
   -1.0310    8.7830   -0.0180 C   0  0  2  0  0  0  0  0  0  0  0  0
   -0.0670    7.7440   -0.2190 O   0  0  0  0  0  0  0  0  0  0  0  0
   -1.2710    9.5370   -1.3560 C   0  0  0  0  0  0  0  0  0  0  0  0
   -2.5150   10.4500   -1.2220 C   0  0  0  0  0  0  0  0  0  0  0  0
   -1.6190    8.4850   -2.4420 C   0  0  0  0  0  0  0  0  0  0  0  0
    1.7740   12.1840   -0.9450 C   0  0  1  0  0  0  0  0  0  0  0  0
    3.0740   11.3530   -0.7180 C   0  0  0  0  0  0  0  0  0  0  0  0
    1.8540   13.4110    0.0390 C   0  0  0  0  0  0  0  0  0  0  0  0
    1.0840   14.6810   -0.3700 C   0  0  0  0  0  0  0  0  0  0  0  0
    1.3970   15.0690   -1.8180 C   0  0  2  0  0  0  0  0  0  0  0  0
    2.9250   15.4050   -1.9040 C   0  0  0  0  0  0  0  0  0  0  0  0
    3.1031   18.3054   -1.9755 H   0  0  0  0  0  0  0  0  0  0  0  0
    2.6569   17.2268   -3.3408 H   0  0  0  0  0  0  0  0  0  0  0  0
    2.1251   18.9426   -3.3408 H   0  0  0  0  0  0  0  0  0  0  0  0
    0.2596   18.3934   -2.2501 H   0  0  0  0  0  0  0  0  0  0  0  0
    0.5273   16.9775    0.0055 H   0  0  0  0  0  0  0  0  0  0  0  0
    2.2608   17.5100   -0.2274 H   0  0  0  0  0  0  0  0  0  0  0  0
    1.5635   19.2714    1.0074 H   0  0  0  0  0  0  0  0  0  0  0  0
    1.0224   19.8499   -0.6235 H   0  0  0  0  0  0  0  0  0  0  0  0
   -0.1924   19.4051    1.6647 H   0  0  0  0  0  0  0  0  0  0  0  0
   -1.0027   21.1927   -1.5619 H   0  0  0  0  0  0  0  0  0  0  0  0
   -0.7794   19.5005   -2.1217 H   0  0  0  0  0  0  0  0  0  0  0  0
   -2.4174   20.2378   -2.1217 H   0  0  0  0  0  0  0  0  0  0  0  0
   -2.7596   20.1355    1.5868 H   0  0  0  0  0  0  0  0  0  0  0  0
   -3.0943   21.2383    0.2090 H   0  0  0  0  0  0  0  0  0  0  0  0
   -3.7649   19.5719    0.2090 H   0  0  0  0  0  0  0  0  0  0  0  0
   -0.4221   16.2645   -2.0145 H   0  0  0  0  0  0  0  0  0  0  0  0
   -0.2357   16.2404   -4.4246 H   0  0  0  0  0  0  0  0  0  0  0  0
    1.4716   16.7293   -4.3746 H   0  0  0  0  0  0  0  0  0  0  0  0
    0.5143   14.0888   -4.9055 H   0  0  0  0  0  0  0  0  0  0  0  0
    2.1837   14.4690   -4.4900 H   0  0  0  0  0  0  0  0  0  0  0  0
   -0.9238   13.5328   -1.6518 H   0  0  0  0  0  0  0  0  0  0  0  0
   -1.1578   14.4019   -3.2063 H   0  0  0  0  0  0  0  0  0  0  0  0
   -0.8053   12.6406   -3.2063 H   0  0  0  0  0  0  0  0  0  0  0  0
    2.8023   12.9719   -2.6899 H   0  0  0  0  0  0  0  0  0  0  0  0
    1.2294   11.8329   -4.3824 H   0  0  0  0  0  0  0  0  0  0  0  0
    2.4611   10.8588   -3.4216 H   0  0  0  0  0  0  0  0  0  0  0  0
    0.0732    9.7778   -3.6921 H   0  0  0  0  0  0  0  0  0  0  0  0
   -0.2685   12.0726   -0.3881 H   0  0  0  0  0  0  0  0  0  0  0  0
    1.5130    9.7193    0.4968 H   0  0  0  0  0  0  0  0  0  0  0  0
    0.9790   11.1289    1.5160 H   0  0  0  0  0  0  0  0  0  0  0  0
   -0.3233    9.0798    1.9943 H   0  0  0  0  0  0  0  0  0  0  0  0
   -1.3362   10.4230    1.3344 H   0  0  0  0  0  0  0  0  0  0  0  0
   -2.0037    8.3705    0.2882 H   0  0  0  0  0  0  0  0  0  0  0  0
    0.0650    7.2960    0.6340 H   0  0  0  0  0  0  0  0  0  0  0  0
   -2.7372   10.6130   -0.1571 H   0  0  0  0  0  0  0  0  0  0  0  0
   -2.3143   11.4167   -1.7069 H   0  0  0  0  0  0  0  0  0  0  0  0
   -3.3771    9.9686   -1.7069 H   0  0  0  0  0  0  0  0  0  0  0  0
   -1.9292    7.5472   -1.9580 H   0  0  0  0  0  0  0  0  0  0  0  0
   -2.4400    8.8631   -3.0690 H   0  0  0  0  0  0  0  0  0  0  0  0
   -0.7345    8.2989   -3.0690 H   0  0  0  0  0  0  0  0  0  0  0  0
    3.2525   11.2389    0.3614 H   0  0  0  0  0  0  0  0  0  0  0  0
    2.9595   10.3602   -1.1777 H   0  0  0  0  0  0  0  0  0  0  0  0
    3.9270   11.8737   -1.1777 H   0  0  0  0  0  0  0  0  0  0  0  0
    1.4612   13.0828    1.0127 H   0  0  0  0  0  0  0  0  0  0  0  0
    2.9136   13.7064    0.0450 H   0  0  0  0  0  0  0  0  0  0  0  0
    0.0043   14.4942   -0.2728 H   0  0  0  0  0  0  0  0  0  0  0  0
    1.3928   15.5060    0.2889 H   0  0  0  0  0  0  0  0  0  0  0  0
    3.3382   15.4959   -0.8886 H   0  0  0  0  0  0  0  0  0  0  0  0
    3.4477   14.6003   -2.4419 H   0  0  0  0  0  0  0  0  0  0  0  0
    3.0619   16.3547   -2.4419 H   0  0  0  0  0  0  0  0  0  0  0  0
  1  2  1  0
  2  3  1  0
  3  4  1  0
  4  5  1  0
  5  6  1  0
  6  7  1  0
  7  8  1  0
  7  9  1  0
  2 10  1  0
 10 11  1  0
 11 12  1  0
 12 13  1  0
 13 14  1  1
 13 15  1  0
 15 16  1  0
 16 17  1  0
 17 18  2  0
 18 19  1  0
 19 20  1  0
 20 21  1  0
 21 22  1  0
 22 23  1  0
 22 24  1  0
 24 25  1  0
 24 26  1  0
 19 27  1  0
 27 28  1  6
 27 29  1  0
 29 30  1  0
 30 31  1  0
 31 32  1  1
  7  5  1  0
 31 10  1  0
 31 13  1  0
 27 15  1  0
 24 18  1  0
  1 33  1  0
  1 34  1  0
  1 35  1  0
  2 36  1  6
  3 37  1  0
  3 38  1  0
  4 39  1  0
  4 40  1  0
  5 41  1  1
  8 42  1  0
  8 43  1  0
  8 44  1  0
  9 45  1  0
  9 46  1  0
  9 47  1  0
 10 48  1  1
 11 49  1  0
 11 50  1  0
 12 51  1  0
 12 52  1  0
 14 53  1  0
 14 54  1  0
 14 55  1  0
 15 56  1  6
 16 57  1  0
 16 58  1  0
 17 59  1  0
 19 60  1  1
 20 61  1  0
 20 62  1  0
 21 63  1  0
 21 64  1  0
 22 65  1  1
 23 66  1  0
 25 67  1  0
 25 68  1  0
 25 69  1  0
 26 70  1  0
 26 71  1  0
 26 72  1  0
 28 73  1  0
 28 74  1  0
 28 75  1  0
 29 76  1  0
 29 77  1  0
 30 78  1  0
 30 79  1  0
 32 80  1  0
 32 81  1  0
 32 82  1  0
M  END
>  <meeko>  (3) 
{"is_sidechain": [false], "intermolecular_energy": 2.731, "internal_energy": -0.839}

$$$$
EPH_relaxed_0001_pdb2pqr_Repair_210_r2_0001_out
     RDKit          3D

 82 86  0  0  0  0  0  0  0  0999 V2000
    0.4300   18.3920    0.0070 C   0  0  0  0  0  0  0  0  0  0  0  0
    1.5160   17.3410   -0.2340 C   0  0  2  0  0  0  0  0  0  0  0  0
    2.7170   17.9150   -1.0120 C   0  0  0  0  0  0  0  0  0  0  0  0
    3.9530   18.1610   -0.1420 C   0  0  0  0  0  0  0  0  0  0  0  0
    3.5790   18.6230    1.2340 C   0  0  2  0  0  0  0  0  0  0  0  0
    3.8390   20.0090    1.4910 O   0  0  0  0  0  0  0  0  0  0  0  0
    4.5930   19.0680    2.2710 C   0  0  0  0  0  0  0  0  0  0  0  0
    6.0610   19.0710    1.9770 C   0  0  0  0  0  0  0  0  0  0  0  0
    4.2020   19.0310    3.7150 C   0  0  0  0  0  0  0  0  0  0  0  0
    0.9310   16.1500   -0.9840 C   0  0  1  0  0  0  0  0  0  0  0  0
    0.7920   16.4130   -2.5070 C   0  0  0  0  0  0  0  0  0  0  0  0
    1.0690   15.0650   -3.2210 C   0  0  0  0  0  0  0  0  0  0  0  0
    1.0290   14.0100   -2.0910 C   0  0  1  0  0  0  0  0  0  0  0  0
   -0.4880   13.7220   -1.8640 C   0  0  0  0  0  0  0  0  0  0  0  0
    1.8340   12.6940   -2.3450 C   0  0  2  0  0  0  0  0  0  0  0  0
    1.3510   11.8540   -3.5400 C   0  0  0  0  0  0  0  0  0  0  0  0
    0.3160   10.8270   -3.2210 C   0  0  0  0  0  0  0  0  0  0  0  0
    0.0010   10.3910   -1.9860 C   0  0  0  0  0  0  0  0  0  0  0  0
    0.7840   10.8730   -0.7580 C   0  0  1  0  0  0  0  0  0  0  0  0
    1.1400    9.6570    0.1380 C   0  0  0  0  0  0  0  0  0  0  0  0
   -0.0850    8.8290    0.5140 C   0  0  0  0  0  0  0  0  0  0  0  0
   -0.8030    8.3200   -0.7330 C   0  0  2  0  0  0  0  0  0  0  0  0
    0.0450    7.3810   -1.4020 O   0  0  0  0  0  0  0  0  0  0  0  0
   -1.2020    9.4550   -1.7160 C   0  0  0  0  0  0  0  0  0  0  0  0
   -2.3460   10.2990   -1.1000 C   0  0  0  0  0  0  0  0  0  0  0  0
   -1.7900    8.7960   -2.9940 C   0  0  0  0  0  0  0  0  0  0  0  0
    2.0400   11.8000   -1.0550 C   0  0  1  0  0  0  0  0  0  0  0  0
    3.3000   10.9210   -1.3190 C   0  0  0  0  0  0  0  0  0  0  0  0
    2.3580   12.6600    0.2240 C   0  0  0  0  0  0  0  0  0  0  0  0
    1.6190   14.0060    0.3590 C   0  0  0  0  0  0  0  0  0  0  0  0
    1.7220   14.8190   -0.9350 C   0  0  2  0  0  0  0  0  0  0  0  0
    3.2360   15.1430   -1.1770 C   0  0  0  0  0  0  0  0  0  0  0  0
    0.2872   18.5302    1.0889 H   0  0  0  0  0  0  0  0  0  0  0  0
    0.7357   19.3460   -0.4473 H   0  0  0  0  0  0  0  0  0  0  0  0
   -0.5135   18.0552   -0.4473 H   0  0  0  0  0  0  0  0  0  0  0  0
    1.8847   17.0155    0.7499 H   0  0  0  0  0  0  0  0  0  0  0  0
    2.9876   17.2044   -1.8069 H   0  0  0  0  0  0  0  0  0  0  0  0
    2.4048   18.8915   -1.4106 H   0  0  0  0  0  0  0  0  0  0  0  0
    4.5239   17.2243   -0.0607 H   0  0  0  0  0  0  0  0  0  0  0  0
    4.5552   18.9496   -0.6168 H   0  0  0  0  0  0  0  0  0  0  0  0
    2.7481   17.9034    1.2757 H   0  0  0  0  0  0  0  0  0  0  0  0
    6.6242   19.0721    2.9219 H   0  0  0  0  0  0  0  0  0  0  0  0
    6.3205   18.1734    1.3965 H   0  0  0  0  0  0  0  0  0  0  0  0
    6.3169   19.9697    1.3965 H   0  0  0  0  0  0  0  0  0  0  0  0
    5.1025   19.1162    4.3410 H   0  0  0  0  0  0  0  0  0  0  0  0
    3.5234   19.8689    3.9327 H   0  0  0  0  0  0  0  0  0  0  0  0
    3.6927   18.0806    3.9327 H   0  0  0  0  0  0  0  0  0  0  0  0
   -0.0205   16.0416   -0.4428 H   0  0  0  0  0  0  0  0  0  0  0  0
   -0.2245   16.7630   -2.7397 H   0  0  0  0  0  0  0  0  0  0  0  0
    1.4976   17.1884   -2.8398 H   0  0  0  0  0  0  0  0  0  0  0  0
    0.2940   14.8577   -3.9735 H   0  0  0  0  0  0  0  0  0  0  0  0
    2.0297   15.0663   -3.7569 H   0  0  0  0  0  0  0  0  0  0  0  0
   -0.6962   13.6825   -0.7846 H   0  0  0  0  0  0  0  0  0  0  0  0
   -1.0860   14.5227   -2.3237 H   0  0  0  0  0  0  0  0  0  0  0  0
   -0.7510   12.7579   -2.3237 H   0  0  0  0  0  0  0  0  0  0  0  0
    2.8255   13.0758   -2.6297 H   0  0  0  0  0  0  0  0  0  0  0  0
    0.9293   12.5401   -4.2893 H   0  0  0  0  0  0  0  0  0  0  0  0
    2.2309   11.2985   -3.8967 H   0  0  0  0  0  0  0  0  0  0  0  0
   -0.2361   10.3892   -4.0657 H   0  0  0  0  0  0  0  0  0  0  0  0
    0.1105   11.5531   -0.2159 H   0  0  0  0  0  0  0  0  0  0  0  0
    1.8473    9.0134   -0.4057 H   0  0  0  0  0  0  0  0  0  0  0  0
    1.5792   10.0452    1.0688 H   0  0  0  0  0  0  0  0  0  0  0  0
    0.2342    7.9695    1.1217 H   0  0  0  0  0  0  0  0  0  0  0  0
   -0.7782    9.4660    1.0829 H   0  0  0  0  0  0  0  0  0  0  0  0
   -1.7395    7.8460   -0.4040 H   0  0  0  0  0  0  0  0  0  0  0  0
   -0.5200    6.6690   -1.7480 H   0  0  0  0  0  0  0  0  0  0  0  0
   -2.2849   10.2539   -0.0026 H   0  0  0  0  0  0  0  0  0  0  0  0
   -2.2494   11.3439   -1.4300 H   0  0  0  0  0  0  0  0  0  0  0  0
   -3.3158    9.8984   -1.4300 H   0  0  0  0  0  0  0  0  0  0  0  0
   -2.4968    8.0038   -2.7060 H   0  0  0  0  0  0  0  0  0  0  0  0
   -2.3149    9.5567   -3.5905 H   0  0  0  0  0  0  0  0  0  0  0  0
   -0.9746    8.3608   -3.5905 H   0  0  0  0  0  0  0  0  0  0  0  0
    3.7404   10.6138   -0.3590 H   0  0  0  0  0  0  0  0  0  0  0  0
    3.0105   10.0279   -1.8922 H   0  0  0  0  0  0  0  0  0  0  0  0
    4.0382   11.5011   -1.8922 H   0  0  0  0  0  0  0  0  0  0  0  0
    2.1051   12.0519    1.1050 H   0  0  0  0  0  0  0  0  0  0  0  0
    3.4222   12.9240    0.1355 H   0  0  0  0  0  0  0  0  0  0  0  0
    0.5587   13.8140    0.5801 H   0  0  0  0  0  0  0  0  0  0  0  0
    2.0835   14.5815    1.1732 H   0  0  0  0  0  0  0  0  0  0  0  0
    3.7469   15.2523   -0.2090 H   0  0  0  0  0  0  0  0  0  0  0  0
    3.6999   14.3238   -1.7459 H   0  0  0  0  0  0  0  0  0  0  0  0
    3.3240   16.0803   -1.7459 H   0  0  0  0  0  0  0  0  0  0  0  0
  1  2  1  0
  2  3  1  0
  3  4  1  0
  4  5  1  0
  5  6  1  0
  6  7  1  0
  7  8  1  0
  7  9  1  0
  2 10  1  0
 10 11  1  0
 11 12  1  0
 12 13  1  0
 13 14  1  1
 13 15  1  0
 15 16  1  0
 16 17  1  0
 17 18  2  0
 18 19  1  0
 19 20  1  0
 20 21  1  0
 21 22  1  0
 22 23  1  0
 22 24  1  0
 24 25  1  0
 24 26  1  0
 19 27  1  0
 27 28  1  6
 27 29  1  0
 29 30  1  0
 30 31  1  0
 31 32  1  6
  7  5  1  0
 31 10  1  0
 31 13  1  0
 27 15  1  0
 24 18  1  0
  1 33  1  0
  1 34  1  0
  1 35  1  0
  2 36  1  1
  3 37  1  0
  3 38  1  0
  4 39  1  0
  4 40  1  0
  5 41  1  1
  8 42  1  0
  8 43  1  0
  8 44  1  0
  9 45  1  0
  9 46  1  0
  9 47  1  0
 10 48  1  1
 11 49  1  0
 11 50  1  0
 12 51  1  0
 12 52  1  0
 14 53  1  0
 14 54  1  0
 14 55  1  0
 15 56  1  6
 16 57  1  0
 16 58  1  0
 17 59  1  0
 19 60  1  1
 20 61  1  0
 20 62  1  0
 21 63  1  0
 21 64  1  0
 22 65  1  1
 23 66  1  0
 25 67  1  0
 25 68  1  0
 25 69  1  0
 26 70  1  0
 26 71  1  0
 26 72  1  0
 28 73  1  0
 28 74  1  0
 28 75  1  0
 29 76  1  0
 29 77  1  0
 30 78  1  0
 30 79  1  0
 32 80  1  0
 32 81  1  0
 32 82  1  0
M  END
>  <meeko>  (4) 
{"is_sidechain": [false], "intermolecular_energy": 2.731, "internal_energy": -0.839}

$$$$
EPH_relaxed_0001_pdb2pqr_Repair_210_r2_0001_out
     RDKit          3D

 82 86  0  0  0  0  0  0  0  0999 V2000
    2.2670   17.9550   -2.7740 C   0  0  0  0  0  0  0  0  0  0  0  0
    0.8730   17.6560   -2.2160 C   0  0  2  0  0  0  0  0  0  0  0  0
    0.8100   17.8310   -0.6850 C   0  0  0  0  0  0  0  0  0  0  0  0
    2.1820   18.0070   -0.0290 C   0  0  0  0  0  0  0  0  0  0  0  0
    2.1760   19.1160    0.9790 C   0  0  2  0  0  0  0  0  0  0  0  0
    3.0750   20.1940    0.6890 O   0  0  0  0  0  0  0  0  0  0  0  0
    3.3560   19.4370    1.8770 C   0  0  0  0  0  0  0  0  0  0  0  0
    4.6250   18.6470    1.8090 C   0  0  0  0  0  0  0  0  0  0  0  0
    3.1060   20.1910    3.1460 C   0  0  0  0  0  0  0  0  0  0  0  0
    0.4540   16.2400   -2.5960 C   0  0  1  0  0  0  0  0  0  0  0  0
    0.5170   15.9890   -4.1260 C   0  0  0  0  0  0  0  0  0  0  0  0
    0.9540   14.5140   -4.3190 C   0  0  0  0  0  0  0  0  0  0  0  0
    0.8060   13.8760   -2.9170 C   0  0  1  0  0  0  0  0  0  0  0  0
   -0.7130   13.5410   -2.7870 C   0  0  0  0  0  0  0  0  0  0  0  0
    1.7000   12.6270   -2.6290 C   0  0  2  0  0  0  0  0  0  0  0  0
    1.4290   11.4090   -3.5290 C   0  0  0  0  0  0  0  0  0  0  0  0
    0.4090   10.4490   -3.0130 C   0  0  0  0  0  0  0  0  0  0  0  0
   -0.0550   10.4040   -1.7500 C   0  0  0  0  0  0  0  0  0  0  0  0
    0.5250   11.3210   -0.6650 C   0  0  1  0  0  0  0  0  0  0  0  0
    0.8090   10.4930    0.6150 C   0  0  0  0  0  0  0  0  0  0  0  0
   -0.4160    9.7220    1.0970 C   0  0  0  0  0  0  0  0  0  0  0  0
   -0.9280    8.7790    0.0120 C   0  0  2  0  0  0  0  0  0  0  0  0
    0.0480    7.7550   -0.2070 O   0  0  0  0  0  0  0  0  0  0  0  0
   -1.2390    9.5000   -1.3300 C   0  0  0  0  0  0  0  0  0  0  0  0
   -2.4960   10.3900   -1.1630 C   0  0  0  0  0  0  0  0  0  0  0  0
   -1.6110    8.4170   -2.3780 C   0  0  0  0  0  0  0  0  0  0  0  0
    1.7650   12.2140   -1.1030 C   0  0  1  0  0  0  0  0  0  0  0  0
    3.0900   11.4140   -0.9140 C   0  0  0  0  0  0  0  0  0  0  0  0
    1.8610   13.4630   -0.1490 C   0  0  0  0  0  0  0  0  0  0  0  0
    1.0480   14.7090   -0.5520 C   0  0  0  0  0  0  0  0  0  0  0  0
    1.2920   15.0720   -2.0190 C   0  0  2  0  0  0  0  0  0  0  0  0
    2.8080   15.4360   -2.1770 C   0  0  0  0  0  0  0  0  0  0  0  0
    2.9704   18.1059   -1.9419 H   0  0  0  0  0  0  0  0  0  0  0  0
    2.6044   17.1088   -3.3905 H   0  0  0  0  0  0  0  0  0  0  0  0
    2.2277   18.8651   -3.3905 H   0  0  0  0  0  0  0  0  0  0  0  0
    0.1762   18.3821   -2.6600 H   0  0  0  0  0  0  0  0  0  0  0  0
    0.2017   18.7199   -0.4618 H   0  0  0  0  0  0  0  0  0  0  0  0
    0.3728   16.9092   -0.2737 H   0  0  0  0  0  0  0  0  0  0  0  0
    2.4594   17.0691    0.4744 H   0  0  0  0  0  0  0  0  0  0  0  0
    2.9079   18.2619   -0.8152 H   0  0  0  0  0  0  0  0  0  0  0  0
    1.1104   18.9468    1.1931 H   0  0  0  0  0  0  0  0  0  0  0  0
    4.9760   18.4285    2.8284 H   0  0  0  0  0  0  0  0  0  0  0  0
    4.4413   17.7034    1.2743 H   0  0  0  0  0  0  0  0  0  0  0  0
    5.3906   19.2283    1.2743 H   0  0  0  0  0  0  0  0  0  0  0  0
    3.3214   19.5413    4.0071 H   0  0  0  0  0  0  0  0  0  0  0  0
    3.7589   21.0755    3.1817 H   0  0  0  0  0  0  0  0  0  0  0  0
    2.0539   20.5102    3.1817 H   0  0  0  0  0  0  0  0  0  0  0  0
   -0.5581   16.2248   -2.1655 H   0  0  0  0  0  0  0  0  0  0  0  0
   -0.4723   16.1533   -4.5780 H   0  0  0  0  0  0  0  0  0  0  0  0
    1.2248   16.6776   -4.6107 H   0  0  0  0  0  0  0  0  0  0  0  0
    0.3024   14.0080   -5.0466 H   0  0  0  0  0  0  0  0  0  0  0  0
    1.9791   14.4304   -4.7091 H   0  0  0  0  0  0  0  0  0  0  0  0
   -0.9855   13.4809   -1.7230 H   0  0  0  0  0  0  0  0  0  0  0  0
   -1.3054   14.3301   -3.2732 H   0  0  0  0  0  0  0  0  0  0  0  0
   -0.9186   12.5759   -3.2732 H   0  0  0  0  0  0  0  0  0  0  0  0
    2.7022   12.9862   -2.9056 H   0  0  0  0  0  0  0  0  0  0  0  0
    1.0844   11.7784   -4.5061 H   0  0  0  0  0  0  0  0  0  0  0  0
    2.3753   10.8503   -3.5779 H   0  0  0  0  0  0  0  0  0  0  0  0
    0.0019    9.7161   -3.7252 H   0  0  0  0  0  0  0  0  0  0  0  0
   -0.2489   12.0745   -0.4571 H   0  0  0  0  0  0  0  0  0  0  0  0
    1.6147    9.7758    0.3994 H   0  0  0  0  0  0  0  0  0  0  0  0
    1.0952   11.1963    1.4109 H   0  0  0  0  0  0  0  0  0  0  0  0
   -0.1446    9.1342    1.9862 H   0  0  0  0  0  0  0  0  0  0  0  0
   -1.2111   10.4422    1.3403 H   0  0  0  0  0  0  0  0  0  0  0  0
   -1.8782    8.3531    0.3667 H   0  0  0  0  0  0  0  0  0  0  0  0
    0.8120    8.1660   -0.6450 H   0  0  0  0  0  0  0  0  0  0  0  0
   -2.7023   10.5360   -0.0924 H   0  0  0  0  0  0  0  0  0  0  0  0
   -2.3201   11.3660   -1.6390 H   0  0  0  0  0  0  0  0  0  0  0  0
   -3.3581    9.8999   -1.6390 H   0  0  0  0  0  0  0  0  0  0  0  0
   -1.9263    7.4990   -1.8605 H   0  0  0  0  0  0  0  0  0  0  0  0
   -2.4346    8.7841   -3.0081 H   0  0  0  0  0  0  0  0  0  0  0  0
   -0.7357    8.2005   -3.0081 H   0  0  0  0  0  0  0  0  0  0  0  0
    3.2940   11.2909    0.1599 H   0  0  0  0  0  0  0  0  0  0  0  0
    2.9912   10.4245   -1.3843 H   0  0  0  0  0  0  0  0  0  0  0  0
    3.9196   11.9623   -1.3843 H   0  0  0  0  0  0  0  0  0  0  0  0
    1.5161   13.1484    0.8470 H   0  0  0  0  0  0  0  0  0  0  0  0
    2.9136   13.7792   -0.1935 H   0  0  0  0  0  0  0  0  0  0  0  0
   -0.0226   14.5029   -0.4056 H   0  0  0  0  0  0  0  0  0  0  0  0
    1.3670   15.5539    0.0760 H   0  0  0  0  0  0  0  0  0  0  0  0
    3.2644   15.5456   -1.1822 H   0  0  0  0  0  0  0  0  0  0  0  0
    3.3216   14.6356   -2.7299 H   0  0  0  0  0  0  0  0  0  0  0  0
    2.9022   16.3823   -2.7299 H   0  0  0  0  0  0  0  0  0  0  0  0
  1  2  1  0
  2  3  1  0
  3  4  1  0
  4  5  1  0
  5  6  1  0
  6  7  1  0
  7  8  1  0
  7  9  1  0
  2 10  1  0
 10 11  1  0
 11 12  1  0
 12 13  1  0
 13 14  1  1
 13 15  1  0
 15 16  1  0
 16 17  1  0
 17 18  2  0
 18 19  1  0
 19 20  1  0
 20 21  1  0
 21 22  1  0
 22 23  1  0
 22 24  1  0
 24 25  1  0
 24 26  1  0
 19 27  1  0
 27 28  1  6
 27 29  1  0
 29 30  1  0
 30 31  1  0
 31 32  1  1
  7  5  1  0
 31 10  1  0
 31 13  1  0
 27 15  1  0
 24 18  1  0
  1 33  1  0
  1 34  1  0
  1 35  1  0
  2 36  1  6
  3 37  1  0
  3 38  1  0
  4 39  1  0
  4 40  1  0
  5 41  1  1
  8 42  1  0
  8 43  1  0
  8 44  1  0
  9 45  1  0
  9 46  1  0
  9 47  1  0
 10 48  1  1
 11 49  1  0
 11 50  1  0
 12 51  1  0
 12 52  1  0
 14 53  1  0
 14 54  1  0
 14 55  1  0
 15 56  1  6
 16 57  1  0
 16 58  1  0
 17 59  1  0
 19 60  1  1
 20 61  1  0
 20 62  1  0
 21 63  1  0
 21 64  1  0
 22 65  1  1
 23 66  1  0
 25 67  1  0
 25 68  1  0
 25 69  1  0
 26 70  1  0
 26 71  1  0
 26 72  1  0
 28 73  1  0
 28 74  1  0
 28 75  1  0
 29 76  1  0
 29 77  1  0
 30 78  1  0
 30 79  1  0
 32 80  1  0
 32 81  1  0
 32 82  1  0
M  END
>  <meeko>  (5) 
{"is_sidechain": [false], "intermolecular_energy": 2.731, "internal_energy": -0.839}

$$$$
EPH_relaxed_0001_pdb2pqr_Repair_210_r2_0001_out
     RDKit          3D

 82 86  0  0  0  0  0  0  0  0999 V2000
    3.6550   18.1120    0.7830 C   0  0  0  0  0  0  0  0  0  0  0  0
    2.6300   18.5380   -0.2720 C   0  0  2  0  0  0  0  0  0  0  0  0
    1.8690   19.8130    0.1400 C   0  0  0  0  0  0  0  0  0  0  0  0
    0.7360   19.5590    1.1370 C   0  0  0  0  0  0  0  0  0  0  0  0
   -0.5510   20.1820    0.6860 C   0  0  2  0  0  0  0  0  0  0  0  0
   -1.5920   20.1860    1.6720 O   0  0  0  0  0  0  0  0  0  0  0  0
   -1.8370   19.4000    0.4950 C   0  0  0  0  0  0  0  0  0  0  0  0
   -1.8990   17.9260    0.7500 C   0  0  0  0  0  0  0  0  0  0  0  0
   -2.8930   19.9680   -0.4010 C   0  0  0  0  0  0  0  0  0  0  0  0
    1.6450   17.4030   -0.5270 C   0  0  1  0  0  0  0  0  0  0  0  0
    0.4570   17.8340   -1.4270 C   0  0  0  0  0  0  0  0  0  0  0  0
    0.0880   16.6070   -2.3000 C   0  0  0  0  0  0  0  0  0  0  0  0
    0.8440   15.4240   -1.6500 C   0  0  1  0  0  0  0  0  0  0  0  0
   -0.0480   14.9930   -0.4440 C   0  0  0  0  0  0  0  0  0  0  0  0
    1.1740   14.2160   -2.5860 C   0  0  2  0  0  0  0  0  0  0  0  0
   -0.0510   13.4900   -3.1690 C   0  0  0  0  0  0  0  0  0  0  0  0
   -0.5670   12.3530   -2.3500 C   0  0  0  0  0  0  0  0  0  0  0  0
    0.0930   11.7500   -1.3450 C   0  0  0  0  0  0  0  0  0  0  0  0
    1.5370   12.1410   -1.0040 C   0  0  1  0  0  0  0  0  0  0  0  0
    2.3910   10.8590   -0.8210 C   0  0  0  0  0  0  0  0  0  0  0  0
    1.7910    9.8970    0.2010 C   0  0  0  0  0  0  0  0  0  0  0  0
    0.3770    9.4860   -0.2030 C   0  0  2  0  0  0  0  0  0  0  0  0
    0.4480    8.7030   -1.3980 O   0  0  0  0  0  0  0  0  0  0  0  0
   -0.5730   10.6960   -0.4260 C   0  0  0  0  0  0  0  0  0  0  0  0
   -0.8890   11.3670    0.9340 C   0  0  0  0  0  0  0  0  0  0  0  0
   -1.9230   10.1500   -0.9640 C   0  0  0  0  0  0  0  0  0  0  0  0
    2.2190   13.1940   -1.9810 C   0  0  1  0  0  0  0  0  0  0  0  0
    2.8690   12.4540   -3.1900 C   0  0  0  0  0  0  0  0  0  0  0  0
    3.3910   13.9170   -1.2190 C   0  0  0  0  0  0  0  0  0  0  0  0
    3.0220   15.1740   -0.4080 C   0  0  0  0  0  0  0  0  0  0  0  0
    2.1840   16.1420   -1.2490 C   0  0  2  0  0  0  0  0  0  0  0  0
    3.0640   16.6110   -2.4580 C   0  0  0  0  0  0  0  0  0  0  0  0
    3.2407   18.2842    1.7873 H   0  0  0  0  0  0  0  0  0  0  0  0
    3.8856   17.0435    0.6597 H   0  0  0  0  0  0  0  0  0  0  0  0
    4.5750   18.7023    0.6597 H   0  0  0  0  0  0  0  0  0  0  0  0
    3.1813   18.7668   -1.1960 H   0  0  0  0  0  0  0  0  0  0  0  0
    2.5846   20.5115    0.5983 H   0  0  0  0  0  0  0  0  0  0  0  0
    1.4088   20.2211   -0.7719 H   0  0  0  0  0  0  0  0  0  0  0  0
    0.5894   18.4738    1.2408 H   0  0  0  0  0  0  0  0  0  0  0  0
    1.0178   20.0130    2.0985 H   0  0  0  0  0  0  0  0  0  0  0  0
   -0.0103   20.8837    0.0339 H   0  0  0  0  0  0  0  0  0  0  0  0
   -1.9068   17.7415    1.8344 H   0  0  0  0  0  0  0  0  0  0  0  0
   -2.8152   17.5145    0.3015 H   0  0  0  0  0  0  0  0  0  0  0  0
   -1.0205   17.4390    0.3015 H   0  0  0  0  0  0  0  0  0  0  0  0
   -3.6984   20.4012    0.2103 H   0  0  0  0  0  0  0  0  0  0  0  0
   -2.4529   20.7511   -1.0359 H   0  0  0  0  0  0  0  0  0  0  0  0
   -3.3038   19.1691   -1.0359 H   0  0  0  0  0  0  0  0  0  0  0  0
    1.3754   17.1565    0.5106 H   0  0  0  0  0  0  0  0  0  0  0  0
   -0.4015   18.1285   -0.8055 H   0  0  0  0  0  0  0  0  0  0  0  0
    0.7290   18.6965   -2.0533 H   0  0  0  0  0  0  0  0  0  0  0  0
   -0.9976   16.4305   -2.2828 H   0  0  0  0  0  0  0  0  0  0  0  0
    0.3631   16.7483   -3.3556 H   0  0  0  0  0  0  0  0  0  0  0  0
    0.4640   15.2404    0.4976 H   0  0  0  0  0  0  0  0  0  0  0  0
   -1.0091   15.5261   -0.4898 H   0  0  0  0  0  0  0  0  0  0  0  0
   -0.2276   13.9087   -0.4898 H   0  0  0  0  0  0  0  0  0  0  0  0
    1.6654   14.7054   -3.4398 H   0  0  0  0  0  0  0  0  0  0  0  0
   -0.8617   14.2254   -3.2789 H   0  0  0  0  0  0  0  0  0  0  0  0
    0.2792   13.0531   -4.1230 H   0  0  0  0  0  0  0  0  0  0  0  0
   -1.5726   11.9765   -2.5889 H   0  0  0  0  0  0  0  0  0  0  0  0
    1.4864   12.6945   -0.0547 H   0  0  0  0  0  0  0  0  0  0  0  0
    2.4649   10.3432   -1.7898 H   0  0  0  0  0  0  0  0  0  0  0  0
    3.3797   11.1666   -0.4497 H   0  0  0  0  0  0  0  0  0  0  0  0
    2.4229    8.9989    0.2646 H   0  0  0  0  0  0  0  0  0  0  0  0
    1.7448   10.4038    1.1762 H   0  0  0  0  0  0  0  0  0  0  0  0
   -0.0473    8.9038    0.6283 H   0  0  0  0  0  0  0  0  0  0  0  0
    0.0580    9.2290   -2.1170 H   0  0  0  0  0  0  0  0  0  0  0  0
   -0.5759   10.7021    1.7524 H   0  0  0  0  0  0  0  0  0  0  0  0
   -0.3452   12.3203    1.0076 H   0  0  0  0  0  0  0  0  0  0  0  0
   -1.9703   11.5550    1.0076 H   0  0  0  0  0  0  0  0  0  0  0  0
   -2.5750    9.8863   -0.1182 H   0  0  0  0  0  0  0  0  0  0  0  0
   -2.4120   10.9210   -1.5775 H   0  0  0  0  0  0  0  0  0  0  0  0
   -1.7385    9.2558   -1.5775 H   0  0  0  0  0  0  0  0  0  0  0  0
    3.5525   11.6759   -2.8192 H   0  0  0  0  0  0  0  0  0  0  0  0
    2.0817   11.9893   -3.8018 H   0  0  0  0  0  0  0  0  0  0  0  0
    3.4313   13.1748   -3.8018 H   0  0  0  0  0  0  0  0  0  0  0  0
    3.8335   13.1897   -0.5224 H   0  0  0  0  0  0  0  0  0  0  0  0
    4.0704   14.2728   -2.0076 H   0  0  0  0  0  0  0  0  0  0  0  0
    2.4437   14.8737    0.4782 H   0  0  0  0  0  0  0  0  0  0  0  0
    3.9499   15.6828   -0.1076 H   0  0  0  0  0  0  0  0  0  0  0  0
    3.9759   17.0970   -2.0810 H   0  0  0  0  0  0  0  0  0  0  0  0
    3.3393   15.7400   -3.0708 H   0  0  0  0  0  0  0  0  0  0  0  0
    2.4944   17.3252   -3.0708 H   0  0  0  0  0  0  0  0  0  0  0  0
  1  2  1  0
  2  3  1  0
  3  4  1  0
  4  5  1  0
  5  6  1  0
  6  7  1  0
  7  8  1  0
  7  9  1  0
  2 10  1  0
 10 11  1  0
 11 12  1  0
 12 13  1  0
 13 14  1  1
 13 15  1  0
 15 16  1  0
 16 17  1  0
 17 18  2  0
 18 19  1  0
 19 20  1  0
 20 21  1  0
 21 22  1  0
 22 23  1  0
 22 24  1  0
 24 25  1  0
 24 26  1  0
 19 27  1  0
 27 28  1  6
 27 29  1  0
 29 30  1  0
 30 31  1  0
 31 32  1  6
  7  5  1  0
 31 10  1  0
 31 13  1  0
 27 15  1  0
 24 18  1  0
  1 33  1  0
  1 34  1  0
  1 35  1  0
  2 36  1  6
  3 37  1  0
  3 38  1  0
  4 39  1  0
  4 40  1  0
  5 41  1  6
  8 42  1  0
  8 43  1  0
  8 44  1  0
  9 45  1  0
  9 46  1  0
  9 47  1  0
 10 48  1  1
 11 49  1  0
 11 50  1  0
 12 51  1  0
 12 52  1  0
 14 53  1  0
 14 54  1  0
 14 55  1  0
 15 56  1  6
 16 57  1  0
 16 58  1  0
 17 59  1  0
 19 60  1  1
 20 61  1  0
 20 62  1  0
 21 63  1  0
 21 64  1  0
 22 65  1  1
 23 66  1  0
 25 67  1  0
 25 68  1  0
 25 69  1  0
 26 70  1  0
 26 71  1  0
 26 72  1  0
 28 73  1  0
 28 74  1  0
 28 75  1  0
 29 76  1  0
 29 77  1  0
 30 78  1  0
 30 79  1  0
 32 80  1  0
 32 81  1  0
 32 82  1  0
M  END
>  <meeko>  (6) 
{"is_sidechain": [false], "intermolecular_energy": 2.731, "internal_energy": -0.839}

$$$$
EPH_relaxed_0001_pdb2pqr_Repair_210_r2_0001_out
     RDKit          3D

 82 86  0  0  0  0  0  0  0  0999 V2000
   -5.3160    5.7130   -1.5530 C   0  0  0  0  0  0  0  0  0  0  0  0
   -5.5070    7.2120   -1.8030 C   0  0  2  0  0  0  0  0  0  0  0  0
   -5.1950    8.0540   -0.5500 C   0  0  0  0  0  0  0  0  0  0  0  0
   -4.2020    9.1910   -0.8050 C   0  0  0  0  0  0  0  0  0  0  0  0
   -2.8250    8.8430   -0.3250 C   0  0  2  0  0  0  0  0  0  0  0  0
   -2.3470    9.6490    0.7600 O   0  0  0  0  0  0  0  0  0  0  0  0
   -1.6280    9.7620   -0.4780 C   0  0  0  0  0  0  0  0  0  0  0  0
   -1.7520   11.1020   -1.1330 C   0  0  0  0  0  0  0  0  0  0  0  0
   -0.2560    9.1640   -0.4360 C   0  0  0  0  0  0  0  0  0  0  0  0
   -6.9320    7.4830   -2.2710 C   0  0  1  0  0  0  0  0  0  0  0  0
   -7.2570    6.7980   -3.6250 C   0  0  0  0  0  0  0  0  0  0  0  0
   -8.7460    6.3710   -3.5650 C   0  0  0  0  0  0  0  0  0  0  0  0
   -9.3140    7.1100   -2.3310 C   0  0  1  0  0  0  0  0  0  0  0  0
   -9.6180    8.5560   -2.8330 C   0  0  0  0  0  0  0  0  0  0  0  0
  -10.5630    6.4600   -1.6510 C   0  0  2  0  0  0  0  0  0  0  0  0
  -11.8180    6.3750   -2.5370 C   0  0  0  0  0  0  0  0  0  0  0  0
  -12.7360    7.5490   -2.4580 C   0  0  0  0  0  0  0  0  0  0  0  0
  -12.7130    8.4970   -1.5030 C   0  0  0  0  0  0  0  0  0  0  0  0
  -11.7550    8.3890   -0.3100 C   0  0  1  0  0  0  0  0  0  0  0  0
  -12.5260    8.6920    1.0020 C   0  0  0  0  0  0  0  0  0  0  0  0
  -13.2540   10.0320    0.9570 C   0  0  0  0  0  0  0  0  0  0  0  0
  -14.2390   10.0780   -0.2080 C   0  0  2  0  0  0  0  0  0  0  0  0
  -15.2870    9.1360    0.0370 O   0  0  0  0  0  0  0  0  0  0  0  0
  -13.5780    9.7790   -1.5820 C   0  0  0  0  0  0  0  0  0  0  0  0
  -12.6610   10.9600   -1.9860 C   0  0  0  0  0  0  0  0  0  0  0  0
  -14.7030    9.7180   -2.6500 C   0  0  0  0  0  0  0  0  0  0  0  0
  -10.9040    7.0500   -0.2220 C   0  0  1  0  0  0  0  0  0  0  0  0
  -11.7150    5.9520    0.5310 C   0  0  0  0  0  0  0  0  0  0  0  0
   -9.6130    7.3170    0.6380 C   0  0  0  0  0  0  0  0  0  0  0  0
   -8.3750    7.8450   -0.1110 C   0  0  0  0  0  0  0  0  0  0  0  0
   -8.0850    7.0010   -1.3560 C   0  0  2  0  0  0  0  0  0  0  0  0
   -7.7540    5.5450   -0.8800 C   0  0  0  0  0  0  0  0  0  0  0  0
   -5.2917    5.5221   -0.4700 H   0  0  0  0  0  0  0  0  0  0  0  0
   -6.1505    5.1567   -2.0047 H   0  0  0  0  0  0  0  0  0  0  0  0
   -4.3686    5.3837   -2.0047 H   0  0  0  0  0  0  0  0  0  0  0  0
   -4.7950    7.5103   -2.5866 H   0  0  0  0  0  0  0  0  0  0  0  0
   -6.1352    8.4900   -0.1815 H   0  0  0  0  0  0  0  0  0  0  0  0
   -4.7299    7.3791    0.1836 H   0  0  0  0  0  0  0  0  0  0  0  0
   -4.1622    9.3939   -1.8854 H   0  0  0  0  0  0  0  0  0  0  0  0
   -4.5449   10.0766   -0.2499 H   0  0  0  0  0  0  0  0  0  0  0  0
   -2.9794    7.7839   -0.5790 H   0  0  0  0  0  0  0  0  0  0  0  0
   -1.8242   11.8822   -0.3610 H   0  0  0  0  0  0  0  0  0  0  0  0
   -0.8671   11.2871   -1.7597 H   0  0  0  0  0  0  0  0  0  0  0  0
   -2.6558   11.1216   -1.7597 H   0  0  0  0  0  0  0  0  0  0  0  0
    0.0533    9.0292    0.6110 H   0  0  0  0  0  0  0  0  0  0  0  0
   -0.2655    8.1884   -0.9441 H   0  0  0  0  0  0  0  0  0  0  0  0
    0.4522    9.8351   -0.9441 H   0  0  0  0  0  0  0  0  0  0  0  0
   -6.9097    8.5824   -2.3009 H   0  0  0  0  0  0  0  0  0  0  0  0
   -7.0985    7.5035   -4.4540 H   0  0  0  0  0  0  0  0  0  0  0  0
   -6.6038    5.9293   -3.7946 H   0  0  0  0  0  0  0  0  0  0  0  0
   -9.2752    6.6780   -4.4792 H   0  0  0  0  0  0  0  0  0  0  0  0
   -8.8645    5.2800   -3.4891 H   0  0  0  0  0  0  0  0  0  0  0  0
   -9.7581    9.2222   -1.9690 H   0  0  0  0  0  0  0  0  0  0  0  0
   -8.7762    8.9173   -3.4419 H   0  0  0  0  0  0  0  0  0  0  0  0
  -10.5340    8.5477   -3.4419 H   0  0  0  0  0  0  0  0  0  0  0  0
  -10.2340    5.4216   -1.4979 H   0  0  0  0  0  0  0  0  0  0  0  0
  -11.4898    6.2701   -3.5817 H   0  0  0  0  0  0  0  0  0  0  0  0
  -12.3935    5.5138   -2.1668 H   0  0  0  0  0  0  0  0  0  0  0  0
  -13.4958    7.6479   -3.2472 H   0  0  0  0  0  0  0  0  0  0  0  0
  -10.9799    9.1523   -0.4729 H   0  0  0  0  0  0  0  0  0  0  0  0
  -13.2652    7.8946    1.1687 H   0  0  0  0  0  0  0  0  0  0  0  0
  -11.7901    8.7392    1.8182 H   0  0  0  0  0  0  0  0  0  0  0  0
  -13.8035   10.1751    1.8991 H   0  0  0  0  0  0  0  0  0  0  0  0
  -12.5107   10.8313    0.8205 H   0  0  0  0  0  0  0  0  0  0  0  0
  -14.6324   11.1036   -0.2665 H   0  0  0  0  0  0  0  0  0  0  0  0
  -16.0870    9.4630   -0.4090 H   0  0  0  0  0  0  0  0  0  0  0  0
  -12.2780   11.4533   -1.0805 H   0  0  0  0  0  0  0  0  0  0  0  0
  -11.8175   10.5819   -2.5822 H   0  0  0  0  0  0  0  0  0  0  0  0
  -13.2363   11.6836   -2.5822 H   0  0  0  0  0  0  0  0  0  0  0  0
  -15.6811    9.6650   -2.1496 H   0  0  0  0  0  0  0  0  0  0  0  0
  -14.6611   10.6197   -3.2786 H   0  0  0  0  0  0  0  0  0  0  0  0
  -14.5639    8.8261   -3.2786 H   0  0  0  0  0  0  0  0  0  0  0  0
  -11.6081    6.0967    1.6162 H   0  0  0  0  0  0  0  0  0  0  0  0
  -12.7770    6.0259    0.2541 H   0  0  0  0  0  0  0  0  0  0  0  0
  -11.3321    4.9587    0.2541 H   0  0  0  0  0  0  0  0  0  0  0  0
   -9.8746    8.0556    1.4101 H   0  0  0  0  0  0  0  0  0  0  0  0
   -9.3161    6.3308    1.0243 H   0  0  0  0  0  0  0  0  0  0  0  0
   -8.5563    8.8861   -0.4165 H   0  0  0  0  0  0  0  0  0  0  0  0
   -7.5069    7.7864    0.5620 H   0  0  0  0  0  0  0  0  0  0  0  0
   -7.7464    5.5115    0.2195 H   0  0  0  0  0  0  0  0  0  0  0  0
   -8.5174    4.8517   -1.2627 H   0  0  0  0  0  0  0  0  0  0  0  0
   -6.7658    5.2499   -1.2627 H   0  0  0  0  0  0  0  0  0  0  0  0
  1  2  1  0
  2  3  1  0
  3  4  1  0
  4  5  1  0
  5  6  1  0
  6  7  1  0
  7  8  1  0
  7  9  1  0
  2 10  1  0
 10 11  1  0
 11 12  1  0
 12 13  1  0
 13 14  1  6
 13 15  1  0
 15 16  1  0
 16 17  1  0
 17 18  2  0
 18 19  1  0
 19 20  1  0
 20 21  1  0
 21 22  1  0
 22 23  1  0
 22 24  1  0
 24 25  1  0
 24 26  1  0
 19 27  1  0
 27 28  1  1
 27 29  1  0
 29 30  1  0
 30 31  1  0
 31 32  1  1
  7  5  1  0
 31 10  1  0
 31 13  1  0
 27 15  1  0
 24 18  1  0
  1 33  1  0
  1 34  1  0
  1 35  1  0
  2 36  1  6
  3 37  1  0
  3 38  1  0
  4 39  1  0
  4 40  1  0
  5 41  1  1
  8 42  1  0
  8 43  1  0
  8 44  1  0
  9 45  1  0
  9 46  1  0
  9 47  1  0
 10 48  1  6
 11 49  1  0
 11 50  1  0
 12 51  1  0
 12 52  1  0
 14 53  1  0
 14 54  1  0
 14 55  1  0
 15 56  1  1
 16 57  1  0
 16 58  1  0
 17 59  1  0
 19 60  1  6
 20 61  1  0
 20 62  1  0
 21 63  1  0
 21 64  1  0
 22 65  1  6
 23 66  1  0
 25 67  1  0
 25 68  1  0
 25 69  1  0
 26 70  1  0
 26 71  1  0
 26 72  1  0
 28 73  1  0
 28 74  1  0
 28 75  1  0
 29 76  1  0
 29 77  1  0
 30 78  1  0
 30 79  1  0
 32 80  1  0
 32 81  1  0
 32 82  1  0
M  END
>  <meeko>  (7) 
{"is_sidechain": [false], "intermolecular_energy": 2.731, "internal_energy": -0.839}

$$$$
EPH_relaxed_0001_pdb2pqr_Repair_210_r2_0001_out
     RDKit          3D

 82 86  0  0  0  0  0  0  0  0999 V2000
    3.4690   17.5670    1.0060 C   0  0  0  0  0  0  0  0  0  0  0  0
    3.4220   16.6530   -0.2210 C   0  0  2  0  0  0  0  0  0  0  0  0
    3.4140   17.4510   -1.5400 C   0  0  0  0  0  0  0  0  0  0  0  0
    2.7950   18.8450   -1.4120 C   0  0  0  0  0  0  0  0  0  0  0  0
    1.4010   18.8850   -1.9610 C   0  0  2  0  0  0  0  0  0  0  0  0
    0.9320   20.1940   -2.3120 O   0  0  0  0  0  0  0  0  0  0  0  0
    0.2360   19.5370   -1.2400 C   0  0  0  0  0  0  0  0  0  0  0  0
    0.4120   20.1940    0.0930 C   0  0  0  0  0  0  0  0  0  0  0  0
   -1.1550   19.1120   -1.5960 C   0  0  0  0  0  0  0  0  0  0  0  0
    2.1950   15.7510   -0.1510 C   0  0  1  0  0  0  0  0  0  0  0  0
    0.8670   16.5530   -0.1010 C   0  0  0  0  0  0  0  0  0  0  0  0
   -0.1830   15.7260   -0.8880 C   0  0  0  0  0  0  0  0  0  0  0  0
    0.4730   14.3390   -1.0760 C   0  0  1  0  0  0  0  0  0  0  0  0
    0.2330   13.5950    0.2750 C   0  0  0  0  0  0  0  0  0  0  0  0
   -0.0260   13.4980   -2.2950 C   0  0  2  0  0  0  0  0  0  0  0  0
   -1.5150   13.1090   -2.2540 C   0  0  0  0  0  0  0  0  0  0  0  0
   -1.8150   11.8050   -1.5900 C   0  0  0  0  0  0  0  0  0  0  0  0
   -0.9130   10.8480   -1.3030 C   0  0  0  0  0  0  0  0  0  0  0  0
    0.5510   10.9880   -1.7410 C   0  0  1  0  0  0  0  0  0  0  0  0
    1.0290    9.6570   -2.3790 C   0  0  0  0  0  0  0  0  0  0  0  0
    0.8060    8.4560   -1.4650 C   0  0  0  0  0  0  0  0  0  0  0  0
   -0.6700    8.3170   -1.0990 C   0  0  2  0  0  0  0  0  0  0  0  0
   -1.4080    7.9820   -2.2790 O   0  0  0  0  0  0  0  0  0  0  0  0
   -1.2660    9.6000   -0.4560 C   0  0  0  0  0  0  0  0  0  0  0  0
   -0.6760    9.7930    0.9630 C   0  0  0  0  0  0  0  0  0  0  0  0
   -2.7900    9.3750   -0.2660 C   0  0  0  0  0  0  0  0  0  0  0  0
    0.8870   12.2530   -2.6420 C   0  0  1  0  0  0  0  0  0  0  0  0
    0.6330   11.9190   -4.1440 C   0  0  0  0  0  0  0  0  0  0  0  0
    2.4210   12.5820   -2.5130 C   0  0  0  0  0  0  0  0  0  0  0  0
    2.8370   13.5150   -1.3600 C   0  0  0  0  0  0  0  0  0  0  0  0
    1.9630   14.7720   -1.3290 C   0  0  2  0  0  0  0  0  0  0  0  0
    2.2010   15.5530   -2.6660 C   0  0  0  0  0  0  0  0  0  0  0  0
    3.4376   16.9557    1.9200 H   0  0  0  0  0  0  0  0  0  0  0  0
    4.3986   18.1549    0.9899 H   0  0  0  0  0  0  0  0  0  0  0  0
    2.6046   18.2472    0.9899 H   0  0  0  0  0  0  0  0  0  0  0  0
    4.3353   16.0400   -0.2115 H   0  0  0  0  0  0  0  0  0  0  0  0
    4.4526   17.5625   -1.8847 H   0  0  0  0  0  0  0  0  0  0  0  0
    2.7934   16.8879   -2.2526 H   0  0  0  0  0  0  0  0  0  0  0  0
    2.7677   19.1267   -0.3490 H   0  0  0  0  0  0  0  0  0  0  0  0
    3.4117   19.5485   -1.9905 H   0  0  0  0  0  0  0  0  0  0  0  0
    1.5256   17.8897   -2.4124 H   0  0  0  0  0  0  0  0  0  0  0  0
    0.2161   19.4627    0.8910 H   0  0  0  0  0  0  0  0  0  0  0  0
    1.4422   20.5687    0.1839 H   0  0  0  0  0  0  0  0  0  0  0  0
   -0.2929   21.0335    0.1839 H   0  0  0  0  0  0  0  0  0  0  0  0
   -1.7314   18.9359   -0.6758 H   0  0  0  0  0  0  0  0  0  0  0  0
   -1.6402   19.9029   -2.1869 H   0  0  0  0  0  0  0  0  0  0  0  0
   -1.1153   18.1850   -2.1869 H   0  0  0  0  0  0  0  0  0  0  0  0
    2.4319   15.1880    0.7638 H   0  0  0  0  0  0  0  0  0  0  0  0
    0.5423   16.6840    0.9418 H   0  0  0  0  0  0  0  0  0  0  0  0
    0.9924   17.5538   -0.5401 H   0  0  0  0  0  0  0  0  0  0  0  0
   -1.1176   15.6388   -0.3145 H   0  0  0  0  0  0  0  0  0  0  0  0
   -0.4491   16.1947   -1.8469 H   0  0  0  0  0  0  0  0  0  0  0  0
    0.4522   14.2745    1.1118 H   0  0  0  0  0  0  0  0  0  0  0  0
   -0.8159   13.2688    0.3327 H   0  0  0  0  0  0  0  0  0  0  0  0
    0.8936   12.7173    0.3327 H   0  0  0  0  0  0  0  0  0  0  0  0
    0.0746   14.2091   -3.1282 H   0  0  0  0  0  0  0  0  0  0  0  0
   -2.0580   13.8985   -1.7138 H   0  0  0  0  0  0  0  0  0  0  0  0
   -1.8295   12.9966   -3.3021 H   0  0  0  0  0  0  0  0  0  0  0  0
   -2.8614   11.6104   -1.3121 H   0  0  0  0  0  0  0  0  0  0  0  0
    1.1255   11.1903   -0.8250 H   0  0  0  0  0  0  0  0  0  0  0  0
    0.4741    9.4955   -3.3149 H   0  0  0  0  0  0  0  0  0  0  0  0
    2.1108    9.7429   -2.5589 H   0  0  0  0  0  0  0  0  0  0  0  0
    1.1363    7.5433   -1.9825 H   0  0  0  0  0  0  0  0  0  0  0  0
    1.3848    8.6047   -0.5415 H   0  0  0  0  0  0  0  0  0  0  0  0
   -0.7486    7.5225   -0.3423 H   0  0  0  0  0  0  0  0  0  0  0  0
   -2.3400    7.8790   -2.0230 H   0  0  0  0  0  0  0  0  0  0  0  0
   -1.4394    9.5433    1.7146 H   0  0  0  0  0  0  0  0  0  0  0  0
    0.1944    9.1328    1.0911 H   0  0  0  0  0  0  0  0  0  0  0  0
   -0.3640   10.8400    1.0911 H   0  0  0  0  0  0  0  0  0  0  0  0
   -3.0244    9.3404    0.8082 H   0  0  0  0  0  0  0  0  0  0  0  0
   -3.3440   10.2011   -0.7358 H   0  0  0  0  0  0  0  0  0  0  0  0
   -3.0816    8.4241   -0.7358 H   0  0  0  0  0  0  0  0  0  0  0  0
   -0.0313   11.0454   -4.2181 H   0  0  0  0  0  0  0  0  0  0  0  0
    0.1607   12.7817   -4.6367 H   0  0  0  0  0  0  0  0  0  0  0  0
    1.5905   11.6943   -4.6367 H   0  0  0  0  0  0  0  0  0  0  0  0
    2.9554   11.6298   -2.3798 H   0  0  0  0  0  0  0  0  0  0  0  0
    2.6761   13.1294   -3.4324 H   0  0  0  0  0  0  0  0  0  0  0  0
    2.7291   12.9782   -0.4060 H   0  0  0  0  0  0  0  0  0  0  0  0
    3.8828   13.8189   -1.5149 H   0  0  0  0  0  0  0  0  0  0  0  0
    2.5147   16.5825   -2.4384 H   0  0  0  0  0  0  0  0  0  0  0  0
    2.9868   15.0507   -3.2492 H   0  0  0  0  0  0  0  0  0  0  0  0
    1.2686   15.5743   -3.2492 H   0  0  0  0  0  0  0  0  0  0  0  0
  1  2  1  0
  2  3  1  0
  3  4  1  0
  4  5  1  0
  5  6  1  0
  6  7  1  0
  7  8  1  0
  7  9  1  0
  2 10  1  0
 10 11  1  0
 11 12  1  0
 12 13  1  0
 13 14  1  1
 13 15  1  0
 15 16  1  0
 16 17  1  0
 17 18  2  0
 18 19  1  0
 19 20  1  0
 20 21  1  0
 21 22  1  0
 22 23  1  0
 22 24  1  0
 24 25  1  0
 24 26  1  0
 19 27  1  0
 27 28  1  6
 27 29  1  0
 29 30  1  0
 30 31  1  0
 31 32  1  6
  7  5  1  0
 31 10  1  0
 31 13  1  0
 27 15  1  0
 24 18  1  0
  1 33  1  0
  1 34  1  0
  1 35  1  0
  2 36  1  6
  3 37  1  0
  3 38  1  0
  4 39  1  0
  4 40  1  0
  5 41  1  6
  8 42  1  0
  8 43  1  0
  8 44  1  0
  9 45  1  0
  9 46  1  0
  9 47  1  0
 10 48  1  1
 11 49  1  0
 11 50  1  0
 12 51  1  0
 12 52  1  0
 14 53  1  0
 14 54  1  0
 14 55  1  0
 15 56  1  6
 16 57  1  0
 16 58  1  0
 17 59  1  0
 19 60  1  1
 20 61  1  0
 20 62  1  0
 21 63  1  0
 21 64  1  0
 22 65  1  1
 23 66  1  0
 25 67  1  0
 25 68  1  0
 25 69  1  0
 26 70  1  0
 26 71  1  0
 26 72  1  0
 28 73  1  0
 28 74  1  0
 28 75  1  0
 29 76  1  0
 29 77  1  0
 30 78  1  0
 30 79  1  0
 32 80  1  0
 32 81  1  0
 32 82  1  0
M  END
>  <meeko>  (8) 
{"is_sidechain": [false], "intermolecular_energy": 2.731, "internal_energy": -0.839}

$$$$
EPH_relaxed_0001_pdb2pqr_Repair_210_r2_0001_out
     RDKit          3D

 82 86  0  0  0  0  0  0  0  0999 V2000
    0.4080    8.8790   -2.5520 C   0  0  0  0  0  0  0  0  0  0  0  0
    1.1750   10.0400   -3.1920 C   0  0  2  0  0  0  0  0  0  0  0  0
    2.6680   10.0340   -2.8030 C   0  0  0  0  0  0  0  0  0  0  0  0
    3.5860   10.6200   -3.8790 C   0  0  0  0  0  0  0  0  0  0  0  0
    4.9710   10.8550   -3.3580 C   0  0  2  0  0  0  0  0  0  0  0  0
    5.5850   12.0680   -3.8130 O   0  0  0  0  0  0  0  0  0  0  0  0
    6.2090   10.8450   -4.2360 C   0  0  0  0  0  0  0  0  0  0  0  0
    6.1190   10.5930   -5.7080 C   0  0  0  0  0  0  0  0  0  0  0  0
    7.5380   10.5940   -3.5950 C   0  0  0  0  0  0  0  0  0  0  0  0
    0.5390   11.3660   -2.7930 C   0  0  1  0  0  0  0  0  0  0  0  0
   -0.8360   11.1830   -2.0970 C   0  0  0  0  0  0  0  0  0  0  0  0
   -0.9480   12.2990   -1.0270 C   0  0  0  0  0  0  0  0  0  0  0  0
    0.2020   13.2780   -1.3620 C   0  0  1  0  0  0  0  0  0  0  0  0
   -0.3510   14.1620   -2.5240 C   0  0  0  0  0  0  0  0  0  0  0  0
    0.7360   14.1480   -0.1780 C   0  0  2  0  0  0  0  0  0  0  0  0
   -0.2920   15.1120    0.4390 C   0  0  0  0  0  0  0  0  0  0  0  0
   -0.3360   16.4730   -0.1720 C   0  0  0  0  0  0  0  0  0  0  0  0
    0.6040   16.9990   -0.9790 C   0  0  0  0  0  0  0  0  0  0  0  0
    1.9040   16.2400   -1.2740 C   0  0  1  0  0  0  0  0  0  0  0  0
    3.1110   17.2030   -1.1250 C   0  0  0  0  0  0  0  0  0  0  0  0
    2.9640   18.4600   -1.9760 C   0  0  0  0  0  0  0  0  0  0  0  0
    1.6900   19.2190   -1.6130 C   0  0  2  0  0  0  0  0  0  0  0  0
    1.8200   19.7280   -0.2830 O   0  0  0  0  0  0  0  0  0  0  0  0
    0.4080   18.3470   -1.7160 C   0  0  0  0  0  0  0  0  0  0  0  0
    0.1010   18.0460   -3.2040 C   0  0  0  0  0  0  0  0  0  0  0  0
   -0.7860   19.1880   -1.1890 C   0  0  0  0  0  0  0  0  0  0  0  0
    2.1070   14.8790   -0.4780 C   0  0  1  0  0  0  0  0  0  0  0  0
    2.7710   15.1640    0.9030 C   0  0  0  0  0  0  0  0  0  0  0  0
    3.1120   13.9640   -1.2740 C   0  0  0  0  0  0  0  0  0  0  0  0
    2.5080   13.0400   -2.3480 C   0  0  0  0  0  0  0  0  0  0  0  0
    1.3160   12.2550   -1.7910 C   0  0  2  0  0  0  0  0  0  0  0  0
    1.8450   11.3400   -0.6350 C   0  0  0  0  0  0  0  0  0  0  0  0
    0.4633    8.9626   -1.4566 H   0  0  0  0  0  0  0  0  0  0  0  0
   -0.6444    8.9153   -2.8699 H   0  0  0  0  0  0  0  0  0  0  0  0
    0.8543    7.9252   -2.8699 H   0  0  0  0  0  0  0  0  0  0  0  0
    1.1170    9.9132   -4.2831 H   0  0  0  0  0  0  0  0  0  0  0  0
    2.7897   10.6248   -1.8831 H   0  0  0  0  0  0  0  0  0  0  0  0
    2.9611    8.9824   -2.6679 H   0  0  0  0  0  0  0  0  0  0  0  0
    3.6375    9.9182   -4.7245 H   0  0  0  0  0  0  0  0  0  0  0  0
    3.1697   11.5879   -4.1949 H   0  0  0  0  0  0  0  0  0  0  0  0
    4.7293   10.3386   -2.4173 H   0  0  0  0  0  0  0  0  0  0  0  0
    5.7538    9.5703   -5.8833 H   0  0  0  0  0  0  0  0  0  0  0  0
    5.4227   11.3138   -6.1615 H   0  0  0  0  0  0  0  0  0  0  0  0
    7.1144   10.7096   -6.1615 H   0  0  0  0  0  0  0  0  0  0  0  0
    7.4271   10.6149   -2.5008 H   0  0  0  0  0  0  0  0  0  0  0  0
    7.9151    9.6088   -3.9065 H   0  0  0  0  0  0  0  0  0  0  0  0
    8.2485   11.3738   -3.9065 H   0  0  0  0  0  0  0  0  0  0  0  0
    0.4999   11.8550   -3.7776 H   0  0  0  0  0  0  0  0  0  0  0  0
   -1.6485   11.2802   -2.8321 H   0  0  0  0  0  0  0  0  0  0  0  0
   -0.9168   10.1865   -1.6382 H   0  0  0  0  0  0  0  0  0  0  0  0
   -1.9218   12.8060   -1.0952 H   0  0  0  0  0  0  0  0  0  0  0  0
   -0.8744   11.9039   -0.0030 H   0  0  0  0  0  0  0  0  0  0  0  0
   -0.8902   15.0240   -2.1043 H   0  0  0  0  0  0  0  0  0  0  0  0
    0.4852   14.5187   -3.1432 H   0  0  0  0  0  0  0  0  0  0  0  0
   -1.0376   13.5661   -3.1432 H   0  0  0  0  0  0  0  0  0  0  0  0
    0.9394   13.3935    0.5962 H   0  0  0  0  0  0  0  0  0  0  0  0
   -1.2889   14.6593    0.3329 H   0  0  0  0  0  0  0  0  0  0  0  0
    0.0165   15.2576    1.4848 H   0  0  0  0  0  0  0  0  0  0  0  0
   -1.2109   17.0993    0.0566 H   0  0  0  0  0  0  0  0  0  0  0  0
    1.8270   15.8973   -2.3164 H   0  0  0  0  0  0  0  0  0  0  0  0
    3.1972   17.4998   -0.0693 H   0  0  0  0  0  0  0  0  0  0  0  0
    4.0089   16.6692   -1.4697 H   0  0  0  0  0  0  0  0  0  0  0  0
    3.8328   19.1131   -1.8065 H   0  0  0  0  0  0  0  0  0  0  0  0
    2.9064   18.1631   -3.0336 H   0  0  0  0  0  0  0  0  0  0  0  0
    1.5734   20.0355   -2.3408 H   0  0  0  0  0  0  0  0  0  0  0  0
    2.3980   19.1210    0.2100 H   0  0  0  0  0  0  0  0  0  0  0  0
   -0.6831   17.2772   -3.2684 H   0  0  0  0  0  0  0  0  0  0  0  0
   -0.2447   18.9648   -3.7002 H   0  0  0  0  0  0  0  0  0  0  0  0
    1.0128   17.6822   -3.7002 H   0  0  0  0  0  0  0  0  0  0  0  0
   -0.7802   19.1839   -0.0890 H   0  0  0  0  0  0  0  0  0  0  0  0
   -0.6947   20.2222   -1.5523 H   0  0  0  0  0  0  0  0  0  0  0  0
   -1.7291   18.7537   -1.5523 H   0  0  0  0  0  0  0  0  0  0  0  0
    2.0828   14.8686    1.7087 H   0  0  0  0  0  0  0  0  0  0  0  0
    3.7037   14.5869    0.9875 H   0  0  0  0  0  0  0  0  0  0  0  0
    2.9952   16.2376    0.9875 H   0  0  0  0  0  0  0  0  0  0  0  0
    3.8388   14.6226   -1.7721 H   0  0  0  0  0  0  0  0  0  0  0  0
    3.5433   13.2874   -0.5215 H   0  0  0  0  0  0  0  0  0  0  0  0
    2.1707   13.6502   -3.1989 H   0  0  0  0  0  0  0  0  0  0  0  0
    3.2796   12.3244   -2.6682 H   0  0  0  0  0  0  0  0  0  0  0  0
    1.5857   11.7884    0.3354 H   0  0  0  0  0  0  0  0  0  0  0  0
    1.3828   10.3450   -0.7143 H   0  0  0  0  0  0  0  0  0  0  0  0
    2.9379   11.2440   -0.7143 H   0  0  0  0  0  0  0  0  0  0  0  0
  1  2  1  0
  2  3  1  0
  3  4  1  0
  4  5  1  0
  5  6  1  0
  6  7  1  0
  7  8  1  0
  7  9  1  0
  2 10  1  0
 10 11  1  0
 11 12  1  0
 12 13  1  0
 13 14  1  6
 13 15  1  0
 15 16  1  0
 16 17  1  0
 17 18  2  0
 18 19  1  0
 19 20  1  0
 20 21  1  0
 21 22  1  0
 22 23  1  0
 22 24  1  0
 24 25  1  0
 24 26  1  0
 19 27  1  0
 27 28  1  1
 27 29  1  0
 29 30  1  0
 30 31  1  0
 31 32  1  1
  7  5  1  0
 31 10  1  0
 31 13  1  0
 27 15  1  0
 24 18  1  0
  1 33  1  0
  1 34  1  0
  1 35  1  0
  2 36  1  6
  3 37  1  0
  3 38  1  0
  4 39  1  0
  4 40  1  0
  5 41  1  1
  8 42  1  0
  8 43  1  0
  8 44  1  0
  9 45  1  0
  9 46  1  0
  9 47  1  0
 10 48  1  6
 11 49  1  0
 11 50  1  0
 12 51  1  0
 12 52  1  0
 14 53  1  0
 14 54  1  0
 14 55  1  0
 15 56  1  1
 16 57  1  0
 16 58  1  0
 17 59  1  0
 19 60  1  6
 20 61  1  0
 20 62  1  0
 21 63  1  0
 21 64  1  0
 22 65  1  6
 23 66  1  0
 25 67  1  0
 25 68  1  0
 25 69  1  0
 26 70  1  0
 26 71  1  0
 26 72  1  0
 28 73  1  0
 28 74  1  0
 28 75  1  0
 29 76  1  0
 29 77  1  0
 30 78  1  0
 30 79  1  0
 32 80  1  0
 32 81  1  0
 32 82  1  0
M  END
>  <meeko>  (9) 
{"is_sidechain": [false], "intermolecular_energy": 2.731, "internal_energy": -0.839}

$$$$
EPH_relaxed_0001_pdb2pqr_Repair_210_r2_0001_out
     RDKit          3D

 82 86  0  0  0  0  0  0  0  0999 V2000
    0.0750   10.3770   -3.4490 C   0  0  0  0  0  0  0  0  0  0  0  0
    0.9650   10.1440   -2.2250 C   0  0  2  0  0  0  0  0  0  0  0  0
    0.4570    8.9810   -1.3490 C   0  0  0  0  0  0  0  0  0  0  0  0
   -0.7580    8.2560   -1.9350 C   0  0  0  0  0  0  0  0  0  0  0  0
   -1.9110    8.2430   -0.9770 C   0  0  2  0  0  0  0  0  0  0  0  0
   -3.1680    8.6300   -1.5470 O   0  0  0  0  0  0  0  0  0  0  0  0
   -2.6400    9.4960   -0.5290 C   0  0  0  0  0  0  0  0  0  0  0  0
   -2.2430   10.8500   -1.0270 C   0  0  0  0  0  0  0  0  0  0  0  0
   -3.4100    9.4550    0.7550 C   0  0  0  0  0  0  0  0  0  0  0  0
    1.0520   11.4210   -1.3960 C   0  0  1  0  0  0  0  0  0  0  0  0
    2.1210   11.3320   -0.2740 C   0  0  0  0  0  0  0  0  0  0  0  0
    2.7370   12.7470   -0.1310 C   0  0  0  0  0  0  0  0  0  0  0  0
    1.7870   13.6700   -0.9290 C   0  0  1  0  0  0  0  0  0  0  0  0
    0.5960   13.9530    0.0390 C   0  0  0  0  0  0  0  0  0  0  0  0
    2.4100   14.9930   -1.4810 C   0  0  2  0  0  0  0  0  0  0  0  0
    2.9240   15.9690   -0.4090 C   0  0  0  0  0  0  0  0  0  0  0  0
    1.9270   16.9700    0.0730 C   0  0  0  0  0  0  0  0  0  0  0  0
    0.7630   17.2690   -0.5330 C   0  0  0  0  0  0  0  0  0  0  0  0
    0.3940   16.6410   -1.8830 C   0  0  1  0  0  0  0  0  0  0  0  0
   -0.1320   17.7430   -2.8400 C   0  0  0  0  0  0  0  0  0  0  0  0
   -1.2820   18.5430   -2.2350 C   0  0  0  0  0  0  0  0  0  0  0  0
   -0.8590   19.1990   -0.9230 C   0  0  2  0  0  0  0  0  0  0  0  0
    0.1300   20.1940   -1.2040 O   0  0  0  0  0  0  0  0  0  0  0  0
   -0.3020   18.1870    0.1160 C   0  0  0  0  0  0  0  0  0  0  0  0
   -1.4530   17.2970    0.6460 C   0  0  0  0  0  0  0  0  0  0  0  0
    0.2190   18.9940    1.3360 C   0  0  0  0  0  0  0  0  0  0  0  0
    1.5130   15.7340   -2.5550 C   0  0  1  0  0  0  0  0  0  0  0  0
    2.4750   16.6170   -3.4060 C   0  0  0  0  0  0  0  0  0  0  0  0
    0.8280   14.7310   -3.5570 C   0  0  0  0  0  0  0  0  0  0  0  0
    0.3410   13.3900   -2.9740 C   0  0  0  0  0  0  0  0  0  0  0  0
    1.4380   12.7250   -2.1370 C   0  0  2  0  0  0  0  0  0  0  0  0
    2.6400   12.4080   -3.0900 C   0  0  0  0  0  0  0  0  0  0  0  0
   -0.9401   10.6428   -3.1190 H   0  0  0  0  0  0  0  0  0  0  0  0
    0.4903   11.1967   -4.0537 H   0  0  0  0  0  0  0  0  0  0  0  0
    0.0354    9.4590   -4.0537 H   0  0  0  0  0  0  0  0  0  0  0  0
    1.9650    9.8682   -2.5909 H   0  0  0  0  0  0  0  0  0  0  0  0
    1.2728    8.2526   -1.2311 H   0  0  0  0  0  0  0  0  0  0  0  0
    0.1409    9.4151   -0.3890 H   0  0  0  0  0  0  0  0  0  0  0  0
   -1.0674    8.7677   -2.8583 H   0  0  0  0  0  0  0  0  0  0  0  0
   -0.4701    7.2142   -2.1393 H   0  0  0  0  0  0  0  0  0  0  0  0
   -1.4661    7.4077   -0.4163 H   0  0  0  0  0  0  0  0  0  0  0  0
   -2.0486   11.5130   -0.1711 H   0  0  0  0  0  0  0  0  0  0  0  0
   -1.3324   10.7635   -1.6380 H   0  0  0  0  0  0  0  0  0  0  0  0
   -3.0561   11.2689   -1.6380 H   0  0  0  0  0  0  0  0  0  0  0  0
   -2.7107    9.4922    1.6033 H   0  0  0  0  0  0  0  0  0  0  0  0
   -4.0902   10.3182    0.8024 H   0  0  0  0  0  0  0  0  0  0  0  0
   -3.9947    8.5245    0.8024 H   0  0  0  0  0  0  0  0  0  0  0  0
    0.0121   11.4833   -1.0427 H   0  0  0  0  0  0  0  0  0  0  0  0
    1.6521   11.0254    0.6727 H   0  0  0  0  0  0  0  0  0  0  0  0
    2.8927   10.5882   -0.5214 H   0  0  0  0  0  0  0  0  0  0  0  0
    2.7742   13.0490    0.9261 H   0  0  0  0  0  0  0  0  0  0  0  0
    3.7710   12.7909   -0.5038 H   0  0  0  0  0  0  0  0  0  0  0  0
    0.9420   13.8708    1.0799 H   0  0  0  0  0  0  0  0  0  0  0  0
    0.2109   14.9677   -0.1403 H   0  0  0  0  0  0  0  0  0  0  0  0
   -0.2044   13.2200   -0.1403 H   0  0  0  0  0  0  0  0  0  0  0  0
    3.3046   14.6299   -2.0082 H   0  0  0  0  0  0  0  0  0  0  0  0
    3.2579   15.3780    0.4566 H   0  0  0  0  0  0  0  0  0  0  0  0
    3.7296   16.5471   -0.8852 H   0  0  0  0  0  0  0  0  0  0  0  0
    2.1637   17.5090    1.0022 H   0  0  0  0  0  0  0  0  0  0  0  0
   -0.4058   15.9158   -1.6723 H   0  0  0  0  0  0  0  0  0  0  0  0
    0.6934   18.4322   -3.0718 H   0  0  0  0  0  0  0  0  0  0  0  0
   -0.5108   17.2461   -3.7454 H   0  0  0  0  0  0  0  0  0  0  0  0
   -1.5899   19.3244   -2.9454 H   0  0  0  0  0  0  0  0  0  0  0  0
   -2.1178   17.8575   -2.0314 H   0  0  0  0  0  0  0  0  0  0  0  0
   -1.7571   19.6473   -0.4731 H   0  0  0  0  0  0  0  0  0  0  0  0
    0.1900   20.7770   -0.4280 H   0  0  0  0  0  0  0  0  0  0  0  0
   -1.4447   17.3034    1.7460 H   0  0  0  0  0  0  0  0  0  0  0  0
   -2.4153   17.6882    0.2843 H   0  0  0  0  0  0  0  0  0  0  0  0
   -1.3166   16.2672    0.2843 H   0  0  0  0  0  0  0  0  0  0  0  0
   -0.0999   18.5000    2.2656 H   0  0  0  0  0  0  0  0  0  0  0  0
    1.3176   19.0397    1.3033 H   0  0  0  0  0  0  0  0  0  0  0  0
   -0.1915   20.0140    1.3033 H   0  0  0  0  0  0  0  0  0  0  0  0
    3.1185   17.2076   -2.7373 H   0  0  0  0  0  0  0  0  0  0  0  0
    3.1001   15.9716   -4.0406 H   0  0  0  0  0  0  0  0  0  0  0  0
    1.8854   17.2949   -4.0406 H   0  0  0  0  0  0  0  0  0  0  0  0
   -0.0438   15.2402   -3.9936 H   0  0  0  0  0  0  0  0  0  0  0  0
    1.6142   14.4627   -4.2781 H   0  0  0  0  0  0  0  0  0  0  0  0
   -0.5370   13.5723   -2.3369 H   0  0  0  0  0  0  0  0  0  0  0  0
    0.0803   12.7198   -3.8064 H   0  0  0  0  0  0  0  0  0  0  0  0
    3.5315   12.1729   -2.4900 H   0  0  0  0  0  0  0  0  0  0  0  0
    2.3873   11.5458   -3.7246 H   0  0  0  0  0  0  0  0  0  0  0  0
    2.8453   13.2827   -3.7246 H   0  0  0  0  0  0  0  0  0  0  0  0
  1  2  1  0
  2  3  1  0
  3  4  1  0
  4  5  1  0
  5  6  1  0
  6  7  1  0
  7  8  1  0
  7  9  1  0
  2 10  1  0
 10 11  1  0
 11 12  1  0
 12 13  1  0
 13 14  1  1
 13 15  1  0
 15 16  1  0
 16 17  1  0
 17 18  2  0
 18 19  1  0
 19 20  1  0
 20 21  1  0
 21 22  1  0
 22 23  1  0
 22 24  1  0
 24 25  1  0
 24 26  1  0
 19 27  1  0
 27 28  1  6
 27 29  1  0
 29 30  1  0
 30 31  1  0
 31 32  1  6
  7  5  1  0
 31 10  1  0
 31 13  1  0
 27 15  1  0
 24 18  1  0
  1 33  1  0
  1 34  1  0
  1 35  1  0
  2 36  1  6
  3 37  1  0
  3 38  1  0
  4 39  1  0
  4 40  1  0
  5 41  1  1
  8 42  1  0
  8 43  1  0
  8 44  1  0
  9 45  1  0
  9 46  1  0
  9 47  1  0
 10 48  1  1
 11 49  1  0
 11 50  1  0
 12 51  1  0
 12 52  1  0
 14 53  1  0
 14 54  1  0
 14 55  1  0
 15 56  1  6
 16 57  1  0
 16 58  1  0
 17 59  1  0
 19 60  1  1
 20 61  1  0
 20 62  1  0
 21 63  1  0
 21 64  1  0
 22 65  1  1
 23 66  1  0
 25 67  1  0
 25 68  1  0
 25 69  1  0
 26 70  1  0
 26 71  1  0
 26 72  1  0
 28 73  1  0
 28 74  1  0
 28 75  1  0
 29 76  1  0
 29 77  1  0
 30 78  1  0
 30 79  1  0
 32 80  1  0
 32 81  1  0
 32 82  1  0
M  END
>  <meeko>  (10) 
{"is_sidechain": [false], "intermolecular_energy": 2.731, "internal_energy": -0.839}

$$$$
EPH_relaxed_0001_pdb2pqr_Repair_210_r2_0001_out
     RDKit          3D

 82 86  0  0  0  0  0  0  0  0999 V2000
   -0.8790   16.3610   -5.8450 C   0  0  0  0  0  0  0  0  0  0  0  0
    0.2110   15.6620   -6.6630 C   0  0  2  0  0  0  0  0  0  0  0  0
   -0.1970   15.4850   -8.1400 C   0  0  0  0  0  0  0  0  0  0  0  0
    0.4510   16.5030   -9.0830 C   0  0  0  0  0  0  0  0  0  0  0  0
    1.8550   16.1170   -9.4350 C   0  0  2  0  0  0  0  0  0  0  0  0
    2.3380   16.6730  -10.6650 O   0  0  0  0  0  0  0  0  0  0  0  0
    2.2100   15.2430  -10.6230 C   0  0  0  0  0  0  0  0  0  0  0  0
    1.1540   14.6990  -11.5350 C   0  0  0  0  0  0  0  0  0  0  0  0
    3.5210   14.5200  -10.6140 C   0  0  0  0  0  0  0  0  0  0  0  0
    0.5350   14.3070   -6.0460 C   0  0  1  0  0  0  0  0  0  0  0  0
    1.7910   13.6490   -6.6770 C   0  0  0  0  0  0  0  0  0  0  0  0
    2.5120   12.8790   -5.5400 C   0  0  0  0  0  0  0  0  0  0  0  0
    1.4850   12.8410   -4.3830 C   0  0  1  0  0  0  0  0  0  0  0  0
    0.5220   11.6650   -4.7400 C   0  0  0  0  0  0  0  0  0  0  0  0
    2.0720   12.6890   -2.9430 C   0  0  2  0  0  0  0  0  0  0  0  0
    2.8430   11.3820   -2.6870 C   0  0  0  0  0  0  0  0  0  0  0  0
    2.0220   10.2490   -2.1680 C   0  0  0  0  0  0  0  0  0  0  0  0
    0.7840   10.3530   -1.6490 C   0  0  0  0  0  0  0  0  0  0  0  0
    0.1240   11.7240   -1.4540 C   0  0  1  0  0  0  0  0  0  0  0  0
   -0.5060   11.7990   -0.0390 C   0  0  0  0  0  0  0  0  0  0  0  0
   -1.4650   10.6460    0.2370 C   0  0  0  0  0  0  0  0  0  0  0  0
   -0.7580    9.3010    0.0900 C   0  0  2  0  0  0  0  0  0  0  0  0
    0.2190    9.1780    1.1280 O   0  0  0  0  0  0  0  0  0  0  0  0
   -0.0760    9.1150   -1.2940 C   0  0  0  0  0  0  0  0  0  0  0  0
   -1.1590    8.9460   -2.3890 C   0  0  0  0  0  0  0  0  0  0  0  0
    0.7180    7.7820   -1.2600 C   0  0  0  0  0  0  0  0  0  0  0  0
    1.0350   12.9840   -1.7850 C   0  0  1  0  0  0  0  0  0  0  0  0
    1.8690   13.3820   -0.5290 C   0  0  0  0  0  0  0  0  0  0  0  0
    0.1090   14.2160   -2.1110 C   0  0  0  0  0  0  0  0  0  0  0  0
   -0.3410   14.3780   -3.5760 C   0  0  0  0  0  0  0  0  0  0  0  0
    0.8520   14.2730   -4.5300 C   0  0  2  0  0  0  0  0  0  0  0  0
    1.8280   15.4560   -4.2100 C   0  0  0  0  0  0  0  0  0  0  0  0
   -0.6737   16.2293   -4.7724 H   0  0  0  0  0  0  0  0  0  0  0  0
   -0.8882   17.4339   -6.0876 H   0  0  0  0  0  0  0  0  0  0  0  0
   -1.8579   15.9218   -6.0876 H   0  0  0  0  0  0  0  0  0  0  0  0
    1.1047   16.3030   -6.6413 H   0  0  0  0  0  0  0  0  0  0  0  0
    0.0973   14.4756   -8.4632 H   0  0  0  0  0  0  0  0  0  0  0  0
   -1.2843   15.6423   -8.1946 H   0  0  0  0  0  0  0  0  0  0  0  0
   -0.1442   16.5631  -10.0061 H   0  0  0  0  0  0  0  0  0  0  0  0
    0.4813   17.4753   -8.5694 H   0  0  0  0  0  0  0  0  0  0  0  0
    2.1320   16.0646   -8.3717 H   0  0  0  0  0  0  0  0  0  0  0  0
    0.3340   14.2766  -10.9357 H   0  0  0  0  0  0  0  0  0  0  0  0
    0.7649   15.5089  -12.1696 H   0  0  0  0  0  0  0  0  0  0  0  0
    1.5875   13.9120  -12.1696 H   0  0  0  0  0  0  0  0  0  0  0  0
    3.8366   14.3459   -9.5747 H   0  0  0  0  0  0  0  0  0  0  0  0
    3.4111   13.5550  -11.1303 H   0  0  0  0  0  0  0  0  0  0  0  0
    4.2785   15.1279  -11.1303 H   0  0  0  0  0  0  0  0  0  0  0  0
   -0.4119   13.7831   -6.2434 H   0  0  0  0  0  0  0  0  0  0  0  0
    1.4935   12.9538   -7.4758 H   0  0  0  0  0  0  0  0  0  0  0  0
    2.4525   14.4070   -7.1218 H   0  0  0  0  0  0  0  0  0  0  0  0
    2.7701   11.8600   -5.8639 H   0  0  0  0  0  0  0  0  0  0  0  0
    3.4564   13.3592   -5.2443 H   0  0  0  0  0  0  0  0  0  0  0  0
    0.1456   11.2054   -3.8142 H   0  0  0  0  0  0  0  0  0  0  0  0
   -0.3239   12.0496   -5.3286 H   0  0  0  0  0  0  0  0  0  0  0  0
    1.0659   10.9115   -5.3286 H   0  0  0  0  0  0  0  0  0  0  0  0
    2.8239   13.4912   -2.9098 H   0  0  0  0  0  0  0  0  0  0  0  0
    3.2987   11.0646   -3.6365 H   0  0  0  0  0  0  0  0  0  0  0  0
    3.5775   11.6109   -1.9008 H   0  0  0  0  0  0  0  0  0  0  0  0
    2.4659    9.2436   -2.2133 H   0  0  0  0  0  0  0  0  0  0  0  0
   -0.6653   11.7937   -2.2170 H   0  0  0  0  0  0  0  0  0  0  0  0
    0.3011   11.7726    0.7080 H   0  0  0  0  0  0  0  0  0  0  0  0
   -1.0827   12.7338    0.0202 H   0  0  0  0  0  0  0  0  0  0  0  0
   -1.8534   10.7384    1.2620 H   0  0  0  0  0  0  0  0  0  0  0  0
   -2.2877   10.6916   -0.4917 H   0  0  0  0  0  0  0  0  0  0  0  0
   -1.5239    8.5155    0.1700 H   0  0  0  0  0  0  0  0  0  0  0  0
    0.7890    9.9650    1.0890 H   0  0  0  0  0  0  0  0  0  0  0  0
   -2.1395    8.7930   -1.9144 H   0  0  0  0  0  0  0  0  0  0  0  0
   -1.1917    9.8499   -3.0150 H   0  0  0  0  0  0  0  0  0  0  0  0
   -0.9147    8.0751   -3.0150 H   0  0  0  0  0  0  0  0  0  0  0  0
    0.8940    7.4866   -0.2151 H   0  0  0  0  0  0  0  0  0  0  0  0
    0.1398    6.9977   -1.7704 H   0  0  0  0  0  0  0  0  0  0  0  0
    1.6830    7.9169   -1.7704 H   0  0  0  0  0  0  0  0  0  0  0  0
    1.3112   13.1158    0.3809 H   0  0  0  0  0  0  0  0  0  0  0  0
    2.8289   12.8449   -0.5410 H   0  0  0  0  0  0  0  0  0  0  0  0
    2.0552   14.4661   -0.5410 H   0  0  0  0  0  0  0  0  0  0  0  0
   -0.7963   14.1247   -1.4929 H   0  0  0  0  0  0  0  0  0  0  0  0
    0.7242   15.1028   -1.8989 H   0  0  0  0  0  0  0  0  0  0  0  0
   -1.0668   13.5880   -3.8190 H   0  0  0  0  0  0  0  0  0  0  0  0
   -0.7990   15.3711   -3.6947 H   0  0  0  0  0  0  0  0  0  0  0  0
    1.9216   15.5695   -3.1199 H   0  0  0  0  0  0  0  0  0  0  0  0
    2.8166   15.2430   -4.6427 H   0  0  0  0  0  0  0  0  0  0  0  0
    1.4310   16.3861   -4.6427 H   0  0  0  0  0  0  0  0  0  0  0  0
  1  2  1  0
  2  3  1  0
  3  4  1  0
  4  5  1  0
  5  6  1  0
  6  7  1  0
  7  8  1  0
  7  9  1  0
  2 10  1  0
 10 11  1  0
 11 12  1  0
 12 13  1  0
 13 14  1  6
 13 15  1  0
 15 16  1  0
 16 17  1  0
 17 18  2  0
 18 19  1  0
 19 20  1  0
 20 21  1  0
 21 22  1  0
 22 23  1  0
 22 24  1  0
 24 25  1  0
 24 26  1  0
 19 27  1  0
 27 28  1  1
 27 29  1  0
 29 30  1  0
 30 31  1  0
 31 32  1  1
  7  5  1  0
 31 10  1  0
 31 13  1  0
 27 15  1  0
 24 18  1  0
  1 33  1  0
  1 34  1  0
  1 35  1  0
  2 36  1  6
  3 37  1  0
  3 38  1  0
  4 39  1  0
  4 40  1  0
  5 41  1  1
  8 42  1  0
  8 43  1  0
  8 44  1  0
  9 45  1  0
  9 46  1  0
  9 47  1  0
 10 48  1  1
 11 49  1  0
 11 50  1  0
 12 51  1  0
 12 52  1  0
 14 53  1  0
 14 54  1  0
 14 55  1  0
 15 56  1  6
 16 57  1  0
 16 58  1  0
 17 59  1  0
 19 60  1  6
 20 61  1  0
 20 62  1  0
 21 63  1  0
 21 64  1  0
 22 65  1  1
 23 66  1  0
 25 67  1  0
 25 68  1  0
 25 69  1  0
 26 70  1  0
 26 71  1  0
 26 72  1  0
 28 73  1  0
 28 74  1  0
 28 75  1  0
 29 76  1  0
 29 77  1  0
 30 78  1  0
 30 79  1  0
 32 80  1  0
 32 81  1  0
 32 82  1  0
M  END
>  <meeko>  (11) 
{"is_sidechain": [false], "intermolecular_energy": 2.731, "internal_energy": -0.839}

$$$$
EPH_relaxed_0001_pdb2pqr_Repair_210_r2_0001_out
     RDKit          3D

 82 86  0  0  0  0  0  0  0  0999 V2000
   -3.7290    7.2020   -3.4160 C   0  0  0  0  0  0  0  0  0  0  0  0
   -3.7580    7.2790   -1.8870 C   0  0  2  0  0  0  0  0  0  0  0  0
   -5.1760    7.0600   -1.3210 C   0  0  0  0  0  0  0  0  0  0  0  0
   -6.2900    7.3010   -2.3430 C   0  0  0  0  0  0  0  0  0  0  0  0
   -7.6180    7.5030   -1.6770 C   0  0  2  0  0  0  0  0  0  0  0  0
   -8.1920    6.3150   -1.1160 O   0  0  0  0  0  0  0  0  0  0  0  0
   -8.9150    6.9160   -2.2030 C   0  0  0  0  0  0  0  0  0  0  0  0
   -8.9470    6.0830   -3.4460 C   0  0  0  0  0  0  0  0  0  0  0  0
  -10.2060    7.5510   -1.7910 C   0  0  0  0  0  0  0  0  0  0  0  0
   -3.2150    8.6260   -1.4240 C   0  0  1  0  0  0  0  0  0  0  0  0
   -3.8280    9.0850   -0.0740 C   0  0  0  0  0  0  0  0  0  0  0  0
   -2.7110    9.8410    0.6900 C   0  0  0  0  0  0  0  0  0  0  0  0
   -1.6080   10.0800   -0.3680 C   0  0  1  0  0  0  0  0  0  0  0  0
   -2.0840   11.3340   -1.1660 C   0  0  0  0  0  0  0  0  0  0  0  0
   -0.1540   10.2610    0.1780 C   0  0  2  0  0  0  0  0  0  0  0  0
    0.0530   11.4820    1.0920 C   0  0  0  0  0  0  0  0  0  0  0  0
    0.4590   12.7380    0.3950 C   0  0  0  0  0  0  0  0  0  0  0  0
    0.9260   12.8180   -0.8650 C   0  0  0  0  0  0  0  0  0  0  0  0
    1.1780   11.5510   -1.6930 C   0  0  1  0  0  0  0  0  0  0  0  0
    2.5650   11.6490   -2.3810 C   0  0  0  0  0  0  0  0  0  0  0  0
    2.7210   12.9250   -3.2040 C   0  0  0  0  0  0  0  0  0  0  0  0
    2.5210   14.1630   -2.3340 C   0  0  2  0  0  0  0  0  0  0  0  0
    3.5930   14.2400   -1.3890 O   0  0  0  0  0  0  0  0  0  0  0  0
    1.1600   14.1700   -1.5820 C   0  0  0  0  0  0  0  0  0  0  0  0
    0.0080   14.3900   -2.5940 C   0  0  0  0  0  0  0  0  0  0  0  0
    1.1450   15.3990   -0.6340 C   0  0  0  0  0  0  0  0  0  0  0  0
    0.9710   10.1720   -0.9310 C   0  0  1  0  0  0  0  0  0  0  0  0
    2.2870    9.7660   -0.1990 C   0  0  0  0  0  0  0  0  0  0  0  0
    0.6820    9.0390   -1.9860 C   0  0  0  0  0  0  0  0  0  0  0  0
   -0.7880    8.8300   -2.3960 C   0  0  0  0  0  0  0  0  0  0  0  0
   -1.6910    8.7270   -1.1630 C   0  0  2  0  0  0  0  0  0  0  0  0
   -1.2510    7.4610   -0.3520 C   0  0  0  0  0  0  0  0  0  0  0  0
   -3.3571    6.2144   -3.7264 H   0  0  0  0  0  0  0  0  0  0  0  0
   -4.7451    7.3516   -3.8100 H   0  0  0  0  0  0  0  0  0  0  0  0
   -3.0640    7.9847   -3.8100 H   0  0  0  0  0  0  0  0  0  0  0  0
   -3.1205    6.4690   -1.5029 H   0  0  0  0  0  0  0  0  0  0  0  0
   -5.2510    6.0224   -0.9637 H   0  0  0  0  0  0  0  0  0  0  0  0
   -5.3166    7.7931   -0.5130 H   0  0  0  0  0  0  0  0  0  0  0  0
   -6.0461    8.1977   -2.9316 H   0  0  0  0  0  0  0  0  0  0  0  0
   -6.3613    6.4134   -2.9889 H   0  0  0  0  0  0  0  0  0  0  0  0
   -7.3390    8.5233   -1.3751 H   0  0  0  0  0  0  0  0  0  0  0  0
   -8.9879    5.0182   -3.1729 H   0  0  0  0  0  0  0  0  0  0  0  0
   -9.8358    6.3437   -4.0393 H   0  0  0  0  0  0  0  0  0  0  0  0
   -8.0408    6.2748   -4.0393 H   0  0  0  0  0  0  0  0  0  0  0  0
  -10.2661    7.5806   -0.6930 H   0  0  0  0  0  0  0  0  0  0  0  0
  -10.2540    8.5755   -2.1886 H   0  0  0  0  0  0  0  0  0  0  0  0
  -11.0468    6.9637   -2.1886 H   0  0  0  0  0  0  0  0  0  0  0  0
   -3.4896    9.2436   -2.2918 H   0  0  0  0  0  0  0  0  0  0  0  0
   -4.6830    9.7533   -0.2539 H   0  0  0  0  0  0  0  0  0  0  0  0
   -4.1919    8.2250    0.5074 H   0  0  0  0  0  0  0  0  0  0  0  0
   -3.0873   10.7976    1.0816 H   0  0  0  0  0  0  0  0  0  0  0  0
   -2.3415    9.2742    1.5573 H   0  0  0  0  0  0  0  0  0  0  0  0
   -2.3840   12.1243   -0.4622 H   0  0  0  0  0  0  0  0  0  0  0  0
   -1.2621   11.6995   -1.7991 H   0  0  0  0  0  0  0  0  0  0  0  0
   -2.9414   11.0620   -1.7991 H   0  0  0  0  0  0  0  0  0  0  0  0
   -0.0343    9.3797    0.8253 H   0  0  0  0  0  0  0  0  0  0  0  0
   -0.8927   11.6762    1.6193 H   0  0  0  0  0  0  0  0  0  0  0  0
    0.8857   11.2229    1.7624 H   0  0  0  0  0  0  0  0  0  0  0  0
    0.3689   13.6781    0.9589 H   0  0  0  0  0  0  0  0  0  0  0  0
    0.3848   11.5231   -2.4546 H   0  0  0  0  0  0  0  0  0  0  0  0
    3.3452   11.6318   -1.6058 H   0  0  0  0  0  0  0  0  0  0  0  0
    2.6581   10.7950   -3.0680 H   0  0  0  0  0  0  0  0  0  0  0  0
    3.7304   12.9508   -3.6403 H   0  0  0  0  0  0  0  0  0  0  0  0
    1.9590   12.9265   -3.9973 H   0  0  0  0  0  0  0  0  0  0  0  0
    2.5154   15.0378   -3.0009 H   0  0  0  0  0  0  0  0  0  0  0  0
    3.7000   13.3590   -0.9930 H   0  0  0  0  0  0  0  0  0  0  0  0
   -0.9302   14.5692   -2.0483 H   0  0  0  0  0  0  0  0  0  0  0  0
    0.2365   15.2607   -3.2261 H   0  0  0  0  0  0  0  0  0  0  0  0
   -0.1004   13.4963   -3.2261 H   0  0  0  0  0  0  0  0  0  0  0  0
    1.1492   15.0560    0.4111 H   0  0  0  0  0  0  0  0  0  0  0  0
    2.0357   16.0170   -0.8207 H   0  0  0  0  0  0  0  0  0  0  0  0
    0.2395   15.9950   -0.8207 H   0  0  0  0  0  0  0  0  0  0  0  0
    2.1313    9.8140    0.8889 H   0  0  0  0  0  0  0  0  0  0  0  0
    2.5642    8.7406   -0.4848 H   0  0  0  0  0  0  0  0  0  0  0  0
    3.0937   10.4570   -0.4848 H   0  0  0  0  0  0  0  0  0  0  0  0
    1.2504    9.2794   -2.8965 H   0  0  0  0  0  0  0  0  0  0  0  0
    0.9786    8.1025   -1.4910 H   0  0  0  0  0  0  0  0  0  0  0  0
   -1.1146    9.6813   -3.0113 H   0  0  0  0  0  0  0  0  0  0  0  0
   -0.8636    7.8921   -2.9658 H   0  0  0  0  0  0  0  0  0  0  0  0
   -1.3243    7.6718    0.7251 H   0  0  0  0  0  0  0  0  0  0  0  0
   -1.9083    6.6163   -0.6058 H   0  0  0  0  0  0  0  0  0  0  0  0
   -0.2115    7.2060   -0.6058 H   0  0  0  0  0  0  0  0  0  0  0  0
  1  2  1  0
  2  3  1  0
  3  4  1  0
  4  5  1  0
  5  6  1  0
  6  7  1  0
  7  8  1  0
  7  9  1  0
  2 10  1  0
 10 11  1  0
 11 12  1  0
 12 13  1  0
 13 14  1  6
 13 15  1  0
 15 16  1  0
 16 17  1  0
 17 18  2  0
 18 19  1  0
 19 20  1  0
 20 21  1  0
 21 22  1  0
 22 23  1  0
 22 24  1  0
 24 25  1  0
 24 26  1  0
 19 27  1  0
 27 28  1  1
 27 29  1  0
 29 30  1  0
 30 31  1  0
 31 32  1  1
  7  5  1  0
 31 10  1  0
 31 13  1  0
 27 15  1  0
 24 18  1  0
  1 33  1  0
  1 34  1  0
  1 35  1  0
  2 36  1  1
  3 37  1  0
  3 38  1  0
  4 39  1  0
  4 40  1  0
  5 41  1  1
  8 42  1  0
  8 43  1  0
  8 44  1  0
  9 45  1  0
  9 46  1  0
  9 47  1  0
 10 48  1  6
 11 49  1  0
 11 50  1  0
 12 51  1  0
 12 52  1  0
 14 53  1  0
 14 54  1  0
 14 55  1  0
 15 56  1  1
 16 57  1  0
 16 58  1  0
 17 59  1  0
 19 60  1  6
 20 61  1  0
 20 62  1  0
 21 63  1  0
 21 64  1  0
 22 65  1  6
 23 66  1  0
 25 67  1  0
 25 68  1  0
 25 69  1  0
 26 70  1  0
 26 71  1  0
 26 72  1  0
 28 73  1  0
 28 74  1  0
 28 75  1  0
 29 76  1  0
 29 77  1  0
 30 78  1  0
 30 79  1  0
 32 80  1  0
 32 81  1  0
 32 82  1  0
M  END
>  <meeko>  (12) 
{"is_sidechain": [false], "intermolecular_energy": 2.731, "internal_energy": -0.839}

$$$$
EPH_relaxed_0001_pdb2pqr_Repair_210_r2_0001_out
     RDKit          3D

 82 86  0  0  0  0  0  0  0  0999 V2000
    0.0710    9.3610   -2.4550 C   0  0  0  0  0  0  0  0  0  0  0  0
    1.1420   10.3730   -2.8720 C   0  0  2  0  0  0  0  0  0  0  0  0
    2.5470    9.7410   -2.9310 C   0  0  0  0  0  0  0  0  0  0  0  0
    3.5040   10.4590   -3.8860 C   0  0  0  0  0  0  0  0  0  0  0  0
    4.9000   10.5050   -3.3410 C   0  0  2  0  0  0  0  0  0  0  0  0
    5.5090   11.8020   -3.3630 O   0  0  0  0  0  0  0  0  0  0  0  0
    6.1210   10.8000   -4.1920 C   0  0  0  0  0  0  0  0  0  0  0  0
    6.0030   11.0690   -5.6590 C   0  0  0  0  0  0  0  0  0  0  0  0
    7.4610   10.3490   -3.7010 C   0  0  0  0  0  0  0  0  0  0  0  0
    1.1420   11.5550   -1.9090 C   0  0  1  0  0  0  0  0  0  0  0  0
    2.1950   11.4040   -0.7780 C   0  0  0  0  0  0  0  0  0  0  0  0
    2.7280   12.8270   -0.4710 C   0  0  0  0  0  0  0  0  0  0  0  0
    1.7410   13.7770   -1.1880 C   0  0  1  0  0  0  0  0  0  0  0  0
    0.5190   13.8890   -0.2220 C   0  0  0  0  0  0  0  0  0  0  0  0
    2.2970   15.1840   -1.5800 C   0  0  2  0  0  0  0  0  0  0  0  0
    2.7370   16.0650   -0.3980 C   0  0  0  0  0  0  0  0  0  0  0  0
    1.6770   16.9520    0.1660 C   0  0  0  0  0  0  0  0  0  0  0  0
    0.5090   17.2510   -0.4320 C   0  0  0  0  0  0  0  0  0  0  0  0
    0.1990   16.7540   -1.8500 C   0  0  1  0  0  0  0  0  0  0  0  0
   -0.3720   17.9230   -2.6950 C   0  0  0  0  0  0  0  0  0  0  0  0
   -1.5750   18.5890   -2.0350 C   0  0  0  0  0  0  0  0  0  0  0  0
   -1.2120   19.1220   -0.6510 C   0  0  2  0  0  0  0  0  0  0  0  0
   -0.2760   20.1940   -0.8010 O   0  0  0  0  0  0  0  0  0  0  0  0
   -0.6170   18.0350    0.2870 C   0  0  0  0  0  0  0  0  0  0  0  0
   -1.7260   17.0320    0.6910 C   0  0  0  0  0  0  0  0  0  0  0  0
   -0.1640   18.7320    1.5980 C   0  0  0  0  0  0  0  0  0  0  0  0
    1.3790   15.9870   -2.5880 C   0  0  1  0  0  0  0  0  0  0  0  0
    2.3040   17.0080   -3.3170 C   0  0  0  0  0  0  0  0  0  0  0  0
    0.7690   15.0620   -3.7080 C   0  0  0  0  0  0  0  0  0  0  0  0
    0.3490   13.6420   -3.2840 C   0  0  0  0  0  0  0  0  0  0  0  0
    1.4660   12.9510   -2.4970 C   0  0  2  0  0  0  0  0  0  0  0  0
    2.7010   12.8040   -3.4500 C   0  0  0  0  0  0  0  0  0  0  0  0
    0.0198    9.3126   -1.3573 H   0  0  0  0  0  0  0  0  0  0  0  0
   -0.9049    9.6745   -2.8541 H   0  0  0  0  0  0  0  0  0  0  0  0
    0.3288    8.3689   -2.8541 H   0  0  0  0  0  0  0  0  0  0  0  0
    0.8937   10.7192   -3.8862 H   0  0  0  0  0  0  0  0  0  0  0  0
    2.9814    9.7649   -1.9207 H   0  0  0  0  0  0  0  0  0  0  0  0
    2.4232    8.7158   -3.3099 H   0  0  0  0  0  0  0  0  0  0  0  0
    3.5143    9.9258   -4.8481 H   0  0  0  0  0  0  0  0  0  0  0  0
    3.1508   11.4931   -4.0123 H   0  0  0  0  0  0  0  0  0  0  0  0
    4.6741    9.6965   -2.6302 H   0  0  0  0  0  0  0  0  0  0  0  0
    5.5656   12.0662   -5.8149 H   0  0  0  0  0  0  0  0  0  0  0  0
    7.0008   11.0301   -6.1203 H   0  0  0  0  0  0  0  0  0  0  0  0
    5.3558   10.3085   -6.1203 H   0  0  0  0  0  0  0  0  0  0  0  0
    7.4668   10.3470   -2.6010 H   0  0  0  0  0  0  0  0  0  0  0  0
    7.6640    9.3330   -4.0706 H   0  0  0  0  0  0  0  0  0  0  0  0
    8.2370   11.0355   -4.0706 H   0  0  0  0  0  0  0  0  0  0  0  0
    0.0944   11.5211   -1.5751 H   0  0  0  0  0  0  0  0  0  0  0  0
    1.7278   10.9726    0.1195 H   0  0  0  0  0  0  0  0  0  0  0  0
    3.0115   10.7339   -1.0851 H   0  0  0  0  0  0  0  0  0  0  0  0
    2.7301   13.0153    0.6128 H   0  0  0  0  0  0  0  0  0  0  0  0
    3.7641   12.9669   -0.8129 H   0  0  0  0  0  0  0  0  0  0  0  0
    0.8709   13.8567    0.8197 H   0  0  0  0  0  0  0  0  0  0  0  0
   -0.0053   14.8390   -0.4026 H   0  0  0  0  0  0  0  0  0  0  0  0
   -0.1693   13.0502   -0.4026 H   0  0  0  0  0  0  0  0  0  0  0  0
    3.2194   14.9287   -2.1222 H   0  0  0  0  0  0  0  0  0  0  0  0
    3.0896   15.4029    0.4065 H   0  0  0  0  0  0  0  0  0  0  0  0
    3.5162   16.7345   -0.7912 H   0  0  0  0  0  0  0  0  0  0  0  0
    1.8665   17.3987    1.1532 H   0  0  0  0  0  0  0  0  0  0  0  0
   -0.5626   15.9682   -1.7379 H   0  0  0  0  0  0  0  0  0  0  0  0
    0.4171   18.6770   -2.8324 H   0  0  0  0  0  0  0  0  0  0  0  0
   -0.7067   17.5072   -3.6568 H   0  0  0  0  0  0  0  0  0  0  0  0
   -1.9146   19.4244   -2.6649 H   0  0  0  0  0  0  0  0  0  0  0  0
   -2.3740   17.8410   -1.9249 H   0  0  0  0  0  0  0  0  0  0  0  0
   -2.1415   19.4702   -0.1768 H   0  0  0  0  0  0  0  0  0  0  0  0
   -0.6710   20.9870   -0.4010 H   0  0  0  0  0  0  0  0  0  0  0  0
   -1.7879   16.9760    1.7878 H   0  0  0  0  0  0  0  0  0  0  0  0
   -2.6913   17.3700    0.2860 H   0  0  0  0  0  0  0  0  0  0  0  0
   -1.4864   16.0377    0.2860 H   0  0  0  0  0  0  0  0  0  0  0  0
   -0.5343   18.1622    2.4630 H   0  0  0  0  0  0  0  0  0  0  0  0
    0.9347   18.7744    1.6300 H   0  0  0  0  0  0  0  0  0  0  0  0
   -0.5714   19.7533    1.6300 H   0  0  0  0  0  0  0  0  0  0  0  0
    2.8473   17.6076   -2.5718 H   0  0  0  0  0  0  0  0  0  0  0  0
    3.0244   16.4654   -3.9468 H   0  0  0  0  0  0  0  0  0  0  0  0
    1.6932   17.6715   -3.9468 H   0  0  0  0  0  0  0  0  0  0  0  0
   -0.1226   15.5673   -4.1077 H   0  0  0  0  0  0  0  0  0  0  0  0
    1.5815   14.9166   -4.4351 H   0  0  0  0  0  0  0  0  0  0  0  0
   -0.5493   13.7062   -2.6524 H   0  0  0  0  0  0  0  0  0  0  0  0
    0.1423   13.0528   -4.1896 H   0  0  0  0  0  0  0  0  0  0  0  0
    3.6164   12.6950   -2.8498 H   0  0  0  0  0  0  0  0  0  0  0  0
    2.5707   11.9150   -4.0846 H   0  0  0  0  0  0  0  0  0  0  0  0
    2.7830   13.6987   -4.0846 H   0  0  0  0  0  0  0  0  0  0  0  0
  1  2  1  0
  2  3  1  0
  3  4  1  0
  4  5  1  0
  5  6  1  0
  6  7  1  0
  7  8  1  0
  7  9  1  0
  2 10  1  0
 10 11  1  0
 11 12  1  0
 12 13  1  0
 13 14  1  1
 13 15  1  0
 15 16  1  0
 16 17  1  0
 17 18  2  0
 18 19  1  0
 19 20  1  0
 20 21  1  0
 21 22  1  0
 22 23  1  0
 22 24  1  0
 24 25  1  0
 24 26  1  0
 19 27  1  0
 27 28  1  6
 27 29  1  0
 29 30  1  0
 30 31  1  0
 31 32  1  6
  7  5  1  0
 31 10  1  0
 31 13  1  0
 27 15  1  0
 24 18  1  0
  1 33  1  0
  1 34  1  0
  1 35  1  0
  2 36  1  6
  3 37  1  0
  3 38  1  0
  4 39  1  0
  4 40  1  0
  5 41  1  1
  8 42  1  0
  8 43  1  0
  8 44  1  0
  9 45  1  0
  9 46  1  0
  9 47  1  0
 10 48  1  1
 11 49  1  0
 11 50  1  0
 12 51  1  0
 12 52  1  0
 14 53  1  0
 14 54  1  0
 14 55  1  0
 15 56  1  6
 16 57  1  0
 16 58  1  0
 17 59  1  0
 19 60  1  1
 20 61  1  0
 20 62  1  0
 21 63  1  0
 21 64  1  0
 22 65  1  1
 23 66  1  0
 25 67  1  0
 25 68  1  0
 25 69  1  0
 26 70  1  0
 26 71  1  0
 26 72  1  0
 28 73  1  0
 28 74  1  0
 28 75  1  0
 29 76  1  0
 29 77  1  0
 30 78  1  0
 30 79  1  0
 32 80  1  0
 32 81  1  0
 32 82  1  0
M  END
>  <meeko>  (13) 
{"is_sidechain": [false], "intermolecular_energy": 2.731, "internal_energy": -0.839}

$$$$
EPH_relaxed_0001_pdb2pqr_Repair_210_r2_0001_out
     RDKit          3D

 82 86  0  0  0  0  0  0  0  0999 V2000
   -2.2920    7.8430   -2.1800 C   0  0  0  0  0  0  0  0  0  0  0  0
   -2.2210    8.4390   -0.7720 C   0  0  2  0  0  0  0  0  0  0  0  0
   -3.5890    8.4140   -0.0600 C   0  0  0  0  0  0  0  0  0  0  0  0
   -4.7820    8.4770   -1.0180 C   0  0  0  0  0  0  0  0  0  0  0  0
   -5.6030    7.2240   -0.9630 C   0  0  2  0  0  0  0  0  0  0  0  0
   -5.6580    6.4900   -2.1930 O   0  0  0  0  0  0  0  0  0  0  0  0
   -6.9000    7.0410   -1.7280 C   0  0  0  0  0  0  0  0  0  0  0  0
   -7.4510    8.1240   -2.6020 C   0  0  0  0  0  0  0  0  0  0  0  0
   -7.8740    6.0100   -1.2480 C   0  0  0  0  0  0  0  0  0  0  0  0
   -1.6950    9.8680   -0.8380 C   0  0  1  0  0  0  0  0  0  0  0  0
   -1.2600   10.4100    0.5500 C   0  0  0  0  0  0  0  0  0  0  0  0
   -0.0390   11.3330    0.3080 C   0  0  0  0  0  0  0  0  0  0  0  0
   -0.0160   11.5560   -1.2230 C   0  0  1  0  0  0  0  0  0  0  0  0
   -1.0720   12.6750   -1.4810 C   0  0  0  0  0  0  0  0  0  0  0  0
    1.3710   11.9150   -1.8480 C   0  0  2  0  0  0  0  0  0  0  0  0
    1.9860   13.2370   -1.3550 C   0  0  0  0  0  0  0  0  0  0  0  0
    1.6270   14.4450   -2.1560 C   0  0  0  0  0  0  0  0  0  0  0  0
    1.0790   14.4340   -3.3850 C   0  0  0  0  0  0  0  0  0  0  0  0
    0.8560   13.1150   -4.1360 C   0  0  1  0  0  0  0  0  0  0  0  0
    1.3550   13.2600   -5.5980 C   0  0  0  0  0  0  0  0  0  0  0  0
    0.7280   14.4520   -6.3140 C   0  0  0  0  0  0  0  0  0  0  0  0
    1.0220   15.7520   -5.5690 C   0  0  2  0  0  0  0  0  0  0  0  0
    2.4260   16.0180   -5.6410 O   0  0  0  0  0  0  0  0  0  0  0  0
    0.5710   15.7200   -4.0820 C   0  0  0  0  0  0  0  0  0  0  0  0
   -0.9760   15.7360   -4.0060 C   0  0  0  0  0  0  0  0  0  0  0  0
    1.0520   17.0350   -3.4090 C   0  0  0  0  0  0  0  0  0  0  0  0
    1.4180   11.8090   -3.4260 C   0  0  1  0  0  0  0  0  0  0  0  0
    2.9130   11.5950   -3.8140 C   0  0  0  0  0  0  0  0  0  0  0  0
    0.6360   10.5530   -3.9650 C   0  0  0  0  0  0  0  0  0  0  0  0
   -0.6650   10.1780   -3.2300 C   0  0  0  0  0  0  0  0  0  0  0  0
   -0.4440   10.1250   -1.7150 C   0  0  2  0  0  0  0  0  0  0  0  0
    0.5980    8.9920   -1.4230 C   0  0  0  0  0  0  0  0  0  0  0  0
   -2.4219    6.7529   -2.1106 H   0  0  0  0  0  0  0  0  0  0  0  0
   -3.1444    8.2801   -2.7206 H   0  0  0  0  0  0  0  0  0  0  0  0
   -1.3607    8.0676   -2.7206 H   0  0  0  0  0  0  0  0  0  0  0  0
   -1.5315    7.8154   -0.1840 H   0  0  0  0  0  0  0  0  0  0  0  0
   -3.6603    7.4839    0.5229 H   0  0  0  0  0  0  0  0  0  0  0  0
   -3.6380    9.3113    0.5744 H   0  0  0  0  0  0  0  0  0  0  0  0
   -5.4168    9.3317   -0.7414 H   0  0  0  0  0  0  0  0  0  0  0  0
   -4.3948    8.5890   -2.0415 H   0  0  0  0  0  0  0  0  0  0  0  0
   -5.3417    7.0704    0.0944 H   0  0  0  0  0  0  0  0  0  0  0  0
   -7.8606    8.9290   -1.9742 H   0  0  0  0  0  0  0  0  0  0  0  0
   -6.6482    8.5267   -3.2371 H   0  0  0  0  0  0  0  0  0  0  0  0
   -8.2492    7.7122   -3.2371 H   0  0  0  0  0  0  0  0  0  0  0  0
   -7.8842    5.9992   -0.1481 H   0  0  0  0  0  0  0  0  0  0  0  0
   -8.8795    6.2535   -1.6216 H   0  0  0  0  0  0  0  0  0  0  0  0
   -7.5738    5.0199   -1.6216 H   0  0  0  0  0  0  0  0  0  0  0  0
   -2.5718   10.3669   -1.2765 H   0  0  0  0  0  0  0  0  0  0  0  0
   -2.0813   10.9808    1.0079 H   0  0  0  0  0  0  0  0  0  0  0  0
   -1.0029    9.5864    1.2323 H   0  0  0  0  0  0  0  0  0  0  0  0
   -0.1637   12.2889    0.8379 H   0  0  0  0  0  0  0  0  0  0  0  0
    0.8977   10.8919    0.6795 H   0  0  0  0  0  0  0  0  0  0  0  0
   -1.4379   13.0627   -0.5188 H   0  0  0  0  0  0  0  0  0  0  0  0
   -0.6081   13.4921   -2.0530 H   0  0  0  0  0  0  0  0  0  0  0  0
   -1.9145   12.2592   -2.0530 H   0  0  0  0  0  0  0  0  0  0  0  0
    2.0200   11.1184   -1.4553 H   0  0  0  0  0  0  0  0  0  0  0  0
    1.6507   13.4030   -0.3206 H   0  0  0  0  0  0  0  0  0  0  0  0
    3.0756   13.1205   -1.4515 H   0  0  0  0  0  0  0  0  0  0  0  0
    1.8275   15.4272   -1.7030 H   0  0  0  0  0  0  0  0  0  0  0  0
   -0.2301   12.9410   -4.1281 H   0  0  0  0  0  0  0  0  0  0  0  0
    2.4472   13.3900   -5.5866 H   0  0  0  0  0  0  0  0  0  0  0  0
    1.0614   12.3507   -6.1430 H   0  0  0  0  0  0  0  0  0  0  0  0
    1.1408   14.5188   -7.3314 H   0  0  0  0  0  0  0  0  0  0  0  0
   -0.3617   14.3066   -6.3501 H   0  0  0  0  0  0  0  0  0  0  0  0
    0.4421   16.5500   -6.0558 H   0  0  0  0  0  0  0  0  0  0  0  0
    2.6350   16.2450   -6.5630 H   0  0  0  0  0  0  0  0  0  0  0  0
   -1.2913   15.7393   -2.9522 H   0  0  0  0  0  0  0  0  0  0  0  0
   -1.3584   16.6381   -4.5059 H   0  0  0  0  0  0  0  0  0  0  0  0
   -1.3769   14.8420   -4.5059 H   0  0  0  0  0  0  0  0  0  0  0  0
    1.0112   16.9234   -2.3154 H   0  0  0  0  0  0  0  0  0  0  0  0
    2.0862   17.2478   -3.7175 H   0  0  0  0  0  0  0  0  0  0  0  0
    0.3992   17.8649   -3.7175 H   0  0  0  0  0  0  0  0  0  0  0  0
    3.5200   11.5081   -2.9008 H   0  0  0  0  0  0  0  0  0  0  0  0
    3.0096   10.6739   -4.4075 H   0  0  0  0  0  0  0  0  0  0  0  0
    3.2641   12.4520   -4.4075 H   0  0  0  0  0  0  0  0  0  0  0  0
    0.3801   10.7464   -5.0172 H   0  0  0  0  0  0  0  0  0  0  0  0
    1.3133    9.7012   -3.8050 H   0  0  0  0  0  0  0  0  0  0  0  0
   -1.4350   10.9306   -3.4551 H   0  0  0  0  0  0  0  0  0  0  0  0
   -0.9866    9.1833   -3.5722 H   0  0  0  0  0  0  0  0  0  0  0  0
    0.7110    8.8691   -0.3357 H   0  0  0  0  0  0  0  0  0  0  0  0
    0.2462    8.0477   -1.8641 H   0  0  0  0  0  0  0  0  0  0  0  0
    1.5684    9.2637   -1.8641 H   0  0  0  0  0  0  0  0  0  0  0  0
  1  2  1  0
  2  3  1  0
  3  4  1  0
  4  5  1  0
  5  6  1  0
  6  7  1  0
  7  8  1  0
  7  9  1  0
  2 10  1  0
 10 11  1  0
 11 12  1  0
 12 13  1  0
 13 14  1  1
 13 15  1  0
 15 16  1  0
 16 17  1  0
 17 18  2  0
 18 19  1  0
 19 20  1  0
 20 21  1  0
 21 22  1  0
 22 23  1  0
 22 24  1  0
 24 25  1  0
 24 26  1  0
 19 27  1  0
 27 28  1  1
 27 29  1  0
 29 30  1  0
 30 31  1  0
 31 32  1  6
  7  5  1  0
 31 10  1  0
 31 13  1  0
 27 15  1  0
 24 18  1  0
  1 33  1  0
  1 34  1  0
  1 35  1  0
  2 36  1  1
  3 37  1  0
  3 38  1  0
  4 39  1  0
  4 40  1  0
  5 41  1  1
  8 42  1  0
  8 43  1  0
  8 44  1  0
  9 45  1  0
  9 46  1  0
  9 47  1  0
 10 48  1  6
 11 49  1  0
 11 50  1  0
 12 51  1  0
 12 52  1  0
 14 53  1  0
 14 54  1  0
 14 55  1  0
 15 56  1  1
 16 57  1  0
 16 58  1  0
 17 59  1  0
 19 60  1  6
 20 61  1  0
 20 62  1  0
 21 63  1  0
 21 64  1  0
 22 65  1  6
 23 66  1  0
 25 67  1  0
 25 68  1  0
 25 69  1  0
 26 70  1  0
 26 71  1  0
 26 72  1  0
 28 73  1  0
 28 74  1  0
 28 75  1  0
 29 76  1  0
 29 77  1  0
 30 78  1  0
 30 79  1  0
 32 80  1  0
 32 81  1  0
 32 82  1  0
M  END
>  <meeko>  (14) 
{"is_sidechain": [false], "intermolecular_energy": 2.731, "internal_energy": -0.839}

$$$$
EPH_relaxed_0001_pdb2pqr_Repair_210_r2_0001_out
     RDKit          3D

 82 86  0  0  0  0  0  0  0  0999 V2000
    0.4320   17.9370   -2.6260 C   0  0  0  0  0  0  0  0  0  0  0  0
    0.1810   17.0890   -1.3760 C   0  0  2  0  0  0  0  0  0  0  0  0
    0.1980   17.9350   -0.0870 C   0  0  0  0  0  0  0  0  0  0  0  0
    0.8140   19.3250   -0.2710 C   0  0  0  0  0  0  0  0  0  0  0  0
    2.2740   19.3340    0.0660 C   0  0  2  0  0  0  0  0  0  0  0  0
    2.6680   18.3660    1.0480 O   0  0  0  0  0  0  0  0  0  0  0  0
    2.8170   19.7460    1.4210 C   0  0  0  0  0  0  0  0  0  0  0  0
    1.9070   20.1790    2.5280 C   0  0  0  0  0  0  0  0  0  0  0  0
    4.2420   20.1940    1.5150 C   0  0  0  0  0  0  0  0  0  0  0  0
    1.2200   15.9780   -1.2840 C   0  0  1  0  0  0  0  0  0  0  0  0
    1.4240   15.4690    0.1680 C   0  0  0  0  0  0  0  0  0  0  0  0
    1.7100   13.9480    0.0720 C   0  0  0  0  0  0  0  0  0  0  0  0
    1.9900   13.6970   -1.4280 C   0  0  1  0  0  0  0  0  0  0  0  0
    3.4790   14.1180   -1.6340 C   0  0  0  0  0  0  0  0  0  0  0  0
    1.7230   12.2470   -1.9480 C   0  0  2  0  0  0  0  0  0  0  0  0
    2.5930   11.1530   -1.3060 C   0  0  0  0  0  0  0  0  0  0  0  0
    3.8790   10.8660   -2.0090 C   0  0  0  0  0  0  0  0  0  0  0  0
    4.1890   11.2540   -3.2600 C   0  0  0  0  0  0  0  0  0  0  0  0
    3.1600   11.9760   -4.1390 C   0  0  1  0  0  0  0  0  0  0  0  0
    3.1520   11.3410   -5.5540 C   0  0  0  0  0  0  0  0  0  0  0  0
    4.5390   11.3070   -6.1880 C   0  0  0  0  0  0  0  0  0  0  0  0
    5.5200   10.5310   -5.3130 C   0  0  2  0  0  0  0  0  0  0  0  0
    5.1280    9.1550   -5.2900 O   0  0  0  0  0  0  0  0  0  0  0  0
    5.6060   11.0740   -3.8590 C   0  0  0  0  0  0  0  0  0  0  0  0
    6.3120   12.4530   -3.8590 C   0  0  0  0  0  0  0  0  0  0  0  0
    6.5200   10.1190   -3.0450 C   0  0  0  0  0  0  0  0  0  0  0  0
    1.7010   12.1170   -3.5250 C   0  0  1  0  0  0  0  0  0  0  0  0
    0.8600   10.8470   -3.8550 C   0  0  0  0  0  0  0  0  0  0  0  0
    0.9680   13.3270   -4.2150 C   0  0  0  0  0  0  0  0  0  0  0  0
    1.1750   14.7170   -3.5830 C   0  0  0  0  0  0  0  0  0  0  0  0
    0.9380   14.6730   -2.0710 C   0  0  2  0  0  0  0  0  0  0  0  0
   -0.5580   14.2740   -1.8320 C   0  0  0  0  0  0  0  0  0  0  0  0
    0.7324   18.9519   -2.3263 H   0  0  0  0  0  0  0  0  0  0  0  0
    1.2332   17.4792   -3.2248 H   0  0  0  0  0  0  0  0  0  0  0  0
   -0.4893   17.9891   -3.2248 H   0  0  0  0  0  0  0  0  0  0  0  0
   -0.8237   16.6511   -1.4698 H   0  0  0  0  0  0  0  0  0  0  0  0
   -0.8381   18.0577    0.2616 H   0  0  0  0  0  0  0  0  0  0  0  0
    0.8251   17.3993    0.6409 H   0  0  0  0  0  0  0  0  0  0  0  0
    0.6883   19.6346   -1.3190 H   0  0  0  0  0  0  0  0  0  0  0  0
    0.3009   20.0200    0.4100 H   0  0  0  0  0  0  0  0  0  0  0  0
    2.5324   19.6436   -0.9574 H   0  0  0  0  0  0  0  0  0  0  0  0
    2.3766   19.9555    3.4973 H   0  0  0  0  0  0  0  0  0  0  0  0
    1.7238   21.2608    2.4501 H   0  0  0  0  0  0  0  0  0  0  0  0
    0.9520   19.6388    2.4501 H   0  0  0  0  0  0  0  0  0  0  0  0
    4.5290   20.2842    2.5731 H   0  0  0  0  0  0  0  0  0  0  0  0
    4.8915   19.4567    1.0205 H   0  0  0  0  0  0  0  0  0  0  0  0
    4.3528   21.1703    1.0205 H   0  0  0  0  0  0  0  0  0  0  0  0
    2.0858   16.4993   -1.7183 H   0  0  0  0  0  0  0  0  0  0  0  0
    2.2755   15.9860    0.6346 H   0  0  0  0  0  0  0  0  0  0  0  0
    0.5345   15.6658    0.7845 H   0  0  0  0  0  0  0  0  0  0  0  0
    2.5856   13.6784    0.6808 H   0  0  0  0  0  0  0  0  0  0  0  0
    0.8722   13.3418    0.4469 H   0  0  0  0  0  0  0  0  0  0  0  0
    3.9604   14.2541   -0.6544 H   0  0  0  0  0  0  0  0  0  0  0  0
    4.0073   13.3340   -2.1964 H   0  0  0  0  0  0  0  0  0  0  0  0
    3.5185   15.0625   -2.1964 H   0  0  0  0  0  0  0  0  0  0  0  0
    0.6976   12.0567   -1.5981 H   0  0  0  0  0  0  0  0  0  0  0  0
    2.8299   11.4665   -0.2786 H   0  0  0  0  0  0  0  0  0  0  0  0
    2.0038   10.2256   -1.3589 H   0  0  0  0  0  0  0  0  0  0  0  0
    4.6365   10.2891   -1.4582 H   0  0  0  0  0  0  0  0  0  0  0  0
    3.4937   13.0223   -4.2013 H   0  0  0  0  0  0  0  0  0  0  0  0
    2.7747   10.3107   -5.4759 H   0  0  0  0  0  0  0  0  0  0  0  0
    2.5074   11.9609   -6.1944 H   0  0  0  0  0  0  0  0  0  0  0  0
    4.4729   10.8212   -7.1727 H   0  0  0  0  0  0  0  0  0  0  0  0
    4.9028   12.3399   -6.2923 H   0  0  0  0  0  0  0  0  0  0  0  0
    6.5211   10.6518   -5.7526 H   0  0  0  0  0  0  0  0  0  0  0  0
    4.9520    8.8840   -6.2070 H   0  0  0  0  0  0  0  0  0  0  0  0
    6.4791   12.7794   -2.8219 H   0  0  0  0  0  0  0  0  0  0  0  0
    7.2786   12.3701   -4.3775 H   0  0  0  0  0  0  0  0  0  0  0  0
    5.6796   13.1887   -4.3775 H   0  0  0  0  0  0  0  0  0  0  0  0
    6.3599   10.2863   -1.9697 H   0  0  0  0  0  0  0  0  0  0  0  0
    6.2750    9.0760   -3.2943 H   0  0  0  0  0  0  0  0  0  0  0  0
    7.5727   10.3180   -3.2943 H   0  0  0  0  0  0  0  0  0  0  0  0
    0.5409   10.3651   -2.9191 H   0  0  0  0  0  0  0  0  0  0  0  0
   -0.0261   11.1356   -4.4394 H   0  0  0  0  0  0  0  0  0  0  0  0
    1.4716   10.1439   -4.4394 H   0  0  0  0  0  0  0  0  0  0  0  0
    1.3196   13.3791   -5.2560 H   0  0  0  0  0  0  0  0  0  0  0  0
   -0.1055   13.1160   -4.1008 H   0  0  0  0  0  0  0  0  0  0  0  0
    2.2054   15.0501   -3.7761 H   0  0  0  0  0  0  0  0  0  0  0  0
    0.4536   15.4165   -4.0306 H   0  0  0  0  0  0  0  0  0  0  0  0
   -0.7553   14.2214   -0.7511 H   0  0  0  0  0  0  0  0  0  0  0  0
   -1.2160   15.0280   -2.2885 H   0  0  0  0  0  0  0  0  0  0  0  0
   -0.7531   13.2924   -2.2885 H   0  0  0  0  0  0  0  0  0  0  0  0
  1  2  1  0
  2  3  1  0
  3  4  1  0
  4  5  1  0
  5  6  1  0
  6  7  1  0
  7  8  1  0
  7  9  1  0
  2 10  1  0
 10 11  1  0
 11 12  1  0
 12 13  1  0
 13 14  1  1
 13 15  1  0
 15 16  1  0
 16 17  1  0
 17 18  2  0
 18 19  1  0
 19 20  1  0
 20 21  1  0
 21 22  1  0
 22 23  1  0
 22 24  1  0
 24 25  1  0
 24 26  1  0
 19 27  1  0
 27 28  1  1
 27 29  1  0
 29 30  1  0
 30 31  1  0
 31 32  1  6
  7  5  1  0
 31 10  1  0
 31 13  1  0
 27 15  1  0
 24 18  1  0
  1 33  1  0
  1 34  1  0
  1 35  1  0
  2 36  1  6
  3 37  1  0
  3 38  1  0
  4 39  1  0
  4 40  1  0
  5 41  1  6
  8 42  1  0
  8 43  1  0
  8 44  1  0
  9 45  1  0
  9 46  1  0
  9 47  1  0
 10 48  1  6
 11 49  1  0
 11 50  1  0
 12 51  1  0
 12 52  1  0
 14 53  1  0
 14 54  1  0
 14 55  1  0
 15 56  1  1
 16 57  1  0
 16 58  1  0
 17 59  1  0
 19 60  1  6
 20 61  1  0
 20 62  1  0
 21 63  1  0
 21 64  1  0
 22 65  1  6
 23 66  1  0
 25 67  1  0
 25 68  1  0
 25 69  1  0
 26 70  1  0
 26 71  1  0
 26 72  1  0
 28 73  1  0
 28 74  1  0
 28 75  1  0
 29 76  1  0
 29 77  1  0
 30 78  1  0
 30 79  1  0
 32 80  1  0
 32 81  1  0
 32 82  1  0
M  END
>  <meeko>  (15) 
{"is_sidechain": [false], "intermolecular_energy": 2.731, "internal_energy": -0.839}

$$$$
EPH_relaxed_0001_pdb2pqr_Repair_210_r2_0001_out
     RDKit          3D

 82 86  0  0  0  0  0  0  0  0999 V2000
    0.8370   18.9940   -2.4420 C   0  0  0  0  0  0  0  0  0  0  0  0
    0.2770   18.0020   -1.4180 C   0  0  2  0  0  0  0  0  0  0  0  0
    0.6800   18.3680    0.0250 C   0  0  0  0  0  0  0  0  0  0  0  0
    1.6720   19.5310    0.1110 C   0  0  0  0  0  0  0  0  0  0  0  0
    2.5780   19.4000    1.2980 C   0  0  2  0  0  0  0  0  0  0  0  0
    3.7700   20.1940    1.2320 O   0  0  0  0  0  0  0  0  0  0  0  0
    3.9560   18.7690    1.2320 C   0  0  0  0  0  0  0  0  0  0  0  0
    4.5060   18.2270   -0.0490 C   0  0  0  0  0  0  0  0  0  0  0  0
    4.5620   18.2410    2.4950 C   0  0  0  0  0  0  0  0  0  0  0  0
    0.7500   16.5910   -1.7490 C   0  0  1  0  0  0  0  0  0  0  0  0
    2.2370   16.5470   -2.1890 C   0  0  0  0  0  0  0  0  0  0  0  0
    2.8230   15.2160   -1.6530 C   0  0  0  0  0  0  0  0  0  0  0  0
    1.5880   14.3940   -1.2170 C   0  0  1  0  0  0  0  0  0  0  0  0
    1.0370   13.7660   -2.5360 C   0  0  0  0  0  0  0  0  0  0  0  0
    1.8330   13.3070   -0.1200 C   0  0  2  0  0  0  0  0  0  0  0  0
    2.8010   12.1810   -0.5220 C   0  0  0  0  0  0  0  0  0  0  0  0
    2.1650   10.9900   -1.1600 C   0  0  0  0  0  0  0  0  0  0  0  0
    0.8500   10.7040   -1.1450 C   0  0  0  0  0  0  0  0  0  0  0  0
   -0.1360   11.5720   -0.3520 C   0  0  1  0  0  0  0  0  0  0  0  0
   -1.0860   10.6600    0.4680 C   0  0  0  0  0  0  0  0  0  0  0  0
   -1.7900    9.6200   -0.3970 C   0  0  0  0  0  0  0  0  0  0  0  0
   -0.7770    8.7390   -1.1240 C   0  0  2  0  0  0  0  0  0  0  0  0
   -0.0740    7.9510   -0.1580 O   0  0  0  0  0  0  0  0  0  0  0  0
    0.2400    9.5490   -1.9760 C   0  0  0  0  0  0  0  0  0  0  0  0
   -0.4810   10.1610   -3.2030 C   0  0  0  0  0  0  0  0  0  0  0  0
    1.2890    8.5540   -2.5410 C   0  0  0  0  0  0  0  0  0  0  0  0
    0.5100   12.7280    0.5270 C   0  0  1  0  0  0  0  0  0  0  0  0
    0.9050   12.1730    1.9290 C   0  0  0  0  0  0  0  0  0  0  0  0
   -0.5700   13.8460    0.7800 C   0  0  0  0  0  0  0  0  0  0  0  0
   -0.6830   14.9570   -0.2810 C   0  0  0  0  0  0  0  0  0  0  0  0
    0.6950   15.5380   -0.6140 C   0  0  2  0  0  0  0  0  0  0  0  0
    1.2640   16.1960    0.6890 C   0  0  0  0  0  0  0  0  0  0  0  0
    1.3119   19.8352   -1.9158 H   0  0  0  0  0  0  0  0  0  0  0  0
    1.5828   18.4881   -3.0728 H   0  0  0  0  0  0  0  0  0  0  0  0
    0.0185   19.3711   -3.0728 H   0  0  0  0  0  0  0  0  0  0  0  0
   -0.8204   18.0495   -1.4765 H   0  0  0  0  0  0  0  0  0  0  0  0
   -0.2287   18.6449    0.5797 H   0  0  0  0  0  0  0  0  0  0  0  0
    1.1804   17.4865    0.4523 H   0  0  0  0  0  0  0  0  0  0  0  0
    2.2828   19.5470   -0.8037 H   0  0  0  0  0  0  0  0  0  0  0  0
    1.0987   20.4636    0.2184 H   0  0  0  0  0  0  0  0  0  0  0  0
    1.7196   19.2297    1.9644 H   0  0  0  0  0  0  0  0  0  0  0  0
    5.2735   17.4707    0.1724 H   0  0  0  0  0  0  0  0  0  0  0  0
    3.6941   17.7661   -0.6307 H   0  0  0  0  0  0  0  0  0  0  0  0
    4.9549   19.0456   -0.6307 H   0  0  0  0  0  0  0  0  0  0  0  0
    4.0507   18.6864    3.3611 H   0  0  0  0  0  0  0  0  0  0  0  0
    4.4503   17.1471    2.5259 H   0  0  0  0  0  0  0  0  0  0  0  0
    5.6303   18.5015    2.5259 H   0  0  0  0  0  0  0  0  0  0  0  0
    0.0259   16.3340   -2.5362 H   0  0  0  0  0  0  0  0  0  0  0  0
    2.3084   16.5776   -3.2863 H   0  0  0  0  0  0  0  0  0  0  0  0
    2.7917   17.4105   -1.7930 H   0  0  0  0  0  0  0  0  0  0  0  0
    3.3799   14.6908   -2.4429 H   0  0  0  0  0  0  0  0  0  0  0  0
    3.5315   15.3748   -0.8267 H   0  0  0  0  0  0  0  0  0  0  0  0
    0.3298   12.9599   -2.2908 H   0  0  0  0  0  0  0  0  0  0  0  0
    0.5214   14.5401   -3.1232 H   0  0  0  0  0  0  0  0  0  0  0  0
    1.8716   13.3555   -3.1232 H   0  0  0  0  0  0  0  0  0  0  0  0
    2.3487   13.8783    0.6660 H   0  0  0  0  0  0  0  0  0  0  0  0
    3.5308   12.5976   -1.2318 H   0  0  0  0  0  0  0  0  0  0  0  0
    3.2528   11.8198    0.4137 H   0  0  0  0  0  0  0  0  0  0  0  0
    2.8272   10.2871   -1.6867 H   0  0  0  0  0  0  0  0  0  0  0  0
   -0.7137   12.1359   -1.0992 H   0  0  0  0  0  0  0  0  0  0  0  0
   -0.4973   10.1386    1.2371 H   0  0  0  0  0  0  0  0  0  0  0  0
   -1.8599   11.3009    0.9155 H   0  0  0  0  0  0  0  0  0  0  0  0
   -2.4228    8.9879    0.2433 H   0  0  0  0  0  0  0  0  0  0  0  0
   -2.4022   10.1429   -1.1465 H   0  0  0  0  0  0  0  0  0  0  0  0
   -1.3371    8.1026   -1.8249 H   0  0  0  0  0  0  0  0  0  0  0  0
   -0.6090    7.1590    0.0210 H   0  0  0  0  0  0  0  0  0  0  0  0
   -1.2779   10.8374   -2.8603 H   0  0  0  0  0  0  0  0  0  0  0  0
    0.2427   10.7248   -3.8100 H   0  0  0  0  0  0  0  0  0  0  0  0
   -0.9197    9.3553   -3.8100 H   0  0  0  0  0  0  0  0  0  0  0  0
    1.8107    8.0592   -1.7085 H   0  0  0  0  0  0  0  0  0  0  0  0
    0.7818    7.7972   -3.1574 H   0  0  0  0  0  0  0  0  0  0  0  0
    2.0179    9.1005   -3.1574 H   0  0  0  0  0  0  0  0  0  0  0  0
    0.4570   12.8024    2.7120 H   0  0  0  0  0  0  0  0  0  0  0  0
    0.5366   11.1417    2.0322 H   0  0  0  0  0  0  0  0  0  0  0  0
    2.0001   12.1832    2.0322 H   0  0  0  0  0  0  0  0  0  0  0  0
   -1.5502   13.3518    0.8497 H   0  0  0  0  0  0  0  0  0  0  0  0
   -0.2445   14.3574    1.6979 H   0  0  0  0  0  0  0  0  0  0  0  0
   -1.1275   14.5375   -1.1956 H   0  0  0  0  0  0  0  0  0  0  0  0
   -1.3161   15.7623    0.1198 H   0  0  0  0  0  0  0  0  0  0  0  0
    0.8330   15.6976    1.5698 H   0  0  0  0  0  0  0  0  0  0  0  0
    2.3586   16.0887    0.7060 H   0  0  0  0  0  0  0  0  0  0  0  0
    0.9999   17.2637    0.7060 H   0  0  0  0  0  0  0  0  0  0  0  0
  1  2  1  0
  2  3  1  0
  3  4  1  0
  4  5  1  0
  5  6  1  0
  6  7  1  0
  7  8  1  0
  7  9  1  0
  2 10  1  0
 10 11  1  0
 11 12  1  0
 12 13  1  0
 13 14  1  6
 13 15  1  0
 15 16  1  0
 16 17  1  0
 17 18  2  0
 18 19  1  0
 19 20  1  0
 20 21  1  0
 21 22  1  0
 22 23  1  0
 22 24  1  0
 24 25  1  0
 24 26  1  0
 19 27  1  0
 27 28  1  1
 27 29  1  0
 29 30  1  0
 30 31  1  0
 31 32  1  1
  7  5  1  0
 31 10  1  0
 31 13  1  0
 27 15  1  0
 24 18  1  0
  1 33  1  0
  1 34  1  0
  1 35  1  0
  2 36  1  1
  3 37  1  0
  3 38  1  0
  4 39  1  0
  4 40  1  0
  5 41  1  1
  8 42  1  0
  8 43  1  0
  8 44  1  0
  9 45  1  0
  9 46  1  0
  9 47  1  0
 10 48  1  6
 11 49  1  0
 11 50  1  0
 12 51  1  0
 12 52  1  0
 14 53  1  0
 14 54  1  0
 14 55  1  0
 15 56  1  1
 16 57  1  0
 16 58  1  0
 17 59  1  0
 19 60  1  6
 20 61  1  0
 20 62  1  0
 21 63  1  0
 21 64  1  0
 22 65  1  6
 23 66  1  0
 25 67  1  0
 25 68  1  0
 25 69  1  0
 26 70  1  0
 26 71  1  0
 26 72  1  0
 28 73  1  0
 28 74  1  0
 28 75  1  0
 29 76  1  0
 29 77  1  0
 30 78  1  0
 30 79  1  0
 32 80  1  0
 32 81  1  0
 32 82  1  0
M  END
>  <meeko>  (16) 
{"is_sidechain": [false], "intermolecular_energy": 2.731, "internal_energy": -0.839}

$$$$
EPH_relaxed_0001_pdb2pqr_Repair_210_r2_0001_out
     RDKit          3D

 82 86  0  0  0  0  0  0  0  0999 V2000
    2.7550   18.5580   -3.2720 C   0  0  0  0  0  0  0  0  0  0  0  0
    2.1320   18.2980   -1.8970 C   0  0  2  0  0  0  0  0  0  0  0  0
    2.6220   19.3050   -0.8380 C   0  0  0  0  0  0  0  0  0  0  0  0
    2.4370   18.8230    0.6030 C   0  0  0  0  0  0  0  0  0  0  0  0
    3.0630   19.7630    1.5870 C   0  0  2  0  0  0  0  0  0  0  0  0
    4.4350   20.0830    1.3210 O   0  0  0  0  0  0  0  0  0  0  0  0
    4.1770   19.3620    2.5360 C   0  0  0  0  0  0  0  0  0  0  0  0
    4.7290   17.9700    2.5480 C   0  0  0  0  0  0  0  0  0  0  0  0
    4.3890   20.1740    3.7760 C   0  0  0  0  0  0  0  0  0  0  0  0
    2.4440   16.8750   -1.4470 C   0  0  1  0  0  0  0  0  0  0  0  0
    3.1820   16.8300   -0.0820 C   0  0  0  0  0  0  0  0  0  0  0  0
    2.6780   15.5620    0.6560 C   0  0  0  0  0  0  0  0  0  0  0  0
    1.9310   14.7510   -0.4280 C   0  0  1  0  0  0  0  0  0  0  0  0
    3.0520   14.0020   -1.2130 C   0  0  0  0  0  0  0  0  0  0  0  0
    0.8280   13.7670    0.0830 C   0  0  2  0  0  0  0  0  0  0  0  0
    1.3350   12.6340    0.9920 C   0  0  0  0  0  0  0  0  0  0  0  0
    1.7310   11.3790    0.2870 C   0  0  0  0  0  0  0  0  0  0  0  0
    1.4190   11.0650   -0.9840 C   0  0  0  0  0  0  0  0  0  0  0  0
    0.5070   11.9730   -1.8190 C   0  0  1  0  0  0  0  0  0  0  0  0
   -0.5620   11.1110   -2.5400 C   0  0  0  0  0  0  0  0  0  0  0  0
    0.0540    9.9850   -3.3650 C   0  0  0  0  0  0  0  0  0  0  0  0
    0.9050    9.0700   -2.4890 C   0  0  2  0  0  0  0  0  0  0  0  0
    0.0490    8.3830   -1.5710 O   0  0  0  0  0  0  0  0  0  0  0  0
    2.0120    9.8290   -1.7050 C   0  0  0  0  0  0  0  0  0  0  0  0
    3.1050   10.3170   -2.6880 C   0  0  0  0  0  0  0  0  0  0  0  0
    2.7050    8.8150   -0.7550 C   0  0  0  0  0  0  0  0  0  0  0  0
   -0.1240   13.2140   -1.0530 C   0  0  1  0  0  0  0  0  0  0  0  0
   -1.4510   12.7890   -0.3540 C   0  0  0  0  0  0  0  0  0  0  0  0
   -0.5110   14.3230   -2.1020 C   0  0  0  0  0  0  0  0  0  0  0  0
    0.5870   15.3380   -2.4770 C   0  0  0  0  0  0  0  0  0  0  0  0
    1.2450   15.9210   -1.2220 C   0  0  2  0  0  0  0  0  0  0  0  0
    0.1450   16.7000   -0.4230 C   0  0  0  0  0  0  0  0  0  0  0  0
    3.7633   18.9788   -3.1441 H   0  0  0  0  0  0  0  0  0  0  0  0
    2.8205   17.6121   -3.8297 H   0  0  0  0  0  0  0  0  0  0  0  0
    2.1287   19.2698   -3.8297 H   0  0  0  0  0  0  0  0  0  0  0  0
    1.0441   18.4270   -1.9960 H   0  0  0  0  0  0  0  0  0  0  0  0
    3.6927   19.4924   -1.0065 H   0  0  0  0  0  0  0  0  0  0  0  0
    2.0130   20.2138   -0.9532 H   0  0  0  0  0  0  0  0  0  0  0  0
    1.3609   18.7468    0.8179 H   0  0  0  0  0  0  0  0  0  0  0  0
    2.9295   17.8445    0.7029 H   0  0  0  0  0  0  0  0  0  0  0  0
    2.1000   20.2687    1.7511 H   0  0  0  0  0  0  0  0  0  0  0  0
    4.8611   17.6369    3.5880 H   0  0  0  0  0  0  0  0  0  0  0  0
    4.0308   17.2942    2.0324 H   0  0  0  0  0  0  0  0  0  0  0  0
    5.7006   17.9564    2.0324 H   0  0  0  0  0  0  0  0  0  0  0  0
    4.2239   19.5418    4.6609 H   0  0  0  0  0  0  0  0  0  0  0  0
    5.4184   20.5615    3.7890 H   0  0  0  0  0  0  0  0  0  0  0  0
    3.6804   21.0152    3.7890 H   0  0  0  0  0  0  0  0  0  0  0  0
    3.0382   16.5348   -2.3079 H   0  0  0  0  0  0  0  0  0  0  0  0
    4.2688   16.7695   -0.2405 H   0  0  0  0  0  0  0  0  0  0  0  0
    2.9801   17.7369    0.5069 H   0  0  0  0  0  0  0  0  0  0  0  0
    3.5236   14.9852    1.0588 H   0  0  0  0  0  0  0  0  0  0  0  0
    2.0328   15.8066    1.5127 H   0  0  0  0  0  0  0  0  0  0  0  0
    3.7494   13.5361   -0.5013 H   0  0  0  0  0  0  0  0  0  0  0  0
    2.5996   13.2241   -1.8456 H   0  0  0  0  0  0  0  0  0  0  0  0
    3.5975   14.7177   -1.8456 H   0  0  0  0  0  0  0  0  0  0  0  0
    0.2143   14.4145    0.7265 H   0  0  0  0  0  0  0  0  0  0  0  0
    2.2121   13.0061    1.5418 H   0  0  0  0  0  0  0  0  0  0  0  0
    0.4894   12.3640    1.6417 H   0  0  0  0  0  0  0  0  0  0  0  0
    2.3280   10.6496    0.8541 H   0  0  0  0  0  0  0  0  0  0  0  0
    1.1575   12.4580   -2.5617 H   0  0  0  0  0  0  0  0  0  0  0  0
   -1.2284   10.6703   -1.7838 H   0  0  0  0  0  0  0  0  0  0  0  0
   -1.1115   11.7684   -3.2298 H   0  0  0  0  0  0  0  0  0  0  0  0
   -0.7513    9.3947   -3.8265 H   0  0  0  0  0  0  0  0  0  0  0  0
    0.6977   10.4284   -4.1390 H   0  0  0  0  0  0  0  0  0  0  0  0
    1.4214    8.3627   -3.1546 H   0  0  0  0  0  0  0  0  0  0  0  0
    0.0240    7.4480   -1.8350 H   0  0  0  0  0  0  0  0  0  0  0  0
    3.9647   10.7009   -2.1192 H   0  0  0  0  0  0  0  0  0  0  0  0
    3.4294    9.4782   -3.3214 H   0  0  0  0  0  0  0  0  0  0  0  0
    2.6971   11.1185   -3.3214 H   0  0  0  0  0  0  0  0  0  0  0  0
    2.5106    9.0994    0.2897 H   0  0  0  0  0  0  0  0  0  0  0  0
    2.3061    7.8068   -0.9408 H   0  0  0  0  0  0  0  0  0  0  0  0
    3.7892    8.8204   -0.9408 H   0  0  0  0  0  0  0  0  0  0  0  0
   -1.3203   12.8309    0.7374 H   0  0  0  0  0  0  0  0  0  0  0  0
   -2.2585   13.4735   -0.6531 H   0  0  0  0  0  0  0  0  0  0  0  0
   -1.7106   11.7628   -0.6531 H   0  0  0  0  0  0  0  0  0  0  0  0
   -0.8225   13.8133   -3.0256 H   0  0  0  0  0  0  0  0  0  0  0  0
   -1.2985   14.9173   -1.6155 H   0  0  0  0  0  0  0  0  0  0  0  0
    1.3529   14.8323   -3.0833 H   0  0  0  0  0  0  0  0  0  0  0  0
    0.1267   16.1592   -3.0460 H   0  0  0  0  0  0  0  0  0  0  0  0
    0.3192   16.5767    0.6561 H   0  0  0  0  0  0  0  0  0  0  0  0
    0.1909   17.7681   -0.6821 H   0  0  0  0  0  0  0  0  0  0  0  0
   -0.8473   16.3021   -0.6821 H   0  0  0  0  0  0  0  0  0  0  0  0
  1  2  1  0
  2  3  1  0
  3  4  1  0
  4  5  1  0
  5  6  1  0
  6  7  1  0
  7  8  1  0
  7  9  1  0
  2 10  1  0
 10 11  1  0
 11 12  1  0
 12 13  1  0
 13 14  1  6
 13 15  1  0
 15 16  1  0
 16 17  1  0
 17 18  2  0
 18 19  1  0
 19 20  1  0
 20 21  1  0
 21 22  1  0
 22 23  1  0
 22 24  1  0
 24 25  1  0
 24 26  1  0
 19 27  1  0
 27 28  1  1
 27 29  1  0
 29 30  1  0
 30 31  1  0
 31 32  1  1
  7  5  1  0
 31 10  1  0
 31 13  1  0
 27 15  1  0
 24 18  1  0
  1 33  1  0
  1 34  1  0
  1 35  1  0
  2 36  1  6
  3 37  1  0
  3 38  1  0
  4 39  1  0
  4 40  1  0
  5 41  1  1
  8 42  1  0
  8 43  1  0
  8 44  1  0
  9 45  1  0
  9 46  1  0
  9 47  1  0
 10 48  1  6
 11 49  1  0
 11 50  1  0
 12 51  1  0
 12 52  1  0
 14 53  1  0
 14 54  1  0
 14 55  1  0
 15 56  1  1
 16 57  1  0
 16 58  1  0
 17 59  1  0
 19 60  1  6
 20 61  1  0
 20 62  1  0
 21 63  1  0
 21 64  1  0
 22 65  1  6
 23 66  1  0
 25 67  1  0
 25 68  1  0
 25 69  1  0
 26 70  1  0
 26 71  1  0
 26 72  1  0
 28 73  1  0
 28 74  1  0
 28 75  1  0
 29 76  1  0
 29 77  1  0
 30 78  1  0
 30 79  1  0
 32 80  1  0
 32 81  1  0
 32 82  1  0
M  END
>  <meeko>  (17) 
{"is_sidechain": [false], "intermolecular_energy": 2.731, "internal_energy": -0.839}

$$$$
EPH_relaxed_0001_pdb2pqr_Repair_210_r2_0001_out
     RDKit          3D

 82 86  0  0  0  0  0  0  0  0999 V2000
    2.2770   11.1320   -5.4580 C   0  0  0  0  0  0  0  0  0  0  0  0
    1.6570   10.9890   -4.0650 C   0  0  2  0  0  0  0  0  0  0  0  0
    0.5350    9.9330   -4.0350 C   0  0  0  0  0  0  0  0  0  0  0  0
    0.4070    9.2090   -2.6920 C   0  0  0  0  0  0  0  0  0  0  0  0
   -1.0210    9.1180   -2.2440 C   0  0  2  0  0  0  0  0  0  0  0  0
   -1.6060   10.3660   -1.8520 O   0  0  0  0  0  0  0  0  0  0  0  0
   -1.4680    9.3780   -0.8180 C   0  0  0  0  0  0  0  0  0  0  0  0
   -0.4900    9.7490    0.2520 C   0  0  0  0  0  0  0  0  0  0  0  0
   -2.7710    8.8000   -0.3610 C   0  0  0  0  0  0  0  0  0  0  0  0
    1.1180   12.3360   -3.5960 C   0  0  1  0  0  0  0  0  0  0  0  0
   -0.4240   12.3330   -3.4210 C   0  0  0  0  0  0  0  0  0  0  0  0
   -0.7390   13.2570   -2.2160 C   0  0  0  0  0  0  0  0  0  0  0  0
    0.5830   14.0140   -1.9490 C   0  0  1  0  0  0  0  0  0  0  0  0
    0.5990   15.1730   -2.9940 C   0  0  0  0  0  0  0  0  0  0  0  0
    0.7930   14.5460   -0.4940 C   0  0  2  0  0  0  0  0  0  0  0  0
   -0.2370   15.5900   -0.0260 C   0  0  0  0  0  0  0  0  0  0  0  0
    0.1280   17.0120   -0.2980 C   0  0  0  0  0  0  0  0  0  0  0  0
    1.3540   17.4540   -0.6330 C   0  0  0  0  0  0  0  0  0  0  0  0
    2.5530   16.4980   -0.6730 C   0  0  1  0  0  0  0  0  0  0  0  0
    3.7590   17.1480    0.0540 C   0  0  0  0  0  0  0  0  0  0  0  0
    4.0970   18.5310   -0.4940 C   0  0  0  0  0  0  0  0  0  0  0  0
    2.8980   19.4700   -0.3840 C   0  0  2  0  0  0  0  0  0  0  0  0
    2.6310   19.7150    1.0000 O   0  0  0  0  0  0  0  0  0  0  0  0
    1.6200   18.9150   -1.0730 C   0  0  0  0  0  0  0  0  0  0  0  0
    1.8080   18.9340   -2.6100 C   0  0  0  0  0  0  0  0  0  0  0  0
    0.4510   19.8900   -0.7660 C   0  0  0  0  0  0  0  0  0  0  0  0
    2.2720   15.0130   -0.1820 C   0  0  1  0  0  0  0  0  0  0  0  0
    2.4510   14.9220    1.3650 C   0  0  0  0  0  0  0  0  0  0  0  0
    3.3480   14.0510   -0.8100 C   0  0  0  0  0  0  0  0  0  0  0  0
    3.0290   13.4630   -2.1980 C   0  0  0  0  0  0  0  0  0  0  0  0
    1.6190   12.8650   -2.2290 C   0  0  2  0  0  0  0  0  0  0  0  0
    1.5790   11.6820   -1.2030 C   0  0  0  0  0  0  0  0  0  0  0  0
    3.3447   11.3782   -5.3606 H   0  0  0  0  0  0  0  0  0  0  0  0
    2.1677   10.1851   -6.0070 H   0  0  0  0  0  0  0  0  0  0  0  0
    1.7640   11.9354   -6.0070 H   0  0  0  0  0  0  0  0  0  0  0  0
    2.4495   10.6476   -3.3828 H   0  0  0  0  0  0  0  0  0  0  0  0
   -0.4198   10.4345   -4.2516 H   0  0  0  0  0  0  0  0  0  0  0  0
    0.7895    9.1721   -4.7875 H   0  0  0  0  0  0  0  0  0  0  0  0
    0.8136    8.1921   -2.7952 H   0  0  0  0  0  0  0  0  0  0  0  0
    0.9664    9.7831   -1.9387 H   0  0  0  0  0  0  0  0  0  0  0  0
   -1.2096    8.2839   -2.9358 H   0  0  0  0  0  0  0  0  0  0  0  0
   -0.9437    9.5769    1.2392 H   0  0  0  0  0  0  0  0  0  0  0  0
    0.4149    9.1317    0.1517 H   0  0  0  0  0  0  0  0  0  0  0  0
   -0.2222   10.8112    0.1517 H   0  0  0  0  0  0  0  0  0  0  0  0
   -2.8007    8.7868    0.7385 H   0  0  0  0  0  0  0  0  0  0  0  0
   -3.5991    9.4152   -0.7428 H   0  0  0  0  0  0  0  0  0  0  0  0
   -2.8707    7.7732   -0.7428 H   0  0  0  0  0  0  0  0  0  0  0  0
    1.4917   12.9778   -4.4075 H   0  0  0  0  0  0  0  0  0  0  0  0
   -0.9092   12.7175   -4.3302 H   0  0  0  0  0  0  0  0  0  0  0  0
   -0.7998   11.3140   -3.2464 H   0  0  0  0  0  0  0  0  0  0  0  0
   -1.5459   13.9612   -2.4671 H   0  0  0  0  0  0  0  0  0  0  0  0
   -1.0818   12.6929   -1.3361 H   0  0  0  0  0  0  0  0  0  0  0  0
    0.6123   16.1397   -2.4692 H   0  0  0  0  0  0  0  0  0  0  0  0
    1.4960   15.0857   -3.6247 H   0  0  0  0  0  0  0  0  0  0  0  0
   -0.3001   15.1105   -3.6247 H   0  0  0  0  0  0  0  0  0  0  0  0
    0.6067   13.6488    0.1146 H   0  0  0  0  0  0  0  0  0  0  0  0
   -1.1892   15.3801   -0.5351 H   0  0  0  0  0  0  0  0  0  0  0  0
   -0.2922   15.4938    1.0684 H   0  0  0  0  0  0  0  0  0  0  0  0
   -0.6730   17.7616   -0.2178 H   0  0  0  0  0  0  0  0  0  0  0  0
    2.7924   16.3553   -1.7371 H   0  0  0  0  0  0  0  0  0  0  0  0
    3.5173   17.2418    1.1230 H   0  0  0  0  0  0  0  0  0  0  0  0
    4.6342   16.5018   -0.1083 H   0  0  0  0  0  0  0  0  0  0  0  0
    4.9364   18.9503    0.0801 H   0  0  0  0  0  0  0  0  0  0  0  0
    4.3684   18.4312   -1.5553 H   0  0  0  0  0  0  0  0  0  0  0  0
    3.1579   20.4008   -0.9095 H   0  0  0  0  0  0  0  0  0  0  0  0
    2.8340   20.6490    1.1780 H   0  0  0  0  0  0  0  0  0  0  0  0
    2.8766   19.0420   -2.8474 H   0  0  0  0  0  0  0  0  0  0  0  0
    1.4308   17.9932   -3.0372 H   0  0  0  0  0  0  0  0  0  0  0  0
    1.2501   19.7803   -3.0372 H   0  0  0  0  0  0  0  0  0  0  0  0
    0.3324   19.9889    0.3231 H   0  0  0  0  0  0  0  0  0  0  0  0
    0.6715   20.8756   -1.2018 H   0  0  0  0  0  0  0  0  0  0  0  0
   -0.4790   19.4961   -1.2018 H   0  0  0  0  0  0  0  0  0  0  0  0
    1.5763   15.3667    1.8621 H   0  0  0  0  0  0  0  0  0  0  0  0
    2.5445   13.8669    1.6619 H   0  0  0  0  0  0  0  0  0  0  0  0
    3.3585   15.4682    1.6619 H   0  0  0  0  0  0  0  0  0  0  0  0
    4.2887   14.6147   -0.8957 H   0  0  0  0  0  0  0  0  0  0  0  0
    3.3894   13.1848   -0.1332 H   0  0  0  0  0  0  0  0  0  0  0  0
    3.0980   14.2614   -2.9516 H   0  0  0  0  0  0  0  0  0  0  0  0
    3.7536   12.6645   -2.4157 H   0  0  0  0  0  0  0  0  0  0  0  0
    1.5926   12.0840   -0.1792 H   0  0  0  0  0  0  0  0  0  0  0  0
    0.6605   11.0960   -1.3547 H   0  0  0  0  0  0  0  0  0  0  0  0
    2.4558   11.0353   -1.3547 H   0  0  0  0  0  0  0  0  0  0  0  0
  1  2  1  0
  2  3  1  0
  3  4  1  0
  4  5  1  0
  5  6  1  0
  6  7  1  0
  7  8  1  0
  7  9  1  0
  2 10  1  0
 10 11  1  0
 11 12  1  0
 12 13  1  0
 13 14  1  6
 13 15  1  0
 15 16  1  0
 16 17  1  0
 17 18  2  0
 18 19  1  0
 19 20  1  0
 20 21  1  0
 21 22  1  0
 22 23  1  0
 22 24  1  0
 24 25  1  0
 24 26  1  0
 19 27  1  0
 27 28  1  1
 27 29  1  0
 29 30  1  0
 30 31  1  0
 31 32  1  1
  7  5  1  0
 31 10  1  0
 31 13  1  0
 27 15  1  0
 24 18  1  0
  1 33  1  0
  1 34  1  0
  1 35  1  0
  2 36  1  1
  3 37  1  0
  3 38  1  0
  4 39  1  0
  4 40  1  0
  5 41  1  6
  8 42  1  0
  8 43  1  0
  8 44  1  0
  9 45  1  0
  9 46  1  0
  9 47  1  0
 10 48  1  6
 11 49  1  0
 11 50  1  0
 12 51  1  0
 12 52  1  0
 14 53  1  0
 14 54  1  0
 14 55  1  0
 15 56  1  1
 16 57  1  0
 16 58  1  0
 17 59  1  0
 19 60  1  6
 20 61  1  0
 20 62  1  0
 21 63  1  0
 21 64  1  0
 22 65  1  6
 23 66  1  0
 25 67  1  0
 25 68  1  0
 25 69  1  0
 26 70  1  0
 26 71  1  0
 26 72  1  0
 28 73  1  0
 28 74  1  0
 28 75  1  0
 29 76  1  0
 29 77  1  0
 30 78  1  0
 30 79  1  0
 32 80  1  0
 32 81  1  0
 32 82  1  0
M  END
>  <meeko>  (18) 
{"is_sidechain": [false], "intermolecular_energy": 2.731, "internal_energy": -0.839}

$$$$
