EPH_relaxed_0001_pdb2pqr_Repair_45_r2_0001_out
     RDKit          3D

 82 86  0  0  0  0  0  0  0  0999 V2000
   -1.6130    8.5800   -1.8650 C   0  0  0  0  0  0  0  0  0  0  0  0
   -1.9290    9.0730   -0.4500 C   0  0  2  0  0  0  0  0  0  0  0  0
   -3.4210    9.4170   -0.2740 C   0  0  0  0  0  0  0  0  0  0  0  0
   -4.3390    8.1910   -0.2710 C   0  0  0  0  0  0  0  0  0  0  0  0
   -5.1620    8.1110   -1.5210 C   0  0  2  0  0  0  0  0  0  0  0  0
   -6.3070    8.9730   -1.5390 O   0  0  0  0  0  0  0  0  0  0  0  0
   -6.5760    7.5620   -1.5580 C   0  0  0  0  0  0  0  0  0  0  0  0
   -7.2480    7.0540   -0.3210 C   0  0  0  0  0  0  0  0  0  0  0  0
   -7.1180    7.0690   -2.8630 C   0  0  0  0  0  0  0  0  0  0  0  0
   -1.0720   10.2890   -0.1190 C   0  0  1  0  0  0  0  0  0  0  0  0
    0.0050    9.9870    0.9570 C   0  0  0  0  0  0  0  0  0  0  0  0
    1.2520   10.8340    0.5920 C   0  0  0  0  0  0  0  0  0  0  0  0
    0.7450   11.8350   -0.4720 C   0  0  1  0  0  0  0  0  0  0  0  0
    0.0540   12.9730    0.3430 C   0  0  0  0  0  0  0  0  0  0  0  0
    1.8210   12.4010   -1.4560 C   0  0  2  0  0  0  0  0  0  0  0  0
    2.9400   13.2250   -0.7950 C   0  0  0  0  0  0  0  0  0  0  0  0
    2.6740   14.6900   -0.6870 C   0  0  0  0  0  0  0  0  0  0  0  0
    1.7170   15.3620   -1.3530 C   0  0  0  0  0  0  0  0  0  0  0  0
    0.8400   14.6580   -2.3960 C   0  0  1  0  0  0  0  0  0  0  0  0
    0.7540   15.5320   -3.6750 C   0  0  0  0  0  0  0  0  0  0  0  0
    0.2820   16.9530   -3.3810 C   0  0  0  0  0  0  0  0  0  0  0  0
    1.2120   17.6410   -2.3830 C   0  0  2  0  0  0  0  0  0  0  0  0
    2.4890   17.8320   -3.0000 O   0  0  0  0  0  0  0  0  0  0  0  0
    1.3850   16.8460   -1.0590 C   0  0  0  0  0  0  0  0  0  0  0  0
    0.0680   16.8980   -0.2450 C   0  0  0  0  0  0  0  0  0  0  0  0
    2.4530   17.5750   -0.2010 C   0  0  0  0  0  0  0  0  0  0  0  0
    1.2200   13.1480   -2.7150 C   0  0  1  0  0  0  0  0  0  0  0  0
    2.3120   13.0960   -3.8260 C   0  0  0  0  0  0  0  0  0  0  0  0
   -0.0440   12.4120   -3.2990 C   0  0  0  0  0  0  0  0  0  0  0  0
   -1.0070   11.7710   -2.2820 C   0  0  0  0  0  0  0  0  0  0  0  0
   -0.2430   10.9090   -1.2720 C   0  0  2  0  0  0  0  0  0  0  0  0
    0.4450    9.7430   -2.0600 C   0  0  0  0  0  0  0  0  0  0  0  0
   -1.0202    7.6552   -1.8072 H   0  0  0  0  0  0  0  0  0  0  0  0
   -2.5520    8.3807   -2.4021 H   0  0  0  0  0  0  0  0  0  0  0  0
   -1.0397    9.3500   -2.4021 H   0  0  0  0  0  0  0  0  0  0  0  0
   -1.6952    8.2531    0.2450 H   0  0  0  0  0  0  0  0  0  0  0  0
   -3.5450    9.9461    0.6824 H   0  0  0  0  0  0  0  0  0  0  0  0
   -3.7124   10.0349   -1.1361 H   0  0  0  0  0  0  0  0  0  0  0  0
   -3.7218    7.2839   -0.1920 H   0  0  0  0  0  0  0  0  0  0  0  0
   -5.0240    8.2779    0.5853 H   0  0  0  0  0  0  0  0  0  0  0  0
   -4.2688    7.8895   -2.1235 H   0  0  0  0  0  0  0  0  0  0  0  0
   -6.7288    7.4465    0.5658 H   0  0  0  0  0  0  0  0  0  0  0  0
   -8.2962    7.3875   -0.3098 H   0  0  0  0  0  0  0  0  0  0  0  0
   -7.2129    5.9546   -0.3098 H   0  0  0  0  0  0  0  0  0  0  0  0
   -7.9198    6.3397   -2.6750 H   0  0  0  0  0  0  0  0  0  0  0  0
   -7.5206    7.9169   -3.4366 H   0  0  0  0  0  0  0  0  0  0  0  0
   -6.3120    6.5881   -3.4366 H   0  0  0  0  0  0  0  0  0  0  0  0
   -1.8595   10.9888    0.1976 H   0  0  0  0  0  0  0  0  0  0  0  0
   -0.3658   10.2687    1.9536 H   0  0  0  0  0  0  0  0  0  0  0  0
    0.2492    8.9147    0.9813 H   0  0  0  0  0  0  0  0  0  0  0  0
    1.6323   11.3665    1.4762 H   0  0  0  0  0  0  0  0  0  0  0  0
    2.0826   10.2156    0.2210 H   0  0  0  0  0  0  0  0  0  0  0  0
    0.1727   12.7775    1.4190 H   0  0  0  0  0  0  0  0  0  0  0  0
    0.5189   13.9379    0.0922 H   0  0  0  0  0  0  0  0  0  0  0  0
   -1.0165   13.0056    0.0922 H   0  0  0  0  0  0  0  0  0  0  0  0
    2.3038   11.4857   -1.8290 H   0  0  0  0  0  0  0  0  0  0  0  0
    3.0969   12.8322    0.2204 H   0  0  0  0  0  0  0  0  0  0  0  0
    3.8195   13.1226   -1.4476 H   0  0  0  0  0  0  0  0  0  0  0  0
    3.3144   15.2691   -0.0054 H   0  0  0  0  0  0  0  0  0  0  0  0
   -0.1568   14.5626   -1.9407 H   0  0  0  0  0  0  0  0  0  0  0  0
    1.7510   15.5800   -4.1372 H   0  0  0  0  0  0  0  0  0  0  0  0
    0.0181   15.0679   -4.3481 H   0  0  0  0  0  0  0  0  0  0  0  0
    0.2694   17.5293   -4.3178 H   0  0  0  0  0  0  0  0  0  0  0  0
   -0.7270   16.9051   -2.9456 H   0  0  0  0  0  0  0  0  0  0  0  0
    0.7531   18.6035   -2.1130 H   0  0  0  0  0  0  0  0  0  0  0  0
    3.1570   17.4220   -2.4250 H   0  0  0  0  0  0  0  0  0  0  0  0
    0.3008   16.8888    0.8300 H   0  0  0  0  0  0  0  0  0  0  0  0
   -0.4806   17.8185   -0.4935 H   0  0  0  0  0  0  0  0  0  0  0  0
   -0.5514   16.0236   -0.4935 H   0  0  0  0  0  0  0  0  0  0  0  0
    2.2318   17.4240    0.8659 H   0  0  0  0  0  0  0  0  0  0  0  0
    3.4485   17.1671   -0.4304 H   0  0  0  0  0  0  0  0  0  0  0  0
    2.4358   18.6507   -0.4304 H   0  0  0  0  0  0  0  0  0  0  0  0
    3.3073   13.0486   -3.3599 H   0  0  0  0  0  0  0  0  0  0  0  0
    2.1570   12.2042   -4.4511 H   0  0  0  0  0  0  0  0  0  0  0  0
    2.2424   13.9985   -4.4511 H   0  0  0  0  0  0  0  0  0  0  0  0
   -0.6174   13.1477   -3.8821 H   0  0  0  0  0  0  0  0  0  0  0  0
    0.3575   11.5714   -3.8840 H   0  0  0  0  0  0  0  0  0  0  0  0
   -1.5433   12.5662   -1.7435 H   0  0  0  0  0  0  0  0  0  0  0  0
   -1.7156   11.1292   -2.8260 H   0  0  0  0  0  0  0  0  0  0  0  0
    0.8712    9.0208   -1.3481 H   0  0  0  0  0  0  0  0  0  0  0  0
   -0.3000    9.2383   -2.6926 H   0  0  0  0  0  0  0  0  0  0  0  0
    1.2470   10.1511   -2.6926 H   0  0  0  0  0  0  0  0  0  0  0  0
  1  2  1  0
  2  3  1  0
  3  4  1  0
  4  5  1  0
  5  6  1  0
  6  7  1  0
  7  8  1  0
  7  9  1  0
  2 10  1  0
 10 11  1  0
 11 12  1  0
 12 13  1  0
 13 14  1  1
 13 15  1  0
 15 16  1  0
 16 17  1  0
 17 18  2  0
 18 19  1  0
 19 20  1  0
 20 21  1  0
 21 22  1  0
 22 23  1  0
 22 24  1  0
 24 25  1  0
 24 26  1  0
 19 27  1  0
 27 28  1  6
 27 29  1  0
 29 30  1  0
 30 31  1  0
 31 32  1  6
  7  5  1  0
 31 10  1  0
 31 13  1  0
 27 15  1  0
 24 18  1  0
  1 33  1  0
  1 34  1  0
  1 35  1  0
  2 36  1  1
  3 37  1  0
  3 38  1  0
  4 39  1  0
  4 40  1  0
  5 41  1  6
  8 42  1  0
  8 43  1  0
  8 44  1  0
  9 45  1  0
  9 46  1  0
  9 47  1  0
 10 48  1  1
 11 49  1  0
 11 50  1  0
 12 51  1  0
 12 52  1  0
 14 53  1  0
 14 54  1  0
 14 55  1  0
 15 56  1  6
 16 57  1  0
 16 58  1  0
 17 59  1  0
 19 60  1  1
 20 61  1  0
 20 62  1  0
 21 63  1  0
 21 64  1  0
 22 65  1  1
 23 66  1  0
 25 67  1  0
 25 68  1  0
 25 69  1  0
 26 70  1  0
 26 71  1  0
 26 72  1  0
 28 73  1  0
 28 74  1  0
 28 75  1  0
 29 76  1  0
 29 77  1  0
 30 78  1  0
 30 79  1  0
 32 80  1  0
 32 81  1  0
 32 82  1  0
M  END
>  <meeko>  (1) 
{"is_sidechain": [false], "intermolecular_energy": 2.731, "internal_energy": -0.839}

$$$$
EPH_relaxed_0001_pdb2pqr_Repair_45_r2_0001_out
     RDKit          3D

 82 86  0  0  0  0  0  0  0  0999 V2000
    4.2260   17.5000   -0.5970 C   0  0  0  0  0  0  0  0  0  0  0  0
    2.8620   18.0830   -0.2190 C   0  0  2  0  0  0  0  0  0  0  0  0
    2.8950   18.8030    1.1440 C   0  0  0  0  0  0  0  0  0  0  0  0
    4.2440   18.6990    1.8620 C   0  0  0  0  0  0  0  0  0  0  0  0
    4.1630   19.2050    3.2700 C   0  0  2  0  0  0  0  0  0  0  0  0
    5.1430   20.1940    3.6090 O   0  0  0  0  0  0  0  0  0  0  0  0
    5.2320   18.9470    4.3150 C   0  0  0  0  0  0  0  0  0  0  0  0
    6.4600   18.1530    3.9950 C   0  0  0  0  0  0  0  0  0  0  0  0
    4.8590   19.0450    5.7610 C   0  0  0  0  0  0  0  0  0  0  0  0
    1.8120   16.9780   -0.1990 C   0  0  1  0  0  0  0  0  0  0  0  0
    0.3840   17.5050   -0.5000 C   0  0  0  0  0  0  0  0  0  0  0  0
   -0.3450   16.3920   -1.2970 C   0  0  0  0  0  0  0  0  0  0  0  0
    0.5590   15.1460   -1.1410 C   0  0  1  0  0  0  0  0  0  0  0  0
    0.1940   14.5580    0.2580 C   0  0  0  0  0  0  0  0  0  0  0  0
    0.4480   14.0680   -2.2680 C   0  0  2  0  0  0  0  0  0  0  0  0
   -0.9340   13.4060   -2.4030 C   0  0  0  0  0  0  0  0  0  0  0  0
   -1.1330   12.1700   -1.5890 C   0  0  0  0  0  0  0  0  0  0  0  0
   -0.1550   11.4540   -1.0040 C   0  0  0  0  0  0  0  0  0  0  0  0
    1.3210   11.8160   -1.2150 C   0  0  1  0  0  0  0  0  0  0  0  0
    2.1280   10.5300   -1.5360 C   0  0  0  0  0  0  0  0  0  0  0  0
    1.9390    9.4430   -0.4830 C   0  0  0  0  0  0  0  0  0  0  0  0
    0.4650    9.0690   -0.3430 C   0  0  2  0  0  0  0  0  0  0  0  0
    0.0320    8.4420   -1.5540 O   0  0  0  0  0  0  0  0  0  0  0  0
   -0.4480   10.2870   -0.0290 C   0  0  0  0  0  0  0  0  0  0  0  0
   -0.1800   10.7800    1.4140 C   0  0  0  0  0  0  0  0  0  0  0  0
   -1.9210    9.7980   -0.0540 C   0  0  0  0  0  0  0  0  0  0  0  0
    1.6060   12.9890   -2.2490 C   0  0  1  0  0  0  0  0  0  0  0  0
    1.7020   12.4130   -3.6950 C   0  0  0  0  0  0  0  0  0  0  0  0
    3.0110   13.6250   -1.9300 C   0  0  0  0  0  0  0  0  0  0  0  0
    3.0380   14.7670   -0.8960 C   0  0  0  0  0  0  0  0  0  0  0  0
    1.9760   15.8230   -1.2180 C   0  0  2  0  0  0  0  0  0  0  0  0
    2.3290   16.4480   -2.6110 C   0  0  0  0  0  0  0  0  0  0  0  0
    4.7882   17.2597    0.3174 H   0  0  0  0  0  0  0  0  0  0  0  0
    4.0820   16.5848   -1.1900 H   0  0  0  0  0  0  0  0  0  0  0  0
    4.7880   18.2365   -1.1900 H   0  0  0  0  0  0  0  0  0  0  0  0
    2.5998   18.8317   -0.9811 H   0  0  0  0  0  0  0  0  0  0  0  0
    2.6697   19.8672    0.9803 H   0  0  0  0  0  0  0  0  0  0  0  0
    2.1499   18.3106    1.7861 H   0  0  0  0  0  0  0  0  0  0  0  0
    4.5581   17.6450    1.8795 H   0  0  0  0  0  0  0  0  0  0  0  0
    4.9714   19.3182    1.3165 H   0  0  0  0  0  0  0  0  0  0  0  0
    3.0717   19.0670    3.2808 H   0  0  0  0  0  0  0  0  0  0  0  0
    6.9470   17.8381    4.9297 H   0  0  0  0  0  0  0  0  0  0  0  0
    6.1800   17.2645    3.4101 H   0  0  0  0  0  0  0  0  0  0  0  0
    7.1554   18.7729    3.4101 H   0  0  0  0  0  0  0  0  0  0  0  0
    5.7368   18.8144    6.3825 H   0  0  0  0  0  0  0  0  0  0  0  0
    4.5113   20.0650    5.9817 H   0  0  0  0  0  0  0  0  0  0  0  0
    4.0548   18.3277    5.9817 H   0  0  0  0  0  0  0  0  0  0  0  0
    1.9606   16.6010    0.8237 H   0  0  0  0  0  0  0  0  0  0  0  0
   -0.1501   17.7098    0.4396 H   0  0  0  0  0  0  0  0  0  0  0  0
    0.4219   18.4421   -1.0748 H   0  0  0  0  0  0  0  0  0  0  0  0
   -1.3434   16.2029   -0.8757 H   0  0  0  0  0  0  0  0  0  0  0  0
   -0.4999   16.6662   -2.3509 H   0  0  0  0  0  0  0  0  0  0  0  0
    0.5985   15.2096    1.0465 H   0  0  0  0  0  0  0  0  0  0  0  0
   -0.9000   14.4987    0.3567 H   0  0  0  0  0  0  0  0  0  0  0  0
    0.6262   13.5513    0.3567 H   0  0  0  0  0  0  0  0  0  0  0  0
    0.5837   14.6661   -3.1812 H   0  0  0  0  0  0  0  0  0  0  0  0
   -1.6937   14.1403   -2.0968 H   0  0  0  0  0  0  0  0  0  0  0  0
   -1.0200   13.0943   -3.4544 H   0  0  0  0  0  0  0  0  0  0  0  0
   -2.1656   11.8149   -1.4564 H   0  0  0  0  0  0  0  0  0  0  0  0
    1.6678   12.2473   -0.2644 H   0  0  0  0  0  0  0  0  0  0  0  0
    1.7965   10.1394   -2.5094 H   0  0  0  0  0  0  0  0  0  0  0  0
    3.1943   10.7997   -1.5499 H   0  0  0  0  0  0  0  0  0  0  0  0
    2.5101    8.5510   -0.7799 H   0  0  0  0  0  0  0  0  0  0  0  0
    2.2976    9.8250    0.4842 H   0  0  0  0  0  0  0  0  0  0  0  0
    0.3777    8.3829    0.5124 H   0  0  0  0  0  0  0  0  0  0  0  0
    0.7700    8.4810   -2.1860 H   0  0  0  0  0  0  0  0  0  0  0  0
   -0.5782   10.0475    2.1316 H   0  0  0  0  0  0  0  0  0  0  0  0
    0.9034   10.8924    1.5678 H   0  0  0  0  0  0  0  0  0  0  0  0
   -0.6748   11.7503    1.5678 H   0  0  0  0  0  0  0  0  0  0  0  0
   -2.2848    9.6772    0.9771 H   0  0  0  0  0  0  0  0  0  0  0  0
   -2.5440   10.5375   -0.5784 H   0  0  0  0  0  0  0  0  0  0  0  0
   -1.9780    8.8327   -0.5784 H   0  0  0  0  0  0  0  0  0  0  0  0
    1.8827   11.3290   -3.6466 H   0  0  0  0  0  0  0  0  0  0  0  0
    0.7596   12.6042   -4.2292 H   0  0  0  0  0  0  0  0  0  0  0  0
    2.5315   12.8995   -4.2292 H   0  0  0  0  0  0  0  0  0  0  0  0
    3.6627   12.8217   -1.5557 H   0  0  0  0  0  0  0  0  0  0  0  0
    3.3404   14.0836   -2.8740 H   0  0  0  0  0  0  0  0  0  0  0  0
    2.8415   14.3521    0.1036 H   0  0  0  0  0  0  0  0  0  0  0  0
    4.0284   15.2447   -0.9266 H   0  0  0  0  0  0  0  0  0  0  0  0
    2.8650   17.3970   -2.4619 H   0  0  0  0  0  0  0  0  0  0  0  0
    2.9669   15.7512   -3.1745 H   0  0  0  0  0  0  0  0  0  0  0  0
    1.4029   16.6346   -3.1745 H   0  0  0  0  0  0  0  0  0  0  0  0
  1  2  1  0
  2  3  1  0
  3  4  1  0
  4  5  1  0
  5  6  1  0
  6  7  1  0
  7  8  1  0
  7  9  1  0
  2 10  1  0
 10 11  1  0
 11 12  1  0
 12 13  1  0
 13 14  1  1
 13 15  1  0
 15 16  1  0
 16 17  1  0
 17 18  2  0
 18 19  1  0
 19 20  1  0
 20 21  1  0
 21 22  1  0
 22 23  1  0
 22 24  1  0
 24 25  1  0
 24 26  1  0
 19 27  1  0
 27 28  1  6
 27 29  1  0
 29 30  1  0
 30 31  1  0
 31 32  1  6
  7  5  1  0
 31 10  1  0
 31 13  1  0
 27 15  1  0
 24 18  1  0
  1 33  1  0
  1 34  1  0
  1 35  1  0
  2 36  1  6
  3 37  1  0
  3 38  1  0
  4 39  1  0
  4 40  1  0
  5 41  1  1
  8 42  1  0
  8 43  1  0
  8 44  1  0
  9 45  1  0
  9 46  1  0
  9 47  1  0
 10 48  1  1
 11 49  1  0
 11 50  1  0
 12 51  1  0
 12 52  1  0
 14 53  1  0
 14 54  1  0
 14 55  1  0
 15 56  1  6
 16 57  1  0
 16 58  1  0
 17 59  1  0
 19 60  1  1
 20 61  1  0
 20 62  1  0
 21 63  1  0
 21 64  1  0
 22 65  1  1
 23 66  1  0
 25 67  1  0
 25 68  1  0
 25 69  1  0
 26 70  1  0
 26 71  1  0
 26 72  1  0
 28 73  1  0
 28 74  1  0
 28 75  1  0
 29 76  1  0
 29 77  1  0
 30 78  1  0
 30 79  1  0
 32 80  1  0
 32 81  1  0
 32 82  1  0
M  END
>  <meeko>  (2) 
{"is_sidechain": [false], "intermolecular_energy": 2.731, "internal_energy": -0.839}

$$$$
EPH_relaxed_0001_pdb2pqr_Repair_45_r2_0001_out
     RDKit          3D

 82 86  0  0  0  0  0  0  0  0999 V2000
    2.3850   17.9550   -2.7030 C   0  0  0  0  0  0  0  0  0  0  0  0
    1.0790   17.5860   -1.9940 C   0  0  2  0  0  0  0  0  0  0  0  0
    1.2150   17.6440   -0.4590 C   0  0  0  0  0  0  0  0  0  0  0  0
    0.9160   19.0240    0.1330 C   0  0  0  0  0  0  0  0  0  0  0  0
   -0.5240   19.1600    0.5250 C   0  0  2  0  0  0  0  0  0  0  0  0
   -1.4090   18.2340   -0.1200 O   0  0  0  0  0  0  0  0  0  0  0  0
   -1.6100   19.6230   -0.4280 C   0  0  0  0  0  0  0  0  0  0  0  0
   -1.3010   19.9820   -1.8480 C   0  0  0  0  0  0  0  0  0  0  0  0
   -2.8700   20.1920    0.1460 C   0  0  0  0  0  0  0  0  0  0  0  0
    0.6290   16.1950   -2.4250 C   0  0  1  0  0  0  0  0  0  0  0  0
    0.7310   15.9820   -3.9590 C   0  0  0  0  0  0  0  0  0  0  0  0
    1.1290   14.5000   -4.1800 C   0  0  0  0  0  0  0  0  0  0  0  0
    0.9190   13.8310   -2.8010 C   0  0  1  0  0  0  0  0  0  0  0  0
   -0.6120   13.5390   -2.7260 C   0  0  0  0  0  0  0  0  0  0  0  0
    1.7660   12.5460   -2.5210 C   0  0  2  0  0  0  0  0  0  0  0  0
    1.4850   11.3620   -3.4630 C   0  0  0  0  0  0  0  0  0  0  0  0
    0.4210   10.4200   -3.0030 C   0  0  0  0  0  0  0  0  0  0  0  0
   -0.0820   10.3570   -1.7560 C   0  0  0  0  0  0  0  0  0  0  0  0
    0.4920   11.2260   -0.6300 C   0  0  1  0  0  0  0  0  0  0  0  0
    0.7120   10.3560    0.6350 C   0  0  0  0  0  0  0  0  0  0  0  0
   -0.5500    9.6110    1.0590 C   0  0  0  0  0  0  0  0  0  0  0  0
   -1.0580    8.7130   -0.0670 C   0  0  2  0  0  0  0  0  0  0  0  0
   -0.1070    7.6660   -0.2850 O   0  0  0  0  0  0  0  0  0  0  0  0
   -1.3060    9.4790   -1.3970 C   0  0  0  0  0  0  0  0  0  0  0  0
   -2.5390   10.4030   -1.2420 C   0  0  0  0  0  0  0  0  0  0  0  0
   -1.6780    8.4370   -2.4850 C   0  0  0  0  0  0  0  0  0  0  0  0
    1.7710   12.0910   -1.0060 C   0  0  1  0  0  0  0  0  0  0  0  0
    3.0650   11.2450   -0.7990 C   0  0  0  0  0  0  0  0  0  0  0  0
    1.8760   13.3110   -0.0150 C   0  0  0  0  0  0  0  0  0  0  0  0
    1.1140   14.5910   -0.4070 C   0  0  0  0  0  0  0  0  0  0  0  0
    1.4140   14.9860   -1.8570 C   0  0  2  0  0  0  0  0  0  0  0  0
    2.9440   15.3060   -1.9590 C   0  0  0  0  0  0  0  0  0  0  0  0
    3.1599   18.1739   -1.9536 H   0  0  0  0  0  0  0  0  0  0  0  0
    2.7109   17.1138   -3.3324 H   0  0  0  0  0  0  0  0  0  0  0  0
    2.2225   18.8424   -3.3324 H   0  0  0  0  0  0  0  0  0  0  0  0
    0.3222   18.3288   -2.2864 H   0  0  0  0  0  0  0  0  0  0  0  0
    0.5140   16.9185   -0.0205 H   0  0  0  0  0  0  0  0  0  0  0  0
    2.2632   17.4115   -0.2198 H   0  0  0  0  0  0  0  0  0  0  0  0
    1.5434   19.1729    1.0242 H   0  0  0  0  0  0  0  0  0  0  0  0
    1.1348   19.7807   -0.6348 H   0  0  0  0  0  0  0  0  0  0  0  0
   -0.2429   19.4859    1.5373 H   0  0  0  0  0  0  0  0  0  0  0  0
   -0.5835   20.8156   -1.8677 H   0  0  0  0  0  0  0  0  0  0  0  0
   -0.8655   19.1112   -2.3599 H   0  0  0  0  0  0  0  0  0  0  0  0
   -2.2269   20.2830   -2.3599 H   0  0  0  0  0  0  0  0  0  0  0  0
   -2.8162   20.1677    1.2444 H   0  0  0  0  0  0  0  0  0  0  0  0
   -2.9902   21.2318   -0.1923 H   0  0  0  0  0  0  0  0  0  0  0  0
   -3.7295   19.5947   -0.1923 H   0  0  0  0  0  0  0  0  0  0  0  0
   -0.3956   16.2008   -2.0247 H   0  0  0  0  0  0  0  0  0  0  0  0
   -0.2387   16.1887   -4.4353 H   0  0  0  0  0  0  0  0  0  0  0  0
    1.4741   16.6607   -4.4032 H   0  0  0  0  0  0  0  0  0  0  0  0
    0.4848   14.0339   -4.9401 H   0  0  0  0  0  0  0  0  0  0  0  0
    2.1623   14.3946   -4.5423 H   0  0  0  0  0  0  0  0  0  0  0  0
   -0.9228   13.4797   -1.6725 H   0  0  0  0  0  0  0  0  0  0  0  0
   -1.1645   14.3480   -3.2263 H   0  0  0  0  0  0  0  0  0  0  0  0
   -0.8280   12.5835   -3.2263 H   0  0  0  0  0  0  0  0  0  0  0  0
    2.7872   12.8797   -2.7570 H   0  0  0  0  0  0  0  0  0  0  0  0
    1.1805   11.7686   -4.4387 H   0  0  0  0  0  0  0  0  0  0  0  0
    2.4150   10.7758   -3.5012 H   0  0  0  0  0  0  0  0  0  0  0  0
    0.0141    9.7184   -3.7461 H   0  0  0  0  0  0  0  0  0  0  0  0
   -0.2650   11.9973   -0.4249 H   0  0  0  0  0  0  0  0  0  0  0  0
    1.5018    9.6201    0.4239 H   0  0  0  0  0  0  0  0  0  0  0  0
    0.9951   11.0287    1.4580 H   0  0  0  0  0  0  0  0  0  0  0  0
   -0.3237    8.9914    1.9393 H   0  0  0  0  0  0  0  0  0  0  0  0
   -1.3297   10.3491    1.2983 H   0  0  0  0  0  0  0  0  0  0  0  0
   -2.0310    8.3075    0.2472 H   0  0  0  0  0  0  0  0  0  0  0  0
    0.7210    8.0780   -0.5830 H   0  0  0  0  0  0  0  0  0  0  0  0
   -2.7479   10.5595   -0.1734 H   0  0  0  0  0  0  0  0  0  0  0  0
   -2.3339   11.3716   -1.7212 H   0  0  0  0  0  0  0  0  0  0  0  0
   -3.4111    9.9342   -1.7212 H   0  0  0  0  0  0  0  0  0  0  0  0
   -2.0104    7.5060   -2.0026 H   0  0  0  0  0  0  0  0  0  0  0  0
   -2.4895    8.8352   -3.1118 H   0  0  0  0  0  0  0  0  0  0  0  0
   -0.7978    8.2312   -3.1118 H   0  0  0  0  0  0  0  0  0  0  0  0
    3.2540   11.1214    0.2776 H   0  0  0  0  0  0  0  0  0  0  0  0
    2.9353   10.2567   -1.2643 H   0  0  0  0  0  0  0  0  0  0  0  0
    3.9183   11.7602   -1.2643 H   0  0  0  0  0  0  0  0  0  0  0  0
    1.4919   12.9808    0.9614 H   0  0  0  0  0  0  0  0  0  0  0  0
    2.9386   13.5954   -0.0198 H   0  0  0  0  0  0  0  0  0  0  0  0
    0.0338   14.4141   -0.2984 H   0  0  0  0  0  0  0  0  0  0  0  0
    1.4388   15.4085    0.2534 H   0  0  0  0  0  0  0  0  0  0  0  0
    3.3682   15.3947   -0.9480 H   0  0  0  0  0  0  0  0  0  0  0  0
    3.4530   14.4949   -2.5003 H   0  0  0  0  0  0  0  0  0  0  0  0
    3.0852   16.2531   -2.5003 H   0  0  0  0  0  0  0  0  0  0  0  0
  1  2  1  0
  2  3  1  0
  3  4  1  0
  4  5  1  0
  5  6  1  0
  6  7  1  0
  7  8  1  0
  7  9  1  0
  2 10  1  0
 10 11  1  0
 11 12  1  0
 12 13  1  0
 13 14  1  1
 13 15  1  0
 15 16  1  0
 16 17  1  0
 17 18  2  0
 18 19  1  0
 19 20  1  0
 20 21  1  0
 21 22  1  0
 22 23  1  0
 22 24  1  0
 24 25  1  0
 24 26  1  0
 19 27  1  0
 27 28  1  6
 27 29  1  0
 29 30  1  0
 30 31  1  0
 31 32  1  1
  7  5  1  0
 31 10  1  0
 31 13  1  0
 27 15  1  0
 24 18  1  0
  1 33  1  0
  1 34  1  0
  1 35  1  0
  2 36  1  6
  3 37  1  0
  3 38  1  0
  4 39  1  0
  4 40  1  0
  5 41  1  1
  8 42  1  0
  8 43  1  0
  8 44  1  0
  9 45  1  0
  9 46  1  0
  9 47  1  0
 10 48  1  1
 11 49  1  0
 11 50  1  0
 12 51  1  0
 12 52  1  0
 14 53  1  0
 14 54  1  0
 14 55  1  0
 15 56  1  6
 16 57  1  0
 16 58  1  0
 17 59  1  0
 19 60  1  1
 20 61  1  0
 20 62  1  0
 21 63  1  0
 21 64  1  0
 22 65  1  1
 23 66  1  0
 25 67  1  0
 25 68  1  0
 25 69  1  0
 26 70  1  0
 26 71  1  0
 26 72  1  0
 28 73  1  0
 28 74  1  0
 28 75  1  0
 29 76  1  0
 29 77  1  0
 30 78  1  0
 30 79  1  0
 32 80  1  0
 32 81  1  0
 32 82  1  0
M  END
>  <meeko>  (3) 
{"is_sidechain": [false], "intermolecular_energy": 2.731, "internal_energy": -0.839}

$$$$
EPH_relaxed_0001_pdb2pqr_Repair_45_r2_0001_out
     RDKit          3D

 82 86  0  0  0  0  0  0  0  0999 V2000
    2.1970   18.0040   -2.5490 C   0  0  0  0  0  0  0  0  0  0  0  0
    0.6750   17.8510   -2.6210 C   0  0  2  0  0  0  0  0  0  0  0  0
   -0.0170   18.3180   -1.3250 C   0  0  0  0  0  0  0  0  0  0  0  0
    0.7280   17.9160   -0.0500 C   0  0  0  0  0  0  0  0  0  0  0  0
    1.2820   19.1090    0.6690 C   0  0  2  0  0  0  0  0  0  0  0  0
    2.1780   19.9130   -0.1090 O   0  0  0  0  0  0  0  0  0  0  0  0
    2.7460   19.2580    1.0360 C   0  0  0  0  0  0  0  0  0  0  0  0
    3.7480   18.1990    0.6980 C   0  0  0  0  0  0  0  0  0  0  0  0
    3.1140   20.1940    2.1450 C   0  0  0  0  0  0  0  0  0  0  0  0
    0.3120   16.4000   -2.9120 C   0  0  1  0  0  0  0  0  0  0  0  0
    0.3930   16.0550   -4.4230 C   0  0  0  0  0  0  0  0  0  0  0  0
    0.8860   14.5890   -4.5220 C   0  0  0  0  0  0  0  0  0  0  0  0
    0.7540   14.0360   -3.0830 C   0  0  1  0  0  0  0  0  0  0  0  0
   -0.7530   13.6520   -2.9380 C   0  0  0  0  0  0  0  0  0  0  0  0
    1.6920   12.8410   -2.7130 C   0  0  2  0  0  0  0  0  0  0  0  0
    1.4710   11.5590   -3.5360 C   0  0  0  0  0  0  0  0  0  0  0  0
    0.4840   10.5960   -2.9640 C   0  0  0  0  0  0  0  0  0  0  0  0
    0.0150   10.6140   -1.7030 C   0  0  0  0  0  0  0  0  0  0  0  0
    0.5540   11.6180   -0.6760 C   0  0  1  0  0  0  0  0  0  0  0  0
    0.8610   10.8840    0.6560 C   0  0  0  0  0  0  0  0  0  0  0  0
   -0.3380   10.0990    1.1800 C   0  0  0  0  0  0  0  0  0  0  0  0
   -0.8080    9.0700    0.1550 C   0  0  2  0  0  0  0  0  0  0  0  0
    0.2070    8.0720    0.0040 O   0  0  0  0  0  0  0  0  0  0  0  0
   -1.1370    9.6930   -1.2300 C   0  0  0  0  0  0  0  0  0  0  0  0
   -2.4270   10.5450   -1.1250 C   0  0  0  0  0  0  0  0  0  0  0  0
   -1.4620    8.5340   -2.2100 C   0  0  0  0  0  0  0  0  0  0  0  0
    1.7620   12.5280   -1.1640 C   0  0  1  0  0  0  0  0  0  0  0  0
    3.1150   11.7910   -0.9200 C   0  0  0  0  0  0  0  0  0  0  0  0
    1.8060   13.8370   -0.2900 C   0  0  0  0  0  0  0  0  0  0  0  0
    0.9500   15.0230   -0.7740 C   0  0  0  0  0  0  0  0  0  0  0  0
    1.1890   15.3020   -2.2610 C   0  0  2  0  0  0  0  0  0  0  0  0
    2.6920   15.7120   -2.4350 C   0  0  0  0  0  0  0  0  0  0  0  0
    2.5129   18.0358   -1.4958 H   0  0  0  0  0  0  0  0  0  0  0  0
    2.6755   17.1494   -3.0497 H   0  0  0  0  0  0  0  0  0  0  0  0
    2.4959   18.9367   -3.0497 H   0  0  0  0  0  0  0  0  0  0  0  0
    0.3156   18.4947   -3.4373 H   0  0  0  0  0  0  0  0  0  0  0  0
   -0.0963   19.4149   -1.3496 H   0  0  0  0  0  0  0  0  0  0  0  0
   -1.0005   17.8265   -1.2909 H   0  0  0  0  0  0  0  0  0  0  0  0
    0.0314   17.3888    0.6185 H   0  0  0  0  0  0  0  0  0  0  0  0
    1.5690   17.2668   -0.3350 H   0  0  0  0  0  0  0  0  0  0  0  0
    0.3593   19.2123    1.2589 H   0  0  0  0  0  0  0  0  0  0  0  0
    4.1545   17.7694    1.6255 H   0  0  0  0  0  0  0  0  0  0  0  0
    3.2606   17.4073    0.1100 H   0  0  0  0  0  0  0  0  0  0  0  0
    4.5654   18.6419    0.1100 H   0  0  0  0  0  0  0  0  0  0  0  0
    2.9230   19.7083    3.1133 H   0  0  0  0  0  0  0  0  0  0  0  0
    4.1805   20.4521    2.0683 H   0  0  0  0  0  0  0  0  0  0  0  0
    2.5088   21.1093    2.0683 H   0  0  0  0  0  0  0  0  0  0  0  0
   -0.7009   16.3752   -2.4837 H   0  0  0  0  0  0  0  0  0  0  0  0
   -0.5993   16.1530   -4.8875 H   0  0  0  0  0  0  0  0  0  0  0  0
    1.0776   16.7378   -4.9475 H   0  0  0  0  0  0  0  0  0  0  0  0
    0.2578   14.0140   -5.2183 H   0  0  0  0  0  0  0  0  0  0  0  0
    1.9155   14.5195   -4.9033 H   0  0  0  0  0  0  0  0  0  0  0  0
   -1.0135   13.5856   -1.8713 H   0  0  0  0  0  0  0  0  0  0  0  0
   -1.3752   14.4203   -3.4203 H   0  0  0  0  0  0  0  0  0  0  0  0
   -0.9317   12.6796   -3.4203 H   0  0  0  0  0  0  0  0  0  0  0  0
    2.6824   13.2183   -3.0076 H   0  0  0  0  0  0  0  0  0  0  0  0
    1.1186   11.8534   -4.5356 H   0  0  0  0  0  0  0  0  0  0  0  0
    2.4375   11.0338   -3.5465 H   0  0  0  0  0  0  0  0  0  0  0  0
    0.1085    9.8049   -3.6297 H   0  0  0  0  0  0  0  0  0  0  0  0
   -0.2494   12.3529   -0.5197 H   0  0  0  0  0  0  0  0  0  0  0  0
    1.6946   10.1858    0.4901 H   0  0  0  0  0  0  0  0  0  0  0  0
    1.1156   11.6464    1.4069 H   0  0  0  0  0  0  0  0  0  0  0  0
   -0.0509    9.5792    2.1060 H   0  0  0  0  0  0  0  0  0  0  0  0
   -1.1609   10.8030    1.3727 H   0  0  0  0  0  0  0  0  0  0  0  0
   -1.7432    8.6312    0.5329 H   0  0  0  0  0  0  0  0  0  0  0  0
    1.0450    8.5300   -0.1750 H   0  0  0  0  0  0  0  0  0  0  0  0
   -2.6736   10.7079   -0.0654 H   0  0  0  0  0  0  0  0  0  0  0  0
   -2.2666   11.5154   -1.6175 H   0  0  0  0  0  0  0  0  0  0  0  0
   -3.2566   10.0165   -1.6175 H   0  0  0  0  0  0  0  0  0  0  0  0
   -1.7156    7.6298   -1.6372 H   0  0  0  0  0  0  0  0  0  0  0  0
   -2.3152    8.8179   -2.8436 H   0  0  0  0  0  0  0  0  0  0  0  0
   -0.5856    8.3329   -2.8436 H   0  0  0  0  0  0  0  0  0  0  0  0
    3.2906   11.6954    0.1617 H   0  0  0  0  0  0  0  0  0  0  0  0
    3.0746   10.7902   -1.3748 H   0  0  0  0  0  0  0  0  0  0  0  0
    3.9339   12.3677   -1.3748 H   0  0  0  0  0  0  0  0  0  0  0  0
    1.4669   13.5729    0.7226 H   0  0  0  0  0  0  0  0  0  0  0  0
    2.8465   14.1889   -0.3498 H   0  0  0  0  0  0  0  0  0  0  0  0
   -0.1130   14.7864   -0.6188 H   0  0  0  0  0  0  0  0  0  0  0  0
    1.2337   15.9173   -0.1997 H   0  0  0  0  0  0  0  0  0  0  0  0
    3.1546   15.8382   -1.4450 H   0  0  0  0  0  0  0  0  0  0  0  0
    3.2244   14.9263   -2.9910 H   0  0  0  0  0  0  0  0  0  0  0  0
    2.7517   16.6592   -2.9910 H   0  0  0  0  0  0  0  0  0  0  0  0
  1  2  1  0
  2  3  1  0
  3  4  1  0
  4  5  1  0
  5  6  1  0
  6  7  1  0
  7  8  1  0
  7  9  1  0
  2 10  1  0
 10 11  1  0
 11 12  1  0
 12 13  1  0
 13 14  1  1
 13 15  1  0
 15 16  1  0
 16 17  1  0
 17 18  2  0
 18 19  1  0
 19 20  1  0
 20 21  1  0
 21 22  1  0
 22 23  1  0
 22 24  1  0
 24 25  1  0
 24 26  1  0
 19 27  1  0
 27 28  1  6
 27 29  1  0
 29 30  1  0
 30 31  1  0
 31 32  1  1
  7  5  1  0
 31 10  1  0
 31 13  1  0
 27 15  1  0
 24 18  1  0
  1 33  1  0
  1 34  1  0
  1 35  1  0
  2 36  1  6
  3 37  1  0
  3 38  1  0
  4 39  1  0
  4 40  1  0
  5 41  1  1
  8 42  1  0
  8 43  1  0
  8 44  1  0
  9 45  1  0
  9 46  1  0
  9 47  1  0
 10 48  1  1
 11 49  1  0
 11 50  1  0
 12 51  1  0
 12 52  1  0
 14 53  1  0
 14 54  1  0
 14 55  1  0
 15 56  1  6
 16 57  1  0
 16 58  1  0
 17 59  1  0
 19 60  1  1
 20 61  1  0
 20 62  1  0
 21 63  1  0
 21 64  1  0
 22 65  1  1
 23 66  1  0
 25 67  1  0
 25 68  1  0
 25 69  1  0
 26 70  1  0
 26 71  1  0
 26 72  1  0
 28 73  1  0
 28 74  1  0
 28 75  1  0
 29 76  1  0
 29 77  1  0
 30 78  1  0
 30 79  1  0
 32 80  1  0
 32 81  1  0
 32 82  1  0
M  END
>  <meeko>  (4) 
{"is_sidechain": [false], "intermolecular_energy": 2.731, "internal_energy": -0.839}

$$$$
EPH_relaxed_0001_pdb2pqr_Repair_45_r2_0001_out
     RDKit          3D

 82 86  0  0  0  0  0  0  0  0999 V2000
    3.7670   17.9600    0.7510 C   0  0  0  0  0  0  0  0  0  0  0  0
    2.7270   18.4120   -0.2780 C   0  0  2  0  0  0  0  0  0  0  0  0
    1.9950   19.6960    0.1620 C   0  0  0  0  0  0  0  0  0  0  0  0
    0.7730   19.4360    1.0460 C   0  0  0  0  0  0  0  0  0  0  0  0
   -0.4620   20.0750    0.4860 C   0  0  2  0  0  0  0  0  0  0  0  0
   -1.5480   20.1940    1.4140 O   0  0  0  0  0  0  0  0  0  0  0  0
   -1.7700   19.3330    0.2850 C   0  0  0  0  0  0  0  0  0  0  0  0
   -1.9090   17.8860    0.6400 C   0  0  0  0  0  0  0  0  0  0  0  0
   -2.7560   19.8760   -0.7020 C   0  0  0  0  0  0  0  0  0  0  0  0
    1.7180   17.2960   -0.5210 C   0  0  1  0  0  0  0  0  0  0  0  0
    0.5250   17.7510   -1.4040 C   0  0  0  0  0  0  0  0  0  0  0  0
    0.1220   16.5330   -2.2740 C   0  0  0  0  0  0  0  0  0  0  0  0
    0.8660   15.3350   -1.6370 C   0  0  1  0  0  0  0  0  0  0  0  0
   -0.0180   14.9170   -0.4200 C   0  0  0  0  0  0  0  0  0  0  0  0
    1.1600   14.1240   -2.5810 C   0  0  2  0  0  0  0  0  0  0  0  0
   -0.0860   13.4210   -3.1480 C   0  0  0  0  0  0  0  0  0  0  0  0
   -0.6110   12.2920   -2.3250 C   0  0  0  0  0  0  0  0  0  0  0  0
    0.0530   11.6740   -1.3300 C   0  0  0  0  0  0  0  0  0  0  0  0
    1.5080   12.0380   -1.0100 C   0  0  1  0  0  0  0  0  0  0  0  0
    2.3410   10.7400   -0.8410 C   0  0  0  0  0  0  0  0  0  0  0  0
    1.7380    9.7870    0.1860 C   0  0  0  0  0  0  0  0  0  0  0  0
    0.3120    9.4030   -0.1980 C   0  0  2  0  0  0  0  0  0  0  0  0
    0.3520    8.6220   -1.3960 O   0  0  0  0  0  0  0  0  0  0  0  0
   -0.6190   10.6300   -0.4050 C   0  0  0  0  0  0  0  0  0  0  0  0
   -0.9040   11.3030    0.9610 C   0  0  0  0  0  0  0  0  0  0  0  0
   -1.9860   10.1100   -0.9260 C   0  0  0  0  0  0  0  0  0  0  0  0
    2.1950   13.0810   -1.9930 C   0  0  1  0  0  0  0  0  0  0  0  0
    2.8150   12.3330   -3.2120 C   0  0  0  0  0  0  0  0  0  0  0  0
    3.3910   13.7810   -1.2460 C   0  0  0  0  0  0  0  0  0  0  0  0
    3.0560   15.0420   -0.4270 C   0  0  0  0  0  0  0  0  0  0  0  0
    2.2240   16.0270   -1.2540 C   0  0  2  0  0  0  0  0  0  0  0  0
    3.0950   16.4830   -2.4730 C   0  0  0  0  0  0  0  0  0  0  0  0
    3.3769   18.1296    1.7654 H   0  0  0  0  0  0  0  0  0  0  0  0
    3.9776   16.8892    0.6134 H   0  0  0  0  0  0  0  0  0  0  0  0
    4.6936   18.5366    0.6134 H   0  0  0  0  0  0  0  0  0  0  0  0
    3.2624   18.6400   -1.2115 H   0  0  0  0  0  0  0  0  0  0  0  0
    2.7025   20.3238    0.7236 H   0  0  0  0  0  0  0  0  0  0  0  0
    1.6313   20.1877   -0.7523 H   0  0  0  0  0  0  0  0  0  0  0  0
    0.6107   18.3505    1.1197 H   0  0  0  0  0  0  0  0  0  0  0  0
    0.9667   19.8736    2.0364 H   0  0  0  0  0  0  0  0  0  0  0  0
    0.1399   20.7045   -0.1859 H   0  0  0  0  0  0  0  0  0  0  0  0
   -1.9195   17.7763    1.7345 H   0  0  0  0  0  0  0  0  0  0  0  0
   -2.8489   17.4949    0.2232 H   0  0  0  0  0  0  0  0  0  0  0  0
   -1.0608   17.3231    0.2232 H   0  0  0  0  0  0  0  0  0  0  0  0
   -3.5964   20.3388   -0.1640 H   0  0  0  0  0  0  0  0  0  0  0  0
   -2.2648   20.6308   -1.3336 H   0  0  0  0  0  0  0  0  0  0  0  0
   -3.1313   19.0573   -1.3336 H   0  0  0  0  0  0  0  0  0  0  0  0
    1.4585   17.0519    0.5197 H   0  0  0  0  0  0  0  0  0  0  0  0
   -0.3193   18.0596   -0.7701 H   0  0  0  0  0  0  0  0  0  0  0  0
    0.8037   18.6099   -2.0321 H   0  0  0  0  0  0  0  0  0  0  0  0
   -0.9662   16.3759   -2.2418 H   0  0  0  0  0  0  0  0  0  0  0  0
    0.3847   16.6718   -3.3331 H   0  0  0  0  0  0  0  0  0  0  0  0
    0.5052   15.1644    0.5154 H   0  0  0  0  0  0  0  0  0  0  0  0
   -0.9750   15.4580   -0.4590 H   0  0  0  0  0  0  0  0  0  0  0  0
   -0.2071   13.8341   -0.4590 H   0  0  0  0  0  0  0  0  0  0  0  0
    1.6470   14.6074   -3.4408 H   0  0  0  0  0  0  0  0  0  0  0  0
   -0.8848   14.1710   -3.2450 H   0  0  0  0  0  0  0  0  0  0  0  0
    0.2234   12.9802   -4.1072 H   0  0  0  0  0  0  0  0  0  0  0  0
   -1.6266   11.9345   -2.5505 H   0  0  0  0  0  0  0  0  0  0  0  0
    1.4810   12.5909   -0.0594 H   0  0  0  0  0  0  0  0  0  0  0  0
    2.3926   10.2254   -1.8118 H   0  0  0  0  0  0  0  0  0  0  0  0
    3.3398   11.0289   -0.4820 H   0  0  0  0  0  0  0  0  0  0  0  0
    2.3542    8.8773    0.2383 H   0  0  0  0  0  0  0  0  0  0  0  0
    1.7147   10.2923    1.1628 H   0  0  0  0  0  0  0  0  0  0  0  0
   -0.1107    8.8269    0.6383 H   0  0  0  0  0  0  0  0  0  0  0  0
   -0.5650    8.4030   -1.6360 H   0  0  0  0  0  0  0  0  0  0  0  0
   -0.6149   10.6202    1.7736 H   0  0  0  0  0  0  0  0  0  0  0  0
   -0.3227   12.2335    1.0397 H   0  0  0  0  0  0  0  0  0  0  0  0
   -1.9768   11.5331    1.0397 H   0  0  0  0  0  0  0  0  0  0  0  0
   -2.6341    9.8635   -0.0721 H   0  0  0  0  0  0  0  0  0  0  0  0
   -2.4655   10.8885   -1.5375 H   0  0  0  0  0  0  0  0  0  0  0  0
   -1.8269    9.2096   -1.5375 H   0  0  0  0  0  0  0  0  0  0  0  0
    3.4784   11.5326   -2.8524 H   0  0  0  0  0  0  0  0  0  0  0  0
    2.0106   11.8961   -3.8219 H   0  0  0  0  0  0  0  0  0  0  0  0
    3.3935   13.0424   -3.8219 H   0  0  0  0  0  0  0  0  0  0  0  0
    3.8303   13.0441   -0.5575 H   0  0  0  0  0  0  0  0  0  0  0  0
    4.0655   14.1265   -2.0433 H   0  0  0  0  0  0  0  0  0  0  0  0
    2.4847   14.7497    0.4664 H   0  0  0  0  0  0  0  0  0  0  0  0
    3.9969   15.5333   -0.1382 H   0  0  0  0  0  0  0  0  0  0  0  0
    4.0141   16.9642   -2.1073 H   0  0  0  0  0  0  0  0  0  0  0  0
    3.3579   15.6069   -3.0839 H   0  0  0  0  0  0  0  0  0  0  0  0
    2.5248   17.1982   -3.0839 H   0  0  0  0  0  0  0  0  0  0  0  0
  1  2  1  0
  2  3  1  0
  3  4  1  0
  4  5  1  0
  5  6  1  0
  6  7  1  0
  7  8  1  0
  7  9  1  0
  2 10  1  0
 10 11  1  0
 11 12  1  0
 12 13  1  0
 13 14  1  1
 13 15  1  0
 15 16  1  0
 16 17  1  0
 17 18  2  0
 18 19  1  0
 19 20  1  0
 20 21  1  0
 21 22  1  0
 22 23  1  0
 22 24  1  0
 24 25  1  0
 24 26  1  0
 19 27  1  0
 27 28  1  6
 27 29  1  0
 29 30  1  0
 30 31  1  0
 31 32  1  6
  7  5  1  0
 31 10  1  0
 31 13  1  0
 27 15  1  0
 24 18  1  0
  1 33  1  0
  1 34  1  0
  1 35  1  0
  2 36  1  6
  3 37  1  0
  3 38  1  0
  4 39  1  0
  4 40  1  0
  5 41  1  6
  8 42  1  0
  8 43  1  0
  8 44  1  0
  9 45  1  0
  9 46  1  0
  9 47  1  0
 10 48  1  1
 11 49  1  0
 11 50  1  0
 12 51  1  0
 12 52  1  0
 14 53  1  0
 14 54  1  0
 14 55  1  0
 15 56  1  6
 16 57  1  0
 16 58  1  0
 17 59  1  0
 19 60  1  1
 20 61  1  0
 20 62  1  0
 21 63  1  0
 21 64  1  0
 22 65  1  1
 23 66  1  0
 25 67  1  0
 25 68  1  0
 25 69  1  0
 26 70  1  0
 26 71  1  0
 26 72  1  0
 28 73  1  0
 28 74  1  0
 28 75  1  0
 29 76  1  0
 29 77  1  0
 30 78  1  0
 30 79  1  0
 32 80  1  0
 32 81  1  0
 32 82  1  0
M  END
>  <meeko>  (5) 
{"is_sidechain": [false], "intermolecular_energy": 2.731, "internal_energy": -0.839}

$$$$
EPH_relaxed_0001_pdb2pqr_Repair_45_r2_0001_out
     RDKit          3D

 82 86  0  0  0  0  0  0  0  0999 V2000
    3.4480   17.6280    0.7500 C   0  0  0  0  0  0  0  0  0  0  0  0
    3.3700   16.6650   -0.4380 C   0  0  2  0  0  0  0  0  0  0  0  0
    3.2300   17.4100   -1.7810 C   0  0  0  0  0  0  0  0  0  0  0  0
    2.6790   18.8320   -1.6410 C   0  0  0  0  0  0  0  0  0  0  0  0
    1.2020   18.8810   -1.8870 C   0  0  2  0  0  0  0  0  0  0  0  0
    0.6780   20.1940   -2.1240 O   0  0  0  0  0  0  0  0  0  0  0  0
    0.2170   19.5330   -0.9350 C   0  0  0  0  0  0  0  0  0  0  0  0
    0.6710   20.1800    0.3360 C   0  0  0  0  0  0  0  0  0  0  0  0
   -1.2200   19.1160   -0.9960 C   0  0  0  0  0  0  0  0  0  0  0  0
    2.2030   15.7030   -0.2520 C   0  0  1  0  0  0  0  0  0  0  0  0
    0.8650   16.4350    0.0310 C   0  0  0  0  0  0  0  0  0  0  0  0
   -0.2530   15.6030   -0.6490 C   0  0  0  0  0  0  0  0  0  0  0  0
    0.4260   14.2610   -1.0110 C   0  0  1  0  0  0  0  0  0  0  0  0
    0.4100   13.4330    0.3130 C   0  0  0  0  0  0  0  0  0  0  0  0
   -0.2080   13.4640   -2.1970 C   0  0  2  0  0  0  0  0  0  0  0  0
   -1.6580   13.0010   -1.9720 C   0  0  0  0  0  0  0  0  0  0  0  0
   -1.8080   11.6510   -1.3530 C   0  0  0  0  0  0  0  0  0  0  0  0
   -0.8370   10.7240   -1.2540 C   0  0  0  0  0  0  0  0  0  0  0  0
    0.5430   10.9580   -1.8820 C   0  0  1  0  0  0  0  0  0  0  0  0
    0.9790    9.6900   -2.6610 C   0  0  0  0  0  0  0  0  0  0  0  0
    0.9360    8.4310   -1.8000 C   0  0  0  0  0  0  0  0  0  0  0  0
   -0.4650    8.2000   -1.2400 C   0  0  2  0  0  0  0  0  0  0  0  0
   -1.3490    7.8950   -2.3230 O   0  0  0  0  0  0  0  0  0  0  0  0
   -1.0150    9.4170   -0.4430 C   0  0  0  0  0  0  0  0  0  0  0  0
   -0.2370    9.5610    0.8880 C   0  0  0  0  0  0  0  0  0  0  0  0
   -2.4860    9.1080   -0.0560 C   0  0  0  0  0  0  0  0  0  0  0  0
    0.6960   12.2860   -2.7430 C   0  0  1  0  0  0  0  0  0  0  0  0
    0.2450   12.0220   -4.2120 C   0  0  0  0  0  0  0  0  0  0  0  0
    2.2190   12.6810   -2.8110 C   0  0  0  0  0  0  0  0  0  0  0  0
    2.7570   13.5690   -1.6720 C   0  0  0  0  0  0  0  0  0  0  0  0
    1.8460   14.7790   -1.4430 C   0  0  2  0  0  0  0  0  0  0  0  0
    1.8590   15.6420   -2.7500 C   0  0  0  0  0  0  0  0  0  0  0  0
    3.4017   17.0566    1.6888 H   0  0  0  0  0  0  0  0  0  0  0  0
    4.3944   18.1871    0.7073 H   0  0  0  0  0  0  0  0  0  0  0  0
    2.6039   18.3321    0.7073 H   0  0  0  0  0  0  0  0  0  0  0  0
    4.3143   16.1017   -0.4697 H   0  0  0  0  0  0  0  0  0  0  0  0
    4.2225   17.4668   -2.2518 H   0  0  0  0  0  0  0  0  0  0  0  0
    2.5090   16.8441   -2.3892 H   0  0  0  0  0  0  0  0  0  0  0  0
    2.8830   19.1946   -0.6227 H   0  0  0  0  0  0  0  0  0  0  0  0
    3.1728   19.4664   -2.3918 H   0  0  0  0  0  0  0  0  0  0  0  0
    1.2239   17.8884   -2.3605 H   0  0  0  0  0  0  0  0  0  0  0  0
    0.2764   19.6176    1.1950 H   0  0  0  0  0  0  0  0  0  0  0  0
    1.7704   20.1831    0.3735 H   0  0  0  0  0  0  0  0  0  0  0  0
    0.3000   21.2149    0.3735 H   0  0  0  0  0  0  0  0  0  0  0  0
   -1.6124   19.0021    0.0253 H   0  0  0  0  0  0  0  0  0  0  0  0
   -1.8019   19.8823   -1.5291 H   0  0  0  0  0  0  0  0  0  0  0  0
   -1.3013   18.1572   -1.5291 H   0  0  0  0  0  0  0  0  0  0  0  0
    2.5898   15.1039    0.5856 H   0  0  0  0  0  0  0  0  0  0  0  0
    0.6873   16.4937    1.1150 H   0  0  0  0  0  0  0  0  0  0  0  0
    0.8865   17.4625   -0.3611 H   0  0  0  0  0  0  0  0  0  0  0  0
   -1.0916   15.4396    0.0438 H   0  0  0  0  0  0  0  0  0  0  0  0
   -0.6730   16.1096   -1.5305 H   0  0  0  0  0  0  0  0  0  0  0  0
    0.4232   14.1177    1.1738 H   0  0  0  0  0  0  0  0  0  0  0  0
   -0.5002   12.8164    0.3489 H   0  0  0  0  0  0  0  0  0  0  0  0
    1.2957   12.7817    0.3489 H   0  0  0  0  0  0  0  0  0  0  0  0
   -0.2571   14.2237   -2.9910 H   0  0  0  0  0  0  0  0  0  0  0  0
   -2.1502   13.7328   -1.3146 H   0  0  0  0  0  0  0  0  0  0  0  0
   -2.1129   12.9297   -2.9710 H   0  0  0  0  0  0  0  0  0  0  0  0
   -2.7953   11.3918   -0.9432 H   0  0  0  0  0  0  0  0  0  0  0  0
    1.2327   11.1364   -1.0439 H   0  0  0  0  0  0  0  0  0  0  0  0
    0.3042    9.5537   -3.5189 H   0  0  0  0  0  0  0  0  0  0  0  0
    2.0199    9.8381   -2.9844 H   0  0  0  0  0  0  0  0  0  0  0  0
    1.2255    7.5652   -2.4137 H   0  0  0  0  0  0  0  0  0  0  0  0
    1.6336    8.5571   -0.9589 H   0  0  0  0  0  0  0  0  0  0  0  0
   -0.4027    7.3625   -0.5296 H   0  0  0  0  0  0  0  0  0  0  0  0
   -0.8660    7.3260   -2.9460 H   0  0  0  0  0  0  0  0  0  0  0  0
   -0.9294    9.4329    1.7331 H   0  0  0  0  0  0  0  0  0  0  0  0
    0.5490    8.7931    0.9382 H   0  0  0  0  0  0  0  0  0  0  0  0
    0.2221   10.5594    0.9382 H   0  0  0  0  0  0  0  0  0  0  0  0
   -2.5804    9.0882    1.0398 H   0  0  0  0  0  0  0  0  0  0  0  0
   -3.1447    9.8874   -0.4667 H   0  0  0  0  0  0  0  0  0  0  0  0
   -2.7754    8.1295   -0.4667 H   0  0  0  0  0  0  0  0  0  0  0  0
   -0.7043   11.4663   -4.2099 H   0  0  0  0  0  0  0  0  0  0  0  0
    0.1068   12.9818   -4.7313 H   0  0  0  0  0  0  0  0  0  0  0  0
    1.0143   11.4316   -4.7313 H   0  0  0  0  0  0  0  0  0  0  0  0
    2.8047   11.7499   -2.8123 H   0  0  0  0  0  0  0  0  0  0  0  0
    2.3188   13.2890   -3.7223 H   0  0  0  0  0  0  0  0  0  0  0  0
    2.8073   12.9762   -0.7467 H   0  0  0  0  0  0  0  0  0  0  0  0
    3.7572   13.9311   -1.9522 H   0  0  0  0  0  0  0  0  0  0  0  0
    1.8751   16.7094   -2.4845 H   0  0  0  0  0  0  0  0  0  0  0  0
    2.7536   15.3978   -3.3417 H   0  0  0  0  0  0  0  0  0  0  0  0
    0.9575   15.4249   -3.3417 H   0  0  0  0  0  0  0  0  0  0  0  0
  1  2  1  0
  2  3  1  0
  3  4  1  0
  4  5  1  0
  5  6  1  0
  6  7  1  0
  7  8  1  0
  7  9  1  0
  2 10  1  0
 10 11  1  0
 11 12  1  0
 12 13  1  0
 13 14  1  1
 13 15  1  0
 15 16  1  0
 16 17  1  0
 17 18  2  0
 18 19  1  0
 19 20  1  0
 20 21  1  0
 21 22  1  0
 22 23  1  0
 22 24  1  0
 24 25  1  0
 24 26  1  0
 19 27  1  0
 27 28  1  6
 27 29  1  0
 29 30  1  0
 30 31  1  0
 31 32  1  6
  7  5  1  0
 31 10  1  0
 31 13  1  0
 27 15  1  0
 24 18  1  0
  1 33  1  0
  1 34  1  0
  1 35  1  0
  2 36  1  6
  3 37  1  0
  3 38  1  0
  4 39  1  0
  4 40  1  0
  5 41  1  6
  8 42  1  0
  8 43  1  0
  8 44  1  0
  9 45  1  0
  9 46  1  0
  9 47  1  0
 10 48  1  1
 11 49  1  0
 11 50  1  0
 12 51  1  0
 12 52  1  0
 14 53  1  0
 14 54  1  0
 14 55  1  0
 15 56  1  6
 16 57  1  0
 16 58  1  0
 17 59  1  0
 19 60  1  1
 20 61  1  0
 20 62  1  0
 21 63  1  0
 21 64  1  0
 22 65  1  1
 23 66  1  0
 25 67  1  0
 25 68  1  0
 25 69  1  0
 26 70  1  0
 26 71  1  0
 26 72  1  0
 28 73  1  0
 28 74  1  0
 28 75  1  0
 29 76  1  0
 29 77  1  0
 30 78  1  0
 30 79  1  0
 32 80  1  0
 32 81  1  0
 32 82  1  0
M  END
>  <meeko>  (6) 
{"is_sidechain": [false], "intermolecular_energy": 2.731, "internal_energy": -0.839}

$$$$
EPH_relaxed_0001_pdb2pqr_Repair_45_r2_0001_out
     RDKit          3D

 82 86  0  0  0  0  0  0  0  0999 V2000
   -0.2180   10.3740   -3.5810 C   0  0  0  0  0  0  0  0  0  0  0  0
    0.9330   10.2110   -2.5830 C   0  0  2  0  0  0  0  0  0  0  0  0
    0.7740    8.9470   -1.7150 C   0  0  0  0  0  0  0  0  0  0  0  0
    0.0740    9.2020   -0.3770 C   0  0  0  0  0  0  0  0  0  0  0  0
   -1.3290    8.6760   -0.3770 C   0  0  2  0  0  0  0  0  0  0  0  0
   -1.9930    8.7390   -1.6460 O   0  0  0  0  0  0  0  0  0  0  0  0
   -2.5510    9.5480   -0.5980 C   0  0  0  0  0  0  0  0  0  0  0  0
   -2.4250   11.0210   -0.8340 C   0  0  0  0  0  0  0  0  0  0  0  0
   -3.8770    9.0630   -0.1010 C   0  0  0  0  0  0  0  0  0  0  0  0
    1.0280   11.4450   -1.6940 C   0  0  1  0  0  0  0  0  0  0  0  0
    2.1150   11.3070   -0.5950 C   0  0  0  0  0  0  0  0  0  0  0  0
    2.7280   12.7170   -0.3920 C   0  0  0  0  0  0  0  0  0  0  0  0
    1.7600   13.6720   -1.1290 C   0  0  1  0  0  0  0  0  0  0  0  0
    0.5840   13.9020   -0.1280 C   0  0  0  0  0  0  0  0  0  0  0  0
    2.3680   15.0240   -1.6250 C   0  0  2  0  0  0  0  0  0  0  0  0
    2.8960   15.9490   -0.5140 C   0  0  0  0  0  0  0  0  0  0  0  0
    1.9020   16.9200    0.0330 C   0  0  0  0  0  0  0  0  0  0  0  0
    0.7270   17.2420   -0.5390 C   0  0  0  0  0  0  0  0  0  0  0  0
    0.3390   16.6800   -1.9120 C   0  0  1  0  0  0  0  0  0  0  0  0
   -0.2080   17.8250   -2.8050 C   0  0  0  0  0  0  0  0  0  0  0  0
   -1.3510   18.5880   -2.1430 C   0  0  0  0  0  0  0  0  0  0  0  0
   -0.9090   19.1810   -0.8080 C   0  0  2  0  0  0  0  0  0  0  0  0
    0.0710   20.1940   -1.0550 O   0  0  0  0  0  0  0  0  0  0  0  0
   -0.3310   18.1220    0.1720 C   0  0  0  0  0  0  0  0  0  0  0  0
   -1.4700   17.2010    0.6750 C   0  0  0  0  0  0  0  0  0  0  0  0
    0.2060   18.8710    1.4220 C   0  0  0  0  0  0  0  0  0  0  0  0
    1.4510   15.8120   -2.6460 C   0  0  1  0  0  0  0  0  0  0  0  0
    2.3950   16.7420   -3.4670 C   0  0  0  0  0  0  0  0  0  0  0  0
    0.7540   14.8560   -3.6850 C   0  0  0  0  0  0  0  0  0  0  0  0
    0.2820   13.4860   -3.1610 C   0  0  0  0  0  0  0  0  0  0  0  0
    1.3960   12.7870   -2.3760 C   0  0  2  0  0  0  0  0  0  0  0  0
    2.5840   12.5220   -3.3620 C   0  0  0  0  0  0  0  0  0  0  0  0
   -1.1623   10.5077   -3.0330 H   0  0  0  0  0  0  0  0  0  0  0  0
   -0.0331   11.2549   -4.2133 H   0  0  0  0  0  0  0  0  0  0  0  0
   -0.2850    9.4764   -4.2133 H   0  0  0  0  0  0  0  0  0  0  0  0
    1.8609   10.0983   -3.1630 H   0  0  0  0  0  0  0  0  0  0  0  0
    0.1848    8.2098   -2.2801 H   0  0  0  0  0  0  0  0  0  0  0  0
    1.7873    8.5868   -1.4837 H   0  0  0  0  0  0  0  0  0  0  0  0
    0.6415    8.7040    0.4229 H   0  0  0  0  0  0  0  0  0  0  0  0
    0.0329   10.2889   -0.2129 H   0  0  0  0  0  0  0  0  0  0  0  0
   -1.0777    7.9423    0.4030 H   0  0  0  0  0  0  0  0  0  0  0  0
   -2.3802   11.5447    0.1323 H   0  0  0  0  0  0  0  0  0  0  0  0
   -1.5062   11.2238   -1.4039 H   0  0  0  0  0  0  0  0  0  0  0  0
   -3.2960   11.3769   -1.4039 H   0  0  0  0  0  0  0  0  0  0  0  0
   -3.8784    9.0625    0.9990 H   0  0  0  0  0  0  0  0  0  0  0  0
   -4.6720    9.7285   -0.4684 H   0  0  0  0  0  0  0  0  0  0  0  0
   -4.0550    8.0416   -0.4684 H   0  0  0  0  0  0  0  0  0  0  0  0
   -0.0063   11.4837   -1.3215 H   0  0  0  0  0  0  0  0  0  0  0  0
    1.6626   10.9521    0.3427 H   0  0  0  0  0  0  0  0  0  0  0  0
    2.8858   10.5803   -0.8911 H   0  0  0  0  0  0  0  0  0  0  0  0
    2.7810   12.9672    0.6779 H   0  0  0  0  0  0  0  0  0  0  0  0
    3.7559   12.7849   -0.7778 H   0  0  0  0  0  0  0  0  0  0  0  0
    0.9604   13.8284    0.9030 H   0  0  0  0  0  0  0  0  0  0  0  0
    0.1540   14.9013   -0.2909 H   0  0  0  0  0  0  0  0  0  0  0  0
   -0.1908   13.1384   -0.2909 H   0  0  0  0  0  0  0  0  0  0  0  0
    3.2553   14.6919   -2.1840 H   0  0  0  0  0  0  0  0  0  0  0  0
    3.2468   15.3178    0.3158 H   0  0  0  0  0  0  0  0  0  0  0  0
    3.6914   16.5539   -0.9738 H   0  0  0  0  0  0  0  0  0  0  0  0
    2.1512   17.4138    0.9838 H   0  0  0  0  0  0  0  0  0  0  0  0
   -0.4542   15.9413   -1.7246 H   0  0  0  0  0  0  0  0  0  0  0  0
    0.6103   18.5291   -3.0161 H   0  0  0  0  0  0  0  0  0  0  0  0
   -0.5996   17.3711   -3.7273 H   0  0  0  0  0  0  0  0  0  0  0  0
   -1.6743   19.4016   -2.8090 H   0  0  0  0  0  0  0  0  0  0  0  0
   -2.1803   17.8890   -1.9596 H   0  0  0  0  0  0  0  0  0  0  0  0
   -1.8018   19.6023   -0.3228 H   0  0  0  0  0  0  0  0  0  0  0  0
    0.4110   20.0610   -1.9560 H   0  0  0  0  0  0  0  0  0  0  0  0
   -1.4777   17.1947    1.7750 H   0  0  0  0  0  0  0  0  0  0  0  0
   -2.4353   17.5754    0.3037 H   0  0  0  0  0  0  0  0  0  0  0  0
   -1.3059   16.1787    0.3037 H   0  0  0  0  0  0  0  0  0  0  0  0
   -0.1536   18.3694    2.3326 H   0  0  0  0  0  0  0  0  0  0  0  0
    1.3059   18.8637    1.4094 H   0  0  0  0  0  0  0  0  0  0  0  0
   -0.1540   19.9104    1.4094 H   0  0  0  0  0  0  0  0  0  0  0  0
    3.0061   17.3441   -2.7785 H   0  0  0  0  0  0  0  0  0  0  0  0
    3.0528   16.1293   -4.1009 H   0  0  0  0  0  0  0  0  0  0  0  0
    1.7922   17.4089   -4.1009 H   0  0  0  0  0  0  0  0  0  0  0  0
   -0.1268   15.3818   -4.0822 H   0  0  0  0  0  0  0  0  0  0  0  0
    1.5295   14.6272   -4.4308 H   0  0  0  0  0  0  0  0  0  0  0  0
   -0.5860   13.6324   -2.5013 H   0  0  0  0  0  0  0  0  0  0  0  0
    0.0097   12.8561   -4.0207 H   0  0  0  0  0  0  0  0  0  0  0  0
    3.4992   12.3178   -2.7869 H   0  0  0  0  0  0  0  0  0  0  0  0
    2.3480   11.6544   -3.9957 H   0  0  0  0  0  0  0  0  0  0  0  0
    2.7391   13.4076   -3.9957 H   0  0  0  0  0  0  0  0  0  0  0  0
  1  2  1  0
  2  3  1  0
  3  4  1  0
  4  5  1  0
  5  6  1  0
  6  7  1  0
  7  8  1  0
  7  9  1  0
  2 10  1  0
 10 11  1  0
 11 12  1  0
 12 13  1  0
 13 14  1  1
 13 15  1  0
 15 16  1  0
 16 17  1  0
 17 18  2  0
 18 19  1  0
 19 20  1  0
 20 21  1  0
 21 22  1  0
 22 23  1  0
 22 24  1  0
 24 25  1  0
 24 26  1  0
 19 27  1  0
 27 28  1  6
 27 29  1  0
 29 30  1  0
 30 31  1  0
 31 32  1  6
  7  5  1  0
 31 10  1  0
 31 13  1  0
 27 15  1  0
 24 18  1  0
  1 33  1  0
  1 34  1  0
  1 35  1  0
  2 36  1  6
  3 37  1  0
  3 38  1  0
  4 39  1  0
  4 40  1  0
  5 41  1  1
  8 42  1  0
  8 43  1  0
  8 44  1  0
  9 45  1  0
  9 46  1  0
  9 47  1  0
 10 48  1  1
 11 49  1  0
 11 50  1  0
 12 51  1  0
 12 52  1  0
 14 53  1  0
 14 54  1  0
 14 55  1  0
 15 56  1  6
 16 57  1  0
 16 58  1  0
 17 59  1  0
 19 60  1  1
 20 61  1  0
 20 62  1  0
 21 63  1  0
 21 64  1  0
 22 65  1  1
 23 66  1  0
 25 67  1  0
 25 68  1  0
 25 69  1  0
 26 70  1  0
 26 71  1  0
 26 72  1  0
 28 73  1  0
 28 74  1  0
 28 75  1  0
 29 76  1  0
 29 77  1  0
 30 78  1  0
 30 79  1  0
 32 80  1  0
 32 81  1  0
 32 82  1  0
M  END
>  <meeko>  (7) 
{"is_sidechain": [false], "intermolecular_energy": 2.731, "internal_energy": -0.839}

$$$$
EPH_relaxed_0001_pdb2pqr_Repair_45_r2_0001_out
     RDKit          3D

 82 86  0  0  0  0  0  0  0  0999 V2000
    0.4090    8.7930   -2.3550 C   0  0  0  0  0  0  0  0  0  0  0  0
    1.1500    9.9330   -3.0590 C   0  0  2  0  0  0  0  0  0  0  0  0
    2.6530    9.9510   -2.7120 C   0  0  0  0  0  0  0  0  0  0  0  0
    3.5320   10.5460   -3.8150 C   0  0  0  0  0  0  0  0  0  0  0  0
    4.9270   10.8070   -3.3320 C   0  0  2  0  0  0  0  0  0  0  0  0
    5.5110   12.0220   -3.8200 O   0  0  0  0  0  0  0  0  0  0  0  0
    6.1420   10.8010   -4.2410 C   0  0  0  0  0  0  0  0  0  0  0  0
    6.0180   10.5270   -5.7070 C   0  0  0  0  0  0  0  0  0  0  0  0
    7.4900   10.5780   -3.6310 C   0  0  0  0  0  0  0  0  0  0  0  0
    0.5150   11.2700   -2.6930 C   0  0  1  0  0  0  0  0  0  0  0  0
   -0.8590   11.1060   -1.9920 C   0  0  0  0  0  0  0  0  0  0  0  0
   -0.9690   12.2490   -0.9500 C   0  0  0  0  0  0  0  0  0  0  0  0
    0.1810   13.2180   -1.3120 C   0  0  1  0  0  0  0  0  0  0  0  0
   -0.3710   14.0730   -2.4950 C   0  0  0  0  0  0  0  0  0  0  0  0
    0.7180   14.1180   -0.1510 C   0  0  2  0  0  0  0  0  0  0  0  0
   -0.3080   15.0980    0.4420 C   0  0  0  0  0  0  0  0  0  0  0  0
   -0.3520   16.4440   -0.2030 C   0  0  0  0  0  0  0  0  0  0  0  0
    0.5870   16.9480   -1.0250 C   0  0  0  0  0  0  0  0  0  0  0  0
    1.8860   16.1800   -1.3020 C   0  0  1  0  0  0  0  0  0  0  0  0
    3.0950   17.1450   -1.1800 C   0  0  0  0  0  0  0  0  0  0  0  0
    2.9480   18.3810   -2.0620 C   0  0  0  0  0  0  0  0  0  0  0  0
    1.6750   19.1490   -1.7180 C   0  0  2  0  0  0  0  0  0  0  0  0
    1.8070   19.6920   -0.4010 O   0  0  0  0  0  0  0  0  0  0  0  0
    0.3910   18.2760   -1.7970 C   0  0  0  0  0  0  0  0  0  0  0  0
    0.0830   17.9370   -3.2760 C   0  0  0  0  0  0  0  0  0  0  0  0
   -0.8000   19.1320   -1.2900 C   0  0  0  0  0  0  0  0  0  0  0  0
    2.0890   14.8400   -0.4720 C   0  0  1  0  0  0  0  0  0  0  0  0
    2.7550   15.1600    0.9010 C   0  0  0  0  0  0  0  0  0  0  0  0
    3.0920   13.9040   -1.2440 C   0  0  0  0  0  0  0  0  0  0  0  0
    2.4860   12.9530   -2.2940 C   0  0  0  0  0  0  0  0  0  0  0  0
    1.2950   12.1840   -1.7150 C   0  0  2  0  0  0  0  0  0  0  0  0
    1.8240   11.2980   -0.5370 C   0  0  0  0  0  0  0  0  0  0  0  0
    0.4914    8.9198   -1.2654 H   0  0  0  0  0  0  0  0  0  0  0  0
   -0.6514    8.8096   -2.6469 H   0  0  0  0  0  0  0  0  0  0  0  0
    0.8547    7.8306   -2.6469 H   0  0  0  0  0  0  0  0  0  0  0  0
    1.0635    9.7643   -4.1425 H   0  0  0  0  0  0  0  0  0  0  0  0
    2.7913   10.5474   -1.7981 H   0  0  0  0  0  0  0  0  0  0  0  0
    2.9654    8.9044   -2.5814 H   0  0  0  0  0  0  0  0  0  0  0  0
    3.5728    9.8404   -4.6579 H   0  0  0  0  0  0  0  0  0  0  0  0
    3.0913   11.5051   -4.1247 H   0  0  0  0  0  0  0  0  0  0  0  0
    4.7172   10.3009   -2.3782 H   0  0  0  0  0  0  0  0  0  0  0  0
    5.5687    9.5343   -5.8578 H   0  0  0  0  0  0  0  0  0  0  0  0
    5.3788   11.2930   -6.1704 H   0  0  0  0  0  0  0  0  0  0  0  0
    7.0153   10.5523   -6.1704 H   0  0  0  0  0  0  0  0  0  0  0  0
    7.4032   10.5924   -2.5345 H   0  0  0  0  0  0  0  0  0  0  0  0
    7.8823    9.6028   -3.9550 H   0  0  0  0  0  0  0  0  0  0  0  0
    8.1755   11.3750   -3.9550 H   0  0  0  0  0  0  0  0  0  0  0  0
    0.4746   11.7341   -3.6895 H   0  0  0  0  0  0  0  0  0  0  0  0
   -1.6720   11.1855   -2.7287 H   0  0  0  0  0  0  0  0  0  0  0  0
   -0.9405   10.1214   -1.5083 H   0  0  0  0  0  0  0  0  0  0  0  0
   -1.9426   12.7547   -1.0295 H   0  0  0  0  0  0  0  0  0  0  0  0
   -0.8943   11.8802    0.0836 H   0  0  0  0  0  0  0  0  0  0  0  0
   -0.9271   14.9344   -2.0966 H   0  0  0  0  0  0  0  0  0  0  0  0
    0.4671   14.4308   -3.1111 H   0  0  0  0  0  0  0  0  0  0  0  0
   -1.0420   13.4565   -3.1111 H   0  0  0  0  0  0  0  0  0  0  0  0
    0.9223   13.3836    0.6421 H   0  0  0  0  0  0  0  0  0  0  0  0
   -1.3054   14.6436    0.3484 H   0  0  0  0  0  0  0  0  0  0  0  0
    0.0023   15.2698    1.4833 H   0  0  0  0  0  0  0  0  0  0  0  0
   -1.2256   17.0770    0.0118 H   0  0  0  0  0  0  0  0  0  0  0  0
    1.8064   15.8107   -2.3351 H   0  0  0  0  0  0  0  0  0  0  0  0
    3.1841   17.4680   -0.1323 H   0  0  0  0  0  0  0  0  0  0  0  0
    3.9912   16.6014   -1.5135 H   0  0  0  0  0  0  0  0  0  0  0  0
    3.8170   19.0378   -1.9089 H   0  0  0  0  0  0  0  0  0  0  0  0
    2.8899   18.0579   -3.1119 H   0  0  0  0  0  0  0  0  0  0  0  0
    1.5580   19.9458   -2.4672 H   0  0  0  0  0  0  0  0  0  0  0  0
    2.7540   19.7120   -0.1840 H   0  0  0  0  0  0  0  0  0  0  0  0
   -0.6561   17.1235   -3.3195 H   0  0  0  0  0  0  0  0  0  0  0  0
   -0.3216   18.8273   -3.7797 H   0  0  0  0  0  0  0  0  0  0  0  0
    1.0079   17.6194   -3.7797 H   0  0  0  0  0  0  0  0  0  0  0  0
   -0.8063   19.1365   -0.1900 H   0  0  0  0  0  0  0  0  0  0  0  0
   -0.6948   20.1624   -1.6603 H   0  0  0  0  0  0  0  0  0  0  0  0
   -1.7431   18.7038   -1.6603 H   0  0  0  0  0  0  0  0  0  0  0  0
    2.0885   14.8397    1.7153 H   0  0  0  0  0  0  0  0  0  0  0  0
    3.7122   14.6235    0.9781 H   0  0  0  0  0  0  0  0  0  0  0  0
    2.9342   16.2426    0.9781 H   0  0  0  0  0  0  0  0  0  0  0  0
    3.8194   14.5486   -1.7592 H   0  0  0  0  0  0  0  0  0  0  0  0
    3.5228   13.2465   -0.4745 H   0  0  0  0  0  0  0  0  0  0  0  0
    2.1478   13.5414   -3.1597 H   0  0  0  0  0  0  0  0  0  0  0  0
    3.2566   12.2291   -2.5976 H   0  0  0  0  0  0  0  0  0  0  0  0
    1.5479   11.7604    0.4222 H   0  0  0  0  0  0  0  0  0  0  0  0
    1.3767   10.2952   -0.6029 H   0  0  0  0  0  0  0  0  0  0  0  0
    2.9190   11.2161   -0.6029 H   0  0  0  0  0  0  0  0  0  0  0  0
  1  2  1  0
  2  3  1  0
  3  4  1  0
  4  5  1  0
  5  6  1  0
  6  7  1  0
  7  8  1  0
  7  9  1  0
  2 10  1  0
 10 11  1  0
 11 12  1  0
 12 13  1  0
 13 14  1  6
 13 15  1  0
 15 16  1  0
 16 17  1  0
 17 18  2  0
 18 19  1  0
 19 20  1  0
 20 21  1  0
 21 22  1  0
 22 23  1  0
 22 24  1  0
 24 25  1  0
 24 26  1  0
 19 27  1  0
 27 28  1  1
 27 29  1  0
 29 30  1  0
 30 31  1  0
 31 32  1  1
  7  5  1  0
 31 10  1  0
 31 13  1  0
 27 15  1  0
 24 18  1  0
  1 33  1  0
  1 34  1  0
  1 35  1  0
  2 36  1  6
  3 37  1  0
  3 38  1  0
  4 39  1  0
  4 40  1  0
  5 41  1  1
  8 42  1  0
  8 43  1  0
  8 44  1  0
  9 45  1  0
  9 46  1  0
  9 47  1  0
 10 48  1  6
 11 49  1  0
 11 50  1  0
 12 51  1  0
 12 52  1  0
 14 53  1  0
 14 54  1  0
 14 55  1  0
 15 56  1  1
 16 57  1  0
 16 58  1  0
 17 59  1  0
 19 60  1  6
 20 61  1  0
 20 62  1  0
 21 63  1  0
 21 64  1  0
 22 65  1  6
 23 66  1  0
 25 67  1  0
 25 68  1  0
 25 69  1  0
 26 70  1  0
 26 71  1  0
 26 72  1  0
 28 73  1  0
 28 74  1  0
 28 75  1  0
 29 76  1  0
 29 77  1  0
 30 78  1  0
 30 79  1  0
 32 80  1  0
 32 81  1  0
 32 82  1  0
M  END
>  <meeko>  (8) 
{"is_sidechain": [false], "intermolecular_energy": 2.731, "internal_energy": -0.839}

$$$$
EPH_relaxed_0001_pdb2pqr_Repair_45_r2_0001_out
     RDKit          3D

 82 86  0  0  0  0  0  0  0  0999 V2000
    2.7050   19.3350   -0.8660 C   0  0  0  0  0  0  0  0  0  0  0  0
    2.6430   18.3610   -2.0460 C   0  0  2  0  0  0  0  0  0  0  0  0
    1.3090   18.4610   -2.8120 C   0  0  0  0  0  0  0  0  0  0  0  0
    0.3990   19.5890   -2.3190 C   0  0  0  0  0  0  0  0  0  0  0  0
   -0.9070   19.0630   -1.8040 C   0  0  2  0  0  0  0  0  0  0  0  0
   -1.9020   20.0660   -1.5590 O   0  0  0  0  0  0  0  0  0  0  0  0
   -1.4310   19.3460   -0.4080 C   0  0  0  0  0  0  0  0  0  0  0  0
   -0.6570   20.1850    0.5610 C   0  0  0  0  0  0  0  0  0  0  0  0
   -2.4460   18.4140    0.1780 C   0  0  0  0  0  0  0  0  0  0  0  0
    2.8550   16.9340   -1.5530 C   0  0  1  0  0  0  0  0  0  0  0  0
    3.5290   16.8790   -0.1560 C   0  0  0  0  0  0  0  0  0  0  0  0
    2.9250   15.6580    0.5840 C   0  0  0  0  0  0  0  0  0  0  0  0
    2.1810   14.8650   -0.5160 C   0  0  1  0  0  0  0  0  0  0  0  0
    3.2920   14.0370   -1.2360 C   0  0  0  0  0  0  0  0  0  0  0  0
    1.0040   13.9540   -0.0350 C   0  0  2  0  0  0  0  0  0  0  0  0
    1.4070   12.8160    0.9180 C   0  0  0  0  0  0  0  0  0  0  0  0
    1.7630   11.5260    0.2570 C   0  0  0  0  0  0  0  0  0  0  0  0
    1.4880   11.2000   -1.0200 C   0  0  0  0  0  0  0  0  0  0  0  0
    0.6660   12.1380   -1.9130 C   0  0  1  0  0  0  0  0  0  0  0  0
   -0.4180   11.3200   -2.6640 C   0  0  0  0  0  0  0  0  0  0  0  0
    0.1690   10.1440   -3.4380 C   0  0  0  0  0  0  0  0  0  0  0  0
    0.9300    9.2030   -2.5070 C   0  0  2  0  0  0  0  0  0  0  0  0
   -0.0020    8.5860   -1.6130 O   0  0  0  0  0  0  0  0  0  0  0  0
    2.0420    9.9180   -1.6890 C   0  0  0  0  0  0  0  0  0  0  0  0
    3.2020   10.3240   -2.6320 C   0  0  0  0  0  0  0  0  0  0  0  0
    2.6360    8.8890   -0.6900 C   0  0  0  0  0  0  0  0  0  0  0  0
    0.0720   13.4290   -1.2010 C   0  0  1  0  0  0  0  0  0  0  0  0
   -1.3060   13.0930   -0.5530 C   0  0  0  0  0  0  0  0  0  0  0  0
   -0.2060   14.5340   -2.2880 C   0  0  0  0  0  0  0  0  0  0  0  0
    0.9610   15.4780   -2.6340 C   0  0  0  0  0  0  0  0  0  0  0  0
    1.5960   16.0520   -1.3630 C   0  0  2  0  0  0  0  0  0  0  0  0
    0.5080   16.9080   -0.6290 C   0  0  0  0  0  0  0  0  0  0  0  0
    2.6691   18.7707    0.0775 H   0  0  0  0  0  0  0  0  0  0  0  0
    3.6416   19.9099   -0.9139 H   0  0  0  0  0  0  0  0  0  0  0  0
    1.8489   20.0241   -0.9139 H   0  0  0  0  0  0  0  0  0  0  0  0
    3.4463   18.6363   -2.7453 H   0  0  0  0  0  0  0  0  0  0  0  0
    1.5313   18.6339   -3.8753 H   0  0  0  0  0  0  0  0  0  0  0  0
    0.7703   17.5168   -2.6438 H   0  0  0  0  0  0  0  0  0  0  0  0
    0.9095   20.1306   -1.5090 H   0  0  0  0  0  0  0  0  0  0  0  0
    0.1891   20.2561   -3.1681 H   0  0  0  0  0  0  0  0  0  0  0  0
   -0.7799   18.1278   -2.3690 H   0  0  0  0  0  0  0  0  0  0  0  0
   -0.9226   19.8971    1.5889 H   0  0  0  0  0  0  0  0  0  0  0  0
    0.4202   20.0281    0.4030 H   0  0  0  0  0  0  0  0  0  0  0  0
   -0.9001   21.2461    0.4030 H   0  0  0  0  0  0  0  0  0  0  0  0
   -2.3956   18.4603    1.2759 H   0  0  0  0  0  0  0  0  0  0  0  0
   -3.4515   18.7101   -0.1557 H   0  0  0  0  0  0  0  0  0  0  0  0
   -2.2366   17.3870   -0.1557 H   0  0  0  0  0  0  0  0  0  0  0  0
    3.4666   16.5428   -2.3794 H   0  0  0  0  0  0  0  0  0  0  0  0
    4.6167   16.7560   -0.2647 H   0  0  0  0  0  0  0  0  0  0  0  0
    3.3516   17.8084    0.4051 H   0  0  0  0  0  0  0  0  0  0  0  0
    3.7194   15.0450    1.0348 H   0  0  0  0  0  0  0  0  0  0  0  0
    2.2586   15.9563    1.4067 H   0  0  0  0  0  0  0  0  0  0  0  0
    3.9363   13.5568   -0.4848 H   0  0  0  0  0  0  0  0  0  0  0  0
    2.8245   13.2653   -1.8652 H   0  0  0  0  0  0  0  0  0  0  0  0
    3.8979   14.7056   -1.8652 H   0  0  0  0  0  0  0  0  0  0  0  0
    0.4002   14.6483    0.5678 H   0  0  0  0  0  0  0  0  0  0  0  0
    2.2786   13.1520    1.4990 H   0  0  0  0  0  0  0  0  0  0  0  0
    0.5201   12.6072    1.5343 H   0  0  0  0  0  0  0  0  0  0  0  0
    2.2948   10.7788    0.8643 H   0  0  0  0  0  0  0  0  0  0  0  0
    1.3750   12.5695   -2.6349 H   0  0  0  0  0  0  0  0  0  0  0  0
   -1.1402   10.9337   -1.9297 H   0  0  0  0  0  0  0  0  0  0  0  0
   -0.8994   11.9912   -3.3905 H   0  0  0  0  0  0  0  0  0  0  0  0
   -0.6475    9.5884   -3.9225 H   0  0  0  0  0  0  0  0  0  0  0  0
    0.8690   10.5341   -4.1915 H   0  0  0  0  0  0  0  0  0  0  0  0
    1.4343    8.4539   -3.1352 H   0  0  0  0  0  0  0  0  0  0  0  0
   -0.0470    9.1330   -0.8110 H   0  0  0  0  0  0  0  0  0  0  0  0
    4.0724   10.6287   -2.0324 H   0  0  0  0  0  0  0  0  0  0  0  0
    3.4753    9.4681   -3.2666 H   0  0  0  0  0  0  0  0  0  0  0  0
    2.8819   11.1635   -3.2666 H   0  0  0  0  0  0  0  0  0  0  0  0
    2.4426    9.2240    0.3398 H   0  0  0  0  0  0  0  0  0  0  0  0
    2.1653    7.9079   -0.8509 H   0  0  0  0  0  0  0  0  0  0  0  0
    3.7210    8.8059   -0.8509 H   0  0  0  0  0  0  0  0  0  0  0  0
   -1.2113   13.1161    0.5427 H   0  0  0  0  0  0  0  0  0  0  0  0
   -2.0521   13.8355   -0.8723 H   0  0  0  0  0  0  0  0  0  0  0  0
   -1.6266   12.0904   -0.8723 H   0  0  0  0  0  0  0  0  0  0  0  0
   -0.5052   14.0216   -3.2142 H   0  0  0  0  0  0  0  0  0  0  0  0
   -0.9790   15.1816   -1.8486 H   0  0  0  0  0  0  0  0  0  0  0  0
    1.7229   14.9177   -3.1957 H   0  0  0  0  0  0  0  0  0  0  0  0
    0.5720   16.3103   -3.2390 H   0  0  0  0  0  0  0  0  0  0  0  0
    0.6352   16.8079    0.4590 H   0  0  0  0  0  0  0  0  0  0  0  0
    0.6179   17.9644   -0.9154 H   0  0  0  0  0  0  0  0  0  0  0  0
   -0.4929   16.5526   -0.9154 H   0  0  0  0  0  0  0  0  0  0  0  0
  1  2  1  0
  2  3  1  0
  3  4  1  0
  4  5  1  0
  5  6  1  0
  6  7  1  0
  7  8  1  0
  7  9  1  0
  2 10  1  0
 10 11  1  0
 11 12  1  0
 12 13  1  0
 13 14  1  6
 13 15  1  0
 15 16  1  0
 16 17  1  0
 17 18  2  0
 18 19  1  0
 19 20  1  0
 20 21  1  0
 21 22  1  0
 22 23  1  0
 22 24  1  0
 24 25  1  0
 24 26  1  0
 19 27  1  0
 27 28  1  1
 27 29  1  0
 29 30  1  0
 30 31  1  0
 31 32  1  1
  7  5  1  0
 31 10  1  0
 31 13  1  0
 27 15  1  0
 24 18  1  0
  1 33  1  0
  1 34  1  0
  1 35  1  0
  2 36  1  6
  3 37  1  0
  3 38  1  0
  4 39  1  0
  4 40  1  0
  5 41  1  6
  8 42  1  0
  8 43  1  0
  8 44  1  0
  9 45  1  0
  9 46  1  0
  9 47  1  0
 10 48  1  6
 11 49  1  0
 11 50  1  0
 12 51  1  0
 12 52  1  0
 14 53  1  0
 14 54  1  0
 14 55  1  0
 15 56  1  1
 16 57  1  0
 16 58  1  0
 17 59  1  0
 19 60  1  6
 20 61  1  0
 20 62  1  0
 21 63  1  0
 21 64  1  0
 22 65  1  6
 23 66  1  0
 25 67  1  0
 25 68  1  0
 25 69  1  0
 26 70  1  0
 26 71  1  0
 26 72  1  0
 28 73  1  0
 28 74  1  0
 28 75  1  0
 29 76  1  0
 29 77  1  0
 30 78  1  0
 30 79  1  0
 32 80  1  0
 32 81  1  0
 32 82  1  0
M  END
>  <meeko>  (9) 
{"is_sidechain": [false], "intermolecular_energy": 2.731, "internal_energy": -0.839}

$$$$
EPH_relaxed_0001_pdb2pqr_Repair_45_r2_0001_out
     RDKit          3D

 82 86  0  0  0  0  0  0  0  0999 V2000
   -0.8480   16.3480   -5.8310 C   0  0  0  0  0  0  0  0  0  0  0  0
    0.2370   15.6400   -6.6480 C   0  0  2  0  0  0  0  0  0  0  0  0
   -0.1720   15.4600   -8.1240 C   0  0  0  0  0  0  0  0  0  0  0  0
    0.4520   16.4920   -9.0660 C   0  0  0  0  0  0  0  0  0  0  0  0
    1.8530   16.1200   -9.4460 C   0  0  2  0  0  0  0  0  0  0  0  0
    2.3120   16.6920  -10.6780 O   0  0  0  0  0  0  0  0  0  0  0  0
    2.1930   15.2610  -10.6500 C   0  0  0  0  0  0  0  0  0  0  0  0
    1.1260   14.7210  -11.5500 C   0  0  0  0  0  0  0  0  0  0  0  0
    3.5080   14.5460  -10.6710 C   0  0  0  0  0  0  0  0  0  0  0  0
    0.5550   14.2850   -6.0270 C   0  0  1  0  0  0  0  0  0  0  0  0
    1.8180   13.6270   -6.6430 C   0  0  0  0  0  0  0  0  0  0  0  0
    2.5260   12.8590   -5.4980 C   0  0  0  0  0  0  0  0  0  0  0  0
    1.4870   12.8210   -4.3520 C   0  0  1  0  0  0  0  0  0  0  0  0
    0.5290   11.6450   -4.7180 C   0  0  0  0  0  0  0  0  0  0  0  0
    2.0600   12.6710   -2.9050 C   0  0  2  0  0  0  0  0  0  0  0  0
    2.8280   11.3640   -2.6400 C   0  0  0  0  0  0  0  0  0  0  0  0
    2.0010   10.2310   -2.1290 C   0  0  0  0  0  0  0  0  0  0  0  0
    0.7580   10.3360   -1.6230 C   0  0  0  0  0  0  0  0  0  0  0  0
    0.0960   11.7070   -1.4370 C   0  0  1  0  0  0  0  0  0  0  0  0
   -0.5490   11.7840   -0.0280 C   0  0  0  0  0  0  0  0  0  0  0  0
   -1.5110   10.6300    0.2380 C   0  0  0  0  0  0  0  0  0  0  0  0
   -0.8020    9.2850    0.1000 C   0  0  2  0  0  0  0  0  0  0  0  0
    0.1640    9.1640    1.1490 O   0  0  0  0  0  0  0  0  0  0  0  0
   -0.1060    9.0980   -1.2770 C   0  0  0  0  0  0  0  0  0  0  0  0
   -1.1770    8.9280   -2.3820 C   0  0  0  0  0  0  0  0  0  0  0  0
    0.6880    7.7650   -1.2330 C   0  0  0  0  0  0  0  0  0  0  0  0
    1.0100   12.9670   -1.7590 C   0  0  1  0  0  0  0  0  0  0  0  0
    1.8310   13.3660   -0.4950 C   0  0  0  0  0  0  0  0  0  0  0  0
    0.0870   14.1980   -2.0960 C   0  0  0  0  0  0  0  0  0  0  0  0
   -0.3470   14.3590   -3.5650 C   0  0  0  0  0  0  0  0  0  0  0  0
    0.8560   14.2530   -4.5070 C   0  0  2  0  0  0  0  0  0  0  0  0
    1.8280   15.4370   -4.1780 C   0  0  0  0  0  0  0  0  0  0  0  0
   -0.6445   16.2152   -4.7582 H   0  0  0  0  0  0  0  0  0  0  0  0
   -0.8486   17.4208   -6.0740 H   0  0  0  0  0  0  0  0  0  0  0  0
   -1.8302   15.9165   -6.0740 H   0  0  0  0  0  0  0  0  0  0  0  0
    1.1335   16.2771   -6.6290 H   0  0  0  0  0  0  0  0  0  0  0  0
    0.1408   14.4574   -8.4512 H   0  0  0  0  0  0  0  0  0  0  0  0
   -1.2623   15.5970   -8.1742 H   0  0  0  0  0  0  0  0  0  0  0  0
   -0.1593   16.5576   -9.9782 H   0  0  0  0  0  0  0  0  0  0  0  0
    0.4840   17.4589   -8.5425 H   0  0  0  0  0  0  0  0  0  0  0  0
    2.1484   16.0586   -8.3882 H   0  0  0  0  0  0  0  0  0  0  0  0
    0.3082   14.3071  -10.9418 H   0  0  0  0  0  0  0  0  0  0  0  0
    0.7373   15.5309  -12.1848 H   0  0  0  0  0  0  0  0  0  0  0  0
    1.5484   13.9281  -12.1848 H   0  0  0  0  0  0  0  0  0  0  0  0
    3.8429   14.3639   -9.6392 H   0  0  0  0  0  0  0  0  0  0  0  0
    3.3947   13.5853  -11.1946 H   0  0  0  0  0  0  0  0  0  0  0  0
    4.2527   15.1634  -11.1946 H   0  0  0  0  0  0  0  0  0  0  0  0
   -0.3891   13.7603   -6.2352 H   0  0  0  0  0  0  0  0  0  0  0  0
    1.5297   12.9308   -7.4444 H   0  0  0  0  0  0  0  0  0  0  0  0
    2.4842   14.3848   -7.0811 H   0  0  0  0  0  0  0  0  0  0  0  0
    2.7883   11.8398   -5.8182 H   0  0  0  0  0  0  0  0  0  0  0  0
    3.4666   13.3405   -5.1923 H   0  0  0  0  0  0  0  0  0  0  0  0
    0.1502   11.1801   -3.7958 H   0  0  0  0  0  0  0  0  0  0  0  0
   -0.3156   12.0302   -5.3081 H   0  0  0  0  0  0  0  0  0  0  0  0
    1.0770   10.8957   -5.3081 H   0  0  0  0  0  0  0  0  0  0  0  0
    2.8119   13.4728   -2.8640 H   0  0  0  0  0  0  0  0  0  0  0  0
    3.2938   11.0460   -3.5844 H   0  0  0  0  0  0  0  0  0  0  0  0
    3.5540   11.5932   -1.8461 H   0  0  0  0  0  0  0  0  0  0  0  0
    2.4449    9.2254   -2.1694 H   0  0  0  0  0  0  0  0  0  0  0  0
   -0.6847   11.7751   -2.2090 H   0  0  0  0  0  0  0  0  0  0  0  0
    0.2500   11.7585    0.7276 H   0  0  0  0  0  0  0  0  0  0  0  0
   -1.1259   12.7191    0.0249 H   0  0  0  0  0  0  0  0  0  0  0  0
   -1.9111   10.7229    1.2584 H   0  0  0  0  0  0  0  0  0  0  0  0
   -2.3253   10.6748   -0.5002 H   0  0  0  0  0  0  0  0  0  0  0  0
   -1.5677    8.4986    0.1728 H   0  0  0  0  0  0  0  0  0  0  0  0
    0.6100   10.0230    1.2380 H   0  0  0  0  0  0  0  0  0  0  0  0
   -2.1617    8.7717   -1.9173 H   0  0  0  0  0  0  0  0  0  0  0  0
   -1.2059    9.8328   -3.0069 H   0  0  0  0  0  0  0  0  0  0  0  0
   -0.9243    8.0587   -3.0069 H   0  0  0  0  0  0  0  0  0  0  0  0
    0.8605    7.4754   -0.1859 H   0  0  0  0  0  0  0  0  0  0  0  0
    0.1115    6.9779   -1.7409 H   0  0  0  0  0  0  0  0  0  0  0  0
    1.6547    7.8971   -1.7409 H   0  0  0  0  0  0  0  0  0  0  0  0
    1.2679   13.0923    0.4094 H   0  0  0  0  0  0  0  0  0  0  0  0
    2.7948   12.8358   -0.5013 H   0  0  0  0  0  0  0  0  0  0  0  0
    2.0096   14.4514   -0.5013 H   0  0  0  0  0  0  0  0  0  0  0  0
   -0.8249   14.1066   -1.4877 H   0  0  0  0  0  0  0  0  0  0  0  0
    0.6996   15.0853   -1.8780 H   0  0  0  0  0  0  0  0  0  0  0  0
   -1.0705   13.5691   -3.8151 H   0  0  0  0  0  0  0  0  0  0  0  0
   -0.8031   15.3523   -3.6891 H   0  0  0  0  0  0  0  0  0  0  0  0
    1.9173   15.5458   -3.0870 H   0  0  0  0  0  0  0  0  0  0  0  0
    2.8187   15.2284   -4.6080 H   0  0  0  0  0  0  0  0  0  0  0  0
    1.4304   16.3681   -4.6080 H   0  0  0  0  0  0  0  0  0  0  0  0
  1  2  1  0
  2  3  1  0
  3  4  1  0
  4  5  1  0
  5  6  1  0
  6  7  1  0
  7  8  1  0
  7  9  1  0
  2 10  1  0
 10 11  1  0
 11 12  1  0
 12 13  1  0
 13 14  1  6
 13 15  1  0
 15 16  1  0
 16 17  1  0
 17 18  2  0
 18 19  1  0
 19 20  1  0
 20 21  1  0
 21 22  1  0
 22 23  1  0
 22 24  1  0
 24 25  1  0
 24 26  1  0
 19 27  1  0
 27 28  1  1
 27 29  1  0
 29 30  1  0
 30 31  1  0
 31 32  1  1
  7  5  1  0
 31 10  1  0
 31 13  1  0
 27 15  1  0
 24 18  1  0
  1 33  1  0
  1 34  1  0
  1 35  1  0
  2 36  1  6
  3 37  1  0
  3 38  1  0
  4 39  1  0
  4 40  1  0
  5 41  1  1
  8 42  1  0
  8 43  1  0
  8 44  1  0
  9 45  1  0
  9 46  1  0
  9 47  1  0
 10 48  1  1
 11 49  1  0
 11 50  1  0
 12 51  1  0
 12 52  1  0
 14 53  1  0
 14 54  1  0
 14 55  1  0
 15 56  1  6
 16 57  1  0
 16 58  1  0
 17 59  1  0
 19 60  1  6
 20 61  1  0
 20 62  1  0
 21 63  1  0
 21 64  1  0
 22 65  1  1
 23 66  1  0
 25 67  1  0
 25 68  1  0
 25 69  1  0
 26 70  1  0
 26 71  1  0
 26 72  1  0
 28 73  1  0
 28 74  1  0
 28 75  1  0
 29 76  1  0
 29 77  1  0
 30 78  1  0
 30 79  1  0
 32 80  1  0
 32 81  1  0
 32 82  1  0
M  END
>  <meeko>  (10) 
{"is_sidechain": [false], "intermolecular_energy": 2.731, "internal_energy": -0.839}

$$$$
EPH_relaxed_0001_pdb2pqr_Repair_45_r2_0001_out
     RDKit          3D

 82 86  0  0  0  0  0  0  0  0999 V2000
   -0.1770    9.2570   -2.0560 C   0  0  0  0  0  0  0  0  0  0  0  0
    0.8730   10.2380   -2.5860 C   0  0  2  0  0  0  0  0  0  0  0  0
    2.2650    9.5870   -2.7080 C   0  0  0  0  0  0  0  0  0  0  0  0
    3.1440   10.2120   -3.7950 C   0  0  0  0  0  0  0  0  0  0  0  0
    4.5180   10.5240   -3.2860 C   0  0  2  0  0  0  0  0  0  0  0  0
    5.0200   11.8120   -3.6660 O   0  0  0  0  0  0  0  0  0  0  0  0
    5.7300   10.6770   -4.1870 C   0  0  0  0  0  0  0  0  0  0  0  0
    5.6220   10.5210   -5.6720 C   0  0  0  0  0  0  0  0  0  0  0  0
    7.0910   10.4920   -3.5930 C   0  0  0  0  0  0  0  0  0  0  0  0
    0.9470   11.4600   -1.6790 C   0  0  1  0  0  0  0  0  0  0  0  0
    2.0190   11.3150   -0.5670 C   0  0  0  0  0  0  0  0  0  0  0  0
    2.6190   12.7260   -0.3370 C   0  0  0  0  0  0  0  0  0  0  0  0
    1.6550   13.6850   -1.0750 C   0  0  1  0  0  0  0  0  0  0  0  0
    0.4640   13.8930   -0.0880 C   0  0  0  0  0  0  0  0  0  0  0  0
    2.2610   15.0480   -1.5440 C   0  0  2  0  0  0  0  0  0  0  0  0
    2.7660   15.9610   -0.4140 C   0  0  0  0  0  0  0  0  0  0  0  0
    1.7580   16.9180    0.1320 C   0  0  0  0  0  0  0  0  0  0  0  0
    0.5890   17.2400   -0.4530 C   0  0  0  0  0  0  0  0  0  0  0  0
    0.2240   16.6930   -1.8390 C   0  0  1  0  0  0  0  0  0  0  0  0
   -0.3180   17.8460   -2.7240 C   0  0  0  0  0  0  0  0  0  0  0  0
   -1.4760   18.5920   -2.0680 C   0  0  0  0  0  0  0  0  0  0  0  0
   -1.0570   19.1700   -0.7190 C   0  0  2  0  0  0  0  0  0  0  0  0
   -0.0810   20.1930   -0.9390 O   0  0  0  0  0  0  0  0  0  0  0  0
   -0.4850   18.1020    0.2550 C   0  0  0  0  0  0  0  0  0  0  0  0
   -1.6250   17.1670    0.7290 C   0  0  0  0  0  0  0  0  0  0  0  0
    0.0290   18.8380    1.5220 C   0  0  0  0  0  0  0  0  0  0  0  0
    1.3520   15.8430   -2.5670 C   0  0  1  0  0  0  0  0  0  0  0  0
    2.3020   16.7900   -3.3630 C   0  0  0  0  0  0  0  0  0  0  0  0
    0.6770   14.8960   -3.6290 C   0  0  0  0  0  0  0  0  0  0  0  0
    0.2080   13.5160   -3.1300 C   0  0  0  0  0  0  0  0  0  0  0  0
    1.3150   12.8130   -2.3380 C   0  0  2  0  0  0  0  0  0  0  0  0
    2.5190   12.5710   -3.3110 C   0  0  0  0  0  0  0  0  0  0  0  0
   -0.1661    9.2672   -0.9561 H   0  0  0  0  0  0  0  0  0  0  0  0
   -1.1726    9.5559   -2.4156 H   0  0  0  0  0  0  0  0  0  0  0  0
    0.0537    8.2434   -2.4156 H   0  0  0  0  0  0  0  0  0  0  0  0
    0.5615   10.5434   -3.5958 H   0  0  0  0  0  0  0  0  0  0  0  0
    2.7818    9.6889   -1.7423 H   0  0  0  0  0  0  0  0  0  0  0  0
    2.1046    8.5358   -2.9895 H   0  0  0  0  0  0  0  0  0  0  0  0
    3.2268    9.5071   -4.6354 H   0  0  0  0  0  0  0  0  0  0  0  0
    2.6751   11.1541   -4.1151 H   0  0  0  0  0  0  0  0  0  0  0  0
    4.3430    9.9258   -2.3796 H   0  0  0  0  0  0  0  0  0  0  0  0
    5.0100    9.6370   -5.9043 H   0  0  0  0  0  0  0  0  0  0  0  0
    5.1499   11.4169   -6.1014 H   0  0  0  0  0  0  0  0  0  0  0  0
    6.6268   10.3945   -6.1014 H   0  0  0  0  0  0  0  0  0  0  0  0
    7.0166   10.5021   -2.4956 H   0  0  0  0  0  0  0  0  0  0  0  0
    7.5075    9.5290   -3.9234 H   0  0  0  0  0  0  0  0  0  0  0  0
    7.7494   11.3089   -3.9234 H   0  0  0  0  0  0  0  0  0  0  0  0
   -0.0925   11.4862   -1.3201 H   0  0  0  0  0  0  0  0  0  0  0  0
    1.5559   10.9447    0.3595 H   0  0  0  0  0  0  0  0  0  0  0  0
    2.7990   10.5975   -0.8616 H   0  0  0  0  0  0  0  0  0  0  0  0
    2.6553   12.9623    0.7367 H   0  0  0  0  0  0  0  0  0  0  0  0
    3.6516   12.8057   -0.7077 H   0  0  0  0  0  0  0  0  0  0  0  0
    0.8303   13.8290    0.9473 H   0  0  0  0  0  0  0  0  0  0  0  0
    0.0157   14.8830   -0.2578 H   0  0  0  0  0  0  0  0  0  0  0  0
   -0.2934   13.1135   -0.2578 H   0  0  0  0  0  0  0  0  0  0  0  0
    3.1589   14.7302   -2.0943 H   0  0  0  0  0  0  0  0  0  0  0  0
    3.1093   15.3210    0.4122 H   0  0  0  0  0  0  0  0  0  0  0  0
    3.5633   16.5776   -0.8546 H   0  0  0  0  0  0  0  0  0  0  0  0
    1.9902   17.4004    1.0929 H   0  0  0  0  0  0  0  0  0  0  0  0
   -0.5668   15.9465   -1.6736 H   0  0  0  0  0  0  0  0  0  0  0  0
    0.4982   18.5586   -2.9137 H   0  0  0  0  0  0  0  0  0  0  0  0
   -0.6930   17.4022   -3.6580 H   0  0  0  0  0  0  0  0  0  0  0  0
   -1.7958   19.4122   -2.7276 H   0  0  0  0  0  0  0  0  0  0  0  0
   -2.3028   17.8848   -1.9058 H   0  0  0  0  0  0  0  0  0  0  0  0
   -1.9595   19.5783   -0.2406 H   0  0  0  0  0  0  0  0  0  0  0  0
   -0.5340   21.0510   -0.8770 H   0  0  0  0  0  0  0  0  0  0  0  0
   -1.6495   17.1469    1.8285 H   0  0  0  0  0  0  0  0  0  0  0  0
   -2.5872   17.5394    0.3476 H   0  0  0  0  0  0  0  0  0  0  0  0
   -1.4480   16.1505    0.3476 H   0  0  0  0  0  0  0  0  0  0  0  0
   -0.3341   18.3180    2.4207 H   0  0  0  0  0  0  0  0  0  0  0  0
    1.1290   18.8444    1.5214 H   0  0  0  0  0  0  0  0  0  0  0  0
   -0.3437   19.8729    1.5214 H   0  0  0  0  0  0  0  0  0  0  0  0
    2.9002   17.3863   -2.6582 H   0  0  0  0  0  0  0  0  0  0  0  0
    2.9720   16.1897   -3.9961 H   0  0  0  0  0  0  0  0  0  0  0  0
    1.7038   17.4619   -3.9961 H   0  0  0  0  0  0  0  0  0  0  0  0
   -0.2019   15.4206   -4.0317 H   0  0  0  0  0  0  0  0  0  0  0  0
    1.4646   14.6830   -4.3667 H   0  0  0  0  0  0  0  0  0  0  0  0
   -0.6704   13.6476   -2.4811 H   0  0  0  0  0  0  0  0  0  0  0  0
   -0.0465   12.8960   -4.0022 H   0  0  0  0  0  0  0  0  0  0  0  0
    3.4322   12.3875   -2.7258 H   0  0  0  0  0  0  0  0  0  0  0  0
    2.3081   11.6973   -3.9451 H   0  0  0  0  0  0  0  0  0  0  0  0
    2.6620   13.4584   -3.9451 H   0  0  0  0  0  0  0  0  0  0  0  0
  1  2  1  0
  2  3  1  0
  3  4  1  0
  4  5  1  0
  5  6  1  0
  6  7  1  0
  7  8  1  0
  7  9  1  0
  2 10  1  0
 10 11  1  0
 11 12  1  0
 12 13  1  0
 13 14  1  1
 13 15  1  0
 15 16  1  0
 16 17  1  0
 17 18  2  0
 18 19  1  0
 19 20  1  0
 20 21  1  0
 21 22  1  0
 22 23  1  0
 22 24  1  0
 24 25  1  0
 24 26  1  0
 19 27  1  0
 27 28  1  6
 27 29  1  0
 29 30  1  0
 30 31  1  0
 31 32  1  6
  7  5  1  0
 31 10  1  0
 31 13  1  0
 27 15  1  0
 24 18  1  0
  1 33  1  0
  1 34  1  0
  1 35  1  0
  2 36  1  6
  3 37  1  0
  3 38  1  0
  4 39  1  0
  4 40  1  0
  5 41  1  1
  8 42  1  0
  8 43  1  0
  8 44  1  0
  9 45  1  0
  9 46  1  0
  9 47  1  0
 10 48  1  1
 11 49  1  0
 11 50  1  0
 12 51  1  0
 12 52  1  0
 14 53  1  0
 14 54  1  0
 14 55  1  0
 15 56  1  6
 16 57  1  0
 16 58  1  0
 17 59  1  0
 19 60  1  1
 20 61  1  0
 20 62  1  0
 21 63  1  0
 21 64  1  0
 22 65  1  1
 23 66  1  0
 25 67  1  0
 25 68  1  0
 25 69  1  0
 26 70  1  0
 26 71  1  0
 26 72  1  0
 28 73  1  0
 28 74  1  0
 28 75  1  0
 29 76  1  0
 29 77  1  0
 30 78  1  0
 30 79  1  0
 32 80  1  0
 32 81  1  0
 32 82  1  0
M  END
>  <meeko>  (11) 
{"is_sidechain": [false], "intermolecular_energy": 2.731, "internal_energy": -0.839}

$$$$
EPH_relaxed_0001_pdb2pqr_Repair_45_r2_0001_out
     RDKit          3D

 82 86  0  0  0  0  0  0  0  0999 V2000
   -3.9190    7.1500   -3.2900 C   0  0  0  0  0  0  0  0  0  0  0  0
   -3.9910    7.3030   -1.7680 C   0  0  2  0  0  0  0  0  0  0  0  0
   -5.4360    7.1870   -1.2410 C   0  0  0  0  0  0  0  0  0  0  0  0
   -6.4950    7.6670   -2.2370 C   0  0  0  0  0  0  0  0  0  0  0  0
   -7.8400    7.8090   -1.5910 C   0  0  2  0  0  0  0  0  0  0  0  0
   -8.3930    6.5870   -1.0840 O   0  0  0  0  0  0  0  0  0  0  0  0
   -9.1110    7.2090   -2.1620 C   0  0  0  0  0  0  0  0  0  0  0  0
   -9.0980    6.4230   -3.4350 C   0  0  0  0  0  0  0  0  0  0  0  0
  -10.4260    7.7950   -1.7520 C   0  0  0  0  0  0  0  0  0  0  0  0
   -3.3900    8.6400   -1.3520 C   0  0  1  0  0  0  0  0  0  0  0  0
   -3.9650    9.1610   -0.0070 C   0  0  0  0  0  0  0  0  0  0  0  0
   -2.8090    9.8930    0.7200 C   0  0  0  0  0  0  0  0  0  0  0  0
   -1.7130   10.0600   -0.3580 C   0  0  1  0  0  0  0  0  0  0  0  0
   -2.1520   11.3090   -1.1860 C   0  0  0  0  0  0  0  0  0  0  0  0
   -0.2460   10.1990    0.1630 C   0  0  2  0  0  0  0  0  0  0  0  0
    0.0210   11.4360    1.0380 C   0  0  0  0  0  0  0  0  0  0  0  0
    0.4660   12.6560    0.3010 C   0  0  0  0  0  0  0  0  0  0  0  0
    0.9170   12.6820   -0.9670 C   0  0  0  0  0  0  0  0  0  0  0  0
    1.1080   11.3830   -1.7620 C   0  0  1  0  0  0  0  0  0  0  0  0
    2.4870   11.4080   -2.4710 C   0  0  0  0  0  0  0  0  0  0  0  0
    2.6810   12.6530   -3.3320 C   0  0  0  0  0  0  0  0  0  0  0  0
    2.5410   13.9220   -2.4940 C   0  0  2  0  0  0  0  0  0  0  0  0
    3.6290   13.9840   -1.5670 O   0  0  0  0  0  0  0  0  0  0  0  0
    1.1930   14.0030   -1.7250 C   0  0  0  0  0  0  0  0  0  0  0  0
    0.0360   14.2400   -2.7270 C   0  0  0  0  0  0  0  0  0  0  0  0
    1.2390   15.2580   -0.8120 C   0  0  0  0  0  0  0  0  0  0  0  0
    0.8590   10.0350   -0.9580 C   0  0  1  0  0  0  0  0  0  0  0  0
    2.1680    9.5990   -0.2320 C   0  0  0  0  0  0  0  0  0  0  0  0
    0.5120    8.8860   -1.9770 C   0  0  0  0  0  0  0  0  0  0  0  0
   -0.9710    8.7220   -2.3610 C   0  0  0  0  0  0  0  0  0  0  0  0
   -1.8600    8.6890   -1.1140 C   0  0  2  0  0  0  0  0  0  0  0  0
   -1.4570    7.4300   -0.2720 C   0  0  0  0  0  0  0  0  0  0  0  0
   -3.4629    6.1807   -3.5399 H   0  0  0  0  0  0  0  0  0  0  0  0
   -4.9339    7.1973   -3.7117 H   0  0  0  0  0  0  0  0  0  0  0  0
   -3.3085    7.9621   -3.7117 H   0  0  0  0  0  0  0  0  0  0  0  0
   -3.4109    6.4806   -1.3240 H   0  0  0  0  0  0  0  0  0  0  0  0
   -5.6354    6.1315   -1.0039 H   0  0  0  0  0  0  0  0  0  0  0  0
   -5.5086    7.8370   -0.3566 H   0  0  0  0  0  0  0  0  0  0  0  0
   -6.1884    8.6434   -2.6403 H   0  0  0  0  0  0  0  0  0  0  0  0
   -6.5769    6.9176   -3.0380 H   0  0  0  0  0  0  0  0  0  0  0  0
   -7.5933    8.8245   -1.2477 H   0  0  0  0  0  0  0  0  0  0  0  0
   -9.0802    5.3481   -3.2021 H   0  0  0  0  0  0  0  0  0  0  0  0
  -10.0001    6.6567   -4.0194 H   0  0  0  0  0  0  0  0  0  0  0  0
   -8.2041    6.6864   -4.0194 H   0  0  0  0  0  0  0  0  0  0  0  0
  -10.4886    7.8229   -0.6541 H   0  0  0  0  0  0  0  0  0  0  0  0
  -10.5123    8.8167   -2.1503 H   0  0  0  0  0  0  0  0  0  0  0  0
  -11.2434    7.1760   -2.1503 H   0  0  0  0  0  0  0  0  0  0  0  0
   -3.6532    9.2425   -2.2339 H   0  0  0  0  0  0  0  0  0  0  0  0
   -4.7956    9.8573   -0.1946 H   0  0  0  0  0  0  0  0  0  0  0  0
   -4.3537    8.3327    0.6036 H   0  0  0  0  0  0  0  0  0  0  0  0
   -3.1424   10.8738    1.0899 H   0  0  0  0  0  0  0  0  0  0  0  0
   -2.4492    9.3357    1.5975 H   0  0  0  0  0  0  0  0  0  0  0  0
   -2.4374   12.1211   -0.5011 H   0  0  0  0  0  0  0  0  0  0  0  0
   -1.3166   11.6407   -1.8201 H   0  0  0  0  0  0  0  0  0  0  0  0
   -3.0112   11.0451   -1.8201 H   0  0  0  0  0  0  0  0  0  0  0  0
   -0.1512    9.3321    0.8335 H   0  0  0  0  0  0  0  0  0  0  0  0
   -0.9090   11.6818    1.5715 H   0  0  0  0  0  0  0  0  0  0  0  0
    0.8528   11.1631    1.7040 H   0  0  0  0  0  0  0  0  0  0  0  0
    0.4215   13.6141    0.8396 H   0  0  0  0  0  0  0  0  0  0  0  0
    0.3034   11.3642   -2.5118 H   0  0  0  0  0  0  0  0  0  0  0  0
    3.2771   11.3819   -1.7061 H   0  0  0  0  0  0  0  0  0  0  0  0
    2.5365   10.5324   -3.1350 H   0  0  0  0  0  0  0  0  0  0  0  0
    3.6846   12.6272   -3.7817 H   0  0  0  0  0  0  0  0  0  0  0  0
    1.9091   12.6623   -4.1157 H   0  0  0  0  0  0  0  0  0  0  0  0
    2.5588   14.7776   -3.1851 H   0  0  0  0  0  0  0  0  0  0  0  0
    3.2720   14.2890   -0.7150 H   0  0  0  0  0  0  0  0  0  0  0  0
   -0.8952   14.4307   -2.1734 H   0  0  0  0  0  0  0  0  0  0  0  0
    0.2710   15.1087   -3.3596 H   0  0  0  0  0  0  0  0  0  0  0  0
   -0.0895   13.3489   -3.3596 H   0  0  0  0  0  0  0  0  0  0  0  0
    1.2275   14.9449    0.2424 H   0  0  0  0  0  0  0  0  0  0  0  0
    2.1586   15.8262   -1.0158 H   0  0  0  0  0  0  0  0  0  0  0  0
    0.3635   15.8920   -1.0158 H   0  0  0  0  0  0  0  0  0  0  0  0
    2.0177    9.6491    0.8565 H   0  0  0  0  0  0  0  0  0  0  0  0
    2.4211    8.5680   -0.5201 H   0  0  0  0  0  0  0  0  0  0  0  0
    2.9888   10.2723   -0.5201 H   0  0  0  0  0  0  0  0  0  0  0  0
    1.0756    9.0798   -2.9015 H   0  0  0  0  0  0  0  0  0  0  0  0
    0.7803    7.9527   -1.4604 H   0  0  0  0  0  0  0  0  0  0  0  0
   -1.2737    9.5673   -2.9964 H   0  0  0  0  0  0  0  0  0  0  0  0
   -1.0902    7.7716   -2.9019 H   0  0  0  0  0  0  0  0  0  0  0  0
   -1.5326    7.6661    0.7997 H   0  0  0  0  0  0  0  0  0  0  0  0
   -2.1332    6.5963   -0.5124 H   0  0  0  0  0  0  0  0  0  0  0  0
   -0.4224    7.1440   -0.5124 H   0  0  0  0  0  0  0  0  0  0  0  0
  1  2  1  0
  2  3  1  0
  3  4  1  0
  4  5  1  0
  5  6  1  0
  6  7  1  0
  7  8  1  0
  7  9  1  0
  2 10  1  0
 10 11  1  0
 11 12  1  0
 12 13  1  0
 13 14  1  6
 13 15  1  0
 15 16  1  0
 16 17  1  0
 17 18  2  0
 18 19  1  0
 19 20  1  0
 20 21  1  0
 21 22  1  0
 22 23  1  0
 22 24  1  0
 24 25  1  0
 24 26  1  0
 19 27  1  0
 27 28  1  1
 27 29  1  0
 29 30  1  0
 30 31  1  0
 31 32  1  1
  7  5  1  0
 31 10  1  0
 31 13  1  0
 27 15  1  0
 24 18  1  0
  1 33  1  0
  1 34  1  0
  1 35  1  0
  2 36  1  1
  3 37  1  0
  3 38  1  0
  4 39  1  0
  4 40  1  0
  5 41  1  1
  8 42  1  0
  8 43  1  0
  8 44  1  0
  9 45  1  0
  9 46  1  0
  9 47  1  0
 10 48  1  6
 11 49  1  0
 11 50  1  0
 12 51  1  0
 12 52  1  0
 14 53  1  0
 14 54  1  0
 14 55  1  0
 15 56  1  1
 16 57  1  0
 16 58  1  0
 17 59  1  0
 19 60  1  6
 20 61  1  0
 20 62  1  0
 21 63  1  0
 21 64  1  0
 22 65  1  6
 23 66  1  0
 25 67  1  0
 25 68  1  0
 25 69  1  0
 26 70  1  0
 26 71  1  0
 26 72  1  0
 28 73  1  0
 28 74  1  0
 28 75  1  0
 29 76  1  0
 29 77  1  0
 30 78  1  0
 30 79  1  0
 32 80  1  0
 32 81  1  0
 32 82  1  0
M  END
>  <meeko>  (12) 
{"is_sidechain": [false], "intermolecular_energy": 2.731, "internal_energy": -0.839}

$$$$
EPH_relaxed_0001_pdb2pqr_Repair_45_r2_0001_out
     RDKit          3D

 82 86  0  0  0  0  0  0  0  0999 V2000
   -5.2550    6.9930   -0.0800 C   0  0  0  0  0  0  0  0  0  0  0  0
   -5.2580    7.9080   -1.3080 C   0  0  2  0  0  0  0  0  0  0  0  0
   -4.7060    9.3110   -0.9880 C   0  0  0  0  0  0  0  0  0  0  0  0
   -3.4930    9.2970   -0.0530 C   0  0  0  0  0  0  0  0  0  0  0  0
   -2.2420    8.8930   -0.7720 C   0  0  2  0  0  0  0  0  0  0  0  0
   -1.0270    9.1770   -0.0660 O   0  0  0  0  0  0  0  0  0  0  0  0
   -1.2240    9.8860   -1.3010 C   0  0  0  0  0  0  0  0  0  0  0  0
   -1.4110   11.3610   -1.1320 C   0  0  0  0  0  0  0  0  0  0  0  0
   -0.3040    9.4510   -2.3980 C   0  0  0  0  0  0  0  0  0  0  0  0
   -6.6700    8.0190   -1.8690 C   0  0  1  0  0  0  0  0  0  0  0  0
   -6.8310    7.2960   -3.2330 C   0  0  0  0  0  0  0  0  0  0  0  0
   -8.2650    6.7090   -3.2630 C   0  0  0  0  0  0  0  0  0  0  0  0
   -8.9890    7.3890   -2.0760 C   0  0  1  0  0  0  0  0  0  0  0  0
   -9.4150    8.7900   -2.6150 C   0  0  0  0  0  0  0  0  0  0  0  0
  -10.2020    6.6110   -1.4690 C   0  0  2  0  0  0  0  0  0  0  0  0
  -11.3790    6.3840   -2.4330 C   0  0  0  0  0  0  0  0  0  0  0  0
  -12.4230    7.4520   -2.4280 C   0  0  0  0  0  0  0  0  0  0  0  0
  -12.5640    8.4020   -1.4850 C   0  0  0  0  0  0  0  0  0  0  0  0
  -11.6800    8.4060   -0.2310 C   0  0  1  0  0  0  0  0  0  0  0  0
  -12.5620    8.6300    1.0240 C   0  0  0  0  0  0  0  0  0  0  0  0
  -13.4270    9.8820    0.9160 C   0  0  0  0  0  0  0  0  0  0  0  0
  -14.3340    9.8150   -0.3100 C   0  0  2  0  0  0  0  0  0  0  0  0
  -15.2870    8.7650   -0.1200 O   0  0  0  0  0  0  0  0  0  0  0  0
  -13.5560    9.5820   -1.6350 C   0  0  0  0  0  0  0  0  0  0  0  0
  -12.7480   10.8530   -1.9950 C   0  0  0  0  0  0  0  0  0  0  0  0
  -14.5960    9.3920   -2.7720 C   0  0  0  0  0  0  0  0  0  0  0  0
  -10.6960    7.1680   -0.0730 C   0  0  1  0  0  0  0  0  0  0  0  0
  -11.4310    5.9920    0.6400 C   0  0  0  0  0  0  0  0  0  0  0  0
   -9.5000    7.5780    0.8650 C   0  0  0  0  0  0  0  0  0  0  0  0
   -8.2810    8.2340    0.1890 C   0  0  0  0  0  0  0  0  0  0  0  0
   -7.8210    7.4190   -1.0240 C   0  0  2  0  0  0  0  0  0  0  0  0
   -7.3650    6.0110   -0.5090 C   0  0  0  0  0  0  0  0  0  0  0  0
   -5.2570    7.6055    0.8337 H   0  0  0  0  0  0  0  0  0  0  0  0
   -6.1511    6.3552   -0.0958 H   0  0  0  0  0  0  0  0  0  0  0  0
   -4.3548    6.3611   -0.0958 H   0  0  0  0  0  0  0  0  0  0  0  0
   -4.5938    7.4561   -2.0594 H   0  0  0  0  0  0  0  0  0  0  0  0
   -4.4110    9.7918   -1.9324 H   0  0  0  0  0  0  0  0  0  0  0  0
   -5.5054    9.8603   -0.4691 H   0  0  0  0  0  0  0  0  0  0  0  0
   -3.3539   10.3049    0.3651 H   0  0  0  0  0  0  0  0  0  0  0  0
   -3.6829    8.5620    0.7430 H   0  0  0  0  0  0  0  0  0  0  0  0
   -2.7590    8.0443   -1.2437 H   0  0  0  0  0  0  0  0  0  0  0  0
   -1.4421   11.6062   -0.0601 H   0  0  0  0  0  0  0  0  0  0  0  0
   -0.5732   11.8935   -1.6058 H   0  0  0  0  0  0  0  0  0  0  0  0
   -2.3552   11.6676   -1.6058 H   0  0  0  0  0  0  0  0  0  0  0  0
    0.6088    9.0194   -1.9615 H   0  0  0  0  0  0  0  0  0  0  0  0
   -0.8062    8.6949   -3.0195 H   0  0  0  0  0  0  0  0  0  0  0  0
   -0.0383   10.3189   -3.0195 H   0  0  0  0  0  0  0  0  0  0  0  0
   -6.7646    9.1141   -1.9104 H   0  0  0  0  0  0  0  0  0  0  0  0
   -6.6972    8.0107   -4.0584 H   0  0  0  0  0  0  0  0  0  0  0  0
   -6.0777    6.5030   -3.3504 H   0  0  0  0  0  0  0  0  0  0  0  0
   -8.7642    6.9513   -4.2128 H   0  0  0  0  0  0  0  0  0  0  0  0
   -8.2689    5.6120   -3.1814 H   0  0  0  0  0  0  0  0  0  0  0  0
   -9.6193    9.4620   -1.7684 H   0  0  0  0  0  0  0  0  0  0  0  0
   -8.6037    9.2091   -3.2283 H   0  0  0  0  0  0  0  0  0  0  0  0
  -10.3223    8.6866   -3.2283 H   0  0  0  0  0  0  0  0  0  0  0  0
   -9.7741    5.6152   -1.2810 H   0  0  0  0  0  0  0  0  0  0  0  0
  -10.9736    6.3098   -3.4529 H   0  0  0  0  0  0  0  0  0  0  0  0
  -11.8804    5.4668   -2.0903 H   0  0  0  0  0  0  0  0  0  0  0  0
  -13.1365    7.4631   -3.2651 H   0  0  0  0  0  0  0  0  0  0  0  0
  -10.9839    9.2491   -0.3523 H   0  0  0  0  0  0  0  0  0  0  0  0
  -13.2193    7.7575    1.1532 H   0  0  0  0  0  0  0  0  0  0  0  0
  -11.8900    8.7620    1.8848 H   0  0  0  0  0  0  0  0  0  0  0  0
  -14.0487    9.9689    1.8193 H   0  0  0  0  0  0  0  0  0  0  0  0
  -12.7674   10.7567    0.8171 H   0  0  0  0  0  0  0  0  0  0  0  0
  -14.8321   10.7910   -0.4069 H   0  0  0  0  0  0  0  0  0  0  0  0
  -14.8340    8.0340    0.3330 H   0  0  0  0  0  0  0  0  0  0  0  0
  -12.4273   11.3574   -1.0716 H   0  0  0  0  0  0  0  0  0  0  0  0
  -11.8634   10.5704   -2.5846 H   0  0  0  0  0  0  0  0  0  0  0  0
  -13.3793   11.5341   -2.5846 H   0  0  0  0  0  0  0  0  0  0  0  0
  -15.5887    9.2106   -2.3343 H   0  0  0  0  0  0  0  0  0  0  0  0
  -14.6295   10.2989   -3.3936 H   0  0  0  0  0  0  0  0  0  0  0  0
  -14.3066    8.5319   -3.3936 H   0  0  0  0  0  0  0  0  0  0  0  0
  -11.3525    6.1176    1.7300 H   0  0  0  0  0  0  0  0  0  0  0  0
  -12.4911    5.9904    0.3465 H   0  0  0  0  0  0  0  0  0  0  0  0
  -10.9679    5.0384    0.3465 H   0  0  0  0  0  0  0  0  0  0  0  0
   -9.8894    8.2875    1.6100 H   0  0  0  0  0  0  0  0  0  0  0  0
   -9.1238    6.6322    1.2821 H   0  0  0  0  0  0  0  0  0  0  0  0
   -8.5546    9.2470   -0.1411 H   0  0  0  0  0  0  0  0  0  0  0  0
   -7.4569    8.2751    0.9164 H   0  0  0  0  0  0  0  0  0  0  0  0
   -7.3633    6.0058    0.5910 H   0  0  0  0  0  0  0  0  0  0  0  0
   -8.0602    5.2427   -0.8782 H   0  0  0  0  0  0  0  0  0  0  0  0
   -6.3513    5.7961   -0.8782 H   0  0  0  0  0  0  0  0  0  0  0  0
  1  2  1  0
  2  3  1  0
  3  4  1  0
  4  5  1  0
  5  6  1  0
  6  7  1  0
  7  8  1  0
  7  9  1  0
  2 10  1  0
 10 11  1  0
 11 12  1  0
 12 13  1  0
 13 14  1  6
 13 15  1  0
 15 16  1  0
 16 17  1  0
 17 18  2  0
 18 19  1  0
 19 20  1  0
 20 21  1  0
 21 22  1  0
 22 23  1  0
 22 24  1  0
 24 25  1  0
 24 26  1  0
 19 27  1  0
 27 28  1  1
 27 29  1  0
 29 30  1  0
 30 31  1  0
 31 32  1  1
  7  5  1  0
 31 10  1  0
 31 13  1  0
 27 15  1  0
 24 18  1  0
  1 33  1  0
  1 34  1  0
  1 35  1  0
  2 36  1  6
  3 37  1  0
  3 38  1  0
  4 39  1  0
  4 40  1  0
  5 41  1  6
  8 42  1  0
  8 43  1  0
  8 44  1  0
  9 45  1  0
  9 46  1  0
  9 47  1  0
 10 48  1  6
 11 49  1  0
 11 50  1  0
 12 51  1  0
 12 52  1  0
 14 53  1  0
 14 54  1  0
 14 55  1  0
 15 56  1  1
 16 57  1  0
 16 58  1  0
 17 59  1  0
 19 60  1  6
 20 61  1  0
 20 62  1  0
 21 63  1  0
 21 64  1  0
 22 65  1  6
 23 66  1  0
 25 67  1  0
 25 68  1  0
 25 69  1  0
 26 70  1  0
 26 71  1  0
 26 72  1  0
 28 73  1  0
 28 74  1  0
 28 75  1  0
 29 76  1  0
 29 77  1  0
 30 78  1  0
 30 79  1  0
 32 80  1  0
 32 81  1  0
 32 82  1  0
M  END
>  <meeko>  (13) 
{"is_sidechain": [false], "intermolecular_energy": 2.731, "internal_energy": -0.839}

$$$$
EPH_relaxed_0001_pdb2pqr_Repair_45_r2_0001_out
     RDKit          3D

 82 86  0  0  0  0  0  0  0  0999 V2000
   -2.2090    7.8470   -2.1730 C   0  0  0  0  0  0  0  0  0  0  0  0
   -2.1760    8.4630   -0.7720 C   0  0  2  0  0  0  0  0  0  0  0  0
   -3.5640    8.4550   -0.1010 C   0  0  0  0  0  0  0  0  0  0  0  0
   -4.7280    8.4470   -1.0950 C   0  0  0  0  0  0  0  0  0  0  0  0
   -5.7960    7.4760   -0.6910 C   0  0  2  0  0  0  0  0  0  0  0  0
   -6.1820    6.5500   -1.7160 O   0  0  0  0  0  0  0  0  0  0  0  0
   -7.1930    7.4740   -1.2830 C   0  0  0  0  0  0  0  0  0  0  0  0
   -7.5990    8.4660   -2.3280 C   0  0  0  0  0  0  0  0  0  0  0  0
   -8.3000    6.8360   -0.5030 C   0  0  0  0  0  0  0  0  0  0  0  0
   -1.6400    9.8880   -0.8420 C   0  0  1  0  0  0  0  0  0  0  0  0
   -1.1700   10.4190    0.5380 C   0  0  0  0  0  0  0  0  0  0  0  0
    0.0530   11.3330    0.2730 C   0  0  0  0  0  0  0  0  0  0  0  0
    0.0430   11.5640   -1.2570 C   0  0  1  0  0  0  0  0  0  0  0  0
   -1.0100   12.6940   -1.4850 C   0  0  0  0  0  0  0  0  0  0  0  0
    1.4190   11.9170   -1.9120 C   0  0  2  0  0  0  0  0  0  0  0  0
    2.0550   13.2310   -1.4260 C   0  0  0  0  0  0  0  0  0  0  0  0
    1.6870   14.4460   -2.2120 C   0  0  0  0  0  0  0  0  0  0  0  0
    1.1120   14.4450   -3.4290 C   0  0  0  0  0  0  0  0  0  0  0  0
    0.8600   13.1320   -4.1810 C   0  0  1  0  0  0  0  0  0  0  0  0
    1.3270   13.2810   -5.6530 C   0  0  0  0  0  0  0  0  0  0  0  0
    0.6940   14.4830   -6.3490 C   0  0  0  0  0  0  0  0  0  0  0  0
    1.0150   15.7760   -5.6040 C   0  0  2  0  0  0  0  0  0  0  0  0
    2.4190   16.0310   -5.7060 O   0  0  0  0  0  0  0  0  0  0  0  0
    0.5980   15.7400   -4.1070 C   0  0  0  0  0  0  0  0  0  0  0  0
   -0.9470   15.7670   -3.9960 C   0  0  0  0  0  0  0  0  0  0  0  0
    1.1040   17.0470   -3.4390 C   0  0  0  0  0  0  0  0  0  0  0  0
    1.4290   11.8180   -3.4910 C   0  0  1  0  0  0  0  0  0  0  0  0
    2.9130   11.5940   -3.9140 C   0  0  0  0  0  0  0  0  0  0  0  0
    0.6240   10.5720   -4.0180 C   0  0  0  0  0  0  0  0  0  0  0  0
   -0.6630   10.2020   -3.2560 C   0  0  0  0  0  0  0  0  0  0  0  0
   -0.4070   10.1400   -1.7470 C   0  0  2  0  0  0  0  0  0  0  0  0
    0.6320    8.9970   -1.4840 C   0  0  0  0  0  0  0  0  0  0  0  0
   -2.2677    6.7517   -2.0906 H   0  0  0  0  0  0  0  0  0  0  0  0
   -3.0884    8.2214   -2.7175 H   0  0  0  0  0  0  0  0  0  0  0  0
   -1.2947    8.1253   -2.7175 H   0  0  0  0  0  0  0  0  0  0  0  0
   -1.5073    7.8445   -0.1553 H   0  0  0  0  0  0  0  0  0  0  0  0
   -3.6397    7.5569    0.5296 H   0  0  0  0  0  0  0  0  0  0  0  0
   -3.6449    9.3848    0.4813 H   0  0  0  0  0  0  0  0  0  0  0  0
   -5.1632    9.4561   -1.1423 H   0  0  0  0  0  0  0  0  0  0  0  0
   -4.3384    8.1391   -2.0765 H   0  0  0  0  0  0  0  0  0  0  0  0
   -5.4351    7.4753    0.3481 H   0  0  0  0  0  0  0  0  0  0  0  0
   -7.9727    9.3790   -1.8414 H   0  0  0  0  0  0  0  0  0  0  0  0
   -6.7301    8.7142   -2.9553 H   0  0  0  0  0  0  0  0  0  0  0  0
   -8.3926    8.0338   -2.9553 H   0  0  0  0  0  0  0  0  0  0  0  0
   -8.1030    6.9496    0.5732 H   0  0  0  0  0  0  0  0  0  0  0  0
   -9.2537    7.3230   -0.7545 H   0  0  0  0  0  0  0  0  0  0  0  0
   -8.3568    5.7667   -0.7545 H   0  0  0  0  0  0  0  0  0  0  0  0
   -2.5225   10.3964   -1.2575 H   0  0  0  0  0  0  0  0  0  0  0  0
   -1.9760   10.9943    1.0169 H   0  0  0  0  0  0  0  0  0  0  0  0
   -0.9048    9.5899    1.2105 H   0  0  0  0  0  0  0  0  0  0  0  0
   -0.0514   12.2870    0.8105 H   0  0  0  0  0  0  0  0  0  0  0  0
    0.9941   10.8820    0.6208 H   0  0  0  0  0  0  0  0  0  0  0  0
   -1.3605   13.0702   -0.5126 H   0  0  0  0  0  0  0  0  0  0  0  0
   -0.5486   13.5163   -2.0515 H   0  0  0  0  0  0  0  0  0  0  0  0
   -1.8627   12.2917   -2.0515 H   0  0  0  0  0  0  0  0  0  0  0  0
    2.0716   11.1142   -1.5382 H   0  0  0  0  0  0  0  0  0  0  0  0
    1.7446   13.3937   -0.3833 H   0  0  0  0  0  0  0  0  0  0  0  0
    3.1412   13.1069   -1.5478 H   0  0  0  0  0  0  0  0  0  0  0  0
    1.9041   15.4243   -1.7583 H   0  0  0  0  0  0  0  0  0  0  0  0
   -0.2270   12.9665   -4.1487 H   0  0  0  0  0  0  0  0  0  0  0  0
    2.4203   13.4017   -5.6656 H   0  0  0  0  0  0  0  0  0  0  0  0
    1.0132   12.3773   -6.1960 H   0  0  0  0  0  0  0  0  0  0  0  0
    1.0849   14.5520   -7.3749 H   0  0  0  0  0  0  0  0  0  0  0  0
   -0.3975   14.3468   -6.3617 H   0  0  0  0  0  0  0  0  0  0  0  0
    0.4302   16.5808   -6.0735 H   0  0  0  0  0  0  0  0  0  0  0  0
    2.7030   16.4520   -4.8770 H   0  0  0  0  0  0  0  0  0  0  0  0
   -1.2384   15.7721   -2.9353 H   0  0  0  0  0  0  0  0  0  0  0  0
   -1.3341   16.6720   -4.4869 H   0  0  0  0  0  0  0  0  0  0  0  0
   -1.3655   14.8760   -4.4869 H   0  0  0  0  0  0  0  0  0  0  0  0
    1.0624   16.9396   -2.3451 H   0  0  0  0  0  0  0  0  0  0  0  0
    2.1416   17.2395   -3.7493 H   0  0  0  0  0  0  0  0  0  0  0  0
    0.4665   17.8880   -3.7493 H   0  0  0  0  0  0  0  0  0  0  0  0
    3.5401   11.4993   -3.0153 H   0  0  0  0  0  0  0  0  0  0  0  0
    2.9888   10.6742   -4.5126 H   0  0  0  0  0  0  0  0  0  0  0  0
    3.2569   12.4504   -4.5126 H   0  0  0  0  0  0  0  0  0  0  0  0
    0.3455   10.7737   -5.0629 H   0  0  0  0  0  0  0  0  0  0  0  0
    1.2979    9.7141   -3.8772 H   0  0  0  0  0  0  0  0  0  0  0  0
   -1.4328   10.9609   -3.4597 H   0  0  0  0  0  0  0  0  0  0  0  0
   -0.9999    9.2116   -3.5960 H   0  0  0  0  0  0  0  0  0  0  0  0
    0.7580    8.8583   -0.4001 H   0  0  0  0  0  0  0  0  0  0  0  0
    0.2691    8.0610   -1.9336 H   0  0  0  0  0  0  0  0  0  0  0  0
    1.5983    9.2692   -1.9336 H   0  0  0  0  0  0  0  0  0  0  0  0
  1  2  1  0
  2  3  1  0
  3  4  1  0
  4  5  1  0
  5  6  1  0
  6  7  1  0
  7  8  1  0
  7  9  1  0
  2 10  1  0
 10 11  1  0
 11 12  1  0
 12 13  1  0
 13 14  1  1
 13 15  1  0
 15 16  1  0
 16 17  1  0
 17 18  2  0
 18 19  1  0
 19 20  1  0
 20 21  1  0
 21 22  1  0
 22 23  1  0
 22 24  1  0
 24 25  1  0
 24 26  1  0
 19 27  1  0
 27 28  1  6
 27 29  1  0
 29 30  1  0
 30 31  1  0
 31 32  1  6
  7  5  1  0
 31 10  1  0
 31 13  1  0
 27 15  1  0
 24 18  1  0
  1 33  1  0
  1 34  1  0
  1 35  1  0
  2 36  1  1
  3 37  1  0
  3 38  1  0
  4 39  1  0
  4 40  1  0
  5 41  1  1
  8 42  1  0
  8 43  1  0
  8 44  1  0
  9 45  1  0
  9 46  1  0
  9 47  1  0
 10 48  1  6
 11 49  1  0
 11 50  1  0
 12 51  1  0
 12 52  1  0
 14 53  1  0
 14 54  1  0
 14 55  1  0
 15 56  1  1
 16 57  1  0
 16 58  1  0
 17 59  1  0
 19 60  1  6
 20 61  1  0
 20 62  1  0
 21 63  1  0
 21 64  1  0
 22 65  1  6
 23 66  1  0
 25 67  1  0
 25 68  1  0
 25 69  1  0
 26 70  1  0
 26 71  1  0
 26 72  1  0
 28 73  1  0
 28 74  1  0
 28 75  1  0
 29 76  1  0
 29 77  1  0
 30 78  1  0
 30 79  1  0
 32 80  1  0
 32 81  1  0
 32 82  1  0
M  END
>  <meeko>  (14) 
{"is_sidechain": [false], "intermolecular_energy": 2.731, "internal_energy": -0.839}

$$$$
EPH_relaxed_0001_pdb2pqr_Repair_45_r2_0001_out
     RDKit          3D

 82 86  0  0  0  0  0  0  0  0999 V2000
    2.9090   11.4210   -5.3970 C   0  0  0  0  0  0  0  0  0  0  0  0
    1.9150   11.1110   -4.2740 C   0  0  2  0  0  0  0  0  0  0  0  0
    0.8020   10.1480   -4.7330 C   0  0  0  0  0  0  0  0  0  0  0  0
   -0.2840    9.9150   -3.6790 C   0  0  0  0  0  0  0  0  0  0  0  0
    0.2210    9.0880   -2.5360 C   0  0  2  0  0  0  0  0  0  0  0  0
   -0.6490    8.0200   -2.1390 O   0  0  0  0  0  0  0  0  0  0  0  0
   -0.4370    9.0590   -1.1700 C   0  0  0  0  0  0  0  0  0  0  0  0
   -1.6580    9.8730   -0.8740 C   0  0  0  0  0  0  0  0  0  0  0  0
    0.3780    8.6260    0.0090 C   0  0  0  0  0  0  0  0  0  0  0  0
    1.3020   12.4040   -3.7500 C   0  0  1  0  0  0  0  0  0  0  0  0
   -0.2400   12.3150   -3.5980 C   0  0  0  0  0  0  0  0  0  0  0  0
   -0.6160   13.1630   -2.3560 C   0  0  0  0  0  0  0  0  0  0  0  0
    0.6610   13.9730   -2.0350 C   0  0  1  0  0  0  0  0  0  0  0  0
    0.6300   15.1800   -3.0250 C   0  0  0  0  0  0  0  0  0  0  0  0
    0.8260   14.4460   -0.5540 C   0  0  2  0  0  0  0  0  0  0  0  0
   -0.2610   15.4120   -0.0520 C   0  0  0  0  0  0  0  0  0  0  0  0
    0.0330   16.8620   -0.2520 C   0  0  0  0  0  0  0  0  0  0  0  0
    1.2390   17.3820   -0.5490 C   0  0  0  0  0  0  0  0  0  0  0  0
    2.4860   16.4910   -0.6160 C   0  0  1  0  0  0  0  0  0  0  0  0
    3.6470   17.1670    0.1580 C   0  0  0  0  0  0  0  0  0  0  0  0
    3.9200   18.5890   -0.3200 C   0  0  0  0  0  0  0  0  0  0  0  0
    2.6740   19.4590   -0.1830 C   0  0  2  0  0  0  0  0  0  0  0  0
    2.3770   19.6250    1.2070 O   0  0  0  0  0  0  0  0  0  0  0  0
    1.4340   18.8740   -0.9160 C   0  0  0  0  0  0  0  0  0  0  0  0
    1.6390   18.9740   -2.4480 C   0  0  0  0  0  0  0  0  0  0  0  0
    0.2130   19.7720   -0.5810 C   0  0  0  0  0  0  0  0  0  0  0  0
    2.2760   14.9720   -0.1990 C   0  0  1  0  0  0  0  0  0  0  0  0
    2.4400   14.8170    1.3440 C   0  0  0  0  0  0  0  0  0  0  0  0
    3.4080   14.0970   -0.8560 C   0  0  0  0  0  0  0  0  0  0  0  0
    3.1350   13.5600   -2.2740 C   0  0  0  0  0  0  0  0  0  0  0  0
    1.7590   12.8930   -2.3530 C   0  0  2  0  0  0  0  0  0  0  0  0
    1.7670   11.6620   -1.3840 C   0  0  0  0  0  0  0  0  0  0  0  0
    3.8730   11.7216   -4.9608 H   0  0  0  0  0  0  0  0  0  0  0  0
    3.0514   10.5246   -6.0184 H   0  0  0  0  0  0  0  0  0  0  0  0
    2.5166   12.2394   -6.0184 H   0  0  0  0  0  0  0  0  0  0  0  0
    2.4722   10.6110   -3.4681 H   0  0  0  0  0  0  0  0  0  0  0  0
    0.3284   10.5682   -5.6325 H   0  0  0  0  0  0  0  0  0  0  0  0
    1.2778    9.1749   -4.9247 H   0  0  0  0  0  0  0  0  0  0  0  0
   -0.6209   10.8884   -3.2931 H   0  0  0  0  0  0  0  0  0  0  0  0
   -1.1131    9.3713   -4.1555 H   0  0  0  0  0  0  0  0  0  0  0  0
    1.2630    9.2485   -2.8498 H   0  0  0  0  0  0  0  0  0  0  0  0
   -1.7864    9.9586    0.2151 H   0  0  0  0  0  0  0  0  0  0  0  0
   -1.5442   10.8766   -1.3098 H   0  0  0  0  0  0  0  0  0  0  0  0
   -2.5406    9.3819   -1.3098 H   0  0  0  0  0  0  0  0  0  0  0  0
   -0.1436    8.9031    0.9370 H   0  0  0  0  0  0  0  0  0  0  0  0
    0.5168    7.5352   -0.0219 H   0  0  0  0  0  0  0  0  0  0  0  0
    1.3596    9.1215   -0.0219 H   0  0  0  0  0  0  0  0  0  0  0  0
    1.6521   13.1015   -4.5252 H   0  0  0  0  0  0  0  0  0  0  0  0
   -0.7330   12.7176   -4.4951 H   0  0  0  0  0  0  0  0  0  0  0  0
   -0.5656   11.2713   -3.4772 H   0  0  0  0  0  0  0  0  0  0  0  0
   -1.4553   13.8361   -2.5851 H   0  0  0  0  0  0  0  0  0  0  0  0
   -0.9390   12.5406   -1.5085 H   0  0  0  0  0  0  0  0  0  0  0  0
    0.6058   16.1208   -2.4555 H   0  0  0  0  0  0  0  0  0  0  0  0
    1.5290   15.1578   -3.6585 H   0  0  0  0  0  0  0  0  0  0  0  0
   -0.2667   15.1117   -3.6585 H   0  0  0  0  0  0  0  0  0  0  0  0
    0.6784   13.5126    0.0090 H   0  0  0  0  0  0  0  0  0  0  0  0
   -1.1953   15.1781   -0.5834 H   0  0  0  0  0  0  0  0  0  0  0  0
   -0.3234   15.2613    1.0358 H   0  0  0  0  0  0  0  0  0  0  0  0
   -0.8066   17.5650   -0.1479 H   0  0  0  0  0  0  0  0  0  0  0  0
    2.7457   16.4103   -1.6819 H   0  0  0  0  0  0  0  0  0  0  0  0
    3.3872   17.1981    1.2264 H   0  0  0  0  0  0  0  0  0  0  0  0
    4.5565   16.5747   -0.0210 H   0  0  0  0  0  0  0  0  0  0  0  0
    4.7302   19.0227    0.2846 H   0  0  0  0  0  0  0  0  0  0  0  0
    4.2085   18.5535   -1.3809 H   0  0  0  0  0  0  0  0  0  0  0  0
    2.8934   20.4255   -0.6602 H   0  0  0  0  0  0  0  0  0  0  0  0
    1.6120   19.0610    1.4140 H   0  0  0  0  0  0  0  0  0  0  0  0
    2.6095   19.4474   -2.6579 H   0  0  0  0  0  0  0  0  0  0  0  0
    1.6203   17.9656   -2.8870 H   0  0  0  0  0  0  0  0  0  0  0  0
    0.8328   19.5800   -2.8870 H   0  0  0  0  0  0  0  0  0  0  0  0
    0.1049   19.8515    0.5108 H   0  0  0  0  0  0  0  0  0  0  0  0
    0.3666   20.7740   -1.0082 H   0  0  0  0  0  0  0  0  0  0  0  0
   -0.6977   19.3269   -1.0082 H   0  0  0  0  0  0  0  0  0  0  0  0
    1.7328   15.4854    1.8569 H   0  0  0  0  0  0  0  0  0  0  0  0
    2.2345   13.7754    1.6318 H   0  0  0  0  0  0  0  0  0  0  0  0
    3.4684   15.0809    1.6318 H   0  0  0  0  0  0  0  0  0  0  0  0
    4.3191   14.7116   -0.9024 H   0  0  0  0  0  0  0  0  0  0  0  0
    3.4872   13.2032   -0.2197 H   0  0  0  0  0  0  0  0  0  0  0  0
    3.1711   14.3958   -2.9882 H   0  0  0  0  0  0  0  0  0  0  0  0
    3.9022   12.8105   -2.5185 H   0  0  0  0  0  0  0  0  0  0  0  0
    1.7647   12.0153   -0.3423 H   0  0  0  0  0  0  0  0  0  0  0  0
    0.8728   11.0473   -1.5647 H   0  0  0  0  0  0  0  0  0  0  0  0
    2.6691   11.0590   -1.5647 H   0  0  0  0  0  0  0  0  0  0  0  0
  1  2  1  0
  2  3  1  0
  3  4  1  0
  4  5  1  0
  5  6  1  0
  6  7  1  0
  7  8  1  0
  7  9  1  0
  2 10  1  0
 10 11  1  0
 11 12  1  0
 12 13  1  0
 13 14  1  6
 13 15  1  0
 15 16  1  0
 16 17  1  0
 17 18  2  0
 18 19  1  0
 19 20  1  0
 20 21  1  0
 21 22  1  0
 22 23  1  0
 22 24  1  0
 24 25  1  0
 24 26  1  0
 19 27  1  0
 27 28  1  1
 27 29  1  0
 29 30  1  0
 30 31  1  0
 31 32  1  1
  7  5  1  0
 31 10  1  0
 31 13  1  0
 27 15  1  0
 24 18  1  0
  1 33  1  0
  1 34  1  0
  1 35  1  0
  2 36  1  1
  3 37  1  0
  3 38  1  0
  4 39  1  0
  4 40  1  0
  5 41  1  1
  8 42  1  0
  8 43  1  0
  8 44  1  0
  9 45  1  0
  9 46  1  0
  9 47  1  0
 10 48  1  6
 11 49  1  0
 11 50  1  0
 12 51  1  0
 12 52  1  0
 14 53  1  0
 14 54  1  0
 14 55  1  0
 15 56  1  1
 16 57  1  0
 16 58  1  0
 17 59  1  0
 19 60  1  6
 20 61  1  0
 20 62  1  0
 21 63  1  0
 21 64  1  0
 22 65  1  6
 23 66  1  0
 25 67  1  0
 25 68  1  0
 25 69  1  0
 26 70  1  0
 26 71  1  0
 26 72  1  0
 28 73  1  0
 28 74  1  0
 28 75  1  0
 29 76  1  0
 29 77  1  0
 30 78  1  0
 30 79  1  0
 32 80  1  0
 32 81  1  0
 32 82  1  0
M  END
>  <meeko>  (15) 
{"is_sidechain": [false], "intermolecular_energy": 2.731, "internal_energy": -0.839}

$$$$
EPH_relaxed_0001_pdb2pqr_Repair_45_r2_0001_out
     RDKit          3D

 82 86  0  0  0  0  0  0  0  0999 V2000
    0.8750   14.8640   -2.6060 C   0  0  0  0  0  0  0  0  0  0  0  0
    1.1670   14.1840   -3.9470 C   0  0  2  0  0  0  0  0  0  0  0  0
    0.4910   14.9120   -5.1260 C   0  0  0  0  0  0  0  0  0  0  0  0
    1.1300   14.6090   -6.4840 C   0  0  0  0  0  0  0  0  0  0  0  0
    0.8750   15.7060   -7.4740 C   0  0  2  0  0  0  0  0  0  0  0  0
    0.3950   15.2610   -8.7490 O   0  0  0  0  0  0  0  0  0  0  0  0
    1.6860   15.8920   -8.7430 C   0  0  0  0  0  0  0  0  0  0  0  0
    2.8150   14.9740   -9.0900 C   0  0  0  0  0  0  0  0  0  0  0  0
    1.6990   17.2420   -9.3910 C   0  0  0  0  0  0  0  0  0  0  0  0
    0.7120   12.7310   -3.9020 C   0  0  1  0  0  0  0  0  0  0  0  0
    1.8440   11.7380   -4.2820 C   0  0  0  0  0  0  0  0  0  0  0  0
    1.6350   10.4700   -3.4160 C   0  0  0  0  0  0  0  0  0  0  0  0
    0.2190   10.6340   -2.8170 C   0  0  1  0  0  0  0  0  0  0  0  0
   -0.7510   10.1730   -3.9500 C   0  0  0  0  0  0  0  0  0  0  0  0
   -0.0570    9.8780   -1.4770 C   0  0  2  0  0  0  0  0  0  0  0  0
    0.0440    8.3440   -1.5610 C   0  0  0  0  0  0  0  0  0  0  0  0
   -1.2290    7.6390   -1.8950 C   0  0  0  0  0  0  0  0  0  0  0  0
   -2.4600    8.1790   -1.8400 C   0  0  0  0  0  0  0  0  0  0  0  0
   -2.6720    9.6050   -1.3140 C   0  0  1  0  0  0  0  0  0  0  0  0
   -3.8580    9.6160   -0.3140 C   0  0  0  0  0  0  0  0  0  0  0  0
   -5.1300    9.0180   -0.9080 C   0  0  0  0  0  0  0  0  0  0  0  0
   -4.8950    7.5810   -1.3660 C   0  0  2  0  0  0  0  0  0  0  0  0
   -4.6460    6.7660   -0.2170 O   0  0  0  0  0  0  0  0  0  0  0  0
   -3.7160    7.4440   -2.3700 C   0  0  0  0  0  0  0  0  0  0  0  0
   -4.1120    8.0740   -3.7280 C   0  0  0  0  0  0  0  0  0  0  0  0
   -3.4950    5.9310   -2.6420 C   0  0  0  0  0  0  0  0  0  0  0  0
   -1.3810   10.3300   -0.7380 C   0  0  1  0  0  0  0  0  0  0  0  0
   -1.1960    9.9700    0.7680 C   0  0  0  0  0  0  0  0  0  0  0  0
   -1.5970   11.8890   -0.7980 C   0  0  0  0  0  0  0  0  0  0  0  0
   -1.1940   12.5960   -2.1060 C   0  0  0  0  0  0  0  0  0  0  0  0
    0.2150   12.1820   -2.5410 C   0  0  2  0  0  0  0  0  0  0  0  0
    1.2160   12.6530   -1.4310 C   0  0  0  0  0  0  0  0  0  0  0  0
    1.1634   14.1925   -1.7839 H   0  0  0  0  0  0  0  0  0  0  0  0
    1.4512   15.7983   -2.5355 H   0  0  0  0  0  0  0  0  0  0  0  0
   -0.1993   15.0896   -2.5355 H   0  0  0  0  0  0  0  0  0  0  0  0
    2.2537   14.2282   -4.1114 H   0  0  0  0  0  0  0  0  0  0  0  0
   -0.5651   14.6066   -5.1632 H   0  0  0  0  0  0  0  0  0  0  0  0
    0.6097   15.9910   -4.9483 H   0  0  0  0  0  0  0  0  0  0  0  0
    2.2158   14.4954   -6.3496 H   0  0  0  0  0  0  0  0  0  0  0  0
    0.6822   13.6834   -6.8748 H   0  0  0  0  0  0  0  0  0  0  0  0
    0.5956   16.4010   -6.6685 H   0  0  0  0  0  0  0  0  0  0  0  0
    3.2784   14.5972   -8.1662 H   0  0  0  0  0  0  0  0  0  0  0  0
    2.4318   14.1280   -9.6795 H   0  0  0  0  0  0  0  0  0  0  0  0
    3.5650   15.5217   -9.6795 H   0  0  0  0  0  0  0  0  0  0  0  0
    1.7065   18.0213   -8.6147 H   0  0  0  0  0  0  0  0  0  0  0  0
    2.5981   17.3395  -10.0171 H   0  0  0  0  0  0  0  0  0  0  0  0
    0.8019   17.3568  -10.0171 H   0  0  0  0  0  0  0  0  0  0  0  0
   -0.1234   12.7781   -4.6161 H   0  0  0  0  0  0  0  0  0  0  0  0
    1.7808   11.4821   -5.3500 H   0  0  0  0  0  0  0  0  0  0  0  0
    2.8348   12.1806   -4.1020 H   0  0  0  0  0  0  0  0  0  0  0  0
    1.6915    9.5631   -4.0359 H   0  0  0  0  0  0  0  0  0  0  0  0
    2.4064   10.3645   -2.6389 H   0  0  0  0  0  0  0  0  0  0  0  0
   -1.6586    9.7416   -3.5026 H   0  0  0  0  0  0  0  0  0  0  0  0
   -1.0244   11.0375   -4.5728 H   0  0  0  0  0  0  0  0  0  0  0  0
   -0.2534    9.4151   -4.5728 H   0  0  0  0  0  0  0  0  0  0  0  0
    0.7854   10.1996   -0.8469 H   0  0  0  0  0  0  0  0  0  0  0  0
    0.7844    8.0939   -2.3351 H   0  0  0  0  0  0  0  0  0  0  0  0
    0.3267    8.0018   -0.5545 H   0  0  0  0  0  0  0  0  0  0  0  0
   -1.1540    6.5887   -2.2131 H   0  0  0  0  0  0  0  0  0  0  0  0
   -2.9181   10.2204   -2.1919 H   0  0  0  0  0  0  0  0  0  0  0  0
   -3.5755    9.0322    0.5745 H   0  0  0  0  0  0  0  0  0  0  0  0
   -4.0698   10.6648   -0.0588 H   0  0  0  0  0  0  0  0  0  0  0  0
   -5.9226    9.0277   -0.1453 H   0  0  0  0  0  0  0  0  0  0  0  0
   -5.4273    9.6200   -1.7793 H   0  0  0  0  0  0  0  0  0  0  0  0
   -5.7998    7.2514   -1.8977 H   0  0  0  0  0  0  0  0  0  0  0  0
   -5.3590    6.1070   -0.1640 H   0  0  0  0  0  0  0  0  0  0  0  0
   -4.6898    8.9932   -3.5512 H   0  0  0  0  0  0  0  0  0  0  0  0
   -3.2034    8.3161   -4.2987 H   0  0  0  0  0  0  0  0  0  0  0  0
   -4.7242    7.3602   -4.2987 H   0  0  0  0  0  0  0  0  0  0  0  0
   -3.4166    5.3941   -1.6852 H   0  0  0  0  0  0  0  0  0  0  0  0
   -4.3447    5.5338   -3.2167 H   0  0  0  0  0  0  0  0  0  0  0  0
   -2.5672    5.7935   -3.2167 H   0  0  0  0  0  0  0  0  0  0  0  0
   -1.6103   10.7762    1.3913 H   0  0  0  0  0  0  0  0  0  0  0  0
   -1.7225    9.0294    0.9875 H   0  0  0  0  0  0  0  0  0  0  0  0
   -0.1248    9.8505    0.9875 H   0  0  0  0  0  0  0  0  0  0  0  0
   -2.6666   12.0835   -0.6305 H   0  0  0  0  0  0  0  0  0  0  0  0
   -0.9275   12.3022   -0.0292 H   0  0  0  0  0  0  0  0  0  0  0  0
   -1.9090   12.3248   -2.8967 H   0  0  0  0  0  0  0  0  0  0  0  0
   -1.2033   13.6826   -1.9348 H   0  0  0  0  0  0  0  0  0  0  0  0
    0.7855   12.4505   -0.4392 H   0  0  0  0  0  0  0  0  0  0  0  0
    2.1649   12.1069   -1.5373 H   0  0  0  0  0  0  0  0  0  0  0  0
    1.4002   13.7322   -1.5373 H   0  0  0  0  0  0  0  0  0  0  0  0
  1  2  1  0
  2  3  1  0
  3  4  1  0
  4  5  1  0
  5  6  1  0
  6  7  1  0
  7  8  1  0
  7  9  1  0
  2 10  1  0
 10 11  1  0
 11 12  1  0
 12 13  1  0
 13 14  1  6
 13 15  1  0
 15 16  1  0
 16 17  1  0
 17 18  2  0
 18 19  1  0
 19 20  1  0
 20 21  1  0
 21 22  1  0
 22 23  1  0
 22 24  1  0
 24 25  1  0
 24 26  1  0
 19 27  1  0
 27 28  1  1
 27 29  1  0
 29 30  1  0
 30 31  1  0
 31 32  1  1
  7  5  1  0
 31 10  1  0
 31 13  1  0
 27 15  1  0
 24 18  1  0
  1 33  1  0
  1 34  1  0
  1 35  1  0
  2 36  1  6
  3 37  1  0
  3 38  1  0
  4 39  1  0
  4 40  1  0
  5 41  1  1
  8 42  1  0
  8 43  1  0
  8 44  1  0
  9 45  1  0
  9 46  1  0
  9 47  1  0
 10 48  1  6
 11 49  1  0
 11 50  1  0
 12 51  1  0
 12 52  1  0
 14 53  1  0
 14 54  1  0
 14 55  1  0
 15 56  1  1
 16 57  1  0
 16 58  1  0
 17 59  1  0
 19 60  1  6
 20 61  1  0
 20 62  1  0
 21 63  1  0
 21 64  1  0
 22 65  1  6
 23 66  1  0
 25 67  1  0
 25 68  1  0
 25 69  1  0
 26 70  1  0
 26 71  1  0
 26 72  1  0
 28 73  1  0
 28 74  1  0
 28 75  1  0
 29 76  1  0
 29 77  1  0
 30 78  1  0
 30 79  1  0
 32 80  1  0
 32 81  1  0
 32 82  1  0
M  END
>  <meeko>  (16) 
{"is_sidechain": [false], "intermolecular_energy": 2.731, "internal_energy": -0.839}

$$$$
EPH_relaxed_0001_pdb2pqr_Repair_45_r2_0001_out
     RDKit          3D

 82 86  0  0  0  0  0  0  0  0999 V2000
   -1.7190   14.8400    0.4380 C   0  0  0  0  0  0  0  0  0  0  0  0
   -0.3670   15.5400    0.2800 C   0  0  2  0  0  0  0  0  0  0  0  0
   -0.3840   16.5890   -0.8500 C   0  0  0  0  0  0  0  0  0  0  0  0
   -0.0170   18.0010   -0.3850 C   0  0  0  0  0  0  0  0  0  0  0  0
    1.4290   18.1000   -0.0040 C   0  0  2  0  0  0  0  0  0  0  0  0
    2.0730   19.3150   -0.4100 O   0  0  0  0  0  0  0  0  0  0  0  0
    2.5620   18.1060   -1.0130 C   0  0  0  0  0  0  0  0  0  0  0  0
    2.2980   18.0090   -2.4830 C   0  0  0  0  0  0  0  0  0  0  0  0
    3.9320   17.7140   -0.5540 C   0  0  0  0  0  0  0  0  0  0  0  0
    0.7240   14.5090    0.0160 C   0  0  1  0  0  0  0  0  0  0  0  0
    0.8660   13.4810    1.1700 C   0  0  0  0  0  0  0  0  0  0  0  0
    1.2400   12.1250    0.5180 C   0  0  0  0  0  0  0  0  0  0  0  0
    1.6250   12.4850   -0.9360 C   0  0  1  0  0  0  0  0  0  0  0  0
    3.0980   12.9920   -0.8480 C   0  0  0  0  0  0  0  0  0  0  0  0
    1.4690   11.3440   -1.9940 C   0  0  2  0  0  0  0  0  0  0  0  0
    2.3570   10.1100   -1.7580 C   0  0  0  0  0  0  0  0  0  0  0  0
    3.6970   10.1540   -2.4150 C   0  0  0  0  0  0  0  0  0  0  0  0
    4.0620   11.0050   -3.3920 C   0  0  0  0  0  0  0  0  0  0  0  0
    3.0510   11.9850   -4.0010 C   0  0  1  0  0  0  0  0  0  0  0  0
    3.1650   11.9500   -5.5480 C   0  0  0  0  0  0  0  0  0  0  0  0
    4.5880   12.2020   -6.0360 C   0  0  0  0  0  0  0  0  0  0  0  0
    5.5540   11.1730   -5.4540 C   0  0  2  0  0  0  0  0  0  0  0  0
    5.2370    9.8870   -5.9950 O   0  0  0  0  0  0  0  0  0  0  0  0
    5.5210   11.1110   -3.9020 C   0  0  0  0  0  0  0  0  0  0  0  0
    6.1490   12.3990   -3.3150 C   0  0  0  0  0  0  0  0  0  0  0  0
    6.4340    9.9380   -3.4520 C   0  0  0  0  0  0  0  0  0  0  0  0
    1.5520   11.8370   -3.4960 C   0  0  1  0  0  0  0  0  0  0  0  0
    0.8030   10.7730   -4.3550 C   0  0  0  0  0  0  0  0  0  0  0  0
    0.7970   13.2010   -3.7200 C   0  0  0  0  0  0  0  0  0  0  0  0
    0.8890   14.2410   -2.5870 C   0  0  0  0  0  0  0  0  0  0  0  0
    0.5630   13.6060   -1.2320 C   0  0  2  0  0  0  0  0  0  0  0  0
   -0.9210   13.1060   -1.2830 C   0  0  0  0  0  0  0  0  0  0  0  0
   -1.9478   14.7215    1.5074 H   0  0  0  0  0  0  0  0  0  0  0  0
   -2.5034   15.4453   -0.0399 H   0  0  0  0  0  0  0  0  0  0  0  0
   -1.6775   13.8501   -0.0399 H   0  0  0  0  0  0  0  0  0  0  0  0
   -0.1579   16.0711    1.2203 H   0  0  0  0  0  0  0  0  0  0  0  0
    0.3360   16.2795   -1.6219 H   0  0  0  0  0  0  0  0  0  0  0  0
   -1.4148   16.6340   -1.2312 H   0  0  0  0  0  0  0  0  0  0  0  0
   -0.2199   18.7094   -1.2017 H   0  0  0  0  0  0  0  0  0  0  0  0
   -0.6227   18.2385    0.5020 H   0  0  0  0  0  0  0  0  0  0  0  0
    1.2543   17.5062    0.9053 H   0  0  0  0  0  0  0  0  0  0  0  0
    1.2772   17.6339   -2.6482 H   0  0  0  0  0  0  0  0  0  0  0  0
    2.4016   19.0039   -2.9406 H   0  0  0  0  0  0  0  0  0  0  0  0
    3.0211   17.3178   -2.9406 H   0  0  0  0  0  0  0  0  0  0  0  0
    3.9618   17.7055    0.5456 H   0  0  0  0  0  0  0  0  0  0  0  0
    4.1733   16.7108   -0.9352 H   0  0  0  0  0  0  0  0  0  0  0  0
    4.6675   18.4377   -0.9352 H   0  0  0  0  0  0  0  0  0  0  0  0
    1.5847   15.1814   -0.1152 H   0  0  0  0  0  0  0  0  0  0  0  0
    1.6577   13.7984    1.8647 H   0  0  0  0  0  0  0  0  0  0  0  0
   -0.0694   13.3989    1.7430 H   0  0  0  0  0  0  0  0  0  0  0  0
    2.0899   11.6634    1.0419 H   0  0  0  0  0  0  0  0  0  0  0  0
    0.4155   11.3983    0.5637 H   0  0  0  0  0  0  0  0  0  0  0  0
    3.3888   13.0921    0.2081 H   0  0  0  0  0  0  0  0  0  0  0  0
    3.7641   12.2714   -1.3450 H   0  0  0  0  0  0  0  0  0  0  0  0
    3.1795   13.9699   -1.3450 H   0  0  0  0  0  0  0  0  0  0  0  0
    0.4360   11.0055   -1.8256 H   0  0  0  0  0  0  0  0  0  0  0  0
    2.5130   10.0057   -0.6741 H   0  0  0  0  0  0  0  0  0  0  0  0
    1.8241    9.2604   -2.2099 H   0  0  0  0  0  0  0  0  0  0  0  0
    4.4500    9.4294   -2.0715 H   0  0  0  0  0  0  0  0  0  0  0  0
    3.3298   12.9817   -3.6283 H   0  0  0  0  0  0  0  0  0  0  0  0
    2.8406   10.9607   -5.9031 H   0  0  0  0  0  0  0  0  0  0  0  0
    2.5281   12.7528   -5.9477 H   0  0  0  0  0  0  0  0  0  0  0  0
    4.6093   12.1354   -7.1338 H   0  0  0  0  0  0  0  0  0  0  0  0
    4.9006   13.2036   -5.7056 H   0  0  0  0  0  0  0  0  0  0  0  0
    6.5726   11.4810   -5.7328 H   0  0  0  0  0  0  0  0  0  0  0  0
    5.3370    9.9410   -6.9610 H   0  0  0  0  0  0  0  0  0  0  0  0
    6.1254   12.3506   -2.2163 H   0  0  0  0  0  0  0  0  0  0  0  0
    7.1911   12.4870   -3.6559 H   0  0  0  0  0  0  0  0  0  0  0  0
    5.5766   13.2743   -3.6559 H   0  0  0  0  0  0  0  0  0  0  0  0
    6.4650    9.8982   -2.3532 H   0  0  0  0  0  0  0  0  0  0  0  0
    6.0331    8.9908   -3.8421 H   0  0  0  0  0  0  0  0  0  0  0  0
    7.4506   10.0942   -3.8421 H   0  0  0  0  0  0  0  0  0  0  0  0
    0.2980   10.0556   -3.6915 H   0  0  0  0  0  0  0  0  0  0  0  0
    0.0569   11.2734   -4.9898 H   0  0  0  0  0  0  0  0  0  0  0  0
    1.5257   10.2394   -4.9898 H   0  0  0  0  0  0  0  0  0  0  0  0
    1.2078   13.6631   -4.6298 H   0  0  0  0  0  0  0  0  0  0  0  0
   -0.2684   12.9336   -3.7790 H   0  0  0  0  0  0  0  0  0  0  0  0
    1.9095   14.6503   -2.5563 H   0  0  0  0  0  0  0  0  0  0  0  0
    0.1593   15.0401   -2.7844 H   0  0  0  0  0  0  0  0  0  0  0  0
   -1.3003   12.9782   -0.2584 H   0  0  0  0  0  0  0  0  0  0  0  0
   -1.5391   13.8455   -1.8132 H   0  0  0  0  0  0  0  0  0  0  0  0
   -0.9655   12.1432   -1.8132 H   0  0  0  0  0  0  0  0  0  0  0  0
  1  2  1  0
  2  3  1  0
  3  4  1  0
  4  5  1  0
  5  6  1  0
  6  7  1  0
  7  8  1  0
  7  9  1  0
  2 10  1  0
 10 11  1  0
 11 12  1  0
 12 13  1  0
 13 14  1  1
 13 15  1  0
 15 16  1  0
 16 17  1  0
 17 18  2  0
 18 19  1  0
 19 20  1  0
 20 21  1  0
 21 22  1  0
 22 23  1  0
 22 24  1  0
 24 25  1  0
 24 26  1  0
 19 27  1  0
 27 28  1  6
 27 29  1  0
 29 30  1  0
 30 31  1  0
 31 32  1  6
  7  5  1  0
 31 10  1  0
 31 13  1  0
 27 15  1  0
 24 18  1  0
  1 33  1  0
  1 34  1  0
  1 35  1  0
  2 36  1  1
  3 37  1  0
  3 38  1  0
  4 39  1  0
  4 40  1  0
  5 41  1  1
  8 42  1  0
  8 43  1  0
  8 44  1  0
  9 45  1  0
  9 46  1  0
  9 47  1  0
 10 48  1  6
 11 49  1  0
 11 50  1  0
 12 51  1  0
 12 52  1  0
 14 53  1  0
 14 54  1  0
 14 55  1  0
 15 56  1  6
 16 57  1  0
 16 58  1  0
 17 59  1  0
 19 60  1  1
 20 61  1  0
 20 62  1  0
 21 63  1  0
 21 64  1  0
 22 65  1  1
 23 66  1  0
 25 67  1  0
 25 68  1  0
 25 69  1  0
 26 70  1  0
 26 71  1  0
 26 72  1  0
 28 73  1  0
 28 74  1  0
 28 75  1  0
 29 76  1  0
 29 77  1  0
 30 78  1  0
 30 79  1  0
 32 80  1  0
 32 81  1  0
 32 82  1  0
M  END
>  <meeko>  (17) 
{"is_sidechain": [false], "intermolecular_energy": 2.731, "internal_energy": -0.839}

$$$$
EPH_relaxed_0001_pdb2pqr_Repair_45_r2_0001_out
     RDKit          3D

 82 86  0  0  0  0  0  0  0  0999 V2000
   -2.4390    7.7160   -0.0550 C   0  0  0  0  0  0  0  0  0  0  0  0
   -3.0750    9.1090   -0.0470 C   0  0  2  0  0  0  0  0  0  0  0  0
   -4.5670    9.0690   -0.4360 C   0  0  0  0  0  0  0  0  0  0  0  0
   -5.0880    7.6600   -0.7310 C   0  0  0  0  0  0  0  0  0  0  0  0
   -5.9790    7.6400   -1.9370 C   0  0  2  0  0  0  0  0  0  0  0  0
   -6.9130    8.7250   -2.0090 O   0  0  0  0  0  0  0  0  0  0  0  0
   -7.4770    7.4110   -1.8660 C   0  0  0  0  0  0  0  0  0  0  0  0
   -8.1710    7.1850   -0.5600 C   0  0  0  0  0  0  0  0  0  0  0  0
   -8.1840    6.9220   -3.0920 C   0  0  0  0  0  0  0  0  0  0  0  0
   -2.3160   10.0320   -0.9930 C   0  0  1  0  0  0  0  0  0  0  0  0
   -2.9740   11.4320   -1.1180 C   0  0  0  0  0  0  0  0  0  0  0  0
   -1.8210   12.4550   -1.2860 C   0  0  0  0  0  0  0  0  0  0  0  0
   -0.5730   11.5910   -1.5840 C   0  0  1  0  0  0  0  0  0  0  0  0
   -0.6690   11.2600   -3.1060 C   0  0  0  0  0  0  0  0  0  0  0  0
    0.8090   12.2230   -1.2170 C   0  0  2  0  0  0  0  0  0  0  0  0
    1.1620   13.5110   -1.9810 C   0  0  0  0  0  0  0  0  0  0  0  0
    1.9090   13.3100   -3.2580 C   0  0  0  0  0  0  0  0  0  0  0  0
    2.5300   12.1760   -3.6310 C   0  0  0  0  0  0  0  0  0  0  0  0
    2.6020   10.9700   -2.6850 C   0  0  1  0  0  0  0  0  0  0  0  0
    4.0500   10.4140   -2.6640 C   0  0  0  0  0  0  0  0  0  0  0  0
    4.5740   10.0920   -4.0610 C   0  0  0  0  0  0  0  0  0  0  0  0
    4.5410   11.3300   -4.9540 C   0  0  2  0  0  0  0  0  0  0  0  0
    5.4830   12.2840   -4.4540 O   0  0  0  0  0  0  0  0  0  0  0  0
    3.1330   11.9830   -5.0440 C   0  0  0  0  0  0  0  0  0  0  0  0
    2.1850   11.0670   -5.8570 C   0  0  0  0  0  0  0  0  0  0  0  0
    3.2680   13.2980   -5.8580 C   0  0  0  0  0  0  0  0  0  0  0  0
    2.0140   11.1970   -1.2260 C   0  0  1  0  0  0  0  0  0  0  0  0
    3.1140   11.7930   -0.2960 C   0  0  0  0  0  0  0  0  0  0  0  0
    1.6180    9.8030   -0.6090 C   0  0  0  0  0  0  0  0  0  0  0  0
    0.1970    9.2890   -0.9090 C   0  0  0  0  0  0  0  0  0  0  0  0
   -0.8490   10.3720   -0.6300 C   0  0  2  0  0  0  0  0  0  0  0  0
   -0.7910   10.7100    0.8990 C   0  0  0  0  0  0  0  0  0  0  0  0
   -2.2845    7.3775    0.9802 H   0  0  0  0  0  0  0  0  0  0  0  0
   -3.1049    7.0119   -0.5755 H   0  0  0  0  0  0  0  0  0  0  0  0
   -1.4708    7.7579   -0.5755 H   0  0  0  0  0  0  0  0  0  0  0  0
   -3.0118    9.4953    0.9810 H   0  0  0  0  0  0  0  0  0  0  0  0
   -5.1538    9.4896    0.3939 H   0  0  0  0  0  0  0  0  0  0  0  0
   -4.6736    9.6519   -1.3627 H   0  0  0  0  0  0  0  0  0  0  0  0
   -4.2315    6.9932   -0.9093 H   0  0  0  0  0  0  0  0  0  0  0  0
   -5.6758    7.3230    0.1356 H   0  0  0  0  0  0  0  0  0  0  0  0
   -5.1890    7.1717   -2.5425 H   0  0  0  0  0  0  0  0  0  0  0  0
   -7.4803    7.4099    0.2660 H   0  0  0  0  0  0  0  0  0  0  0  0
   -9.0496    7.8435   -0.4929 H   0  0  0  0  0  0  0  0  0  0  0  0
   -8.4934    6.1354   -0.4929 H   0  0  0  0  0  0  0  0  0  0  0  0
   -9.0555    6.3192   -2.7968 H   0  0  0  0  0  0  0  0  0  0  0  0
   -8.5188    7.7824   -3.6899 H   0  0  0  0  0  0  0  0  0  0  0  0
   -7.4970    6.3051   -3.6899 H   0  0  0  0  0  0  0  0  0  0  0  0
   -2.3456    9.4223   -1.9081 H   0  0  0  0  0  0  0  0  0  0  0  0
   -3.6375   11.4617   -1.9949 H   0  0  0  0  0  0  0  0  0  0  0  0
   -3.5812   11.6636   -0.2305 H   0  0  0  0  0  0  0  0  0  0  0  0
   -2.0280   13.1396   -2.1218 H   0  0  0  0  0  0  0  0  0  0  0  0
   -1.6889   13.0849   -0.3939 H   0  0  0  0  0  0  0  0  0  0  0  0
   -0.9733   10.2108   -3.2346 H   0  0  0  0  0  0  0  0  0  0  0  0
   -1.4133   11.9181   -3.5781 H   0  0  0  0  0  0  0  0  0  0  0  0
    0.3119   11.4178   -3.5781 H   0  0  0  0  0  0  0  0  0  0  0  0
    0.6574   12.5287   -0.1712 H   0  0  0  0  0  0  0  0  0  0  0  0
    0.2238   14.0356   -2.2148 H   0  0  0  0  0  0  0  0  0  0  0  0
    1.8331   14.0816   -1.3222 H   0  0  0  0  0  0  0  0  0  0  0  0
    1.9557   14.1613   -3.9530 H   0  0  0  0  0  0  0  0  0  0  0  0
    1.9186   10.2155   -3.1018 H   0  0  0  0  0  0  0  0  0  0  0  0
    4.7094   11.1651   -2.2046 H   0  0  0  0  0  0  0  0  0  0  0  0
    4.0395    9.4773   -2.0874 H   0  0  0  0  0  0  0  0  0  0  0  0
    5.6104    9.7319   -3.9827 H   0  0  0  0  0  0  0  0  0  0  0  0
    3.9314    9.3191   -4.5079 H   0  0  0  0  0  0  0  0  0  0  0  0
    4.8034   11.0092   -5.9729 H   0  0  0  0  0  0  0  0  0  0  0  0
    4.9790   13.0360   -4.0990 H   0  0  0  0  0  0  0  0  0  0  0  0
    1.5691   10.4719   -5.1668 H   0  0  0  0  0  0  0  0  0  0  0  0
    1.5322   11.6852   -6.4908 H   0  0  0  0  0  0  0  0  0  0  0  0
    2.7804   10.3934   -6.4908 H   0  0  0  0  0  0  0  0  0  0  0  0
    3.3554   14.1495   -5.1672 H   0  0  0  0  0  0  0  0  0  0  0  0
    4.1656   13.2464   -6.4918 H   0  0  0  0  0  0  0  0  0  0  0  0
    2.3787   13.4298   -6.4918 H   0  0  0  0  0  0  0  0  0  0  0  0
    2.8287   11.6384    0.7551 H   0  0  0  0  0  0  0  0  0  0  0  0
    4.0726   11.2909   -0.4934 H   0  0  0  0  0  0  0  0  0  0  0  0
    3.2169   12.8702   -0.4934 H   0  0  0  0  0  0  0  0  0  0  0  0
    2.3296    9.0560   -0.9906 H   0  0  0  0  0  0  0  0  0  0  0  0
    1.6461    9.9521    0.4805 H   0  0  0  0  0  0  0  0  0  0  0  0
    0.1368    8.9950   -1.9673 H   0  0  0  0  0  0  0  0  0  0  0  0
   -0.0086    8.4272   -0.2571 H   0  0  0  0  0  0  0  0  0  0  0  0
   -0.9486    9.7917    1.4837 H   0  0  0  0  0  0  0  0  0  0  0  0
    0.1934   11.1359    1.1433 H   0  0  0  0  0  0  0  0  0  0  0  0
   -1.5771   11.4397    1.1433 H   0  0  0  0  0  0  0  0  0  0  0  0
  1  2  1  0
  2  3  1  0
  3  4  1  0
  4  5  1  0
  5  6  1  0
  6  7  1  0
  7  8  1  0
  7  9  1  0
  2 10  1  0
 10 11  1  0
 11 12  1  0
 12 13  1  0
 13 14  1  6
 13 15  1  0
 15 16  1  0
 16 17  1  0
 17 18  2  0
 18 19  1  0
 19 20  1  0
 20 21  1  0
 21 22  1  0
 22 23  1  0
 22 24  1  0
 24 25  1  0
 24 26  1  0
 19 27  1  0
 27 28  1  1
 27 29  1  0
 29 30  1  0
 30 31  1  0
 31 32  1  1
  7  5  1  0
 31 10  1  0
 31 13  1  0
 27 15  1  0
 24 18  1  0
  1 33  1  0
  1 34  1  0
  1 35  1  0
  2 36  1  1
  3 37  1  0
  3 38  1  0
  4 39  1  0
  4 40  1  0
  5 41  1  6
  8 42  1  0
  8 43  1  0
  8 44  1  0
  9 45  1  0
  9 46  1  0
  9 47  1  0
 10 48  1  6
 11 49  1  0
 11 50  1  0
 12 51  1  0
 12 52  1  0
 14 53  1  0
 14 54  1  0
 14 55  1  0
 15 56  1  1
 16 57  1  0
 16 58  1  0
 17 59  1  0
 19 60  1  6
 20 61  1  0
 20 62  1  0
 21 63  1  0
 21 64  1  0
 22 65  1  6
 23 66  1  0
 25 67  1  0
 25 68  1  0
 25 69  1  0
 26 70  1  0
 26 71  1  0
 26 72  1  0
 28 73  1  0
 28 74  1  0
 28 75  1  0
 29 76  1  0
 29 77  1  0
 30 78  1  0
 30 79  1  0
 32 80  1  0
 32 81  1  0
 32 82  1  0
M  END
>  <meeko>  (18) 
{"is_sidechain": [false], "intermolecular_energy": 2.731, "internal_energy": -0.839}

$$$$
EPH_relaxed_0001_pdb2pqr_Repair_45_r2_0001_out
     RDKit          3D

 82 86  0  0  0  0  0  0  0  0999 V2000
    1.5020   20.1500   -2.2520 C   0  0  0  0  0  0  0  0  0  0  0  0
    1.5730   19.4150   -0.9110 C   0  0  2  0  0  0  0  0  0  0  0  0
    2.4300   20.1730    0.1230 C   0  0  0  0  0  0  0  0  0  0  0  0
    2.6980   19.3770    1.4030 C   0  0  0  0  0  0  0  0  0  0  0  0
    3.5700   20.1380    2.3560 C   0  0  2  0  0  0  0  0  0  0  0  0
    4.9540   20.1940    1.9870 O   0  0  0  0  0  0  0  0  0  0  0  0
    4.6500   19.4890    3.2010 C   0  0  0  0  0  0  0  0  0  0  0  0
    4.9160   18.0180    3.1340 C   0  0  0  0  0  0  0  0  0  0  0  0
    5.1100   20.1940    4.4390 C   0  0  0  0  0  0  0  0  0  0  0  0
    2.1290   18.0100   -1.1170 C   0  0  1  0  0  0  0  0  0  0  0  0
    3.5140   17.8110   -0.4470 C   0  0  0  0  0  0  0  0  0  0  0  0
    3.5600   16.3470    0.0590 C   0  0  0  0  0  0  0  0  0  0  0  0
    2.3520   15.6610   -0.6200 C   0  0  1  0  0  0  0  0  0  0  0  0
    2.8450   15.3120   -2.0590 C   0  0  0  0  0  0  0  0  0  0  0  0
    1.7680   14.4080    0.1100 C   0  0  2  0  0  0  0  0  0  0  0  0
    2.7370   13.2190    0.2420 C   0  0  0  0  0  0  0  0  0  0  0  0
    2.6960   12.2360   -0.8810 C   0  0  0  0  0  0  0  0  0  0  0  0
    1.7230   12.1460   -1.8060 C   0  0  0  0  0  0  0  0  0  0  0  0
    0.4710   13.0290   -1.7220 C   0  0  1  0  0  0  0  0  0  0  0  0
   -0.7930   12.1600   -1.9530 C   0  0  0  0  0  0  0  0  0  0  0  0
   -0.7260   11.3650   -3.2540 C   0  0  0  0  0  0  0  0  0  0  0  0
    0.5000   10.4550   -3.2750 C   0  0  2  0  0  0  0  0  0  0  0  0
    0.3430    9.4460   -2.2730 O   0  0  0  0  0  0  0  0  0  0  0  0
    1.8330   11.2200   -3.0430 C   0  0  0  0  0  0  0  0  0  0  0  0
    2.1540   12.0950   -4.2790 C   0  0  0  0  0  0  0  0  0  0  0  0
    2.9740   10.1710   -2.9460 C   0  0  0  0  0  0  0  0  0  0  0  0
    0.3540   13.9440   -0.4280 C   0  0  1  0  0  0  0  0  0  0  0  0
   -0.3230   13.1460    0.7280 C   0  0  0  0  0  0  0  0  0  0  0  0
   -0.5950   15.1610   -0.7430 C   0  0  0  0  0  0  0  0  0  0  0  0
    0.0620   16.4140   -1.3530 C   0  0  0  0  0  0  0  0  0  0  0  0
    1.3010   16.8280   -0.5540 C   0  0  2  0  0  0  0  0  0  0  0  0
    0.8320   17.2070    0.8930 C   0  0  0  0  0  0  0  0  0  0  0  0
    1.3976   21.2303   -2.0729 H   0  0  0  0  0  0  0  0  0  0  0  0
    2.4227   19.9603   -2.8233 H   0  0  0  0  0  0  0  0  0  0  0  0
    0.6347   19.7876   -2.8233 H   0  0  0  0  0  0  0  0  0  0  0  0
    0.5495   19.3561   -0.5122 H   0  0  0  0  0  0  0  0  0  0  0  0
    3.3963   20.4199   -0.3411 H   0  0  0  0  0  0  0  0  0  0  0  0
    1.8631   21.0693    0.4149 H   0  0  0  0  0  0  0  0  0  0  0  0
    1.7385   19.1584    1.8945 H   0  0  0  0  0  0  0  0  0  0  0  0
    3.2196   18.4487    1.1270 H   0  0  0  0  0  0  0  0  0  0  0  0
    2.7416   20.8156    2.6101 H   0  0  0  0  0  0  0  0  0  0  0  0
    4.9894   17.6119    4.1536 H   0  0  0  0  0  0  0  0  0  0  0  0
    4.0932   17.5206    2.5996 H   0  0  0  0  0  0  0  0  0  0  0  0
    5.8609   17.8402    2.5996 H   0  0  0  0  0  0  0  0  0  0  0  0
    4.7540   19.6484    5.3254 H   0  0  0  0  0  0  0  0  0  0  0  0
    6.2092   20.2350    4.4506 H   0  0  0  0  0  0  0  0  0  0  0  0
    4.7048   21.2166    4.4506 H   0  0  0  0  0  0  0  0  0  0  0  0
    2.1365   17.9745   -2.2164 H   0  0  0  0  0  0  0  0  0  0  0  0
    4.3170   17.9843   -1.1785 H   0  0  0  0  0  0  0  0  0  0  0  0
    3.6572   18.5199    0.3818 H   0  0  0  0  0  0  0  0  0  0  0  0
    4.5008   15.8620   -0.2406 H   0  0  0  0  0  0  0  0  0  0  0  0
    3.5132   16.2834    1.1562 H   0  0  0  0  0  0  0  0  0  0  0  0
    3.7413   14.6775   -1.9957 H   0  0  0  0  0  0  0  0  0  0  0  0
    2.0516   14.7732   -2.5978 H   0  0  0  0  0  0  0  0  0  0  0  0
    3.0895   16.2393   -2.5978 H   0  0  0  0  0  0  0  0  0  0  0  0
    1.6128   14.7824    1.1326 H   0  0  0  0  0  0  0  0  0  0  0  0
    3.7596   13.6193    0.3064 H   0  0  0  0  0  0  0  0  0  0  0  0
    2.4225   12.6681    1.1407 H   0  0  0  0  0  0  0  0  0  0  0  0
    3.5319   11.5252   -0.9588 H   0  0  0  0  0  0  0  0  0  0  0  0
    0.5669   13.7696   -2.5297 H   0  0  0  0  0  0  0  0  0  0  0  0
   -0.8951   11.4558   -1.1141 H   0  0  0  0  0  0  0  0  0  0  0  0
   -1.6569   12.8377   -2.0196 H   0  0  0  0  0  0  0  0  0  0  0  0
   -1.6329   10.7494   -3.3468 H   0  0  0  0  0  0  0  0  0  0  0  0
   -0.6532   12.0716   -4.0939 H   0  0  0  0  0  0  0  0  0  0  0  0
    0.5640   10.0099   -4.2789 H   0  0  0  0  0  0  0  0  0  0  0  0
    0.6810    9.8070   -1.4360 H   0  0  0  0  0  0  0  0  0  0  0  0
    2.5152   13.0796   -3.9474 H   0  0  0  0  0  0  0  0  0  0  0  0
    2.9306   11.6042   -4.8840 H   0  0  0  0  0  0  0  0  0  0  0  0
    1.2442   12.2229   -4.8840 H   0  0  0  0  0  0  0  0  0  0  0  0
    3.1957    9.9672   -1.8880 H   0  0  0  0  0  0  0  0  0  0  0  0
    2.6594    9.2402   -3.4406 H   0  0  0  0  0  0  0  0  0  0  0  0
    3.8751   10.5626   -3.4406 H   0  0  0  0  0  0  0  0  0  0  0  0
    0.0152   13.5446    1.6958 H   0  0  0  0  0  0  0  0  0  0  0  0
   -1.4158   13.2462    0.6518 H   0  0  0  0  0  0  0  0  0  0  0  0
   -0.0460   12.0842    0.6518 H   0  0  0  0  0  0  0  0  0  0  0  0
   -1.3625   14.8106   -1.4488 H   0  0  0  0  0  0  0  0  0  0  0  0
   -0.9815   15.4854    0.2345 H   0  0  0  0  0  0  0  0  0  0  0  0
    0.3587   16.1961   -2.3896 H   0  0  0  0  0  0  0  0  0  0  0  0
   -0.6647   17.2393   -1.3255 H   0  0  0  0  0  0  0  0  0  0  0  0
    1.4669   16.6940    1.6304 H   0  0  0  0  0  0  0  0  0  0  0  0
    0.9145   18.2951    1.0320 H   0  0  0  0  0  0  0  0  0  0  0  0
   -0.2145   16.8979    1.0320 H   0  0  0  0  0  0  0  0  0  0  0  0
  1  2  1  0
  2  3  1  0
  3  4  1  0
  4  5  1  0
  5  6  1  0
  6  7  1  0
  7  8  1  0
  7  9  1  0
  2 10  1  0
 10 11  1  0
 11 12  1  0
 12 13  1  0
 13 14  1  6
 13 15  1  0
 15 16  1  0
 16 17  1  0
 17 18  2  0
 18 19  1  0
 19 20  1  0
 20 21  1  0
 21 22  1  0
 22 23  1  0
 22 24  1  0
 24 25  1  0
 24 26  1  0
 19 27  1  0
 27 28  1  1
 27 29  1  0
 29 30  1  0
 30 31  1  0
 31 32  1  1
  7  5  1  0
 31 10  1  0
 31 13  1  0
 27 15  1  0
 24 18  1  0
  1 33  1  0
  1 34  1  0
  1 35  1  0
  2 36  1  1
  3 37  1  0
  3 38  1  0
  4 39  1  0
  4 40  1  0
  5 41  1  1
  8 42  1  0
  8 43  1  0
  8 44  1  0
  9 45  1  0
  9 46  1  0
  9 47  1  0
 10 48  1  6
 11 49  1  0
 11 50  1  0
 12 51  1  0
 12 52  1  0
 14 53  1  0
 14 54  1  0
 14 55  1  0
 15 56  1  1
 16 57  1  0
 16 58  1  0
 17 59  1  0
 19 60  1  6
 20 61  1  0
 20 62  1  0
 21 63  1  0
 21 64  1  0
 22 65  1  6
 23 66  1  0
 25 67  1  0
 25 68  1  0
 25 69  1  0
 26 70  1  0
 26 71  1  0
 26 72  1  0
 28 73  1  0
 28 74  1  0
 28 75  1  0
 29 76  1  0
 29 77  1  0
 30 78  1  0
 30 79  1  0
 32 80  1  0
 32 81  1  0
 32 82  1  0
M  END
>  <meeko>  (19) 
{"is_sidechain": [false], "intermolecular_energy": 2.731, "internal_energy": -0.839}

$$$$
EPH_relaxed_0001_pdb2pqr_Repair_45_r2_0001_out
     RDKit          3D

 82 86  0  0  0  0  0  0  0  0999 V2000
    3.1060   14.8250   -7.5570 C   0  0  0  0  0  0  0  0  0  0  0  0
    1.5830   14.8690   -7.4040 C   0  0  2  0  0  0  0  0  0  0  0  0
    0.9680   16.1150   -8.0730 C   0  0  0  0  0  0  0  0  0  0  0  0
    1.8940   16.7880   -9.0890 C   0  0  0  0  0  0  0  0  0  0  0  0
    1.5630   16.3840  -10.4940 C   0  0  2  0  0  0  0  0  0  0  0  0
    0.9790   15.0810  -10.6200 O   0  0  0  0  0  0  0  0  0  0  0  0
    2.2680   15.2590  -11.2290 C   0  0  0  0  0  0  0  0  0  0  0  0
    3.3620   14.4690  -10.5810 C   0  0  0  0  0  0  0  0  0  0  0  0
    2.2340   15.2510  -12.7250 C   0  0  0  0  0  0  0  0  0  0  0  0
    1.2080   14.8320   -5.9270 C   0  0  1  0  0  0  0  0  0  0  0  0
   -0.0380   15.6990   -5.6050 C   0  0  0  0  0  0  0  0  0  0  0  0
   -0.8150   14.9650   -4.4810 C   0  0  0  0  0  0  0  0  0  0  0  0
    0.1690   13.8880   -3.9660 C   0  0  1  0  0  0  0  0  0  0  0  0
    1.1190   14.6480   -2.9880 C   0  0  0  0  0  0  0  0  0  0  0  0
   -0.4730   12.6330   -3.2900 C   0  0  2  0  0  0  0  0  0  0  0  0
   -1.2790   12.9210   -2.0120 C   0  0  0  0  0  0  0  0  0  0  0  0
   -0.5010   12.8600   -0.7400 C   0  0  0  0  0  0  0  0  0  0  0  0
    0.7190   12.3110   -0.5940 C   0  0  0  0  0  0  0  0  0  0  0  0
    1.4000   11.5850   -1.7620 C   0  0  1  0  0  0  0  0  0  0  0  0
    1.9800   10.2350   -1.2650 C   0  0  0  0  0  0  0  0  0  0  0  0
    2.9050   10.4030   -0.0630 C   0  0  0  0  0  0  0  0  0  0  0  0
    2.1750   11.0750    1.0970 C   0  0  2  0  0  0  0  0  0  0  0  0
    1.1590   10.1900    1.5770 O   0  0  0  0  0  0  0  0  0  0  0  0
    1.5400   12.4410    0.7120 C   0  0  0  0  0  0  0  0  0  0  0  0
    2.6570   13.4880    0.4820 C   0  0  0  0  0  0  0  0  0  0  0  0
    0.7170   12.9440    1.9290 C   0  0  0  0  0  0  0  0  0  0  0  0
    0.5290   11.4260   -3.0820 C   0  0  1  0  0  0  0  0  0  0  0  0
   -0.3420   10.1350   -2.9930 C   0  0  0  0  0  0  0  0  0  0  0  0
    1.4910   11.2280   -4.3120 C   0  0  0  0  0  0  0  0  0  0  0  0
    1.9960   12.5040   -5.0120 C   0  0  0  0  0  0  0  0  0  0  0  0
    0.8360   13.4550   -5.3220 C   0  0  2  0  0  0  0  0  0  0  0  0
   -0.1250   12.7270   -6.3220 C   0  0  0  0  0  0  0  0  0  0  0  0
    3.5743   14.8115   -6.5617 H   0  0  0  0  0  0  0  0  0  0  0  0
    3.3930   13.9182   -8.1096 H   0  0  0  0  0  0  0  0  0  0  0  0
    3.4448   15.7137   -8.1096 H   0  0  0  0  0  0  0  0  0  0  0  0
    1.1732   13.9846   -7.9139 H   0  0  0  0  0  0  0  0  0  0  0  0
    0.0461   15.8118   -8.5909 H   0  0  0  0  0  0  0  0  0  0  0  0
    0.7793   16.8482   -7.2750 H   0  0  0  0  0  0  0  0  0  0  0  0
    1.7898   17.8793   -8.9980 H   0  0  0  0  0  0  0  0  0  0  0  0
    2.9254   16.4711   -8.8752 H   0  0  0  0  0  0  0  0  0  0  0  0
    1.3529   17.4279  -10.7700 H   0  0  0  0  0  0  0  0  0  0  0  0
    3.2660   14.5383   -9.4874 H   0  0  0  0  0  0  0  0  0  0  0  0
    3.2861   13.4159  -10.8897 H   0  0  0  0  0  0  0  0  0  0  0  0
    4.3378   14.8722  -10.8897 H   0  0  0  0  0  0  0  0  0  0  0  0
    1.2164   15.0116  -13.0674 H   0  0  0  0  0  0  0  0  0  0  0  0
    2.5246   16.2420  -13.1037 H   0  0  0  0  0  0  0  0  0  0  0  0
    2.9360   14.4935  -13.1037 H   0  0  0  0  0  0  0  0  0  0  0  0
    2.1499   15.1933   -5.4886 H   0  0  0  0  0  0  0  0  0  0  0  0
    0.2731   16.6966   -5.2613 H   0  0  0  0  0  0  0  0  0  0  0  0
   -0.6671   15.8335   -6.4973 H   0  0  0  0  0  0  0  0  0  0  0  0
   -1.0834   15.6633   -3.6746 H   0  0  0  0  0  0  0  0  0  0  0  0
   -1.7586   14.5298   -4.8417 H   0  0  0  0  0  0  0  0  0  0  0  0
    0.8348   14.4206   -1.9500 H   0  0  0  0  0  0  0  0  0  0  0  0
    2.1569   14.3281   -3.1624 H   0  0  0  0  0  0  0  0  0  0  0  0
    1.0348   15.7308   -3.1624 H   0  0  0  0  0  0  0  0  0  0  0  0
   -1.2096   12.3110   -4.0409 H   0  0  0  0  0  0  0  0  0  0  0  0
   -1.7071   13.9304   -2.1005 H   0  0  0  0  0  0  0  0  0  0  0  0
   -2.0359   12.1257   -1.9440 H   0  0  0  0  0  0  0  0  0  0  0  0
   -0.9643   13.3015    0.1547 H   0  0  0  0  0  0  0  0  0  0  0  0
    2.2169   12.2426   -2.0939 H   0  0  0  0  0  0  0  0  0  0  0  0
    1.1463    9.5768   -0.9792 H   0  0  0  0  0  0  0  0  0  0  0  0
    2.5730    9.8040   -2.0852 H   0  0  0  0  0  0  0  0  0  0  0  0
    3.2594    9.4129    0.2598 H   0  0  0  0  0  0  0  0  0  0  0  0
    3.7535   11.0374   -0.3588 H   0  0  0  0  0  0  0  0  0  0  0  0
    2.9200   11.2848    1.8786 H   0  0  0  0  0  0  0  0  0  0  0  0
    1.2420   10.1450    2.5450 H   0  0  0  0  0  0  0  0  0  0  0  0
    3.0340   13.8413    1.4531 H   0  0  0  0  0  0  0  0  0  0  0  0
    3.4796   13.0280   -0.0853 H   0  0  0  0  0  0  0  0  0  0  0  0
    2.2511   14.3386   -0.0853 H   0  0  0  0  0  0  0  0  0  0  0  0
    1.2162   12.6389    2.8605 H   0  0  0  0  0  0  0  0  0  0  0  0
    0.6443   14.0410    1.8943 H   0  0  0  0  0  0  0  0  0  0  0  0
   -0.2925   12.5084    1.8943 H   0  0  0  0  0  0  0  0  0  0  0  0
   -0.5136    9.8806   -1.9367 H   0  0  0  0  0  0  0  0  0  0  0  0
   -1.3078   10.3093   -3.4898 H   0  0  0  0  0  0  0  0  0  0  0  0
    0.1813    9.3047   -3.4898 H   0  0  0  0  0  0  0  0  0  0  0  0
    2.3717   10.6713   -3.9593 H   0  0  0  0  0  0  0  0  0  0  0  0
    0.8871   10.7050   -5.0681 H   0  0  0  0  0  0  0  0  0  0  0  0
    2.7143   13.0151   -4.3541 H   0  0  0  0  0  0  0  0  0  0  0  0
    2.4773   12.2176   -5.9587 H   0  0  0  0  0  0  0  0  0  0  0  0
   -0.8777   12.1568   -5.7578 H   0  0  0  0  0  0  0  0  0  0  0  0
   -0.6284   13.4724   -6.9552 H   0  0  0  0  0  0  0  0  0  0  0  0
    0.4563   12.0406   -6.9552 H   0  0  0  0  0  0  0  0  0  0  0  0
  1  2  1  0
  2  3  1  0
  3  4  1  0
  4  5  1  0
  5  6  1  0
  6  7  1  0
  7  8  1  0
  7  9  1  0
  2 10  1  0
 10 11  1  0
 11 12  1  0
 12 13  1  0
 13 14  1  1
 13 15  1  0
 15 16  1  0
 16 17  1  0
 17 18  2  0
 18 19  1  0
 19 20  1  0
 20 21  1  0
 21 22  1  0
 22 23  1  0
 22 24  1  0
 24 25  1  0
 24 26  1  0
 19 27  1  0
 27 28  1  1
 27 29  1  0
 29 30  1  0
 30 31  1  0
 31 32  1  6
  7  5  1  0
 31 10  1  0
 31 13  1  0
 27 15  1  0
 24 18  1  0
  1 33  1  0
  1 34  1  0
  1 35  1  0
  2 36  1  6
  3 37  1  0
  3 38  1  0
  4 39  1  0
  4 40  1  0
  5 41  1  6
  8 42  1  0
  8 43  1  0
  8 44  1  0
  9 45  1  0
  9 46  1  0
  9 47  1  0
 10 48  1  1
 11 49  1  0
 11 50  1  0
 12 51  1  0
 12 52  1  0
 14 53  1  0
 14 54  1  0
 14 55  1  0
 15 56  1  6
 16 57  1  0
 16 58  1  0
 17 59  1  0
 19 60  1  6
 20 61  1  0
 20 62  1  0
 21 63  1  0
 21 64  1  0
 22 65  1  1
 23 66  1  0
 25 67  1  0
 25 68  1  0
 25 69  1  0
 26 70  1  0
 26 71  1  0
 26 72  1  0
 28 73  1  0
 28 74  1  0
 28 75  1  0
 29 76  1  0
 29 77  1  0
 30 78  1  0
 30 79  1  0
 32 80  1  0
 32 81  1  0
 32 82  1  0
M  END
>  <meeko>  (20) 
{"is_sidechain": [false], "intermolecular_energy": 2.731, "internal_energy": -0.839}

$$$$
