EPH_relaxed_0001_pdb2pqr_Repair_149_r2_0001_out
     RDKit          3D

 82 86  0  0  0  0  0  0  0  0999 V2000
    4.5280   17.7110   -0.7610 C   0  0  0  0  0  0  0  0  0  0  0  0
    3.1480   18.2890   -0.4380 C   0  0  2  0  0  0  0  0  0  0  0  0
    3.0970   18.9200    0.9680 C   0  0  0  0  0  0  0  0  0  0  0  0
    4.3470   18.6480    1.8100 C   0  0  0  0  0  0  0  0  0  0  0  0
    4.2090   19.1940    3.1990 C   0  0  2  0  0  0  0  0  0  0  0  0
    5.1740   20.1940    3.5480 O   0  0  0  0  0  0  0  0  0  0  0  0
    5.2350   18.9670    4.2930 C   0  0  0  0  0  0  0  0  0  0  0  0
    6.4750   18.1660    4.0450 C   0  0  0  0  0  0  0  0  0  0  0  0
    4.8040   19.1060    5.7190 C   0  0  0  0  0  0  0  0  0  0  0  0
    2.0880   17.2010   -0.5590 C   0  0  1  0  0  0  0  0  0  0  0  0
    0.7500   17.7320   -1.1410 C   0  0  0  0  0  0  0  0  0  0  0  0
    0.1540   16.5910   -2.0050 C   0  0  0  0  0  0  0  0  0  0  0  0
    0.9860   15.3420   -1.6300 C   0  0  1  0  0  0  0  0  0  0  0  0
    0.3590   14.8290   -0.2960 C   0  0  0  0  0  0  0  0  0  0  0  0
    1.0580   14.2110   -2.7070 C   0  0  2  0  0  0  0  0  0  0  0  0
   -0.2910   13.5620   -3.0630 C   0  0  0  0  0  0  0  0  0  0  0  0
   -0.6620   12.3710   -2.2430 C   0  0  0  0  0  0  0  0  0  0  0  0
    0.1760   11.6710   -1.4560 C   0  0  0  0  0  0  0  0  0  0  0  0
    1.6740   12.0020   -1.4110 C   0  0  1  0  0  0  0  0  0  0  0  0
    2.4970   10.6910   -1.5190 C   0  0  0  0  0  0  0  0  0  0  0  0
    2.0950    9.6590   -0.4700 C   0  0  0  0  0  0  0  0  0  0  0  0
    0.6120    9.3140   -0.5850 C   0  0  2  0  0  0  0  0  0  0  0  0
    0.3920    8.6340   -1.8250 O   0  0  0  0  0  0  0  0  0  0  0  0
   -0.3150   10.5580   -0.4990 C   0  0  0  0  0  0  0  0  0  0  0  0
   -0.3030   11.1180    0.9450 C   0  0  0  0  0  0  0  0  0  0  0  0
   -1.7700   10.0880   -0.7700 C   0  0  0  0  0  0  0  0  0  0  0  0
    2.1680   13.1190   -2.4270 C   0  0  1  0  0  0  0  0  0  0  0  0
    2.5130   12.4710   -3.8030 C   0  0  0  0  0  0  0  0  0  0  0  0
    3.5050   13.7500   -1.8870 C   0  0  0  0  0  0  0  0  0  0  0  0
    3.3700   14.9420   -0.9190 C   0  0  0  0  0  0  0  0  0  0  0  0
    2.4080   15.9950   -1.4780 C   0  0  2  0  0  0  0  0  0  0  0  0
    3.0230   16.5460   -2.8090 C   0  0  0  0  0  0  0  0  0  0  0  0
    5.0604   17.4880    0.1754 H   0  0  0  0  0  0  0  0  0  0  0  0
    4.4107   16.7864   -1.3452 H   0  0  0  0  0  0  0  0  0  0  0  0
    5.1046   18.4432   -1.3452 H   0  0  0  0  0  0  0  0  0  0  0  0
    2.9455   19.0884   -1.1660 H   0  0  0  0  0  0  0  0  0  0  0  0
    2.9834   20.0084    0.8564 H   0  0  0  0  0  0  0  0  0  0  0  0
    2.2477   18.4616    1.4957 H   0  0  0  0  0  0  0  0  0  0  0  0
    4.5081   17.5614    1.8684 H   0  0  0  0  0  0  0  0  0  0  0  0
    5.2005   19.1475    1.3283 H   0  0  0  0  0  0  0  0  0  0  0  0
    3.1182   19.0548    3.1702 H   0  0  0  0  0  0  0  0  0  0  0  0
    6.9231   17.8766    5.0070 H   0  0  0  0  0  0  0  0  0  0  0  0
    6.2192   17.2620    3.4729 H   0  0  0  0  0  0  0  0  0  0  0  0
    7.1939   18.7708    3.4729 H   0  0  0  0  0  0  0  0  0  0  0  0
    5.6391   18.8367    6.3824 H   0  0  0  0  0  0  0  0  0  0  0  0
    4.5037   20.1466    5.9115 H   0  0  0  0  0  0  0  0  0  0  0  0
    3.9523   18.4370    5.9115 H   0  0  0  0  0  0  0  0  0  0  0  0
    2.0403   16.8731    0.4899 H   0  0  0  0  0  0  0  0  0  0  0  0
    0.0584   17.9906   -0.3257 H   0  0  0  0  0  0  0  0  0  0  0  0
    0.9129   18.6387   -1.7421 H   0  0  0  0  0  0  0  0  0  0  0  0
   -0.9083   16.4364   -1.7648 H   0  0  0  0  0  0  0  0  0  0  0  0
    0.1999   16.8151   -3.0810 H   0  0  0  0  0  0  0  0  0  0  0  0
    0.8978   15.2698    0.5557 H   0  0  0  0  0  0  0  0  0  0  0  0
   -0.7001   15.1229   -0.2518 H   0  0  0  0  0  0  0  0  0  0  0  0
    0.4374   13.7327   -0.2518 H   0  0  0  0  0  0  0  0  0  0  0  0
    1.3714   14.7617   -3.6062 H   0  0  0  0  0  0  0  0  0  0  0  0
   -1.0773   14.3206   -2.9356 H   0  0  0  0  0  0  0  0  0  0  0  0
   -0.1911   13.2003   -4.0970 H   0  0  0  0  0  0  0  0  0  0  0  0
   -1.7092   12.0371   -2.2856 H   0  0  0  0  0  0  0  0  0  0  0  0
    1.8522   12.4750   -0.4340 H   0  0  0  0  0  0  0  0  0  0  0  0
    2.3403   10.2577   -2.5179 H   0  0  0  0  0  0  0  0  0  0  0  0
    3.5536   10.9454   -1.3489 H   0  0  0  0  0  0  0  0  0  0  0  0
    2.6897    8.7454   -0.6172 H   0  0  0  0  0  0  0  0  0  0  0  0
    2.2809   10.0819    0.5283 H   0  0  0  0  0  0  0  0  0  0  0  0
    0.3550    8.6725    0.2708 H   0  0  0  0  0  0  0  0  0  0  0  0
    0.3830    7.6790   -1.6390 H   0  0  0  0  0  0  0  0  0  0  0  0
   -0.3209   10.2839    1.6619 H   0  0  0  0  0  0  0  0  0  0  0  0
    0.6081   11.7147    1.0993 H   0  0  0  0  0  0  0  0  0  0  0  0
   -1.1877   11.7532    1.0993 H   0  0  0  0  0  0  0  0  0  0  0  0
   -2.2858    9.9214    0.1872 H   0  0  0  0  0  0  0  0  0  0  0  0
   -2.3035   10.8595   -1.3446 H   0  0  0  0  0  0  0  0  0  0  0  0
   -1.7514    9.1502   -1.3446 H   0  0  0  0  0  0  0  0  0  0  0  0
    3.0241   11.5110   -3.6383 H   0  0  0  0  0  0  0  0  0  0  0  0
    1.5863   12.3004   -4.3706 H   0  0  0  0  0  0  0  0  0  0  0  0
    3.1719   13.1446   -4.3706 H   0  0  0  0  0  0  0  0  0  0  0  0
    4.0593   12.9572   -1.3633 H   0  0  0  0  0  0  0  0  0  0  0  0
    4.0106   14.1566   -2.7753 H   0  0  0  0  0  0  0  0  0  0  0  0
    2.9863   14.5802    0.0463 H   0  0  0  0  0  0  0  0  0  0  0  0
    4.3600   15.4039   -0.7906 H   0  0  0  0  0  0  0  0  0  0  0  0
    3.8233   17.2631   -2.5738 H   0  0  0  0  0  0  0  0  0  0  0  0
    3.4381   15.7120   -3.3939 H   0  0  0  0  0  0  0  0  0  0  0  0
    2.2395   17.0499   -3.3939 H   0  0  0  0  0  0  0  0  0  0  0  0
  1  2  1  0
  2  3  1  0
  3  4  1  0
  4  5  1  0
  5  6  1  0
  6  7  1  0
  7  8  1  0
  7  9  1  0
  2 10  1  0
 10 11  1  0
 11 12  1  0
 12 13  1  0
 13 14  1  1
 13 15  1  0
 15 16  1  0
 16 17  1  0
 17 18  2  0
 18 19  1  0
 19 20  1  0
 20 21  1  0
 21 22  1  0
 22 23  1  0
 22 24  1  0
 24 25  1  0
 24 26  1  0
 19 27  1  0
 27 28  1  6
 27 29  1  0
 29 30  1  0
 30 31  1  0
 31 32  1  6
  7  5  1  0
 31 10  1  0
 31 13  1  0
 27 15  1  0
 24 18  1  0
  1 33  1  0
  1 34  1  0
  1 35  1  0
  2 36  1  6
  3 37  1  0
  3 38  1  0
  4 39  1  0
  4 40  1  0
  5 41  1  1
  8 42  1  0
  8 43  1  0
  8 44  1  0
  9 45  1  0
  9 46  1  0
  9 47  1  0
 10 48  1  1
 11 49  1  0
 11 50  1  0
 12 51  1  0
 12 52  1  0
 14 53  1  0
 14 54  1  0
 14 55  1  0
 15 56  1  6
 16 57  1  0
 16 58  1  0
 17 59  1  0
 19 60  1  1
 20 61  1  0
 20 62  1  0
 21 63  1  0
 21 64  1  0
 22 65  1  1
 23 66  1  0
 25 67  1  0
 25 68  1  0
 25 69  1  0
 26 70  1  0
 26 71  1  0
 26 72  1  0
 28 73  1  0
 28 74  1  0
 28 75  1  0
 29 76  1  0
 29 77  1  0
 30 78  1  0
 30 79  1  0
 32 80  1  0
 32 81  1  0
 32 82  1  0
M  END
>  <meeko>  (1) 
{"is_sidechain": [false], "intermolecular_energy": 2.731, "internal_energy": -0.839}

$$$$
EPH_relaxed_0001_pdb2pqr_Repair_149_r2_0001_out
     RDKit          3D

 82 86  0  0  0  0  0  0  0  0999 V2000
    3.8550   17.9780    0.6230 C   0  0  0  0  0  0  0  0  0  0  0  0
    2.9590   18.3790   -0.5520 C   0  0  2  0  0  0  0  0  0  0  0  0
    2.2150   19.7040   -0.2900 C   0  0  0  0  0  0  0  0  0  0  0  0
    1.1740   19.6130    0.8300 C   0  0  0  0  0  0  0  0  0  0  0  0
   -0.1500   20.1710    0.4020 C   0  0  2  0  0  0  0  0  0  0  0  0
   -1.1500   20.1930    1.4290 O   0  0  0  0  0  0  0  0  0  0  0  0
   -1.4150   19.3400    0.3040 C   0  0  0  0  0  0  0  0  0  0  0  0
   -1.4180   17.8800    0.6340 C   0  0  0  0  0  0  0  0  0  0  0  0
   -2.5250   19.8280   -0.5740 C   0  0  0  0  0  0  0  0  0  0  0  0
    1.9580   17.2680   -0.8460 C   0  0  1  0  0  0  0  0  0  0  0  0
    0.8200   17.7260   -1.7980 C   0  0  0  0  0  0  0  0  0  0  0  0
    0.4590   16.5050   -2.6830 C   0  0  0  0  0  0  0  0  0  0  0  0
    1.1560   15.3060   -1.9970 C   0  0  1  0  0  0  0  0  0  0  0  0
    0.2020   14.9020   -0.8290 C   0  0  0  0  0  0  0  0  0  0  0  0
    1.4950   14.0870   -2.9140 C   0  0  2  0  0  0  0  0  0  0  0  0
    0.2790   13.3890   -3.5470 C   0  0  0  0  0  0  0  0  0  0  0  0
   -0.3010   12.2680   -2.7490 C   0  0  0  0  0  0  0  0  0  0  0  0
    0.3000   11.6530   -1.7130 C   0  0  0  0  0  0  0  0  0  0  0  0
    1.7380   12.0090   -1.3120 C   0  0  1  0  0  0  0  0  0  0  0  0
    2.5510   10.7070   -1.0880 C   0  0  0  0  0  0  0  0  0  0  0  0
    1.8830    9.7650   -0.0910 C   0  0  0  0  0  0  0  0  0  0  0  0
    0.4780    9.3880   -0.5540 C   0  0  2  0  0  0  0  0  0  0  0  0
    0.5810    8.5980   -1.7430 O   0  0  0  0  0  0  0  0  0  0  0  0
   -0.4310   10.6200   -0.8210 C   0  0  0  0  0  0  0  0  0  0  0  0
   -0.7880   11.3040    0.5220 C   0  0  0  0  0  0  0  0  0  0  0  0
   -1.7700   10.1060   -1.4160 C   0  0  0  0  0  0  0  0  0  0  0  0
    2.4870   13.0400   -2.2620 C   0  0  1  0  0  0  0  0  0  0  0  0
    3.1700   12.2800   -3.4390 C   0  0  0  0  0  0  0  0  0  0  0  0
    3.6440   13.7370   -1.4520 C   0  0  0  0  0  0  0  0  0  0  0  0
    3.2720   15.0060   -0.6620 C   0  0  0  0  0  0  0  0  0  0  0  0
    2.4950   15.9920   -1.5410 C   0  0  2  0  0  0  0  0  0  0  0  0
    3.4380   16.4340   -2.7120 C   0  0  0  0  0  0  0  0  0  0  0  0
    3.3431   18.2071    1.5693 H   0  0  0  0  0  0  0  0  0  0  0  0
    4.0659   16.8996    0.5719 H   0  0  0  0  0  0  0  0  0  0  0  0
    4.7997   18.5392    0.5719 H   0  0  0  0  0  0  0  0  0  0  0  0
    3.6093   18.5335   -1.4257 H   0  0  0  0  0  0  0  0  0  0  0  0
    2.9553   20.4698   -0.0150 H   0  0  0  0  0  0  0  0  0  0  0  0
    1.6734   19.9573   -1.2133 H   0  0  0  0  0  0  0  0  0  0  0  0
    1.0425   18.5573    1.1097 H   0  0  0  0  0  0  0  0  0  0  0  0
    1.5359   20.2045    1.6839 H   0  0  0  0  0  0  0  0  0  0  0  0
    0.3402   20.8549   -0.3065 H   0  0  0  0  0  0  0  0  0  0  0  0
   -1.4183   17.7510    1.7264 H   0  0  0  0  0  0  0  0  0  0  0  0
   -2.3171   17.4099    0.2091 H   0  0  0  0  0  0  0  0  0  0  0  0
   -0.5208   17.4062    0.2091 H   0  0  0  0  0  0  0  0  0  0  0  0
   -3.3537   20.1923    0.0510 H   0  0  0  0  0  0  0  0  0  0  0  0
   -2.1570   20.6473   -1.2090 H   0  0  0  0  0  0  0  0  0  0  0  0
   -2.8799   19.0029   -1.2090 H   0  0  0  0  0  0  0  0  0  0  0  0
    1.6386   17.0317    0.1797 H   0  0  0  0  0  0  0  0  0  0  0  0
   -0.0569   18.0437   -1.2148 H   0  0  0  0  0  0  0  0  0  0  0  0
    1.1396   18.5796   -2.4138 H   0  0  0  0  0  0  0  0  0  0  0  0
   -0.6304   16.3557   -2.7130 H   0  0  0  0  0  0  0  0  0  0  0  0
    0.7835   16.6352   -3.7259 H   0  0  0  0  0  0  0  0  0  0  0  0
    0.6924   15.1097    0.1335 H   0  0  0  0  0  0  0  0  0  0  0  0
   -0.7295   15.4829   -0.8988 H   0  0  0  0  0  0  0  0  0  0  0  0
   -0.0290   13.8288   -0.8988 H   0  0  0  0  0  0  0  0  0  0  0  0
    2.0347   14.5620   -3.7465 H   0  0  0  0  0  0  0  0  0  0  0  0
   -0.5075   14.1438   -3.6940 H   0  0  0  0  0  0  0  0  0  0  0  0
    0.6401   12.9400   -4.4840 H   0  0  0  0  0  0  0  0  0  0  0  0
   -1.3038   11.9149   -3.0314 H   0  0  0  0  0  0  0  0  0  0  0  0
    1.6609   12.5676   -0.3675 H   0  0  0  0  0  0  0  0  0  0  0  0
    2.6544   10.1856   -2.0511 H   0  0  0  0  0  0  0  0  0  0  0  0
    3.5300   10.9913   -0.6747 H   0  0  0  0  0  0  0  0  0  0  0  0
    2.4885    8.8514    0.0025 H   0  0  0  0  0  0  0  0  0  0  0  0
    1.8073   10.2771    0.8796 H   0  0  0  0  0  0  0  0  0  0  0  0
    0.0037    8.8202    0.2601 H   0  0  0  0  0  0  0  0  0  0  0  0
   -0.2520    8.6980   -2.2350 H   0  0  0  0  0  0  0  0  0  0  0  0
   -0.4564   10.6687    1.3566 H   0  0  0  0  0  0  0  0  0  0  0  0
   -0.2843   12.2801    0.5816 H   0  0  0  0  0  0  0  0  0  0  0  0
   -1.8768   11.4490    0.5816 H   0  0  0  0  0  0  0  0  0  0  0  0
   -2.4572    9.8422   -0.5986 H   0  0  0  0  0  0  0  0  0  0  0  0
   -2.2226   10.8943   -2.0355 H   0  0  0  0  0  0  0  0  0  0  0  0
   -1.5788    9.2173   -2.0355 H   0  0  0  0  0  0  0  0  0  0  0  0
    3.8541   11.5187   -3.0360 H   0  0  0  0  0  0  0  0  0  0  0  0
    2.4009   11.7921   -4.0558 H   0  0  0  0  0  0  0  0  0  0  0  0
    3.7370   12.9928   -4.0558 H   0  0  0  0  0  0  0  0  0  0  0  0
    4.0376   13.0019   -0.7346 H   0  0  0  0  0  0  0  0  0  0  0  0
    4.3657   14.0721   -2.2116 H   0  0  0  0  0  0  0  0  0  0  0  0
    2.6488   14.7237    0.1994 H   0  0  0  0  0  0  0  0  0  0  0  0
    4.1988   15.4928   -0.3241 H   0  0  0  0  0  0  0  0  0  0  0  0
    4.3603   16.8663   -2.2968 H   0  0  0  0  0  0  0  0  0  0  0  0
    3.6890   15.5597   -3.3306 H   0  0  0  0  0  0  0  0  0  0  0  0
    2.9266   17.1862   -3.3306 H   0  0  0  0  0  0  0  0  0  0  0  0
  1  2  1  0
  2  3  1  0
  3  4  1  0
  4  5  1  0
  5  6  1  0
  6  7  1  0
  7  8  1  0
  7  9  1  0
  2 10  1  0
 10 11  1  0
 11 12  1  0
 12 13  1  0
 13 14  1  1
 13 15  1  0
 15 16  1  0
 16 17  1  0
 17 18  2  0
 18 19  1  0
 19 20  1  0
 20 21  1  0
 21 22  1  0
 22 23  1  0
 22 24  1  0
 24 25  1  0
 24 26  1  0
 19 27  1  0
 27 28  1  6
 27 29  1  0
 29 30  1  0
 30 31  1  0
 31 32  1  6
  7  5  1  0
 31 10  1  0
 31 13  1  0
 27 15  1  0
 24 18  1  0
  1 33  1  0
  1 34  1  0
  1 35  1  0
  2 36  1  6
  3 37  1  0
  3 38  1  0
  4 39  1  0
  4 40  1  0
  5 41  1  6
  8 42  1  0
  8 43  1  0
  8 44  1  0
  9 45  1  0
  9 46  1  0
  9 47  1  0
 10 48  1  1
 11 49  1  0
 11 50  1  0
 12 51  1  0
 12 52  1  0
 14 53  1  0
 14 54  1  0
 14 55  1  0
 15 56  1  6
 16 57  1  0
 16 58  1  0
 17 59  1  0
 19 60  1  1
 20 61  1  0
 20 62  1  0
 21 63  1  0
 21 64  1  0
 22 65  1  1
 23 66  1  0
 25 67  1  0
 25 68  1  0
 25 69  1  0
 26 70  1  0
 26 71  1  0
 26 72  1  0
 28 73  1  0
 28 74  1  0
 28 75  1  0
 29 76  1  0
 29 77  1  0
 30 78  1  0
 30 79  1  0
 32 80  1  0
 32 81  1  0
 32 82  1  0
M  END
>  <meeko>  (2) 
{"is_sidechain": [false], "intermolecular_energy": 2.731, "internal_energy": -0.839}

$$$$
EPH_relaxed_0001_pdb2pqr_Repair_149_r2_0001_out
     RDKit          3D

 82 86  0  0  0  0  0  0  0  0999 V2000
    3.1600   17.2150    0.4420 C   0  0  0  0  0  0  0  0  0  0  0  0
    2.6470   17.4290   -0.9840 C   0  0  2  0  0  0  0  0  0  0  0  0
    1.9540   18.7960   -1.1530 C   0  0  0  0  0  0  0  0  0  0  0  0
    1.3640   19.3520    0.1450 C   0  0  0  0  0  0  0  0  0  0  0  0
    0.0620   20.0550   -0.0930 C   0  0  2  0  0  0  0  0  0  0  0  0
   -0.7660   20.1940    1.0690 O   0  0  0  0  0  0  0  0  0  0  0  0
   -1.2890   19.3730    0.0130 C   0  0  0  0  0  0  0  0  0  0  0  0
   -1.4060   17.9240    0.3700 C   0  0  0  0  0  0  0  0  0  0  0  0
   -2.4560   19.9810   -0.7010 C   0  0  0  0  0  0  0  0  0  0  0  0
    1.6860   16.3080   -1.3640 C   0  0  1  0  0  0  0  0  0  0  0  0
    0.8500   16.6410   -2.6280 C   0  0  0  0  0  0  0  0  0  0  0  0
    0.6480   15.3080   -3.3950 C   0  0  0  0  0  0  0  0  0  0  0  0
    1.0810   14.2130   -2.3930 C   0  0  1  0  0  0  0  0  0  0  0  0
   -0.1550   14.0090   -1.4620 C   0  0  0  0  0  0  0  0  0  0  0  0
    1.5650   12.8610   -3.0130 C   0  0  2  0  0  0  0  0  0  0  0  0
    0.5060   12.1020   -3.8300 C   0  0  0  0  0  0  0  0  0  0  0  0
   -0.3190   11.1280   -3.0560 C   0  0  0  0  0  0  0  0  0  0  0  0
   -0.0310   10.6630   -1.8260 C   0  0  0  0  0  0  0  0  0  0  0  0
    1.2800   11.0450   -1.1270 C   0  0  1  0  0  0  0  0  0  0  0  0
    1.9340    9.7740   -0.5220 C   0  0  0  0  0  0  0  0  0  0  0  0
    0.9850    9.0080    0.3950 C   0  0  0  0  0  0  0  0  0  0  0  0
   -0.2810    8.5950   -0.3520 C   0  0  2  0  0  0  0  0  0  0  0  0
    0.0680    7.6340   -1.3530 O   0  0  0  0  0  0  0  0  0  0  0  0
   -1.0200    9.7920   -1.0130 C   0  0  0  0  0  0  0  0  0  0  0  0
   -1.6590   10.6790    0.0850 C   0  0  0  0  0  0  0  0  0  0  0  0
   -2.1970    9.2230   -1.8500 C   0  0  0  0  0  0  0  0  0  0  0  0
    2.3010   11.9050   -1.9890 C   0  0  1  0  0  0  0  0  0  0  0  0
    3.2090   10.9610   -2.8350 C   0  0  0  0  0  0  0  0  0  0  0  0
    3.2590   12.6910   -1.0180 C   0  0  0  0  0  0  0  0  0  0  0  0
    2.7780   14.0720   -0.5350 C   0  0  0  0  0  0  0  0  0  0  0  0
    2.3030   14.9300   -1.7120 C   0  0  2  0  0  0  0  0  0  0  0  0
    3.5310   15.1700   -2.6550 C   0  0  0  0  0  0  0  0  0  0  0  0
    2.3911   17.5357    1.1603 H   0  0  0  0  0  0  0  0  0  0  0  0
    3.3830   16.1488    0.5953 H   0  0  0  0  0  0  0  0  0  0  0  0
    4.0746   17.8066    0.5953 H   0  0  0  0  0  0  0  0  0  0  0  0
    3.5187   17.4156   -1.6547 H   0  0  0  0  0  0  0  0  0  0  0  0
    2.6937   19.5154   -1.5343 H   0  0  0  0  0  0  0  0  0  0  0  0
    1.1154   18.6471   -1.8491 H   0  0  0  0  0  0  0  0  0  0  0  0
    1.1970   18.5204    0.8454 H   0  0  0  0  0  0  0  0  0  0  0  0
    2.0758   20.0808    0.5600 H   0  0  0  0  0  0  0  0  0  0  0  0
    0.5154   20.6766   -0.8792 H   0  0  0  0  0  0  0  0  0  0  0  0
   -1.4148   17.8156    1.4646 H   0  0  0  0  0  0  0  0  0  0  0  0
   -2.3398   17.5181   -0.0461 H   0  0  0  0  0  0  0  0  0  0  0  0
   -0.5494   17.3735   -0.0461 H   0  0  0  0  0  0  0  0  0  0  0  0
   -3.1805   20.3584    0.0357 H   0  0  0  0  0  0  0  0  0  0  0  0
   -2.1075   20.8122   -1.3316 H   0  0  0  0  0  0  0  0  0  0  0  0
   -2.9375   19.2191   -1.3316 H   0  0  0  0  0  0  0  0  0  0  0  0
    1.1077   16.2366   -0.4310 H   0  0  0  0  0  0  0  0  0  0  0  0
   -0.1238   17.0624   -2.3379 H   0  0  0  0  0  0  0  0  0  0  0  0
    1.3628   17.3843   -3.2561 H   0  0  0  0  0  0  0  0  0  0  0  0
   -0.4068   15.1793   -3.6792 H   0  0  0  0  0  0  0  0  0  0  0  0
    1.2277   15.2719   -4.3292 H   0  0  0  0  0  0  0  0  0  0  0  0
    0.1650   14.0618   -0.4109 H   0  0  0  0  0  0  0  0  0  0  0  0
   -0.8968   14.7969   -1.6595 H   0  0  0  0  0  0  0  0  0  0  0  0
   -0.6043   13.0245   -1.6595 H   0  0  0  0  0  0  0  0  0  0  0  0
    2.3213   13.1921   -3.7399 H   0  0  0  0  0  0  0  0  0  0  0  0
   -0.1732   12.8426   -4.2775 H   0  0  0  0  0  0  0  0  0  0  0  0
    1.0613   11.5088   -4.5715 H   0  0  0  0  0  0  0  0  0  0  0  0
   -1.2401   10.7591   -3.5309 H   0  0  0  0  0  0  0  0  0  0  0  0
    1.0031   11.7418   -0.3221 H   0  0  0  0  0  0  0  0  0  0  0  0
    2.2423    9.1109   -1.3437 H   0  0  0  0  0  0  0  0  0  0  0  0
    2.7946   10.0966    0.0824 H   0  0  0  0  0  0  0  0  0  0  0  0
    1.4936    8.1065    0.7673 H   0  0  0  0  0  0  0  0  0  0  0  0
    0.7009    9.6627    1.2320 H   0  0  0  0  0  0  0  0  0  0  0  0
   -0.9750    8.1665    0.3861 H   0  0  0  0  0  0  0  0  0  0  0  0
   -0.7340    7.1270   -1.5670 H   0  0  0  0  0  0  0  0  0  0  0  0
   -1.3806   10.2926    1.0766 H   0  0  0  0  0  0  0  0  0  0  0  0
   -1.2963   11.7120   -0.0210 H   0  0  0  0  0  0  0  0  0  0  0  0
   -2.7537   10.6621   -0.0210 H   0  0  0  0  0  0  0  0  0  0  0  0
   -2.9785    8.8452   -1.1743 H   0  0  0  0  0  0  0  0  0  0  0  0
   -2.6142   10.0189   -2.4844 H   0  0  0  0  0  0  0  0  0  0  0  0
   -1.8324    8.4017   -2.4844 H   0  0  0  0  0  0  0  0  0  0  0  0
    3.8126   10.3335   -2.1628 H   0  0  0  0  0  0  0  0  0  0  0  0
    2.5802   10.3192   -3.4695 H   0  0  0  0  0  0  0  0  0  0  0  0
    3.8748   11.5644   -3.4695 H   0  0  0  0  0  0  0  0  0  0  0  0
    3.4181   12.0642   -0.1282 H   0  0  0  0  0  0  0  0  0  0  0  0
    4.1651   12.8922   -1.6084 H   0  0  0  0  0  0  0  0  0  0  0  0
    1.9451   13.9364    0.1706 H   0  0  0  0  0  0  0  0  0  0  0  0
    3.6188   14.5843   -0.0445 H   0  0  0  0  0  0  0  0  0  0  0  0
    4.4310   15.3459   -2.0475 H   0  0  0  0  0  0  0  0  0  0  0  0
    3.6844   14.2848   -3.2898 H   0  0  0  0  0  0  0  0  0  0  0  0
    3.3398   16.0478   -3.2898 H   0  0  0  0  0  0  0  0  0  0  0  0
  1  2  1  0
  2  3  1  0
  3  4  1  0
  4  5  1  0
  5  6  1  0
  6  7  1  0
  7  8  1  0
  7  9  1  0
  2 10  1  0
 10 11  1  0
 11 12  1  0
 12 13  1  0
 13 14  1  1
 13 15  1  0
 15 16  1  0
 16 17  1  0
 17 18  2  0
 18 19  1  0
 19 20  1  0
 20 21  1  0
 21 22  1  0
 22 23  1  0
 22 24  1  0
 24 25  1  0
 24 26  1  0
 19 27  1  0
 27 28  1  6
 27 29  1  0
 29 30  1  0
 30 31  1  0
 31 32  1  6
  7  5  1  0
 31 10  1  0
 31 13  1  0
 27 15  1  0
 24 18  1  0
  1 33  1  0
  1 34  1  0
  1 35  1  0
  2 36  1  6
  3 37  1  0
  3 38  1  0
  4 39  1  0
  4 40  1  0
  5 41  1  6
  8 42  1  0
  8 43  1  0
  8 44  1  0
  9 45  1  0
  9 46  1  0
  9 47  1  0
 10 48  1  1
 11 49  1  0
 11 50  1  0
 12 51  1  0
 12 52  1  0
 14 53  1  0
 14 54  1  0
 14 55  1  0
 15 56  1  6
 16 57  1  0
 16 58  1  0
 17 59  1  0
 19 60  1  1
 20 61  1  0
 20 62  1  0
 21 63  1  0
 21 64  1  0
 22 65  1  1
 23 66  1  0
 25 67  1  0
 25 68  1  0
 25 69  1  0
 26 70  1  0
 26 71  1  0
 26 72  1  0
 28 73  1  0
 28 74  1  0
 28 75  1  0
 29 76  1  0
 29 77  1  0
 30 78  1  0
 30 79  1  0
 32 80  1  0
 32 81  1  0
 32 82  1  0
M  END
>  <meeko>  (3) 
{"is_sidechain": [false], "intermolecular_energy": 2.731, "internal_energy": -0.839}

$$$$
EPH_relaxed_0001_pdb2pqr_Repair_149_r2_0001_out
     RDKit          3D

 82 86  0  0  0  0  0  0  0  0999 V2000
    2.3470   18.2170   -2.2470 C   0  0  0  0  0  0  0  0  0  0  0  0
    1.7610   17.4320   -1.0700 C   0  0  2  0  0  0  0  0  0  0  0  0
    2.8430   17.0110   -0.0560 C   0  0  0  0  0  0  0  0  0  0  0  0
    3.8420   18.1230    0.2750 C   0  0  0  0  0  0  0  0  0  0  0  0
    3.5840   18.7160    1.6270 C   0  0  2  0  0  0  0  0  0  0  0  0
    3.9580   20.0940    1.7580 O   0  0  0  0  0  0  0  0  0  0  0  0
    4.6860   19.1590    2.5710 C   0  0  0  0  0  0  0  0  0  0  0  0
    6.1300   19.0270    2.2010 C   0  0  0  0  0  0  0  0  0  0  0  0
    4.3780   19.2630    4.0320 C   0  0  0  0  0  0  0  0  0  0  0  0
    1.0220   16.2020   -1.5840 C   0  0  1  0  0  0  0  0  0  0  0  0
    0.5210   16.3710   -3.0430 C   0  0  0  0  0  0  0  0  0  0  0  0
    0.6300   14.9800   -3.7180 C   0  0  0  0  0  0  0  0  0  0  0  0
    0.8690   13.9970   -2.5480 C   0  0  1  0  0  0  0  0  0  0  0  0
   -0.5490   13.7350   -1.9480 C   0  0  0  0  0  0  0  0  0  0  0  0
    1.5990   12.6610   -2.9050 C   0  0  2  0  0  0  0  0  0  0  0  0
    0.8510   11.7530   -3.8960 C   0  0  0  0  0  0  0  0  0  0  0  0
   -0.0700   10.7550   -3.2760 C   0  0  0  0  0  0  0  0  0  0  0  0
   -0.0790   10.3990   -1.9780 C   0  0  0  0  0  0  0  0  0  0  0  0
    0.9710   10.9490   -1.0040 C   0  0  1  0  0  0  0  0  0  0  0  0
    1.5390    9.7890   -0.1460 C   0  0  0  0  0  0  0  0  0  0  0  0
    0.4460    8.9950    0.5620 C   0  0  0  0  0  0  0  0  0  0  0  0
   -0.5460    8.4150   -0.4440 C   0  0  2  0  0  0  0  0  0  0  0  0
    0.1240    7.4300   -1.2360 O   0  0  0  0  0  0  0  0  0  0  0  0
   -1.1770    9.4910   -1.3710 C   0  0  0  0  0  0  0  0  0  0  0  0
   -2.1450   10.3800   -0.5530 C   0  0  0  0  0  0  0  0  0  0  0  0
   -2.0470    8.7590   -2.4280 C   0  0  0  0  0  0  0  0  0  0  0  0
    2.1130   11.8470   -1.6490 C   0  0  1  0  0  0  0  0  0  0  0  0
    3.2800   10.9430   -2.1510 C   0  0  0  0  0  0  0  0  0  0  0  0
    2.7210   12.7820   -0.5380 C   0  0  0  0  0  0  0  0  0  0  0  0
    2.0260   14.1390   -0.3140 C   0  0  0  0  0  0  0  0  0  0  0  0
    1.8120   14.8700   -1.6430 C   0  0  2  0  0  0  0  0  0  0  0  0
    3.2210   15.1670   -2.2590 C   0  0  0  0  0  0  0  0  0  0  0  0
    2.9642   19.0437   -1.8654 H   0  0  0  0  0  0  0  0  0  0  0  0
    2.9686   17.5483   -2.8605 H   0  0  0  0  0  0  0  0  0  0  0  0
    1.5292   18.6228   -2.8605 H   0  0  0  0  0  0  0  0  0  0  0  0
    1.0587   18.0965   -0.5454 H   0  0  0  0  0  0  0  0  0  0  0  0
    2.3452   16.7028    0.8752 H   0  0  0  0  0  0  0  0  0  0  0  0
    3.4146   16.1920   -0.5171 H   0  0  0  0  0  0  0  0  0  0  0  0
    4.8593   17.7050    0.2574 H   0  0  0  0  0  0  0  0  0  0  0  0
    3.7297   18.9192   -0.4756 H   0  0  0  0  0  0  0  0  0  0  0  0
    2.7070   18.0675    1.7696 H   0  0  0  0  0  0  0  0  0  0  0  0
    6.7392   18.9713    3.1152 H   0  0  0  0  0  0  0  0  0  0  0  0
    6.2744   18.1119    1.6079 H   0  0  0  0  0  0  0  0  0  0  0  0
    6.4379   19.9007    1.6079 H   0  0  0  0  0  0  0  0  0  0  0  0
    5.2617   18.9646    4.6152 H   0  0  0  0  0  0  0  0  0  0  0  0
    4.1103   20.3014    4.2773 H   0  0  0  0  0  0  0  0  0  0  0  0
    3.5356   18.5995    4.2773 H   0  0  0  0  0  0  0  0  0  0  0  0
    0.2277   16.1353   -0.8260 H   0  0  0  0  0  0  0  0  0  0  0  0
   -0.5245   16.7130   -3.0471 H   0  0  0  0  0  0  0  0  0  0  0  0
    1.1206   17.1193   -3.5820 H   0  0  0  0  0  0  0  0  0  0  0  0
   -0.3006   14.7322   -4.2496 H   0  0  0  0  0  0  0  0  0  0  0  0
    1.4349   14.9413   -4.4668 H   0  0  0  0  0  0  0  0  0  0  0  0
   -0.4901   13.7459   -0.8496 H   0  0  0  0  0  0  0  0  0  0  0  0
   -1.2410   14.5205   -2.2859 H   0  0  0  0  0  0  0  0  0  0  0  0
   -0.9146   12.7541   -2.2859 H   0  0  0  0  0  0  0  0  0  0  0  0
    2.4912   13.0164   -3.4413 H   0  0  0  0  0  0  0  0  0  0  0  0
    0.2572   12.3948   -4.5635 H   0  0  0  0  0  0  0  0  0  0  0  0
    1.6242   11.1703   -4.4182 H   0  0  0  0  0  0  0  0  0  0  0  0
   -0.8037   10.2693   -3.9361 H   0  0  0  0  0  0  0  0  0  0  0  0
    0.4413   11.6657   -0.3592 H   0  0  0  0  0  0  0  0  0  0  0  0
    2.1009    9.1078   -0.8019 H   0  0  0  0  0  0  0  0  0  0  0  0
    2.1845   10.2310    0.6273 H   0  0  0  0  0  0  0  0  0  0  0  0
    0.9077    8.1722    1.1276 H   0  0  0  0  0  0  0  0  0  0  0  0
   -0.0960    9.6710    1.2397 H   0  0  0  0  0  0  0  0  0  0  0  0
   -1.3735    7.9691    0.1273 H   0  0  0  0  0  0  0  0  0  0  0  0
    0.3970    7.8560   -2.0670 H   0  0  0  0  0  0  0  0  0  0  0  0
   -1.9707   10.2199    0.5212 H   0  0  0  0  0  0  0  0  0  0  0  0
   -1.9686   11.4374   -0.7995 H   0  0  0  0  0  0  0  0  0  0  0  0
   -3.1836   10.1144   -0.7995 H   0  0  0  0  0  0  0  0  0  0  0  0
   -2.7928    8.1315   -1.9181 H   0  0  0  0  0  0  0  0  0  0  0  0
   -2.5606    9.5007   -3.0574 H   0  0  0  0  0  0  0  0  0  0  0  0
   -1.4041    8.1262   -3.0574 H   0  0  0  0  0  0  0  0  0  0  0  0
    3.8184   10.5259   -1.2872 H   0  0  0  0  0  0  0  0  0  0  0  0
    2.8724   10.1226   -2.7600 H   0  0  0  0  0  0  0  0  0  0  0  0
    3.9725   11.5427   -2.7600 H   0  0  0  0  0  0  0  0  0  0  0  0
    2.6900   12.2313    0.4137 H   0  0  0  0  0  0  0  0  0  0  0  0
    3.7314   13.0318   -0.8939 H   0  0  0  0  0  0  0  0  0  0  0  0
    1.0503   13.9691    0.1647 H   0  0  0  0  0  0  0  0  0  0  0  0
    2.6669   14.7599    0.3292 H   0  0  0  0  0  0  0  0  0  0  0  0
    3.9500   15.3207   -1.4497 H   0  0  0  0  0  0  0  0  0  0  0  0
    3.5366   14.3156   -2.8800 H   0  0  0  0  0  0  0  0  0  0  0  0
    3.1661   16.0733   -2.8800 H   0  0  0  0  0  0  0  0  0  0  0  0
  1  2  1  0
  2  3  1  0
  3  4  1  0
  4  5  1  0
  5  6  1  0
  6  7  1  0
  7  8  1  0
  7  9  1  0
  2 10  1  0
 10 11  1  0
 11 12  1  0
 12 13  1  0
 13 14  1  1
 13 15  1  0
 15 16  1  0
 16 17  1  0
 17 18  2  0
 18 19  1  0
 19 20  1  0
 20 21  1  0
 21 22  1  0
 22 23  1  0
 22 24  1  0
 24 25  1  0
 24 26  1  0
 19 27  1  0
 27 28  1  6
 27 29  1  0
 29 30  1  0
 30 31  1  0
 31 32  1  6
  7  5  1  0
 31 10  1  0
 31 13  1  0
 27 15  1  0
 24 18  1  0
  1 33  1  0
  1 34  1  0
  1 35  1  0
  2 36  1  1
  3 37  1  0
  3 38  1  0
  4 39  1  0
  4 40  1  0
  5 41  1  1
  8 42  1  0
  8 43  1  0
  8 44  1  0
  9 45  1  0
  9 46  1  0
  9 47  1  0
 10 48  1  1
 11 49  1  0
 11 50  1  0
 12 51  1  0
 12 52  1  0
 14 53  1  0
 14 54  1  0
 14 55  1  0
 15 56  1  6
 16 57  1  0
 16 58  1  0
 17 59  1  0
 19 60  1  1
 20 61  1  0
 20 62  1  0
 21 63  1  0
 21 64  1  0
 22 65  1  1
 23 66  1  0
 25 67  1  0
 25 68  1  0
 25 69  1  0
 26 70  1  0
 26 71  1  0
 26 72  1  0
 28 73  1  0
 28 74  1  0
 28 75  1  0
 29 76  1  0
 29 77  1  0
 30 78  1  0
 30 79  1  0
 32 80  1  0
 32 81  1  0
 32 82  1  0
M  END
>  <meeko>  (4) 
{"is_sidechain": [false], "intermolecular_energy": 2.731, "internal_energy": -0.839}

$$$$
EPH_relaxed_0001_pdb2pqr_Repair_149_r2_0001_out
     RDKit          3D

 82 86  0  0  0  0  0  0  0  0999 V2000
   -1.1390    8.8140   -1.9090 C   0  0  0  0  0  0  0  0  0  0  0  0
   -1.5550    9.1930   -0.4850 C   0  0  2  0  0  0  0  0  0  0  0  0
   -3.0840    9.3380   -0.3460 C   0  0  0  0  0  0  0  0  0  0  0  0
   -3.8760    8.4150   -1.2770 C   0  0  0  0  0  0  0  0  0  0  0  0
   -5.2230    8.0800   -0.7100 C   0  0  2  0  0  0  0  0  0  0  0  0
   -5.4530    6.6800   -0.5020 O   0  0  0  0  0  0  0  0  0  0  0  0
   -6.2890    7.3230   -1.4790 C   0  0  0  0  0  0  0  0  0  0  0  0
   -6.0560    6.8550   -2.8810 C   0  0  0  0  0  0  0  0  0  0  0  0
   -7.7170    7.4640   -1.0510 C   0  0  0  0  0  0  0  0  0  0  0  0
   -0.8700   10.4910   -0.0720 C   0  0  1  0  0  0  0  0  0  0  0  0
    0.0660   10.3080    1.1520 C   0  0  0  0  0  0  0  0  0  0  0  0
    1.2680   11.2640    0.9430 C   0  0  0  0  0  0  0  0  0  0  0  0
    0.8290   12.1970   -0.2100 C   0  0  1  0  0  0  0  0  0  0  0  0
   -0.0730   13.2750    0.4680 C   0  0  0  0  0  0  0  0  0  0  0  0
    1.9770   12.8480   -1.0470 C   0  0  2  0  0  0  0  0  0  0  0  0
    2.9090   13.7850   -0.2590 C   0  0  0  0  0  0  0  0  0  0  0  0
    2.4970   15.2190   -0.2310 C   0  0  0  0  0  0  0  0  0  0  0  0
    1.5860   15.7870   -1.0430 C   0  0  0  0  0  0  0  0  0  0  0  0
    0.9370   14.9870   -2.1790 C   0  0  1  0  0  0  0  0  0  0  0  0
    0.9530   15.8310   -3.4810 C   0  0  0  0  0  0  0  0  0  0  0  0
    0.3150   17.2050   -3.2960 C   0  0  0  0  0  0  0  0  0  0  0  0
    1.0260   17.9920   -2.1980 C   0  0  2  0  0  0  0  0  0  0  0  0
    2.3540   18.2950   -2.6340 O   0  0  0  0  0  0  0  0  0  0  0  0
    1.0800   17.2370   -0.8410 C   0  0  0  0  0  0  0  0  0  0  0  0
   -0.3380   17.1750   -0.2220 C   0  0  0  0  0  0  0  0  0  0  0  0
    1.9440   18.0770    0.1380 C   0  0  0  0  0  0  0  0  0  0  0  0
    1.4950   13.5160   -2.3990 C   0  0  1  0  0  0  0  0  0  0  0  0
    2.7350   13.5520   -3.3440 C   0  0  0  0  0  0  0  0  0  0  0  0
    0.4010   12.6550   -3.1340 C   0  0  0  0  0  0  0  0  0  0  0  0
   -0.6340   11.9390   -2.2450 C   0  0  0  0  0  0  0  0  0  0  0  0
    0.0540   11.1700   -1.1140 C   0  0  2  0  0  0  0  0  0  0  0  0
    0.9520   10.0630   -1.7650 C   0  0  0  0  0  0  0  0  0  0  0  0
   -0.3264    8.0737   -1.8688 H   0  0  0  0  0  0  0  0  0  0  0  0
   -2.0007    8.3841   -2.4406 H   0  0  0  0  0  0  0  0  0  0  0  0
   -0.7910    9.7119   -2.4406 H   0  0  0  0  0  0  0  0  0  0  0  0
   -1.2385    8.3765    0.1807 H   0  0  0  0  0  0  0  0  0  0  0  0
   -3.3621    9.1057    0.6926 H   0  0  0  0  0  0  0  0  0  0  0  0
   -3.3362   10.3714   -0.6262 H   0  0  0  0  0  0  0  0  0  0  0  0
   -4.0119    8.9173   -2.2461 H   0  0  0  0  0  0  0  0  0  0  0  0
   -3.3106    7.4788   -1.3946 H   0  0  0  0  0  0  0  0  0  0  0  0
   -5.2496    9.0267   -0.1504 H   0  0  0  0  0  0  0  0  0  0  0  0
   -5.5658    5.8704   -2.8622 H   0  0  0  0  0  0  0  0  0  0  0  0
   -7.0195    6.7750   -3.4057 H   0  0  0  0  0  0  0  0  0  0  0  0
   -5.4114    7.5755   -3.4057 H   0  0  0  0  0  0  0  0  0  0  0  0
   -7.7717    7.4694    0.0476 H   0  0  0  0  0  0  0  0  0  0  0  0
   -8.1259    8.4069   -1.4431 H   0  0  0  0  0  0  0  0  0  0  0  0
   -8.3024    6.6193   -1.4431 H   0  0  0  0  0  0  0  0  0  0  0  0
   -1.7554   11.1177    0.1104 H   0  0  0  0  0  0  0  0  0  0  0  0
   -0.4672   10.5669    2.0786 H   0  0  0  0  0  0  0  0  0  0  0  0
    0.4022    9.2643    1.2394 H   0  0  0  0  0  0  0  0  0  0  0  0
    1.4669   11.8431    1.8568 H   0  0  0  0  0  0  0  0  0  0  0  0
    2.1964   10.7219    0.7103 H   0  0  0  0  0  0  0  0  0  0  0  0
    0.0042   13.1827    1.5614 H   0  0  0  0  0  0  0  0  0  0  0  0
    0.2593   14.2774    0.1603 H   0  0  0  0  0  0  0  0  0  0  0  0
   -1.1183   13.1247    0.1603 H   0  0  0  0  0  0  0  0  0  0  0  0
    2.5910   11.9776   -1.3215 H   0  0  0  0  0  0  0  0  0  0  0  0
    2.9548   13.4243    0.7792 H   0  0  0  0  0  0  0  0  0  0  0  0
    3.8782   13.7572   -0.7786 H   0  0  0  0  0  0  0  0  0  0  0  0
    2.9785   15.8667    0.5164 H   0  0  0  0  0  0  0  0  0  0  0  0
   -0.1012   14.8023   -1.8658 H   0  0  0  0  0  0  0  0  0  0  0  0
    1.9969   15.9671   -3.8001 H   0  0  0  0  0  0  0  0  0  0  0  0
    0.3657   15.2894   -4.2371 H   0  0  0  0  0  0  0  0  0  0  0  0
    0.3826   17.7638   -4.2411 H   0  0  0  0  0  0  0  0  0  0  0  0
   -0.7370   17.0679   -3.0054 H   0  0  0  0  0  0  0  0  0  0  0  0
    0.4471   18.9107   -2.0226 H   0  0  0  0  0  0  0  0  0  0  0  0
    2.2850   18.9130   -3.3810 H   0  0  0  0  0  0  0  0  0  0  0  0
   -0.2596   17.1784    0.8752 H   0  0  0  0  0  0  0  0  0  0  0  0
   -0.9201   18.0486   -0.5507 H   0  0  0  0  0  0  0  0  0  0  0  0
   -0.8416   16.2540   -0.5507 H   0  0  0  0  0  0  0  0  0  0  0  0
    1.6792   17.8195    1.1741 H   0  0  0  0  0  0  0  0  0  0  0  0
    3.0086   17.8593   -0.0333 H   0  0  0  0  0  0  0  0  0  0  0  0
    1.7564   19.1473   -0.0333 H   0  0  0  0  0  0  0  0  0  0  0  0
    3.6547   13.5787   -2.7412 H   0  0  0  0  0  0  0  0  0  0  0  0
    2.7385   12.6536   -3.9787 H   0  0  0  0  0  0  0  0  0  0  0  0
    2.6864   14.4491   -3.9787 H   0  0  0  0  0  0  0  0  0  0  0  0
   -0.1491   13.3244   -3.8117 H   0  0  0  0  0  0  0  0  0  0  0  0
    0.9578   11.8484   -3.6334 H   0  0  0  0  0  0  0  0  0  0  0  0
   -1.3137   12.6867   -1.8103 H   0  0  0  0  0  0  0  0  0  0  0  0
   -1.1944   11.2239   -2.8652 H   0  0  0  0  0  0  0  0  0  0  0  0
    1.4335    9.4694   -0.9740 H   0  0  0  0  0  0  0  0  0  0  0  0
    0.3289    9.4055   -2.3890 H   0  0  0  0  0  0  0  0  0  0  0  0
    1.7239   10.5371   -2.3890 H   0  0  0  0  0  0  0  0  0  0  0  0
  1  2  1  0
  2  3  1  0
  3  4  1  0
  4  5  1  0
  5  6  1  0
  6  7  1  0
  7  8  1  0
  7  9  1  0
  2 10  1  0
 10 11  1  0
 11 12  1  0
 12 13  1  0
 13 14  1  1
 13 15  1  0
 15 16  1  0
 16 17  1  0
 17 18  2  0
 18 19  1  0
 19 20  1  0
 20 21  1  0
 21 22  1  0
 22 23  1  0
 22 24  1  0
 24 25  1  0
 24 26  1  0
 19 27  1  0
 27 28  1  6
 27 29  1  0
 29 30  1  0
 30 31  1  0
 31 32  1  6
  7  5  1  0
 31 10  1  0
 31 13  1  0
 27 15  1  0
 24 18  1  0
  1 33  1  0
  1 34  1  0
  1 35  1  0
  2 36  1  1
  3 37  1  0
  3 38  1  0
  4 39  1  0
  4 40  1  0
  5 41  1  1
  8 42  1  0
  8 43  1  0
  8 44  1  0
  9 45  1  0
  9 46  1  0
  9 47  1  0
 10 48  1  1
 11 49  1  0
 11 50  1  0
 12 51  1  0
 12 52  1  0
 14 53  1  0
 14 54  1  0
 14 55  1  0
 15 56  1  6
 16 57  1  0
 16 58  1  0
 17 59  1  0
 19 60  1  1
 20 61  1  0
 20 62  1  0
 21 63  1  0
 21 64  1  0
 22 65  1  1
 23 66  1  0
 25 67  1  0
 25 68  1  0
 25 69  1  0
 26 70  1  0
 26 71  1  0
 26 72  1  0
 28 73  1  0
 28 74  1  0
 28 75  1  0
 29 76  1  0
 29 77  1  0
 30 78  1  0
 30 79  1  0
 32 80  1  0
 32 81  1  0
 32 82  1  0
M  END
>  <meeko>  (5) 
{"is_sidechain": [false], "intermolecular_energy": 2.731, "internal_energy": -0.839}

$$$$
EPH_relaxed_0001_pdb2pqr_Repair_149_r2_0001_out
     RDKit          3D

 82 86  0  0  0  0  0  0  0  0999 V2000
   -0.6480    7.8680   -0.5870 C   0  0  0  0  0  0  0  0  0  0  0  0
   -1.0810    9.2280   -0.0320 C   0  0  2  0  0  0  0  0  0  0  0  0
   -2.3400    9.7700   -0.7380 C   0  0  0  0  0  0  0  0  0  0  0  0
   -3.6520    9.2940   -0.1080 C   0  0  0  0  0  0  0  0  0  0  0  0
   -4.0330    7.9260   -0.5860 C   0  0  2  0  0  0  0  0  0  0  0  0
   -4.1190    7.7920   -2.0110 O   0  0  0  0  0  0  0  0  0  0  0  0
   -5.3450    7.6180   -1.2830 C   0  0  0  0  0  0  0  0  0  0  0  0
   -6.3620    8.6860   -1.5380 C   0  0  0  0  0  0  0  0  0  0  0  0
   -5.8460    6.2080   -1.2750 C   0  0  0  0  0  0  0  0  0  0  0  0
    0.0610   10.2300   -0.1620 C   0  0  1  0  0  0  0  0  0  0  0  0
    1.4560    9.5520   -0.1350 C   0  0  0  0  0  0  0  0  0  0  0  0
    2.3670   10.3640   -1.0910 C   0  0  0  0  0  0  0  0  0  0  0  0
    1.5750   11.6610   -1.3760 C   0  0  1  0  0  0  0  0  0  0  0  0
    1.8430   12.5760   -0.1400 C   0  0  0  0  0  0  0  0  0  0  0  0
    1.9060   12.3920   -2.7180 C   0  0  2  0  0  0  0  0  0  0  0  0
    3.3520   12.9050   -2.8420 C   0  0  0  0  0  0  0  0  0  0  0  0
    3.5790   14.2970   -2.3540 C   0  0  0  0  0  0  0  0  0  0  0  0
    2.6170   15.2040   -2.1010 C   0  0  0  0  0  0  0  0  0  0  0  0
    1.1440   14.8940   -2.3980 C   0  0  1  0  0  0  0  0  0  0  0  0
    0.5010   16.0960   -3.1380 C   0  0  0  0  0  0  0  0  0  0  0  0
    0.6800   17.4110   -2.3840 C   0  0  0  0  0  0  0  0  0  0  0  0
    2.1590   17.7130   -2.1580 C   0  0  2  0  0  0  0  0  0  0  0  0
    2.7760   17.9670   -3.4240 O   0  0  0  0  0  0  0  0  0  0  0  0
    2.9140   16.5670   -1.4290 C   0  0  0  0  0  0  0  0  0  0  0  0
    2.4490   16.4940    0.0470 C   0  0  0  0  0  0  0  0  0  0  0  0
    4.4220   16.9380   -1.3910 C   0  0  0  0  0  0  0  0  0  0  0  0
    0.8600   13.5090   -3.1240 C   0  0  1  0  0  0  0  0  0  0  0  0
    0.9730   13.6840   -4.6690 C   0  0  0  0  0  0  0  0  0  0  0  0
   -0.6240   13.0710   -2.8340 C   0  0  0  0  0  0  0  0  0  0  0  0
   -0.8690   12.2490   -1.5540 C   0  0  0  0  0  0  0  0  0  0  0  0
    0.1160   11.0800   -1.4560 C   0  0  2  0  0  0  0  0  0  0  0  0
   -0.1460   10.1310   -2.6750 C   0  0  0  0  0  0  0  0  0  0  0  0
   -0.4303    7.1842    0.2467 H   0  0  0  0  0  0  0  0  0  0  0  0
   -1.4572    7.4490   -1.2032 H   0  0  0  0  0  0  0  0  0  0  0  0
    0.2545    7.9939   -1.2032 H   0  0  0  0  0  0  0  0  0  0  0  0
   -1.3331    9.0867    1.0293 H   0  0  0  0  0  0  0  0  0  0  0  0
   -2.3144   10.8690   -0.6984 H   0  0  0  0  0  0  0  0  0  0  0  0
   -2.3207    9.3866   -1.7688 H   0  0  0  0  0  0  0  0  0  0  0  0
   -3.5339    9.2693    0.9854 H   0  0  0  0  0  0  0  0  0  0  0  0
   -4.4475    9.9939   -0.4033 H   0  0  0  0  0  0  0  0  0  0  0  0
   -3.5260    7.4598    0.2717 H   0  0  0  0  0  0  0  0  0  0  0  0
   -6.7330    9.0756   -0.5785 H   0  0  0  0  0  0  0  0  0  0  0  0
   -5.8998    9.5030   -2.1114 H   0  0  0  0  0  0  0  0  0  0  0  0
   -7.2007    8.2643   -2.1114 H   0  0  0  0  0  0  0  0  0  0  0  0
   -5.9669    5.8677   -0.2360 H   0  0  0  0  0  0  0  0  0  0  0  0
   -6.8160    6.1606   -1.7916 H   0  0  0  0  0  0  0  0  0  0  0  0
   -5.1234    5.5592   -1.7916 H   0  0  0  0  0  0  0  0  0  0  0  0
   -0.1583   10.8738    0.7026 H   0  0  0  0  0  0  0  0  0  0  0  0
    1.8662    9.5702    0.8855 H   0  0  0  0  0  0  0  0  0  0  0  0
    1.3900    8.5004   -0.4509 H   0  0  0  0  0  0  0  0  0  0  0  0
    3.3286   10.5941   -0.6090 H   0  0  0  0  0  0  0  0  0  0  0  0
    2.6055    9.8100   -2.0109 H   0  0  0  0  0  0  0  0  0  0  0  0
    1.6751   12.0029    0.7838 H   0  0  0  0  0  0  0  0  0  0  0  0
    2.8833   12.9325   -0.1664 H   0  0  0  0  0  0  0  0  0  0  0  0
    1.1594   13.4374   -0.1664 H   0  0  0  0  0  0  0  0  0  0  0  0
    1.8110   11.5825   -3.4567 H   0  0  0  0  0  0  0  0  0  0  0  0
    4.0021   12.2319   -2.2638 H   0  0  0  0  0  0  0  0  0  0  0  0
    3.5784   12.9193   -3.9184 H   0  0  0  0  0  0  0  0  0  0  0  0
    4.6207   14.6082   -2.1869 H   0  0  0  0  0  0  0  0  0  0  0  0
    0.6596   14.7546   -1.4203 H   0  0  0  0  0  0  0  0  0  0  0  0
    0.9688   16.1912   -4.1290 H   0  0  0  0  0  0  0  0  0  0  0  0
   -0.5786   15.9007   -3.2171 H   0  0  0  0  0  0  0  0  0  0  0  0
    0.2316   18.2263   -2.9707 H   0  0  0  0  0  0  0  0  0  0  0  0
    0.1856   17.3247   -1.4052 H   0  0  0  0  0  0  0  0  0  0  0  0
    2.2195   18.5943   -1.5026 H   0  0  0  0  0  0  0  0  0  0  0  0
    2.4540   17.2940   -4.0480 H   0  0  0  0  0  0  0  0  0  0  0  0
    3.3151   16.6300    0.7114 H   0  0  0  0  0  0  0  0  0  0  0  0
    1.7116   17.2874    0.2388 H   0  0  0  0  0  0  0  0  0  0  0  0
    1.9902   15.5128    0.2388 H   0  0  0  0  0  0  0  0  0  0  0  0
    4.7533   17.0195   -0.3452 H   0  0  0  0  0  0  0  0  0  0  0  0
    5.0048   16.1565   -1.9004 H   0  0  0  0  0  0  0  0  0  0  0  0
    4.5757   17.9007   -1.9004 H   0  0  0  0  0  0  0  0  0  0  0  0
    1.5571   14.5886   -4.8938 H   0  0  0  0  0  0  0  0  0  0  0  0
    1.4753   12.8062   -5.1017 H   0  0  0  0  0  0  0  0  0  0  0  0
   -0.0337   13.7806   -5.1017 H   0  0  0  0  0  0  0  0  0  0  0  0
   -1.2329   13.9845   -2.7643 H   0  0  0  0  0  0  0  0  0  0  0  0
   -0.8927   12.3995   -3.6628 H   0  0  0  0  0  0  0  0  0  0  0  0
   -0.7415   12.9014   -0.6775 H   0  0  0  0  0  0  0  0  0  0  0  0
   -1.8913   11.8443   -1.5874 H   0  0  0  0  0  0  0  0  0  0  0  0
   -0.4220    9.1312   -2.3086 H   0  0  0  0  0  0  0  0  0  0  0  0
   -0.9657   10.5368   -3.2861 H   0  0  0  0  0  0  0  0  0  0  0  0
    0.7658   10.0588   -3.2861 H   0  0  0  0  0  0  0  0  0  0  0  0
  1  2  1  0
  2  3  1  0
  3  4  1  0
  4  5  1  0
  5  6  1  0
  6  7  1  0
  7  8  1  0
  7  9  1  0
  2 10  1  0
 10 11  1  0
 11 12  1  0
 12 13  1  0
 13 14  1  1
 13 15  1  0
 15 16  1  0
 16 17  1  0
 17 18  2  0
 18 19  1  0
 19 20  1  0
 20 21  1  0
 21 22  1  0
 22 23  1  0
 22 24  1  0
 24 25  1  0
 24 26  1  0
 19 27  1  0
 27 28  1  6
 27 29  1  0
 29 30  1  0
 30 31  1  0
 31 32  1  6
  7  5  1  0
 31 10  1  0
 31 13  1  0
 27 15  1  0
 24 18  1  0
  1 33  1  0
  1 34  1  0
  1 35  1  0
  2 36  1  1
  3 37  1  0
  3 38  1  0
  4 39  1  0
  4 40  1  0
  5 41  1  1
  8 42  1  0
  8 43  1  0
  8 44  1  0
  9 45  1  0
  9 46  1  0
  9 47  1  0
 10 48  1  1
 11 49  1  0
 11 50  1  0
 12 51  1  0
 12 52  1  0
 14 53  1  0
 14 54  1  0
 14 55  1  0
 15 56  1  6
 16 57  1  0
 16 58  1  0
 17 59  1  0
 19 60  1  1
 20 61  1  0
 20 62  1  0
 21 63  1  0
 21 64  1  0
 22 65  1  1
 23 66  1  0
 25 67  1  0
 25 68  1  0
 25 69  1  0
 26 70  1  0
 26 71  1  0
 26 72  1  0
 28 73  1  0
 28 74  1  0
 28 75  1  0
 29 76  1  0
 29 77  1  0
 30 78  1  0
 30 79  1  0
 32 80  1  0
 32 81  1  0
 32 82  1  0
M  END
>  <meeko>  (6) 
{"is_sidechain": [false], "intermolecular_energy": 2.731, "internal_energy": -0.839}

$$$$
EPH_relaxed_0001_pdb2pqr_Repair_149_r2_0001_out
     RDKit          3D

 82 86  0  0  0  0  0  0  0  0999 V2000
    3.5110   18.3320    0.1720 C   0  0  0  0  0  0  0  0  0  0  0  0
    3.6970   17.0630   -0.6640 C   0  0  2  0  0  0  0  0  0  0  0  0
    3.9160   17.3770   -2.1580 C   0  0  0  0  0  0  0  0  0  0  0  0
    5.2960   16.9660   -2.6780 C   0  0  0  0  0  0  0  0  0  0  0  0
    5.3380   15.5150   -3.0520 C   0  0  2  0  0  0  0  0  0  0  0  0
    6.4620   14.7940   -2.5320 O   0  0  0  0  0  0  0  0  0  0  0  0
    6.3940   14.9160   -3.9620 C   0  0  0  0  0  0  0  0  0  0  0  0
    7.4810   15.7560   -4.5540 C   0  0  0  0  0  0  0  0  0  0  0  0
    6.0880   13.6280   -4.6620 C   0  0  0  0  0  0  0  0  0  0  0  0
    2.4900   16.1480   -0.4960 C   0  0  1  0  0  0  0  0  0  0  0  0
    1.1500   16.9300   -0.4470 C   0  0  0  0  0  0  0  0  0  0  0  0
    0.0880   16.0420   -1.1440 C   0  0  0  0  0  0  0  0  0  0  0  0
    0.7620   14.6560   -1.2730 C   0  0  1  0  0  0  0  0  0  0  0  0
    0.5820   13.9910    0.1270 C   0  0  0  0  0  0  0  0  0  0  0  0
    0.2340   13.7360   -2.4220 C   0  0  2  0  0  0  0  0  0  0  0  0
   -1.2440   13.3270   -2.3030 C   0  0  0  0  0  0  0  0  0  0  0  0
   -1.4980   12.0620   -1.5530 C   0  0  0  0  0  0  0  0  0  0  0  0
   -0.5700   11.1370   -1.2430 C   0  0  0  0  0  0  0  0  0  0  0  0
    0.8740   11.2730   -1.7410 C   0  0  1  0  0  0  0  0  0  0  0  0
    1.3540    9.9140   -2.3160 C   0  0  0  0  0  0  0  0  0  0  0  0
    1.1830    8.7670   -1.3250 C   0  0  0  0  0  0  0  0  0  0  0  0
   -0.2760    8.6270   -0.8990 C   0  0  2  0  0  0  0  0  0  0  0  0
   -1.0490    8.2110   -2.0290 O   0  0  0  0  0  0  0  0  0  0  0  0
   -0.8710    9.9370   -0.3120 C   0  0  0  0  0  0  0  0  0  0  0  0
   -0.2360   10.2240    1.0710 C   0  0  0  0  0  0  0  0  0  0  0  0
   -2.3840    9.7000   -0.0540 C   0  0  0  0  0  0  0  0  0  0  0  0
    1.1570   12.4870   -2.7270 C   0  0  1  0  0  0  0  0  0  0  0  0
    0.8560   12.0600   -4.1960 C   0  0  0  0  0  0  0  0  0  0  0  0
    2.6880   12.8470   -2.6730 C   0  0  0  0  0  0  0  0  0  0  0  0
    3.1280   13.8530   -1.5930 C   0  0  0  0  0  0  0  0  0  0  0  0
    2.2340   15.0970   -1.6050 C   0  0  2  0  0  0  0  0  0  0  0  0
    2.4110   15.8000   -2.9940 C   0  0  0  0  0  0  0  0  0  0  0  0
    3.5486   18.0756    1.2410 H   0  0  0  0  0  0  0  0  0  0  0  0
    4.3140   19.0463   -0.0622 H   0  0  0  0  0  0  0  0  0  0  0  0
    2.5367   18.7858   -0.0622 H   0  0  0  0  0  0  0  0  0  0  0  0
    4.6019   16.5562   -0.2976 H   0  0  0  0  0  0  0  0  0  0  0  0
    3.1519   16.8419   -2.7409 H   0  0  0  0  0  0  0  0  0  0  0  0
    3.8423   18.4687   -2.2709 H   0  0  0  0  0  0  0  0  0  0  0  0
    5.5370   17.5699   -3.5652 H   0  0  0  0  0  0  0  0  0  0  0  0
    6.0290   17.1346   -1.8754 H   0  0  0  0  0  0  0  0  0  0  0  0
    4.2393   15.4620   -3.0615 H   0  0  0  0  0  0  0  0  0  0  0  0
    8.0722   16.2129   -3.7467 H   0  0  0  0  0  0  0  0  0  0  0  0
    8.1343   15.1257   -5.1753 H   0  0  0  0  0  0  0  0  0  0  0  0
    7.0359   16.5471   -5.1753 H   0  0  0  0  0  0  0  0  0  0  0  0
    5.9010   12.8410   -3.9166 H   0  0  0  0  0  0  0  0  0  0  0  0
    5.1953   13.7561   -5.2918 H   0  0  0  0  0  0  0  0  0  0  0  0
    6.9429   13.3409   -5.2918 H   0  0  0  0  0  0  0  0  0  0  0  0
    2.7691   15.6454    0.4418 H   0  0  0  0  0  0  0  0  0  0  0  0
    0.8596   17.1188    0.5970 H   0  0  0  0  0  0  0  0  0  0  0  0
    1.2424   17.9037   -0.9504 H   0  0  0  0  0  0  0  0  0  0  0  0
   -0.8239   15.9749   -0.5325 H   0  0  0  0  0  0  0  0  0  0  0  0
   -0.2206   16.4481   -2.1186 H   0  0  0  0  0  0  0  0  0  0  0  0
    0.7828   14.7329    0.9139 H   0  0  0  0  0  0  0  0  0  0  0  0
   -0.4488   13.6203    0.2270 H   0  0  0  0  0  0  0  0  0  0  0  0
    1.2851   13.1510    0.2270 H   0  0  0  0  0  0  0  0  0  0  0  0
    0.2908   14.3971   -3.2993 H   0  0  0  0  0  0  0  0  0  0  0  0
   -1.7810   14.1391   -1.7911 H   0  0  0  0  0  0  0  0  0  0  0  0
   -1.5930   13.1464   -3.3304 H   0  0  0  0  0  0  0  0  0  0  0  0
   -2.5304   11.8690   -1.2259 H   0  0  0  0  0  0  0  0  0  0  0  0
    1.4754   11.5386   -0.8591 H   0  0  0  0  0  0  0  0  0  0  0  0
    0.7708    9.6882   -3.2209 H   0  0  0  0  0  0  0  0  0  0  0  0
    2.4273   10.0058   -2.5388 H   0  0  0  0  0  0  0  0  0  0  0  0
    1.5112    7.8300   -1.7987 H   0  0  0  0  0  0  0  0  0  0  0  0
    1.7903    8.9803   -0.4330 H   0  0  0  0  0  0  0  0  0  0  0  0
   -0.3141    7.8775   -0.0948 H   0  0  0  0  0  0  0  0  0  0  0  0
   -1.9870    8.3320   -1.8040 H   0  0  0  0  0  0  0  0  0  0  0  0
   -0.9296    9.9105    1.8651 H   0  0  0  0  0  0  0  0  0  0  0  0
    0.7062    9.6642    1.1651 H   0  0  0  0  0  0  0  0  0  0  0  0
   -0.0336   11.3011    1.1651 H   0  0  0  0  0  0  0  0  0  0  0  0
   -2.5710    9.6707    1.0296 H   0  0  0  0  0  0  0  0  0  0  0  0
   -2.9653   10.5180   -0.5044 H   0  0  0  0  0  0  0  0  0  0  0  0
   -2.6873    8.7434   -0.5044 H   0  0  0  0  0  0  0  0  0  0  0  0
    0.2222   11.1609   -4.1940 H   0  0  0  0  0  0  0  0  0  0  0  0
    0.3326   12.8764   -4.7152 H   0  0  0  0  0  0  0  0  0  0  0  0
    1.8008   11.8414   -4.7152 H   0  0  0  0  0  0  0  0  0  0  0  0
    3.2436   11.9129   -2.5035 H   0  0  0  0  0  0  0  0  0  0  0  0
    2.9006   13.3430   -3.6315 H   0  0  0  0  0  0  0  0  0  0  0  0
    3.0626   13.3725   -0.6057 H   0  0  0  0  0  0  0  0  0  0  0  0
    4.1624   14.1627   -1.8029 H   0  0  0  0  0  0  0  0  0  0  0  0
    2.6769   16.8561   -2.8392 H   0  0  0  0  0  0  0  0  0  0  0  0
    3.2111   15.2994   -3.5590 H   0  0  0  0  0  0  0  0  0  0  0  0
    1.4692   15.7380   -3.5590 H   0  0  0  0  0  0  0  0  0  0  0  0
  1  2  1  0
  2  3  1  0
  3  4  1  0
  4  5  1  0
  5  6  1  0
  6  7  1  0
  7  8  1  0
  7  9  1  0
  2 10  1  0
 10 11  1  0
 11 12  1  0
 12 13  1  0
 13 14  1  1
 13 15  1  0
 15 16  1  0
 16 17  1  0
 17 18  2  0
 18 19  1  0
 19 20  1  0
 20 21  1  0
 21 22  1  0
 22 23  1  0
 22 24  1  0
 24 25  1  0
 24 26  1  0
 19 27  1  0
 27 28  1  6
 27 29  1  0
 29 30  1  0
 30 31  1  0
 31 32  1  6
  7  5  1  0
 31 10  1  0
 31 13  1  0
 27 15  1  0
 24 18  1  0
  1 33  1  0
  1 34  1  0
  1 35  1  0
  2 36  1  1
  3 37  1  0
  3 38  1  0
  4 39  1  0
  4 40  1  0
  5 41  1  6
  8 42  1  0
  8 43  1  0
  8 44  1  0
  9 45  1  0
  9 46  1  0
  9 47  1  0
 10 48  1  1
 11 49  1  0
 11 50  1  0
 12 51  1  0
 12 52  1  0
 14 53  1  0
 14 54  1  0
 14 55  1  0
 15 56  1  6
 16 57  1  0
 16 58  1  0
 17 59  1  0
 19 60  1  1
 20 61  1  0
 20 62  1  0
 21 63  1  0
 21 64  1  0
 22 65  1  1
 23 66  1  0
 25 67  1  0
 25 68  1  0
 25 69  1  0
 26 70  1  0
 26 71  1  0
 26 72  1  0
 28 73  1  0
 28 74  1  0
 28 75  1  0
 29 76  1  0
 29 77  1  0
 30 78  1  0
 30 79  1  0
 32 80  1  0
 32 81  1  0
 32 82  1  0
M  END
>  <meeko>  (7) 
{"is_sidechain": [false], "intermolecular_energy": 2.731, "internal_energy": -0.839}

$$$$
EPH_relaxed_0001_pdb2pqr_Repair_149_r2_0001_out
     RDKit          3D

 82 86  0  0  0  0  0  0  0  0999 V2000
   -2.5080    7.5750   -3.0720 C   0  0  0  0  0  0  0  0  0  0  0  0
   -2.8420    7.8570   -1.6050 C   0  0  2  0  0  0  0  0  0  0  0  0
   -4.3600    7.8190   -1.3370 C   0  0  0  0  0  0  0  0  0  0  0  0
   -5.0760    6.6500   -2.0180 C   0  0  0  0  0  0  0  0  0  0  0  0
   -6.3050    7.1020   -2.7470 C   0  0  2  0  0  0  0  0  0  0  0  0
   -6.8580    8.3380   -2.2790 O   0  0  0  0  0  0  0  0  0  0  0  0
   -7.6790    7.1720   -2.1070 C   0  0  0  0  0  0  0  0  0  0  0  0
   -7.8940    6.7840   -0.6780 C   0  0  0  0  0  0  0  0  0  0  0  0
   -8.8840    7.1460   -2.9950 C   0  0  0  0  0  0  0  0  0  0  0  0
   -2.2740    9.2110   -1.1940 C   0  0  1  0  0  0  0  0  0  0  0  0
   -2.8080    9.6900    0.1820 C   0  0  0  0  0  0  0  0  0  0  0  0
   -1.6490   10.4570    0.8690 C   0  0  0  0  0  0  0  0  0  0  0  0
   -0.6090   10.6800   -0.2540 C   0  0  1  0  0  0  0  0  0  0  0  0
   -1.1310   11.9230   -1.0420 C   0  0  0  0  0  0  0  0  0  0  0  0
    0.8730   10.8690    0.2050 C   0  0  2  0  0  0  0  0  0  0  0  0
    1.1320   12.1030    1.0860 C   0  0  0  0  0  0  0  0  0  0  0  0
    1.4960   13.3490    0.3490 C   0  0  0  0  0  0  0  0  0  0  0  0
    1.8900   13.4100   -0.9370 C   0  0  0  0  0  0  0  0  0  0  0  0
    2.0940   12.1310   -1.7590 C   0  0  1  0  0  0  0  0  0  0  0  0
    3.4390   12.2180   -2.5280 C   0  0  0  0  0  0  0  0  0  0  0  0
    3.5470   13.4810   -3.3770 C   0  0  0  0  0  0  0  0  0  0  0  0
    3.3960   14.7320   -2.5150 C   0  0  2  0  0  0  0  0  0  0  0  0
    4.5210   14.8240   -1.6350 O   0  0  0  0  0  0  0  0  0  0  0  0
    2.0810   14.7510   -1.6860 C   0  0  0  0  0  0  0  0  0  0  0  0
    0.8730   14.9560   -2.6330 C   0  0  0  0  0  0  0  0  0  0  0  0
    2.1210   15.9940   -0.7570 C   0  0  0  0  0  0  0  0  0  0  0  0
    1.9330   10.7630   -0.9660 C   0  0  1  0  0  0  0  0  0  0  0  0
    3.2890   10.3680   -0.3050 C   0  0  0  0  0  0  0  0  0  0  0  0
    1.5840    9.6150   -1.9860 C   0  0  0  0  0  0  0  0  0  0  0  0
    0.0930    9.4000   -2.3070 C   0  0  0  0  0  0  0  0  0  0  0  0
   -0.7380    9.3150   -1.0230 C   0  0  2  0  0  0  0  0  0  0  0  0
   -0.2500    8.0620   -0.2200 C   0  0  0  0  0  0  0  0  0  0  0  0
   -1.6686    6.8663   -3.1272 H   0  0  0  0  0  0  0  0  0  0  0  0
   -3.3871    7.1418   -3.5715 H   0  0  0  0  0  0  0  0  0  0  0  0
   -2.2283    8.5143   -3.5715 H   0  0  0  0  0  0  0  0  0  0  0  0
   -2.3807    7.0613   -1.0016 H   0  0  0  0  0  0  0  0  0  0  0  0
   -4.5191    7.7388   -0.2515 H   0  0  0  0  0  0  0  0  0  0  0  0
   -4.7837    8.7436   -1.7561 H   0  0  0  0  0  0  0  0  0  0  0  0
   -4.3880    6.1802   -2.7362 H   0  0  0  0  0  0  0  0  0  0  0  0
   -5.3821    5.9351   -1.2400 H   0  0  0  0  0  0  0  0  0  0  0  0
   -5.9485    6.6428   -3.6808 H   0  0  0  0  0  0  0  0  0  0  0  0
   -7.4666    7.5553   -0.0204 H   0  0  0  0  0  0  0  0  0  0  0  0
   -8.9723    6.6911   -0.4815 H   0  0  0  0  0  0  0  0  0  0  0  0
   -7.4011    5.8204   -0.4815 H   0  0  0  0  0  0  0  0  0  0  0  0
   -9.7941    7.1264   -2.3775 H   0  0  0  0  0  0  0  0  0  0  0  0
   -8.8910    8.0442   -3.6300 H   0  0  0  0  0  0  0  0  0  0  0  0
   -8.8523    6.2483   -3.6300 H   0  0  0  0  0  0  0  0  0  0  0  0
   -2.5988    9.8160   -2.0534 H   0  0  0  0  0  0  0  0  0  0  0  0
   -3.6724   10.3558    0.0420 H   0  0  0  0  0  0  0  0  0  0  0  0
   -3.1371    8.8388    0.7961 H   0  0  0  0  0  0  0  0  0  0  0  0
   -2.0026   11.4194    1.2675 H   0  0  0  0  0  0  0  0  0  0  0  0
   -1.2298    9.9029    1.7218 H   0  0  0  0  0  0  0  0  0  0  0  0
   -1.4562   12.6974   -0.3317 H   0  0  0  0  0  0  0  0  0  0  0  0
   -0.3242   12.3214   -1.6747 H   0  0  0  0  0  0  0  0  0  0  0  0
   -1.9803   11.6259   -1.6747 H   0  0  0  0  0  0  0  0  0  0  0  0
    1.0293    9.9978    0.8582 H   0  0  0  0  0  0  0  0  0  0  0  0
    0.2185   12.3051    1.6645 H   0  0  0  0  0  0  0  0  0  0  0  0
    2.0031   11.8535    1.7097 H   0  0  0  0  0  0  0  0  0  0  0  0
    1.4374   14.2973    0.9033 H   0  0  0  0  0  0  0  0  0  0  0  0
    1.2574   12.0925   -2.4722 H   0  0  0  0  0  0  0  0  0  0  0  0
    4.2629   12.2115   -1.7992 H   0  0  0  0  0  0  0  0  0  0  0  0
    3.4920   11.3540   -3.2067 H   0  0  0  0  0  0  0  0  0  0  0  0
    4.5299   13.5002   -3.8704 H   0  0  0  0  0  0  0  0  0  0  0  0
    2.7412   13.4709   -4.1257 H   0  0  0  0  0  0  0  0  0  0  0  0
    3.3506   15.5963   -3.1939 H   0  0  0  0  0  0  0  0  0  0  0  0
    4.2060   14.6360   -0.7340 H   0  0  0  0  0  0  0  0  0  0  0  0
   -0.0383   15.1106   -2.0367 H   0  0  0  0  0  0  0  0  0  0  0  0
    1.0499   15.8370   -3.2675 H   0  0  0  0  0  0  0  0  0  0  0  0
    0.7493   14.0660   -3.2675 H   0  0  0  0  0  0  0  0  0  0  0  0
    2.1105   15.6673    0.2933 H   0  0  0  0  0  0  0  0  0  0  0  0
    3.0381   16.5689   -0.9530 H   0  0  0  0  0  0  0  0  0  0  0  0
    1.2427   16.6267   -0.9530 H   0  0  0  0  0  0  0  0  0  0  0  0
    3.1858   10.3981    0.7897 H   0  0  0  0  0  0  0  0  0  0  0  0
    3.5677    9.3513   -0.6192 H   0  0  0  0  0  0  0  0  0  0  0  0
    4.0701   11.0760   -0.6192 H   0  0  0  0  0  0  0  0  0  0  0  0
    2.0984    9.8422   -2.9314 H   0  0  0  0  0  0  0  0  0  0  0  0
    1.9095    8.6858   -1.4955 H   0  0  0  0  0  0  0  0  0  0  0  0
   -0.2692   10.2422   -2.9149 H   0  0  0  0  0  0  0  0  0  0  0  0
   -0.0142    8.4536   -2.8572 H   0  0  0  0  0  0  0  0  0  0  0  0
   -0.3287    8.2641    0.8584 H   0  0  0  0  0  0  0  0  0  0  0  0
   -0.8762    7.1950   -0.4772 H   0  0  0  0  0  0  0  0  0  0  0  0
    0.7976    7.8469   -0.4772 H   0  0  0  0  0  0  0  0  0  0  0  0
  1  2  1  0
  2  3  1  0
  3  4  1  0
  4  5  1  0
  5  6  1  0
  6  7  1  0
  7  8  1  0
  7  9  1  0
  2 10  1  0
 10 11  1  0
 11 12  1  0
 12 13  1  0
 13 14  1  6
 13 15  1  0
 15 16  1  0
 16 17  1  0
 17 18  2  0
 18 19  1  0
 19 20  1  0
 20 21  1  0
 21 22  1  0
 22 23  1  0
 22 24  1  0
 24 25  1  0
 24 26  1  0
 19 27  1  0
 27 28  1  1
 27 29  1  0
 29 30  1  0
 30 31  1  0
 31 32  1  1
  7  5  1  0
 31 10  1  0
 31 13  1  0
 27 15  1  0
 24 18  1  0
  1 33  1  0
  1 34  1  0
  1 35  1  0
  2 36  1  1
  3 37  1  0
  3 38  1  0
  4 39  1  0
  4 40  1  0
  5 41  1  6
  8 42  1  0
  8 43  1  0
  8 44  1  0
  9 45  1  0
  9 46  1  0
  9 47  1  0
 10 48  1  6
 11 49  1  0
 11 50  1  0
 12 51  1  0
 12 52  1  0
 14 53  1  0
 14 54  1  0
 14 55  1  0
 15 56  1  1
 16 57  1  0
 16 58  1  0
 17 59  1  0
 19 60  1  6
 20 61  1  0
 20 62  1  0
 21 63  1  0
 21 64  1  0
 22 65  1  6
 23 66  1  0
 25 67  1  0
 25 68  1  0
 25 69  1  0
 26 70  1  0
 26 71  1  0
 26 72  1  0
 28 73  1  0
 28 74  1  0
 28 75  1  0
 29 76  1  0
 29 77  1  0
 30 78  1  0
 30 79  1  0
 32 80  1  0
 32 81  1  0
 32 82  1  0
M  END
>  <meeko>  (8) 
{"is_sidechain": [false], "intermolecular_energy": 2.731, "internal_energy": -0.839}

$$$$
EPH_relaxed_0001_pdb2pqr_Repair_149_r2_0001_out
     RDKit          3D

 82 86  0  0  0  0  0  0  0  0999 V2000
    0.5780   17.7890   -0.1930 C   0  0  0  0  0  0  0  0  0  0  0  0
    1.4530   17.0780   -1.2290 C   0  0  2  0  0  0  0  0  0  0  0  0
    1.8060   17.9930   -2.4180 C   0  0  0  0  0  0  0  0  0  0  0  0
    3.3090   18.2370   -2.5820 C   0  0  0  0  0  0  0  0  0  0  0  0
    4.1030   16.9910   -2.3330 C   0  0  2  0  0  0  0  0  0  0  0  0
    5.2460   17.1690   -1.4860 O   0  0  0  0  0  0  0  0  0  0  0  0
    5.5160   16.7840   -2.8440 C   0  0  0  0  0  0  0  0  0  0  0  0
    6.2180   17.8340   -3.6460 C   0  0  0  0  0  0  0  0  0  0  0  0
    6.0290   15.3840   -2.9820 C   0  0  0  0  0  0  0  0  0  0  0  0
    0.7470   15.8230   -1.7300 C   0  0  1  0  0  0  0  0  0  0  0  0
    0.2830   15.9470   -3.2060 C   0  0  0  0  0  0  0  0  0  0  0  0
    0.4320   14.5400   -3.8410 C   0  0  0  0  0  0  0  0  0  0  0  0
    0.6560   13.5920   -2.6410 C   0  0  1  0  0  0  0  0  0  0  0  0
   -0.7720   13.3210   -2.0720 C   0  0  0  0  0  0  0  0  0  0  0  0
    1.4180   12.2600   -2.9450 C   0  0  2  0  0  0  0  0  0  0  0  0
    0.7110   11.3150   -3.9310 C   0  0  0  0  0  0  0  0  0  0  0  0
   -0.2100   10.3170   -3.3100 C   0  0  0  0  0  0  0  0  0  0  0  0
   -0.2470    9.9940   -2.0040 C   0  0  0  0  0  0  0  0  0  0  0  0
    0.7670   10.5860   -1.0170 C   0  0  1  0  0  0  0  0  0  0  0  0
    1.3310    9.4580   -0.1150 C   0  0  0  0  0  0  0  0  0  0  0  0
    0.2330    8.6630    0.5840 C   0  0  0  0  0  0  0  0  0  0  0  0
   -0.7220    8.0420   -0.4320 C   0  0  2  0  0  0  0  0  0  0  0  0
   -0.0150    7.0480   -1.1810 O   0  0  0  0  0  0  0  0  0  0  0  0
   -1.3460    9.0830   -1.4030 C   0  0  0  0  0  0  0  0  0  0  0  0
   -2.3500    9.9760   -0.6340 C   0  0  0  0  0  0  0  0  0  0  0  0
   -2.1760    8.3100   -2.4630 C   0  0  0  0  0  0  0  0  0  0  0  0
    1.9110   11.4870   -1.6550 C   0  0  1  0  0  0  0  0  0  0  0  0
    3.1060   10.5910   -2.1030 C   0  0  0  0  0  0  0  0  0  0  0  0
    2.4740   12.4600   -0.5530 C   0  0  0  0  0  0  0  0  0  0  0  0
    1.7520   13.8100   -0.3820 C   0  0  0  0  0  0  0  0  0  0  0  0
    1.5600   14.5040   -1.7340 C   0  0  2  0  0  0  0  0  0  0  0  0
    2.9810   14.8080   -2.3210 C   0  0  0  0  0  0  0  0  0  0  0  0
    0.9131   17.5167    0.8187 H   0  0  0  0  0  0  0  0  0  0  0  0
    0.6626   18.8776   -0.3267 H   0  0  0  0  0  0  0  0  0  0  0  0
   -0.4702   17.4835   -0.3267 H   0  0  0  0  0  0  0  0  0  0  0  0
    2.3958   16.8031   -0.7334 H   0  0  0  0  0  0  0  0  0  0  0  0
    1.4273   17.5267   -3.3395 H   0  0  0  0  0  0  0  0  0  0  0  0
    1.3413   18.9703   -2.2206 H   0  0  0  0  0  0  0  0  0  0  0  0
    3.5039   18.5850   -3.6071 H   0  0  0  0  0  0  0  0  0  0  0  0
    3.6163   18.9927   -1.8441 H   0  0  0  0  0  0  0  0  0  0  0  0
    3.1965   16.3715   -2.3993 H   0  0  0  0  0  0  0  0  0  0  0  0
    6.6990   18.5535   -2.9670 H   0  0  0  0  0  0  0  0  0  0  0  0
    6.9822   17.3611   -4.2803 H   0  0  0  0  0  0  0  0  0  0  0  0
    5.4889   18.3594   -4.2803 H   0  0  0  0  0  0  0  0  0  0  0  0
    6.1875   14.9514   -1.9831 H   0  0  0  0  0  0  0  0  0  0  0  0
    5.2949   14.7770   -3.5321 H   0  0  0  0  0  0  0  0  0  0  0  0
    6.9815   15.3951   -3.5321 H   0  0  0  0  0  0  0  0  0  0  0  0
   -0.0665   15.7619   -0.9921 H   0  0  0  0  0  0  0  0  0  0  0  0
   -0.7671   16.2719   -3.2470 H   0  0  0  0  0  0  0  0  0  0  0  0
    0.8849   16.6910   -3.7483 H   0  0  0  0  0  0  0  0  0  0  0  0
   -0.4803   14.2630   -4.3896 H   0  0  0  0  0  0  0  0  0  0  0  0
    1.2570   14.4955   -4.5673 H   0  0  0  0  0  0  0  0  0  0  0  0
   -0.7360   13.3278   -0.9726 H   0  0  0  0  0  0  0  0  0  0  0  0
   -1.4606   14.1045   -2.4212 H   0  0  0  0  0  0  0  0  0  0  0  0
   -1.1257   12.3397   -2.4212 H   0  0  0  0  0  0  0  0  0  0  0  0
    2.3183   12.6164   -3.4669 H   0  0  0  0  0  0  0  0  0  0  0  0
    0.1246   11.9298   -4.6297 H   0  0  0  0  0  0  0  0  0  0  0  0
    1.5071   10.7324   -4.4176 H   0  0  0  0  0  0  0  0  0  0  0  0
   -0.9180    9.8024   -3.9762 H   0  0  0  0  0  0  0  0  0  0  0  0
    0.2085   11.3092   -0.4046 H   0  0  0  0  0  0  0  0  0  0  0  0
    1.9217    8.7705   -0.7382 H   0  0  0  0  0  0  0  0  0  0  0  0
    1.9479    9.9305    0.6636 H   0  0  0  0  0  0  0  0  0  0  0  0
    0.6932    7.8623    1.1817 H   0  0  0  0  0  0  0  0  0  0  0  0
   -0.3377    9.3460    1.2304 H   0  0  0  0  0  0  0  0  0  0  0  0
   -1.5573    7.5975    0.1290 H   0  0  0  0  0  0  0  0  0  0  0  0
   -0.5610    6.8170   -1.9520 H   0  0  0  0  0  0  0  0  0  0  0  0
   -2.2029    9.8451    0.4482 H   0  0  0  0  0  0  0  0  0  0  0  0
   -2.1833   11.0298   -0.9019 H   0  0  0  0  0  0  0  0  0  0  0  0
   -3.3771    9.6876   -0.9019 H   0  0  0  0  0  0  0  0  0  0  0  0
   -2.8902    7.6448   -1.9557 H   0  0  0  0  0  0  0  0  0  0  0  0
   -2.7251    9.0260   -3.0922 H   0  0  0  0  0  0  0  0  0  0  0  0
   -1.5008    7.7115   -3.0922 H   0  0  0  0  0  0  0  0  0  0  0  0
    3.6254   10.2016   -1.2150 H   0  0  0  0  0  0  0  0  0  0  0  0
    2.7290    9.7511   -2.7050 H   0  0  0  0  0  0  0  0  0  0  0  0
    3.8066   11.1883   -2.7050 H   0  0  0  0  0  0  0  0  0  0  0  0
    2.4266   11.9331    0.4114 H   0  0  0  0  0  0  0  0  0  0  0  0
    3.4892   12.7178   -0.8890 H   0  0  0  0  0  0  0  0  0  0  0  0
    0.7673   13.6359    0.0762 H   0  0  0  0  0  0  0  0  0  0  0  0
    2.3666   14.4576    0.2606 H   0  0  0  0  0  0  0  0  0  0  0  0
    3.6933   14.9604   -1.4967 H   0  0  0  0  0  0  0  0  0  0  0  0
    3.3114   13.9602   -2.9391 H   0  0  0  0  0  0  0  0  0  0  0  0
    2.9356   15.7168   -2.9391 H   0  0  0  0  0  0  0  0  0  0  0  0
  1  2  1  0
  2  3  1  0
  3  4  1  0
  4  5  1  0
  5  6  1  0
  6  7  1  0
  7  8  1  0
  7  9  1  0
  2 10  1  0
 10 11  1  0
 11 12  1  0
 12 13  1  0
 13 14  1  1
 13 15  1  0
 15 16  1  0
 16 17  1  0
 17 18  2  0
 18 19  1  0
 19 20  1  0
 20 21  1  0
 21 22  1  0
 22 23  1  0
 22 24  1  0
 24 25  1  0
 24 26  1  0
 19 27  1  0
 27 28  1  6
 27 29  1  0
 29 30  1  0
 30 31  1  0
 31 32  1  6
  7  5  1  0
 31 10  1  0
 31 13  1  0
 27 15  1  0
 24 18  1  0
  1 33  1  0
  1 34  1  0
  1 35  1  0
  2 36  1  1
  3 37  1  0
  3 38  1  0
  4 39  1  0
  4 40  1  0
  5 41  1  1
  8 42  1  0
  8 43  1  0
  8 44  1  0
  9 45  1  0
  9 46  1  0
  9 47  1  0
 10 48  1  1
 11 49  1  0
 11 50  1  0
 12 51  1  0
 12 52  1  0
 14 53  1  0
 14 54  1  0
 14 55  1  0
 15 56  1  6
 16 57  1  0
 16 58  1  0
 17 59  1  0
 19 60  1  1
 20 61  1  0
 20 62  1  0
 21 63  1  0
 21 64  1  0
 22 65  1  1
 23 66  1  0
 25 67  1  0
 25 68  1  0
 25 69  1  0
 26 70  1  0
 26 71  1  0
 26 72  1  0
 28 73  1  0
 28 74  1  0
 28 75  1  0
 29 76  1  0
 29 77  1  0
 30 78  1  0
 30 79  1  0
 32 80  1  0
 32 81  1  0
 32 82  1  0
M  END
>  <meeko>  (9) 
{"is_sidechain": [false], "intermolecular_energy": 2.731, "internal_energy": -0.839}

$$$$
EPH_relaxed_0001_pdb2pqr_Repair_149_r2_0001_out
     RDKit          3D

 82 86  0  0  0  0  0  0  0  0999 V2000
    1.7810   18.3360   -2.9860 C   0  0  0  0  0  0  0  0  0  0  0  0
    2.1190   17.5750   -1.7010 C   0  0  2  0  0  0  0  0  0  0  0  0
    3.4330   18.0690   -1.0630 C   0  0  0  0  0  0  0  0  0  0  0  0
    3.2510   18.6660    0.3360 C   0  0  0  0  0  0  0  0  0  0  0  0
    4.5390   18.6820    1.1030 C   0  0  2  0  0  0  0  0  0  0  0  0
    4.4950   17.9950    2.3600 O   0  0  0  0  0  0  0  0  0  0  0  0
    4.7180   19.4130    2.4200 C   0  0  0  0  0  0  0  0  0  0  0  0
    3.5960   20.1790    3.0470 C   0  0  0  0  0  0  0  0  0  0  0  0
    6.1030   19.7880    2.8480 C   0  0  0  0  0  0  0  0  0  0  0  0
    2.2100   16.0810   -1.9900 C   0  0  1  0  0  0  0  0  0  0  0  0
    3.6470   15.6320   -2.3680 C   0  0  0  0  0  0  0  0  0  0  0  0
    3.8370   14.2070   -1.7870 C   0  0  0  0  0  0  0  0  0  0  0  0
    2.4120   13.7540   -1.3900 C   0  0  1  0  0  0  0  0  0  0  0  0
    1.7620   13.2620   -2.7210 C   0  0  0  0  0  0  0  0  0  0  0  0
    2.3190   12.6710   -0.2670 C   0  0  2  0  0  0  0  0  0  0  0  0
    2.9660   11.3180   -0.6100 C   0  0  0  0  0  0  0  0  0  0  0  0
    2.0580   10.3230   -1.2550 C   0  0  0  0  0  0  0  0  0  0  0  0
    0.7150   10.3970   -1.2910 C   0  0  0  0  0  0  0  0  0  0  0  0
   -0.0320   11.5160   -0.5530 C   0  0  1  0  0  0  0  0  0  0  0  0
   -1.2190   10.9110    0.2410 C   0  0  0  0  0  0  0  0  0  0  0  0
   -2.1430   10.0730   -0.6370 C   0  0  0  0  0  0  0  0  0  0  0  0
   -1.3760    8.9360   -1.3070 C   0  0  2  0  0  0  0  0  0  0  0  0
   -0.9440    8.0150   -0.3000 O   0  0  0  0  0  0  0  0  0  0  0  0
   -0.1510    9.4240   -2.1280 C   0  0  0  0  0  0  0  0  0  0  0  0
   -0.6370   10.1730   -3.3940 C   0  0  0  0  0  0  0  0  0  0  0  0
    0.6150    8.1720   -2.6330 C   0  0  0  0  0  0  0  0  0  0  0  0
    0.8670   12.4820    0.3330 C   0  0  1  0  0  0  0  0  0  0  0  0
    1.0500   11.8780    1.7600 C   0  0  0  0  0  0  0  0  0  0  0  0
    0.1160   13.8520    0.5240 C   0  0  0  0  0  0  0  0  0  0  0  0
    0.3420   14.9250   -0.5580 C   0  0  0  0  0  0  0  0  0  0  0  0
    1.8360   15.1110   -0.8420 C   0  0  2  0  0  0  0  0  0  0  0  0
    2.5130   15.6270    0.4730 C   0  0  0  0  0  0  0  0  0  0  0  0
    1.3468   19.3136   -2.7297 H   0  0  0  0  0  0  0  0  0  0  0  0
    2.6975   18.4851   -3.5757 H   0  0  0  0  0  0  0  0  0  0  0  0
    1.0559   17.7560   -3.5757 H   0  0  0  0  0  0  0  0  0  0  0  0
    1.3097   17.7655   -0.9808 H   0  0  0  0  0  0  0  0  0  0  0  0
    4.1254   17.2174   -0.9899 H   0  0  0  0  0  0  0  0  0  0  0  0
    3.8218   18.8714   -1.7072 H   0  0  0  0  0  0  0  0  0  0  0  0
    2.8813   19.6974    0.2383 H   0  0  0  0  0  0  0  0  0  0  0  0
    2.5321   18.0404    0.8853 H   0  0  0  0  0  0  0  0  0  0  0  0
    5.1224   18.6881    0.1705 H   0  0  0  0  0  0  0  0  0  0  0  0
    3.6800   20.1217    4.1423 H   0  0  0  0  0  0  0  0  0  0  0  0
    3.6480   21.2310    2.7298 H   0  0  0  0  0  0  0  0  0  0  0  0
    2.6352   19.7475    2.7298 H   0  0  0  0  0  0  0  0  0  0  0  0
    6.1560   19.8024    3.9466 H   0  0  0  0  0  0  0  0  0  0  0  0
    6.8200   19.0516    2.4559 H   0  0  0  0  0  0  0  0  0  0  0  0
    6.3505   20.7855    2.4559 H   0  0  0  0  0  0  0  0  0  0  0  0
    1.4720   16.0048   -2.8021 H   0  0  0  0  0  0  0  0  0  0  0  0
    3.7629   15.6138   -3.4617 H   0  0  0  0  0  0  0  0  0  0  0  0
    4.3975   16.3271   -1.9635 H   0  0  0  0  0  0  0  0  0  0  0  0
    4.2620   13.5322   -2.5447 H   0  0  0  0  0  0  0  0  0  0  0  0
    4.5317   14.1935   -0.9342 H   0  0  0  0  0  0  0  0  0  0  0  0
    0.9041   12.6127   -2.4920 H   0  0  0  0  0  0  0  0  0  0  0  0
    1.4198   14.1294   -3.3045 H   0  0  0  0  0  0  0  0  0  0  0  0
    2.5039   12.6972   -3.3045 H   0  0  0  0  0  0  0  0  0  0  0  0
    2.9397   13.1050    0.5307 H   0  0  0  0  0  0  0  0  0  0  0  0
    3.8056   11.5065   -1.2953 H   0  0  0  0  0  0  0  0  0  0  0  0
    3.2718   10.8746    0.3491 H   0  0  0  0  0  0  0  0  0  0  0  0
    2.5272    9.4556   -1.7422 H   0  0  0  0  0  0  0  0  0  0  0  0
   -0.4120   12.1932   -1.3321 H   0  0  0  0  0  0  0  0  0  0  0  0
   -0.8185   10.2722    1.0419 H   0  0  0  0  0  0  0  0  0  0  0  0
   -1.8097   11.7457    0.6464 H   0  0  0  0  0  0  0  0  0  0  0  0
   -2.9443    9.6487   -0.0142 H   0  0  0  0  0  0  0  0  0  0  0  0
   -2.5658   10.7202   -1.4196 H   0  0  0  0  0  0  0  0  0  0  0  0
   -2.0595    8.4528   -2.0207 H   0  0  0  0  0  0  0  0  0  0  0  0
   -0.1270    7.5950   -0.6160 H   0  0  0  0  0  0  0  0  0  0  0  0
   -1.2133   11.0612   -3.0959 H   0  0  0  0  0  0  0  0  0  0  0  0
    0.2321   10.4837   -3.9925 H   0  0  0  0  0  0  0  0  0  0  0  0
   -1.2748    9.5059   -3.9925 H   0  0  0  0  0  0  0  0  0  0  0  0
    0.9720    7.5884   -1.7716 H   0  0  0  0  0  0  0  0  0  0  0  0
   -0.0582    7.5514   -3.2426 H   0  0  0  0  0  0  0  0  0  0  0  0
    1.4740    8.4889   -3.2426 H   0  0  0  0  0  0  0  0  0  0  0  0
    0.8180   12.6438    2.5148 H   0  0  0  0  0  0  0  0  0  0  0  0
    0.3710   11.0218    1.8856 H   0  0  0  0  0  0  0  0  0  0  0  0
    2.0901   11.5426    1.8856 H   0  0  0  0  0  0  0  0  0  0  0  0
   -0.9624   13.6381    0.5603 H   0  0  0  0  0  0  0  0  0  0  0  0
    0.5322   14.2820    1.4470 H   0  0  0  0  0  0  0  0  0  0  0  0
   -0.1644   14.6147   -1.4839 H   0  0  0  0  0  0  0  0  0  0  0  0
   -0.0679   15.8796   -0.1964 H   0  0  0  0  0  0  0  0  0  0  0  0
    1.9791   15.2200    1.3444 H   0  0  0  0  0  0  0  0  0  0  0  0
    3.5621   15.2973    0.4990 H   0  0  0  0  0  0  0  0  0  0  0  0
    2.4732   16.7260    0.4990 H   0  0  0  0  0  0  0  0  0  0  0  0
  1  2  1  0
  2  3  1  0
  3  4  1  0
  4  5  1  0
  5  6  1  0
  6  7  1  0
  7  8  1  0
  7  9  1  0
  2 10  1  0
 10 11  1  0
 11 12  1  0
 12 13  1  0
 13 14  1  6
 13 15  1  0
 15 16  1  0
 16 17  1  0
 17 18  2  0
 18 19  1  0
 19 20  1  0
 20 21  1  0
 21 22  1  0
 22 23  1  0
 22 24  1  0
 24 25  1  0
 24 26  1  0
 19 27  1  0
 27 28  1  1
 27 29  1  0
 29 30  1  0
 30 31  1  0
 31 32  1  1
  7  5  1  0
 31 10  1  0
 31 13  1  0
 27 15  1  0
 24 18  1  0
  1 33  1  0
  1 34  1  0
  1 35  1  0
  2 36  1  1
  3 37  1  0
  3 38  1  0
  4 39  1  0
  4 40  1  0
  5 41  1  6
  8 42  1  0
  8 43  1  0
  8 44  1  0
  9 45  1  0
  9 46  1  0
  9 47  1  0
 10 48  1  6
 11 49  1  0
 11 50  1  0
 12 51  1  0
 12 52  1  0
 14 53  1  0
 14 54  1  0
 14 55  1  0
 15 56  1  1
 16 57  1  0
 16 58  1  0
 17 59  1  0
 19 60  1  6
 20 61  1  0
 20 62  1  0
 21 63  1  0
 21 64  1  0
 22 65  1  6
 23 66  1  0
 25 67  1  0
 25 68  1  0
 25 69  1  0
 26 70  1  0
 26 71  1  0
 26 72  1  0
 28 73  1  0
 28 74  1  0
 28 75  1  0
 29 76  1  0
 29 77  1  0
 30 78  1  0
 30 79  1  0
 32 80  1  0
 32 81  1  0
 32 82  1  0
M  END
>  <meeko>  (10) 
{"is_sidechain": [false], "intermolecular_energy": 2.731, "internal_energy": -0.839}

$$$$
EPH_relaxed_0001_pdb2pqr_Repair_149_r2_0001_out
     RDKit          3D

 82 86  0  0  0  0  0  0  0  0999 V2000
    4.4970   16.9080   -0.9660 C   0  0  0  0  0  0  0  0  0  0  0  0
    3.1010   17.5150   -0.8010 C   0  0  2  0  0  0  0  0  0  0  0  0
    3.0350   18.5080    0.3770 C   0  0  0  0  0  0  0  0  0  0  0  0
    2.3310   19.8240    0.0330 C   0  0  0  0  0  0  0  0  0  0  0  0
    0.9630   19.8960    0.6400 C   0  0  2  0  0  0  0  0  0  0  0  0
    0.2760   18.6410    0.7180 O   0  0  0  0  0  0  0  0  0  0  0  0
   -0.3120   19.6320   -0.1390 C   0  0  0  0  0  0  0  0  0  0  0  0
   -0.2800   19.2770   -1.5920 C   0  0  0  0  0  0  0  0  0  0  0  0
   -1.5980   20.1940    0.3830 C   0  0  0  0  0  0  0  0  0  0  0  0
    2.0730   16.4060   -0.6050 C   0  0  1  0  0  0  0  0  0  0  0  0
    0.6280   16.9520   -0.4480 C   0  0  0  0  0  0  0  0  0  0  0  0
   -0.3150   15.9230   -1.1230 C   0  0  0  0  0  0  0  0  0  0  0  0
    0.5690   14.6740   -1.3490 C   0  0  1  0  0  0  0  0  0  0  0  0
    0.5880   13.9420    0.0290 C   0  0  0  0  0  0  0  0  0  0  0  0
    0.1300   13.7180   -2.5050 C   0  0  2  0  0  0  0  0  0  0  0  0
   -1.2510   13.0640   -2.3230 C   0  0  0  0  0  0  0  0  0  0  0  0
   -1.2470   11.7500   -1.6150 C   0  0  0  0  0  0  0  0  0  0  0  0
   -0.1620   10.9830   -1.3970 C   0  0  0  0  0  0  0  0  0  0  0  0
    1.2070   11.3740   -1.9670 C   0  0  1  0  0  0  0  0  0  0  0  0
    1.8670   10.1350   -2.6260 C   0  0  0  0  0  0  0  0  0  0  0  0
    1.9490    8.9420   -1.6780 C   0  0  0  0  0  0  0  0  0  0  0  0
    0.5620    8.5470   -1.1780 C   0  0  2  0  0  0  0  0  0  0  0  0
   -0.2000    8.0460   -2.2800 O   0  0  0  0  0  0  0  0  0  0  0  0
   -0.2030    9.7190   -0.5030 C   0  0  0  0  0  0  0  0  0  0  0  0
    0.4610   10.0620    0.8540 C   0  0  0  0  0  0  0  0  0  0  0  0
   -1.6370    9.2260   -0.1720 C   0  0  0  0  0  0  0  0  0  0  0  0
    1.2250   12.6510   -2.9140 C   0  0  1  0  0  0  0  0  0  0  0  0
    0.9080   12.2290   -4.3820 C   0  0  0  0  0  0  0  0  0  0  0  0
    2.6770   13.2590   -2.9300 C   0  0  0  0  0  0  0  0  0  0  0  0
    3.0110   14.2880   -1.8340 C   0  0  0  0  0  0  0  0  0  0  0  0
    1.9250   15.3650   -1.7430 C   0  0  2  0  0  0  0  0  0  0  0  0
    1.8980   16.1330   -3.1080 C   0  0  0  0  0  0  0  0  0  0  0  0
    4.9338   16.7181    0.0255 H   0  0  0  0  0  0  0  0  0  0  0  0
    4.4219   15.9613   -1.5210 H   0  0  0  0  0  0  0  0  0  0  0  0
    5.1382   17.6086   -1.5210 H   0  0  0  0  0  0  0  0  0  0  0  0
    2.8731   18.0764   -1.7191 H   0  0  0  0  0  0  0  0  0  0  0  0
    2.4915   18.0293    1.2049 H   0  0  0  0  0  0  0  0  0  0  0  0
    4.0720   18.7583    0.6455 H   0  0  0  0  0  0  0  0  0  0  0  0
    2.9344   20.6612    0.4138 H   0  0  0  0  0  0  0  0  0  0  0  0
    2.2243   19.8801   -1.0604 H   0  0  0  0  0  0  0  0  0  0  0  0
    1.2705   20.7259    1.2932 H   0  0  0  0  0  0  0  0  0  0  0  0
   -0.1817   18.1868   -1.7010 H   0  0  0  0  0  0  0  0  0  0  0  0
   -1.2119   19.6109   -2.0717 H   0  0  0  0  0  0  0  0  0  0  0  0
    0.5771   19.7722   -2.0717 H   0  0  0  0  0  0  0  0  0  0  0  0
   -1.5816   20.1868    1.4829 H   0  0  0  0  0  0  0  0  0  0  0  0
   -1.7189   21.2270    0.0248 H   0  0  0  0  0  0  0  0  0  0  0  0
   -2.4382   19.5810    0.0248 H   0  0  0  0  0  0  0  0  0  0  0  0
    2.4881   15.9260    0.2935 H   0  0  0  0  0  0  0  0  0  0  0  0
    0.3757   17.0548    0.6177 H   0  0  0  0  0  0  0  0  0  0  0  0
    0.5279   17.9438   -0.9131 H   0  0  0  0  0  0  0  0  0  0  0  0
   -1.1638   15.6843   -0.4653 H   0  0  0  0  0  0  0  0  0  0  0  0
   -0.7462   16.3043   -2.0604 H   0  0  0  0  0  0  0  0  0  0  0  0
    0.5687   14.6855    0.8394 H   0  0  0  0  0  0  0  0  0  0  0  0
   -0.2935   13.2889    0.1095 H   0  0  0  0  0  0  0  0  0  0  0  0
    1.5022   13.3355    0.1095 H   0  0  0  0  0  0  0  0  0  0  0  0
    0.0233   14.4088   -3.3544 H   0  0  0  0  0  0  0  0  0  0  0  0
   -1.8822   13.7576   -1.7482 H   0  0  0  0  0  0  0  0  0  0  0  0
   -1.6274   12.8618   -3.3366 H   0  0  0  0  0  0  0  0  0  0  0  0
   -2.2114   11.3769   -1.2398 H   0  0  0  0  0  0  0  0  0  0  0  0
    1.8098   11.7056   -1.1087 H   0  0  0  0  0  0  0  0  0  0  0  0
    1.2739    9.8459   -3.5062 H   0  0  0  0  0  0  0  0  0  0  0  0
    2.8947   10.4122   -2.9035 H   0  0  0  0  0  0  0  0  0  0  0  0
    2.3963    8.0894   -2.2100 H   0  0  0  0  0  0  0  0  0  0  0  0
    2.5676    9.2226   -0.8128 H   0  0  0  0  0  0  0  0  0  0  0  0
    0.6974    7.7756   -0.4056 H   0  0  0  0  0  0  0  0  0  0  0  0
    0.1030    8.5070   -3.0810 H   0  0  0  0  0  0  0  0  0  0  0  0
   -0.1890    9.7263    1.6755 H   0  0  0  0  0  0  0  0  0  0  0  0
    1.4339    9.5537    0.9250 H   0  0  0  0  0  0  0  0  0  0  0  0
    0.6095   11.1496    0.9250 H   0  0  0  0  0  0  0  0  0  0  0  0
   -1.7666    9.1814    0.9194 H   0  0  0  0  0  0  0  0  0  0  0  0
   -2.3724    9.9229   -0.6004 H   0  0  0  0  0  0  0  0  0  0  0  0
   -1.7883    8.2242   -0.6004 H   0  0  0  0  0  0  0  0  0  0  0  0
    0.2473   11.3495   -4.3762 H   0  0  0  0  0  0  0  0  0  0  0  0
    0.4085   13.0594   -4.9025 H   0  0  0  0  0  0  0  0  0  0  0  0
    1.8447   11.9805   -4.9025 H   0  0  0  0  0  0  0  0  0  0  0  0
    3.3879   12.4254   -2.8316 H   0  0  0  0  0  0  0  0  0  0  0  0
    2.7461   13.8144   -3.8770 H   0  0  0  0  0  0  0  0  0  0  0  0
    3.0868   13.7709   -0.8661 H   0  0  0  0  0  0  0  0  0  0  0  0
    3.9652   14.7729   -2.0875 H   0  0  0  0  0  0  0  0  0  0  0  0
    1.8599   17.2159   -2.9187 H   0  0  0  0  0  0  0  0  0  0  0  0
    2.8051   15.8927   -3.6819 H   0  0  0  0  0  0  0  0  0  0  0  0
    1.0100   15.8296   -3.6819 H   0  0  0  0  0  0  0  0  0  0  0  0
  1  2  1  0
  2  3  1  0
  3  4  1  0
  4  5  1  0
  5  6  1  0
  6  7  1  0
  7  8  1  0
  7  9  1  0
  2 10  1  0
 10 11  1  0
 11 12  1  0
 12 13  1  0
 13 14  1  1
 13 15  1  0
 15 16  1  0
 16 17  1  0
 17 18  2  0
 18 19  1  0
 19 20  1  0
 20 21  1  0
 21 22  1  0
 22 23  1  0
 22 24  1  0
 24 25  1  0
 24 26  1  0
 19 27  1  0
 27 28  1  6
 27 29  1  0
 29 30  1  0
 30 31  1  0
 31 32  1  6
  7  5  1  0
 31 10  1  0
 31 13  1  0
 27 15  1  0
 24 18  1  0
  1 33  1  0
  1 34  1  0
  1 35  1  0
  2 36  1  6
  3 37  1  0
  3 38  1  0
  4 39  1  0
  4 40  1  0
  5 41  1  1
  8 42  1  0
  8 43  1  0
  8 44  1  0
  9 45  1  0
  9 46  1  0
  9 47  1  0
 10 48  1  1
 11 49  1  0
 11 50  1  0
 12 51  1  0
 12 52  1  0
 14 53  1  0
 14 54  1  0
 14 55  1  0
 15 56  1  6
 16 57  1  0
 16 58  1  0
 17 59  1  0
 19 60  1  1
 20 61  1  0
 20 62  1  0
 21 63  1  0
 21 64  1  0
 22 65  1  1
 23 66  1  0
 25 67  1  0
 25 68  1  0
 25 69  1  0
 26 70  1  0
 26 71  1  0
 26 72  1  0
 28 73  1  0
 28 74  1  0
 28 75  1  0
 29 76  1  0
 29 77  1  0
 30 78  1  0
 30 79  1  0
 32 80  1  0
 32 81  1  0
 32 82  1  0
M  END
>  <meeko>  (11) 
{"is_sidechain": [false], "intermolecular_energy": 2.731, "internal_energy": -0.839}

$$$$
EPH_relaxed_0001_pdb2pqr_Repair_149_r2_0001_out
     RDKit          3D

 82 86  0  0  0  0  0  0  0  0999 V2000
    0.9100    8.7060   -0.2740 C   0  0  0  0  0  0  0  0  0  0  0  0
   -0.1450    9.4520   -1.0950 C   0  0  2  0  0  0  0  0  0  0  0  0
   -0.8340    8.5360   -2.1260 C   0  0  0  0  0  0  0  0  0  0  0  0
   -2.3440    8.3960   -1.9130 C   0  0  0  0  0  0  0  0  0  0  0  0
   -2.8960    7.2010   -2.6300 C   0  0  2  0  0  0  0  0  0  0  0  0
   -3.9350    7.4960   -3.5730 O   0  0  0  0  0  0  0  0  0  0  0  0
   -4.3140    6.6950   -2.4420 C   0  0  0  0  0  0  0  0  0  0  0  0
   -5.2680    7.3720   -1.5080 C   0  0  0  0  0  0  0  0  0  0  0  0
   -4.6170    5.2700   -2.7880 C   0  0  0  0  0  0  0  0  0  0  0  0
    0.4920   10.6430   -1.8010 C   0  0  1  0  0  0  0  0  0  0  0  0
    0.1430   10.6990   -3.3120 C   0  0  0  0  0  0  0  0  0  0  0  0
    0.0270   12.1980   -3.6900 C   0  0  0  0  0  0  0  0  0  0  0  0
    0.6320   12.9520   -2.4830 C   0  0  1  0  0  0  0  0  0  0  0  0
    2.1760   12.8870   -2.7020 C   0  0  0  0  0  0  0  0  0  0  0  0
    0.1410   14.4210   -2.2690 C   0  0  2  0  0  0  0  0  0  0  0  0
    0.4750   15.3940   -3.4130 C   0  0  0  0  0  0  0  0  0  0  0  0
    1.7790   16.1090   -3.2820 C   0  0  0  0  0  0  0  0  0  0  0  0
    2.5150   16.1940   -2.1580 C   0  0  0  0  0  0  0  0  0  0  0  0
    2.0000   15.6150   -0.8340 C   0  0  1  0  0  0  0  0  0  0  0  0
    2.2130   16.6500    0.3020 C   0  0  0  0  0  0  0  0  0  0  0  0
    3.6600   17.1250    0.3960 C   0  0  0  0  0  0  0  0  0  0  0  0
    4.1160   17.7480   -0.9210 C   0  0  2  0  0  0  0  0  0  0  0  0
    3.3800   18.9550   -1.1400 O   0  0  0  0  0  0  0  0  0  0  0  0
    3.9400   16.8000   -2.1400 C   0  0  0  0  0  0  0  0  0  0  0  0
    4.9600   15.6390   -2.0490 C   0  0  0  0  0  0  0  0  0  0  0  0
    4.3030   17.5980   -3.4220 C   0  0  0  0  0  0  0  0  0  0  0  0
    0.5210   15.0330   -0.8600 C   0  0  1  0  0  0  0  0  0  0  0  0
   -0.5040   16.1740   -0.5780 C   0  0  0  0  0  0  0  0  0  0  0  0
    0.3580   13.9910    0.3090 C   0  0  0  0  0  0  0  0  0  0  0  0
    0.7480   12.5330   -0.0010 C   0  0  0  0  0  0  0  0  0  0  0  0
    0.1000   12.0570   -1.3050 C   0  0  2  0  0  0  0  0  0  0  0  0
   -1.4540   12.0910   -1.1060 C   0  0  0  0  0  0  0  0  0  0  0  0
    0.7086    8.8484    0.7980 H   0  0  0  0  0  0  0  0  0  0  0  0
    0.8712    7.6334   -0.5150 H   0  0  0  0  0  0  0  0  0  0  0  0
    1.9083    9.1001   -0.5150 H   0  0  0  0  0  0  0  0  0  0  0  0
   -0.9188    9.8036   -0.3968 H   0  0  0  0  0  0  0  0  0  0  0  0
   -0.6620    8.9519   -3.1297 H   0  0  0  0  0  0  0  0  0  0  0  0
   -0.3982    7.5331   -2.0069 H   0  0  0  0  0  0  0  0  0  0  0  0
   -2.5439    8.2898   -0.8366 H   0  0  0  0  0  0  0  0  0  0  0  0
   -2.8324    9.2948   -2.3175 H   0  0  0  0  0  0  0  0  0  0  0  0
   -1.9202    6.6950   -2.5881 H   0  0  0  0  0  0  0  0  0  0  0  0
   -4.9740    7.1633   -0.4688 H   0  0  0  0  0  0  0  0  0  0  0  0
   -5.2458    8.4575   -1.6844 H   0  0  0  0  0  0  0  0  0  0  0  0
   -6.2853    6.9926   -1.6844 H   0  0  0  0  0  0  0  0  0  0  0  0
   -4.7410    4.6867   -1.8637 H   0  0  0  0  0  0  0  0  0  0  0  0
   -5.5448    5.2251   -3.3772 H   0  0  0  0  0  0  0  0  0  0  0  0
   -3.7878    4.8515   -3.3772 H   0  0  0  0  0  0  0  0  0  0  0  0
    1.5505   10.4451   -1.5763 H   0  0  0  0  0  0  0  0  0  0  0  0
    0.9382   10.2201   -3.9023 H   0  0  0  0  0  0  0  0  0  0  0  0
   -0.7964   10.1658   -3.5200 H   0  0  0  0  0  0  0  0  0  0  0  0
    0.5958   12.4125   -4.6068 H   0  0  0  0  0  0  0  0  0  0  0  0
   -1.0118   12.4984   -3.8917 H   0  0  0  0  0  0  0  0  0  0  0  0
    2.6841   12.8656   -1.7266 H   0  0  0  0  0  0  0  0  0  0  0  0
    2.4282   11.9774   -3.2669 H   0  0  0  0  0  0  0  0  0  0  0  0
    2.5038   13.7721   -3.2669 H   0  0  0  0  0  0  0  0  0  0  0  0
   -0.9531   14.3080   -2.2831 H   0  0  0  0  0  0  0  0  0  0  0  0
    0.4944   14.8210   -4.3518 H   0  0  0  0  0  0  0  0  0  0  0  0
   -0.3024   16.1719   -3.3875 H   0  0  0  0  0  0  0  0  0  0  0  0
    2.1716   16.6086   -4.1799 H   0  0  0  0  0  0  0  0  0  0  0  0
    2.6053   14.7174   -0.6392 H   0  0  0  0  0  0  0  0  0  0  0  0
    1.5677   17.5203    0.1118 H   0  0  0  0  0  0  0  0  0  0  0  0
    1.9600   16.1590    1.2533 H   0  0  0  0  0  0  0  0  0  0  0  0
    3.7414   17.8751    1.1964 H   0  0  0  0  0  0  0  0  0  0  0  0
    4.3007   16.2581    0.6149 H   0  0  0  0  0  0  0  0  0  0  0  0
    5.1937   17.9508   -0.8341 H   0  0  0  0  0  0  0  0  0  0  0  0
    2.4830   18.8210   -0.7880 H   0  0  0  0  0  0  0  0  0  0  0  0
    5.1613   15.4098   -0.9921 H   0  0  0  0  0  0  0  0  0  0  0  0
    4.5470   14.7483   -2.5451 H   0  0  0  0  0  0  0  0  0  0  0  0
    5.8964   15.9339   -2.5451 H   0  0  0  0  0  0  0  0  0  0  0  0
    4.7432   18.5656   -3.1392 H   0  0  0  0  0  0  0  0  0  0  0  0
    5.0290   17.0249   -4.0174 H   0  0  0  0  0  0  0  0  0  0  0  0
    3.3939   17.7687   -4.0174 H   0  0  0  0  0  0  0  0  0  0  0  0
   -0.6197   16.3028    0.5083 H   0  0  0  0  0  0  0  0  0  0  0  0
   -0.1395   17.1122   -1.0217 H   0  0  0  0  0  0  0  0  0  0  0  0
   -1.4758   15.9118   -1.0217 H   0  0  0  0  0  0  0  0  0  0  0  0
    0.9828   14.3315    1.1479 H   0  0  0  0  0  0  0  0  0  0  0  0
   -0.7211   13.9617    0.5203 H   0  0  0  0  0  0  0  0  0  0  0  0
    1.8417   12.4659   -0.0973 H   0  0  0  0  0  0  0  0  0  0  0  0
    0.3936   11.8931    0.8205 H   0  0  0  0  0  0  0  0  0  0  0  0
   -1.6859   12.0961   -0.0307 H   0  0  0  0  0  0  0  0  0  0  0  0
   -1.8638   12.9983   -1.5738 H   0  0  0  0  0  0  0  0  0  0  0  0
   -1.9031   11.2025   -1.5738 H   0  0  0  0  0  0  0  0  0  0  0  0
  1  2  1  0
  2  3  1  0
  3  4  1  0
  4  5  1  0
  5  6  1  0
  6  7  1  0
  7  8  1  0
  7  9  1  0
  2 10  1  0
 10 11  1  0
 11 12  1  0
 12 13  1  0
 13 14  1  6
 13 15  1  0
 15 16  1  0
 16 17  1  0
 17 18  2  0
 18 19  1  0
 19 20  1  0
 20 21  1  0
 21 22  1  0
 22 23  1  0
 22 24  1  0
 24 25  1  0
 24 26  1  0
 19 27  1  0
 27 28  1  1
 27 29  1  0
 29 30  1  0
 30 31  1  0
 31 32  1  1
  7  5  1  0
 31 10  1  0
 31 13  1  0
 27 15  1  0
 24 18  1  0
  1 33  1  0
  1 34  1  0
  1 35  1  0
  2 36  1  1
  3 37  1  0
  3 38  1  0
  4 39  1  0
  4 40  1  0
  5 41  1  6
  8 42  1  0
  8 43  1  0
  8 44  1  0
  9 45  1  0
  9 46  1  0
  9 47  1  0
 10 48  1  6
 11 49  1  0
 11 50  1  0
 12 51  1  0
 12 52  1  0
 14 53  1  0
 14 54  1  0
 14 55  1  0
 15 56  1  1
 16 57  1  0
 16 58  1  0
 17 59  1  0
 19 60  1  1
 20 61  1  0
 20 62  1  0
 21 63  1  0
 21 64  1  0
 22 65  1  1
 23 66  1  0
 25 67  1  0
 25 68  1  0
 25 69  1  0
 26 70  1  0
 26 71  1  0
 26 72  1  0
 28 73  1  0
 28 74  1  0
 28 75  1  0
 29 76  1  0
 29 77  1  0
 30 78  1  0
 30 79  1  0
 32 80  1  0
 32 81  1  0
 32 82  1  0
M  END
>  <meeko>  (12) 
{"is_sidechain": [false], "intermolecular_energy": 2.731, "internal_energy": -0.839}

$$$$
EPH_relaxed_0001_pdb2pqr_Repair_149_r2_0001_out
     RDKit          3D

 82 86  0  0  0  0  0  0  0  0999 V2000
   -1.1130   10.4570    1.4630 C   0  0  0  0  0  0  0  0  0  0  0  0
   -1.7410   10.1420    0.1020 C   0  0  2  0  0  0  0  0  0  0  0  0
   -2.5310    8.8180    0.1190 C   0  0  0  0  0  0  0  0  0  0  0  0
   -3.9500    8.9410   -0.4430 C   0  0  0  0  0  0  0  0  0  0  0  0
   -4.5120    7.6060   -0.8250 C   0  0  2  0  0  0  0  0  0  0  0  0
   -4.7040    7.4180   -2.2340 O   0  0  0  0  0  0  0  0  0  0  0  0
   -5.8930    7.4210   -1.4270 C   0  0  0  0  0  0  0  0  0  0  0  0
   -6.7970    8.5860   -1.6790 C   0  0  0  0  0  0  0  0  0  0  0  0
   -6.5480    6.0790   -1.3140 C   0  0  0  0  0  0  0  0  0  0  0  0
   -0.6580   10.0900   -0.9690 C   0  0  1  0  0  0  0  0  0  0  0  0
   -1.0750    9.2400   -2.1990 C   0  0  0  0  0  0  0  0  0  0  0  0
   -0.4480    9.9170   -3.4440 C   0  0  0  0  0  0  0  0  0  0  0  0
    0.5710   10.9270   -2.8670 C   0  0  1  0  0  0  0  0  0  0  0  0
    1.8370   10.0760   -2.5370 C   0  0  0  0  0  0  0  0  0  0  0  0
    0.9200   12.1520   -3.7750 C   0  0  2  0  0  0  0  0  0  0  0  0
    1.5900   11.8010   -5.1150 C   0  0  0  0  0  0  0  0  0  0  0  0
    3.0820   11.7520   -5.0890 C   0  0  0  0  0  0  0  0  0  0  0  0
    3.8640   12.2550   -4.1150 C   0  0  0  0  0  0  0  0  0  0  0  0
    3.2580   13.0380   -2.9440 C   0  0  1  0  0  0  0  0  0  0  0  0
    4.0780   14.3340   -2.7080 C   0  0  0  0  0  0  0  0  0  0  0  0
    5.5660   14.0570   -2.5170 C   0  0  0  0  0  0  0  0  0  0  0  0
    6.1450   13.3290   -3.7280 C   0  0  2  0  0  0  0  0  0  0  0  0
    6.1090   14.2090   -4.8560 O   0  0  0  0  0  0  0  0  0  0  0  0
    5.3930   12.0120   -4.0680 C   0  0  0  0  0  0  0  0  0  0  0  0
    5.6830   10.9510   -2.9780 C   0  0  0  0  0  0  0  0  0  0  0  0
    5.9850   11.4520   -5.3890 C   0  0  0  0  0  0  0  0  0  0  0  0
    1.6950   13.3120   -3.0280 C   0  0  1  0  0  0  0  0  0  0  0  0
    1.4260   14.6180   -3.8360 C   0  0  0  0  0  0  0  0  0  0  0  0
    1.1380   13.5650   -1.5770 C   0  0  0  0  0  0  0  0  0  0  0  0
    0.6990   12.3260   -0.7750 C   0  0  0  0  0  0  0  0  0  0  0  0
   -0.2250   11.4320   -1.6090 C   0  0  2  0  0  0  0  0  0  0  0  0
   -1.5170   12.2550   -1.9380 C   0  0  0  0  0  0  0  0  0  0  0  0
   -1.7864   10.1192    2.2645 H   0  0  0  0  0  0  0  0  0  0  0  0
   -0.1481    9.9362    1.5510 H   0  0  0  0  0  0  0  0  0  0  0  0
   -0.9535   11.5418    1.5510 H   0  0  0  0  0  0  0  0  0  0  0  0
   -2.4539   10.9473   -0.1287 H   0  0  0  0  0  0  0  0  0  0  0  0
   -1.9822    8.0783   -0.4824 H   0  0  0  0  0  0  0  0  0  0  0  0
   -2.6273    8.5145    1.1719 H   0  0  0  0  0  0  0  0  0  0  0  0
   -4.5980    9.3952    0.3211 H   0  0  0  0  0  0  0  0  0  0  0  0
   -3.9080    9.5668   -1.3467 H   0  0  0  0  0  0  0  0  0  0  0  0
   -4.0066    7.1235    0.0246 H   0  0  0  0  0  0  0  0  0  0  0  0
   -7.1257    9.0096   -0.7185 H   0  0  0  0  0  0  0  0  0  0  0  0
   -6.2554    9.3531   -2.2519 H   0  0  0  0  0  0  0  0  0  0  0  0
   -7.6746    8.2519   -2.2519 H   0  0  0  0  0  0  0  0  0  0  0  0
   -6.6740    5.8208   -0.2522 H   0  0  0  0  0  0  0  0  0  0  0  0
   -7.5327    6.1092   -1.8034 H   0  0  0  0  0  0  0  0  0  0  0  0
   -5.9184    5.3213   -1.8034 H   0  0  0  0  0  0  0  0  0  0  0  0
    0.1685    9.6729   -0.3749 H   0  0  0  0  0  0  0  0  0  0  0  0
   -0.6960    8.2126   -2.0954 H   0  0  0  0  0  0  0  0  0  0  0  0
   -2.1700    9.1857   -2.2885 H   0  0  0  0  0  0  0  0  0  0  0  0
    0.0582    9.1732   -4.0769 H   0  0  0  0  0  0  0  0  0  0  0  0
   -1.2031   10.4030   -4.0793 H   0  0  0  0  0  0  0  0  0  0  0  0
    1.9524    9.9984   -1.4458 H   0  0  0  0  0  0  0  0  0  0  0  0
    1.7244    9.0695   -2.9663 H   0  0  0  0  0  0  0  0  0  0  0  0
    2.7265   10.5603   -2.9663 H   0  0  0  0  0  0  0  0  0  0  0  0
   -0.0743   12.5460   -4.0323 H   0  0  0  0  0  0  0  0  0  0  0  0
    1.2230   10.8130   -5.4299 H   0  0  0  0  0  0  0  0  0  0  0  0
    1.3244   12.6118   -5.8094 H   0  0  0  0  0  0  0  0  0  0  0  0
    3.5848   11.2639   -5.9369 H   0  0  0  0  0  0  0  0  0  0  0  0
    3.3373   12.3808   -2.0655 H   0  0  0  0  0  0  0  0  0  0  0  0
    3.9510   14.9951   -3.5779 H   0  0  0  0  0  0  0  0  0  0  0  0
    3.7042   14.8029   -1.7858 H   0  0  0  0  0  0  0  0  0  0  0  0
    6.0958   15.0118   -2.3836 H   0  0  0  0  0  0  0  0  0  0  0  0
    5.6936   13.4194   -1.6298 H   0  0  0  0  0  0  0  0  0  0  0  0
    7.1781   13.0448   -3.4792 H   0  0  0  0  0  0  0  0  0  0  0  0
    6.5530   15.0350   -4.5980 H   0  0  0  0  0  0  0  0  0  0  0  0
    5.5592   11.4039   -1.9833 H   0  0  0  0  0  0  0  0  0  0  0  0
    4.9815   10.1109   -3.0882 H   0  0  0  0  0  0  0  0  0  0  0  0
    6.7143   10.5845   -3.0882 H   0  0  0  0  0  0  0  0  0  0  0  0
    6.7661   10.7131   -5.1566 H   0  0  0  0  0  0  0  0  0  0  0  0
    5.1870   10.9705   -5.9733 H   0  0  0  0  0  0  0  0  0  0  0  0
    6.4214   12.2755   -5.9733 H   0  0  0  0  0  0  0  0  0  0  0  0
    1.2543   15.4515   -3.1391 H   0  0  0  0  0  0  0  0  0  0  0  0
    2.2966   14.8431   -4.4695 H   0  0  0  0  0  0  0  0  0  0  0  0
    0.5373   14.4807   -4.4695 H   0  0  0  0  0  0  0  0  0  0  0  0
    1.9269   14.0713   -1.0015 H   0  0  0  0  0  0  0  0  0  0  0  0
    0.2205   14.1546   -1.7201 H   0  0  0  0  0  0  0  0  0  0  0  0
    1.5905   11.7507   -0.4848 H   0  0  0  0  0  0  0  0  0  0  0  0
    0.1504   12.6620    0.1173 H   0  0  0  0  0  0  0  0  0  0  0  0
   -2.0030   12.5646   -1.0010 H   0  0  0  0  0  0  0  0  0  0  0  0
   -1.2450   13.1466   -2.5220 H   0  0  0  0  0  0  0  0  0  0  0  0
   -2.2101   11.6316   -2.5220 H   0  0  0  0  0  0  0  0  0  0  0  0
  1  2  1  0
  2  3  1  0
  3  4  1  0
  4  5  1  0
  5  6  1  0
  6  7  1  0
  7  8  1  0
  7  9  1  0
  2 10  1  0
 10 11  1  0
 11 12  1  0
 12 13  1  0
 13 14  1  1
 13 15  1  0
 15 16  1  0
 16 17  1  0
 17 18  2  0
 18 19  1  0
 19 20  1  0
 20 21  1  0
 21 22  1  0
 22 23  1  0
 22 24  1  0
 24 25  1  0
 24 26  1  0
 19 27  1  0
 27 28  1  6
 27 29  1  0
 29 30  1  0
 30 31  1  0
 31 32  1  6
  7  5  1  0
 31 10  1  0
 31 13  1  0
 27 15  1  0
 24 18  1  0
  1 33  1  0
  1 34  1  0
  1 35  1  0
  2 36  1  6
  3 37  1  0
  3 38  1  0
  4 39  1  0
  4 40  1  0
  5 41  1  1
  8 42  1  0
  8 43  1  0
  8 44  1  0
  9 45  1  0
  9 46  1  0
  9 47  1  0
 10 48  1  1
 11 49  1  0
 11 50  1  0
 12 51  1  0
 12 52  1  0
 14 53  1  0
 14 54  1  0
 14 55  1  0
 15 56  1  6
 16 57  1  0
 16 58  1  0
 17 59  1  0
 19 60  1  1
 20 61  1  0
 20 62  1  0
 21 63  1  0
 21 64  1  0
 22 65  1  1
 23 66  1  0
 25 67  1  0
 25 68  1  0
 25 69  1  0
 26 70  1  0
 26 71  1  0
 26 72  1  0
 28 73  1  0
 28 74  1  0
 28 75  1  0
 29 76  1  0
 29 77  1  0
 30 78  1  0
 30 79  1  0
 32 80  1  0
 32 81  1  0
 32 82  1  0
M  END
>  <meeko>  (13) 
{"is_sidechain": [false], "intermolecular_energy": 2.731, "internal_energy": -0.839}

$$$$
EPH_relaxed_0001_pdb2pqr_Repair_149_r2_0001_out
     RDKit          3D

 82 86  0  0  0  0  0  0  0  0999 V2000
    0.2550   10.4640   -3.8690 C   0  0  0  0  0  0  0  0  0  0  0  0
    1.1820   10.2080   -2.6770 C   0  0  2  0  0  0  0  0  0  0  0  0
    0.7850    8.9410   -1.8950 C   0  0  0  0  0  0  0  0  0  0  0  0
   -0.6660    8.5080   -2.1180 C   0  0  0  0  0  0  0  0  0  0  0  0
   -1.4870    8.6580   -0.8730 C   0  0  2  0  0  0  0  0  0  0  0  0
   -2.8760    8.9320   -1.1010 O   0  0  0  0  0  0  0  0  0  0  0  0
   -2.1250    9.9660   -0.4440 C   0  0  0  0  0  0  0  0  0  0  0  0
   -1.9690   11.2140   -1.2550 C   0  0  0  0  0  0  0  0  0  0  0  0
   -2.4840   10.1480    0.9980 C   0  0  0  0  0  0  0  0  0  0  0  0
    1.1790   11.4160   -1.7480 C   0  0  1  0  0  0  0  0  0  0  0  0
    2.0290   11.1880   -0.4690 C   0  0  0  0  0  0  0  0  0  0  0  0
    2.6740   12.5520   -0.1110 C   0  0  0  0  0  0  0  0  0  0  0  0
    1.9210   13.5810   -0.9870 C   0  0  1  0  0  0  0  0  0  0  0  0
    0.5920   13.8650   -0.2180 C   0  0  0  0  0  0  0  0  0  0  0  0
    2.6900   14.9010   -1.3170 C   0  0  2  0  0  0  0  0  0  0  0  0
    3.0520   15.7690   -0.0990 C   0  0  0  0  0  0  0  0  0  0  0  0
    2.0310   16.7900    0.2820 C   0  0  0  0  0  0  0  0  0  0  0  0
    1.0070   17.1970   -0.4900 C   0  0  0  0  0  0  0  0  0  0  0  0
    0.8530   16.6880   -1.9290 C   0  0  1  0  0  0  0  0  0  0  0  0
    0.5540   17.8820   -2.8720 C   0  0  0  0  0  0  0  0  0  0  0  0
   -0.6470   18.7030   -2.4130 C   0  0  0  0  0  0  0  0  0  0  0  0
   -0.4320   19.2410   -1.0010 C   0  0  2  0  0  0  0  0  0  0  0  0
    0.6350   20.1940   -1.0280 O   0  0  0  0  0  0  0  0  0  0  0  0
   -0.1130   18.1280    0.0370 C   0  0  0  0  0  0  0  0  0  0  0  0
   -1.3790   17.2720    0.2880 C   0  0  0  0  0  0  0  0  0  0  0  0
    0.2210   18.8170    1.3880 C   0  0  0  0  0  0  0  0  0  0  0  0
    2.0310   15.7660   -2.4670 C   0  0  1  0  0  0  0  0  0  0  0  0
    3.1670   16.6490   -3.0670 C   0  0  0  0  0  0  0  0  0  0  0  0
    1.4890   14.8760   -3.6480 C   0  0  0  0  0  0  0  0  0  0  0  0
    0.8470   13.5290   -3.2650 C   0  0  0  0  0  0  0  0  0  0  0  0
    1.7480   12.7450   -2.3070 C   0  0  2  0  0  0  0  0  0  0  0  0
    3.0840   12.4250   -3.0600 C   0  0  0  0  0  0  0  0  0  0  0  0
   -0.7450   10.7401   -3.5032 H   0  0  0  0  0  0  0  0  0  0  0  0
    0.6612   11.2836   -4.4800 H   0  0  0  0  0  0  0  0  0  0  0  0
    0.1830    9.5521   -4.4800 H   0  0  0  0  0  0  0  0  0  0  0  0
    2.1952   10.0468   -3.0739 H   0  0  0  0  0  0  0  0  0  0  0  0
    1.4447    8.1186   -2.2088 H   0  0  0  0  0  0  0  0  0  0  0  0
    0.8883    9.1783   -0.8259 H   0  0  0  0  0  0  0  0  0  0  0  0
   -1.1055    9.1297   -2.9119 H   0  0  0  0  0  0  0  0  0  0  0  0
   -0.6668    7.4456   -2.4033 H   0  0  0  0  0  0  0  0  0  0  0  0
   -0.8508    7.9373   -0.3385 H   0  0  0  0  0  0  0  0  0  0  0  0
   -1.8611   12.0775   -0.5821 H   0  0  0  0  0  0  0  0  0  0  0  0
   -1.0744   11.1295   -1.8895 H   0  0  0  0  0  0  0  0  0  0  0  0
   -2.8568   11.3523   -1.8895 H   0  0  0  0  0  0  0  0  0  0  0  0
   -1.6810    9.7409    1.6300 H   0  0  0  0  0  0  0  0  0  0  0  0
   -2.6113   11.2195    1.2118 H   0  0  0  0  0  0  0  0  0  0  0  0
   -3.4235    9.6173    1.2118 H   0  0  0  0  0  0  0  0  0  0  0  0
    0.0970   11.5130   -1.5751 H   0  0  0  0  0  0  0  0  0  0  0  0
    1.3875   10.8443    0.3558 H   0  0  0  0  0  0  0  0  0  0  0  0
    2.7980   10.4198   -0.6378 H   0  0  0  0  0  0  0  0  0  0  0  0
    2.5379   12.7776    0.9570 H   0  0  0  0  0  0  0  0  0  0  0  0
    3.7585   12.5618   -0.2946 H   0  0  0  0  0  0  0  0  0  0  0  0
    0.7794   13.8250    0.8652 H   0  0  0  0  0  0  0  0  0  0  0  0
    0.2179   14.8634   -0.4887 H   0  0  0  0  0  0  0  0  0  0  0  0
   -0.1575   13.1067   -0.4887 H   0  0  0  0  0  0  0  0  0  0  0  0
    3.6459   14.5233   -1.7090 H   0  0  0  0  0  0  0  0  0  0  0  0
    3.2025   15.1010    0.7619 H   0  0  0  0  0  0  0  0  0  0  0  0
    3.9538   16.3313   -0.3829 H   0  0  0  0  0  0  0  0  0  0  0  0
    2.1240   17.2480    1.2778 H   0  0  0  0  0  0  0  0  0  0  0  0
   -0.0040   15.9985   -1.9177 H   0  0  0  0  0  0  0  0  0  0  0  0
    1.4375   18.5366   -2.9032 H   0  0  0  0  0  0  0  0  0  0  0  0
    0.3186   17.4723   -3.8653 H   0  0  0  0  0  0  0  0  0  0  0  0
   -0.7901   19.5481   -3.1024 H   0  0  0  0  0  0  0  0  0  0  0  0
   -1.5354   18.0544   -2.4102 H   0  0  0  0  0  0  0  0  0  0  0  0
   -1.3742   19.7089   -0.6794 H   0  0  0  0  0  0  0  0  0  0  0  0
    1.2190   19.9600   -1.7680 H   0  0  0  0  0  0  0  0  0  0  0  0
   -1.5395   17.1635    1.3708 H   0  0  0  0  0  0  0  0  0  0  0  0
   -2.2514   17.7663   -0.1643 H   0  0  0  0  0  0  0  0  0  0  0  0
   -1.2453   16.2782   -0.1643 H   0  0  0  0  0  0  0  0  0  0  0  0
   -0.0937   18.1678    2.2184 H   0  0  0  0  0  0  0  0  0  0  0  0
    1.3048   18.9939    1.4513 H   0  0  0  0  0  0  0  0  0  0  0  0
   -0.3115   19.7774    1.4513 H   0  0  0  0  0  0  0  0  0  0  0  0
    3.7493   17.1017   -2.2509 H   0  0  0  0  0  0  0  0  0  0  0  0
    3.8278   16.0251   -3.6867 H   0  0  0  0  0  0  0  0  0  0  0  0
    2.7254   17.4433   -3.6867 H   0  0  0  0  0  0  0  0  0  0  0  0
    0.7318   15.4640   -4.1874 H   0  0  0  0  0  0  0  0  0  0  0  0
    2.3773   14.6130   -4.2411 H   0  0  0  0  0  0  0  0  0  0  0  0
   -0.1202   13.7175   -2.7761 H   0  0  0  0  0  0  0  0  0  0  0  0
    0.7068   12.9347   -4.1799 H   0  0  0  0  0  0  0  0  0  0  0  0
    3.8815   12.2340   -2.3268 H   0  0  0  0  0  0  0  0  0  0  0  0
    2.9451   11.5347   -3.6910 H   0  0  0  0  0  0  0  0  0  0  0  0
    3.3635   13.2816   -3.6910 H   0  0  0  0  0  0  0  0  0  0  0  0
  1  2  1  0
  2  3  1  0
  3  4  1  0
  4  5  1  0
  5  6  1  0
  6  7  1  0
  7  8  1  0
  7  9  1  0
  2 10  1  0
 10 11  1  0
 11 12  1  0
 12 13  1  0
 13 14  1  1
 13 15  1  0
 15 16  1  0
 16 17  1  0
 17 18  2  0
 18 19  1  0
 19 20  1  0
 20 21  1  0
 21 22  1  0
 22 23  1  0
 22 24  1  0
 24 25  1  0
 24 26  1  0
 19 27  1  0
 27 28  1  6
 27 29  1  0
 29 30  1  0
 30 31  1  0
 31 32  1  6
  7  5  1  0
 31 10  1  0
 31 13  1  0
 27 15  1  0
 24 18  1  0
  1 33  1  0
  1 34  1  0
  1 35  1  0
  2 36  1  6
  3 37  1  0
  3 38  1  0
  4 39  1  0
  4 40  1  0
  5 41  1  1
  8 42  1  0
  8 43  1  0
  8 44  1  0
  9 45  1  0
  9 46  1  0
  9 47  1  0
 10 48  1  1
 11 49  1  0
 11 50  1  0
 12 51  1  0
 12 52  1  0
 14 53  1  0
 14 54  1  0
 14 55  1  0
 15 56  1  6
 16 57  1  0
 16 58  1  0
 17 59  1  0
 19 60  1  1
 20 61  1  0
 20 62  1  0
 21 63  1  0
 21 64  1  0
 22 65  1  1
 23 66  1  0
 25 67  1  0
 25 68  1  0
 25 69  1  0
 26 70  1  0
 26 71  1  0
 26 72  1  0
 28 73  1  0
 28 74  1  0
 28 75  1  0
 29 76  1  0
 29 77  1  0
 30 78  1  0
 30 79  1  0
 32 80  1  0
 32 81  1  0
 32 82  1  0
M  END
>  <meeko>  (14) 
{"is_sidechain": [false], "intermolecular_energy": 2.731, "internal_energy": -0.839}

$$$$
EPH_relaxed_0001_pdb2pqr_Repair_149_r2_0001_out
     RDKit          3D

 82 86  0  0  0  0  0  0  0  0999 V2000
    0.3360    8.9500   -2.4340 C   0  0  0  0  0  0  0  0  0  0  0  0
    1.1090   10.0960   -3.0920 C   0  0  2  0  0  0  0  0  0  0  0  0
    2.6060   10.0720   -2.7280 C   0  0  0  0  0  0  0  0  0  0  0  0
    3.5230   10.5420   -3.8600 C   0  0  0  0  0  0  0  0  0  0  0  0
    4.9140   10.8120   -3.3720 C   0  0  2  0  0  0  0  0  0  0  0  0
    5.5070   12.0110   -3.8880 O   0  0  0  0  0  0  0  0  0  0  0  0
    6.1380   10.7770   -4.2680 C   0  0  0  0  0  0  0  0  0  0  0  0
    6.0270   10.4620   -5.7270 C   0  0  0  0  0  0  0  0  0  0  0  0
    7.4800   10.5670   -3.6390 C   0  0  0  0  0  0  0  0  0  0  0  0
    0.4970   11.4330   -2.6910 C   0  0  1  0  0  0  0  0  0  0  0  0
   -0.7510   11.2710   -1.7820 C   0  0  0  0  0  0  0  0  0  0  0  0
   -0.7350   12.4580   -0.7850 C   0  0  0  0  0  0  0  0  0  0  0  0
    0.3180   13.4350   -1.3580 C   0  0  1  0  0  0  0  0  0  0  0  0
   -0.4320   14.2220   -2.4780 C   0  0  0  0  0  0  0  0  0  0  0  0
    0.9970   14.3990   -0.3310 C   0  0  2  0  0  0  0  0  0  0  0  0
    0.0430   15.3820    0.3700 C   0  0  0  0  0  0  0  0  0  0  0  0
   -0.1370   16.6950   -0.3180 C   0  0  0  0  0  0  0  0  0  0  0  0
    0.6520   17.1820   -1.2930 C   0  0  0  0  0  0  0  0  0  0  0  0
    1.9160   16.4320   -1.7320 C   0  0  1  0  0  0  0  0  0  0  0  0
    3.1000   17.4290   -1.8360 C   0  0  0  0  0  0  0  0  0  0  0  0
    2.7860   18.6190   -2.7370 C   0  0  0  0  0  0  0  0  0  0  0  0
    1.5570   19.3740   -2.2350 C   0  0  2  0  0  0  0  0  0  0  0  0
    1.8700   19.9800   -0.9780 O   0  0  0  0  0  0  0  0  0  0  0  0
    0.3030   18.4690   -2.0810 C   0  0  0  0  0  0  0  0  0  0  0  0
   -0.2160   18.0550   -3.4810 C   0  0  0  0  0  0  0  0  0  0  0  0
   -0.8240   19.3200   -1.4350 C   0  0  0  0  0  0  0  0  0  0  0  0
    2.2820   15.1370   -0.8870 C   0  0  1  0  0  0  0  0  0  0  0  0
    3.1380   15.5350    0.3540 C   0  0  0  0  0  0  0  0  0  0  0  0
    3.1840   14.1890   -1.7630 C   0  0  0  0  0  0  0  0  0  0  0  0
    2.4550   13.1770   -2.6680 C   0  0  0  0  0  0  0  0  0  0  0  0
    1.3880   12.4090   -1.8820 C   0  0  2  0  0  0  0  0  0  0  0  0
    2.1150   11.5900   -0.7620 C   0  0  0  0  0  0  0  0  0  0  0  0
    0.4001    9.0451   -1.3400 H   0  0  0  0  0  0  0  0  0  0  0  0
   -0.7184    8.9930   -2.7446 H   0  0  0  0  0  0  0  0  0  0  0  0
    0.7708    7.9885   -2.7446 H   0  0  0  0  0  0  0  0  0  0  0  0
    1.0327    9.9634   -4.1813 H   0  0  0  0  0  0  0  0  0  0  0  0
    2.7626   10.7284   -1.8593 H   0  0  0  0  0  0  0  0  0  0  0  0
    2.8682    9.0249   -2.5162 H   0  0  0  0  0  0  0  0  0  0  0  0
    3.5622    9.7615   -4.6341 H   0  0  0  0  0  0  0  0  0  0  0  0
    3.1142   11.4794   -4.2650 H   0  0  0  0  0  0  0  0  0  0  0  0
    4.6930   10.3331   -2.4067 H   0  0  0  0  0  0  0  0  0  0  0  0
    5.6638    9.4314   -5.8530 H   0  0  0  0  0  0  0  0  0  0  0  0
    5.3207   11.1601   -6.2001 H   0  0  0  0  0  0  0  0  0  0  0  0
    7.0149   10.5631   -6.2001 H   0  0  0  0  0  0  0  0  0  0  0  0
    7.3782   10.5829   -2.5438 H   0  0  0  0  0  0  0  0  0  0  0  0
    7.8851    9.5945   -3.9555 H   0  0  0  0  0  0  0  0  0  0  0  0
    8.1629   11.3692   -3.9555 H   0  0  0  0  0  0  0  0  0  0  0  0
    0.2930   11.8485   -3.6888 H   0  0  0  0  0  0  0  0  0  0  0  0
   -1.6679   11.2985   -2.3890 H   0  0  0  0  0  0  0  0  0  0  0  0
   -0.7302   10.3082   -1.2503 H   0  0  0  0  0  0  0  0  0  0  0  0
   -1.7238   12.9376   -0.7364 H   0  0  0  0  0  0  0  0  0  0  0  0
   -0.4937   12.1388    0.2396 H   0  0  0  0  0  0  0  0  0  0  0  0
   -1.1216   14.9456   -2.0188 H   0  0  0  0  0  0  0  0  0  0  0  0
    0.2987   14.7571   -3.1023 H   0  0  0  0  0  0  0  0  0  0  0  0
   -1.0017   13.5179   -3.1023 H   0  0  0  0  0  0  0  0  0  0  0  0
    1.3403   13.7067    0.4518 H   0  0  0  0  0  0  0  0  0  0  0  0
   -0.9432   14.9012    0.4485 H   0  0  0  0  0  0  0  0  0  0  0  0
    0.5009   15.6087    1.3441 H   0  0  0  0  0  0  0  0  0  0  0  0
   -0.9870   17.3170   -0.0007 H   0  0  0  0  0  0  0  0  0  0  0  0
    1.6920   16.0136   -2.7243 H   0  0  0  0  0  0  0  0  0  0  0  0
    3.3360   17.8023   -0.8285 H   0  0  0  0  0  0  0  0  0  0  0  0
    3.9513   16.8910   -2.2785 H   0  0  0  0  0  0  0  0  0  0  0  0
    3.6488   19.3013   -2.7461 H   0  0  0  0  0  0  0  0  0  0  0  0
    2.5795   18.2467   -3.7513 H   0  0  0  0  0  0  0  0  0  0  0  0
    1.3050   20.1332   -2.9900 H   0  0  0  0  0  0  0  0  0  0  0  0
    1.0320   20.2440   -0.5610 H   0  0  0  0  0  0  0  0  0  0  0  0
   -1.0714   17.3727   -3.3679 H   0  0  0  0  0  0  0  0  0  0  0  0
   -0.5326   18.9513   -4.0345 H   0  0  0  0  0  0  0  0  0  0  0  0
    0.5875   17.5471   -4.0345 H   0  0  0  0  0  0  0  0  0  0  0  0
   -0.7458   19.2610   -0.3394 H   0  0  0  0  0  0  0  0  0  0  0  0
   -0.7210   20.3677   -1.7540 H   0  0  0  0  0  0  0  0  0  0  0  0
   -1.8035   18.9342   -1.7540 H   0  0  0  0  0  0  0  0  0  0  0  0
    2.5908   15.2806    1.2737 H   0  0  0  0  0  0  0  0  0  0  0  0
    4.0922   14.9882    0.3319 H   0  0  0  0  0  0  0  0  0  0  0  0
    3.3349   16.6170    0.3319 H   0  0  0  0  0  0  0  0  0  0  0  0
    3.8061   14.8255   -2.4094 H   0  0  0  0  0  0  0  0  0  0  0  0
    3.7447   13.5774   -1.0409 H   0  0  0  0  0  0  0  0  0  0  0  0
    1.9730   13.7169   -3.4963 H   0  0  0  0  0  0  0  0  0  0  0  0
    3.1918   12.4576   -3.0548 H   0  0  0  0  0  0  0  0  0  0  0  0
    1.7929   11.9528    0.2252 H   0  0  0  0  0  0  0  0  0  0  0  0
    1.8596   10.5248   -0.8624 H   0  0  0  0  0  0  0  0  0  0  0  0
    3.2030   11.7172   -0.8624 H   0  0  0  0  0  0  0  0  0  0  0  0
  1  2  1  0
  2  3  1  0
  3  4  1  0
  4  5  1  0
  5  6  1  0
  6  7  1  0
  7  8  1  0
  7  9  1  0
  2 10  1  0
 10 11  1  0
 11 12  1  0
 12 13  1  0
 13 14  1  6
 13 15  1  0
 15 16  1  0
 16 17  1  0
 17 18  2  0
 18 19  1  0
 19 20  1  0
 20 21  1  0
 21 22  1  0
 22 23  1  0
 22 24  1  0
 24 25  1  0
 24 26  1  0
 19 27  1  0
 27 28  1  1
 27 29  1  0
 29 30  1  0
 30 31  1  0
 31 32  1  1
  7  5  1  0
 31 10  1  0
 31 13  1  0
 27 15  1  0
 24 18  1  0
  1 33  1  0
  1 34  1  0
  1 35  1  0
  2 36  1  6
  3 37  1  0
  3 38  1  0
  4 39  1  0
  4 40  1  0
  5 41  1  1
  8 42  1  0
  8 43  1  0
  8 44  1  0
  9 45  1  0
  9 46  1  0
  9 47  1  0
 10 48  1  6
 11 49  1  0
 11 50  1  0
 12 51  1  0
 12 52  1  0
 14 53  1  0
 14 54  1  0
 14 55  1  0
 15 56  1  1
 16 57  1  0
 16 58  1  0
 17 59  1  0
 19 60  1  6
 20 61  1  0
 20 62  1  0
 21 63  1  0
 21 64  1  0
 22 65  1  6
 23 66  1  0
 25 67  1  0
 25 68  1  0
 25 69  1  0
 26 70  1  0
 26 71  1  0
 26 72  1  0
 28 73  1  0
 28 74  1  0
 28 75  1  0
 29 76  1  0
 29 77  1  0
 30 78  1  0
 30 79  1  0
 32 80  1  0
 32 81  1  0
 32 82  1  0
M  END
>  <meeko>  (15) 
{"is_sidechain": [false], "intermolecular_energy": 2.731, "internal_energy": -0.839}

$$$$
EPH_relaxed_0001_pdb2pqr_Repair_149_r2_0001_out
     RDKit          3D

 82 86  0  0  0  0  0  0  0  0999 V2000
   -4.9460    6.0350   -2.0900 C   0  0  0  0  0  0  0  0  0  0  0  0
   -5.3680    7.5000   -1.9500 C   0  0  2  0  0  0  0  0  0  0  0  0
   -5.1800    8.0240   -0.5130 C   0  0  0  0  0  0  0  0  0  0  0  0
   -4.1330    9.1360   -0.3950 C   0  0  0  0  0  0  0  0  0  0  0  0
   -2.7750    8.6650   -0.8190 C   0  0  2  0  0  0  0  0  0  0  0  0
   -1.7210    8.9650    0.1060 O   0  0  0  0  0  0  0  0  0  0  0  0
   -1.6380    9.6040   -1.1780 C   0  0  0  0  0  0  0  0  0  0  0  0
   -1.8090   11.0900   -1.1310 C   0  0  0  0  0  0  0  0  0  0  0  0
   -0.5270    9.0860   -2.0380 C   0  0  0  0  0  0  0  0  0  0  0  0
   -6.8220    7.6650   -2.3790 C   0  0  1  0  0  0  0  0  0  0  0  0
   -7.1390    6.9320   -3.7090 C   0  0  0  0  0  0  0  0  0  0  0  0
   -8.5930    6.4070   -3.5950 C   0  0  0  0  0  0  0  0  0  0  0  0
   -9.1730    7.1310   -2.3570 C   0  0  1  0  0  0  0  0  0  0  0  0
   -9.5900    8.5420   -2.8770 C   0  0  0  0  0  0  0  0  0  0  0  0
  -10.3540    6.4130   -1.6270 C   0  0  2  0  0  0  0  0  0  0  0  0
  -11.6260    6.2240   -2.4720 C   0  0  0  0  0  0  0  0  0  0  0  0
  -12.6190    7.3360   -2.3860 C   0  0  0  0  0  0  0  0  0  0  0  0
  -12.6320    8.3020   -1.4500 C   0  0  0  0  0  0  0  0  0  0  0  0
  -11.6340    8.2840   -0.2850 C   0  0  1  0  0  0  0  0  0  0  0  0
  -12.3840    8.5610    1.0440 C   0  0  0  0  0  0  0  0  0  0  0  0
  -13.2030    9.8480    0.9970 C   0  0  0  0  0  0  0  0  0  0  0  0
  -14.2230    9.8040   -0.1370 C   0  0  2  0  0  0  0  0  0  0  0  0
  -15.1970    8.7980    0.1570 O   0  0  0  0  0  0  0  0  0  0  0  0
  -13.5840    9.5210   -1.5260 C   0  0  0  0  0  0  0  0  0  0  0  0
  -12.7620   10.7530   -1.9800 C   0  0  0  0  0  0  0  0  0  0  0  0
  -14.7340    9.3620   -2.5570 C   0  0  0  0  0  0  0  0  0  0  0  0
  -10.6920    7.0070   -0.2000 C   0  0  1  0  0  0  0  0  0  0  0  0
  -11.4040    5.8730    0.5990 C   0  0  0  0  0  0  0  0  0  0  0  0
   -9.3970    7.3780    0.6150 C   0  0  0  0  0  0  0  0  0  0  0  0
   -8.2200    7.9730   -0.1820 C   0  0  0  0  0  0  0  0  0  0  0  0
   -7.9110    7.1250   -1.4190 C   0  0  2  0  0  0  0  0  0  0  0  0
   -7.4680    5.7050   -0.9270 C   0  0  0  0  0  0  0  0  0  0  0  0
   -4.8187    5.5930   -1.0908 H   0  0  0  0  0  0  0  0  0  0  0  0
   -5.7211    5.4811   -2.6399 H   0  0  0  0  0  0  0  0  0  0  0  0
   -3.9950    5.9783   -2.6399 H   0  0  0  0  0  0  0  0  0  0  0  0
   -4.7166    8.0961   -2.6059 H   0  0  0  0  0  0  0  0  0  0  0  0
   -6.1443    8.4158   -0.1573 H   0  0  0  0  0  0  0  0  0  0  0  0
   -4.8211    7.1790    0.0929 H   0  0  0  0  0  0  0  0  0  0  0  0
   -4.4341    9.9786   -1.0348 H   0  0  0  0  0  0  0  0  0  0  0  0
   -4.0759    9.4431    0.6597 H   0  0  0  0  0  0  0  0  0  0  0  0
   -3.2120    7.8014   -1.3418 H   0  0  0  0  0  0  0  0  0  0  0  0
   -1.8472   11.4217   -0.0829 H   0  0  0  0  0  0  0  0  0  0  0  0
   -0.9605   11.5729   -1.6378 H   0  0  0  0  0  0  0  0  0  0  0  0
   -2.7450   11.3676   -1.6378 H   0  0  0  0  0  0  0  0  0  0  0  0
    0.2849    8.7075   -1.3996 H   0  0  0  0  0  0  0  0  0  0  0  0
   -0.9044    8.2710   -2.6731 H   0  0  0  0  0  0  0  0  0  0  0  0
   -0.1453    9.8990   -2.6731 H   0  0  0  0  0  0  0  0  0  0  0  0
   -6.8764    8.7624   -2.4307 H   0  0  0  0  0  0  0  0  0  0  0  0
   -7.0533    7.6292   -4.5555 H   0  0  0  0  0  0  0  0  0  0  0  0
   -6.4335    6.1061   -3.8826 H   0  0  0  0  0  0  0  0  0  0  0  0
   -9.1689    6.6592   -4.4976 H   0  0  0  0  0  0  0  0  0  0  0  0
   -8.6348    5.3123   -3.4958 H   0  0  0  0  0  0  0  0  0  0  0  0
   -9.7859    9.2049   -2.0214 H   0  0  0  0  0  0  0  0  0  0  0  0
   -8.7777    8.9624   -3.4881 H   0  0  0  0  0  0  0  0  0  0  0  0
  -10.5003    8.4533   -3.4881 H   0  0  0  0  0  0  0  0  0  0  0  0
   -9.9500    5.4028   -1.4648 H   0  0  0  0  0  0  0  0  0  0  0  0
  -11.3228    6.1194   -3.5242 H   0  0  0  0  0  0  0  0  0  0  0  0
  -12.1302    5.3334   -2.0687 H   0  0  0  0  0  0  0  0  0  0  0  0
  -13.4067    7.3679   -3.1532 H   0  0  0  0  0  0  0  0  0  0  0  0
  -10.9181    9.0950   -0.4847 H   0  0  0  0  0  0  0  0  0  0  0  0
  -13.0618    7.7191    1.2484 H   0  0  0  0  0  0  0  0  0  0  0  0
  -11.6290    8.6746    1.8359 H   0  0  0  0  0  0  0  0  0  0  0  0
  -13.7326    9.9728    1.9530 H   0  0  0  0  0  0  0  0  0  0  0  0
  -12.5202   10.6926    0.8226 H   0  0  0  0  0  0  0  0  0  0  0  0
  -14.6865   10.7995   -0.2014 H   0  0  0  0  0  0  0  0  0  0  0  0
  -16.0140    9.2500    0.4310 H   0  0  0  0  0  0  0  0  0  0  0  0
  -12.3987   11.2975   -1.0959 H   0  0  0  0  0  0  0  0  0  0  0  0
  -11.9047   10.4197   -2.5832 H   0  0  0  0  0  0  0  0  0  0  0  0
  -13.3989   11.4167   -2.5832 H   0  0  0  0  0  0  0  0  0  0  0  0
  -15.6877    9.2301   -2.0250 H   0  0  0  0  0  0  0  0  0  0  0  0
  -14.7875   10.2613   -3.1882 H   0  0  0  0  0  0  0  0  0  0  0  0
  -14.5415    8.4819   -3.1882 H   0  0  0  0  0  0  0  0  0  0  0  0
  -11.2888    6.0564    1.6775 H   0  0  0  0  0  0  0  0  0  0  0  0
  -12.4734    5.8589    0.3416 H   0  0  0  0  0  0  0  0  0  0  0  0
  -10.9521    4.9037    0.3416 H   0  0  0  0  0  0  0  0  0  0  0  0
   -9.6853    8.1129    1.3810 H   0  0  0  0  0  0  0  0  0  0  0  0
   -9.0225    6.4222    1.0102 H   0  0  0  0  0  0  0  0  0  0  0  0
   -8.4806    8.9930   -0.5009 H   0  0  0  0  0  0  0  0  0  0  0  0
   -7.3302    7.9871    0.4646 H   0  0  0  0  0  0  0  0  0  0  0  0
   -7.4613    5.6836    0.1728 H   0  0  0  0  0  0  0  0  0  0  0  0
   -8.1732    4.9497   -1.3042 H   0  0  0  0  0  0  0  0  0  0  0  0
   -6.4584    5.4847   -1.3042 H   0  0  0  0  0  0  0  0  0  0  0  0
  1  2  1  0
  2  3  1  0
  3  4  1  0
  4  5  1  0
  5  6  1  0
  6  7  1  0
  7  8  1  0
  7  9  1  0
  2 10  1  0
 10 11  1  0
 11 12  1  0
 12 13  1  0
 13 14  1  6
 13 15  1  0
 15 16  1  0
 16 17  1  0
 17 18  2  0
 18 19  1  0
 19 20  1  0
 20 21  1  0
 21 22  1  0
 22 23  1  0
 22 24  1  0
 24 25  1  0
 24 26  1  0
 19 27  1  0
 27 28  1  1
 27 29  1  0
 29 30  1  0
 30 31  1  0
 31 32  1  1
  7  5  1  0
 31 10  1  0
 31 13  1  0
 27 15  1  0
 24 18  1  0
  1 33  1  0
  1 34  1  0
  1 35  1  0
  2 36  1  6
  3 37  1  0
  3 38  1  0
  4 39  1  0
  4 40  1  0
  5 41  1  6
  8 42  1  0
  8 43  1  0
  8 44  1  0
  9 45  1  0
  9 46  1  0
  9 47  1  0
 10 48  1  6
 11 49  1  0
 11 50  1  0
 12 51  1  0
 12 52  1  0
 14 53  1  0
 14 54  1  0
 14 55  1  0
 15 56  1  1
 16 57  1  0
 16 58  1  0
 17 59  1  0
 19 60  1  6
 20 61  1  0
 20 62  1  0
 21 63  1  0
 21 64  1  0
 22 65  1  6
 23 66  1  0
 25 67  1  0
 25 68  1  0
 25 69  1  0
 26 70  1  0
 26 71  1  0
 26 72  1  0
 28 73  1  0
 28 74  1  0
 28 75  1  0
 29 76  1  0
 29 77  1  0
 30 78  1  0
 30 79  1  0
 32 80  1  0
 32 81  1  0
 32 82  1  0
M  END
>  <meeko>  (16) 
{"is_sidechain": [false], "intermolecular_energy": 2.731, "internal_energy": -0.839}

$$$$
EPH_relaxed_0001_pdb2pqr_Repair_149_r2_0001_out
     RDKit          3D

 82 86  0  0  0  0  0  0  0  0999 V2000
    0.0580   17.8950   -2.3620 C   0  0  0  0  0  0  0  0  0  0  0  0
    0.0360   17.0410   -1.0910 C   0  0  2  0  0  0  0  0  0  0  0  0
    0.1200   17.9000    0.1870 C   0  0  0  0  0  0  0  0  0  0  0  0
    0.9080   19.2000    0.0040 C   0  0  0  0  0  0  0  0  0  0  0  0
    2.0300   19.3110    0.9920 C   0  0  2  0  0  0  0  0  0  0  0  0
    3.0880   20.1940    0.5980 O   0  0  0  0  0  0  0  0  0  0  0  0
    3.4350   18.8060    0.7220 C   0  0  0  0  0  0  0  0  0  0  0  0
    3.7930   18.1500   -0.5750 C   0  0  0  0  0  0  0  0  0  0  0  0
    4.3240   18.5080    1.8890 C   0  0  0  0  0  0  0  0  0  0  0  0
    1.1820   16.0370   -1.1200 C   0  0  1  0  0  0  0  0  0  0  0  0
    1.6990   15.6780    0.2980 C   0  0  0  0  0  0  0  0  0  0  0  0
    2.1160   14.1860    0.2590 C   0  0  0  0  0  0  0  0  0  0  0  0
    2.1400   13.8270   -1.2450 C   0  0  1  0  0  0  0  0  0  0  0  0
    3.5150   14.3550   -1.7610 C   0  0  0  0  0  0  0  0  0  0  0  0
    1.9310   12.3190   -1.5990 C   0  0  2  0  0  0  0  0  0  0  0  0
    3.0110   11.3660   -1.0590 C   0  0  0  0  0  0  0  0  0  0  0  0
    4.1680   11.1300   -1.9720 C   0  0  0  0  0  0  0  0  0  0  0  0
    4.2030   11.4300   -3.2830 C   0  0  0  0  0  0  0  0  0  0  0  0
    2.9630   11.9790   -3.9990 C   0  0  1  0  0  0  0  0  0  0  0  0
    2.7600   11.2220   -5.3380 C   0  0  0  0  0  0  0  0  0  0  0  0
    4.0040   11.2510   -6.2210 C   0  0  0  0  0  0  0  0  0  0  0  0
    5.2020   10.6440   -5.4960 C   0  0  2  0  0  0  0  0  0  0  0  0
    4.9630    9.2470   -5.3000 O   0  0  0  0  0  0  0  0  0  0  0  0
    5.4970   11.3200   -4.1280 C   0  0  0  0  0  0  0  0  0  0  0  0
    6.0470   12.7490   -4.3610 C   0  0  0  0  0  0  0  0  0  0  0  0
    6.6370   10.5230   -3.4370 C   0  0  0  0  0  0  0  0  0  0  0  0
    1.6340   12.0470   -3.1300 C   0  0  1  0  0  0  0  0  0  0  0  0
    0.8800   10.6850   -3.2030 C   0  0  0  0  0  0  0  0  0  0  0  0
    0.6670   13.1240   -3.7520 C   0  0  0  0  0  0  0  0  0  0  0  0
    0.8450   14.5770   -3.2730 C   0  0  0  0  0  0  0  0  0  0  0  0
    0.8950   14.6480   -1.7430 C   0  0  2  0  0  0  0  0  0  0  0  0
   -0.4840   14.1440   -1.1960 C   0  0  0  0  0  0  0  0  0  0  0  0
    0.0854   18.9599   -2.0878 H   0  0  0  0  0  0  0  0  0  0  0  0
    0.9500   17.6461   -2.9556 H   0  0  0  0  0  0  0  0  0  0  0  0
   -0.8457   17.6924   -2.9556 H   0  0  0  0  0  0  0  0  0  0  0  0
   -0.9255   16.5071   -1.0673 H   0  0  0  0  0  0  0  0  0  0  0  0
   -0.9026   18.1551    0.5018 H   0  0  0  0  0  0  0  0  0  0  0  0
    0.6546   17.3034    0.9408 H   0  0  0  0  0  0  0  0  0  0  0  0
    1.3251   19.2240   -1.0136 H   0  0  0  0  0  0  0  0  0  0  0  0
    0.2214   20.0436    0.1681 H   0  0  0  0  0  0  0  0  0  0  0  0
    1.3379   19.1529    1.8323 H   0  0  0  0  0  0  0  0  0  0  0  0
    4.3112   17.2005   -0.3749 H   0  0  0  0  0  0  0  0  0  0  0  0
    2.8771   17.9535   -1.1516 H   0  0  0  0  0  0  0  0  0  0  0  0
    4.4538   18.8139   -1.1516 H   0  0  0  0  0  0  0  0  0  0  0  0
    3.7752   18.6920    2.8244 H   0  0  0  0  0  0  0  0  0  0  0  0
    4.6396   17.4550    1.8501 H   0  0  0  0  0  0  0  0  0  0  0  0
    5.2105   19.1581    1.8501 H   0  0  0  0  0  0  0  0  0  0  0  0
    1.8957   16.5913   -1.7472 H   0  0  0  0  0  0  0  0  0  0  0  0
    2.5643   16.3063    0.5557 H   0  0  0  0  0  0  0  0  0  0  0  0
    0.9214   15.8504    1.0566 H   0  0  0  0  0  0  0  0  0  0  0  0
    3.1113   14.0491    0.7069 H   0  0  0  0  0  0  0  0  0  0  0  0
    1.4278   13.5454    0.8299 H   0  0  0  0  0  0  0  0  0  0  0  0
    4.1581   14.6020   -0.9035 H   0  0  0  0  0  0  0  0  0  0  0  0
    4.0000   13.5791   -2.3716 H   0  0  0  0  0  0  0  0  0  0  0  0
    3.3560   15.2560   -2.3716 H   0  0  0  0  0  0  0  0  0  0  0  0
    1.0120   12.0731   -1.0467 H   0  0  0  0  0  0  0  0  0  0  0  0
    3.3993   11.7891   -0.1208 H   0  0  0  0  0  0  0  0  0  0  0  0
    2.5196   10.3901   -0.9323 H   0  0  0  0  0  0  0  0  0  0  0  0
    5.0681   10.6721   -1.5361 H   0  0  0  0  0  0  0  0  0  0  0  0
    3.1724   13.0404   -4.1981 H   0  0  0  0  0  0  0  0  0  0  0  0
    2.5094   10.1741   -5.1162 H   0  0  0  0  0  0  0  0  0  0  0  0
    1.9496   11.7248   -5.8862 H   0  0  0  0  0  0  0  0  0  0  0  0
    3.8083   10.6751   -7.1376 H   0  0  0  0  0  0  0  0  0  0  0  0
    4.2358   12.2979   -6.4665 H   0  0  0  0  0  0  0  0  0  0  0  0
    6.0880   10.8110   -6.1262 H   0  0  0  0  0  0  0  0  0  0  0  0
    5.3370    8.7750   -6.0630 H   0  0  0  0  0  0  0  0  0  0  0  0
    6.2332   13.2329   -3.3909 H   0  0  0  0  0  0  0  0  0  0  0  0
    6.9874   12.6919   -4.9288 H   0  0  0  0  0  0  0  0  0  0  0  0
    5.3110   13.3371   -4.9288 H   0  0  0  0  0  0  0  0  0  0  0  0
    6.5280   10.5992   -2.3451 H   0  0  0  0  0  0  0  0  0  0  0  0
    6.5806    9.4666   -3.7383 H   0  0  0  0  0  0  0  0  0  0  0  0
    7.6098   10.9387   -3.7383 H   0  0  0  0  0  0  0  0  0  0  0  0
    0.6791   10.3221   -2.1842 H   0  0  0  0  0  0  0  0  0  0  0  0
   -0.0714   10.8208   -3.7382 H   0  0  0  0  0  0  0  0  0  0  0  0
    1.5001    9.9508   -3.7382 H   0  0  0  0  0  0  0  0  0  0  0  0
    0.8137   13.1127   -4.8421 H   0  0  0  0  0  0  0  0  0  0  0  0
   -0.3401   12.8327   -3.4190 H   0  0  0  0  0  0  0  0  0  0  0  0
    1.7836   14.9785   -3.6827 H   0  0  0  0  0  0  0  0  0  0  0  0
   -0.0129   15.1695   -3.6237 H   0  0  0  0  0  0  0  0  0  0  0  0
   -0.4666   14.1503   -0.0962 H   0  0  0  0  0  0  0  0  0  0  0  0
   -1.2851   14.8075   -1.5539 H   0  0  0  0  0  0  0  0  0  0  0  0
   -0.6684   13.1203   -1.5539 H   0  0  0  0  0  0  0  0  0  0  0  0
  1  2  1  0
  2  3  1  0
  3  4  1  0
  4  5  1  0
  5  6  1  0
  6  7  1  0
  7  8  1  0
  7  9  1  0
  2 10  1  0
 10 11  1  0
 11 12  1  0
 12 13  1  0
 13 14  1  6
 13 15  1  0
 15 16  1  0
 16 17  1  0
 17 18  2  0
 18 19  1  0
 19 20  1  0
 20 21  1  0
 21 22  1  0
 22 23  1  0
 22 24  1  0
 24 25  1  0
 24 26  1  0
 19 27  1  0
 27 28  1  1
 27 29  1  0
 29 30  1  0
 30 31  1  0
 31 32  1  1
  7  5  1  0
 31 10  1  0
 31 13  1  0
 27 15  1  0
 24 18  1  0
  1 33  1  0
  1 34  1  0
  1 35  1  0
  2 36  1  1
  3 37  1  0
  3 38  1  0
  4 39  1  0
  4 40  1  0
  5 41  1  1
  8 42  1  0
  8 43  1  0
  8 44  1  0
  9 45  1  0
  9 46  1  0
  9 47  1  0
 10 48  1  6
 11 49  1  0
 11 50  1  0
 12 51  1  0
 12 52  1  0
 14 53  1  0
 14 54  1  0
 14 55  1  0
 15 56  1  1
 16 57  1  0
 16 58  1  0
 17 59  1  0
 19 60  1  6
 20 61  1  0
 20 62  1  0
 21 63  1  0
 21 64  1  0
 22 65  1  6
 23 66  1  0
 25 67  1  0
 25 68  1  0
 25 69  1  0
 26 70  1  0
 26 71  1  0
 26 72  1  0
 28 73  1  0
 28 74  1  0
 28 75  1  0
 29 76  1  0
 29 77  1  0
 30 78  1  0
 30 79  1  0
 32 80  1  0
 32 81  1  0
 32 82  1  0
M  END
>  <meeko>  (17) 
{"is_sidechain": [false], "intermolecular_energy": 2.731, "internal_energy": -0.839}

$$$$
EPH_relaxed_0001_pdb2pqr_Repair_149_r2_0001_out
     RDKit          3D

 82 86  0  0  0  0  0  0  0  0999 V2000
    3.8240   17.9450   -3.4210 C   0  0  0  0  0  0  0  0  0  0  0  0
    2.6940   17.7600   -2.4050 C   0  0  2  0  0  0  0  0  0  0  0  0
    2.7150   18.8440   -1.3090 C   0  0  0  0  0  0  0  0  0  0  0  0
    1.6910   19.9610   -1.5280 C   0  0  0  0  0  0  0  0  0  0  0  0
    0.6040   19.9260   -0.4970 C   0  0  2  0  0  0  0  0  0  0  0  0
   -0.0420   18.6550   -0.3510 O   0  0  0  0  0  0  0  0  0  0  0  0
   -0.8620   19.7310   -0.8340 C   0  0  0  0  0  0  0  0  0  0  0  0
   -1.3220   19.5580   -2.2480 C   0  0  0  0  0  0  0  0  0  0  0  0
   -1.8910   20.1940    0.1500 C   0  0  0  0  0  0  0  0  0  0  0  0
    2.7870   16.3770   -1.7710 C   0  0  1  0  0  0  0  0  0  0  0  0
    3.3970   16.4130   -0.3440 C   0  0  0  0  0  0  0  0  0  0  0  0
    2.6800   15.3110    0.4770 C   0  0  0  0  0  0  0  0  0  0  0  0
    1.9290   14.4650   -0.5780 C   0  0  1  0  0  0  0  0  0  0  0  0
    3.0100   13.5020   -1.1630 C   0  0  0  0  0  0  0  0  0  0  0  0
    0.6740   13.6830   -0.0700 C   0  0  2  0  0  0  0  0  0  0  0  0
    0.9580   12.6190    1.0040 C   0  0  0  0  0  0  0  0  0  0  0  0
    1.2510   11.2510    0.4830 C   0  0  0  0  0  0  0  0  0  0  0  0
    1.0080   10.8210   -0.7690 C   0  0  0  0  0  0  0  0  0  0  0  0
    0.2900   11.7200   -1.7840 C   0  0  1  0  0  0  0  0  0  0  0  0
   -0.8150   10.9050   -2.5060 C   0  0  0  0  0  0  0  0  0  0  0  0
   -0.2800    9.6230   -3.1370 C   0  0  0  0  0  0  0  0  0  0  0  0
    0.3760    8.7300   -2.0870 C   0  0  2  0  0  0  0  0  0  0  0  0
   -0.6330    8.2630   -1.1850 O   0  0  0  0  0  0  0  0  0  0  0  0
    1.4990    9.4470   -1.2880 C   0  0  0  0  0  0  0  0  0  0  0  0
    2.7220    9.6840   -2.2080 C   0  0  0  0  0  0  0  0  0  0  0  0
    1.9790    8.4840   -0.1690 C   0  0  0  0  0  0  0  0  0  0  0  0
   -0.2430   13.1090   -1.2260 C   0  0  1  0  0  0  0  0  0  0  0  0
   -1.6660   12.9270   -0.6160 C   0  0  0  0  0  0  0  0  0  0  0  0
   -0.3990   14.1190   -2.4230 C   0  0  0  0  0  0  0  0  0  0  0  0
    0.8440   14.9480   -2.8000 C   0  0  0  0  0  0  0  0  0  0  0  0
    1.4630   15.6010   -1.5600 C   0  0  2  0  0  0  0  0  0  0  0  0
    0.4070   16.5920   -0.9620 C   0  0  0  0  0  0  0  0  0  0  0  0
    4.7739   18.1005   -2.8886 H   0  0  0  0  0  0  0  0  0  0  0  0
    3.9001   17.0474   -4.0522 H   0  0  0  0  0  0  0  0  0  0  0  0
    3.6099   18.8201   -4.0522 H   0  0  0  0  0  0  0  0  0  0  0  0
    1.7420   17.8576   -2.9475 H   0  0  0  0  0  0  0  0  0  0  0  0
    2.5039   18.3641   -0.3420 H   0  0  0  0  0  0  0  0  0  0  0  0
    3.7107   19.3107   -1.3377 H   0  0  0  0  0  0  0  0  0  0  0  0
    2.2049   20.9319   -1.4714 H   0  0  0  0  0  0  0  0  0  0  0  0
    1.2310   19.8156   -2.5166 H   0  0  0  0  0  0  0  0  0  0  0  0
    1.1272   20.6761    0.1142 H   0  0  0  0  0  0  0  0  0  0  0  0
   -2.3516   19.1708   -2.2539 H   0  0  0  0  0  0  0  0  0  0  0  0
   -1.2924   20.5287   -2.7646 H   0  0  0  0  0  0  0  0  0  0  0  0
   -0.6601   18.8474   -2.7646 H   0  0  0  0  0  0  0  0  0  0  0  0
   -1.5214   20.0277    1.1726 H   0  0  0  0  0  0  0  0  0  0  0  0
   -2.0853   21.2663    0.0002 H   0  0  0  0  0  0  0  0  0  0  0  0
   -2.8223   19.6282    0.0002 H   0  0  0  0  0  0  0  0  0  0  0  0
    3.4046   15.8694   -2.5266 H   0  0  0  0  0  0  0  0  0  0  0  0
    4.4771   16.2097   -0.3886 H   0  0  0  0  0  0  0  0  0  0  0  0
    3.2610   17.4016    0.1187 H   0  0  0  0  0  0  0  0  0  0  0  0
    3.4108   14.6943    1.0207 H   0  0  0  0  0  0  0  0  0  0  0  0
    2.0021   15.7301    1.2352 H   0  0  0  0  0  0  0  0  0  0  0  0
    3.5540   13.0174   -0.3388 H   0  0  0  0  0  0  0  0  0  0  0  0
    2.5214   12.7345   -1.7812 H   0  0  0  0  0  0  0  0  0  0  0  0
    3.7162   14.0757   -1.7812 H   0  0  0  0  0  0  0  0  0  0  0  0
    0.0949   14.4693    0.4364 H   0  0  0  0  0  0  0  0  0  0  0  0
    1.8261   12.9522    1.5917 H   0  0  0  0  0  0  0  0  0  0  0  0
    0.0348   12.5287    1.5953 H   0  0  0  0  0  0  0  0  0  0  0  0
    1.7043   10.5330    1.1822 H   0  0  0  0  0  0  0  0  0  0  0  0
    1.0567   12.0336   -2.5078 H   0  0  0  0  0  0  0  0  0  0  0  0
   -1.5923   10.6399   -1.7742 H   0  0  0  0  0  0  0  0  0  0  0  0
   -1.2171   11.5323   -3.3152 H   0  0  0  0  0  0  0  0  0  0  0  0
   -1.1129    9.0771   -3.6042 H   0  0  0  0  0  0  0  0  0  0  0  0
    0.4751    9.8914   -3.8905 H   0  0  0  0  0  0  0  0  0  0  0  0
    0.8542    7.8932   -2.6173 H   0  0  0  0  0  0  0  0  0  0  0  0
   -0.1830    7.8990   -0.4040 H   0  0  0  0  0  0  0  0  0  0  0  0
    3.6164    9.8573   -1.5916 H   0  0  0  0  0  0  0  0  0  0  0  0
    2.8800    8.7998   -2.8430 H   0  0  0  0  0  0  0  0  0  0  0  0
    2.5383   10.5632   -2.8430 H   0  0  0  0  0  0  0  0  0  0  0  0
    1.7589    8.9256    0.8141 H   0  0  0  0  0  0  0  0  0  0  0  0
    1.4553    7.5214   -0.2641 H   0  0  0  0  0  0  0  0  0  0  0  0
    3.0629    8.3227   -0.2641 H   0  0  0  0  0  0  0  0  0  0  0  0
   -1.5982   12.9357    0.4819 H   0  0  0  0  0  0  0  0  0  0  0  0
   -2.3159   13.7493   -0.9497 H   0  0  0  0  0  0  0  0  0  0  0  0
   -2.0880   11.9676   -0.9497 H   0  0  0  0  0  0  0  0  0  0  0  0
   -0.6944   13.5400   -3.3104 H   0  0  0  0  0  0  0  0  0  0  0  0
   -1.1430   14.8546   -2.0834 H   0  0  0  0  0  0  0  0  0  0  0  0
    1.5885   14.2877   -3.2688 H   0  0  0  0  0  0  0  0  0  0  0  0
    0.5388   15.7406   -3.4990 H   0  0  0  0  0  0  0  0  0  0  0  0
    0.4485   16.5530    0.1365 H   0  0  0  0  0  0  0  0  0  0  0  0
    0.6302   17.6143   -1.3013 H   0  0  0  0  0  0  0  0  0  0  0  0
   -0.5991   16.3044   -1.3013 H   0  0  0  0  0  0  0  0  0  0  0  0
  1  2  1  0
  2  3  1  0
  3  4  1  0
  4  5  1  0
  5  6  1  0
  6  7  1  0
  7  8  1  0
  7  9  1  0
  2 10  1  0
 10 11  1  0
 11 12  1  0
 12 13  1  0
 13 14  1  6
 13 15  1  0
 15 16  1  0
 16 17  1  0
 17 18  2  0
 18 19  1  0
 19 20  1  0
 20 21  1  0
 21 22  1  0
 22 23  1  0
 22 24  1  0
 24 25  1  0
 24 26  1  0
 19 27  1  0
 27 28  1  1
 27 29  1  0
 29 30  1  0
 30 31  1  0
 31 32  1  1
  7  5  1  0
 31 10  1  0
 31 13  1  0
 27 15  1  0
 24 18  1  0
  1 33  1  0
  1 34  1  0
  1 35  1  0
  2 36  1  6
  3 37  1  0
  3 38  1  0
  4 39  1  0
  4 40  1  0
  5 41  1  1
  8 42  1  0
  8 43  1  0
  8 44  1  0
  9 45  1  0
  9 46  1  0
  9 47  1  0
 10 48  1  6
 11 49  1  0
 11 50  1  0
 12 51  1  0
 12 52  1  0
 14 53  1  0
 14 54  1  0
 14 55  1  0
 15 56  1  1
 16 57  1  0
 16 58  1  0
 17 59  1  0
 19 60  1  6
 20 61  1  0
 20 62  1  0
 21 63  1  0
 21 64  1  0
 22 65  1  6
 23 66  1  0
 25 67  1  0
 25 68  1  0
 25 69  1  0
 26 70  1  0
 26 71  1  0
 26 72  1  0
 28 73  1  0
 28 74  1  0
 28 75  1  0
 29 76  1  0
 29 77  1  0
 30 78  1  0
 30 79  1  0
 32 80  1  0
 32 81  1  0
 32 82  1  0
M  END
>  <meeko>  (18) 
{"is_sidechain": [false], "intermolecular_energy": 2.731, "internal_energy": -0.839}

$$$$
