EPH_relaxed_0001_pdb2pqr_Repair_183_r2_0001_out
     RDKit          3D

 82 86  0  0  0  0  0  0  0  0999 V2000
   -1.6890    8.6690   -1.8190 C   0  0  0  0  0  0  0  0  0  0  0  0
   -2.1140    9.1890   -0.4430 C   0  0  2  0  0  0  0  0  0  0  0  0
   -3.6180    9.5230   -0.3880 C   0  0  0  0  0  0  0  0  0  0  0  0
   -4.5180    8.2910   -0.2600 C   0  0  0  0  0  0  0  0  0  0  0  0
   -5.2030    7.9690   -1.5530 C   0  0  2  0  0  0  0  0  0  0  0  0
   -6.3800    8.7440   -1.8170 O   0  0  0  0  0  0  0  0  0  0  0  0
   -6.5790    7.3330   -1.6350 C   0  0  0  0  0  0  0  0  0  0  0  0
   -7.3500    6.9810   -0.4020 C   0  0  0  0  0  0  0  0  0  0  0  0
   -6.9600    6.6120   -2.8900 C   0  0  0  0  0  0  0  0  0  0  0  0
   -1.2930   10.4200   -0.0770 C   0  0  1  0  0  0  0  0  0  0  0  0
   -0.2800   10.1450    1.0660 C   0  0  0  0  0  0  0  0  0  0  0  0
    0.9760   11.0030    0.7670 C   0  0  0  0  0  0  0  0  0  0  0  0
    0.5230   11.9850   -0.3390 C   0  0  1  0  0  0  0  0  0  0  0  0
   -0.2300   13.1230    0.4190 C   0  0  0  0  0  0  0  0  0  0  0  0
    1.6490   12.5530   -1.2620 C   0  0  2  0  0  0  0  0  0  0  0  0
    2.7160   13.3990   -0.5450 C   0  0  0  0  0  0  0  0  0  0  0  0
    2.4260   14.8620   -0.4720 C   0  0  0  0  0  0  0  0  0  0  0  0
    1.5030   15.5140   -1.2020 C   0  0  0  0  0  0  0  0  0  0  0  0
    0.7000   14.7860   -2.2880 C   0  0  1  0  0  0  0  0  0  0  0  0
    0.6800   15.6450   -3.5800 C   0  0  0  0  0  0  0  0  0  0  0  0
    0.1740   17.0630   -3.3330 C   0  0  0  0  0  0  0  0  0  0  0  0
    1.0330   17.7740   -2.2900 C   0  0  2  0  0  0  0  0  0  0  0  0
    2.3430   17.9740   -2.8310 O   0  0  0  0  0  0  0  0  0  0  0  0
    1.1350   16.9970   -0.9480 C   0  0  0  0  0  0  0  0  0  0  0  0
   -0.2290   17.0410   -0.2160 C   0  0  0  0  0  0  0  0  0  0  0  0
    2.1420   17.7500   -0.0360 C   0  0  0  0  0  0  0  0  0  0  0  0
    1.1160   13.2780   -2.5640 C   0  0  1  0  0  0  0  0  0  0  0  0
    2.2740   13.2280   -3.6080 C   0  0  0  0  0  0  0  0  0  0  0  0
   -0.1010   12.5190   -3.2150 C   0  0  0  0  0  0  0  0  0  0  0  0
   -1.1160   11.8770   -2.2500 C   0  0  0  0  0  0  0  0  0  0  0  0
   -0.4040   11.0380   -1.1850 C   0  0  2  0  0  0  0  0  0  0  0  0
    0.3440    9.8710   -1.9160 C   0  0  0  0  0  0  0  0  0  0  0  0
   -0.9974    7.8228   -1.6936 H   0  0  0  0  0  0  0  0  0  0  0  0
   -2.5775    8.3369   -2.3760 H   0  0  0  0  0  0  0  0  0  0  0  0
   -1.1867    9.4737   -2.3760 H   0  0  0  0  0  0  0  0  0  0  0  0
   -1.9273    8.3872    0.2865 H   0  0  0  0  0  0  0  0  0  0  0  0
   -3.7973   10.1756    0.4792 H   0  0  0  0  0  0  0  0  0  0  0  0
   -3.8740   10.0104   -1.3403 H   0  0  0  0  0  0  0  0  0  0  0  0
   -3.9033    7.4302    0.0419 H   0  0  0  0  0  0  0  0  0  0  0  0
   -5.2903    8.5070    0.4929 H   0  0  0  0  0  0  0  0  0  0  0  0
   -4.2427    7.7146   -2.0254 H   0  0  0  0  0  0  0  0  0  0  0  0
   -6.7615    7.2497    0.4876 H   0  0  0  0  0  0  0  0  0  0  0  0
   -8.3007    7.5343   -0.3936 H   0  0  0  0  0  0  0  0  0  0  0  0
   -7.5547    5.9002   -0.3936 H   0  0  0  0  0  0  0  0  0  0  0  0
   -7.4596    5.6665   -2.6324 H   0  0  0  0  0  0  0  0  0  0  0  0
   -7.6443    7.2394   -3.4800 H   0  0  0  0  0  0  0  0  0  0  0  0
   -6.0561    6.4002   -3.4800 H   0  0  0  0  0  0  0  0  0  0  0  0
   -2.1070   11.1132    0.1819 H   0  0  0  0  0  0  0  0  0  0  0  0
   -0.7142   10.4339    2.0345 H   0  0  0  0  0  0  0  0  0  0  0  0
   -0.0247    9.0763    1.1187 H   0  0  0  0  0  0  0  0  0  0  0  0
    1.2951   11.5508    1.6659 H   0  0  0  0  0  0  0  0  0  0  0  0
    1.8350   10.3908    0.4552 H   0  0  0  0  0  0  0  0  0  0  0  0
   -0.1290   12.9703    1.5037 H   0  0  0  0  0  0  0  0  0  0  0  0
    0.2032   14.0959    0.1437 H   0  0  0  0  0  0  0  0  0  0  0  0
   -1.2948   13.1047    0.1437 H   0  0  0  0  0  0  0  0  0  0  0  0
    2.1648   11.6397   -1.5935 H   0  0  0  0  0  0  0  0  0  0  0  0
    2.8158   13.0204    0.4830 H   0  0  0  0  0  0  0  0  0  0  0  0
    3.6348   13.3000   -1.1417 H   0  0  0  0  0  0  0  0  0  0  0  0
    3.0174   15.4573    0.2392 H   0  0  0  0  0  0  0  0  0  0  0  0
   -0.3214   14.6819   -1.8931 H   0  0  0  0  0  0  0  0  0  0  0  0
    1.7024   15.7006   -3.9821 H   0  0  0  0  0  0  0  0  0  0  0  0
   -0.0090   15.1639   -4.2898 H   0  0  0  0  0  0  0  0  0  0  0  0
    0.2112   17.6280   -4.2760 H   0  0  0  0  0  0  0  0  0  0  0  0
   -0.8589   17.0074   -2.9589 H   0  0  0  0  0  0  0  0  0  0  0  0
    0.5470   18.7337   -2.0605 H   0  0  0  0  0  0  0  0  0  0  0  0
    2.7280   17.0980   -3.0020 H   0  0  0  0  0  0  0  0  0  0  0  0
   -0.0620   17.0356    0.8712 H   0  0  0  0  0  0  0  0  0  0  0  0
   -0.7680   17.9570   -0.4996 H   0  0  0  0  0  0  0  0  0  0  0  0
   -0.8259   16.1616   -0.4996 H   0  0  0  0  0  0  0  0  0  0  0  0
    1.8921   17.5631    1.0188 H   0  0  0  0  0  0  0  0  0  0  0  0
    3.1614   17.3908   -0.2405 H   0  0  0  0  0  0  0  0  0  0  0  0
    2.0857   18.8294   -0.2405 H   0  0  0  0  0  0  0  0  0  0  0  0
    3.2396   13.1863   -3.0828 H   0  0  0  0  0  0  0  0  0  0  0  0
    2.1607   12.3339   -4.2387 H   0  0  0  0  0  0  0  0  0  0  0  0
    2.2382   14.1285   -4.2387 H   0  0  0  0  0  0  0  0  0  0  0  0
   -0.6470   13.2405   -3.8406 H   0  0  0  0  0  0  0  0  0  0  0  0
    0.3455   11.6773   -3.7647 H   0  0  0  0  0  0  0  0  0  0  0  0
   -1.6943   12.6712   -1.7552 H   0  0  0  0  0  0  0  0  0  0  0  0
   -1.7819   11.2191   -2.8277 H   0  0  0  0  0  0  0  0  0  0  0  0
    0.7801    9.1907   -1.1697 H   0  0  0  0  0  0  0  0  0  0  0  0
   -0.3677    9.3169   -2.5457 H   0  0  0  0  0  0  0  0  0  0  0  0
    1.1446   10.2863   -2.5457 H   0  0  0  0  0  0  0  0  0  0  0  0
  1  2  1  0
  2  3  1  0
  3  4  1  0
  4  5  1  0
  5  6  1  0
  6  7  1  0
  7  8  1  0
  7  9  1  0
  2 10  1  0
 10 11  1  0
 11 12  1  0
 12 13  1  0
 13 14  1  1
 13 15  1  0
 15 16  1  0
 16 17  1  0
 17 18  2  0
 18 19  1  0
 19 20  1  0
 20 21  1  0
 21 22  1  0
 22 23  1  0
 22 24  1  0
 24 25  1  0
 24 26  1  0
 19 27  1  0
 27 28  1  6
 27 29  1  0
 29 30  1  0
 30 31  1  0
 31 32  1  6
  7  5  1  0
 31 10  1  0
 31 13  1  0
 27 15  1  0
 24 18  1  0
  1 33  1  0
  1 34  1  0
  1 35  1  0
  2 36  1  1
  3 37  1  0
  3 38  1  0
  4 39  1  0
  4 40  1  0
  5 41  1  6
  8 42  1  0
  8 43  1  0
  8 44  1  0
  9 45  1  0
  9 46  1  0
  9 47  1  0
 10 48  1  1
 11 49  1  0
 11 50  1  0
 12 51  1  0
 12 52  1  0
 14 53  1  0
 14 54  1  0
 14 55  1  0
 15 56  1  6
 16 57  1  0
 16 58  1  0
 17 59  1  0
 19 60  1  1
 20 61  1  0
 20 62  1  0
 21 63  1  0
 21 64  1  0
 22 65  1  1
 23 66  1  0
 25 67  1  0
 25 68  1  0
 25 69  1  0
 26 70  1  0
 26 71  1  0
 26 72  1  0
 28 73  1  0
 28 74  1  0
 28 75  1  0
 29 76  1  0
 29 77  1  0
 30 78  1  0
 30 79  1  0
 32 80  1  0
 32 81  1  0
 32 82  1  0
M  END
>  <meeko>  (1) 
{"is_sidechain": [false], "intermolecular_energy": 2.731, "internal_energy": -0.839}

$$$$
EPH_relaxed_0001_pdb2pqr_Repair_183_r2_0001_out
     RDKit          3D

 82 86  0  0  0  0  0  0  0  0999 V2000
    2.1530   17.9400   -2.7610 C   0  0  0  0  0  0  0  0  0  0  0  0
    0.8590   17.5070   -2.0670 C   0  0  2  0  0  0  0  0  0  0  0  0
    0.9690   17.5860   -0.5310 C   0  0  0  0  0  0  0  0  0  0  0  0
    0.7370   18.9900    0.0320 C   0  0  0  0  0  0  0  0  0  0  0  0
   -0.6620   19.1580    0.5440 C   0  0  2  0  0  0  0  0  0  0  0  0
   -1.6060   18.2090    0.0290 O   0  0  0  0  0  0  0  0  0  0  0  0
   -1.8270   19.5830   -0.3290 C   0  0  0  0  0  0  0  0  0  0  0  0
   -1.6470   19.8690   -1.7870 C   0  0  0  0  0  0  0  0  0  0  0  0
   -3.0280   20.1900    0.3270 C   0  0  0  0  0  0  0  0  0  0  0  0
    0.4910   16.0900   -2.4910 C   0  0  1  0  0  0  0  0  0  0  0  0
    0.7790   15.8220   -3.9920 C   0  0  0  0  0  0  0  0  0  0  0  0
    1.2280   14.3420   -4.1030 C   0  0  0  0  0  0  0  0  0  0  0  0
    0.8690   13.7210   -2.7330 C   0  0  1  0  0  0  0  0  0  0  0  0
   -0.6550   13.3960   -2.8270 C   0  0  0  0  0  0  0  0  0  0  0  0
    1.7010   12.4690   -2.3030 C   0  0  2  0  0  0  0  0  0  0  0  0
    1.5570   11.2430   -3.2220 C   0  0  0  0  0  0  0  0  0  0  0  0
    0.4640   10.2950   -2.8530 C   0  0  0  0  0  0  0  0  0  0  0  0
   -0.1830   10.2670   -1.6730 C   0  0  0  0  0  0  0  0  0  0  0  0
    0.2360   11.1920   -0.5230 C   0  0  1  0  0  0  0  0  0  0  0  0
    0.3210   10.3760    0.7930 C   0  0  0  0  0  0  0  0  0  0  0  0
   -0.9680    9.6170    1.0950 C   0  0  0  0  0  0  0  0  0  0  0  0
   -1.3200    8.6650   -0.0450 C   0  0  2  0  0  0  0  0  0  0  0  0
   -0.3310    7.6340   -0.1070 O   0  0  0  0  0  0  0  0  0  0  0  0
   -1.4230    9.3740   -1.4250 C   0  0  0  0  0  0  0  0  0  0  0  0
   -2.6840   10.2730   -1.4560 C   0  0  0  0  0  0  0  0  0  0  0  0
   -1.6430    8.2820   -2.5070 C   0  0  0  0  0  0  0  0  0  0  0  0
    1.5340   12.0720   -0.7800 C   0  0  1  0  0  0  0  0  0  0  0  0
    2.8100   11.2660   -0.3880 C   0  0  0  0  0  0  0  0  0  0  0  0
    1.4970   13.3310    0.1650 C   0  0  0  0  0  0  0  0  0  0  0  0
    0.7630   14.5770   -0.3660 C   0  0  0  0  0  0  0  0  0  0  0  0
    1.2250   14.9230   -1.7850 C   0  0  2  0  0  0  0  0  0  0  0  0
    2.7500   15.2760   -1.7180 C   0  0  0  0  0  0  0  0  0  0  0  0
    2.9088   18.1929   -2.0028 H   0  0  0  0  0  0  0  0  0  0  0  0
    2.5250   17.1174   -3.3894 H   0  0  0  0  0  0  0  0  0  0  0  0
    1.9550   18.8208   -3.3894 H   0  0  0  0  0  0  0  0  0  0  0  0
    0.0676   18.2052   -2.3772 H   0  0  0  0  0  0  0  0  0  0  0  0
    0.2203   16.9088   -0.0941 H   0  0  0  0  0  0  0  0  0  0  0  0
    1.9982   17.3006   -0.2678 H   0  0  0  0  0  0  0  0  0  0  0  0
    1.4422   19.1638    0.8581 H   0  0  0  0  0  0  0  0  0  0  0  0
    0.8944   19.7153   -0.7799 H   0  0  0  0  0  0  0  0  0  0  0  0
   -0.2890   19.5312    1.5092 H   0  0  0  0  0  0  0  0  0  0  0  0
   -1.0648   20.7941   -1.9100 H   0  0  0  0  0  0  0  0  0  0  0  0
   -1.1118   19.0331   -2.2613 H   0  0  0  0  0  0  0  0  0  0  0  0
   -2.6321   19.9899   -2.2613 H   0  0  0  0  0  0  0  0  0  0  0  0
   -2.9166   20.1337    1.4199 H   0  0  0  0  0  0  0  0  0  0  0  0
   -3.1198   21.2427    0.0216 H   0  0  0  0  0  0  0  0  0  0  0  0
   -3.9301   19.6396    0.0216 H   0  0  0  0  0  0  0  0  0  0  0  0
   -0.5739   16.0858   -2.2152 H   0  0  0  0  0  0  0  0  0  0  0  0
   -0.1306   15.9878   -4.5879 H   0  0  0  0  0  0  0  0  0  0  0  0
    1.5565   16.5006   -4.3727 H   0  0  0  0  0  0  0  0  0  0  0  0
    0.6874   13.8321   -4.9140 H   0  0  0  0  0  0  0  0  0  0  0  0
    2.2989   14.2476   -4.3358 H   0  0  0  0  0  0  0  0  0  0  0  0
   -1.0740   13.3066   -1.8139 H   0  0  0  0  0  0  0  0  0  0  0  0
   -1.1697   14.2046   -3.3667 H   0  0  0  0  0  0  0  0  0  0  0  0
   -0.7951   12.4478   -3.3667 H   0  0  0  0  0  0  0  0  0  0  0  0
    2.7362   12.8183   -2.4305 H   0  0  0  0  0  0  0  0  0  0  0  0
    1.3636   11.6041   -4.2429 H   0  0  0  0  0  0  0  0  0  0  0  0
    2.4958   10.6780   -3.1254 H   0  0  0  0  0  0  0  0  0  0  0  0
    0.1617    9.5565   -3.6101 H   0  0  0  0  0  0  0  0  0  0  0  0
   -0.5548   11.9522   -0.4401 H   0  0  0  0  0  0  0  0  0  0  0  0
    1.1446    9.6519    0.7064 H   0  0  0  0  0  0  0  0  0  0  0  0
    0.4911   11.0860    1.6158 H   0  0  0  0  0  0  0  0  0  0  0  0
   -0.8361    9.0373    2.0205 H   0  0  0  0  0  0  0  0  0  0  0  0
   -1.7851   10.3444    1.2101 H   0  0  0  0  0  0  0  0  0  0  0  0
   -2.3151    8.2480    0.1689 H   0  0  0  0  0  0  0  0  0  0  0  0
   -0.7940    6.7900   -0.2440 H   0  0  0  0  0  0  0  0  0  0  0  0
   -2.9994   10.4979   -0.4265 H   0  0  0  0  0  0  0  0  0  0  0  0
   -2.4527   11.2111   -1.9818 H   0  0  0  0  0  0  0  0  0  0  0  0
   -3.4954    9.7485   -1.9818 H   0  0  0  0  0  0  0  0  0  0  0  0
   -1.8377    7.3158   -2.0185 H   0  0  0  0  0  0  0  0  0  0  0  0
   -2.5040    8.5557   -3.1344 H   0  0  0  0  0  0  0  0  0  0  0  0
   -0.7431    8.2010   -3.1344 H   0  0  0  0  0  0  0  0  0  0  0  0
    2.8896   11.2157    0.7080 H   0  0  0  0  0  0  0  0  0  0  0  0
    2.7406   10.2475   -0.7977 H   0  0  0  0  0  0  0  0  0  0  0  0
    3.6999   11.7662   -0.7977 H   0  0  0  0  0  0  0  0  0  0  0  0
    1.0057   13.0295    1.1019 H   0  0  0  0  0  0  0  0  0  0  0  0
    2.5471   13.6401    0.2737 H   0  0  0  0  0  0  0  0  0  0  0  0
   -0.3190   14.3792   -0.3781 H   0  0  0  0  0  0  0  0  0  0  0  0
    0.9920   15.4266    0.2941 H   0  0  0  0  0  0  0  0  0  0  0  0
    3.0637   15.3486   -0.6662 H   0  0  0  0  0  0  0  0  0  0  0  0
    3.3310   14.4886   -2.2204 H   0  0  0  0  0  0  0  0  0  0  0  0
    2.9260   16.2386   -2.2204 H   0  0  0  0  0  0  0  0  0  0  0  0
  1  2  1  0
  2  3  1  0
  3  4  1  0
  4  5  1  0
  5  6  1  0
  6  7  1  0
  7  8  1  0
  7  9  1  0
  2 10  1  0
 10 11  1  0
 11 12  1  0
 12 13  1  0
 13 14  1  6
 13 15  1  0
 15 16  1  0
 16 17  1  0
 17 18  2  0
 18 19  1  0
 19 20  1  0
 20 21  1  0
 21 22  1  0
 22 23  1  0
 22 24  1  0
 24 25  1  0
 24 26  1  0
 19 27  1  0
 27 28  1  1
 27 29  1  0
 29 30  1  0
 30 31  1  0
 31 32  1  1
  7  5  1  0
 31 10  1  0
 31 13  1  0
 27 15  1  0
 24 18  1  0
  1 33  1  0
  1 34  1  0
  1 35  1  0
  2 36  1  6
  3 37  1  0
  3 38  1  0
  4 39  1  0
  4 40  1  0
  5 41  1  1
  8 42  1  0
  8 43  1  0
  8 44  1  0
  9 45  1  0
  9 46  1  0
  9 47  1  0
 10 48  1  6
 11 49  1  0
 11 50  1  0
 12 51  1  0
 12 52  1  0
 14 53  1  0
 14 54  1  0
 14 55  1  0
 15 56  1  1
 16 57  1  0
 16 58  1  0
 17 59  1  0
 19 60  1  1
 20 61  1  0
 20 62  1  0
 21 63  1  0
 21 64  1  0
 22 65  1  1
 23 66  1  0
 25 67  1  0
 25 68  1  0
 25 69  1  0
 26 70  1  0
 26 71  1  0
 26 72  1  0
 28 73  1  0
 28 74  1  0
 28 75  1  0
 29 76  1  0
 29 77  1  0
 30 78  1  0
 30 79  1  0
 32 80  1  0
 32 81  1  0
 32 82  1  0
M  END
>  <meeko>  (2) 
{"is_sidechain": [false], "intermolecular_energy": 2.731, "internal_energy": -0.839}

$$$$
EPH_relaxed_0001_pdb2pqr_Repair_183_r2_0001_out
     RDKit          3D

 82 86  0  0  0  0  0  0  0  0999 V2000
    2.0690   18.0710   -2.7060 C   0  0  0  0  0  0  0  0  0  0  0  0
    0.8320   17.5890   -1.9430 C   0  0  2  0  0  0  0  0  0  0  0  0
    1.0400   17.6270   -0.4160 C   0  0  0  0  0  0  0  0  0  0  0  0
    2.4450   18.0660    0.0030 C   0  0  0  0  0  0  0  0  0  0  0  0
    2.4030   19.1750    1.0100 C   0  0  2  0  0  0  0  0  0  0  0  0
    3.3930   20.1940    0.8200 O   0  0  0  0  0  0  0  0  0  0  0  0
    3.5000   19.4230    2.0280 C   0  0  0  0  0  0  0  0  0  0  0  0
    4.7170   18.5550    2.0910 C   0  0  0  0  0  0  0  0  0  0  0  0
    3.1650   20.1940    3.2670 C   0  0  0  0  0  0  0  0  0  0  0  0
    0.4680   16.1760   -2.3840 C   0  0  1  0  0  0  0  0  0  0  0  0
    0.7410   15.9310   -3.8920 C   0  0  0  0  0  0  0  0  0  0  0  0
    1.1990   14.4570   -4.0310 C   0  0  0  0  0  0  0  0  0  0  0  0
    0.8590   13.8130   -2.6660 C   0  0  1  0  0  0  0  0  0  0  0  0
   -0.6630   13.4800   -2.7480 C   0  0  0  0  0  0  0  0  0  0  0  0
    1.7040   12.5600   -2.2640 C   0  0  2  0  0  0  0  0  0  0  0  0
    1.5580   11.3470   -3.1990 C   0  0  0  0  0  0  0  0  0  0  0  0
    0.4750   10.3860   -2.8320 C   0  0  0  0  0  0  0  0  0  0  0  0
   -0.1580   10.3370   -1.6460 C   0  0  0  0  0  0  0  0  0  0  0  0
    0.2680   11.2480   -0.4870 C   0  0  1  0  0  0  0  0  0  0  0  0
    0.3720   10.4130    0.8160 C   0  0  0  0  0  0  0  0  0  0  0  0
   -0.9080    9.6410    1.1210 C   0  0  0  0  0  0  0  0  0  0  0  0
   -1.2670    8.7040   -0.0290 C   0  0  2  0  0  0  0  0  0  0  0  0
   -0.2710    7.6800   -0.1170 O   0  0  0  0  0  0  0  0  0  0  0  0
   -1.3900    9.4320   -1.3970 C   0  0  0  0  0  0  0  0  0  0  0  0
   -2.6560   10.3230   -1.4000 C   0  0  0  0  0  0  0  0  0  0  0  0
   -1.6140    8.3550   -2.4920 C   0  0  0  0  0  0  0  0  0  0  0  0
    1.5570   12.1400   -0.7450 C   0  0  1  0  0  0  0  0  0  0  0  0
    2.8430   11.3370   -0.3790 C   0  0  0  0  0  0  0  0  0  0  0  0
    1.5220   13.3850    0.2190 C   0  0  0  0  0  0  0  0  0  0  0  0
    0.7740   14.6340   -0.2850 C   0  0  0  0  0  0  0  0  0  0  0  0
    1.2180   15.0030   -1.7040 C   0  0  2  0  0  0  0  0  0  0  0  0
    2.7420   15.3650   -1.6490 C   0  0  0  0  0  0  0  0  0  0  0  0
    2.8467   18.3740   -1.9895 H   0  0  0  0  0  0  0  0  0  0  0  0
    2.4505   17.2557   -3.3383 H   0  0  0  0  0  0  0  0  0  0  0  0
    1.7984   18.9295   -3.3383 H   0  0  0  0  0  0  0  0  0  0  0  0
    0.0074   18.2772   -2.1807 H   0  0  0  0  0  0  0  0  0  0  0  0
    0.3131   18.3305    0.0161 H   0  0  0  0  0  0  0  0  0  0  0  0
    0.9008   16.6001   -0.0470 H   0  0  0  0  0  0  0  0  0  0  0  0
    2.9709   17.2055    0.4423 H   0  0  0  0  0  0  0  0  0  0  0  0
    2.9694   18.4348   -0.8909 H   0  0  0  0  0  0  0  0  0  0  0  0
    1.3124   19.0734    1.1110 H   0  0  0  0  0  0  0  0  0  0  0  0
    4.9797   18.3676    3.1426 H   0  0  0  0  0  0  0  0  0  0  0  0
    4.5115   17.5984    1.5884 H   0  0  0  0  0  0  0  0  0  0  0  0
    5.5546   19.0608    1.5884 H   0  0  0  0  0  0  0  0  0  0  0  0
    3.4250   19.5957    4.1527 H   0  0  0  0  0  0  0  0  0  0  0  0
    3.7357   21.1343    3.2793 H   0  0  0  0  0  0  0  0  0  0  0  0
    2.0882   20.4185    3.2793 H   0  0  0  0  0  0  0  0  0  0  0  0
   -0.5936   16.1617   -2.0964 H   0  0  0  0  0  0  0  0  0  0  0  0
   -0.1765   16.0989   -4.4750 H   0  0  0  0  0  0  0  0  0  0  0  0
    1.5099   16.6204   -4.2708 H   0  0  0  0  0  0  0  0  0  0  0  0
    0.6531   13.9556   -4.8438 H   0  0  0  0  0  0  0  0  0  0  0  0
    2.2678   14.3735   -4.2773 H   0  0  0  0  0  0  0  0  0  0  0  0
   -1.0739   13.3901   -1.7316 H   0  0  0  0  0  0  0  0  0  0  0  0
   -1.1860   14.2850   -3.2851 H   0  0  0  0  0  0  0  0  0  0  0  0
   -0.8021   12.5302   -3.2851 H   0  0  0  0  0  0  0  0  0  0  0  0
    2.7355   12.9178   -2.3984 H   0  0  0  0  0  0  0  0  0  0  0  0
    1.3511   11.7217   -4.2123 H   0  0  0  0  0  0  0  0  0  0  0  0
    2.5015   10.7869   -3.1209 H   0  0  0  0  0  0  0  0  0  0  0  0
    0.1691    9.6565   -3.5963 H   0  0  0  0  0  0  0  0  0  0  0  0
   -0.5262   12.0021   -0.3844 H   0  0  0  0  0  0  0  0  0  0  0  0
    1.1993    9.6958    0.7099 H   0  0  0  0  0  0  0  0  0  0  0  0
    0.5458   11.1123    1.6472 H   0  0  0  0  0  0  0  0  0  0  0  0
   -0.7615    9.0483    2.0360 H   0  0  0  0  0  0  0  0  0  0  0  0
   -1.7285   10.3611    1.2564 H   0  0  0  0  0  0  0  0  0  0  0  0
   -2.2572    8.2777    0.1895 H   0  0  0  0  0  0  0  0  0  0  0  0
    0.5470    8.0920   -0.4420 H   0  0  0  0  0  0  0  0  0  0  0  0
   -2.9575   10.5352   -0.3636 H   0  0  0  0  0  0  0  0  0  0  0  0
   -2.4381   11.2679   -1.9193 H   0  0  0  0  0  0  0  0  0  0  0  0
   -3.4719    9.7990   -1.9193 H   0  0  0  0  0  0  0  0  0  0  0  0
   -1.8159    7.3843   -2.0157 H   0  0  0  0  0  0  0  0  0  0  0  0
   -2.4718    8.6416   -3.1182 H   0  0  0  0  0  0  0  0  0  0  0  0
   -0.7131    8.2758   -3.1182 H   0  0  0  0  0  0  0  0  0  0  0  0
    2.9389   11.2771    0.7152 H   0  0  0  0  0  0  0  0  0  0  0  0
    2.7728   10.3219   -0.7970 H   0  0  0  0  0  0  0  0  0  0  0  0
    3.7242   11.8456   -0.7970 H   0  0  0  0  0  0  0  0  0  0  0  0
    1.0432   13.0663    1.1566 H   0  0  0  0  0  0  0  0  0  0  0  0
    2.5712   13.6996    0.3204 H   0  0  0  0  0  0  0  0  0  0  0  0
   -0.3068   14.4296   -0.2878 H   0  0  0  0  0  0  0  0  0  0  0  0
    1.0047   15.4754    0.3849 H   0  0  0  0  0  0  0  0  0  0  0  0
    3.0631   15.4413   -0.5997 H   0  0  0  0  0  0  0  0  0  0  0  0
    3.3238   14.5801   -2.1544 H   0  0  0  0  0  0  0  0  0  0  0  0
    2.9087   16.3277   -2.1544 H   0  0  0  0  0  0  0  0  0  0  0  0
  1  2  1  0
  2  3  1  0
  3  4  1  0
  4  5  1  0
  5  6  1  0
  6  7  1  0
  7  8  1  0
  7  9  1  0
  2 10  1  0
 10 11  1  0
 11 12  1  0
 12 13  1  0
 13 14  1  6
 13 15  1  0
 15 16  1  0
 16 17  1  0
 17 18  2  0
 18 19  1  0
 19 20  1  0
 20 21  1  0
 21 22  1  0
 22 23  1  0
 22 24  1  0
 24 25  1  0
 24 26  1  0
 19 27  1  0
 27 28  1  1
 27 29  1  0
 29 30  1  0
 30 31  1  0
 31 32  1  1
  7  5  1  0
 31 10  1  0
 31 13  1  0
 27 15  1  0
 24 18  1  0
  1 33  1  0
  1 34  1  0
  1 35  1  0
  2 36  1  1
  3 37  1  0
  3 38  1  0
  4 39  1  0
  4 40  1  0
  5 41  1  1
  8 42  1  0
  8 43  1  0
  8 44  1  0
  9 45  1  0
  9 46  1  0
  9 47  1  0
 10 48  1  6
 11 49  1  0
 11 50  1  0
 12 51  1  0
 12 52  1  0
 14 53  1  0
 14 54  1  0
 14 55  1  0
 15 56  1  1
 16 57  1  0
 16 58  1  0
 17 59  1  0
 19 60  1  1
 20 61  1  0
 20 62  1  0
 21 63  1  0
 21 64  1  0
 22 65  1  1
 23 66  1  0
 25 67  1  0
 25 68  1  0
 25 69  1  0
 26 70  1  0
 26 71  1  0
 26 72  1  0
 28 73  1  0
 28 74  1  0
 28 75  1  0
 29 76  1  0
 29 77  1  0
 30 78  1  0
 30 79  1  0
 32 80  1  0
 32 81  1  0
 32 82  1  0
M  END
>  <meeko>  (3) 
{"is_sidechain": [false], "intermolecular_energy": 2.731, "internal_energy": -0.839}

$$$$
EPH_relaxed_0001_pdb2pqr_Repair_183_r2_0001_out
     RDKit          3D

 82 86  0  0  0  0  0  0  0  0999 V2000
    4.0450   17.5260    0.0070 C   0  0  0  0  0  0  0  0  0  0  0  0
    2.6400   18.0720   -0.2630 C   0  0  2  0  0  0  0  0  0  0  0  0
    2.2560   19.1990    0.7160 C   0  0  0  0  0  0  0  0  0  0  0  0
    3.4610   19.9040    1.3460 C   0  0  0  0  0  0  0  0  0  0  0  0
    3.8750   19.2530    2.6310 C   0  0  2  0  0  0  0  0  0  0  0  0
    4.1530   20.1660    3.7010 O   0  0  0  0  0  0  0  0  0  0  0  0
    5.2640   19.3870    3.2270 C   0  0  0  0  0  0  0  0  0  0  0  0
    6.3280   20.1940    2.5520 C   0  0  0  0  0  0  0  0  0  0  0  0
    5.7290   18.3470    4.1980 C   0  0  0  0  0  0  0  0  0  0  0  0
    1.6190   16.9430   -0.1840 C   0  0  1  0  0  0  0  0  0  0  0  0
    0.1570   17.4500   -0.3090 C   0  0  0  0  0  0  0  0  0  0  0  0
   -0.6310   16.3570   -1.0760 C   0  0  0  0  0  0  0  0  0  0  0  0
    0.3070   15.1260   -1.0740 C   0  0  1  0  0  0  0  0  0  0  0  0
    0.1030   14.4690    0.3260 C   0  0  0  0  0  0  0  0  0  0  0  0
    0.0970   14.0960   -2.2320 C   0  0  2  0  0  0  0  0  0  0  0  0
   -1.2800   13.4090   -2.2520 C   0  0  0  0  0  0  0  0  0  0  0  0
   -1.3680   12.1350   -1.4800 C   0  0  0  0  0  0  0  0  0  0  0  0
   -0.3210   11.4160   -1.0340 C   0  0  0  0  0  0  0  0  0  0  0  0
    1.1170   11.8210   -1.3830 C   0  0  1  0  0  0  0  0  0  0  0  0
    1.9090   10.5700   -1.8460 C   0  0  0  0  0  0  0  0  0  0  0  0
    1.8530    9.4330   -0.8300 C   0  0  0  0  0  0  0  0  0  0  0  0
    0.4090    9.0200   -0.5540 C   0  0  2  0  0  0  0  0  0  0  0  0
   -0.1380    8.4370   -1.7400 O   0  0  0  0  0  0  0  0  0  0  0  0
   -0.4880   10.2010   -0.0890 C   0  0  0  0  0  0  0  0  0  0  0  0
   -0.0770   10.6360    1.3390 C   0  0  0  0  0  0  0  0  0  0  0  0
   -1.9460    9.6790    0.0180 C   0  0  0  0  0  0  0  0  0  0  0  0
    1.2700   13.0450   -2.3840 C   0  0  1  0  0  0  0  0  0  0  0  0
    1.2220   12.5360   -3.8580 C   0  0  0  0  0  0  0  0  0  0  0  0
    2.6880   13.6980   -2.1860 C   0  0  0  0  0  0  0  0  0  0  0  0
    2.8040   14.7940   -1.1090 C   0  0  0  0  0  0  0  0  0  0  0  0
    1.6950   15.8380   -1.2680 C   0  0  2  0  0  0  0  0  0  0  0  0
    1.8870   16.5330   -2.6590 C   0  0  0  0  0  0  0  0  0  0  0  0
    4.2110   17.4615    1.0925 H   0  0  0  0  0  0  0  0  0  0  0  0
    4.1413   16.5250   -0.4388 H   0  0  0  0  0  0  0  0  0  0  0  0
    4.7920   18.1993   -0.4388 H   0  0  0  0  0  0  0  0  0  0  0  0
    2.6417   18.5015   -1.2757 H   0  0  0  0  0  0  0  0  0  0  0  0
    1.6628   19.9468    0.1693 H   0  0  0  0  0  0  0  0  0  0  0  0
    1.6906   18.7333    1.5367 H   0  0  0  0  0  0  0  0  0  0  0  0
    4.3041   19.8679    0.6404 H   0  0  0  0  0  0  0  0  0  0  0  0
    3.1743   20.9431    1.5650 H   0  0  0  0  0  0  0  0  0  0  0  0
    3.2453   18.3766    2.4181 H   0  0  0  0  0  0  0  0  0  0  0  0
    6.9615   20.6745    3.3122 H   0  0  0  0  0  0  0  0  0  0  0  0
    6.9451   19.5348    1.9238 H   0  0  0  0  0  0  0  0  0  0  0  0
    5.8596   20.9660    1.9238 H   0  0  0  0  0  0  0  0  0  0  0  0
    5.5683   18.7064    5.2251 H   0  0  0  0  0  0  0  0  0  0  0  0
    5.1603   17.4186    4.0412 H   0  0  0  0  0  0  0  0  0  0  0  0
    6.8001   18.1518    4.0412 H   0  0  0  0  0  0  0  0  0  0  0  0
    1.8823   16.5245    0.7986 H   0  0  0  0  0  0  0  0  0  0  0  0
   -0.2785   17.6005    0.6898 H   0  0  0  0  0  0  0  0  0  0  0  0
    0.1166   18.4124   -0.8402 H   0  0  0  0  0  0  0  0  0  0  0  0
   -1.5757   16.1263   -0.5618 H   0  0  0  0  0  0  0  0  0  0  0  0
   -0.9010   16.6742   -2.0941 H   0  0  0  0  0  0  0  0  0  0  0  0
    0.3311   15.2035    1.1125 H   0  0  0  0  0  0  0  0  0  0  0  0
   -0.9407   14.1364    0.4264 H   0  0  0  0  0  0  0  0  0  0  0  0
    0.7748   13.6038    0.4264 H   0  0  0  0  0  0  0  0  0  0  0  0
    0.1241   14.7362   -3.1261 H   0  0  0  0  0  0  0  0  0  0  0  0
   -2.0163   14.1113   -1.8340 H   0  0  0  0  0  0  0  0  0  0  0  0
   -1.4719   13.1425   -3.3018 H   0  0  0  0  0  0  0  0  0  0  0  0
   -2.3741   11.7507   -1.2563 H   0  0  0  0  0  0  0  0  0  0  0  0
    1.5544   12.2179   -0.4550 H   0  0  0  0  0  0  0  0  0  0  0  0
    1.4835   10.2150   -2.7962 H   0  0  0  0  0  0  0  0  0  0  0  0
    2.9626   10.8649   -1.9593 H   0  0  0  0  0  0  0  0  0  0  0  0
    2.4055    8.5683   -1.2263 H   0  0  0  0  0  0  0  0  0  0  0  0
    2.3055    9.7795    0.1108 H   0  0  0  0  0  0  0  0  0  0  0  0
    0.4253    8.2952    0.2733 H   0  0  0  0  0  0  0  0  0  0  0  0
    0.6030    8.2140   -2.3280 H   0  0  0  0  0  0  0  0  0  0  0  0
   -0.6366   10.0438    2.0780 H   0  0  0  0  0  0  0  0  0  0  0  0
    1.0016   10.4698    1.4767 H   0  0  0  0  0  0  0  0  0  0  0  0
   -0.3041   11.7035    1.4767 H   0  0  0  0  0  0  0  0  0  0  0  0
   -2.2231    9.5798    1.0779 H   0  0  0  0  0  0  0  0  0  0  0  0
   -2.6268   10.3892   -0.4740 H   0  0  0  0  0  0  0  0  0  0  0  0
   -2.0213    8.6981   -0.4740 H   0  0  0  0  0  0  0  0  0  0  0  0
    1.1187   11.4409   -3.8646 H   0  0  0  0  0  0  0  0  0  0  0  0
    0.3625   12.9884   -4.3743 H   0  0  0  0  0  0  0  0  0  0  0  0
    2.1509   12.8198   -4.3743 H   0  0  0  0  0  0  0  0  0  0  0  0
    3.3903   12.8943   -1.9198 H   0  0  0  0  0  0  0  0  0  0  0  0
    2.9067   14.2050   -3.1373 H   0  0  0  0  0  0  0  0  0  0  0  0
    2.7227   14.3312   -0.1144 H   0  0  0  0  0  0  0  0  0  0  0  0
    3.7766   15.2953   -1.2220 H   0  0  0  0  0  0  0  0  0  0  0  0
    2.1771   17.5831   -2.5073 H   0  0  0  0  0  0  0  0  0  0  0  0
    2.6751   16.0127   -3.2232 H   0  0  0  0  0  0  0  0  0  0  0  0
    0.9436   16.4911   -3.2232 H   0  0  0  0  0  0  0  0  0  0  0  0
  1  2  1  0
  2  3  1  0
  3  4  1  0
  4  5  1  0
  5  6  1  0
  6  7  1  0
  7  8  1  0
  7  9  1  0
  2 10  1  0
 10 11  1  0
 11 12  1  0
 12 13  1  0
 13 14  1  1
 13 15  1  0
 15 16  1  0
 16 17  1  0
 17 18  2  0
 18 19  1  0
 19 20  1  0
 20 21  1  0
 21 22  1  0
 22 23  1  0
 22 24  1  0
 24 25  1  0
 24 26  1  0
 19 27  1  0
 27 28  1  6
 27 29  1  0
 29 30  1  0
 30 31  1  0
 31 32  1  6
  7  5  1  0
 31 10  1  0
 31 13  1  0
 27 15  1  0
 24 18  1  0
  1 33  1  0
  1 34  1  0
  1 35  1  0
  2 36  1  6
  3 37  1  0
  3 38  1  0
  4 39  1  0
  4 40  1  0
  5 41  1  1
  8 42  1  0
  8 43  1  0
  8 44  1  0
  9 45  1  0
  9 46  1  0
  9 47  1  0
 10 48  1  1
 11 49  1  0
 11 50  1  0
 12 51  1  0
 12 52  1  0
 14 53  1  0
 14 54  1  0
 14 55  1  0
 15 56  1  6
 16 57  1  0
 16 58  1  0
 17 59  1  0
 19 60  1  1
 20 61  1  0
 20 62  1  0
 21 63  1  0
 21 64  1  0
 22 65  1  1
 23 66  1  0
 25 67  1  0
 25 68  1  0
 25 69  1  0
 26 70  1  0
 26 71  1  0
 26 72  1  0
 28 73  1  0
 28 74  1  0
 28 75  1  0
 29 76  1  0
 29 77  1  0
 30 78  1  0
 30 79  1  0
 32 80  1  0
 32 81  1  0
 32 82  1  0
M  END
>  <meeko>  (4) 
{"is_sidechain": [false], "intermolecular_energy": 2.731, "internal_energy": -0.839}

$$$$
EPH_relaxed_0001_pdb2pqr_Repair_183_r2_0001_out
     RDKit          3D

 82 86  0  0  0  0  0  0  0  0999 V2000
   -5.1170    5.9380   -1.6240 C   0  0  0  0  0  0  0  0  0  0  0  0
   -5.4190    7.4360   -1.7230 C   0  0  2  0  0  0  0  0  0  0  0  0
   -5.2010    8.1630   -0.3810 C   0  0  0  0  0  0  0  0  0  0  0  0
   -4.1160    9.2420   -0.4350 C   0  0  0  0  0  0  0  0  0  0  0  0
   -2.7900    8.6760   -0.8460 C   0  0  2  0  0  0  0  0  0  0  0  0
   -1.7250    8.9060    0.0850 O   0  0  0  0  0  0  0  0  0  0  0  0
   -1.5890    9.5310   -1.2020 C   0  0  0  0  0  0  0  0  0  0  0  0
   -1.6560   11.0260   -1.1620 C   0  0  0  0  0  0  0  0  0  0  0  0
   -0.5110    8.9330   -2.0510 C   0  0  0  0  0  0  0  0  0  0  0  0
   -6.8500    7.6480   -2.2030 C   0  0  1  0  0  0  0  0  0  0  0  0
   -7.1330    6.9520   -3.5610 C   0  0  0  0  0  0  0  0  0  0  0  0
   -8.6040    6.4620   -3.5150 C   0  0  0  0  0  0  0  0  0  0  0  0
   -9.2130    7.1740   -2.2840 C   0  0  1  0  0  0  0  0  0  0  0  0
   -9.5740    8.6070   -2.7880 C   0  0  0  0  0  0  0  0  0  0  0  0
  -10.4390    6.4710   -1.6160 C   0  0  2  0  0  0  0  0  0  0  0  0
  -11.6810    6.3330   -2.5140 C   0  0  0  0  0  0  0  0  0  0  0  0
  -12.6490    7.4680   -2.4420 C   0  0  0  0  0  0  0  0  0  0  0  0
  -12.6750    8.4140   -1.4850 C   0  0  0  0  0  0  0  0  0  0  0  0
  -11.7240    8.3460   -0.2830 C   0  0  1  0  0  0  0  0  0  0  0  0
  -12.5180    8.6130    1.0220 C   0  0  0  0  0  0  0  0  0  0  0  0
  -13.3020    9.9210    0.9720 C   0  0  0  0  0  0  0  0  0  0  0  0
  -14.2780    9.9280   -0.2010 C   0  0  2  0  0  0  0  0  0  0  0  0
  -15.2870    8.9410    0.0330 O   0  0  0  0  0  0  0  0  0  0  0  0
  -13.5920    9.6590   -1.5700 C   0  0  0  0  0  0  0  0  0  0  0  0
  -12.7230   10.8780   -1.9650 C   0  0  0  0  0  0  0  0  0  0  0  0
  -14.7040    9.5520   -2.6480 C   0  0  0  0  0  0  0  0  0  0  0  0
  -10.8170    7.0440   -0.1900 C   0  0  1  0  0  0  0  0  0  0  0  0
  -11.5880    5.9110    0.5540 C   0  0  0  0  0  0  0  0  0  0  0  0
   -9.5460    7.3630    0.6820 C   0  0  0  0  0  0  0  0  0  0  0  0
   -8.3250    7.9450   -0.0560 C   0  0  0  0  0  0  0  0  0  0  0  0
   -7.9900    7.1150   -1.2990 C   0  0  2  0  0  0  0  0  0  0  0  0
   -7.6010    5.6740   -0.8220 C   0  0  0  0  0  0  0  0  0  0  0  0
   -5.0579    5.6450   -0.5654 H   0  0  0  0  0  0  0  0  0  0  0  0
   -5.9185    5.3690   -2.1178 H   0  0  0  0  0  0  0  0  0  0  0  0
   -4.1576    5.7239   -2.1178 H   0  0  0  0  0  0  0  0  0  0  0  0
   -4.7151    7.8670   -2.4502 H   0  0  0  0  0  0  0  0  0  0  0  0
   -6.1483    8.6375   -0.0851 H   0  0  0  0  0  0  0  0  0  0  0  0
   -4.8663    7.4064    0.3440 H   0  0  0  0  0  0  0  0  0  0  0  0
   -4.4152   10.0122   -1.1612 H   0  0  0  0  0  0  0  0  0  0  0  0
   -4.0083    9.6702    0.5725 H   0  0  0  0  0  0  0  0  0  0  0  0
   -3.2824    7.8420   -1.3676 H   0  0  0  0  0  0  0  0  0  0  0  0
   -1.6712   11.3645   -0.1155 H   0  0  0  0  0  0  0  0  0  0  0  0
   -0.7758   11.4462   -1.6706 H   0  0  0  0  0  0  0  0  0  0  0  0
   -2.5703   11.3658   -1.6706 H   0  0  0  0  0  0  0  0  0  0  0  0
    0.2675    8.5012   -1.4048 H   0  0  0  0  0  0  0  0  0  0  0  0
   -0.9398    8.1438   -2.6860 H   0  0  0  0  0  0  0  0  0  0  0  0
   -0.0684    9.7146   -2.6860 H   0  0  0  0  0  0  0  0  0  0  0  0
   -6.8745    8.7474   -2.2305 H   0  0  0  0  0  0  0  0  0  0  0  0
   -6.9969    7.6649   -4.3876 H   0  0  0  0  0  0  0  0  0  0  0  0
   -6.4420    6.1121   -3.7258 H   0  0  0  0  0  0  0  0  0  0  0  0
   -9.1378    6.7486   -4.4331 H   0  0  0  0  0  0  0  0  0  0  0  0
   -8.6773    5.3668   -3.4426 H   0  0  0  0  0  0  0  0  0  0  0  0
   -9.7406    9.2681   -1.9248 H   0  0  0  0  0  0  0  0  0  0  0  0
   -8.7470    9.0006   -3.3971 H   0  0  0  0  0  0  0  0  0  0  0  0
  -10.4888    8.5618   -3.3971 H   0  0  0  0  0  0  0  0  0  0  0  0
  -10.0680    5.4472   -1.4602 H   0  0  0  0  0  0  0  0  0  0  0  0
  -11.3391    6.2433   -3.5557 H   0  0  0  0  0  0  0  0  0  0  0  0
  -12.2227    5.4473   -2.1505 H   0  0  0  0  0  0  0  0  0  0  0  0
  -13.4046    7.5366   -3.2385 H   0  0  0  0  0  0  0  0  0  0  0  0
  -10.9817    9.1430   -0.4372 H   0  0  0  0  0  0  0  0  0  0  0  0
  -13.2239    7.7845    1.1811 H   0  0  0  0  0  0  0  0  0  0  0  0
  -11.7922    8.6898    1.8450 H   0  0  0  0  0  0  0  0  0  0  0  0
  -13.8652   10.0391    1.9095 H   0  0  0  0  0  0  0  0  0  0  0  0
  -12.5918   10.7510    0.8425 H   0  0  0  0  0  0  0  0  0  0  0  0
  -14.7144   10.9359   -0.2611 H   0  0  0  0  0  0  0  0  0  0  0  0
  -16.1010    9.4080    0.2900 H   0  0  0  0  0  0  0  0  0  0  0  0
  -12.3636   11.3821   -1.0558 H   0  0  0  0  0  0  0  0  0  0  0  0
  -11.8627   10.5376   -2.5599 H   0  0  0  0  0  0  0  0  0  0  0  0
  -13.3253   11.5803   -2.5599 H   0  0  0  0  0  0  0  0  0  0  0  0
  -15.6835    9.4578   -2.1563 H   0  0  0  0  0  0  0  0  0  0  0  0
  -14.6942   10.4552   -3.2758 H   0  0  0  0  0  0  0  0  0  0  0  0
  -14.5222    8.6672   -3.2758 H   0  0  0  0  0  0  0  0  0  0  0  0
  -11.4909    6.0537    1.6404 H   0  0  0  0  0  0  0  0  0  0  0  0
  -12.6510    5.9453    0.2732 H   0  0  0  0  0  0  0  0  0  0  0  0
  -11.1659    4.9348    0.2732 H   0  0  0  0  0  0  0  0  0  0  0  0
   -9.8451    8.0879    1.4534 H   0  0  0  0  0  0  0  0  0  0  0  0
   -9.2110    6.3894    1.0692 H   0  0  0  0  0  0  0  0  0  0  0  0
   -8.5480    8.9778   -0.3621 H   0  0  0  0  0  0  0  0  0  0  0  0
   -7.4606    7.9235    0.6240 H   0  0  0  0  0  0  0  0  0  0  0  0
   -7.5923    5.6416    0.2775 H   0  0  0  0  0  0  0  0  0  0  0  0
   -8.3359    4.9503   -1.2043 H   0  0  0  0  0  0  0  0  0  0  0  0
   -6.6017    5.4185   -1.2043 H   0  0  0  0  0  0  0  0  0  0  0  0
  1  2  1  0
  2  3  1  0
  3  4  1  0
  4  5  1  0
  5  6  1  0
  6  7  1  0
  7  8  1  0
  7  9  1  0
  2 10  1  0
 10 11  1  0
 11 12  1  0
 12 13  1  0
 13 14  1  6
 13 15  1  0
 15 16  1  0
 16 17  1  0
 17 18  2  0
 18 19  1  0
 19 20  1  0
 20 21  1  0
 21 22  1  0
 22 23  1  0
 22 24  1  0
 24 25  1  0
 24 26  1  0
 19 27  1  0
 27 28  1  1
 27 29  1  0
 29 30  1  0
 30 31  1  0
 31 32  1  1
  7  5  1  0
 31 10  1  0
 31 13  1  0
 27 15  1  0
 24 18  1  0
  1 33  1  0
  1 34  1  0
  1 35  1  0
  2 36  1  6
  3 37  1  0
  3 38  1  0
  4 39  1  0
  4 40  1  0
  5 41  1  6
  8 42  1  0
  8 43  1  0
  8 44  1  0
  9 45  1  0
  9 46  1  0
  9 47  1  0
 10 48  1  6
 11 49  1  0
 11 50  1  0
 12 51  1  0
 12 52  1  0
 14 53  1  0
 14 54  1  0
 14 55  1  0
 15 56  1  1
 16 57  1  0
 16 58  1  0
 17 59  1  0
 19 60  1  6
 20 61  1  0
 20 62  1  0
 21 63  1  0
 21 64  1  0
 22 65  1  6
 23 66  1  0
 25 67  1  0
 25 68  1  0
 25 69  1  0
 26 70  1  0
 26 71  1  0
 26 72  1  0
 28 73  1  0
 28 74  1  0
 28 75  1  0
 29 76  1  0
 29 77  1  0
 30 78  1  0
 30 79  1  0
 32 80  1  0
 32 81  1  0
 32 82  1  0
M  END
>  <meeko>  (5) 
{"is_sidechain": [false], "intermolecular_energy": 2.731, "internal_energy": -0.839}

$$$$
EPH_relaxed_0001_pdb2pqr_Repair_183_r2_0001_out
     RDKit          3D

 82 86  0  0  0  0  0  0  0  0999 V2000
    3.2150   18.0710   -0.0540 C   0  0  0  0  0  0  0  0  0  0  0  0
    2.9520   17.1520   -1.2500 C   0  0  2  0  0  0  0  0  0  0  0  0
    2.4000   17.9240   -2.4650 C   0  0  0  0  0  0  0  0  0  0  0  0
    1.6540   19.2070   -2.0910 C   0  0  0  0  0  0  0  0  0  0  0  0
    0.1730   18.9870   -2.0210 C   0  0  2  0  0  0  0  0  0  0  0  0
   -0.6150   20.1820   -2.1060 O   0  0  0  0  0  0  0  0  0  0  0  0
   -0.6900   19.4610   -0.8660 C   0  0  0  0  0  0  0  0  0  0  0  0
   -0.1000   20.1920    0.2990 C   0  0  0  0  0  0  0  0  0  0  0  0
   -2.0090   18.7920   -0.6370 C   0  0  0  0  0  0  0  0  0  0  0  0
    1.9840   16.0450   -0.8510 C   0  0  1  0  0  0  0  0  0  0  0  0
    0.6520   16.5950   -0.2740 C   0  0  0  0  0  0  0  0  0  0  0  0
   -0.4670   15.6240   -0.7300 C   0  0  0  0  0  0  0  0  0  0  0  0
    0.2860   14.3830   -1.2640 C   0  0  1  0  0  0  0  0  0  0  0  0
    0.6550   13.5590    0.0090 C   0  0  0  0  0  0  0  0  0  0  0  0
   -0.4770   13.5110   -2.3150 C   0  0  2  0  0  0  0  0  0  0  0  0
   -1.7760   12.8630   -1.8050 C   0  0  0  0  0  0  0  0  0  0  0  0
   -1.6180   11.5030   -1.2070 C   0  0  0  0  0  0  0  0  0  0  0  0
   -0.5370   10.7120   -1.3390 C   0  0  0  0  0  0  0  0  0  0  0  0
    0.6380   11.1250   -2.2350 C   0  0  1  0  0  0  0  0  0  0  0  0
    1.0590    9.9260   -3.1240 C   0  0  0  0  0  0  0  0  0  0  0  0
    1.3600    8.6710   -2.3090 C   0  0  0  0  0  0  0  0  0  0  0  0
    0.1490    8.2580   -1.4760 C   0  0  2  0  0  0  0  0  0  0  0  0
   -0.8970    7.8410   -2.3590 O   0  0  0  0  0  0  0  0  0  0  0  0
   -0.3710    9.3910   -0.5480 C   0  0  0  0  0  0  0  0  0  0  0  0
    0.6440    9.6340    0.5960 C   0  0  0  0  0  0  0  0  0  0  0  0
   -1.6760    8.8920    0.1290 C   0  0  0  0  0  0  0  0  0  0  0  0
    0.4350   12.4620   -3.0710 C   0  0  1  0  0  0  0  0  0  0  0  0
   -0.2780   12.1430   -4.4200 C   0  0  0  0  0  0  0  0  0  0  0  0
    1.8460   13.0540   -3.4430 C   0  0  0  0  0  0  0  0  0  0  0  0
    2.4940   14.0040   -2.4170 C   0  0  0  0  0  0  0  0  0  0  0  0
    1.5050   15.0830   -1.9680 C   0  0  2  0  0  0  0  0  0  0  0  0
    1.1310   15.9420   -3.2240 C   0  0  0  0  0  0  0  0  0  0  0  0
    3.0551   17.5122    0.8799 H   0  0  0  0  0  0  0  0  0  0  0  0
    4.2529   18.4334   -0.0913 H   0  0  0  0  0  0  0  0  0  0  0  0
    2.5260   18.9276   -0.0913 H   0  0  0  0  0  0  0  0  0  0  0  0
    3.9153   16.7130   -1.5489 H   0  0  0  0  0  0  0  0  0  0  0  0
    3.2430   18.1906   -3.1194 H   0  0  0  0  0  0  0  0  0  0  0  0
    1.6747   17.2638   -2.9631 H   0  0  0  0  0  0  0  0  0  0  0  0
    2.0098   19.5529   -1.1093 H   0  0  0  0  0  0  0  0  0  0  0  0
    1.8526   19.9584   -2.8695 H   0  0  0  0  0  0  0  0  0  0  0  0
    0.2714   18.0097   -2.5163 H   0  0  0  0  0  0  0  0  0  0  0  0
   -0.4625   19.7429    1.2354 H   0  0  0  0  0  0  0  0  0  0  0  0
    0.9970   20.1211    0.2589 H   0  0  0  0  0  0  0  0  0  0  0  0
   -0.4008   21.2493    0.2589 H   0  0  0  0  0  0  0  0  0  0  0  0
   -2.1906   18.6999    0.4440 H   0  0  0  0  0  0  0  0  0  0  0  0
   -2.8092   19.3932   -1.0933 H   0  0  0  0  0  0  0  0  0  0  0  0
   -1.9967   17.7912   -1.0933 H   0  0  0  0  0  0  0  0  0  0  0  0
    2.6120   15.5016   -0.1297 H   0  0  0  0  0  0  0  0  0  0  0  0
    0.7001   16.6286    0.8244 H   0  0  0  0  0  0  0  0  0  0  0  0
    0.4584   17.6170   -0.6318 H   0  0  0  0  0  0  0  0  0  0  0  0
   -1.1133   15.3511    0.1173 H   0  0  0  0  0  0  0  0  0  0  0  0
   -1.1236   16.0722   -1.4902 H   0  0  0  0  0  0  0  0  0  0  0  0
    0.3960   14.1375    0.9080 H   0  0  0  0  0  0  0  0  0  0  0  0
    0.0949   12.6123    0.0081 H   0  0  0  0  0  0  0  0  0  0  0  0
    1.7343   13.3465    0.0081 H   0  0  0  0  0  0  0  0  0  0  0  0
   -0.7887   14.2577   -3.0601 H   0  0  0  0  0  0  0  0  0  0  0  0
   -2.2072   13.5235   -1.0384 H   0  0  0  0  0  0  0  0  0  0  0  0
   -2.4194   12.7346   -2.6879 H   0  0  0  0  0  0  0  0  0  0  0  0
   -2.4556   11.1155   -0.6085 H   0  0  0  0  0  0  0  0  0  0  0  0
    1.4601   11.3911   -1.5543 H   0  0  0  0  0  0  0  0  0  0  0  0
    0.2418    9.7032   -3.8258 H   0  0  0  0  0  0  0  0  0  0  0  0
    1.9807   10.2098   -3.6531 H   0  0  0  0  0  0  0  0  0  0  0  0
    1.6223    7.8512   -2.9940 H   0  0  0  0  0  0  0  0  0  0  0  0
    2.1971    8.8865   -1.6287 H   0  0  0  0  0  0  0  0  0  0  0  0
    0.4656    7.4348   -0.8186 H   0  0  0  0  0  0  0  0  0  0  0  0
   -1.7440    8.0130   -1.9140 H   0  0  0  0  0  0  0  0  0  0  0  0
    0.1392    9.5132    1.5658 H   0  0  0  0  0  0  0  0  0  0  0  0
    1.4660    8.9073    0.5174 H   0  0  0  0  0  0  0  0  0  0  0  0
    1.0478   10.6542    0.5174 H   0  0  0  0  0  0  0  0  0  0  0  0
   -1.5618    8.9357    1.2222 H   0  0  0  0  0  0  0  0  0  0  0  0
   -2.5162    9.5323   -0.1778 H   0  0  0  0  0  0  0  0  0  0  0  0
   -1.8746    7.8545   -0.1778 H   0  0  0  0  0  0  0  0  0  0  0  0
   -1.2649   11.7014   -4.2176 H   0  0  0  0  0  0  0  0  0  0  0  0
   -0.4029   13.0711   -4.9972 H   0  0  0  0  0  0  0  0  0  0  0  0
    0.3307   11.4314   -4.9972 H   0  0  0  0  0  0  0  0  0  0  0  0
    2.5327   12.2079   -3.5930 H   0  0  0  0  0  0  0  0  0  0  0  0
    1.6724   13.6712   -4.3368 H   0  0  0  0  0  0  0  0  0  0  0  0
    2.8143   13.4222   -1.5401 H   0  0  0  0  0  0  0  0  0  0  0  0
    3.3574   14.4947   -2.8900 H   0  0  0  0  0  0  0  0  0  0  0  0
    0.7116   16.9052   -2.8978 H   0  0  0  0  0  0  0  0  0  0  0  0
    2.0329   16.1205   -3.8280 H   0  0  0  0  0  0  0  0  0  0  0  0
    0.3859   15.4034   -3.8280 H   0  0  0  0  0  0  0  0  0  0  0  0
  1  2  1  0
  2  3  1  0
  3  4  1  0
  4  5  1  0
  5  6  1  0
  6  7  1  0
  7  8  1  0
  7  9  1  0
  2 10  1  0
 10 11  1  0
 11 12  1  0
 12 13  1  0
 13 14  1  1
 13 15  1  0
 15 16  1  0
 16 17  1  0
 17 18  2  0
 18 19  1  0
 19 20  1  0
 20 21  1  0
 21 22  1  0
 22 23  1  0
 22 24  1  0
 24 25  1  0
 24 26  1  0
 19 27  1  0
 27 28  1  6
 27 29  1  0
 29 30  1  0
 30 31  1  0
 31 32  1  6
  7  5  1  0
 31 10  1  0
 31 13  1  0
 27 15  1  0
 24 18  1  0
  1 33  1  0
  1 34  1  0
  1 35  1  0
  2 36  1  6
  3 37  1  0
  3 38  1  0
  4 39  1  0
  4 40  1  0
  5 41  1  6
  8 42  1  0
  8 43  1  0
  8 44  1  0
  9 45  1  0
  9 46  1  0
  9 47  1  0
 10 48  1  1
 11 49  1  0
 11 50  1  0
 12 51  1  0
 12 52  1  0
 14 53  1  0
 14 54  1  0
 14 55  1  0
 15 56  1  6
 16 57  1  0
 16 58  1  0
 17 59  1  0
 19 60  1  1
 20 61  1  0
 20 62  1  0
 21 63  1  0
 21 64  1  0
 22 65  1  1
 23 66  1  0
 25 67  1  0
 25 68  1  0
 25 69  1  0
 26 70  1  0
 26 71  1  0
 26 72  1  0
 28 73  1  0
 28 74  1  0
 28 75  1  0
 29 76  1  0
 29 77  1  0
 30 78  1  0
 30 79  1  0
 32 80  1  0
 32 81  1  0
 32 82  1  0
M  END
>  <meeko>  (6) 
{"is_sidechain": [false], "intermolecular_energy": 2.731, "internal_energy": -0.839}

$$$$
EPH_relaxed_0001_pdb2pqr_Repair_183_r2_0001_out
     RDKit          3D

 82 86  0  0  0  0  0  0  0  0999 V2000
    2.9400   18.9830   -0.9350 C   0  0  0  0  0  0  0  0  0  0  0  0
    2.7310   17.9530   -2.0490 C   0  0  2  0  0  0  0  0  0  0  0  0
    1.3820   18.1420   -2.7700 C   0  0  0  0  0  0  0  0  0  0  0  0
    0.6230   19.3990   -2.3350 C   0  0  0  0  0  0  0  0  0  0  0  0
   -0.7130   19.0630   -1.7440 C   0  0  2  0  0  0  0  0  0  0  0  0
   -1.5530   20.1940   -1.4810 O   0  0  0  0  0  0  0  0  0  0  0  0
   -1.1230   19.4440   -0.3330 C   0  0  0  0  0  0  0  0  0  0  0  0
   -0.1980   20.1940    0.5730 C   0  0  0  0  0  0  0  0  0  0  0  0
   -2.2210   18.6700    0.3260 C   0  0  0  0  0  0  0  0  0  0  0  0
    2.8230   16.5430   -1.4770 C   0  0  1  0  0  0  0  0  0  0  0  0
    3.4450   16.5140   -0.0550 C   0  0  0  0  0  0  0  0  0  0  0  0
    2.7290   15.3810    0.7230 C   0  0  0  0  0  0  0  0  0  0  0  0
    1.9650   14.5850   -0.3610 C   0  0  1  0  0  0  0  0  0  0  0  0
    3.0360   13.6440   -0.9970 C   0  0  0  0  0  0  0  0  0  0  0  0
    0.7100   13.7880    0.1220 C   0  0  2  0  0  0  0  0  0  0  0  0
    0.9980   12.6760    1.1460 C   0  0  0  0  0  0  0  0  0  0  0  0
    1.2800   11.3300    0.5640 C   0  0  0  0  0  0  0  0  0  0  0  0
    1.0250   10.9570   -0.7040 C   0  0  0  0  0  0  0  0  0  0  0  0
    0.3030   11.9020   -1.6720 C   0  0  1  0  0  0  0  0  0  0  0  0
   -0.8120   11.1250   -2.4200 C   0  0  0  0  0  0  0  0  0  0  0  0
   -0.2880    9.8700   -3.1110 C   0  0  0  0  0  0  0  0  0  0  0  0
    0.3710    8.9290   -2.1060 C   0  0  2  0  0  0  0  0  0  0  0  0
   -0.6320    8.4270   -1.2170 O   0  0  0  0  0  0  0  0  0  0  0  0
    1.5050    9.6050   -1.2860 C   0  0  0  0  0  0  0  0  0  0  0  0
    2.7220    9.8770   -2.2050 C   0  0  0  0  0  0  0  0  0  0  0  0
    1.9890    8.5920   -0.2140 C   0  0  0  0  0  0  0  0  0  0  0  0
   -0.2190   13.2680   -1.0490 C   0  0  1  0  0  0  0  0  0  0  0  0
   -1.6380   13.0660   -0.4360 C   0  0  0  0  0  0  0  0  0  0  0  0
   -0.3800   14.3300   -2.2010 C   0  0  0  0  0  0  0  0  0  0  0  0
    0.8640   15.1700   -2.5510 C   0  0  0  0  0  0  0  0  0  0  0  0
    1.4970   15.7640   -1.2890 C   0  0  2  0  0  0  0  0  0  0  0  0
    0.4500   16.7330   -0.6400 C   0  0  0  0  0  0  0  0  0  0  0  0
    2.8400   18.4903    0.0434 H   0  0  0  0  0  0  0  0  0  0  0  0
    3.9453   19.4206   -1.0241 H   0  0  0  0  0  0  0  0  0  0  0  0
    2.1848   19.7778   -1.0241 H   0  0  0  0  0  0  0  0  0  0  0  0
    3.5265   18.1052   -2.7933 H   0  0  0  0  0  0  0  0  0  0  0  0
    1.5723   18.2079   -3.8514 H   0  0  0  0  0  0  0  0  0  0  0  0
    0.7528   17.2790   -2.5067 H   0  0  0  0  0  0  0  0  0  0  0  0
    1.2211   19.9342   -1.5828 H   0  0  0  0  0  0  0  0  0  0  0  0
    0.4571   20.0245   -3.2245 H   0  0  0  0  0  0  0  0  0  0  0  0
   -0.7395   18.1070   -2.2875 H   0  0  0  0  0  0  0  0  0  0  0  0
   -0.4591   19.9823    1.6204 H   0  0  0  0  0  0  0  0  0  0  0  0
    0.8382   19.8779    0.3823 H   0  0  0  0  0  0  0  0  0  0  0  0
   -0.2931   21.2732    0.3823 H   0  0  0  0  0  0  0  0  0  0  0  0
   -2.1167   18.7435    1.4186 H   0  0  0  0  0  0  0  0  0  0  0  0
   -3.1942   19.0828    0.0219 H   0  0  0  0  0  0  0  0  0  0  0  0
   -2.1592   17.6147    0.0219 H   0  0  0  0  0  0  0  0  0  0  0  0
    3.4320   16.0663   -2.2592 H   0  0  0  0  0  0  0  0  0  0  0  0
    4.5237   16.3076   -0.1175 H   0  0  0  0  0  0  0  0  0  0  0  0
    3.3182   17.4822    0.4514 H   0  0  0  0  0  0  0  0  0  0  0  0
    3.4610   14.7378    1.2333 H   0  0  0  0  0  0  0  0  0  0  0  0
    2.0593   15.7702    1.5040 H   0  0  0  0  0  0  0  0  0  0  0  0
    3.6050   13.1441   -0.1993 H   0  0  0  0  0  0  0  0  0  0  0  0
    2.5360   12.8877   -1.6199 H   0  0  0  0  0  0  0  0  0  0  0  0
    3.7217   14.2371   -1.6199 H   0  0  0  0  0  0  0  0  0  0  0  0
    0.1389   14.5551    0.6654 H   0  0  0  0  0  0  0  0  0  0  0  0
    1.8726   12.9794    1.7401 H   0  0  0  0  0  0  0  0  0  0  0  0
    0.0790   12.5641    1.7400 H   0  0  0  0  0  0  0  0  0  0  0  0
    1.7346   10.5798    1.2277 H   0  0  0  0  0  0  0  0  0  0  0  0
    1.0655   12.2430   -2.3878 H   0  0  0  0  0  0  0  0  0  0  0  0
   -1.5847   10.8314   -1.6943 H   0  0  0  0  0  0  0  0  0  0  0  0
   -1.2179   11.7892   -3.1972 H   0  0  0  0  0  0  0  0  0  0  0  0
   -1.1268    9.3490   -3.5956 H   0  0  0  0  0  0  0  0  0  0  0  0
    0.4627   10.1678   -3.8578 H   0  0  0  0  0  0  0  0  0  0  0  0
    0.8398    8.1137   -2.6765 H   0  0  0  0  0  0  0  0  0  0  0  0
   -1.1580    9.1850   -0.9090 H   0  0  0  0  0  0  0  0  0  0  0  0
    3.6105   10.0756   -1.5877 H   0  0  0  0  0  0  0  0  0  0  0  0
    2.9057    8.9978   -2.8400 H   0  0  0  0  0  0  0  0  0  0  0  0
    2.5139   10.7508   -2.8400 H   0  0  0  0  0  0  0  0  0  0  0  0
    1.7946    8.9990    0.7893 H   0  0  0  0  0  0  0  0  0  0  0  0
    1.4473    7.6424   -0.3358 H   0  0  0  0  0  0  0  0  0  0  0  0
    3.0681    8.4168   -0.3358 H   0  0  0  0  0  0  0  0  0  0  0  0
   -1.5680   13.0760    0.6617 H   0  0  0  0  0  0  0  0  0  0  0  0
   -2.3002   13.8789   -0.7686 H   0  0  0  0  0  0  0  0  0  0  0  0
   -2.0471   12.1006   -0.7686 H   0  0  0  0  0  0  0  0  0  0  0  0
   -0.6841   13.7909   -3.1104 H   0  0  0  0  0  0  0  0  0  0  0  0
   -1.1188   15.0529   -1.8247 H   0  0  0  0  0  0  0  0  0  0  0  0
    1.6013   14.5282   -3.0555 H   0  0  0  0  0  0  0  0  0  0  0  0
    0.5562   15.9947   -3.2106 H   0  0  0  0  0  0  0  0  0  0  0  0
    0.5202   16.6680    0.4558 H   0  0  0  0  0  0  0  0  0  0  0  0
    0.6575   17.7647   -0.9602 H   0  0  0  0  0  0  0  0  0  0  0  0
   -0.5626   16.4464   -0.9602 H   0  0  0  0  0  0  0  0  0  0  0  0
  1  2  1  0
  2  3  1  0
  3  4  1  0
  4  5  1  0
  5  6  1  0
  6  7  1  0
  7  8  1  0
  7  9  1  0
  2 10  1  0
 10 11  1  0
 11 12  1  0
 12 13  1  0
 13 14  1  6
 13 15  1  0
 15 16  1  0
 16 17  1  0
 17 18  2  0
 18 19  1  0
 19 20  1  0
 20 21  1  0
 21 22  1  0
 22 23  1  0
 22 24  1  0
 24 25  1  0
 24 26  1  0
 19 27  1  0
 27 28  1  1
 27 29  1  0
 29 30  1  0
 30 31  1  0
 31 32  1  1
  7  5  1  0
 31 10  1  0
 31 13  1  0
 27 15  1  0
 24 18  1  0
  1 33  1  0
  1 34  1  0
  1 35  1  0
  2 36  1  6
  3 37  1  0
  3 38  1  0
  4 39  1  0
  4 40  1  0
  5 41  1  6
  8 42  1  0
  8 43  1  0
  8 44  1  0
  9 45  1  0
  9 46  1  0
  9 47  1  0
 10 48  1  6
 11 49  1  0
 11 50  1  0
 12 51  1  0
 12 52  1  0
 14 53  1  0
 14 54  1  0
 14 55  1  0
 15 56  1  1
 16 57  1  0
 16 58  1  0
 17 59  1  0
 19 60  1  6
 20 61  1  0
 20 62  1  0
 21 63  1  0
 21 64  1  0
 22 65  1  6
 23 66  1  0
 25 67  1  0
 25 68  1  0
 25 69  1  0
 26 70  1  0
 26 71  1  0
 26 72  1  0
 28 73  1  0
 28 74  1  0
 28 75  1  0
 29 76  1  0
 29 77  1  0
 30 78  1  0
 30 79  1  0
 32 80  1  0
 32 81  1  0
 32 82  1  0
M  END
>  <meeko>  (7) 
{"is_sidechain": [false], "intermolecular_energy": 2.731, "internal_energy": -0.839}

$$$$
EPH_relaxed_0001_pdb2pqr_Repair_183_r2_0001_out
     RDKit          3D

 82 86  0  0  0  0  0  0  0  0999 V2000
   -0.3030   15.0740   -7.6410 C   0  0  0  0  0  0  0  0  0  0  0  0
    1.0570   15.0460   -6.9370 C   0  0  2  0  0  0  0  0  0  0  0  0
    2.2290   15.1230   -7.9360 C   0  0  0  0  0  0  0  0  0  0  0  0
    2.2940   16.4440   -8.7080 C   0  0  0  0  0  0  0  0  0  0  0  0
    1.9000   16.2670  -10.1430 C   0  0  2  0  0  0  0  0  0  0  0  0
    1.2270   15.0350  -10.4320 O   0  0  0  0  0  0  0  0  0  0  0  0
    2.5090   15.2190  -11.0550 C   0  0  0  0  0  0  0  0  0  0  0  0
    3.5640   14.2780  -10.5660 C   0  0  0  0  0  0  0  0  0  0  0  0
    2.4340   15.4280  -12.5350 C   0  0  0  0  0  0  0  0  0  0  0  0
    1.1780   13.7850   -6.0890 C   0  0  1  0  0  0  0  0  0  0  0  0
    2.6120   13.1940   -6.0990 C   0  0  0  0  0  0  0  0  0  0  0  0
    2.8590   12.5960   -4.6900 C   0  0  0  0  0  0  0  0  0  0  0  0
    1.4620   12.5640   -4.0290 C   0  0  1  0  0  0  0  0  0  0  0  0
    0.7800   11.2780   -4.5930 C   0  0  0  0  0  0  0  0  0  0  0  0
    1.4350   12.5930   -2.4660 C   0  0  2  0  0  0  0  0  0  0  0  0
    2.1060   11.3900   -1.7800 C   0  0  0  0  0  0  0  0  0  0  0  0
    1.2040   10.2360   -1.4940 C   0  0  0  0  0  0  0  0  0  0  0  0
   -0.1420   10.2700   -1.5140 C   0  0  0  0  0  0  0  0  0  0  0  0
   -0.8920   11.5870   -1.7520 C   0  0  1  0  0  0  0  0  0  0  0  0
   -2.0350   11.7270   -0.7130 C   0  0  0  0  0  0  0  0  0  0  0  0
   -2.9660   10.5180   -0.7010 C   0  0  0  0  0  0  0  0  0  0  0  0
   -2.1930    9.2370   -0.4030 C   0  0  2  0  0  0  0  0  0  0  0  0
   -1.7030    9.2960    0.9400 O   0  0  0  0  0  0  0  0  0  0  0  0
   -1.0090    8.9940   -1.3810 C   0  0  0  0  0  0  0  0  0  0  0  0
   -1.5580    8.6310   -2.7830 C   0  0  0  0  0  0  0  0  0  0  0  0
   -0.2270    7.7480   -0.8840 C   0  0  0  0  0  0  0  0  0  0  0  0
    0.0100   12.8920   -1.8470 C   0  0  1  0  0  0  0  0  0  0  0  0
    0.2560   13.4730   -0.4210 C   0  0  0  0  0  0  0  0  0  0  0  0
   -0.7710   13.9990   -2.6490 C   0  0  0  0  0  0  0  0  0  0  0  0
   -0.6090   13.9910   -4.1810 C   0  0  0  0  0  0  0  0  0  0  0  0
    0.8680   13.9130   -4.5770 C   0  0  2  0  0  0  0  0  0  0  0  0
    1.5750   15.2050   -4.0420 C   0  0  0  0  0  0  0  0  0  0  0  0
   -1.1051   15.0905   -6.8885 H   0  0  0  0  0  0  0  0  0  0  0  0
   -0.3718   15.9738   -8.2701 H   0  0  0  0  0  0  0  0  0  0  0  0
   -0.4088   14.1778   -8.2701 H   0  0  0  0  0  0  0  0  0  0  0  0
    1.1137   15.9348   -6.2914 H   0  0  0  0  0  0  0  0  0  0  0  0
    3.1692   15.0000   -7.3785 H   0  0  0  0  0  0  0  0  0  0  0  0
    2.0729   14.3250   -8.6769 H   0  0  0  0  0  0  0  0  0  0  0  0
    1.6107   17.1661   -8.2371 H   0  0  0  0  0  0  0  0  0  0  0  0
    3.3319   16.8072   -8.6795 H   0  0  0  0  0  0  0  0  0  0  0  0
    1.7526   17.3508  -10.2600 H   0  0  0  0  0  0  0  0  0  0  0  0
    3.5696   14.2730   -9.4660 H   0  0  0  0  0  0  0  0  0  0  0  0
    3.3513   13.2642  -10.9362 H   0  0  0  0  0  0  0  0  0  0  0  0
    4.5469   14.6048  -10.9362 H   0  0  0  0  0  0  0  0  0  0  0  0
    2.0692   16.4445  -12.7437 H   0  0  0  0  0  0  0  0  0  0  0  0
    3.4342   15.2999  -12.9745 H   0  0  0  0  0  0  0  0  0  0  0  0
    1.7435   14.6932  -12.9745 H   0  0  0  0  0  0  0  0  0  0  0  0
    0.4159   13.1602   -6.5776 H   0  0  0  0  0  0  0  0  0  0  0  0
    2.6922   12.4074   -6.8638 H   0  0  0  0  0  0  0  0  0  0  0  0
    3.3567   13.9682   -6.3356 H   0  0  0  0  0  0  0  0  0  0  0  0
    3.2756   11.5808   -4.7667 H   0  0  0  0  0  0  0  0  0  0  0  0
    3.5823   13.1857   -4.1077 H   0  0  0  0  0  0  0  0  0  0  0  0
    0.4443   10.6449   -3.7584 H   0  0  0  0  0  0  0  0  0  0  0  0
   -0.0859   11.5623   -5.2090 H   0  0  0  0  0  0  0  0  0  0  0  0
    1.5011   10.7207   -5.2090 H   0  0  0  0  0  0  0  0  0  0  0  0
    2.0701   13.4609   -2.2351 H   0  0  0  0  0  0  0  0  0  0  0  0
    2.9165   11.0345   -2.4333 H   0  0  0  0  0  0  0  0  0  0  0  0
    2.4561   11.7528   -0.8024 H   0  0  0  0  0  0  0  0  0  0  0  0
    1.6793    9.2756   -1.2456 H   0  0  0  0  0  0  0  0  0  0  0  0
   -1.3149   11.5169   -2.7650 H   0  0  0  0  0  0  0  0  0  0  0  0
   -1.5907   11.8399    0.2869 H   0  0  0  0  0  0  0  0  0  0  0  0
   -2.6337   12.6068   -0.9916 H   0  0  0  0  0  0  0  0  0  0  0  0
   -3.7343   10.6630    0.0728 H   0  0  0  0  0  0  0  0  0  0  0  0
   -3.4319   10.4240   -1.6930 H   0  0  0  0  0  0  0  0  0  0  0  0
   -2.8875    8.3944   -0.5359 H   0  0  0  0  0  0  0  0  0  0  0  0
   -0.8800    9.8130    0.9310 H   0  0  0  0  0  0  0  0  0  0  0  0
   -2.4711    8.0273   -2.6742 H   0  0  0  0  0  0  0  0  0  0  0  0
   -1.7918    9.5531   -3.3353 H   0  0  0  0  0  0  0  0  0  0  0  0
   -0.8011    8.0548   -3.3353 H   0  0  0  0  0  0  0  0  0  0  0  0
   -0.2188    7.7349    0.2159 H   0  0  0  0  0  0  0  0  0  0  0  0
   -0.7148    6.8357   -1.2579 H   0  0  0  0  0  0  0  0  0  0  0  0
    0.8066    7.7906   -1.2579 H   0  0  0  0  0  0  0  0  0  0  0  0
   -0.0559   12.7363    0.3339 H   0  0  0  0  0  0  0  0  0  0  0  0
    1.3258   13.6961   -0.2955 H   0  0  0  0  0  0  0  0  0  0  0  0
   -0.3283   14.3965   -0.2955 H   0  0  0  0  0  0  0  0  0  0  0  0
   -1.8415   13.8780   -2.4269 H   0  0  0  0  0  0  0  0  0  0  0  0
   -0.3369   14.9542   -2.3186 H   0  0  0  0  0  0  0  0  0  0  0  0
   -1.1385   13.1198   -4.5940 H   0  0  0  0  0  0  0  0  0  0  0  0
   -1.0303   14.9244   -4.5825 H   0  0  0  0  0  0  0  0  0  0  0  0
    1.5705   15.1967   -2.9420 H   0  0  0  0  0  0  0  0  0  0  0  0
    2.6133   15.2315   -4.4042 H   0  0  0  0  0  0  0  0  0  0  0  0
    1.0375   16.0938   -4.4042 H   0  0  0  0  0  0  0  0  0  0  0  0
  1  2  1  0
  2  3  1  0
  3  4  1  0
  4  5  1  0
  5  6  1  0
  6  7  1  0
  7  8  1  0
  7  9  1  0
  2 10  1  0
 10 11  1  0
 11 12  1  0
 12 13  1  0
 13 14  1  6
 13 15  1  0
 15 16  1  0
 16 17  1  0
 17 18  2  0
 18 19  1  0
 19 20  1  0
 20 21  1  0
 21 22  1  0
 22 23  1  0
 22 24  1  0
 24 25  1  0
 24 26  1  0
 19 27  1  0
 27 28  1  1
 27 29  1  0
 29 30  1  0
 30 31  1  0
 31 32  1  1
  7  5  1  0
 31 10  1  0
 31 13  1  0
 27 15  1  0
 24 18  1  0
  1 33  1  0
  1 34  1  0
  1 35  1  0
  2 36  1  1
  3 37  1  0
  3 38  1  0
  4 39  1  0
  4 40  1  0
  5 41  1  6
  8 42  1  0
  8 43  1  0
  8 44  1  0
  9 45  1  0
  9 46  1  0
  9 47  1  0
 10 48  1  6
 11 49  1  0
 11 50  1  0
 12 51  1  0
 12 52  1  0
 14 53  1  0
 14 54  1  0
 14 55  1  0
 15 56  1  1
 16 57  1  0
 16 58  1  0
 17 59  1  0
 19 60  1  6
 20 61  1  0
 20 62  1  0
 21 63  1  0
 21 64  1  0
 22 65  1  1
 23 66  1  0
 25 67  1  0
 25 68  1  0
 25 69  1  0
 26 70  1  0
 26 71  1  0
 26 72  1  0
 28 73  1  0
 28 74  1  0
 28 75  1  0
 29 76  1  0
 29 77  1  0
 30 78  1  0
 30 79  1  0
 32 80  1  0
 32 81  1  0
 32 82  1  0
M  END
>  <meeko>  (8) 
{"is_sidechain": [false], "intermolecular_energy": 2.731, "internal_energy": -0.839}

$$$$
EPH_relaxed_0001_pdb2pqr_Repair_183_r2_0001_out
     RDKit          3D

 82 86  0  0  0  0  0  0  0  0999 V2000
   -3.8470    7.0370   -3.3070 C   0  0  0  0  0  0  0  0  0  0  0  0
   -3.9230    7.1680   -1.7830 C   0  0  2  0  0  0  0  0  0  0  0  0
   -5.3570    6.9620   -1.2540 C   0  0  0  0  0  0  0  0  0  0  0  0
   -6.4460    7.3470   -2.2590 C   0  0  0  0  0  0  0  0  0  0  0  0
   -7.7760    7.5300   -1.5930 C   0  0  2  0  0  0  0  0  0  0  0  0
   -8.3450    6.3300   -1.0540 O   0  0  0  0  0  0  0  0  0  0  0  0
   -9.0680    6.9460   -2.1310 C   0  0  0  0  0  0  0  0  0  0  0  0
   -9.0940    6.1360   -3.3890 C   0  0  0  0  0  0  0  0  0  0  0  0
  -10.3640    7.5680   -1.7110 C   0  0  0  0  0  0  0  0  0  0  0  0
   -3.4000    8.5330   -1.3520 C   0  0  1  0  0  0  0  0  0  0  0  0
   -3.8490    8.9190    0.0820 C   0  0  0  0  0  0  0  0  0  0  0  0
   -2.6820    9.7210    0.7150 C   0  0  0  0  0  0  0  0  0  0  0  0
   -1.7490   10.0540   -0.4720 C   0  0  1  0  0  0  0  0  0  0  0  0
   -2.3980   11.2970   -1.1560 C   0  0  0  0  0  0  0  0  0  0  0  0
   -0.2470   10.3080   -0.1190 C   0  0  2  0  0  0  0  0  0  0  0  0
    0.0130   11.5150    0.7990 C   0  0  0  0  0  0  0  0  0  0  0  0
    0.2490   12.8110    0.0970 C   0  0  0  0  0  0  0  0  0  0  0  0
    0.5360   12.9520   -1.2110 C   0  0  0  0  0  0  0  0  0  0  0  0
    0.7440   11.7240   -2.1080 C   0  0  1  0  0  0  0  0  0  0  0  0
    2.0170   11.9240   -2.9710 C   0  0  0  0  0  0  0  0  0  0  0  0
    1.9880   13.2270   -3.7640 C   0  0  0  0  0  0  0  0  0  0  0  0
    1.8380   14.4280   -2.8330 C   0  0  2  0  0  0  0  0  0  0  0  0
    3.0220   14.5460   -2.0380 O   0  0  0  0  0  0  0  0  0  0  0  0
    0.5940   14.3340   -1.9060 C   0  0  0  0  0  0  0  0  0  0  0  0
   -0.6950   14.5100   -2.7470 C   0  0  0  0  0  0  0  0  0  0  0  0
    0.6390   15.5350   -0.9230 C   0  0  0  0  0  0  0  0  0  0  0  0
    0.7210   10.3160   -1.3710 C   0  0  1  0  0  0  0  0  0  0  0  0
    2.1440    9.9720   -0.8360 C   0  0  0  0  0  0  0  0  0  0  0  0
    0.3560    9.1960   -2.4160 C   0  0  0  0  0  0  0  0  0  0  0  0
   -1.1420    8.9090   -2.6320 C   0  0  0  0  0  0  0  0  0  0  0  0
   -1.8630    8.7190   -1.2940 C   0  0  2  0  0  0  0  0  0  0  0  0
   -1.2450    7.4620   -0.5920 C   0  0  0  0  0  0  0  0  0  0  0  0
   -3.3109    6.1130   -3.5693 H   0  0  0  0  0  0  0  0  0  0  0  0
   -4.8646    7.0013   -3.7232 H   0  0  0  0  0  0  0  0  0  0  0  0
   -3.3109    7.9027   -3.7232 H   0  0  0  0  0  0  0  0  0  0  0  0
   -3.2942    6.3758   -1.3506 H   0  0  0  0  0  0  0  0  0  0  0  0
   -5.4826    5.9001   -0.9960 H   0  0  0  0  0  0  0  0  0  0  0  0
   -5.4759    7.6230   -0.3828 H   0  0  0  0  0  0  0  0  0  0  0  0
   -6.1608    8.2890   -2.7501 H   0  0  0  0  0  0  0  0  0  0  0  0
   -6.5391    6.5323   -2.9922 H   0  0  0  0  0  0  0  0  0  0  0  0
   -7.5027    8.5464   -1.2731 H   0  0  0  0  0  0  0  0  0  0  0  0
   -9.1283    5.0661   -3.1356 H   0  0  0  0  0  0  0  0  0  0  0  0
   -9.9841    6.4020   -3.9781 H   0  0  0  0  0  0  0  0  0  0  0  0
   -8.1887    6.3444   -3.9781 H   0  0  0  0  0  0  0  0  0  0  0  0
  -10.4191    7.5944   -0.6127 H   0  0  0  0  0  0  0  0  0  0  0  0
  -10.4238    8.5929   -2.1059 H   0  0  0  0  0  0  0  0  0  0  0  0
  -11.2010    6.9735   -2.1059 H   0  0  0  0  0  0  0  0  0  0  0  0
   -3.8245    9.1551   -2.1537 H   0  0  0  0  0  0  0  0  0  0  0  0
   -4.7565    9.5393    0.0408 H   0  0  0  0  0  0  0  0  0  0  0  0
   -4.0822    8.0240    0.6775 H   0  0  0  0  0  0  0  0  0  0  0  0
   -3.0547   10.6424    1.1864 H   0  0  0  0  0  0  0  0  0  0  0  0
   -2.1666    9.1547    1.5047 H   0  0  0  0  0  0  0  0  0  0  0  0
   -2.7610   11.9922   -0.3846 H   0  0  0  0  0  0  0  0  0  0  0  0
   -1.6492   11.8033   -1.7828 H   0  0  0  0  0  0  0  0  0  0  0  0
   -3.2415   10.9719   -1.7828 H   0  0  0  0  0  0  0  0  0  0  0  0
    0.0080    9.4191    0.4766 H   0  0  0  0  0  0  0  0  0  0  0  0
   -0.8616   11.6380    1.4546 H   0  0  0  0  0  0  0  0  0  0  0  0
    0.9426   11.2895    1.3421 H   0  0  0  0  0  0  0  0  0  0  0  0
    0.1828   13.7290    0.6995 H   0  0  0  0  0  0  0  0  0  0  0  0
   -0.1420   11.6670   -2.7574 H   0  0  0  0  0  0  0  0  0  0  0  0
    2.8945   11.9344   -2.3077 H   0  0  0  0  0  0  0  0  0  0  0  0
    2.0645   11.0952   -3.6927 H   0  0  0  0  0  0  0  0  0  0  0  0
    2.9260   13.3251   -4.3301 H   0  0  0  0  0  0  0  0  0  0  0  0
    1.1271   13.2030   -4.4483 H   0  0  0  0  0  0  0  0  0  0  0  0
    1.6923   15.3173   -3.4638 H   0  0  0  0  0  0  0  0  0  0  0  0
    3.3970   15.4290   -2.1980 H   0  0  0  0  0  0  0  0  0  0  0  0
   -1.5579   14.6278   -2.0751 H   0  0  0  0  0  0  0  0  0  0  0  0
   -0.5997   15.4035   -3.3815 H   0  0  0  0  0  0  0  0  0  0  0  0
   -0.8427   13.6237   -3.3815 H   0  0  0  0  0  0  0  0  0  0  0  0
    0.6250   15.1625    0.1119 H   0  0  0  0  0  0  0  0  0  0  0  0
    1.5594   16.1131   -1.0922 H   0  0  0  0  0  0  0  0  0  0  0  0
   -0.2356   16.1803   -1.0922 H   0  0  0  0  0  0  0  0  0  0  0  0
    2.1327    9.9747    0.2639 H   0  0  0  0  0  0  0  0  0  0  0  0
    2.4407    8.9763   -1.1972 H   0  0  0  0  0  0  0  0  0  0  0  0
    2.8628   10.7223   -1.1972 H   0  0  0  0  0  0  0  0  0  0  0  0
    0.7808    9.4945   -3.3857 H   0  0  0  0  0  0  0  0  0  0  0  0
    0.7697    8.2665   -1.9979 H   0  0  0  0  0  0  0  0  0  0  0  0
   -1.5966    9.7548   -3.1687 H   0  0  0  0  0  0  0  0  0  0  0  0
   -1.2405    7.9832   -3.2178 H   0  0  0  0  0  0  0  0  0  0  0  0
   -1.3054    7.5848    0.4995 H   0  0  0  0  0  0  0  0  0  0  0  0
   -1.8039    6.5631   -0.8913 H   0  0  0  0  0  0  0  0  0  0  0  0
   -0.1919    7.3556   -0.8913 H   0  0  0  0  0  0  0  0  0  0  0  0
  1  2  1  0
  2  3  1  0
  3  4  1  0
  4  5  1  0
  5  6  1  0
  6  7  1  0
  7  8  1  0
  7  9  1  0
  2 10  1  0
 10 11  1  0
 11 12  1  0
 12 13  1  0
 13 14  1  6
 13 15  1  0
 15 16  1  0
 16 17  1  0
 17 18  2  0
 18 19  1  0
 19 20  1  0
 20 21  1  0
 21 22  1  0
 22 23  1  0
 22 24  1  0
 24 25  1  0
 24 26  1  0
 19 27  1  0
 27 28  1  1
 27 29  1  0
 29 30  1  0
 30 31  1  0
 31 32  1  1
  7  5  1  0
 31 10  1  0
 31 13  1  0
 27 15  1  0
 24 18  1  0
  1 33  1  0
  1 34  1  0
  1 35  1  0
  2 36  1  1
  3 37  1  0
  3 38  1  0
  4 39  1  0
  4 40  1  0
  5 41  1  1
  8 42  1  0
  8 43  1  0
  8 44  1  0
  9 45  1  0
  9 46  1  0
  9 47  1  0
 10 48  1  6
 11 49  1  0
 11 50  1  0
 12 51  1  0
 12 52  1  0
 14 53  1  0
 14 54  1  0
 14 55  1  0
 15 56  1  1
 16 57  1  0
 16 58  1  0
 17 59  1  0
 19 60  1  6
 20 61  1  0
 20 62  1  0
 21 63  1  0
 21 64  1  0
 22 65  1  6
 23 66  1  0
 25 67  1  0
 25 68  1  0
 25 69  1  0
 26 70  1  0
 26 71  1  0
 26 72  1  0
 28 73  1  0
 28 74  1  0
 28 75  1  0
 29 76  1  0
 29 77  1  0
 30 78  1  0
 30 79  1  0
 32 80  1  0
 32 81  1  0
 32 82  1  0
M  END
>  <meeko>  (9) 
{"is_sidechain": [false], "intermolecular_energy": 2.731, "internal_energy": -0.839}

$$$$
EPH_relaxed_0001_pdb2pqr_Repair_183_r2_0001_out
     RDKit          3D

 82 86  0  0  0  0  0  0  0  0999 V2000
   -2.1290   10.2610    0.1720 C   0  0  0  0  0  0  0  0  0  0  0  0
   -0.6950   10.3940   -0.3490 C   0  0  2  0  0  0  0  0  0  0  0  0
    0.2150    9.2570    0.1570 C   0  0  0  0  0  0  0  0  0  0  0  0
    0.5260    8.1980   -0.9040 C   0  0  0  0  0  0  0  0  0  0  0  0
   -0.7210    7.5410   -1.4140 C   0  0  2  0  0  0  0  0  0  0  0  0
   -0.5930    6.9350   -2.7070 O   0  0  0  0  0  0  0  0  0  0  0  0
   -1.5010    8.0450   -2.6150 C   0  0  0  0  0  0  0  0  0  0  0  0
   -1.0620    9.2550   -3.3780 C   0  0  0  0  0  0  0  0  0  0  0  0
   -2.9410    7.6580   -2.7460 C   0  0  0  0  0  0  0  0  0  0  0  0
   -0.1180   11.7440    0.0580 C   0  0  1  0  0  0  0  0  0  0  0  0
    1.1200   11.6100    0.9850 C   0  0  0  0  0  0  0  0  0  0  0  0
    2.0780   12.7730    0.6230 C   0  0  0  0  0  0  0  0  0  0  0  0
    1.2270   13.7220   -0.2530 C   0  0  1  0  0  0  0  0  0  0  0  0
    0.3880   14.5610    0.7610 C   0  0  0  0  0  0  0  0  0  0  0  0
    2.0140   14.6360   -1.2470 C   0  0  2  0  0  0  0  0  0  0  0  0
    2.9760   15.6400   -0.5880 C   0  0  0  0  0  0  0  0  0  0  0  0
    2.3860   16.9730   -0.2680 C   0  0  0  0  0  0  0  0  0  0  0  0
    1.2250   17.4510   -0.7530 C   0  0  0  0  0  0  0  0  0  0  0  0
    0.4230   16.6630   -1.7960 C   0  0  1  0  0  0  0  0  0  0  0  0
   -0.0190   17.6160   -2.9380 C   0  0  0  0  0  0  0  0  0  0  0  0
   -0.7750   18.8360   -2.4210 C   0  0  0  0  0  0  0  0  0  0  0  0
    0.0770   19.6260   -1.4310 C   0  0  2  0  0  0  0  0  0  0  0  0
    1.1900   20.1920   -2.1290 O   0  0  0  0  0  0  0  0  0  0  0  0
    0.5880   18.7670   -0.2410 C   0  0  0  0  0  0  0  0  0  0  0  0
   -0.5980   18.4040    0.6870 C   0  0  0  0  0  0  0  0  0  0  0  0
    1.5480   19.6460    0.6050 C   0  0  0  0  0  0  0  0  0  0  0  0
    1.1090   15.3360   -2.3400 C   0  0  1  0  0  0  0  0  0  0  0  0
    2.0430   15.6740   -3.5420 C   0  0  0  0  0  0  0  0  0  0  0  0
   -0.0050   14.3740   -2.9000 C   0  0  0  0  0  0  0  0  0  0  0  0
   -0.6610   13.4110   -1.8920 C   0  0  0  0  0  0  0  0  0  0  0  0
    0.3990   12.6670   -1.0740 C   0  0  2  0  0  0  0  0  0  0  0  0
    1.2440   11.7970   -2.0650 C   0  0  0  0  0  0  0  0  0  0  0  0
   -2.1210   10.2617    1.2720 H   0  0  0  0  0  0  0  0  0  0  0  0
   -2.7309   11.1072   -0.1909 H   0  0  0  0  0  0  0  0  0  0  0  0
   -2.5650    9.3186   -0.1909 H   0  0  0  0  0  0  0  0  0  0  0  0
   -0.7333   10.3216   -1.4459 H   0  0  0  0  0  0  0  0  0  0  0  0
    1.1641    9.6972    0.4967 H   0  0  0  0  0  0  0  0  0  0  0  0
   -0.3269    8.7491    0.9684 H   0  0  0  0  0  0  0  0  0  0  0  0
    1.0455    8.6788   -1.7460 H   0  0  0  0  0  0  0  0  0  0  0  0
    1.1566    7.4243   -0.4416 H   0  0  0  0  0  0  0  0  0  0  0  0
   -1.0291    7.2782   -0.3912 H   0  0  0  0  0  0  0  0  0  0  0  0
   -0.7741   10.0486   -2.6728 H   0  0  0  0  0  0  0  0  0  0  0  0
   -0.2003    8.9966   -4.0110 H   0  0  0  0  0  0  0  0  0  0  0  0
   -1.8889    9.6093   -4.0110 H   0  0  0  0  0  0  0  0  0  0  0  0
   -3.3814    7.5396   -1.7450 H   0  0  0  0  0  0  0  0  0  0  0  0
   -3.4830    8.4423   -3.2946 H   0  0  0  0  0  0  0  0  0  0  0  0
   -3.0168    6.7076   -3.2946 H   0  0  0  0  0  0  0  0  0  0  0  0
   -1.0061   12.1886    0.5308 H   0  0  0  0  0  0  0  0  0  0  0  0
    0.8140   11.6855    2.0389 H   0  0  0  0  0  0  0  0  0  0  0  0
    1.6122   10.6358    0.8480 H   0  0  0  0  0  0  0  0  0  0  0  0
    2.4234   13.2885    1.5313 H   0  0  0  0  0  0  0  0  0  0  0  0
    2.9811   12.4224    0.1020 H   0  0  0  0  0  0  0  0  0  0  0  0
    0.6673   14.2817    1.7876 H   0  0  0  0  0  0  0  0  0  0  0  0
    0.5878   15.6314    0.6050 H   0  0  0  0  0  0  0  0  0  0  0  0
   -0.6824   14.3612    0.6050 H   0  0  0  0  0  0  0  0  0  0  0  0
    2.6522   13.9131   -1.7763 H   0  0  0  0  0  0  0  0  0  0  0  0
    3.3406   15.1958    0.3499 H   0  0  0  0  0  0  0  0  0  0  0  0
    3.7708   15.8282   -1.3248 H   0  0  0  0  0  0  0  0  0  0  0  0
    2.9474   17.6195    0.4226 H   0  0  0  0  0  0  0  0  0  0  0  0
   -0.4619   16.2754   -1.2699 H   0  0  0  0  0  0  0  0  0  0  0  0
    0.8761   17.9584   -3.4780 H   0  0  0  0  0  0  0  0  0  0  0  0
   -0.6990   17.0557   -3.5965 H   0  0  0  0  0  0  0  0  0  0  0  0
   -1.0351   19.4850   -3.2702 H   0  0  0  0  0  0  0  0  0  0  0  0
   -1.6848   18.4934   -1.9063 H   0  0  0  0  0  0  0  0  0  0  0  0
   -0.5615   20.4110   -0.9996 H   0  0  0  0  0  0  0  0  0  0  0  0
    1.3590   19.6400   -2.9110 H   0  0  0  0  0  0  0  0  0  0  0  0
   -0.2846   18.4999    1.7370 H   0  0  0  0  0  0  0  0  0  0  0  0
   -1.4386   19.0860    0.4915 H   0  0  0  0  0  0  0  0  0  0  0  0
   -0.9129   17.3683    0.4915 H   0  0  0  0  0  0  0  0  0  0  0  0
    1.3579   19.4719    1.6744 H   0  0  0  0  0  0  0  0  0  0  0  0
    2.5897   19.3820    0.3700 H   0  0  0  0  0  0  0  0  0  0  0  0
    1.3766   20.7069    0.3700 H   0  0  0  0  0  0  0  0  0  0  0  0
    3.0144   16.0255   -3.1640 H   0  0  0  0  0  0  0  0  0  0  0  0
    2.1924   14.7729   -4.1550 H   0  0  0  0  0  0  0  0  0  0  0  0
    1.5811   16.4620   -4.1550 H   0  0  0  0  0  0  0  0  0  0  0  0
   -0.8012   15.0004   -3.3286 H   0  0  0  0  0  0  0  0  0  0  0  0
    0.5110   13.7260   -3.6238 H   0  0  0  0  0  0  0  0  0  0  0  0
   -1.3031   13.9872   -1.2095 H   0  0  0  0  0  0  0  0  0  0  0  0
   -1.2559   12.6723   -2.4492 H   0  0  0  0  0  0  0  0  0  0  0  0
    1.8990   11.1226   -1.4939 H   0  0  0  0  0  0  0  0  0  0  0  0
    0.5690   11.2029   -2.6985 H   0  0  0  0  0  0  0  0  0  0  0  0
    1.8575   12.4544   -2.6985 H   0  0  0  0  0  0  0  0  0  0  0  0
  1  2  1  0
  2  3  1  0
  3  4  1  0
  4  5  1  0
  5  6  1  0
  6  7  1  0
  7  8  1  0
  7  9  1  0
  2 10  1  0
 10 11  1  0
 11 12  1  0
 12 13  1  0
 13 14  1  1
 13 15  1  0
 15 16  1  0
 16 17  1  0
 17 18  2  0
 18 19  1  0
 19 20  1  0
 20 21  1  0
 21 22  1  0
 22 23  1  0
 22 24  1  0
 24 25  1  0
 24 26  1  0
 19 27  1  0
 27 28  1  6
 27 29  1  0
 29 30  1  0
 30 31  1  0
 31 32  1  6
  7  5  1  0
 31 10  1  0
 31 13  1  0
 27 15  1  0
 24 18  1  0
  1 33  1  0
  1 34  1  0
  1 35  1  0
  2 36  1  6
  3 37  1  0
  3 38  1  0
  4 39  1  0
  4 40  1  0
  5 41  1  1
  8 42  1  0
  8 43  1  0
  8 44  1  0
  9 45  1  0
  9 46  1  0
  9 47  1  0
 10 48  1  1
 11 49  1  0
 11 50  1  0
 12 51  1  0
 12 52  1  0
 14 53  1  0
 14 54  1  0
 14 55  1  0
 15 56  1  6
 16 57  1  0
 16 58  1  0
 17 59  1  0
 19 60  1  1
 20 61  1  0
 20 62  1  0
 21 63  1  0
 21 64  1  0
 22 65  1  1
 23 66  1  0
 25 67  1  0
 25 68  1  0
 25 69  1  0
 26 70  1  0
 26 71  1  0
 26 72  1  0
 28 73  1  0
 28 74  1  0
 28 75  1  0
 29 76  1  0
 29 77  1  0
 30 78  1  0
 30 79  1  0
 32 80  1  0
 32 81  1  0
 32 82  1  0
M  END
>  <meeko>  (10) 
{"is_sidechain": [false], "intermolecular_energy": 2.731, "internal_energy": -0.839}

$$$$
EPH_relaxed_0001_pdb2pqr_Repair_183_r2_0001_out
     RDKit          3D

 82 86  0  0  0  0  0  0  0  0999 V2000
   -2.3480    7.7950   -2.1060 C   0  0  0  0  0  0  0  0  0  0  0  0
   -2.3640    8.4450   -0.7200 C   0  0  2  0  0  0  0  0  0  0  0  0
   -3.7800    8.4810   -0.1110 C   0  0  0  0  0  0  0  0  0  0  0  0
   -4.8980    8.5430   -1.1560 C   0  0  0  0  0  0  0  0  0  0  0  0
   -5.9730    7.5360   -0.8790 C   0  0  2  0  0  0  0  0  0  0  0  0
   -5.5350    6.1710   -0.9000 O   0  0  0  0  0  0  0  0  0  0  0  0
   -6.4810    6.5490   -1.9130 C   0  0  0  0  0  0  0  0  0  0  0  0
   -5.9290    6.5210   -3.3030 C   0  0  0  0  0  0  0  0  0  0  0  0
   -7.8390    5.9490   -1.7220 C   0  0  0  0  0  0  0  0  0  0  0  0
   -1.7960    9.8570   -0.8010 C   0  0  1  0  0  0  0  0  0  0  0  0
   -1.2880   10.3770    0.5700 C   0  0  0  0  0  0  0  0  0  0  0  0
   -0.0490   11.2630    0.2810 C   0  0  0  0  0  0  0  0  0  0  0  0
   -0.0820   11.4940   -1.2480 C   0  0  1  0  0  0  0  0  0  0  0  0
   -1.1120   12.6470   -1.4570 C   0  0  0  0  0  0  0  0  0  0  0  0
    1.2890   11.8130   -1.9280 C   0  0  2  0  0  0  0  0  0  0  0  0
    1.9650   13.1120   -1.4560 C   0  0  0  0  0  0  0  0  0  0  0  0
    1.6110   14.3350   -2.2350 C   0  0  0  0  0  0  0  0  0  0  0  0
    1.0130   14.3490   -3.4410 C   0  0  0  0  0  0  0  0  0  0  0  0
    0.7170   13.0420   -4.1880 C   0  0  1  0  0  0  0  0  0  0  0  0
    1.1590   13.1800   -5.6680 C   0  0  0  0  0  0  0  0  0  0  0  0
    0.5420   14.3950   -6.3530 C   0  0  0  0  0  0  0  0  0  0  0  0
    0.9070   15.6810   -5.6140 C   0  0  2  0  0  0  0  0  0  0  0  0
    2.3140   15.9030   -5.7430 O   0  0  0  0  0  0  0  0  0  0  0  0
    0.5170   15.6540   -4.1100 C   0  0  0  0  0  0  0  0  0  0  0  0
   -1.0240   15.7180   -3.9700 C   0  0  0  0  0  0  0  0  0  0  0  0
    1.0670   16.9490   -3.4520 C   0  0  0  0  0  0  0  0  0  0  0  0
    1.2670   11.7150   -3.5080 C   0  0  1  0  0  0  0  0  0  0  0  0
    2.7370   11.4560   -3.9580 C   0  0  0  0  0  0  0  0  0  0  0  0
    0.4230   10.4870   -4.0190 C   0  0  0  0  0  0  0  0  0  0  0  0
   -0.8570   10.1490   -3.2320 C   0  0  0  0  0  0  0  0  0  0  0  0
   -0.5750   10.0800   -1.7280 C   0  0  2  0  0  0  0  0  0  0  0  0
    0.4420    8.9130   -1.4850 C   0  0  0  0  0  0  0  0  0  0  0  0
   -2.3211    6.7007   -1.9975 H   0  0  0  0  0  0  0  0  0  0  0  0
   -3.2536    8.0865   -2.6582 H   0  0  0  0  0  0  0  0  0  0  0  0
   -1.4578    8.1307   -2.6582 H   0  0  0  0  0  0  0  0  0  0  0  0
   -1.7363    7.8291   -0.0592 H   0  0  0  0  0  0  0  0  0  0  0  0
   -3.9207    7.5737    0.4948 H   0  0  0  0  0  0  0  0  0  0  0  0
   -3.8489    9.4007    0.4886 H   0  0  0  0  0  0  0  0  0  0  0  0
   -5.3412    9.5497   -1.1444 H   0  0  0  0  0  0  0  0  0  0  0  0
   -4.4608    8.3157   -2.1394 H   0  0  0  0  0  0  0  0  0  0  0  0
   -6.4932    8.2399   -0.2127 H   0  0  0  0  0  0  0  0  0  0  0  0
   -4.8312    6.4653   -3.2605 H   0  0  0  0  0  0  0  0  0  0  0  0
   -6.3204    5.6416   -3.8353 H   0  0  0  0  0  0  0  0  0  0  0  0
   -6.2294    7.4355   -3.8353 H   0  0  0  0  0  0  0  0  0  0  0  0
   -8.0506    5.8555   -0.6466 H   0  0  0  0  0  0  0  0  0  0  0  0
   -8.5951    6.5968   -2.1895 H   0  0  0  0  0  0  0  0  0  0  0  0
   -7.8692    4.9538   -2.1895 H   0  0  0  0  0  0  0  0  0  0  0  0
   -2.6739   10.3857   -1.2007 H   0  0  0  0  0  0  0  0  0  0  0  0
   -2.0714   10.9707    1.0639 H   0  0  0  0  0  0  0  0  0  0  0  0
   -1.0295    9.5421    1.2380 H   0  0  0  0  0  0  0  0  0  0  0  0
   -0.1214   12.2193    0.8198 H   0  0  0  0  0  0  0  0  0  0  0  0
    0.8878   10.7903    0.6111 H   0  0  0  0  0  0  0  0  0  0  0  0
   -1.4466   13.0216   -0.4784 H   0  0  0  0  0  0  0  0  0  0  0  0
   -0.6380   13.4645   -2.0200 H   0  0  0  0  0  0  0  0  0  0  0  0
   -1.9776   12.2678   -2.0200 H   0  0  0  0  0  0  0  0  0  0  0  0
    1.9281   10.9944   -1.5654 H   0  0  0  0  0  0  0  0  0  0  0  0
    1.6790   13.2823   -0.4076 H   0  0  0  0  0  0  0  0  0  0  0  0
    3.0453   12.9621   -1.5995 H   0  0  0  0  0  0  0  0  0  0  0  0
    1.8599   15.3076   -1.7854 H   0  0  0  0  0  0  0  0  0  0  0  0
   -0.3728   12.9019   -4.1356 H   0  0  0  0  0  0  0  0  0  0  0  0
    2.2544   13.2752   -5.7012 H   0  0  0  0  0  0  0  0  0  0  0  0
    0.8134   12.2838   -6.2041 H   0  0  0  0  0  0  0  0  0  0  0  0
    0.9158   14.4546   -7.3858 H   0  0  0  0  0  0  0  0  0  0  0  0
   -0.5524   14.2843   -6.3463 H   0  0  0  0  0  0  0  0  0  0  0  0
    0.3327   16.4998   -6.0720 H   0  0  0  0  0  0  0  0  0  0  0  0
    2.6430   16.2180   -4.8840 H   0  0  0  0  0  0  0  0  0  0  0  0
   -1.2952   15.7293   -2.9040 H   0  0  0  0  0  0  0  0  0  0  0  0
   -1.3984   16.6325   -4.4533 H   0  0  0  0  0  0  0  0  0  0  0  0
   -1.4730   14.8377   -4.4533 H   0  0  0  0  0  0  0  0  0  0  0  0
    1.0251   16.8503   -2.3572 H   0  0  0  0  0  0  0  0  0  0  0  0
    2.1094   17.1058   -3.7664 H   0  0  0  0  0  0  0  0  0  0  0  0
    0.4560   17.8080   -3.7664 H   0  0  0  0  0  0  0  0  0  0  0  0
    3.3775   11.3431   -3.0709 H   0  0  0  0  0  0  0  0  0  0  0  0
    2.7795   10.5365   -4.5603 H   0  0  0  0  0  0  0  0  0  0  0  0
    3.0912   12.3056   -4.5603 H   0  0  0  0  0  0  0  0  0  0  0  0
    0.1295   10.6943   -5.0587 H   0  0  0  0  0  0  0  0  0  0  0  0
    1.0790    9.6134   -3.8909 H   0  0  0  0  0  0  0  0  0  0  0  0
   -1.6114   10.9269   -3.4211 H   0  0  0  0  0  0  0  0  0  0  0  0
   -1.2239    9.1669   -3.5650 H   0  0  0  0  0  0  0  0  0  0  0  0
    0.5743    8.7612   -0.4036 H   0  0  0  0  0  0  0  0  0  0  0  0
    0.0557    7.9892   -1.9404 H   0  0  0  0  0  0  0  0  0  0  0  0
    1.4099    9.1694   -1.9404 H   0  0  0  0  0  0  0  0  0  0  0  0
  1  2  1  0
  2  3  1  0
  3  4  1  0
  4  5  1  0
  5  6  1  0
  6  7  1  0
  7  8  1  0
  7  9  1  0
  2 10  1  0
 10 11  1  0
 11 12  1  0
 12 13  1  0
 13 14  1  1
 13 15  1  0
 15 16  1  0
 16 17  1  0
 17 18  2  0
 18 19  1  0
 19 20  1  0
 20 21  1  0
 21 22  1  0
 22 23  1  0
 22 24  1  0
 24 25  1  0
 24 26  1  0
 19 27  1  0
 27 28  1  6
 27 29  1  0
 29 30  1  0
 30 31  1  0
 31 32  1  6
  7  5  1  0
 31 10  1  0
 31 13  1  0
 27 15  1  0
 24 18  1  0
  1 33  1  0
  1 34  1  0
  1 35  1  0
  2 36  1  1
  3 37  1  0
  3 38  1  0
  4 39  1  0
  4 40  1  0
  5 41  1  1
  8 42  1  0
  8 43  1  0
  8 44  1  0
  9 45  1  0
  9 46  1  0
  9 47  1  0
 10 48  1  6
 11 49  1  0
 11 50  1  0
 12 51  1  0
 12 52  1  0
 14 53  1  0
 14 54  1  0
 14 55  1  0
 15 56  1  1
 16 57  1  0
 16 58  1  0
 17 59  1  0
 19 60  1  6
 20 61  1  0
 20 62  1  0
 21 63  1  0
 21 64  1  0
 22 65  1  6
 23 66  1  0
 25 67  1  0
 25 68  1  0
 25 69  1  0
 26 70  1  0
 26 71  1  0
 26 72  1  0
 28 73  1  0
 28 74  1  0
 28 75  1  0
 29 76  1  0
 29 77  1  0
 30 78  1  0
 30 79  1  0
 32 80  1  0
 32 81  1  0
 32 82  1  0
M  END
>  <meeko>  (11) 
{"is_sidechain": [false], "intermolecular_energy": 2.731, "internal_energy": -0.839}

$$$$
EPH_relaxed_0001_pdb2pqr_Repair_183_r2_0001_out
     RDKit          3D

 82 86  0  0  0  0  0  0  0  0999 V2000
    0.8320   14.8430   -2.6600 C   0  0  0  0  0  0  0  0  0  0  0  0
    1.1190   14.1580   -3.9990 C   0  0  2  0  0  0  0  0  0  0  0  0
    0.4380   14.8810   -5.1790 C   0  0  0  0  0  0  0  0  0  0  0  0
    1.0880   14.5930   -6.5350 C   0  0  0  0  0  0  0  0  0  0  0  0
    0.8570   15.7090   -7.5080 C   0  0  2  0  0  0  0  0  0  0  0  0
    0.4000   15.2910   -8.8010 O   0  0  0  0  0  0  0  0  0  0  0  0
    1.6930   15.9170   -8.7570 C   0  0  0  0  0  0  0  0  0  0  0  0
    2.8240   15.0000   -9.1000 C   0  0  0  0  0  0  0  0  0  0  0  0
    1.7250   17.2780   -9.3790 C   0  0  0  0  0  0  0  0  0  0  0  0
    0.6650   12.7040   -3.9470 C   0  0  1  0  0  0  0  0  0  0  0  0
    1.7940   11.7120   -4.3320 C   0  0  0  0  0  0  0  0  0  0  0  0
    1.5930   10.4450   -3.4600 C   0  0  0  0  0  0  0  0  0  0  0  0
    0.1810   10.6110   -2.8520 C   0  0  1  0  0  0  0  0  0  0  0  0
   -0.7970   10.1460   -3.9760 C   0  0  0  0  0  0  0  0  0  0  0  0
   -0.0850    9.8580   -1.5080 C   0  0  2  0  0  0  0  0  0  0  0  0
    0.0160    8.3250   -1.5870 C   0  0  0  0  0  0  0  0  0  0  0  0
   -1.2580    7.6180   -1.9100 C   0  0  0  0  0  0  0  0  0  0  0  0
   -2.4900    8.1570   -1.8480 C   0  0  0  0  0  0  0  0  0  0  0  0
   -2.6990    9.5840   -1.3250 C   0  0  1  0  0  0  0  0  0  0  0  0
   -3.8780    9.5980   -0.3160 C   0  0  0  0  0  0  0  0  0  0  0  0
   -5.1530    8.9980   -0.8990 C   0  0  0  0  0  0  0  0  0  0  0  0
   -4.9200    7.5600   -1.3550 C   0  0  2  0  0  0  0  0  0  0  0  0
   -4.6630    6.7480   -0.2050 O   0  0  0  0  0  0  0  0  0  0  0  0
   -3.7490    7.4200   -2.3660 C   0  0  0  0  0  0  0  0  0  0  0  0
   -4.1550    8.0460   -3.7230 C   0  0  0  0  0  0  0  0  0  0  0  0
   -3.5290    5.9060   -2.6350 C   0  0  0  0  0  0  0  0  0  0  0  0
   -1.4040   10.3120   -0.7600 C   0  0  1  0  0  0  0  0  0  0  0  0
   -1.2070    9.9570    0.7450 C   0  0  0  0  0  0  0  0  0  0  0  0
   -1.6210   11.8700   -0.8240 C   0  0  0  0  0  0  0  0  0  0  0  0
   -1.2280   12.5740   -2.1370 C   0  0  0  0  0  0  0  0  0  0  0  0
    0.1780   12.1600   -2.5810 C   0  0  2  0  0  0  0  0  0  0  0  0
    1.1870   12.6340   -1.4790 C   0  0  0  0  0  0  0  0  0  0  0  0
    1.1137   14.1706   -1.8363 H   0  0  0  0  0  0  0  0  0  0  0  0
    1.4164   15.7723   -2.5909 H   0  0  0  0  0  0  0  0  0  0  0  0
   -0.2403   15.0782   -2.5909 H   0  0  0  0  0  0  0  0  0  0  0  0
    2.2052   14.2024   -4.1672 H   0  0  0  0  0  0  0  0  0  0  0  0
   -0.6133   14.5603   -5.2227 H   0  0  0  0  0  0  0  0  0  0  0  0
    0.5401   15.9609   -4.9964 H   0  0  0  0  0  0  0  0  0  0  0  0
    2.1709   14.4638   -6.3911 H   0  0  0  0  0  0  0  0  0  0  0  0
    0.6335   13.6796   -6.9463 H   0  0  0  0  0  0  0  0  0  0  0  0
    0.5648   16.3891   -6.6943 H   0  0  0  0  0  0  0  0  0  0  0  0
    3.2859   14.6255   -8.1746 H   0  0  0  0  0  0  0  0  0  0  0  0
    2.4432   14.1525   -9.6888 H   0  0  0  0  0  0  0  0  0  0  0  0
    3.5745   15.5478   -9.6888 H   0  0  0  0  0  0  0  0  0  0  0  0
    1.7430   18.0423   -8.5881 H   0  0  0  0  0  0  0  0  0  0  0  0
    2.6257   17.3749  -10.0030 H   0  0  0  0  0  0  0  0  0  0  0  0
    0.8299   17.4171  -10.0030 H   0  0  0  0  0  0  0  0  0  0  0  0
   -0.1753   12.7473   -4.6555 H   0  0  0  0  0  0  0  0  0  0  0  0
    1.7231   11.4529   -5.3987 H   0  0  0  0  0  0  0  0  0  0  0  0
    2.7856   12.1563   -4.1605 H   0  0  0  0  0  0  0  0  0  0  0  0
    1.6457    9.5361   -4.0774 H   0  0  0  0  0  0  0  0  0  0  0  0
    2.3702   10.3415   -2.6885 H   0  0  0  0  0  0  0  0  0  0  0  0
   -1.7013    9.7161   -3.5205 H   0  0  0  0  0  0  0  0  0  0  0  0
   -1.0752   11.0082   -4.5998 H   0  0  0  0  0  0  0  0  0  0  0  0
   -0.3038    9.3860   -4.5998 H   0  0  0  0  0  0  0  0  0  0  0  0
    0.7626   10.1815   -0.8860 H   0  0  0  0  0  0  0  0  0  0  0  0
    0.7515    8.0725   -2.3650 H   0  0  0  0  0  0  0  0  0  0  0  0
    0.3051    7.9868   -0.5810 H   0  0  0  0  0  0  0  0  0  0  0  0
   -1.1840    6.5669   -2.2256 H   0  0  0  0  0  0  0  0  0  0  0  0
   -2.9518   10.1960   -2.2034 H   0  0  0  0  0  0  0  0  0  0  0  0
   -3.5890    9.0171    0.5723 H   0  0  0  0  0  0  0  0  0  0  0  0
   -4.0882   10.6475   -0.0623 H   0  0  0  0  0  0  0  0  0  0  0  0
   -5.9401    9.0090   -0.1307 H   0  0  0  0  0  0  0  0  0  0  0  0
   -5.4571    9.5976   -1.7696 H   0  0  0  0  0  0  0  0  0  0  0  0
   -5.8281    7.2291   -1.8801 H   0  0  0  0  0  0  0  0  0  0  0  0
   -4.7460    5.8180   -0.4760 H   0  0  0  0  0  0  0  0  0  0  0  0
   -4.7456    8.9567   -3.5446 H   0  0  0  0  0  0  0  0  0  0  0  0
   -3.2503    8.3017   -4.2941 H   0  0  0  0  0  0  0  0  0  0  0  0
   -4.7574    7.3243   -4.2941 H   0  0  0  0  0  0  0  0  0  0  0  0
   -3.4512    5.3709   -1.6771 H   0  0  0  0  0  0  0  0  0  0  0  0
   -4.3788    5.5083   -3.2092 H   0  0  0  0  0  0  0  0  0  0  0  0
   -2.6012    5.7666   -3.2092 H   0  0  0  0  0  0  0  0  0  0  0  0
   -1.6465   10.7490    1.3691 H   0  0  0  0  0  0  0  0  0  0  0  0
   -1.7031    8.9999    0.9640 H   0  0  0  0  0  0  0  0  0  0  0  0
   -0.1324    9.8715    0.9640 H   0  0  0  0  0  0  0  0  0  0  0  0
   -2.6895   12.0644   -0.6494 H   0  0  0  0  0  0  0  0  0  0  0  0
   -0.9455   12.2857   -0.0618 H   0  0  0  0  0  0  0  0  0  0  0  0
   -1.9485   12.3002   -2.9218 H   0  0  0  0  0  0  0  0  0  0  0  0
   -1.2369   13.6610   -1.9686 H   0  0  0  0  0  0  0  0  0  0  0  0
    0.7631   12.4349   -0.4837 H   0  0  0  0  0  0  0  0  0  0  0  0
    2.1349   12.0870   -1.5900 H   0  0  0  0  0  0  0  0  0  0  0  0
    1.3711   13.7128   -1.5900 H   0  0  0  0  0  0  0  0  0  0  0  0
  1  2  1  0
  2  3  1  0
  3  4  1  0
  4  5  1  0
  5  6  1  0
  6  7  1  0
  7  8  1  0
  7  9  1  0
  2 10  1  0
 10 11  1  0
 11 12  1  0
 12 13  1  0
 13 14  1  6
 13 15  1  0
 15 16  1  0
 16 17  1  0
 17 18  2  0
 18 19  1  0
 19 20  1  0
 20 21  1  0
 21 22  1  0
 22 23  1  0
 22 24  1  0
 24 25  1  0
 24 26  1  0
 19 27  1  0
 27 28  1  1
 27 29  1  0
 29 30  1  0
 30 31  1  0
 31 32  1  1
  7  5  1  0
 31 10  1  0
 31 13  1  0
 27 15  1  0
 24 18  1  0
  1 33  1  0
  1 34  1  0
  1 35  1  0
  2 36  1  6
  3 37  1  0
  3 38  1  0
  4 39  1  0
  4 40  1  0
  5 41  1  1
  8 42  1  0
  8 43  1  0
  8 44  1  0
  9 45  1  0
  9 46  1  0
  9 47  1  0
 10 48  1  6
 11 49  1  0
 11 50  1  0
 12 51  1  0
 12 52  1  0
 14 53  1  0
 14 54  1  0
 14 55  1  0
 15 56  1  1
 16 57  1  0
 16 58  1  0
 17 59  1  0
 19 60  1  6
 20 61  1  0
 20 62  1  0
 21 63  1  0
 21 64  1  0
 22 65  1  6
 23 66  1  0
 25 67  1  0
 25 68  1  0
 25 69  1  0
 26 70  1  0
 26 71  1  0
 26 72  1  0
 28 73  1  0
 28 74  1  0
 28 75  1  0
 29 76  1  0
 29 77  1  0
 30 78  1  0
 30 79  1  0
 32 80  1  0
 32 81  1  0
 32 82  1  0
M  END
>  <meeko>  (12) 
{"is_sidechain": [false], "intermolecular_energy": 2.731, "internal_energy": -0.839}

$$$$
EPH_relaxed_0001_pdb2pqr_Repair_183_r2_0001_out
     RDKit          3D

 82 86  0  0  0  0  0  0  0  0999 V2000
  -14.4040    5.4860    0.4060 C   0  0  0  0  0  0  0  0  0  0  0  0
  -13.8530    6.9080    0.2640 C   0  0  2  0  0  0  0  0  0  0  0  0
  -14.9620    7.9310   -0.0550 C   0  0  0  0  0  0  0  0  0  0  0  0
  -14.5540    9.3830    0.2070 C   0  0  0  0  0  0  0  0  0  0  0  0
  -15.2840   10.3350   -0.6920 C   0  0  2  0  0  0  0  0  0  0  0  0
  -15.2860    9.9670   -2.0780 O   0  0  0  0  0  0  0  0  0  0  0  0
  -14.5970   11.1830   -1.7460 C   0  0  0  0  0  0  0  0  0  0  0  0
  -13.1160   11.1200   -1.9550 C   0  0  0  0  0  0  0  0  0  0  0  0
  -15.2870   12.4190   -2.2320 C   0  0  0  0  0  0  0  0  0  0  0  0
  -12.7830    6.9450   -0.8210 C   0  0  1  0  0  0  0  0  0  0  0  0
  -13.1380    7.9180   -1.9770 C   0  0  0  0  0  0  0  0  0  0  0  0
  -11.8030    8.5400   -2.4630 C   0  0  0  0  0  0  0  0  0  0  0  0
  -10.7060    7.6690   -1.8080 C   0  0  1  0  0  0  0  0  0  0  0  0
  -10.5960    6.4080   -2.7210 C   0  0  0  0  0  0  0  0  0  0  0  0
   -9.3150    8.3530   -1.5980 C   0  0  2  0  0  0  0  0  0  0  0  0
   -8.6020    8.7920   -2.8890 C   0  0  0  0  0  0  0  0  0  0  0  0
   -7.6950    7.7720   -3.4950 C   0  0  0  0  0  0  0  0  0  0  0  0
   -7.2410    6.6650   -2.8780 C   0  0  0  0  0  0  0  0  0  0  0  0
   -7.5590    6.3990   -1.4020 C   0  0  1  0  0  0  0  0  0  0  0  0
   -6.2660    5.9660   -0.6630 C   0  0  0  0  0  0  0  0  0  0  0  0
   -5.5760    4.7820   -1.3340 C   0  0  0  0  0  0  0  0  0  0  0  0
   -5.2230    5.1060   -2.7830 C   0  0  2  0  0  0  0  0  0  0  0  0
   -4.2220    6.1280   -2.7960 O   0  0  0  0  0  0  0  0  0  0  0  0
   -6.4480    5.5640   -3.6240 C   0  0  0  0  0  0  0  0  0  0  0  0
   -7.3940    4.3610   -3.8630 C   0  0  0  0  0  0  0  0  0  0  0  0
   -5.9310    5.9950   -5.0240 C   0  0  0  0  0  0  0  0  0  0  0  0
   -8.3390    7.5560   -0.6410 C   0  0  1  0  0  0  0  0  0  0  0  0
   -7.3260    8.5960   -0.0720 C   0  0  0  0  0  0  0  0  0  0  0  0
   -9.0880    6.9410    0.6000 C   0  0  0  0  0  0  0  0  0  0  0  0
  -10.5050    6.3900    0.3540 C   0  0  0  0  0  0  0  0  0  0  0  0
  -11.3640    7.4070   -0.4050 C   0  0  2  0  0  0  0  0  0  0  0  0
  -11.5110    8.6780    0.4990 C   0  0  0  0  0  0  0  0  0  0  0  0
  -14.5012    5.2352    1.4726 H   0  0  0  0  0  0  0  0  0  0  0  0
  -15.3908    5.4253   -0.0763 H   0  0  0  0  0  0  0  0  0  0  0  0
  -13.7158    4.7762   -0.0763 H   0  0  0  0  0  0  0  0  0  0  0  0
  -13.4116    7.1900    1.2313 H   0  0  0  0  0  0  0  0  0  0  0  0
  -15.2306    7.8320   -1.1171 H   0  0  0  0  0  0  0  0  0  0  0  0
  -15.8064    7.7087    0.6141 H   0  0  0  0  0  0  0  0  0  0  0  0
  -14.7827    9.6343    1.2532 H   0  0  0  0  0  0  0  0  0  0  0  0
  -13.4769    9.4783    0.0050 H   0  0  0  0  0  0  0  0  0  0  0  0
  -15.9932   10.5865    0.1103 H   0  0  0  0  0  0  0  0  0  0  0  0
  -12.6086   11.0984   -0.9793 H   0  0  0  0  0  0  0  0  0  0  0  0
  -12.8638   10.2103   -2.5197 H   0  0  0  0  0  0  0  0  0  0  0  0
  -12.7874   12.0050   -2.5197 H   0  0  0  0  0  0  0  0  0  0  0  0
  -15.6202   13.0159   -1.3702 H   0  0  0  0  0  0  0  0  0  0  0  0
  -14.5897   13.0126   -2.8415 H   0  0  0  0  0  0  0  0  0  0  0  0
  -16.1582   12.1370   -2.8415 H   0  0  0  0  0  0  0  0  0  0  0  0
  -12.7656    5.8809   -1.0992 H   0  0  0  0  0  0  0  0  0  0  0  0
  -13.6219    7.3697   -2.7987 H   0  0  0  0  0  0  0  0  0  0  0  0
  -13.8366    8.6969   -1.6376 H   0  0  0  0  0  0  0  0  0  0  0  0
  -11.7306    8.4960   -3.5597 H   0  0  0  0  0  0  0  0  0  0  0  0
  -11.7127    9.6013   -2.1882 H   0  0  0  0  0  0  0  0  0  0  0  0
  -10.5174    5.5074   -2.0944 H   0  0  0  0  0  0  0  0  0  0  0  0
  -11.4913    6.3359   -3.3561 H   0  0  0  0  0  0  0  0  0  0  0  0
   -9.7018    6.4920   -3.3561 H   0  0  0  0  0  0  0  0  0  0  0  0
   -9.5857    9.2825   -1.0757 H   0  0  0  0  0  0  0  0  0  0  0  0
   -9.3716    9.0471   -3.6324 H   0  0  0  0  0  0  0  0  0  0  0  0
   -7.9613    9.6412   -2.6092 H   0  0  0  0  0  0  0  0  0  0  0  0
   -7.3707    7.9393   -4.5327 H   0  0  0  0  0  0  0  0  0  0  0  0
   -8.2877    5.5751   -1.3921 H   0  0  0  0  0  0  0  0  0  0  0  0
   -5.5686    6.8165   -0.6452 H   0  0  0  0  0  0  0  0  0  0  0  0
   -6.5509    5.6541    0.3526 H   0  0  0  0  0  0  0  0  0  0  0  0
   -4.6540    4.5434   -0.7836 H   0  0  0  0  0  0  0  0  0  0  0  0
   -6.2632    3.9232   -1.3237 H   0  0  0  0  0  0  0  0  0  0  0  0
   -4.8518    4.1804   -3.2472 H   0  0  0  0  0  0  0  0  0  0  0  0
   -4.5110    6.8310   -2.1890 H   0  0  0  0  0  0  0  0  0  0  0  0
   -7.7168    3.9504   -2.8949 H   0  0  0  0  0  0  0  0  0  0  0  0
   -8.2745    4.6943   -4.4319 H   0  0  0  0  0  0  0  0  0  0  0  0
   -6.8625    3.5839   -4.4319 H   0  0  0  0  0  0  0  0  0  0  0  0
   -5.0910    6.6952   -4.9051 H   0  0  0  0  0  0  0  0  0  0  0  0
   -5.5928    5.1076   -5.5791 H   0  0  0  0  0  0  0  0  0  0  0  0
   -6.7430    6.4873   -5.5791 H   0  0  0  0  0  0  0  0  0  0  0  0
   -7.3519    8.5695    1.0274 H   0  0  0  0  0  0  0  0  0  0  0  0
   -6.3124    8.3494   -0.4210 H   0  0  0  0  0  0  0  0  0  0  0  0
   -7.5992    9.6028   -0.4210 H   0  0  0  0  0  0  0  0  0  0  0  0
   -8.4719    6.1147    0.9843 H   0  0  0  0  0  0  0  0  0  0  0  0
   -9.2231    7.7797    1.2988 H   0  0  0  0  0  0  0  0  0  0  0  0
  -10.4340    5.4656   -0.2381 H   0  0  0  0  0  0  0  0  0  0  0  0
  -10.9771    6.1884    1.3269 H   0  0  0  0  0  0  0  0  0  0  0  0
  -11.4766    8.3810    1.5576 H   0  0  0  0  0  0  0  0  0  0  0  0
  -10.6876    9.3759    0.2871 H   0  0  0  0  0  0  0  0  0  0  0  0
  -12.4720    9.1695    0.2871 H   0  0  0  0  0  0  0  0  0  0  0  0
  1  2  1  0
  2  3  1  0
  3  4  1  0
  4  5  1  0
  5  6  1  0
  6  7  1  0
  7  8  1  0
  7  9  1  0
  2 10  1  0
 10 11  1  0
 11 12  1  0
 12 13  1  0
 13 14  1  6
 13 15  1  0
 15 16  1  0
 16 17  1  0
 17 18  2  0
 18 19  1  0
 19 20  1  0
 20 21  1  0
 21 22  1  0
 22 23  1  0
 22 24  1  0
 24 25  1  0
 24 26  1  0
 19 27  1  0
 27 28  1  1
 27 29  1  0
 29 30  1  0
 30 31  1  0
 31 32  1  1
  7  5  1  0
 31 10  1  0
 31 13  1  0
 27 15  1  0
 24 18  1  0
  1 33  1  0
  1 34  1  0
  1 35  1  0
  2 36  1  1
  3 37  1  0
  3 38  1  0
  4 39  1  0
  4 40  1  0
  5 41  1  1
  8 42  1  0
  8 43  1  0
  8 44  1  0
  9 45  1  0
  9 46  1  0
  9 47  1  0
 10 48  1  6
 11 49  1  0
 11 50  1  0
 12 51  1  0
 12 52  1  0
 14 53  1  0
 14 54  1  0
 14 55  1  0
 15 56  1  1
 16 57  1  0
 16 58  1  0
 17 59  1  0
 19 60  1  6
 20 61  1  0
 20 62  1  0
 21 63  1  0
 21 64  1  0
 22 65  1  6
 23 66  1  0
 25 67  1  0
 25 68  1  0
 25 69  1  0
 26 70  1  0
 26 71  1  0
 26 72  1  0
 28 73  1  0
 28 74  1  0
 28 75  1  0
 29 76  1  0
 29 77  1  0
 30 78  1  0
 30 79  1  0
 32 80  1  0
 32 81  1  0
 32 82  1  0
M  END
>  <meeko>  (13) 
{"is_sidechain": [false], "intermolecular_energy": 2.731, "internal_energy": -0.839}

$$$$
EPH_relaxed_0001_pdb2pqr_Repair_183_r2_0001_out
     RDKit          3D

 82 86  0  0  0  0  0  0  0  0999 V2000
    3.1170   14.7920   -7.5140 C   0  0  0  0  0  0  0  0  0  0  0  0
    1.5930   14.8340   -7.3670 C   0  0  2  0  0  0  0  0  0  0  0  0
    0.9790   16.0770   -8.0410 C   0  0  0  0  0  0  0  0  0  0  0  0
    1.9110   16.7550   -9.0490 C   0  0  0  0  0  0  0  0  0  0  0  0
    1.5820   16.3660  -10.4580 C   0  0  2  0  0  0  0  0  0  0  0  0
    1.0020   15.0630  -10.5990 O   0  0  0  0  0  0  0  0  0  0  0  0
    2.2910   15.2520  -11.2060 C   0  0  0  0  0  0  0  0  0  0  0  0
    3.3860   14.4570  -10.5670 C   0  0  0  0  0  0  0  0  0  0  0  0
    2.2570   15.2600  -12.7020 C   0  0  0  0  0  0  0  0  0  0  0  0
    1.2120   14.7990   -5.8920 C   0  0  1  0  0  0  0  0  0  0  0  0
   -0.0240   15.6820   -5.5740 C   0  0  0  0  0  0  0  0  0  0  0  0
   -0.8150   14.9570   -4.4540 C   0  0  0  0  0  0  0  0  0  0  0  0
    0.1520   13.8660   -3.9370 C   0  0  1  0  0  0  0  0  0  0  0  0
    1.1080   14.6110   -2.9530 C   0  0  0  0  0  0  0  0  0  0  0  0
   -0.5080   12.6180   -3.2660 C   0  0  2  0  0  0  0  0  0  0  0  0
   -1.3160   12.9150   -1.9900 C   0  0  0  0  0  0  0  0  0  0  0  0
   -0.5440   12.8420   -0.7150 C   0  0  0  0  0  0  0  0  0  0  0  0
    0.6680   12.2760   -0.5660 C   0  0  0  0  0  0  0  0  0  0  0  0
    1.3440   11.5430   -1.7320 C   0  0  1  0  0  0  0  0  0  0  0  0
    1.9050   10.1850   -1.2340 C   0  0  0  0  0  0  0  0  0  0  0  0
    2.8270   10.3390   -0.0290 C   0  0  0  0  0  0  0  0  0  0  0  0
    2.1010   11.0190    1.1290 C   0  0  2  0  0  0  0  0  0  0  0  0
    1.0720   10.1460    1.6040 O   0  0  0  0  0  0  0  0  0  0  0  0
    1.4850   12.3930    0.7440 C   0  0  0  0  0  0  0  0  0  0  0  0
    2.6170   13.4260    0.5210 C   0  0  0  0  0  0  0  0  0  0  0  0
    0.6640   12.9050    1.9580 C   0  0  0  0  0  0  0  0  0  0  0  0
    0.4770   11.3980   -3.0550 C   0  0  1  0  0  0  0  0  0  0  0  0
   -0.4110   10.1180   -2.9720 C   0  0  0  0  0  0  0  0  0  0  0  0
    1.4410   11.1890   -4.2820 C   0  0  0  0  0  0  0  0  0  0  0  0
    1.9660   12.4600   -4.9770 C   0  0  0  0  0  0  0  0  0  0  0  0
    0.8200   13.4260   -5.2910 C   0  0  2  0  0  0  0  0  0  0  0  0
   -0.1470   12.7120   -6.2960 C   0  0  0  0  0  0  0  0  0  0  0  0
    3.5813   14.7792   -6.5169 H   0  0  0  0  0  0  0  0  0  0  0  0
    3.4073   13.8855   -8.0653 H   0  0  0  0  0  0  0  0  0  0  0  0
    3.4568   15.6811   -8.0653 H   0  0  0  0  0  0  0  0  0  0  0  0
    1.1866   13.9479   -7.8766 H   0  0  0  0  0  0  0  0  0  0  0  0
    0.0631   15.7698   -8.5671 H   0  0  0  0  0  0  0  0  0  0  0  0
    0.7804   16.8091   -7.2444 H   0  0  0  0  0  0  0  0  0  0  0  0
    1.8119   17.8459   -8.9481 H   0  0  0  0  0  0  0  0  0  0  0  0
    2.9403   16.4308   -8.8356 H   0  0  0  0  0  0  0  0  0  0  0  0
    1.3687   17.4123  -10.7220 H   0  0  0  0  0  0  0  0  0  0  0  0
    3.2959   14.5224   -9.4726 H   0  0  0  0  0  0  0  0  0  0  0  0
    3.3058   13.4053  -10.8793 H   0  0  0  0  0  0  0  0  0  0  0  0
    4.3612   14.8589  -10.8793 H   0  0  0  0  0  0  0  0  0  0  0  0
    1.2394   15.4994  -13.0444 H   0  0  0  0  0  0  0  0  0  0  0  0
    2.9590   16.0175  -13.0807 H   0  0  0  0  0  0  0  0  0  0  0  0
    2.5476   14.2690  -13.0807 H   0  0  0  0  0  0  0  0  0  0  0  0
    2.1567   15.1468   -5.4487 H   0  0  0  0  0  0  0  0  0  0  0  0
    0.2987   16.6750   -5.2280 H   0  0  0  0  0  0  0  0  0  0  0  0
   -0.6477   15.8257   -6.4686 H   0  0  0  0  0  0  0  0  0  0  0  0
   -1.0768   15.6577   -3.6475 H   0  0  0  0  0  0  0  0  0  0  0  0
   -1.7631   14.5352   -4.8189 H   0  0  0  0  0  0  0  0  0  0  0  0
    0.8169   14.3842   -1.9167 H   0  0  0  0  0  0  0  0  0  0  0  0
    2.1424   14.2784   -3.1245 H   0  0  0  0  0  0  0  0  0  0  0  0
    1.0383   15.6953   -3.1245 H   0  0  0  0  0  0  0  0  0  0  0  0
   -1.2445   12.3060   -4.0212 H   0  0  0  0  0  0  0  0  0  0  0  0
   -1.7304   13.9301   -2.0787 H   0  0  0  0  0  0  0  0  0  0  0  0
   -2.0836   12.1297   -1.9263 H   0  0  0  0  0  0  0  0  0  0  0  0
   -1.0044   13.2885    0.1786 H   0  0  0  0  0  0  0  0  0  0  0  0
    2.1709   12.1899   -2.0603 H   0  0  0  0  0  0  0  0  0  0  0  0
    1.0618    9.5373   -0.9522 H   0  0  0  0  0  0  0  0  0  0  0  0
    2.4958    9.7478   -2.0524 H   0  0  0  0  0  0  0  0  0  0  0  0
    3.1671    9.3439    0.2938 H   0  0  0  0  0  0  0  0  0  0  0  0
    3.6851   10.9625   -0.3204 H   0  0  0  0  0  0  0  0  0  0  0  0
    2.8457   11.2187    1.9135 H   0  0  0  0  0  0  0  0  0  0  0  0
    1.4540    9.5960    2.3090 H   0  0  0  0  0  0  0  0  0  0  0  0
    2.9953   13.7712    1.4945 H   0  0  0  0  0  0  0  0  0  0  0  0
    3.4353   12.9568   -0.0449 H   0  0  0  0  0  0  0  0  0  0  0  0
    2.2245   14.2837   -0.0449 H   0  0  0  0  0  0  0  0  0  0  0  0
    1.1583   12.5968    2.8911 H   0  0  0  0  0  0  0  0  0  0  0  0
    0.6013   14.0026    1.9215 H   0  0  0  0  0  0  0  0  0  0  0  0
   -0.3493   12.4784    1.9215 H   0  0  0  0  0  0  0  0  0  0  0  0
   -0.5883    9.8625   -1.9169 H   0  0  0  0  0  0  0  0  0  0  0  0
   -1.3734   10.3064   -3.4703 H   0  0  0  0  0  0  0  0  0  0  0  0
    0.1025    9.2825   -3.4703 H   0  0  0  0  0  0  0  0  0  0  0  0
    2.3126   10.6195   -3.9272 H   0  0  0  0  0  0  0  0  0  0  0  0
    0.8332   10.6756   -5.0416 H   0  0  0  0  0  0  0  0  0  0  0  0
    2.6873   12.9606   -4.3144 H   0  0  0  0  0  0  0  0  0  0  0  0
    2.4486   12.1693   -5.9218 H   0  0  0  0  0  0  0  0  0  0  0  0
   -0.9084   12.1498   -5.7355 H   0  0  0  0  0  0  0  0  0  0  0  0
   -0.6392   13.4650   -6.9290 H   0  0  0  0  0  0  0  0  0  0  0  0
    0.4278   12.0199   -6.9290 H   0  0  0  0  0  0  0  0  0  0  0  0
  1  2  1  0
  2  3  1  0
  3  4  1  0
  4  5  1  0
  5  6  1  0
  6  7  1  0
  7  8  1  0
  7  9  1  0
  2 10  1  0
 10 11  1  0
 11 12  1  0
 12 13  1  0
 13 14  1  1
 13 15  1  0
 15 16  1  0
 16 17  1  0
 17 18  2  0
 18 19  1  0
 19 20  1  0
 20 21  1  0
 21 22  1  0
 22 23  1  0
 22 24  1  0
 24 25  1  0
 24 26  1  0
 19 27  1  0
 27 28  1  1
 27 29  1  0
 29 30  1  0
 30 31  1  0
 31 32  1  6
  7  5  1  0
 31 10  1  0
 31 13  1  0
 27 15  1  0
 24 18  1  0
  1 33  1  0
  1 34  1  0
  1 35  1  0
  2 36  1  6
  3 37  1  0
  3 38  1  0
  4 39  1  0
  4 40  1  0
  5 41  1  6
  8 42  1  0
  8 43  1  0
  8 44  1  0
  9 45  1  0
  9 46  1  0
  9 47  1  0
 10 48  1  1
 11 49  1  0
 11 50  1  0
 12 51  1  0
 12 52  1  0
 14 53  1  0
 14 54  1  0
 14 55  1  0
 15 56  1  6
 16 57  1  0
 16 58  1  0
 17 59  1  0
 19 60  1  6
 20 61  1  0
 20 62  1  0
 21 63  1  0
 21 64  1  0
 22 65  1  1
 23 66  1  0
 25 67  1  0
 25 68  1  0
 25 69  1  0
 26 70  1  0
 26 71  1  0
 26 72  1  0
 28 73  1  0
 28 74  1  0
 28 75  1  0
 29 76  1  0
 29 77  1  0
 30 78  1  0
 30 79  1  0
 32 80  1  0
 32 81  1  0
 32 82  1  0
M  END
>  <meeko>  (14) 
{"is_sidechain": [false], "intermolecular_energy": 2.731, "internal_energy": -0.839}

$$$$
EPH_relaxed_0001_pdb2pqr_Repair_183_r2_0001_out
     RDKit          3D

 82 86  0  0  0  0  0  0  0  0999 V2000
    1.8480   10.9190   -4.5710 C   0  0  0  0  0  0  0  0  0  0  0  0
    0.8940   10.6510   -3.4040 C   0  0  2  0  0  0  0  0  0  0  0  0
   -0.2220    9.6570   -3.7820 C   0  0  0  0  0  0  0  0  0  0  0  0
   -0.4820    8.5890   -2.7170 C   0  0  0  0  0  0  0  0  0  0  0  0
    0.0430    9.0040   -1.3760 C   0  0  2  0  0  0  0  0  0  0  0  0
   -0.1470    8.0390   -0.3330 O   0  0  0  0  0  0  0  0  0  0  0  0
   -0.8470    9.2840   -0.1790 C   0  0  0  0  0  0  0  0  0  0  0  0
   -2.3360    9.1610   -0.2680 C   0  0  0  0  0  0  0  0  0  0  0  0
   -0.3130   10.1440    0.9240 C   0  0  0  0  0  0  0  0  0  0  0  0
    0.2830   11.9610   -2.9210 C   0  0  1  0  0  0  0  0  0  0  0  0
   -1.0650   11.7540   -2.1810 C   0  0  0  0  0  0  0  0  0  0  0  0
   -1.1270   12.8210   -1.0580 C   0  0  0  0  0  0  0  0  0  0  0  0
    0.0150   13.8080   -1.3940 C   0  0  1  0  0  0  0  0  0  0  0  0
   -0.5760   14.7470   -2.4920 C   0  0  0  0  0  0  0  0  0  0  0  0
    0.6020   14.6210   -0.1940 C   0  0  2  0  0  0  0  0  0  0  0  0
   -0.3950   15.5610    0.5060 C   0  0  0  0  0  0  0  0  0  0  0  0
   -0.4530   16.9490   -0.0410 C   0  0  0  0  0  0  0  0  0  0  0  0
    0.4580   17.5060   -0.8590 C   0  0  0  0  0  0  0  0  0  0  0  0
    1.7400   16.7540   -1.2390 C   0  0  1  0  0  0  0  0  0  0  0  0
    2.9590   17.7030   -1.0950 C   0  0  0  0  0  0  0  0  0  0  0  0
    2.7880   18.9980   -1.8830 C   0  0  0  0  0  0  0  0  0  0  0  0
    1.5340   19.7460   -1.4360 C   0  0  2  0  0  0  0  0  0  0  0  0
    1.7200   20.1940   -0.0900 O   0  0  0  0  0  0  0  0  0  0  0  0
    0.2430   18.8870   -1.5280 C   0  0  0  0  0  0  0  0  0  0  0  0
   -0.1240   18.6550   -3.0140 C   0  0  0  0  0  0  0  0  0  0  0  0
   -0.9230   19.7100   -0.9160 C   0  0  0  0  0  0  0  0  0  0  0  0
    1.9650   15.3580   -0.5140 C   0  0  1  0  0  0  0  0  0  0  0  0
    2.6850   15.5770    0.8510 C   0  0  0  0  0  0  0  0  0  0  0  0
    2.9310   14.4740   -1.3890 C   0  0  0  0  0  0  0  0  0  0  0  0
    2.2800   13.6030   -2.4800 C   0  0  0  0  0  0  0  0  0  0  0  0
    1.1050   12.8000   -1.9110 C   0  0  2  0  0  0  0  0  0  0  0  0
    1.6730   11.8300   -0.8190 C   0  0  0  0  0  0  0  0  0  0  0  0
    2.8376   11.1970   -4.1792 H   0  0  0  0  0  0  0  0  0  0  0  0
    1.9389   10.0116   -5.1861 H   0  0  0  0  0  0  0  0  0  0  0  0
    1.4530   11.7410   -5.1861 H   0  0  0  0  0  0  0  0  0  0  0  0
    1.4821   10.1941   -2.5945 H   0  0  0  0  0  0  0  0  0  0  0  0
   -1.1519   10.2229   -3.9405 H   0  0  0  0  0  0  0  0  0  0  0  0
    0.1097    9.1315   -4.6896 H   0  0  0  0  0  0  0  0  0  0  0  0
   -1.5661    8.4202   -2.6387 H   0  0  0  0  0  0  0  0  0  0  0  0
    0.0394    7.6689   -3.0196 H   0  0  0  0  0  0  0  0  0  0  0  0
    0.8516    9.5830   -1.8460 H   0  0  0  0  0  0  0  0  0  0  0  0
   -2.7622    9.1258    0.7455 H   0  0  0  0  0  0  0  0  0  0  0  0
   -2.7440   10.0285   -0.8074 H   0  0  0  0  0  0  0  0  0  0  0  0
   -2.5961    8.2383   -0.8074 H   0  0  0  0  0  0  0  0  0  0  0  0
   -0.5853    9.7055    1.8954 H   0  0  0  0  0  0  0  0  0  0  0  0
    0.7823   10.2054    0.8435 H   0  0  0  0  0  0  0  0  0  0  0  0
   -0.7437   11.1530    0.8435 H   0  0  0  0  0  0  0  0  0  0  0  0
    0.2088   12.4942   -3.8803 H   0  0  0  0  0  0  0  0  0  0  0  0
   -1.9047   11.8890   -2.8786 H   0  0  0  0  0  0  0  0  0  0  0  0
   -1.1353   10.7381   -1.7650 H   0  0  0  0  0  0  0  0  0  0  0  0
   -2.0993   13.3354   -1.0644 H   0  0  0  0  0  0  0  0  0  0  0  0
   -1.0156   12.3796   -0.0566 H   0  0  0  0  0  0  0  0  0  0  0  0
   -1.1034   15.5850   -2.0128 H   0  0  0  0  0  0  0  0  0  0  0  0
    0.2396   15.1373   -3.1185 H   0  0  0  0  0  0  0  0  0  0  0  0
   -1.2807   14.1805   -3.1185 H   0  0  0  0  0  0  0  0  0  0  0  0
    0.8316   13.8310    0.5362 H   0  0  0  0  0  0  0  0  0  0  0  0
   -1.3984   15.1187    0.4184 H   0  0  0  0  0  0  0  0  0  0  0  0
   -0.0456   15.6570    1.5446 H   0  0  0  0  0  0  0  0  0  0  0  0
   -1.3140   17.5689    0.2497 H   0  0  0  0  0  0  0  0  0  0  0  0
    1.6190   16.4589   -2.2918 H   0  0  0  0  0  0  0  0  0  0  0  0
    3.0885   17.9518   -0.0314 H   0  0  0  0  0  0  0  0  0  0  0  0
    3.8388   17.1802   -1.4983 H   0  0  0  0  0  0  0  0  0  0  0  0
    3.6672   19.6384   -1.7187 H   0  0  0  0  0  0  0  0  0  0  0  0
    2.6877   18.7497   -2.9499 H   0  0  0  0  0  0  0  0  0  0  0  0
    1.3942   20.5951   -2.1212 H   0  0  0  0  0  0  0  0  0  0  0  0
    1.7480   21.1660   -0.1040 H   0  0  0  0  0  0  0  0  0  0  0  0
   -1.0524   18.0681   -3.0751 H   0  0  0  0  0  0  0  0  0  0  0  0
   -0.2701   19.6252   -3.5114 H   0  0  0  0  0  0  0  0  0  0  0  0
    0.6897   18.1068   -3.5114 H   0  0  0  0  0  0  0  0  0  0  0  0
   -0.8644   19.6686    0.1817 H   0  0  0  0  0  0  0  0  0  0  0  0
   -0.8474   20.7559   -1.2481 H   0  0  0  0  0  0  0  0  0  0  0  0
   -1.8832   19.2884   -1.2481 H   0  0  0  0  0  0  0  0  0  0  0  0
    1.9855   15.3642    1.6728 H   0  0  0  0  0  0  0  0  0  0  0  0
    3.5502   14.9014    0.9217 H   0  0  0  0  0  0  0  0  0  0  0  0
    3.0275   16.6199    0.9217 H   0  0  0  0  0  0  0  0  0  0  0  0
    3.6433   15.1502   -1.8844 H   0  0  0  0  0  0  0  0  0  0  0  0
    3.3847   13.7610   -0.6849 H   0  0  0  0  0  0  0  0  0  0  0  0
    1.9140   14.2527   -3.2886 H   0  0  0  0  0  0  0  0  0  0  0  0
    3.0334   12.8992   -2.8634 H   0  0  0  0  0  0  0  0  0  0  0  0
    1.4407   12.2267    0.1804 H   0  0  0  0  0  0  0  0  0  0  0  0
    1.2134   10.8374   -0.9354 H   0  0  0  0  0  0  0  0  0  0  0  0
    2.7635   11.7451   -0.9354 H   0  0  0  0  0  0  0  0  0  0  0  0
  1  2  1  0
  2  3  1  0
  3  4  1  0
  4  5  1  0
  5  6  1  0
  6  7  1  0
  7  8  1  0
  7  9  1  0
  2 10  1  0
 10 11  1  0
 11 12  1  0
 12 13  1  0
 13 14  1  6
 13 15  1  0
 15 16  1  0
 16 17  1  0
 17 18  2  0
 18 19  1  0
 19 20  1  0
 20 21  1  0
 21 22  1  0
 22 23  1  0
 22 24  1  0
 24 25  1  0
 24 26  1  0
 19 27  1  0
 27 28  1  1
 27 29  1  0
 29 30  1  0
 30 31  1  0
 31 32  1  1
  7  5  1  0
 31 10  1  0
 31 13  1  0
 27 15  1  0
 24 18  1  0
  1 33  1  0
  1 34  1  0
  1 35  1  0
  2 36  1  1
  3 37  1  0
  3 38  1  0
  4 39  1  0
  4 40  1  0
  5 41  1  6
  8 42  1  0
  8 43  1  0
  8 44  1  0
  9 45  1  0
  9 46  1  0
  9 47  1  0
 10 48  1  6
 11 49  1  0
 11 50  1  0
 12 51  1  0
 12 52  1  0
 14 53  1  0
 14 54  1  0
 14 55  1  0
 15 56  1  1
 16 57  1  0
 16 58  1  0
 17 59  1  0
 19 60  1  6
 20 61  1  0
 20 62  1  0
 21 63  1  0
 21 64  1  0
 22 65  1  6
 23 66  1  0
 25 67  1  0
 25 68  1  0
 25 69  1  0
 26 70  1  0
 26 71  1  0
 26 72  1  0
 28 73  1  0
 28 74  1  0
 28 75  1  0
 29 76  1  0
 29 77  1  0
 30 78  1  0
 30 79  1  0
 32 80  1  0
 32 81  1  0
 32 82  1  0
M  END
>  <meeko>  (15) 
{"is_sidechain": [false], "intermolecular_energy": 2.731, "internal_energy": -0.839}

$$$$
EPH_relaxed_0001_pdb2pqr_Repair_183_r2_0001_out
     RDKit          3D

 82 86  0  0  0  0  0  0  0  0999 V2000
    0.4890    7.9810   -2.6250 C   0  0  0  0  0  0  0  0  0  0  0  0
   -0.8620    8.3180   -1.9880 C   0  0  2  0  0  0  0  0  0  0  0  0
   -2.0430    7.7260   -2.7840 C   0  0  0  0  0  0  0  0  0  0  0  0
   -3.3460    7.6480   -1.9840 C   0  0  0  0  0  0  0  0  0  0  0  0
   -4.3470    6.7480   -2.6420 C   0  0  2  0  0  0  0  0  0  0  0  0
   -5.1720    7.3870   -3.6250 O   0  0  0  0  0  0  0  0  0  0  0  0
   -5.8470    6.8880   -2.4580 C   0  0  0  0  0  0  0  0  0  0  0  0
   -6.4290    7.9570   -1.5880 C   0  0  0  0  0  0  0  0  0  0  0  0
   -6.7150    5.6990   -2.7270 C   0  0  0  0  0  0  0  0  0  0  0  0
   -1.0190    9.8290   -1.8710 C   0  0  1  0  0  0  0  0  0  0  0  0
   -2.4690   10.2540   -1.5150 C   0  0  0  0  0  0  0  0  0  0  0  0
   -2.3580   11.5030   -0.6030 C   0  0  0  0  0  0  0  0  0  0  0  0
   -0.8840   11.9520   -0.7340 C   0  0  1  0  0  0  0  0  0  0  0  0
   -0.8280   12.7630   -2.0660 C   0  0  0  0  0  0  0  0  0  0  0  0
   -0.3020   12.7700    0.4650 C   0  0  2  0  0  0  0  0  0  0  0  0
   -0.9910   14.1190    0.7300 C   0  0  0  0  0  0  0  0  0  0  0  0
   -0.4030   15.2880    0.0120 C   0  0  0  0  0  0  0  0  0  0  0  0
    0.8030   15.3130   -0.5860 C   0  0  0  0  0  0  0  0  0  0  0  0
    1.7530   14.1120   -0.4920 C   0  0  1  0  0  0  0  0  0  0  0  0
    3.1810   14.6080   -0.1400 C   0  0  0  0  0  0  0  0  0  0  0  0
    3.6840   15.6760   -1.1060 C   0  0  0  0  0  0  0  0  0  0  0  0
    2.7430   16.8780   -1.1280 C   0  0  2  0  0  0  0  0  0  0  0  0
    2.7950   17.5270    0.1460 O   0  0  0  0  0  0  0  0  0  0  0  0
    1.2730   16.4990   -1.4630 C   0  0  0  0  0  0  0  0  0  0  0  0
    1.1700   16.0770   -2.9490 C   0  0  0  0  0  0  0  0  0  0  0  0
    0.4050   17.7780   -1.3140 C   0  0  0  0  0  0  0  0  0  0  0  0
    1.2740   12.9200    0.4430 C   0  0  1  0  0  0  0  0  0  0  0  0
    1.7160   13.1860    1.9140 C   0  0  0  0  0  0  0  0  0  0  0  0
    1.9950   11.5930   -0.0040 C   0  0  0  0  0  0  0  0  0  0  0  0
    1.3080   10.7680   -1.1090 C   0  0  0  0  0  0  0  0  0  0  0  0
   -0.1740   10.5500   -0.7910 C   0  0  2  0  0  0  0  0  0  0  0  0
   -0.2610    9.7170    0.5330 C   0  0  0  0  0  0  0  0  0  0  0  0
    1.2311    7.7959   -1.8345 H   0  0  0  0  0  0  0  0  0  0  0  0
    0.3858    7.0811   -3.2491 H   0  0  0  0  0  0  0  0  0  0  0  0
    0.8206    8.8240   -3.2491 H   0  0  0  0  0  0  0  0  0  0  0  0
   -0.8779    7.8638   -0.9863 H   0  0  0  0  0  0  0  0  0  0  0  0
   -2.2159    8.3559   -3.6690 H   0  0  0  0  0  0  0  0  0  0  0  0
   -1.7668    6.6951   -3.0505 H   0  0  0  0  0  0  0  0  0  0  0  0
   -3.1245    7.2602   -0.9787 H   0  0  0  0  0  0  0  0  0  0  0  0
   -3.7766    8.6588   -1.9304 H   0  0  0  0  0  0  0  0  0  0  0  0
   -3.6694    5.8867   -2.5472 H   0  0  0  0  0  0  0  0  0  0  0  0
   -6.2833    7.6893   -0.5311 H   0  0  0  0  0  0  0  0  0  0  0  0
   -5.9270    8.9133   -1.7966 H   0  0  0  0  0  0  0  0  0  0  0  0
   -7.5046    8.0544   -1.7966 H   0  0  0  0  0  0  0  0  0  0  0  0
   -7.0376    5.2571   -1.7727 H   0  0  0  0  0  0  0  0  0  0  0  0
   -7.5981    6.0125   -3.3030 H   0  0  0  0  0  0  0  0  0  0  0  0
   -6.1473    4.9534   -3.3030 H   0  0  0  0  0  0  0  0  0  0  0  0
   -0.6817   10.1273   -2.8746 H   0  0  0  0  0  0  0  0  0  0  0  0
   -3.0266   10.5016   -2.4303 H   0  0  0  0  0  0  0  0  0  0  0  0
   -3.0055    9.4397   -1.0059 H   0  0  0  0  0  0  0  0  0  0  0  0
   -3.0377   12.2966   -0.9469 H   0  0  0  0  0  0  0  0  0  0  0  0
   -2.6367   11.2851    0.4386 H   0  0  0  0  0  0  0  0  0  0  0  0
   -0.7539   13.8367   -1.8387 H   0  0  0  0  0  0  0  0  0  0  0  0
    0.0507   12.4501   -2.6491 H   0  0  0  0  0  0  0  0  0  0  0  0
   -1.7413   12.5739   -2.6491 H   0  0  0  0  0  0  0  0  0  0  0  0
   -0.5503   12.1337    1.3272 H   0  0  0  0  0  0  0  0  0  0  0  0
   -2.0442   14.0281    0.4258 H   0  0  0  0  0  0  0  0  0  0  0  0
   -0.8578   14.3228    1.8027 H   0  0  0  0  0  0  0  0  0  0  0  0
   -1.0060   16.2069   -0.0323 H   0  0  0  0  0  0  0  0  0  0  0  0
    1.7539   13.6465   -1.4886 H   0  0  0  0  0  0  0  0  0  0  0  0
    3.1674   15.0297    0.8759 H   0  0  0  0  0  0  0  0  0  0  0  0
    3.8609   13.7462   -0.2116 H   0  0  0  0  0  0  0  0  0  0  0  0
    4.6836   16.0071   -0.7880 H   0  0  0  0  0  0  0  0  0  0  0  0
    3.7256   15.2439   -2.1167 H   0  0  0  0  0  0  0  0  0  0  0  0
    3.0836   17.5497   -1.9298 H   0  0  0  0  0  0  0  0  0  0  0  0
    2.6390   18.4760   -0.0010 H   0  0  0  0  0  0  0  0  0  0  0  0
    0.9096   15.0100   -3.0099 H   0  0  0  0  0  0  0  0  0  0  0  0
    0.3911   16.6735   -3.4464 H   0  0  0  0  0  0  0  0  0  0  0  0
    2.1362   16.2476   -3.4464 H   0  0  0  0  0  0  0  0  0  0  0  0
    0.2559   17.9977   -0.2465 H   0  0  0  0  0  0  0  0  0  0  0  0
    0.9153   18.6255   -1.7950 H   0  0  0  0  0  0  0  0  0  0  0  0
   -0.5711   17.6168   -1.7950 H   0  0  0  0  0  0  0  0  0  0  0  0
    0.9814   12.7439    2.6032 H   0  0  0  0  0  0  0  0  0  0  0  0
    2.7023   12.7313    2.0884 H   0  0  0  0  0  0  0  0  0  0  0  0
    1.7761   14.2704    2.0884 H   0  0  0  0  0  0  0  0  0  0  0  0
    2.9976   11.8646   -0.3660 H   0  0  0  0  0  0  0  0  0  0  0  0
    1.9860   10.9465    0.8859 H   0  0  0  0  0  0  0  0  0  0  0  0
    1.3954   11.3045   -2.0653 H   0  0  0  0  0  0  0  0  0  0  0  0
    1.8009    9.7866   -1.1709 H   0  0  0  0  0  0  0  0  0  0  0  0
   -0.1903   10.3938    1.3973 H   0  0  0  0  0  0  0  0  0  0  0  0
   -1.2202    9.1795    0.5657 H   0  0  0  0  0  0  0  0  0  0  0  0
    0.5664    8.9929    0.5657 H   0  0  0  0  0  0  0  0  0  0  0  0
  1  2  1  0
  2  3  1  0
  3  4  1  0
  4  5  1  0
  5  6  1  0
  6  7  1  0
  7  8  1  0
  7  9  1  0
  2 10  1  0
 10 11  1  0
 11 12  1  0
 12 13  1  0
 13 14  1  6
 13 15  1  0
 15 16  1  0
 16 17  1  0
 17 18  2  0
 18 19  1  0
 19 20  1  0
 20 21  1  0
 21 22  1  0
 22 23  1  0
 22 24  1  0
 24 25  1  0
 24 26  1  0
 19 27  1  0
 27 28  1  1
 27 29  1  0
 29 30  1  0
 30 31  1  0
 31 32  1  1
  7  5  1  0
 31 10  1  0
 31 13  1  0
 27 15  1  0
 24 18  1  0
  1 33  1  0
  1 34  1  0
  1 35  1  0
  2 36  1  1
  3 37  1  0
  3 38  1  0
  4 39  1  0
  4 40  1  0
  5 41  1  6
  8 42  1  0
  8 43  1  0
  8 44  1  0
  9 45  1  0
  9 46  1  0
  9 47  1  0
 10 48  1  6
 11 49  1  0
 11 50  1  0
 12 51  1  0
 12 52  1  0
 14 53  1  0
 14 54  1  0
 14 55  1  0
 15 56  1  1
 16 57  1  0
 16 58  1  0
 17 59  1  0
 19 60  1  6
 20 61  1  0
 20 62  1  0
 21 63  1  0
 21 64  1  0
 22 65  1  6
 23 66  1  0
 25 67  1  0
 25 68  1  0
 25 69  1  0
 26 70  1  0
 26 71  1  0
 26 72  1  0
 28 73  1  0
 28 74  1  0
 28 75  1  0
 29 76  1  0
 29 77  1  0
 30 78  1  0
 30 79  1  0
 32 80  1  0
 32 81  1  0
 32 82  1  0
M  END
>  <meeko>  (16) 
{"is_sidechain": [false], "intermolecular_energy": 2.731, "internal_energy": -0.839}

$$$$
EPH_relaxed_0001_pdb2pqr_Repair_183_r2_0001_out
     RDKit          3D

 82 86  0  0  0  0  0  0  0  0999 V2000
   -0.1310    9.3460   -4.1140 C   0  0  0  0  0  0  0  0  0  0  0  0
   -0.0120    9.5520   -2.6020 C   0  0  2  0  0  0  0  0  0  0  0  0
   -0.8430    8.5240   -1.8090 C   0  0  0  0  0  0  0  0  0  0  0  0
   -2.3450    8.5930   -2.0950 C   0  0  0  0  0  0  0  0  0  0  0  0
   -2.8570    7.3150   -2.6870 C   0  0  2  0  0  0  0  0  0  0  0  0
   -3.9070    7.4790   -3.6500 O   0  0  0  0  0  0  0  0  0  0  0  0
   -4.2560    6.7810   -2.4440 C   0  0  0  0  0  0  0  0  0  0  0  0
   -5.2310    7.5140   -1.5770 C   0  0  0  0  0  0  0  0  0  0  0  0
   -4.5090    5.3200   -2.6450 C   0  0  0  0  0  0  0  0  0  0  0  0
   -0.4460   10.9670   -2.2350 C   0  0  1  0  0  0  0  0  0  0  0  0
   -1.6590   10.9870   -1.2670 C   0  0  0  0  0  0  0  0  0  0  0  0
   -1.4600   12.2020   -0.3250 C   0  0  0  0  0  0  0  0  0  0  0  0
   -0.3300   13.0260   -0.9850 C   0  0  1  0  0  0  0  0  0  0  0  0
   -1.0360   13.8510   -2.1060 C   0  0  0  0  0  0  0  0  0  0  0  0
    0.5040   13.9430   -0.0320 C   0  0  2  0  0  0  0  0  0  0  0  0
   -0.2960   15.0580    0.6640 C   0  0  0  0  0  0  0  0  0  0  0  0
   -0.3560   16.3550   -0.0730 C   0  0  0  0  0  0  0  0  0  0  0  0
    0.4370   16.7080   -1.1010 C   0  0  0  0  0  0  0  0  0  0  0  0
    1.5840   15.7990   -1.5590 C   0  0  1  0  0  0  0  0  0  0  0  0
    2.8690   16.6450   -1.7580 C   0  0  0  0  0  0  0  0  0  0  0  0
    2.6510   17.8280   -2.6970 C   0  0  0  0  0  0  0  0  0  0  0  0
    1.5430   18.7400   -2.1770 C   0  0  2  0  0  0  0  0  0  0  0  0
    1.9830   19.3540   -0.9620 O   0  0  0  0  0  0  0  0  0  0  0  0
    0.2010   17.9950   -1.9300 C   0  0  0  0  0  0  0  0  0  0  0  0
   -0.4270   17.5900   -3.2870 C   0  0  0  0  0  0  0  0  0  0  0  0
   -0.7880   18.9970   -1.2750 C   0  0  0  0  0  0  0  0  0  0  0  0
    1.8380   14.5030   -0.6740 C   0  0  1  0  0  0  0  0  0  0  0  0
    2.7920   14.8460    0.5100 C   0  0  0  0  0  0  0  0  0  0  0  0
    2.5820   13.4230   -1.5450 C   0  0  0  0  0  0  0  0  0  0  0  0
    1.6990   12.4690   -2.3720 C   0  0  0  0  0  0  0  0  0  0  0  0
    0.5890   11.8620   -1.5090 C   0  0  2  0  0  0  0  0  0  0  0  0
    1.2690   11.0080   -0.3850 C   0  0  0  0  0  0  0  0  0  0  0  0
   -0.6720    8.4095   -4.3150 H   0  0  0  0  0  0  0  0  0  0  0  0
   -0.6810   10.1895   -4.5568 H   0  0  0  0  0  0  0  0  0  0  0  0
    0.8744    9.2909   -4.5568 H   0  0  0  0  0  0  0  0  0  0  0  0
    1.0434    9.4039   -2.3295 H   0  0  0  0  0  0  0  0  0  0  0  0
   -0.4865    7.5160   -2.0675 H   0  0  0  0  0  0  0  0  0  0  0  0
   -0.7084    8.7568   -0.7424 H   0  0  0  0  0  0  0  0  0  0  0  0
   -2.8784    8.7881   -1.1530 H   0  0  0  0  0  0  0  0  0  0  0  0
   -2.5185    9.4005   -2.8215 H   0  0  0  0  0  0  0  0  0  0  0  0
   -1.8641    6.8497   -2.5991 H   0  0  0  0  0  0  0  0  0  0  0  0
   -4.9896    7.3325   -0.5193 H   0  0  0  0  0  0  0  0  0  0  0  0
   -5.1703    8.5920   -1.7872 H   0  0  0  0  0  0  0  0  0  0  0  0
   -6.2497    7.1562   -1.7872 H   0  0  0  0  0  0  0  0  0  0  0  0
   -4.5948    4.8247   -1.6666 H   0  0  0  0  0  0  0  0  0  0  0  0
   -5.4441    5.1839   -3.2081 H   0  0  0  0  0  0  0  0  0  0  0  0
   -3.6741    4.8774   -3.2081 H   0  0  0  0  0  0  0  0  0  0  0  0
   -0.6481   11.3651   -3.2403 H   0  0  0  0  0  0  0  0  0  0  0  0
   -2.5948   11.0972   -1.8346 H   0  0  0  0  0  0  0  0  0  0  0  0
   -1.7227   10.0499   -0.6945 H   0  0  0  0  0  0  0  0  0  0  0  0
   -2.3837   12.7952   -0.2559 H   0  0  0  0  0  0  0  0  0  0  0  0
   -1.2091   11.8972    0.7017 H   0  0  0  0  0  0  0  0  0  0  0  0
   -1.6862   14.6108   -1.6478 H   0  0  0  0  0  0  0  0  0  0  0  0
   -0.2773   14.3458   -2.7302 H   0  0  0  0  0  0  0  0  0  0  0  0
   -1.6421   13.1779   -2.7302 H   0  0  0  0  0  0  0  0  0  0  0  0
    0.8022   13.2462    0.7652 H   0  0  0  0  0  0  0  0  0  0  0  0
   -1.3263   14.6995    0.8055 H   0  0  0  0  0  0  0  0  0  0  0  0
    0.2309   15.2677    1.6066 H   0  0  0  0  0  0  0  0  0  0  0  0
   -1.1129   17.0840    0.2521 H   0  0  0  0  0  0  0  0  0  0  0  0
    1.2661   15.3716   -2.5214 H   0  0  0  0  0  0  0  0  0  0  0  0
    3.1948   17.0270   -0.7793 H   0  0  0  0  0  0  0  0  0  0  0  0
    3.6304   15.9940   -2.2123 H   0  0  0  0  0  0  0  0  0  0  0  0
    3.5851   18.4039   -2.7735 H   0  0  0  0  0  0  0  0  0  0  0  0
    2.3547   17.4430   -3.6839 H   0  0  0  0  0  0  0  0  0  0  0  0
    1.3449   19.4934   -2.9536 H   0  0  0  0  0  0  0  0  0  0  0  0
    1.4240   19.0160   -0.2420 H   0  0  0  0  0  0  0  0  0  0  0  0
   -1.3391   17.0018   -3.1079 H   0  0  0  0  0  0  0  0  0  0  0  0
   -0.6807   18.4951   -3.8583 H   0  0  0  0  0  0  0  0  0  0  0  0
    0.2929   16.9855   -3.8583 H   0  0  0  0  0  0  0  0  0  0  0  0
   -0.7142   18.9223   -0.1800 H   0  0  0  0  0  0  0  0  0  0  0  0
   -0.5360   20.0202   -1.5905 H   0  0  0  0  0  0  0  0  0  0  0  0
   -1.8144   18.7584   -1.5905 H   0  0  0  0  0  0  0  0  0  0  0  0
    2.2751   14.6602    1.4630 H   0  0  0  0  0  0  0  0  0  0  0  0
    3.6909   14.2148    0.4513 H   0  0  0  0  0  0  0  0  0  0  0  0
    3.0832   15.9051    0.4513 H   0  0  0  0  0  0  0  0  0  0  0  0
    3.2415   13.9568   -2.2450 H   0  0  0  0  0  0  0  0  0  0  0  0
    3.1027   12.7786   -0.8214 H   0  0  0  0  0  0  0  0  0  0  0  0
    1.2437   13.0291   -3.2021 H   0  0  0  0  0  0  0  0  0  0  0  0
    2.3290   11.6537   -2.7571 H   0  0  0  0  0  0  0  0  0  0  0  0
    0.9647   11.3902    0.6006 H   0  0  0  0  0  0  0  0  0  0  0  0
    0.9572    9.9577   -0.4832 H   0  0  0  0  0  0  0  0  0  0  0  0
    2.3625   11.0766   -0.4832 H   0  0  0  0  0  0  0  0  0  0  0  0
  1  2  1  0
  2  3  1  0
  3  4  1  0
  4  5  1  0
  5  6  1  0
  6  7  1  0
  7  8  1  0
  7  9  1  0
  2 10  1  0
 10 11  1  0
 11 12  1  0
 12 13  1  0
 13 14  1  6
 13 15  1  0
 15 16  1  0
 16 17  1  0
 17 18  2  0
 18 19  1  0
 19 20  1  0
 20 21  1  0
 21 22  1  0
 22 23  1  0
 22 24  1  0
 24 25  1  0
 24 26  1  0
 19 27  1  0
 27 28  1  1
 27 29  1  0
 29 30  1  0
 30 31  1  0
 31 32  1  1
  7  5  1  0
 31 10  1  0
 31 13  1  0
 27 15  1  0
 24 18  1  0
  1 33  1  0
  1 34  1  0
  1 35  1  0
  2 36  1  1
  3 37  1  0
  3 38  1  0
  4 39  1  0
  4 40  1  0
  5 41  1  6
  8 42  1  0
  8 43  1  0
  8 44  1  0
  9 45  1  0
  9 46  1  0
  9 47  1  0
 10 48  1  6
 11 49  1  0
 11 50  1  0
 12 51  1  0
 12 52  1  0
 14 53  1  0
 14 54  1  0
 14 55  1  0
 15 56  1  1
 16 57  1  0
 16 58  1  0
 17 59  1  0
 19 60  1  6
 20 61  1  0
 20 62  1  0
 21 63  1  0
 21 64  1  0
 22 65  1  6
 23 66  1  0
 25 67  1  0
 25 68  1  0
 25 69  1  0
 26 70  1  0
 26 71  1  0
 26 72  1  0
 28 73  1  0
 28 74  1  0
 28 75  1  0
 29 76  1  0
 29 77  1  0
 30 78  1  0
 30 79  1  0
 32 80  1  0
 32 81  1  0
 32 82  1  0
M  END
>  <meeko>  (17) 
{"is_sidechain": [false], "intermolecular_energy": 2.731, "internal_energy": -0.839}

$$$$
EPH_relaxed_0001_pdb2pqr_Repair_183_r2_0001_out
     RDKit          3D

 82 86  0  0  0  0  0  0  0  0999 V2000
    1.8430   14.2150   -2.0360 C   0  0  0  0  0  0  0  0  0  0  0  0
    1.3310   13.8940   -3.4430 C   0  0  2  0  0  0  0  0  0  0  0  0
    0.2270   14.8700   -3.8960 C   0  0  0  0  0  0  0  0  0  0  0  0
    0.6460   16.3420   -3.8390 C   0  0  0  0  0  0  0  0  0  0  0  0
    0.2620   16.9780   -2.5380 C   0  0  2  0  0  0  0  0  0  0  0  0
    0.1970   18.4100   -2.5670 O   0  0  0  0  0  0  0  0  0  0  0  0
    1.2040   17.8380   -1.7170 C   0  0  0  0  0  0  0  0  0  0  0  0
    2.6060   18.1090   -2.1660 C   0  0  0  0  0  0  0  0  0  0  0  0
    0.9270   18.0090   -0.2560 C   0  0  0  0  0  0  0  0  0  0  0  0
    0.8110   12.4620   -3.4920 C   0  0  1  0  0  0  0  0  0  0  0  0
    1.9300   11.4300   -3.7970 C   0  0  0  0  0  0  0  0  0  0  0  0
    1.5850   10.1470   -2.9990 C   0  0  0  0  0  0  0  0  0  0  0  0
    0.1260   10.3580   -2.5310 C   0  0  1  0  0  0  0  0  0  0  0  0
   -0.7500    9.9770   -3.7660 C   0  0  0  0  0  0  0  0  0  0  0  0
   -0.3100    9.5750   -1.2500 C   0  0  2  0  0  0  0  0  0  0  0  0
   -0.2670    8.0420   -1.3770 C   0  0  0  0  0  0  0  0  0  0  0  0
   -1.5310    7.4070   -1.8540 C   0  0  0  0  0  0  0  0  0  0  0  0
   -2.7380    8.0010   -1.8970 C   0  0  0  0  0  0  0  0  0  0  0  0
   -2.9380    9.4180   -1.3440 C   0  0  1  0  0  0  0  0  0  0  0  0
   -4.2130    9.4550   -0.4610 C   0  0  0  0  0  0  0  0  0  0  0  0
   -5.4460    8.9340   -1.1930 C   0  0  0  0  0  0  0  0  0  0  0  0
   -5.2300    7.5030   -1.6760 C   0  0  2  0  0  0  0  0  0  0  0  0
   -5.1280    6.6420   -0.5380 O   0  0  0  0  0  0  0  0  0  0  0  0
   -3.9680    7.3410   -2.5680 C   0  0  0  0  0  0  0  0  0  0  0  0
   -4.2040    8.0300   -3.9350 C   0  0  0  0  0  0  0  0  0  0  0  0
   -3.7870    5.8290   -2.8700 C   0  0  0  0  0  0  0  0  0  0  0  0
   -1.6780   10.0660   -0.6240 C   0  0  1  0  0  0  0  0  0  0  0  0
   -1.6530    9.6520    0.8790 C   0  0  0  0  0  0  0  0  0  0  0  0
   -1.8190   11.6340   -0.6510 C   0  0  0  0  0  0  0  0  0  0  0  0
   -1.2620   12.3610   -1.8900 C   0  0  0  0  0  0  0  0  0  0  0  0
    0.1630   11.8960   -2.2040 C   0  0  2  0  0  0  0  0  0  0  0  0
    1.0720   12.2850   -0.9890 C   0  0  0  0  0  0  0  0  0  0  0  0
    1.1582   13.7857   -1.2898 H   0  0  0  0  0  0  0  0  0  0  0  0
    2.8464   13.7840   -1.9037 H   0  0  0  0  0  0  0  0  0  0  0  0
    1.8922   15.3059   -1.9037 H   0  0  0  0  0  0  0  0  0  0  0  0
    2.1770   14.0072   -4.1368 H   0  0  0  0  0  0  0  0  0  0  0  0
   -0.0475   14.6269   -4.9331 H   0  0  0  0  0  0  0  0  0  0  0  0
   -0.6157   14.7482   -3.1995 H   0  0  0  0  0  0  0  0  0  0  0  0
    1.7375   16.4067   -3.9589 H   0  0  0  0  0  0  0  0  0  0  0  0
    0.1278   16.8774   -4.6483 H   0  0  0  0  0  0  0  0  0  0  0  0
   -0.3673   16.1149   -2.2753 H   0  0  0  0  0  0  0  0  0  0  0  0
    3.2549   18.2344   -1.2866 H   0  0  0  0  0  0  0  0  0  0  0  0
    2.9672   17.2640   -2.7707 H   0  0  0  0  0  0  0  0  0  0  0  0
    2.6263   19.0277   -2.7707 H   0  0  0  0  0  0  0  0  0  0  0  0
    1.7205   17.5191    0.3274 H   0  0  0  0  0  0  0  0  0  0  0  0
    0.9003   19.0810   -0.0109 H   0  0  0  0  0  0  0  0  0  0  0  0
   -0.0433   17.5525   -0.0109 H   0  0  0  0  0  0  0  0  0  0  0  0
    0.0510   12.5691   -4.2800 H   0  0  0  0  0  0  0  0  0  0  0  0
    1.9587   11.2097   -4.8743 H   0  0  0  0  0  0  0  0  0  0  0  0
    2.9169   11.8209   -3.5086 H   0  0  0  0  0  0  0  0  0  0  0  0
    1.6617    9.2577   -3.6418 H   0  0  0  0  0  0  0  0  0  0  0  0
    2.2732    9.9823   -2.1568 H   0  0  0  0  0  0  0  0  0  0  0  0
   -1.7080    9.5603   -3.4215 H   0  0  0  0  0  0  0  0  0  0  0  0
   -0.9378   10.8747   -4.3733 H   0  0  0  0  0  0  0  0  0  0  0  0
   -0.2214    9.2275   -4.3733 H   0  0  0  0  0  0  0  0  0  0  0  0
    0.4808    9.8375   -0.5319 H   0  0  0  0  0  0  0  0  0  0  0  0
    0.5329    7.7818   -2.0858 H   0  0  0  0  0  0  0  0  0  0  0  0
   -0.0969    7.6567   -0.3608 H   0  0  0  0  0  0  0  0  0  0  0  0
   -1.4708    6.3645   -2.1999 H   0  0  0  0  0  0  0  0  0  0  0  0
   -3.0721   10.0695   -2.2201 H   0  0  0  0  0  0  0  0  0  0  0  0
   -4.0430    8.8332    0.4303 H   0  0  0  0  0  0  0  0  0  0  0  0
   -4.4028   10.5045   -0.1918 H   0  0  0  0  0  0  0  0  0  0  0  0
   -6.3071    8.9568   -0.5089 H   0  0  0  0  0  0  0  0  0  0  0  0
   -5.6319    9.5751   -2.0673 H   0  0  0  0  0  0  0  0  0  0  0  0
   -6.0933    7.2332   -2.3020 H   0  0  0  0  0  0  0  0  0  0  0  0
   -4.4420    7.0070    0.0470 H   0  0  0  0  0  0  0  0  0  0  0  0
   -4.5565    9.0590   -3.7710 H   0  0  0  0  0  0  0  0  0  0  0  0
   -3.2619    8.0512   -4.5024 H   0  0  0  0  0  0  0  0  0  0  0  0
   -4.9613    7.4691   -4.5024 H   0  0  0  0  0  0  0  0  0  0  0  0
   -3.7203    5.2716   -1.9240 H   0  0  0  0  0  0  0  0  0  0  0  0
   -4.6480    5.4653   -3.4500 H   0  0  0  0  0  0  0  0  0  0  0  0
   -2.8645    5.6788   -3.4500 H   0  0  0  0  0  0  0  0  0  0  0  0
   -1.7074   10.5526    1.5083 H   0  0  0  0  0  0  0  0  0  0  0  0
   -2.5135    9.0015    1.0945 H   0  0  0  0  0  0  0  0  0  0  0  0
   -0.7205    9.1098    1.0945 H   0  0  0  0  0  0  0  0  0  0  0  0
   -2.8903   11.8729   -0.5787 H   0  0  0  0  0  0  0  0  0  0  0  0
   -1.2086   11.9921    0.1911 H   0  0  0  0  0  0  0  0  0  0  0  0
   -1.9088   12.1472   -2.7537 H   0  0  0  0  0  0  0  0  0  0  0  0
   -1.2408   13.4411   -1.6828 H   0  0  0  0  0  0  0  0  0  0  0  0
    0.5452   12.0596   -0.0500 H   0  0  0  0  0  0  0  0  0  0  0  0
    2.0079   11.7086   -1.0319 H   0  0  0  0  0  0  0  0  0  0  0  0
    1.3012   13.3600   -1.0319 H   0  0  0  0  0  0  0  0  0  0  0  0
  1  2  1  0
  2  3  1  0
  3  4  1  0
  4  5  1  0
  5  6  1  0
  6  7  1  0
  7  8  1  0
  7  9  1  0
  2 10  1  0
 10 11  1  0
 11 12  1  0
 12 13  1  0
 13 14  1  6
 13 15  1  0
 15 16  1  0
 16 17  1  0
 17 18  2  0
 18 19  1  0
 19 20  1  0
 20 21  1  0
 21 22  1  0
 22 23  1  0
 22 24  1  0
 24 25  1  0
 24 26  1  0
 19 27  1  0
 27 28  1  1
 27 29  1  0
 29 30  1  0
 30 31  1  0
 31 32  1  1
  7  5  1  0
 31 10  1  0
 31 13  1  0
 27 15  1  0
 24 18  1  0
  1 33  1  0
  1 34  1  0
  1 35  1  0
  2 36  1  6
  3 37  1  0
  3 38  1  0
  4 39  1  0
  4 40  1  0
  5 41  1  1
  8 42  1  0
  8 43  1  0
  8 44  1  0
  9 45  1  0
  9 46  1  0
  9 47  1  0
 10 48  1  6
 11 49  1  0
 11 50  1  0
 12 51  1  0
 12 52  1  0
 14 53  1  0
 14 54  1  0
 14 55  1  0
 15 56  1  1
 16 57  1  0
 16 58  1  0
 17 59  1  0
 19 60  1  6
 20 61  1  0
 20 62  1  0
 21 63  1  0
 21 64  1  0
 22 65  1  6
 23 66  1  0
 25 67  1  0
 25 68  1  0
 25 69  1  0
 26 70  1  0
 26 71  1  0
 26 72  1  0
 28 73  1  0
 28 74  1  0
 28 75  1  0
 29 76  1  0
 29 77  1  0
 30 78  1  0
 30 79  1  0
 32 80  1  0
 32 81  1  0
 32 82  1  0
M  END
>  <meeko>  (18) 
{"is_sidechain": [false], "intermolecular_energy": 2.731, "internal_energy": -0.839}

$$$$
EPH_relaxed_0001_pdb2pqr_Repair_183_r2_0001_out
     RDKit          3D

 82 86  0  0  0  0  0  0  0  0999 V2000
  -15.0330    9.0100    0.6760 C   0  0  0  0  0  0  0  0  0  0  0  0
  -14.1330    9.1770   -0.5510 C   0  0  2  0  0  0  0  0  0  0  0  0
  -14.5020    8.1940   -1.6800 C   0  0  0  0  0  0  0  0  0  0  0  0
  -14.5620    8.8410   -3.0660 C   0  0  0  0  0  0  0  0  0  0  0  0
  -15.2540   10.1710   -3.0270 C   0  0  2  0  0  0  0  0  0  0  0  0
  -14.9680   11.0270   -4.1400 O   0  0  0  0  0  0  0  0  0  0  0  0
  -14.5230   11.4890   -2.8550 C   0  0  0  0  0  0  0  0  0  0  0  0
  -13.0340   11.5430   -2.7090 C   0  0  0  0  0  0  0  0  0  0  0  0
  -15.2870   12.6690   -2.3410 C   0  0  0  0  0  0  0  0  0  0  0  0
  -12.6730    8.9920   -0.1550 C   0  0  1  0  0  0  0  0  0  0  0  0
  -12.4810    8.8770    1.3810 C   0  0  0  0  0  0  0  0  0  0  0  0
  -11.3160    7.8810    1.6130 C   0  0  0  0  0  0  0  0  0  0  0  0
  -10.6640    7.7130    0.2210 C   0  0  1  0  0  0  0  0  0  0  0  0
   -9.7350    8.9580    0.0600 C   0  0  0  0  0  0  0  0  0  0  0  0
   -9.8870    6.3780   -0.0220 C   0  0  2  0  0  0  0  0  0  0  0  0
   -8.6710    6.1550    0.8940 C   0  0  0  0  0  0  0  0  0  0  0  0
   -7.3740    6.6770    0.3720 C   0  0  0  0  0  0  0  0  0  0  0  0
   -7.1340    7.0440   -0.9000 C   0  0  0  0  0  0  0  0  0  0  0  0
   -8.2000    6.8580   -1.9880 C   0  0  1  0  0  0  0  0  0  0  0  0
   -7.5510    6.2230   -3.2460 C   0  0  0  0  0  0  0  0  0  0  0  0
   -6.3420    7.0100   -3.7420 C   0  0  0  0  0  0  0  0  0  0  0  0
   -5.2800    7.1240   -2.6510 C   0  0  2  0  0  0  0  0  0  0  0  0
   -4.7470    5.8220   -2.3890 O   0  0  0  0  0  0  0  0  0  0  0  0
   -5.8210    7.7420   -1.3320 C   0  0  0  0  0  0  0  0  0  0  0  0
   -6.1170    9.2470   -1.5460 C   0  0  0  0  0  0  0  0  0  0  0  0
   -4.6890    7.6690   -0.2710 C   0  0  0  0  0  0  0  0  0  0  0  0
   -9.5250    6.1050   -1.5390 C   0  0  1  0  0  0  0  0  0  0  0  0
   -9.3360    4.5640   -1.6810 C   0  0  0  0  0  0  0  0  0  0  0  0
  -10.6970    6.5000   -2.5130 C   0  0  0  0  0  0  0  0  0  0  0  0
  -11.5040    7.7630   -2.1540 C   0  0  0  0  0  0  0  0  0  0  0  0
  -11.9460    7.7320   -0.6880 C   0  0  2  0  0  0  0  0  0  0  0  0
  -12.9000    6.5030   -0.5020 C   0  0  0  0  0  0  0  0  0  0  0  0
  -14.4313    9.1217    1.5900 H   0  0  0  0  0  0  0  0  0  0  0  0
  -15.8211    9.7772    0.6598 H   0  0  0  0  0  0  0  0  0  0  0  0
  -15.4934    8.0111    0.6598 H   0  0  0  0  0  0  0  0  0  0  0  0
  -14.2864   10.1955   -0.9371 H   0  0  0  0  0  0  0  0  0  0  0  0
  -13.7481    7.3933   -1.7032 H   0  0  0  0  0  0  0  0  0  0  0  0
  -15.5108    7.8154   -1.4587 H   0  0  0  0  0  0  0  0  0  0  0  0
  -13.5366    8.9833   -3.4378 H   0  0  0  0  0  0  0  0  0  0  0  0
  -15.1332    8.1762   -3.7307 H   0  0  0  0  0  0  0  0  0  0  0  0
  -16.1180    9.7330   -2.5059 H   0  0  0  0  0  0  0  0  0  0  0  0
  -12.7704   11.5526   -1.6411 H   0  0  0  0  0  0  0  0  0  0  0  0
  -12.5862   10.6605   -3.1893 H   0  0  0  0  0  0  0  0  0  0  0  0
  -12.6513   12.4556   -3.1893 H   0  0  0  0  0  0  0  0  0  0  0  0
  -15.2806   12.6591   -1.2411 H   0  0  0  0  0  0  0  0  0  0  0  0
  -14.8170   13.5957   -2.7021 H   0  0  0  0  0  0  0  0  0  0  0  0
  -16.3249   12.6194   -2.7021 H   0  0  0  0  0  0  0  0  0  0  0  0
  -12.2422    9.8960   -0.6102 H   0  0  0  0  0  0  0  0  0  0  0  0
  -12.2293    9.8599    1.8059 H   0  0  0  0  0  0  0  0  0  0  0  0
  -13.4027    8.5272    1.8690 H   0  0  0  0  0  0  0  0  0  0  0  0
  -10.5928    8.2903    2.3338 H   0  0  0  0  0  0  0  0  0  0  0  0
  -11.6621    6.9238    2.0300 H   0  0  0  0  0  0  0  0  0  0  0  0
   -9.4529    9.3360    1.0538 H   0  0  0  0  0  0  0  0  0  0  0  0
   -8.8290    8.6703   -0.4936 H   0  0  0  0  0  0  0  0  0  0  0  0
  -10.2687    9.7446   -0.4936 H   0  0  0  0  0  0  0  0  0  0  0  0
  -10.6263    5.6183    0.2717 H   0  0  0  0  0  0  0  0  0  0  0  0
   -8.8743    6.6501    1.8550 H   0  0  0  0  0  0  0  0  0  0  0  0
   -8.5486    5.0649    0.9765 H   0  0  0  0  0  0  0  0  0  0  0  0
   -6.5439    6.7696    1.0878 H   0  0  0  0  0  0  0  0  0  0  0  0
   -8.5692    7.8662   -2.2272 H   0  0  0  0  0  0  0  0  0  0  0  0
   -7.2288    5.2008   -2.9985 H   0  0  0  0  0  0  0  0  0  0  0  0
   -8.3038    6.2276   -4.0480 H   0  0  0  0  0  0  0  0  0  0  0  0
   -5.9098    6.4951   -4.6127 H   0  0  0  0  0  0  0  0  0  0  0  0
   -6.6715    8.0225   -4.0183 H   0  0  0  0  0  0  0  0  0  0  0  0
   -4.4997    7.8060   -3.0199 H   0  0  0  0  0  0  0  0  0  0  0  0
   -4.1370    5.6030   -3.1140 H   0  0  0  0  0  0  0  0  0  0  0  0
   -6.2147    9.7439   -0.5695 H   0  0  0  0  0  0  0  0  0  0  0  0
   -5.2920    9.7063   -2.1102 H   0  0  0  0  0  0  0  0  0  0  0  0
   -7.0545    9.3597   -2.1102 H   0  0  0  0  0  0  0  0  0  0  0  0
   -5.1287    7.6974    0.7369 H   0  0  0  0  0  0  0  0  0  0  0  0
   -4.1261    6.7327   -0.3992 H   0  0  0  0  0  0  0  0  0  0  0  0
   -4.0105    8.5253   -0.3992 H   0  0  0  0  0  0  0  0  0  0  0  0
   -9.2801    4.1078   -0.6816 H   0  0  0  0  0  0  0  0  0  0  0  0
  -10.1888    4.1391   -2.2308 H   0  0  0  0  0  0  0  0  0  0  0  0
   -8.4058    4.3578   -2.2308 H   0  0  0  0  0  0  0  0  0  0  0  0
  -10.2618    6.6559   -3.5111 H   0  0  0  0  0  0  0  0  0  0  0  0
  -11.4168    5.6707   -2.4479 H   0  0  0  0  0  0  0  0  0  0  0  0
  -10.8767    8.6508   -2.3221 H   0  0  0  0  0  0  0  0  0  0  0  0
  -12.4006    7.7993   -2.7903 H   0  0  0  0  0  0  0  0  0  0  0  0
  -13.0478    6.3127    0.5713 H   0  0  0  0  0  0  0  0  0  0  0  0
  -13.8705    6.7175   -0.9734 H   0  0  0  0  0  0  0  0  0  0  0  0
  -12.4515    5.6160   -0.9734 H   0  0  0  0  0  0  0  0  0  0  0  0
  1  2  1  0
  2  3  1  0
  3  4  1  0
  4  5  1  0
  5  6  1  0
  6  7  1  0
  7  8  1  0
  7  9  1  0
  2 10  1  0
 10 11  1  0
 11 12  1  0
 12 13  1  0
 13 14  1  6
 13 15  1  0
 15 16  1  0
 16 17  1  0
 17 18  2  0
 18 19  1  0
 19 20  1  0
 20 21  1  0
 21 22  1  0
 22 23  1  0
 22 24  1  0
 24 25  1  0
 24 26  1  0
 19 27  1  0
 27 28  1  1
 27 29  1  0
 29 30  1  0
 30 31  1  0
 31 32  1  6
  7  5  1  0
 31 10  1  0
 31 13  1  0
 27 15  1  0
 24 18  1  0
  1 33  1  0
  1 34  1  0
  1 35  1  0
  2 36  1  6
  3 37  1  0
  3 38  1  0
  4 39  1  0
  4 40  1  0
  5 41  1  1
  8 42  1  0
  8 43  1  0
  8 44  1  0
  9 45  1  0
  9 46  1  0
  9 47  1  0
 10 48  1  6
 11 49  1  0
 11 50  1  0
 12 51  1  0
 12 52  1  0
 14 53  1  0
 14 54  1  0
 14 55  1  0
 15 56  1  1
 16 57  1  0
 16 58  1  0
 17 59  1  0
 19 60  1  6
 20 61  1  0
 20 62  1  0
 21 63  1  0
 21 64  1  0
 22 65  1  6
 23 66  1  0
 25 67  1  0
 25 68  1  0
 25 69  1  0
 26 70  1  0
 26 71  1  0
 26 72  1  0
 28 73  1  0
 28 74  1  0
 28 75  1  0
 29 76  1  0
 29 77  1  0
 30 78  1  0
 30 79  1  0
 32 80  1  0
 32 81  1  0
 32 82  1  0
M  END
>  <meeko>  (19) 
{"is_sidechain": [false], "intermolecular_energy": 2.731, "internal_energy": -0.839}

$$$$
