EPH_relaxed_0001_pdb2pqr_Repair_104_r2_0001_out
     RDKit          3D

 82 86  0  0  0  0  0  0  0  0999 V2000
   -1.4120    8.5420   -1.8080 C   0  0  0  0  0  0  0  0  0  0  0  0
   -1.8290    9.1110   -0.4490 C   0  0  2  0  0  0  0  0  0  0  0  0
   -3.3260    9.4760   -0.4060 C   0  0  0  0  0  0  0  0  0  0  0  0
   -4.2550    8.2590   -0.3770 C   0  0  0  0  0  0  0  0  0  0  0  0
   -4.6970    7.8660   -1.7540 C   0  0  2  0  0  0  0  0  0  0  0  0
   -6.1150    7.7220   -1.9100 O   0  0  0  0  0  0  0  0  0  0  0  0
   -5.3350    6.5270   -2.0780 C   0  0  0  0  0  0  0  0  0  0  0  0
   -5.5650    5.4960   -1.0180 C   0  0  0  0  0  0  0  0  0  0  0  0
   -5.2850    6.0340   -3.4910 C   0  0  0  0  0  0  0  0  0  0  0  0
   -0.9850   10.3370   -0.1180 C   0  0  1  0  0  0  0  0  0  0  0  0
    0.1060   10.0420    0.9460 C   0  0  0  0  0  0  0  0  0  0  0  0
    1.3370   10.9080    0.5760 C   0  0  0  0  0  0  0  0  0  0  0  0
    0.8080   11.9090   -0.4770 C   0  0  1  0  0  0  0  0  0  0  0  0
    0.1100   13.0320    0.3520 C   0  0  0  0  0  0  0  0  0  0  0  0
    1.8670   12.4960   -1.4660 C   0  0  2  0  0  0  0  0  0  0  0  0
    2.9810   13.3300   -0.8100 C   0  0  0  0  0  0  0  0  0  0  0  0
    2.6970   14.7910   -0.6900 C   0  0  0  0  0  0  0  0  0  0  0  0
    1.7240   15.4550   -1.3420 C   0  0  0  0  0  0  0  0  0  0  0  0
    0.8480   14.7460   -2.3830 C   0  0  1  0  0  0  0  0  0  0  0  0
    0.7370   15.6280   -3.6540 C   0  0  0  0  0  0  0  0  0  0  0  0
    0.2500   17.0400   -3.3460 C   0  0  0  0  0  0  0  0  0  0  0  0
    1.1790   17.7330   -2.3530 C   0  0  2  0  0  0  0  0  0  0  0  0
    2.4480   17.9460   -2.9800 O   0  0  0  0  0  0  0  0  0  0  0  0
    1.3750   16.9320   -1.0350 C   0  0  0  0  0  0  0  0  0  0  0  0
    0.0650   16.9600   -0.2090 C   0  0  0  0  0  0  0  0  0  0  0  0
    2.4420   17.6700   -0.1820 C   0  0  0  0  0  0  0  0  0  0  0  0
    1.2440   13.2430   -2.7150 C   0  0  1  0  0  0  0  0  0  0  0  0
    2.3270   13.2140   -3.8370 C   0  0  0  0  0  0  0  0  0  0  0  0
   -0.0150   12.4950   -3.2930 C   0  0  0  0  0  0  0  0  0  0  0  0
   -0.9600   11.8330   -2.2710 C   0  0  0  0  0  0  0  0  0  0  0  0
   -0.1750   10.9760   -1.2740 C   0  0  2  0  0  0  0  0  0  0  0  0
    0.5210    9.8240   -2.0770 C   0  0  0  0  0  0  0  0  0  0  0  0
   -0.7680    7.6633   -1.6556 H   0  0  0  0  0  0  0  0  0  0  0  0
   -2.3086    8.2461   -2.3723 H   0  0  0  0  0  0  0  0  0  0  0  0
   -0.8598    9.3079   -2.3723 H   0  0  0  0  0  0  0  0  0  0  0  0
   -1.6588    8.3271    0.3037 H   0  0  0  0  0  0  0  0  0  0  0  0
   -3.5114   10.0762    0.4970 H   0  0  0  0  0  0  0  0  0  0  0  0
   -3.5490   10.0291   -1.3303 H   0  0  0  0  0  0  0  0  0  0  0  0
   -3.7206    7.4135    0.0807 H   0  0  0  0  0  0  0  0  0  0  0  0
   -5.1485    8.5236    0.2074 H   0  0  0  0  0  0  0  0  0  0  0  0
   -3.8544    8.4106   -2.2051 H   0  0  0  0  0  0  0  0  0  0  0  0
   -5.4614    5.9604   -0.0262 H   0  0  0  0  0  0  0  0  0  0  0  0
   -6.5779    5.0805   -1.1243 H   0  0  0  0  0  0  0  0  0  0  0  0
   -4.8247    4.6893   -1.1243 H   0  0  0  0  0  0  0  0  0  0  0  0
   -5.1740    4.9396   -3.4938 H   0  0  0  0  0  0  0  0  0  0  0  0
   -6.2157    6.3095   -4.0086 H   0  0  0  0  0  0  0  0  0  0  0  0
   -4.4286    6.4907   -4.0086 H   0  0  0  0  0  0  0  0  0  0  0  0
   -1.7789   11.0241    0.2100 H   0  0  0  0  0  0  0  0  0  0  0  0
   -0.2593   10.3114    1.9480 H   0  0  0  0  0  0  0  0  0  0  0  0
    0.3650    8.9730    0.9603 H   0  0  0  0  0  0  0  0  0  0  0  0
    1.7175   11.4399    1.4605 H   0  0  0  0  0  0  0  0  0  0  0  0
    2.1725   10.3032    0.1936 H   0  0  0  0  0  0  0  0  0  0  0  0
    0.2368   12.8280    1.4254 H   0  0  0  0  0  0  0  0  0  0  0  0
    0.5634   14.0039    0.1074 H   0  0  0  0  0  0  0  0  0  0  0  0
   -0.9622   13.0557    0.1074 H   0  0  0  0  0  0  0  0  0  0  0  0
    2.3592   11.5899   -1.8492 H   0  0  0  0  0  0  0  0  0  0  0  0
    3.1523   12.9328    0.2014 H   0  0  0  0  0  0  0  0  0  0  0  0
    3.8558   13.2432   -1.4712 H   0  0  0  0  0  0  0  0  0  0  0  0
    3.3369   15.3742   -0.0115 H   0  0  0  0  0  0  0  0  0  0  0  0
   -0.1433   14.6333   -1.9198 H   0  0  0  0  0  0  0  0  0  0  0  0
    1.7284   15.6922   -4.1262 H   0  0  0  0  0  0  0  0  0  0  0  0
   -0.0004   15.1591   -4.3221 H   0  0  0  0  0  0  0  0  0  0  0  0
    0.2212   17.6223   -4.2788 H   0  0  0  0  0  0  0  0  0  0  0  0
   -0.7541   16.9759   -2.9014 H   0  0  0  0  0  0  0  0  0  0  0  0
    0.7092   18.6873   -2.0728 H   0  0  0  0  0  0  0  0  0  0  0  0
    3.0040   18.4430   -2.3570 H   0  0  0  0  0  0  0  0  0  0  0  0
    0.3078   16.9548    0.8639 H   0  0  0  0  0  0  0  0  0  0  0  0
   -0.5024   17.8705   -0.4521 H   0  0  0  0  0  0  0  0  0  0  0  0
   -0.5408   16.0746   -0.4521 H   0  0  0  0  0  0  0  0  0  0  0  0
    2.2254   17.5202    0.8860 H   0  0  0  0  0  0  0  0  0  0  0  0
    3.4392   17.2677   -0.4138 H   0  0  0  0  0  0  0  0  0  0  0  0
    2.4174   18.7450   -0.4138 H   0  0  0  0  0  0  0  0  0  0  0  0
    3.3274   13.1872   -3.3804 H   0  0  0  0  0  0  0  0  0  0  0  0
    2.1847   12.3193   -4.4610 H   0  0  0  0  0  0  0  0  0  0  0  0
    2.2327   14.1150   -4.4610 H   0  0  0  0  0  0  0  0  0  0  0  0
   -0.6037   13.2274   -3.8648 H   0  0  0  0  0  0  0  0  0  0  0  0
    0.3919   11.6646   -3.8887 H   0  0  0  0  0  0  0  0  0  0  0  0
   -1.5029   12.6168   -1.7225 H   0  0  0  0  0  0  0  0  0  0  0  0
   -1.6640   11.1845   -2.8130 H   0  0  0  0  0  0  0  0  0  0  0  0
    0.9586    9.0997   -1.3742 H   0  0  0  0  0  0  0  0  0  0  0  0
   -0.2223    9.3174   -2.7102 H   0  0  0  0  0  0  0  0  0  0  0  0
    1.3152   10.2463   -2.7102 H   0  0  0  0  0  0  0  0  0  0  0  0
  1  2  1  0
  2  3  1  0
  3  4  1  0
  4  5  1  0
  5  6  1  0
  6  7  1  0
  7  8  1  0
  7  9  1  0
  2 10  1  0
 10 11  1  0
 11 12  1  0
 12 13  1  0
 13 14  1  1
 13 15  1  0
 15 16  1  0
 16 17  1  0
 17 18  2  0
 18 19  1  0
 19 20  1  0
 20 21  1  0
 21 22  1  0
 22 23  1  0
 22 24  1  0
 24 25  1  0
 24 26  1  0
 19 27  1  0
 27 28  1  6
 27 29  1  0
 29 30  1  0
 30 31  1  0
 31 32  1  6
  7  5  1  0
 31 10  1  0
 31 13  1  0
 27 15  1  0
 24 18  1  0
  1 33  1  0
  1 34  1  0
  1 35  1  0
  2 36  1  1
  3 37  1  0
  3 38  1  0
  4 39  1  0
  4 40  1  0
  5 41  1  6
  8 42  1  0
  8 43  1  0
  8 44  1  0
  9 45  1  0
  9 46  1  0
  9 47  1  0
 10 48  1  1
 11 49  1  0
 11 50  1  0
 12 51  1  0
 12 52  1  0
 14 53  1  0
 14 54  1  0
 14 55  1  0
 15 56  1  6
 16 57  1  0
 16 58  1  0
 17 59  1  0
 19 60  1  1
 20 61  1  0
 20 62  1  0
 21 63  1  0
 21 64  1  0
 22 65  1  1
 23 66  1  0
 25 67  1  0
 25 68  1  0
 25 69  1  0
 26 70  1  0
 26 71  1  0
 26 72  1  0
 28 73  1  0
 28 74  1  0
 28 75  1  0
 29 76  1  0
 29 77  1  0
 30 78  1  0
 30 79  1  0
 32 80  1  0
 32 81  1  0
 32 82  1  0
M  END
>  <meeko>  (1) 
{"is_sidechain": [false], "intermolecular_energy": 2.731, "internal_energy": -0.839}

$$$$
EPH_relaxed_0001_pdb2pqr_Repair_104_r2_0001_out
     RDKit          3D

 82 86  0  0  0  0  0  0  0  0999 V2000
    4.2770   17.5230   -0.6250 C   0  0  0  0  0  0  0  0  0  0  0  0
    2.9130   18.1090   -0.2510 C   0  0  2  0  0  0  0  0  0  0  0  0
    2.9460   18.8370    1.1080 C   0  0  0  0  0  0  0  0  0  0  0  0
    4.2720   18.6800    1.8580 C   0  0  0  0  0  0  0  0  0  0  0  0
    4.1870   19.2200    3.2530 C   0  0  2  0  0  0  0  0  0  0  0  0
    5.1860   20.1940    3.5800 O   0  0  0  0  0  0  0  0  0  0  0  0
    5.2380   18.9610    4.3160 C   0  0  0  0  0  0  0  0  0  0  0  0
    6.4500   18.1310    4.0290 C   0  0  0  0  0  0  0  0  0  0  0  0
    4.8500   19.1010    5.7550 C   0  0  0  0  0  0  0  0  0  0  0  0
    1.8620   17.0050   -0.2250 C   0  0  1  0  0  0  0  0  0  0  0  0
    0.4310   17.5360   -0.5030 C   0  0  0  0  0  0  0  0  0  0  0  0
   -0.3100   16.4290   -1.2980 C   0  0  0  0  0  0  0  0  0  0  0  0
    0.5940   15.1820   -1.1640 C   0  0  1  0  0  0  0  0  0  0  0  0
    0.2480   14.5830    0.2350 C   0  0  0  0  0  0  0  0  0  0  0  0
    0.4670   14.1110   -2.2970 C   0  0  2  0  0  0  0  0  0  0  0  0
   -0.9180   13.4520   -2.4190 C   0  0  0  0  0  0  0  0  0  0  0  0
   -1.1070   12.2110   -1.6110 C   0  0  0  0  0  0  0  0  0  0  0  0
   -0.1220   11.4890   -1.0440 C   0  0  0  0  0  0  0  0  0  0  0  0
    1.3510   11.8510   -1.2730 C   0  0  1  0  0  0  0  0  0  0  0  0
    2.1530   10.5670   -1.6150 C   0  0  0  0  0  0  0  0  0  0  0  0
    1.9770    9.4720   -0.5670 C   0  0  0  0  0  0  0  0  0  0  0  0
    0.5050    9.0990   -0.4100 C   0  0  2  0  0  0  0  0  0  0  0  0
    0.0540    8.4810   -1.6200 O   0  0  0  0  0  0  0  0  0  0  0  0
   -0.4030   10.3150   -0.0740 C   0  0  0  0  0  0  0  0  0  0  0  0
   -0.1150   10.7970    1.3690 C   0  0  0  0  0  0  0  0  0  0  0  0
   -1.8770    9.8280   -0.0830 C   0  0  0  0  0  0  0  0  0  0  0  0
    1.6240   13.0320   -2.3020 C   0  0  1  0  0  0  0  0  0  0  0  0
    1.6990   12.4660   -3.7530 C   0  0  0  0  0  0  0  0  0  0  0  0
    3.0330   13.6640   -1.9970 C   0  0  0  0  0  0  0  0  0  0  0  0
    3.0760   14.7980   -0.9560 C   0  0  0  0  0  0  0  0  0  0  0  0
    2.0110   15.8570   -1.2550 C   0  0  2  0  0  0  0  0  0  0  0  0
    2.3460   16.4930   -2.6480 C   0  0  0  0  0  0  0  0  0  0  0  0
    4.8365   17.2826    0.2911 H   0  0  0  0  0  0  0  0  0  0  0  0
    4.1328   16.6074   -1.2174 H   0  0  0  0  0  0  0  0  0  0  0  0
    4.8418   18.2579   -1.2174 H   0  0  0  0  0  0  0  0  0  0  0  0
    2.6516   18.8532   -1.0177 H   0  0  0  0  0  0  0  0  0  0  0  0
    2.7711   19.9087    0.9323 H   0  0  0  0  0  0  0  0  0  0  0  0
    2.1656   18.3820    1.7357 H   0  0  0  0  0  0  0  0  0  0  0  0
    4.5310   17.6119    1.9044 H   0  0  0  0  0  0  0  0  0  0  0  0
    5.0418   19.2492    1.3163 H   0  0  0  0  0  0  0  0  0  0  0  0
    3.0928   19.1076    3.2547 H   0  0  0  0  0  0  0  0  0  0  0  0
    6.9110   17.8153    4.9765 H   0  0  0  0  0  0  0  0  0  0  0  0
    6.1574   17.2428    3.4498 H   0  0  0  0  0  0  0  0  0  0  0  0
    7.1724   18.7249    3.4498 H   0  0  0  0  0  0  0  0  0  0  0  0
    5.6927   18.7969    6.3932 H   0  0  0  0  0  0  0  0  0  0  0  0
    4.5909   20.1493    5.9646 H   0  0  0  0  0  0  0  0  0  0  0  0
    3.9812   18.4596    5.9646 H   0  0  0  0  0  0  0  0  0  0  0  0
    2.0237   16.6202    0.7927 H   0  0  0  0  0  0  0  0  0  0  0  0
   -0.0901   17.7349    0.4451 H   0  0  0  0  0  0  0  0  0  0  0  0
    0.4623   18.4772   -1.0716 H   0  0  0  0  0  0  0  0  0  0  0  0
   -1.3026   16.2376   -0.8643 H   0  0  0  0  0  0  0  0  0  0  0  0
   -0.4791   16.7111   -2.3477 H   0  0  0  0  0  0  0  0  0  0  0  0
    0.6317   15.2473    1.0234 H   0  0  0  0  0  0  0  0  0  0  0  0
   -0.8435   14.4890    0.3338 H   0  0  0  0  0  0  0  0  0  0  0  0
    0.7119   13.5905    0.3338 H   0  0  0  0  0  0  0  0  0  0  0  0
    0.5914   14.7150   -3.2079 H   0  0  0  0  0  0  0  0  0  0  0  0
   -1.6727   14.1850   -2.0978 H   0  0  0  0  0  0  0  0  0  0  0  0
   -1.0189   13.1483   -3.4714 H   0  0  0  0  0  0  0  0  0  0  0  0
   -2.1382   11.8564   -1.4666 H   0  0  0  0  0  0  0  0  0  0  0  0
    1.7103   12.2747   -0.3236 H   0  0  0  0  0  0  0  0  0  0  0  0
    1.8082   10.1840   -2.5868 H   0  0  0  0  0  0  0  0  0  0  0  0
    3.2193   10.8360   -1.6417 H   0  0  0  0  0  0  0  0  0  0  0  0
    2.5429    8.5815   -0.8782 H   0  0  0  0  0  0  0  0  0  0  0  0
    2.3493    9.8463    0.3980 H   0  0  0  0  0  0  0  0  0  0  0  0
    0.4294    8.4068    0.4415 H   0  0  0  0  0  0  0  0  0  0  0  0
   -0.8330    8.1200   -1.4530 H   0  0  0  0  0  0  0  0  0  0  0  0
   -0.5425   10.0815    2.0868 H   0  0  0  0  0  0  0  0  0  0  0  0
    0.9721   10.8653    1.5227 H   0  0  0  0  0  0  0  0  0  0  0  0
   -0.5699   11.7867    1.5227 H   0  0  0  0  0  0  0  0  0  0  0  0
   -2.2309    9.7111    0.9519 H   0  0  0  0  0  0  0  0  0  0  0  0
   -2.5041   10.5667   -0.6037 H   0  0  0  0  0  0  0  0  0  0  0  0
   -1.9405    8.8611   -0.6037 H   0  0  0  0  0  0  0  0  0  0  0  0
    1.8434   11.3762   -3.7145 H   0  0  0  0  0  0  0  0  0  0  0  0
    0.7629   12.6933   -4.2841 H   0  0  0  0  0  0  0  0  0  0  0  0
    2.5436   12.9292   -4.2841 H   0  0  0  0  0  0  0  0  0  0  0  0
    3.6885   12.8572   -1.6372 H   0  0  0  0  0  0  0  0  0  0  0  0
    3.3498   14.1294   -2.9420 H   0  0  0  0  0  0  0  0  0  0  0  0
    2.8935   14.3762    0.0434 H   0  0  0  0  0  0  0  0  0  0  0  0
    4.0663   15.2750   -0.9975 H   0  0  0  0  0  0  0  0  0  0  0  0
    2.8539   17.4572   -2.4983 H   0  0  0  0  0  0  0  0  0  0  0  0
    3.0043   15.8155   -3.2116 H   0  0  0  0  0  0  0  0  0  0  0  0
    1.4150   16.6526   -3.2116 H   0  0  0  0  0  0  0  0  0  0  0  0
  1  2  1  0
  2  3  1  0
  3  4  1  0
  4  5  1  0
  5  6  1  0
  6  7  1  0
  7  8  1  0
  7  9  1  0
  2 10  1  0
 10 11  1  0
 11 12  1  0
 12 13  1  0
 13 14  1  1
 13 15  1  0
 15 16  1  0
 16 17  1  0
 17 18  2  0
 18 19  1  0
 19 20  1  0
 20 21  1  0
 21 22  1  0
 22 23  1  0
 22 24  1  0
 24 25  1  0
 24 26  1  0
 19 27  1  0
 27 28  1  6
 27 29  1  0
 29 30  1  0
 30 31  1  0
 31 32  1  6
  7  5  1  0
 31 10  1  0
 31 13  1  0
 27 15  1  0
 24 18  1  0
  1 33  1  0
  1 34  1  0
  1 35  1  0
  2 36  1  6
  3 37  1  0
  3 38  1  0
  4 39  1  0
  4 40  1  0
  5 41  1  1
  8 42  1  0
  8 43  1  0
  8 44  1  0
  9 45  1  0
  9 46  1  0
  9 47  1  0
 10 48  1  1
 11 49  1  0
 11 50  1  0
 12 51  1  0
 12 52  1  0
 14 53  1  0
 14 54  1  0
 14 55  1  0
 15 56  1  6
 16 57  1  0
 16 58  1  0
 17 59  1  0
 19 60  1  1
 20 61  1  0
 20 62  1  0
 21 63  1  0
 21 64  1  0
 22 65  1  1
 23 66  1  0
 25 67  1  0
 25 68  1  0
 25 69  1  0
 26 70  1  0
 26 71  1  0
 26 72  1  0
 28 73  1  0
 28 74  1  0
 28 75  1  0
 29 76  1  0
 29 77  1  0
 30 78  1  0
 30 79  1  0
 32 80  1  0
 32 81  1  0
 32 82  1  0
M  END
>  <meeko>  (2) 
{"is_sidechain": [false], "intermolecular_energy": 2.731, "internal_energy": -0.839}

$$$$
EPH_relaxed_0001_pdb2pqr_Repair_104_r2_0001_out
     RDKit          3D

 82 86  0  0  0  0  0  0  0  0999 V2000
    2.1720   18.0480   -2.5800 C   0  0  0  0  0  0  0  0  0  0  0  0
    0.6500   17.8940   -2.6480 C   0  0  2  0  0  0  0  0  0  0  0  0
   -0.0400   18.3650   -1.3530 C   0  0  0  0  0  0  0  0  0  0  0  0
    0.6990   17.9540   -0.0770 C   0  0  0  0  0  0  0  0  0  0  0  0
    1.2760   19.1390    0.6360 C   0  0  2  0  0  0  0  0  0  0  0  0
    2.1920   19.9190   -0.1430 O   0  0  0  0  0  0  0  0  0  0  0  0
    2.7420   19.2590    1.0080 C   0  0  0  0  0  0  0  0  0  0  0  0
    3.7220   18.1770    0.6800 C   0  0  0  0  0  0  0  0  0  0  0  0
    3.1260   20.1940    2.1130 C   0  0  0  0  0  0  0  0  0  0  0  0
    0.2870   16.4410   -2.9330 C   0  0  1  0  0  0  0  0  0  0  0  0
    0.3340   16.1000   -4.4460 C   0  0  0  0  0  0  0  0  0  0  0  0
    0.8320   14.6360   -4.5590 C   0  0  0  0  0  0  0  0  0  0  0  0
    0.7370   14.0800   -3.1190 C   0  0  1  0  0  0  0  0  0  0  0  0
   -0.7630   13.6880   -2.9380 C   0  0  0  0  0  0  0  0  0  0  0  0
    1.6900   12.8890   -2.7740 C   0  0  2  0  0  0  0  0  0  0  0  0
    1.4560   11.6080   -3.5930 C   0  0  0  0  0  0  0  0  0  0  0  0
    0.4880   10.6380   -2.9990 C   0  0  0  0  0  0  0  0  0  0  0  0
    0.0500   10.6520   -1.7260 C   0  0  0  0  0  0  0  0  0  0  0  0
    0.6080   11.6570   -0.7110 C   0  0  1  0  0  0  0  0  0  0  0  0
    0.9510   10.9220    0.6110 C   0  0  0  0  0  0  0  0  0  0  0  0
   -0.2300   10.1300    1.1630 C   0  0  0  0  0  0  0  0  0  0  0  0
   -0.7200    9.1010    0.1480 C   0  0  2  0  0  0  0  0  0  0  0  0
    0.2960    8.1090   -0.0290 O   0  0  0  0  0  0  0  0  0  0  0  0
   -1.0860    9.7250   -1.2280 C   0  0  0  0  0  0  0  0  0  0  0  0
   -2.3770   10.5690   -1.0900 C   0  0  0  0  0  0  0  0  0  0  0  0
   -1.4280    8.5650   -2.2020 C   0  0  0  0  0  0  0  0  0  0  0  0
    1.8000   12.5740   -1.2270 C   0  0  1  0  0  0  0  0  0  0  0  0
    3.1620   11.8440   -1.0170 C   0  0  0  0  0  0  0  0  0  0  0  0
    1.8580   13.8820   -0.3530 C   0  0  0  0  0  0  0  0  0  0  0  0
    0.9840   15.0650   -0.8130 C   0  0  0  0  0  0  0  0  0  0  0  0
    1.1860   15.3470   -2.3050 C   0  0  2  0  0  0  0  0  0  0  0  0
    2.6810   15.7650   -2.5140 C   0  0  0  0  0  0  0  0  0  0  0  0
    2.4906   18.0802   -1.5276 H   0  0  0  0  0  0  0  0  0  0  0  0
    2.6498   17.1936   -3.0818 H   0  0  0  0  0  0  0  0  0  0  0  0
    2.4689   18.9808   -3.0818 H   0  0  0  0  0  0  0  0  0  0  0  0
    0.2889   18.5349   -3.4658 H   0  0  0  0  0  0  0  0  0  0  0  0
   -0.1092   19.4626   -1.3759 H   0  0  0  0  0  0  0  0  0  0  0  0
   -1.0280   17.8825   -1.3216 H   0  0  0  0  0  0  0  0  0  0  0  0
   -0.0065   17.4428    0.5945 H   0  0  0  0  0  0  0  0  0  0  0  0
    1.5272   17.2877   -0.3602 H   0  0  0  0  0  0  0  0  0  0  0  0
    0.3533   19.2656    1.2213 H   0  0  0  0  0  0  0  0  0  0  0  0
    4.1148   17.7433    1.6115 H   0  0  0  0  0  0  0  0  0  0  0  0
    3.2202   17.3932    0.0937 H   0  0  0  0  0  0  0  0  0  0  0  0
    4.5515   18.5990    0.0937 H   0  0  0  0  0  0  0  0  0  0  0  0
    2.9293   19.7151    3.0835 H   0  0  0  0  0  0  0  0  0  0  0  0
    4.1962   20.4356    2.0336 H   0  0  0  0  0  0  0  0  0  0  0  0
    2.5346   21.1181    2.0336 H   0  0  0  0  0  0  0  0  0  0  0  0
   -0.7153   16.4090   -2.4810 H   0  0  0  0  0  0  0  0  0  0  0  0
   -0.6694   16.1939   -4.8869 H   0  0  0  0  0  0  0  0  0  0  0  0
    1.0023   16.7874   -4.9853 H   0  0  0  0  0  0  0  0  0  0  0  0
    0.1904   14.0590   -5.2413 H   0  0  0  0  0  0  0  0  0  0  0  0
    1.8526   14.5724   -4.9645 H   0  0  0  0  0  0  0  0  0  0  0  0
   -0.9990   13.6263   -1.8654 H   0  0  0  0  0  0  0  0  0  0  0  0
   -1.4006   14.4497   -3.4105 H   0  0  0  0  0  0  0  0  0  0  0  0
   -0.9464   12.7118   -3.4105 H   0  0  0  0  0  0  0  0  0  0  0  0
    2.6708   13.2720   -3.0922 H   0  0  0  0  0  0  0  0  0  0  0  0
    1.0778   11.9022   -4.5832 H   0  0  0  0  0  0  0  0  0  0  0  0
    2.4248   11.0881   -3.6275 H   0  0  0  0  0  0  0  0  0  0  0  0
    0.1005    9.8459   -3.6566 H   0  0  0  0  0  0  0  0  0  0  0  0
   -0.1948   12.3878   -0.5337 H   0  0  0  0  0  0  0  0  0  0  0  0
    1.7838   10.2284    0.4230 H   0  0  0  0  0  0  0  0  0  0  0  0
    1.2198   11.6844    1.3570 H   0  0  0  0  0  0  0  0  0  0  0  0
    0.0829    9.6098    2.0803 H   0  0  0  0  0  0  0  0  0  0  0  0
   -1.0515   10.8293    1.3779 H   0  0  0  0  0  0  0  0  0  0  0  0
   -1.6439    8.6570    0.5472 H   0  0  0  0  0  0  0  0  0  0  0  0
    0.2370    7.7880   -0.9450 H   0  0  0  0  0  0  0  0  0  0  0  0
   -2.6053   10.7183   -0.0244 H   0  0  0  0  0  0  0  0  0  0  0  0
   -2.2299   11.5459   -1.5738 H   0  0  0  0  0  0  0  0  0  0  0  0
   -3.2128   10.0424   -1.5738 H   0  0  0  0  0  0  0  0  0  0  0  0
   -1.6927    7.6671   -1.6243 H   0  0  0  0  0  0  0  0  0  0  0  0
   -2.2783    8.8571   -2.8358 H   0  0  0  0  0  0  0  0  0  0  0  0
   -0.5553    8.3491   -2.8358 H   0  0  0  0  0  0  0  0  0  0  0  0
    3.3591   11.7383    0.0600 H   0  0  0  0  0  0  0  0  0  0  0  0
    3.1195   10.8478   -1.4814 H   0  0  0  0  0  0  0  0  0  0  0  0
    3.9681   12.4310   -1.4814 H   0  0  0  0  0  0  0  0  0  0  0  0
    1.5456   13.6145    0.6672 H   0  0  0  0  0  0  0  0  0  0  0  0
    2.8946   14.2397   -0.4391 H   0  0  0  0  0  0  0  0  0  0  0  0
   -0.0737   14.8228   -0.6323 H   0  0  0  0  0  0  0  0  0  0  0  0
    1.2763   15.9597   -0.2438 H   0  0  0  0  0  0  0  0  0  0  0  0
    3.1642   15.9001   -1.5351 H   0  0  0  0  0  0  0  0  0  0  0  0
    3.2062   14.9792   -3.0768 H   0  0  0  0  0  0  0  0  0  0  0  0
    2.7225   16.7092   -3.0768 H   0  0  0  0  0  0  0  0  0  0  0  0
  1  2  1  0
  2  3  1  0
  3  4  1  0
  4  5  1  0
  5  6  1  0
  6  7  1  0
  7  8  1  0
  7  9  1  0
  2 10  1  0
 10 11  1  0
 11 12  1  0
 12 13  1  0
 13 14  1  1
 13 15  1  0
 15 16  1  0
 16 17  1  0
 17 18  2  0
 18 19  1  0
 19 20  1  0
 20 21  1  0
 21 22  1  0
 22 23  1  0
 22 24  1  0
 24 25  1  0
 24 26  1  0
 19 27  1  0
 27 28  1  6
 27 29  1  0
 29 30  1  0
 30 31  1  0
 31 32  1  1
  7  5  1  0
 31 10  1  0
 31 13  1  0
 27 15  1  0
 24 18  1  0
  1 33  1  0
  1 34  1  0
  1 35  1  0
  2 36  1  6
  3 37  1  0
  3 38  1  0
  4 39  1  0
  4 40  1  0
  5 41  1  1
  8 42  1  0
  8 43  1  0
  8 44  1  0
  9 45  1  0
  9 46  1  0
  9 47  1  0
 10 48  1  1
 11 49  1  0
 11 50  1  0
 12 51  1  0
 12 52  1  0
 14 53  1  0
 14 54  1  0
 14 55  1  0
 15 56  1  6
 16 57  1  0
 16 58  1  0
 17 59  1  0
 19 60  1  1
 20 61  1  0
 20 62  1  0
 21 63  1  0
 21 64  1  0
 22 65  1  1
 23 66  1  0
 25 67  1  0
 25 68  1  0
 25 69  1  0
 26 70  1  0
 26 71  1  0
 26 72  1  0
 28 73  1  0
 28 74  1  0
 28 75  1  0
 29 76  1  0
 29 77  1  0
 30 78  1  0
 30 79  1  0
 32 80  1  0
 32 81  1  0
 32 82  1  0
M  END
>  <meeko>  (3) 
{"is_sidechain": [false], "intermolecular_energy": 2.731, "internal_energy": -0.839}

$$$$
EPH_relaxed_0001_pdb2pqr_Repair_104_r2_0001_out
     RDKit          3D

 82 86  0  0  0  0  0  0  0  0999 V2000
    0.4100   18.4600   -0.0100 C   0  0  0  0  0  0  0  0  0  0  0  0
    1.5000   17.4070   -0.2290 C   0  0  2  0  0  0  0  0  0  0  0  0
    2.7130   17.9760   -0.9910 C   0  0  0  0  0  0  0  0  0  0  0  0
    3.9440   18.1990   -0.1090 C   0  0  0  0  0  0  0  0  0  0  0  0
    3.5660   18.6650    1.2640 C   0  0  2  0  0  0  0  0  0  0  0  0
    3.8160   20.0540    1.5150 O   0  0  0  0  0  0  0  0  0  0  0  0
    4.5750   19.1210    2.3010 C   0  0  0  0  0  0  0  0  0  0  0  0
    6.0430   19.1320    2.0090 C   0  0  0  0  0  0  0  0  0  0  0  0
    4.1820   19.0890    3.7450 C   0  0  0  0  0  0  0  0  0  0  0  0
    0.9250   16.2130   -0.9830 C   0  0  1  0  0  0  0  0  0  0  0  0
    0.7660   16.4860   -2.5020 C   0  0  0  0  0  0  0  0  0  0  0  0
    1.0570   15.1480   -3.2300 C   0  0  0  0  0  0  0  0  0  0  0  0
    1.0450   14.0840   -2.1080 C   0  0  1  0  0  0  0  0  0  0  0  0
   -0.4660   13.7710   -1.8680 C   0  0  0  0  0  0  0  0  0  0  0  0
    1.8670   12.7830   -2.3810 C   0  0  2  0  0  0  0  0  0  0  0  0
    1.3850   11.9450   -3.5780 C   0  0  0  0  0  0  0  0  0  0  0  0
    0.3700   10.8990   -3.2560 C   0  0  0  0  0  0  0  0  0  0  0  0
    0.0740   10.4490   -2.0230 C   0  0  0  0  0  0  0  0  0  0  0  0
    0.8610   10.9320   -0.7980 C   0  0  1  0  0  0  0  0  0  0  0  0
    1.2450    9.7150    0.0840 C   0  0  0  0  0  0  0  0  0  0  0  0
    0.0370    8.8650    0.4650 C   0  0  0  0  0  0  0  0  0  0  0  0
   -0.6860    8.3550   -0.7790 C   0  0  2  0  0  0  0  0  0  0  0  0
    0.1690    7.4350   -1.4630 O   0  0  0  0  0  0  0  0  0  0  0  0
   -1.1130    9.4920   -1.7480 C   0  0  0  0  0  0  0  0  0  0  0  0
   -2.2630   10.3130   -1.1140 C   0  0  0  0  0  0  0  0  0  0  0  0
   -1.7030    8.8350   -3.0250 C   0  0  0  0  0  0  0  0  0  0  0  0
    2.0990   11.8820   -1.1010 C   0  0  1  0  0  0  0  0  0  0  0  0
    3.3700   11.0240   -1.3840 C   0  0  0  0  0  0  0  0  0  0  0  0
    2.4180   12.7360    0.1830 C   0  0  0  0  0  0  0  0  0  0  0  0
    1.6600   14.0690    0.3360 C   0  0  0  0  0  0  0  0  0  0  0  0
    1.7370   14.8940   -0.9520 C   0  0  2  0  0  0  0  0  0  0  0  0
    3.2430   15.2430   -1.2070 C   0  0  0  0  0  0  0  0  0  0  0  0
    0.2557   18.6091    1.0689 H   0  0  0  0  0  0  0  0  0  0  0  0
    0.7197   19.4096   -0.4708 H   0  0  0  0  0  0  0  0  0  0  0  0
   -0.5284   18.1177   -0.4708 H   0  0  0  0  0  0  0  0  0  0  0  0
    1.8538   17.0863    0.7620 H   0  0  0  0  0  0  0  0  0  0  0  0
    2.9823   17.2711   -1.7913 H   0  0  0  0  0  0  0  0  0  0  0  0
    2.4147   18.9601   -1.3815 H   0  0  0  0  0  0  0  0  0  0  0  0
    4.4977   17.2523   -0.0241 H   0  0  0  0  0  0  0  0  0  0  0  0
    4.5638   18.9782   -0.5766 H   0  0  0  0  0  0  0  0  0  0  0  0
    2.7400   17.9398    1.3076 H   0  0  0  0  0  0  0  0  0  0  0  0
    6.6049   19.1362    2.9546 H   0  0  0  0  0  0  0  0  0  0  0  0
    6.3082   18.2358    1.4289 H   0  0  0  0  0  0  0  0  0  0  0  0
    6.2947   20.0321    1.4289 H   0  0  0  0  0  0  0  0  0  0  0  0
    5.0829   19.1624    4.3719 H   0  0  0  0  0  0  0  0  0  0  0  0
    3.5143   19.9357    3.9621 H   0  0  0  0  0  0  0  0  0  0  0  0
    3.6600   18.1454    3.9621 H   0  0  0  0  0  0  0  0  0  0  0  0
   -0.0195   16.0857   -0.4337 H   0  0  0  0  0  0  0  0  0  0  0  0
   -0.2583   16.8216   -2.7214 H   0  0  0  0  0  0  0  0  0  0  0  0
    1.4557   17.2753   -2.8357 H   0  0  0  0  0  0  0  0  0  0  0  0
    0.2777   14.9343   -3.9764 H   0  0  0  0  0  0  0  0  0  0  0  0
    2.0119   15.1686   -3.7757 H   0  0  0  0  0  0  0  0  0  0  0  0
   -0.6647   13.7298   -0.7869 H   0  0  0  0  0  0  0  0  0  0  0  0
   -1.0810   14.5608   -2.3240 H   0  0  0  0  0  0  0  0  0  0  0  0
   -0.7166   12.8019   -2.3240 H   0  0  0  0  0  0  0  0  0  0  0  0
    2.8495   13.1825   -2.6727 H   0  0  0  0  0  0  0  0  0  0  0  0
    0.9444   12.6301   -4.3172 H   0  0  0  0  0  0  0  0  0  0  0  0
    2.2698   11.4068   -3.9489 H   0  0  0  0  0  0  0  0  0  0  0  0
   -0.1832   10.4585   -4.0986 H   0  0  0  0  0  0  0  0  0  0  0  0
    0.1823   11.5954   -0.2419 H   0  0  0  0  0  0  0  0  0  0  0  0
    1.9569    9.0871   -0.4719 H   0  0  0  0  0  0  0  0  0  0  0  0
    1.6875   10.1024    1.0136 H   0  0  0  0  0  0  0  0  0  0  0  0
    0.3756    8.0055    1.0622 H   0  0  0  0  0  0  0  0  0  0  0  0
   -0.6602    9.4866    1.0460 H   0  0  0  0  0  0  0  0  0  0  0  0
   -1.6120    7.8638   -0.4454 H   0  0  0  0  0  0  0  0  0  0  0  0
    1.0600    7.8230   -1.4890 H   0  0  0  0  0  0  0  0  0  0  0  0
   -2.1897   10.2607   -0.0177 H   0  0  0  0  0  0  0  0  0  0  0  0
   -2.1862   11.3617   -1.4370 H   0  0  0  0  0  0  0  0  0  0  0  0
   -3.2299    9.8997   -1.4370 H   0  0  0  0  0  0  0  0  0  0  0  0
   -2.4123    8.0452   -2.7367 H   0  0  0  0  0  0  0  0  0  0  0  0
   -2.2256    9.5973   -3.6215 H   0  0  0  0  0  0  0  0  0  0  0  0
   -0.8891    8.3971   -3.6215 H   0  0  0  0  0  0  0  0  0  0  0  0
    3.8248   10.7170   -0.4307 H   0  0  0  0  0  0  0  0  0  0  0  0
    3.0883   10.1305   -1.9605 H   0  0  0  0  0  0  0  0  0  0  0  0
    4.0934   11.6193   -1.9605 H   0  0  0  0  0  0  0  0  0  0  0  0
    2.1833   12.1169    1.0614 H   0  0  0  0  0  0  0  0  0  0  0  0
    3.4773   13.0163    0.0868 H   0  0  0  0  0  0  0  0  0  0  0  0
    0.6051   13.8588    0.5662 H   0  0  0  0  0  0  0  0  0  0  0  0
    2.1242   14.6452    1.1500 H   0  0  0  0  0  0  0  0  0  0  0  0
    3.7599   15.3628   -0.2434 H   0  0  0  0  0  0  0  0  0  0  0  0
    3.7160   14.4307   -1.7783 H   0  0  0  0  0  0  0  0  0  0  0  0
    3.3105   16.1806   -1.7783 H   0  0  0  0  0  0  0  0  0  0  0  0
  1  2  1  0
  2  3  1  0
  3  4  1  0
  4  5  1  0
  5  6  1  0
  6  7  1  0
  7  8  1  0
  7  9  1  0
  2 10  1  0
 10 11  1  0
 11 12  1  0
 12 13  1  0
 13 14  1  1
 13 15  1  0
 15 16  1  0
 16 17  1  0
 17 18  2  0
 18 19  1  0
 19 20  1  0
 20 21  1  0
 21 22  1  0
 22 23  1  0
 22 24  1  0
 24 25  1  0
 24 26  1  0
 19 27  1  0
 27 28  1  6
 27 29  1  0
 29 30  1  0
 30 31  1  0
 31 32  1  6
  7  5  1  0
 31 10  1  0
 31 13  1  0
 27 15  1  0
 24 18  1  0
  1 33  1  0
  1 34  1  0
  1 35  1  0
  2 36  1  1
  3 37  1  0
  3 38  1  0
  4 39  1  0
  4 40  1  0
  5 41  1  1
  8 42  1  0
  8 43  1  0
  8 44  1  0
  9 45  1  0
  9 46  1  0
  9 47  1  0
 10 48  1  1
 11 49  1  0
 11 50  1  0
 12 51  1  0
 12 52  1  0
 14 53  1  0
 14 54  1  0
 14 55  1  0
 15 56  1  6
 16 57  1  0
 16 58  1  0
 17 59  1  0
 19 60  1  1
 20 61  1  0
 20 62  1  0
 21 63  1  0
 21 64  1  0
 22 65  1  1
 23 66  1  0
 25 67  1  0
 25 68  1  0
 25 69  1  0
 26 70  1  0
 26 71  1  0
 26 72  1  0
 28 73  1  0
 28 74  1  0
 28 75  1  0
 29 76  1  0
 29 77  1  0
 30 78  1  0
 30 79  1  0
 32 80  1  0
 32 81  1  0
 32 82  1  0
M  END
>  <meeko>  (4) 
{"is_sidechain": [false], "intermolecular_energy": 2.731, "internal_energy": -0.839}

$$$$
EPH_relaxed_0001_pdb2pqr_Repair_104_r2_0001_out
     RDKit          3D

 82 86  0  0  0  0  0  0  0  0999 V2000
    2.1810   18.1460   -2.6920 C   0  0  0  0  0  0  0  0  0  0  0  0
    0.8910   17.7370   -1.9750 C   0  0  2  0  0  0  0  0  0  0  0  0
    1.0350   17.8000   -0.4410 C   0  0  0  0  0  0  0  0  0  0  0  0
    0.6800   19.1650    0.1550 C   0  0  0  0  0  0  0  0  0  0  0  0
   -0.7560   19.2280    0.5800 C   0  0  2  0  0  0  0  0  0  0  0  0
   -1.6210   18.3050   -0.0950 O   0  0  0  0  0  0  0  0  0  0  0  0
   -1.8770   19.6990   -0.3280 C   0  0  0  0  0  0  0  0  0  0  0  0
   -1.6100   20.1410   -1.7330 C   0  0  0  0  0  0  0  0  0  0  0  0
   -3.1450   20.1920    0.2980 C   0  0  0  0  0  0  0  0  0  0  0  0
    0.4810   16.3330   -2.4030 C   0  0  1  0  0  0  0  0  0  0  0  0
    0.5540   16.1310   -3.9400 C   0  0  0  0  0  0  0  0  0  0  0  0
    0.9990   14.6650   -4.1780 C   0  0  0  0  0  0  0  0  0  0  0  0
    0.8460   13.9820   -2.7990 C   0  0  1  0  0  0  0  0  0  0  0  0
   -0.6720   13.6360   -2.6880 C   0  0  0  0  0  0  0  0  0  0  0  0
    1.7440   12.7280   -2.5460 C   0  0  2  0  0  0  0  0  0  0  0  0
    1.4840   11.5380   -3.4860 C   0  0  0  0  0  0  0  0  0  0  0  0
    0.4650   10.5580   -3.0070 C   0  0  0  0  0  0  0  0  0  0  0  0
   -0.0060   10.4710   -1.7490 C   0  0  0  0  0  0  0  0  0  0  0  0
    0.5640   11.3540   -0.6320 C   0  0  1  0  0  0  0  0  0  0  0  0
    0.8440   10.4870    0.6230 C   0  0  0  0  0  0  0  0  0  0  0  0
   -0.3800    9.6950    1.0720 C   0  0  0  0  0  0  0  0  0  0  0  0
   -0.8810    8.7850   -0.0460 C   0  0  2  0  0  0  0  0  0  0  0  0
    0.1000    7.7730   -0.2930 O   0  0  0  0  0  0  0  0  0  0  0  0
   -1.1880    9.5470   -1.3660 C   0  0  0  0  0  0  0  0  0  0  0  0
   -2.4500   10.4260   -1.1770 C   0  0  0  0  0  0  0  0  0  0  0  0
   -1.5490    8.4970   -2.4510 C   0  0  0  0  0  0  0  0  0  0  0  0
    1.8020   12.2660   -1.0330 C   0  0  1  0  0  0  0  0  0  0  0  0
    3.1290   11.4660   -0.8620 C   0  0  0  0  0  0  0  0  0  0  0  0
    1.8870   13.4840   -0.0390 C   0  0  0  0  0  0  0  0  0  0  0  0
    1.0710   14.7390   -0.4060 C   0  0  0  0  0  0  0  0  0  0  0  0
    1.3220   15.1500   -1.8600 C   0  0  2  0  0  0  0  0  0  0  0  0
    2.8370   15.5260   -1.9960 C   0  0  0  0  0  0  0  0  0  0  0  0
    2.9527   18.3907   -1.9472 H   0  0  0  0  0  0  0  0  0  0  0  0
    2.5299   17.3144   -3.3219 H   0  0  0  0  0  0  0  0  0  0  0  0
    1.9870   19.0267   -3.3219 H   0  0  0  0  0  0  0  0  0  0  0  0
    0.1097   18.4558   -2.2630 H   0  0  0  0  0  0  0  0  0  0  0  0
    0.3696   17.0441    0.0016 H   0  0  0  0  0  0  0  0  0  0  0  0
    2.0942   17.6138   -0.2096 H   0  0  0  0  0  0  0  0  0  0  0  0
    1.3194   19.3486    1.0310 H   0  0  0  0  0  0  0  0  0  0  0  0
    0.8424   19.9297   -0.6189 H   0  0  0  0  0  0  0  0  0  0  0  0
   -0.4658   19.5117    1.6024 H   0  0  0  0  0  0  0  0  0  0  0  0
   -1.0413   21.0825   -1.7194 H   0  0  0  0  0  0  0  0  0  0  0  0
   -1.0275   19.3683   -2.2560 H   0  0  0  0  0  0  0  0  0  0  0  0
   -2.5650   20.2971   -2.2560 H   0  0  0  0  0  0  0  0  0  0  0  0
   -3.0514   20.1556    1.3934 H   0  0  0  0  0  0  0  0  0  0  0  0
   -3.3320   21.2284   -0.0198 H   0  0  0  0  0  0  0  0  0  0  0  0
   -3.9829   19.5542   -0.0198 H   0  0  0  0  0  0  0  0  0  0  0  0
   -0.5334   16.3002   -1.9788 H   0  0  0  0  0  0  0  0  0  0  0  0
   -0.4335   16.3053   -4.3923 H   0  0  0  0  0  0  0  0  0  0  0  0
    1.2616   16.8378   -4.3980 H   0  0  0  0  0  0  0  0  0  0  0  0
    0.3539   14.1798   -4.9253 H   0  0  0  0  0  0  0  0  0  0  0  0
    2.0267   14.5986   -4.5646 H   0  0  0  0  0  0  0  0  0  0  0  0
   -0.9567   13.5711   -1.6275 H   0  0  0  0  0  0  0  0  0  0  0  0
   -1.2641   14.4222   -3.1792 H   0  0  0  0  0  0  0  0  0  0  0  0
   -0.8650   12.6708   -3.1792 H   0  0  0  0  0  0  0  0  0  0  0  0
    2.7459   13.1007   -2.8053 H   0  0  0  0  0  0  0  0  0  0  0  0
    1.1438   11.9368   -4.4531 H   0  0  0  0  0  0  0  0  0  0  0  0
    2.4330   10.9851   -3.5467 H   0  0  0  0  0  0  0  0  0  0  0  0
    0.0651    9.8466   -3.7446 H   0  0  0  0  0  0  0  0  0  0  0  0
   -0.2148   12.0969   -0.4050 H   0  0  0  0  0  0  0  0  0  0  0  0
    1.6548    9.7810    0.3901 H   0  0  0  0  0  0  0  0  0  0  0  0
    1.1214   11.1660    1.4427 H   0  0  0  0  0  0  0  0  0  0  0  0
   -0.1110    9.0800    1.9435 H   0  0  0  0  0  0  0  0  0  0  0  0
   -1.1800   10.4033    1.3333 H   0  0  0  0  0  0  0  0  0  0  0  0
   -1.8309    8.3439    0.2903 H   0  0  0  0  0  0  0  0  0  0  0  0
    0.7210    8.1200   -0.9560 H   0  0  0  0  0  0  0  0  0  0  0  0
   -2.6448   10.5617   -0.1029 H   0  0  0  0  0  0  0  0  0  0  0  0
   -2.2872   11.4071   -1.6470 H   0  0  0  0  0  0  0  0  0  0  0  0
   -3.3139    9.9332   -1.6470 H   0  0  0  0  0  0  0  0  0  0  0  0
   -1.8699    7.5636   -1.9655 H   0  0  0  0  0  0  0  0  0  0  0  0
   -2.3658    8.8837   -3.0781 H   0  0  0  0  0  0  0  0  0  0  0  0
   -0.6671    8.2997   -3.0781 H   0  0  0  0  0  0  0  0  0  0  0  0
    3.3437   11.3366    0.2091 H   0  0  0  0  0  0  0  0  0  0  0  0
    3.0261   10.4793   -1.3372 H   0  0  0  0  0  0  0  0  0  0  0  0
    3.9535   12.0176   -1.3372 H   0  0  0  0  0  0  0  0  0  0  0  0
    1.5379   13.1360    0.9444 H   0  0  0  0  0  0  0  0  0  0  0  0
    2.9385   13.8059   -0.0676 H   0  0  0  0  0  0  0  0  0  0  0  0
    0.0005   14.5240   -0.2725 H   0  0  0  0  0  0  0  0  0  0  0  0
    1.3827   15.5646    0.2507 H   0  0  0  0  0  0  0  0  0  0  0  0
    3.2789   15.6357   -0.9946 H   0  0  0  0  0  0  0  0  0  0  0  0
    3.3642   14.7314   -2.5444 H   0  0  0  0  0  0  0  0  0  0  0  0
    2.9315   16.4748   -2.5444 H   0  0  0  0  0  0  0  0  0  0  0  0
  1  2  1  0
  2  3  1  0
  3  4  1  0
  4  5  1  0
  5  6  1  0
  6  7  1  0
  7  8  1  0
  7  9  1  0
  2 10  1  0
 10 11  1  0
 11 12  1  0
 12 13  1  0
 13 14  1  1
 13 15  1  0
 15 16  1  0
 16 17  1  0
 17 18  2  0
 18 19  1  0
 19 20  1  0
 20 21  1  0
 21 22  1  0
 22 23  1  0
 22 24  1  0
 24 25  1  0
 24 26  1  0
 19 27  1  0
 27 28  1  6
 27 29  1  0
 29 30  1  0
 30 31  1  0
 31 32  1  1
  7  5  1  0
 31 10  1  0
 31 13  1  0
 27 15  1  0
 24 18  1  0
  1 33  1  0
  1 34  1  0
  1 35  1  0
  2 36  1  6
  3 37  1  0
  3 38  1  0
  4 39  1  0
  4 40  1  0
  5 41  1  1
  8 42  1  0
  8 43  1  0
  8 44  1  0
  9 45  1  0
  9 46  1  0
  9 47  1  0
 10 48  1  1
 11 49  1  0
 11 50  1  0
 12 51  1  0
 12 52  1  0
 14 53  1  0
 14 54  1  0
 14 55  1  0
 15 56  1  6
 16 57  1  0
 16 58  1  0
 17 59  1  0
 19 60  1  1
 20 61  1  0
 20 62  1  0
 21 63  1  0
 21 64  1  0
 22 65  1  1
 23 66  1  0
 25 67  1  0
 25 68  1  0
 25 69  1  0
 26 70  1  0
 26 71  1  0
 26 72  1  0
 28 73  1  0
 28 74  1  0
 28 75  1  0
 29 76  1  0
 29 77  1  0
 30 78  1  0
 30 79  1  0
 32 80  1  0
 32 81  1  0
 32 82  1  0
M  END
>  <meeko>  (5) 
{"is_sidechain": [false], "intermolecular_energy": 2.731, "internal_energy": -0.839}

$$$$
EPH_relaxed_0001_pdb2pqr_Repair_104_r2_0001_out
     RDKit          3D

 82 86  0  0  0  0  0  0  0  0999 V2000
   -0.7150    9.3500   -2.1350 C   0  0  0  0  0  0  0  0  0  0  0  0
   -1.2100    9.7530   -0.7430 C   0  0  2  0  0  0  0  0  0  0  0  0
   -2.7400    9.9430   -0.7040 C   0  0  0  0  0  0  0  0  0  0  0  0
   -3.5120    8.6540   -0.4100 C   0  0  0  0  0  0  0  0  0  0  0  0
   -3.6560    7.8030   -1.6350 C   0  0  2  0  0  0  0  0  0  0  0  0
   -4.5280    8.3400   -2.6380 O   0  0  0  0  0  0  0  0  0  0  0  0
   -4.9480    7.1100   -2.0250 C   0  0  0  0  0  0  0  0  0  0  0  0
   -6.1840    7.2370   -1.1910 C   0  0  0  0  0  0  0  0  0  0  0  0
   -4.8780    5.9260   -2.9390 C   0  0  0  0  0  0  0  0  0  0  0  0
   -0.5150   11.0340   -0.2960 C   0  0  1  0  0  0  0  0  0  0  0  0
    0.6900   10.7620    0.6440 C   0  0  0  0  0  0  0  0  0  0  0  0
    1.7590   11.8390    0.3230 C   0  0  0  0  0  0  0  0  0  0  0  0
    1.0130   12.8830   -0.5400 C   0  0  1  0  0  0  0  0  0  0  0  0
    0.2410   13.7730    0.4840 C   0  0  0  0  0  0  0  0  0  0  0  0
    1.8970   13.7430   -1.5010 C   0  0  2  0  0  0  0  0  0  0  0  0
    2.9390   14.6370   -0.8050 C   0  0  0  0  0  0  0  0  0  0  0  0
    2.4710   16.0120   -0.4590 C   0  0  0  0  0  0  0  0  0  0  0  0
    1.3670   16.6080   -0.9470 C   0  0  0  0  0  0  0  0  0  0  0  0
    0.5110   15.9230   -2.0200 C   0  0  1  0  0  0  0  0  0  0  0  0
    0.1770   16.9390   -3.1430 C   0  0  0  0  0  0  0  0  0  0  0  0
   -0.4690   18.2130   -2.6060 C   0  0  0  0  0  0  0  0  0  0  0  0
    0.4370   18.8960   -1.5850 C   0  0  2  0  0  0  0  0  0  0  0  0
    1.6090   19.3720   -2.2550 O   0  0  0  0  0  0  0  0  0  0  0  0
    0.8480   17.9650   -0.4110 C   0  0  0  0  0  0  0  0  0  0  0  0
   -0.3800   17.6930    0.4930 C   0  0  0  0  0  0  0  0  0  0  0  0
    1.8730   18.7300    0.4690 C   0  0  0  0  0  0  0  0  0  0  0  0
    1.0780   14.5510   -2.5880 C   0  0  1  0  0  0  0  0  0  0  0  0
    2.0570   14.8280   -3.7690 C   0  0  0  0  0  0  0  0  0  0  0  0
   -0.1130   13.7110   -3.1850 C   0  0  0  0  0  0  0  0  0  0  0  0
   -0.8710   12.7900   -2.2100 C   0  0  0  0  0  0  0  0  0  0  0  0
    0.1020   11.9310   -1.3980 C   0  0  2  0  0  0  0  0  0  0  0  0
    0.8780   11.0090   -2.3990 C   0  0  0  0  0  0  0  0  0  0  0  0
    0.1346    8.6583   -2.0360 H   0  0  0  0  0  0  0  0  0  0  0  0
   -1.5291    8.8546   -2.6844 H   0  0  0  0  0  0  0  0  0  0  0  0
   -0.3950   10.2476   -2.6844 H   0  0  0  0  0  0  0  0  0  0  0  0
   -0.9610    8.9338   -0.0524 H   0  0  0  0  0  0  0  0  0  0  0  0
   -2.9791   10.6775    0.0792 H   0  0  0  0  0  0  0  0  0  0  0  0
   -3.0479   10.2816   -1.7043 H   0  0  0  0  0  0  0  0  0  0  0  0
   -2.9722    8.0827    0.3596 H   0  0  0  0  0  0  0  0  0  0  0  0
   -4.5190    8.9288   -0.0628 H   0  0  0  0  0  0  0  0  0  0  0  0
   -2.6245    7.4356   -1.5296 H   0  0  0  0  0  0  0  0  0  0  0  0
   -5.9119    7.2090   -0.1256 H   0  0  0  0  0  0  0  0  0  0  0  0
   -6.6825    8.1911   -1.4172 H   0  0  0  0  0  0  0  0  0  0  0  0
   -6.8661    6.4042   -1.4172 H   0  0  0  0  0  0  0  0  0  0  0  0
   -4.8235    5.0041   -2.3413 H   0  0  0  0  0  0  0  0  0  0  0  0
   -5.7761    5.8990   -3.5736 H   0  0  0  0  0  0  0  0  0  0  0  0
   -3.9830    6.0050   -3.5736 H   0  0  0  0  0  0  0  0  0  0  0  0
   -1.3644   11.5499    0.1756 H   0  0  0  0  0  0  0  0  0  0  0  0
    0.3760   10.8413    1.6952 H   0  0  0  0  0  0  0  0  0  0  0  0
    1.0907    9.7492    0.4900 H   0  0  0  0  0  0  0  0  0  0  0  0
    2.1373   12.2986    1.2480 H   0  0  0  0  0  0  0  0  0  0  0  0
    2.6335   11.4179   -0.1945 H   0  0  0  0  0  0  0  0  0  0  0  0
    0.5055   13.4681    1.5073 H   0  0  0  0  0  0  0  0  0  0  0  0
    0.5152   14.8275    0.3332 H   0  0  0  0  0  0  0  0  0  0  0  0
   -0.8417   13.6505    0.3332 H   0  0  0  0  0  0  0  0  0  0  0  0
    2.4724   12.9757   -2.0397 H   0  0  0  0  0  0  0  0  0  0  0  0
    3.2468   14.1385    0.1260 H   0  0  0  0  0  0  0  0  0  0  0  0
    3.7586   14.7674   -1.5270 H   0  0  0  0  0  0  0  0  0  0  0  0
    3.0797   16.5864    0.2549 H   0  0  0  0  0  0  0  0  0  0  0  0
   -0.4138   15.6076   -1.5148 H   0  0  0  0  0  0  0  0  0  0  0  0
    1.1080   17.2080   -3.6635 H   0  0  0  0  0  0  0  0  0  0  0  0
   -0.5431   16.4604   -3.8230 H   0  0  0  0  0  0  0  0  0  0  0  0
   -0.6531   18.9033   -3.4424 H   0  0  0  0  0  0  0  0  0  0  0  0
   -1.4149   17.9456   -2.1123 H   0  0  0  0  0  0  0  0  0  0  0  0
   -0.1323   19.7263   -1.1417 H   0  0  0  0  0  0  0  0  0  0  0  0
    1.6150   18.9860   -3.1470 H   0  0  0  0  0  0  0  0  0  0  0  0
   -0.0797   17.7595    1.5491 H   0  0  0  0  0  0  0  0  0  0  0  0
   -1.1604   18.4401    0.2859 H   0  0  0  0  0  0  0  0  0  0  0  0
   -0.7719   16.6863    0.2859 H   0  0  0  0  0  0  0  0  0  0  0  0
    1.6440   18.5591    1.5312 H   0  0  0  0  0  0  0  0  0  0  0  0
    2.8878   18.3667    0.2496 H   0  0  0  0  0  0  0  0  0  0  0  0
    1.8134   19.8063    0.2496 H   0  0  0  0  0  0  0  0  0  0  0  0
    3.0433   15.1071   -3.3699 H   0  0  0  0  0  0  0  0  0  0  0  0
    2.1538   13.9220   -4.3852 H   0  0  0  0  0  0  0  0  0  0  0  0
    1.6647   15.6504   -4.3852 H   0  0  0  0  0  0  0  0  0  0  0  0
   -0.8408   14.4194   -3.6075 H   0  0  0  0  0  0  0  0  0  0  0  0
    0.3510   13.0346   -3.9179 H   0  0  0  0  0  0  0  0  0  0  0  0
   -1.4666   13.4074   -1.5214 H   0  0  0  0  0  0  0  0  0  0  0  0
   -1.5239   12.1239   -2.7931 H   0  0  0  0  0  0  0  0  0  0  0  0
    1.4863   10.2862   -1.8355 H   0  0  0  0  0  0  0  0  0  0  0  0
    0.1591   10.4684   -3.0322 H   0  0  0  0  0  0  0  0  0  0  0  0
    1.5334   11.6250   -3.0322 H   0  0  0  0  0  0  0  0  0  0  0  0
  1  2  1  0
  2  3  1  0
  3  4  1  0
  4  5  1  0
  5  6  1  0
  6  7  1  0
  7  8  1  0
  7  9  1  0
  2 10  1  0
 10 11  1  0
 11 12  1  0
 12 13  1  0
 13 14  1  1
 13 15  1  0
 15 16  1  0
 16 17  1  0
 17 18  2  0
 18 19  1  0
 19 20  1  0
 20 21  1  0
 21 22  1  0
 22 23  1  0
 22 24  1  0
 24 25  1  0
 24 26  1  0
 19 27  1  0
 27 28  1  6
 27 29  1  0
 29 30  1  0
 30 31  1  0
 31 32  1  6
  7  5  1  0
 31 10  1  0
 31 13  1  0
 27 15  1  0
 24 18  1  0
  1 33  1  0
  1 34  1  0
  1 35  1  0
  2 36  1  1
  3 37  1  0
  3 38  1  0
  4 39  1  0
  4 40  1  0
  5 41  1  6
  8 42  1  0
  8 43  1  0
  8 44  1  0
  9 45  1  0
  9 46  1  0
  9 47  1  0
 10 48  1  1
 11 49  1  0
 11 50  1  0
 12 51  1  0
 12 52  1  0
 14 53  1  0
 14 54  1  0
 14 55  1  0
 15 56  1  6
 16 57  1  0
 16 58  1  0
 17 59  1  0
 19 60  1  1
 20 61  1  0
 20 62  1  0
 21 63  1  0
 21 64  1  0
 22 65  1  1
 23 66  1  0
 25 67  1  0
 25 68  1  0
 25 69  1  0
 26 70  1  0
 26 71  1  0
 26 72  1  0
 28 73  1  0
 28 74  1  0
 28 75  1  0
 29 76  1  0
 29 77  1  0
 30 78  1  0
 30 79  1  0
 32 80  1  0
 32 81  1  0
 32 82  1  0
M  END
>  <meeko>  (6) 
{"is_sidechain": [false], "intermolecular_energy": 2.731, "internal_energy": -0.839}

$$$$
EPH_relaxed_0001_pdb2pqr_Repair_104_r2_0001_out
     RDKit          3D

 82 86  0  0  0  0  0  0  0  0999 V2000
    0.3770    8.8730   -2.5770 C   0  0  0  0  0  0  0  0  0  0  0  0
    1.1500   10.0370   -3.2030 C   0  0  2  0  0  0  0  0  0  0  0  0
    2.6400   10.0270   -2.8040 C   0  0  0  0  0  0  0  0  0  0  0  0
    3.5670   10.6100   -3.8730 C   0  0  0  0  0  0  0  0  0  0  0  0
    4.9560   10.8170   -3.3490 C   0  0  2  0  0  0  0  0  0  0  0  0
    5.5750   12.0430   -3.7600 O   0  0  0  0  0  0  0  0  0  0  0  0
    6.1900   10.8340   -4.2330 C   0  0  0  0  0  0  0  0  0  0  0  0
    6.0920   10.6390   -5.7130 C   0  0  0  0  0  0  0  0  0  0  0  0
    7.5200   10.5500   -3.6090 C   0  0  0  0  0  0  0  0  0  0  0  0
    0.5120   11.3610   -2.7990 C   0  0  1  0  0  0  0  0  0  0  0  0
   -0.8540   11.1730   -2.0880 C   0  0  0  0  0  0  0  0  0  0  0  0
   -0.9590   12.2910   -1.0180 C   0  0  0  0  0  0  0  0  0  0  0  0
    0.1820   13.2740   -1.3690 C   0  0  1  0  0  0  0  0  0  0  0  0
   -0.3870   14.1540   -2.5250 C   0  0  0  0  0  0  0  0  0  0  0  0
    0.7260   14.1490   -0.1920 C   0  0  2  0  0  0  0  0  0  0  0  0
   -0.2990   15.1090    0.4350 C   0  0  0  0  0  0  0  0  0  0  0  0
   -0.3570   16.4700   -0.1780 C   0  0  0  0  0  0  0  0  0  0  0  0
    0.5720   16.9980   -0.9960 C   0  0  0  0  0  0  0  0  0  0  0  0
    1.8720   16.2440   -1.3050 C   0  0  1  0  0  0  0  0  0  0  0  0
    3.0760   17.2130   -1.1720 C   0  0  0  0  0  0  0  0  0  0  0  0
    2.9140   18.4680   -2.0240 C   0  0  0  0  0  0  0  0  0  0  0  0
    1.6410   19.2210   -1.6480 C   0  0  2  0  0  0  0  0  0  0  0  0
    1.7830   19.7340   -0.3190 O   0  0  0  0  0  0  0  0  0  0  0  0
    0.3610   18.3430   -1.7350 C   0  0  0  0  0  0  0  0  0  0  0  0
    0.0390   18.0380   -3.2180 C   0  0  0  0  0  0  0  0  0  0  0  0
   -0.8300   19.1810   -1.1950 C   0  0  0  0  0  0  0  0  0  0  0  0
    2.0900   14.8860   -0.5090 C   0  0  1  0  0  0  0  0  0  0  0  0
    2.7690   15.1770    0.8640 C   0  0  0  0  0  0  0  0  0  0  0  0
    3.0900   13.9740   -1.3140 C   0  0  0  0  0  0  0  0  0  0  0  0
    2.4780   13.0450   -2.3800 C   0  0  0  0  0  0  0  0  0  0  0  0
    1.2970   12.2560   -1.8080 C   0  0  2  0  0  0  0  0  0  0  0  0
    1.8430   11.3450   -0.6560 C   0  0  0  0  0  0  0  0  0  0  0  0
    0.4265    8.9475   -1.4806 H   0  0  0  0  0  0  0  0  0  0  0  0
   -0.6736    8.9145   -2.9003 H   0  0  0  0  0  0  0  0  0  0  0  0
    0.8228    7.9208   -2.9003 H   0  0  0  0  0  0  0  0  0  0  0  0
    1.1002    9.9176   -4.2954 H   0  0  0  0  0  0  0  0  0  0  0  0
    2.7570   10.6175   -1.8834 H   0  0  0  0  0  0  0  0  0  0  0  0
    2.9291    8.9745   -2.6671 H   0  0  0  0  0  0  0  0  0  0  0  0
    3.6074    9.9170   -4.7263 H   0  0  0  0  0  0  0  0  0  0  0  0
    3.1663   11.5879   -4.1782 H   0  0  0  0  0  0  0  0  0  0  0  0
    4.7156   10.2663   -2.4276 H   0  0  0  0  0  0  0  0  0  0  0  0
    5.6073    9.6745   -5.9244 H   0  0  0  0  0  0  0  0  0  0  0  0
    5.4958   11.4529   -6.1514 H   0  0  0  0  0  0  0  0  0  0  0  0
    7.1008   10.6463   -6.1514 H   0  0  0  0  0  0  0  0  0  0  0  0
    7.4230   10.5707   -2.5135 H   0  0  0  0  0  0  0  0  0  0  0  0
    7.8698    9.5569   -3.9274 H   0  0  0  0  0  0  0  0  0  0  0  0
    8.2450   11.3136   -3.9274 H   0  0  0  0  0  0  0  0  0  0  0  0
    0.4590   11.8481   -3.7838 H   0  0  0  0  0  0  0  0  0  0  0  0
   -1.6750   11.2654   -2.8143 H   0  0  0  0  0  0  0  0  0  0  0  0
   -0.9255   10.1769   -1.6268 H   0  0  0  0  0  0  0  0  0  0  0  0
   -1.9359   12.7933   -1.0755 H   0  0  0  0  0  0  0  0  0  0  0  0
   -0.8717   11.8985    0.0059 H   0  0  0  0  0  0  0  0  0  0  0  0
   -0.9379   15.0060   -2.1001 H   0  0  0  0  0  0  0  0  0  0  0  0
    0.4421   14.5259   -3.1449 H   0  0  0  0  0  0  0  0  0  0  0  0
   -1.0663   13.5505   -3.1449 H   0  0  0  0  0  0  0  0  0  0  0  0
    0.9419   13.3967    0.5809 H   0  0  0  0  0  0  0  0  0  0  0  0
   -1.2949   14.6513    0.3413 H   0  0  0  0  0  0  0  0  0  0  0  0
    0.0213   15.2580    1.4767 H   0  0  0  0  0  0  0  0  0  0  0  0
   -1.2323   17.0927    0.0591 H   0  0  0  0  0  0  0  0  0  0  0  0
    1.7848   15.8986   -2.3457 H   0  0  0  0  0  0  0  0  0  0  0  0
    3.1728   17.5125   -0.1180 H   0  0  0  0  0  0  0  0  0  0  0  0
    3.9722   16.6825   -1.5262 H   0  0  0  0  0  0  0  0  0  0  0  0
    3.7815   19.1255   -1.8653 H   0  0  0  0  0  0  0  0  0  0  0  0
    2.8465   18.1692   -3.0805 H   0  0  0  0  0  0  0  0  0  0  0  0
    1.5130   20.0353   -2.3763 H   0  0  0  0  0  0  0  0  0  0  0  0
    2.7160   19.6350   -0.0640 H   0  0  0  0  0  0  0  0  0  0  0  0
   -0.7586   17.2825   -3.2721 H   0  0  0  0  0  0  0  0  0  0  0  0
   -0.2942   18.9595   -3.7179 H   0  0  0  0  0  0  0  0  0  0  0  0
    0.9410   17.6553   -3.7179 H   0  0  0  0  0  0  0  0  0  0  0  0
   -0.8163   19.1713   -0.0951 H   0  0  0  0  0  0  0  0  0  0  0  0
   -0.7418   20.2171   -1.5537 H   0  0  0  0  0  0  0  0  0  0  0  0
   -1.7754   18.7480   -1.5537 H   0  0  0  0  0  0  0  0  0  0  0  0
    2.0892   14.8857    1.6783 H   0  0  0  0  0  0  0  0  0  0  0  0
    3.7022   14.5998    0.9412 H   0  0  0  0  0  0  0  0  0  0  0  0
    2.9946   16.2508    0.9412 H   0  0  0  0  0  0  0  0  0  0  0  0
    3.8084   14.6347   -1.8212 H   0  0  0  0  0  0  0  0  0  0  0  0
    3.5324   13.3007   -0.5650 H   0  0  0  0  0  0  0  0  0  0  0  0
    2.1280   13.6521   -3.2279 H   0  0  0  0  0  0  0  0  0  0  0  0
    3.2492   12.3326   -2.7082 H   0  0  0  0  0  0  0  0  0  0  0  0
    1.5788   11.7858    0.3166 H   0  0  0  0  0  0  0  0  0  0  0  0
    1.3964   10.3431   -0.7379 H   0  0  0  0  0  0  0  0  0  0  0  0
    2.9371   11.2665   -0.7379 H   0  0  0  0  0  0  0  0  0  0  0  0
  1  2  1  0
  2  3  1  0
  3  4  1  0
  4  5  1  0
  5  6  1  0
  6  7  1  0
  7  8  1  0
  7  9  1  0
  2 10  1  0
 10 11  1  0
 11 12  1  0
 12 13  1  0
 13 14  1  6
 13 15  1  0
 15 16  1  0
 16 17  1  0
 17 18  2  0
 18 19  1  0
 19 20  1  0
 20 21  1  0
 21 22  1  0
 22 23  1  0
 22 24  1  0
 24 25  1  0
 24 26  1  0
 19 27  1  0
 27 28  1  1
 27 29  1  0
 29 30  1  0
 30 31  1  0
 31 32  1  1
  7  5  1  0
 31 10  1  0
 31 13  1  0
 27 15  1  0
 24 18  1  0
  1 33  1  0
  1 34  1  0
  1 35  1  0
  2 36  1  6
  3 37  1  0
  3 38  1  0
  4 39  1  0
  4 40  1  0
  5 41  1  1
  8 42  1  0
  8 43  1  0
  8 44  1  0
  9 45  1  0
  9 46  1  0
  9 47  1  0
 10 48  1  6
 11 49  1  0
 11 50  1  0
 12 51  1  0
 12 52  1  0
 14 53  1  0
 14 54  1  0
 14 55  1  0
 15 56  1  1
 16 57  1  0
 16 58  1  0
 17 59  1  0
 19 60  1  6
 20 61  1  0
 20 62  1  0
 21 63  1  0
 21 64  1  0
 22 65  1  6
 23 66  1  0
 25 67  1  0
 25 68  1  0
 25 69  1  0
 26 70  1  0
 26 71  1  0
 26 72  1  0
 28 73  1  0
 28 74  1  0
 28 75  1  0
 29 76  1  0
 29 77  1  0
 30 78  1  0
 30 79  1  0
 32 80  1  0
 32 81  1  0
 32 82  1  0
M  END
>  <meeko>  (7) 
{"is_sidechain": [false], "intermolecular_energy": 2.731, "internal_energy": -0.839}

$$$$
EPH_relaxed_0001_pdb2pqr_Repair_104_r2_0001_out
     RDKit          3D

 82 86  0  0  0  0  0  0  0  0999 V2000
    3.0460   18.7910   -1.1970 C   0  0  0  0  0  0  0  0  0  0  0  0
    2.6070   17.7360   -2.2160 C   0  0  2  0  0  0  0  0  0  0  0  0
    1.1620   17.9660   -2.7040 C   0  0  0  0  0  0  0  0  0  0  0  0
    0.5270   19.2500   -2.1640 C   0  0  0  0  0  0  0  0  0  0  0  0
   -0.8590   19.0090   -1.6480 C   0  0  2  0  0  0  0  0  0  0  0  0
   -1.6480   20.1930   -1.4760 O   0  0  0  0  0  0  0  0  0  0  0  0
   -1.3340   19.4620   -0.2800 C   0  0  0  0  0  0  0  0  0  0  0  0
   -0.4250   20.1920    0.6580 C   0  0  0  0  0  0  0  0  0  0  0  0
   -2.5130   18.7730    0.3330 C   0  0  0  0  0  0  0  0  0  0  0  0
    2.7370   16.3430   -1.6120 C   0  0  1  0  0  0  0  0  0  0  0  0
    3.4310   16.3570   -0.2240 C   0  0  0  0  0  0  0  0  0  0  0  0
    2.7640   15.2410    0.6210 C   0  0  0  0  0  0  0  0  0  0  0  0
    1.9510   14.4110   -0.4000 C   0  0  1  0  0  0  0  0  0  0  0  0
    2.9950   13.4590   -1.0650 C   0  0  0  0  0  0  0  0  0  0  0  0
    0.7280   13.6210    0.1680 C   0  0  2  0  0  0  0  0  0  0  0  0
    1.0760   12.5390    1.2060 C   0  0  0  0  0  0  0  0  0  0  0  0
    1.3370   11.1800    0.6470 C   0  0  0  0  0  0  0  0  0  0  0  0
    1.0200   10.7710   -0.5950 C   0  0  0  0  0  0  0  0  0  0  0  0
    0.2420   11.6850   -1.5510 C   0  0  1  0  0  0  0  0  0  0  0  0
   -0.9050   10.8810   -2.2180 C   0  0  0  0  0  0  0  0  0  0  0  0
   -0.4080    9.6110   -2.9020 C   0  0  0  0  0  0  0  0  0  0  0  0
    0.3090    8.7010   -1.9070 C   0  0  2  0  0  0  0  0  0  0  0  0
   -0.6440    8.2190   -0.9540 O   0  0  0  0  0  0  0  0  0  0  0  0
    1.4790    9.4060   -1.1650 C   0  0  0  0  0  0  0  0  0  0  0  0
    2.6440    9.6580   -2.1530 C   0  0  0  0  0  0  0  0  0  0  0  0
    2.0240    8.4250   -0.0920 C   0  0  0  0  0  0  0  0  0  0  0  0
   -0.2560   13.0650   -0.9390 C   0  0  1  0  0  0  0  0  0  0  0  0
   -1.6400   12.8710   -0.2480 C   0  0  0  0  0  0  0  0  0  0  0  0
   -0.4830   14.0940   -2.1090 C   0  0  0  0  0  0  0  0  0  0  0  0
    0.7350   14.9300   -2.5450 C   0  0  0  0  0  0  0  0  0  0  0  0
    1.4280   15.5630   -1.3340 C   0  0  2  0  0  0  0  0  0  0  0  0
    0.4100   16.5430   -0.6590 C   0  0  0  0  0  0  0  0  0  0  0  0
    2.8860   18.4064   -0.1789 H   0  0  0  0  0  0  0  0  0  0  0  0
    4.1129   19.0172   -1.3400 H   0  0  0  0  0  0  0  0  0  0  0  0
    2.4545   19.7073   -1.3400 H   0  0  0  0  0  0  0  0  0  0  0  0
    3.2691   17.8250   -3.0899 H   0  0  0  0  0  0  0  0  0  0  0  0
    1.1707   18.0184   -3.8027 H   0  0  0  0  0  0  0  0  0  0  0  0
    0.5585   17.1265   -2.3286 H   0  0  0  0  0  0  0  0  0  0  0  0
    1.1498   19.6383   -1.3446 H   0  0  0  0  0  0  0  0  0  0  0  0
    0.4642   19.9745   -2.9893 H   0  0  0  0  0  0  0  0  0  0  0  0
   -0.9054   18.0367   -2.1603 H   0  0  0  0  0  0  0  0  0  0  0  0
   -0.7092   19.9638    1.6959 H   0  0  0  0  0  0  0  0  0  0  0  0
    0.6136   19.8741    0.4838 H   0  0  0  0  0  0  0  0  0  0  0  0
   -0.5112   21.2747    0.4838 H   0  0  0  0  0  0  0  0  0  0  0  0
   -2.4351   18.8185    1.4293 H   0  0  0  0  0  0  0  0  0  0  0  0
   -3.4383   19.2725    0.0101 H   0  0  0  0  0  0  0  0  0  0  0  0
   -2.5320   17.7216    0.0101 H   0  0  0  0  0  0  0  0  0  0  0  0
    3.3073   15.8478   -2.4117 H   0  0  0  0  0  0  0  0  0  0  0  0
    4.5065   16.1555   -0.3362 H   0  0  0  0  0  0  0  0  0  0  0  0
    3.3230   17.3380    0.2617 H   0  0  0  0  0  0  0  0  0  0  0  0
    3.5260   14.6164    1.1101 H   0  0  0  0  0  0  0  0  0  0  0  0
    2.1327   15.6476    1.4248 H   0  0  0  0  0  0  0  0  0  0  0  0
    3.5665   12.9379   -0.2828 H   0  0  0  0  0  0  0  0  0  0  0  0
    2.4718   12.7206   -1.6903 H   0  0  0  0  0  0  0  0  0  0  0  0
    3.6821   14.0479   -1.6903 H   0  0  0  0  0  0  0  0  0  0  0  0
    0.1798   14.3992    0.7193 H   0  0  0  0  0  0  0  0  0  0  0  0
    1.9778   12.8634    1.7459 H   0  0  0  0  0  0  0  0  0  0  0  0
    0.1896   12.4383    1.8496 H   0  0  0  0  0  0  0  0  0  0  0  0
    1.8304   10.4508    1.3064 H   0  0  0  0  0  0  0  0  0  0  0  0
    0.9633   12.0099   -2.3153 H   0  0  0  0  0  0  0  0  0  0  0  0
   -1.6361   10.6022   -1.4449 H   0  0  0  0  0  0  0  0  0  0  0  0
   -1.3567   11.5213   -2.9900 H   0  0  0  0  0  0  0  0  0  0  0  0
   -1.2668    9.0721   -3.3288 H   0  0  0  0  0  0  0  0  0  0  0  0
    0.3010    9.8930   -3.6944 H   0  0  0  0  0  0  0  0  0  0  0  0
    0.7537    7.8728   -2.4783 H   0  0  0  0  0  0  0  0  0  0  0  0
   -0.3390    7.3480   -0.6490 H   0  0  0  0  0  0  0  0  0  0  0  0
    3.5668    9.8576   -1.5885 H   0  0  0  0  0  0  0  0  0  0  0  0
    2.7864    8.7699   -2.7862 H   0  0  0  0  0  0  0  0  0  0  0  0
    2.4066   10.5256   -2.7862 H   0  0  0  0  0  0  0  0  0  0  0  0
    1.8046    8.8199    0.9110 H   0  0  0  0  0  0  0  0  0  0  0  0
    1.5416    7.4439   -0.2134 H   0  0  0  0  0  0  0  0  0  0  0  0
    3.1119    8.3162   -0.2134 H   0  0  0  0  0  0  0  0  0  0  0  0
   -1.5103   12.8892    0.8442 H   0  0  0  0  0  0  0  0  0  0  0  0
   -2.3178   13.6829   -0.5503 H   0  0  0  0  0  0  0  0  0  0  0  0
   -2.0684   11.9040   -0.5503 H   0  0  0  0  0  0  0  0  0  0  0  0
   -0.8300   13.5288   -2.9866 H   0  0  0  0  0  0  0  0  0  0  0  0
   -1.2061   14.8231   -1.7147 H   0  0  0  0  0  0  0  0  0  0  0  0
    1.4499   14.2782   -3.0686 H   0  0  0  0  0  0  0  0  0  0  0  0
    0.3881   15.7343   -3.2104 H   0  0  0  0  0  0  0  0  0  0  0  0
    0.4937   16.4624    0.4348 H   0  0  0  0  0  0  0  0  0  0  0  0
    0.6335   17.5745   -0.9689 H   0  0  0  0  0  0  0  0  0  0  0  0
   -0.6123   16.2804   -0.9689 H   0  0  0  0  0  0  0  0  0  0  0  0
  1  2  1  0
  2  3  1  0
  3  4  1  0
  4  5  1  0
  5  6  1  0
  6  7  1  0
  7  8  1  0
  7  9  1  0
  2 10  1  0
 10 11  1  0
 11 12  1  0
 12 13  1  0
 13 14  1  6
 13 15  1  0
 15 16  1  0
 16 17  1  0
 17 18  2  0
 18 19  1  0
 19 20  1  0
 20 21  1  0
 21 22  1  0
 22 23  1  0
 22 24  1  0
 24 25  1  0
 24 26  1  0
 19 27  1  0
 27 28  1  1
 27 29  1  0
 29 30  1  0
 30 31  1  0
 31 32  1  1
  7  5  1  0
 31 10  1  0
 31 13  1  0
 27 15  1  0
 24 18  1  0
  1 33  1  0
  1 34  1  0
  1 35  1  0
  2 36  1  6
  3 37  1  0
  3 38  1  0
  4 39  1  0
  4 40  1  0
  5 41  1  6
  8 42  1  0
  8 43  1  0
  8 44  1  0
  9 45  1  0
  9 46  1  0
  9 47  1  0
 10 48  1  6
 11 49  1  0
 11 50  1  0
 12 51  1  0
 12 52  1  0
 14 53  1  0
 14 54  1  0
 14 55  1  0
 15 56  1  1
 16 57  1  0
 16 58  1  0
 17 59  1  0
 19 60  1  6
 20 61  1  0
 20 62  1  0
 21 63  1  0
 21 64  1  0
 22 65  1  6
 23 66  1  0
 25 67  1  0
 25 68  1  0
 25 69  1  0
 26 70  1  0
 26 71  1  0
 26 72  1  0
 28 73  1  0
 28 74  1  0
 28 75  1  0
 29 76  1  0
 29 77  1  0
 30 78  1  0
 30 79  1  0
 32 80  1  0
 32 81  1  0
 32 82  1  0
M  END
>  <meeko>  (8) 
{"is_sidechain": [false], "intermolecular_energy": 2.731, "internal_energy": -0.839}

$$$$
EPH_relaxed_0001_pdb2pqr_Repair_104_r2_0001_out
     RDKit          3D

 82 86  0  0  0  0  0  0  0  0999 V2000
    0.0590   10.4750   -3.7540 C   0  0  0  0  0  0  0  0  0  0  0  0
    0.9990   10.2170   -2.5740 C   0  0  2  0  0  0  0  0  0  0  0  0
    0.5740    8.9840   -1.7520 C   0  0  0  0  0  0  0  0  0  0  0  0
   -0.6150    8.2260   -2.3480 C   0  0  0  0  0  0  0  0  0  0  0  0
   -1.9200    8.7280   -1.8080 C   0  0  2  0  0  0  0  0  0  0  0  0
   -1.9990   10.1520   -1.6620 O   0  0  0  0  0  0  0  0  0  0  0  0
   -2.0640    9.3860   -0.4480 C   0  0  0  0  0  0  0  0  0  0  0  0
   -0.8870    9.5760    0.4560 C   0  0  0  0  0  0  0  0  0  0  0  0
   -3.4140    9.3980    0.2010 C   0  0  0  0  0  0  0  0  0  0  0  0
    1.0550   11.4480   -1.6760 C   0  0  1  0  0  0  0  0  0  0  0  0
    2.0910   11.3040   -0.5300 C   0  0  0  0  0  0  0  0  0  0  0  0
    2.6950   12.7130   -0.2940 C   0  0  0  0  0  0  0  0  0  0  0  0
    1.7610   13.6720   -1.0690 C   0  0  1  0  0  0  0  0  0  0  0  0
    0.5420   13.8980   -0.1210 C   0  0  0  0  0  0  0  0  0  0  0  0
    2.3920   15.0260   -1.5320 C   0  0  2  0  0  0  0  0  0  0  0  0
    2.8690   15.9460   -0.3950 C   0  0  0  0  0  0  0  0  0  0  0  0
    1.8530   16.9150    0.1110 C   0  0  0  0  0  0  0  0  0  0  0  0
    0.7040   17.2400   -0.5110 C   0  0  0  0  0  0  0  0  0  0  0  0
    0.3780   16.6840   -1.9030 C   0  0  1  0  0  0  0  0  0  0  0  0
   -0.1280   17.8330   -2.8140 C   0  0  0  0  0  0  0  0  0  0  0  0
   -1.2990   18.5930   -2.2010 C   0  0  0  0  0  0  0  0  0  0  0  0
   -0.9180   19.1810   -0.8440 C   0  0  2  0  0  0  0  0  0  0  0  0
    0.0730   20.1940   -1.0430 O   0  0  0  0  0  0  0  0  0  0  0  0
   -0.3840   18.1170    0.1560 C   0  0  0  0  0  0  0  0  0  0  0  0
   -1.5450   17.1950    0.6030 C   0  0  0  0  0  0  0  0  0  0  0  0
    0.0970   18.8600    1.4310 C   0  0  0  0  0  0  0  0  0  0  0  0
    1.5210   15.8190   -2.5890 C   0  0  1  0  0  0  0  0  0  0  0  0
    2.5020   16.7510   -3.3640 C   0  0  0  0  0  0  0  0  0  0  0  0
    0.8710   14.8670   -3.6630 C   0  0  0  0  0  0  0  0  0  0  0  0
    0.3760   13.4960   -3.1660 C   0  0  0  0  0  0  0  0  0  0  0  0
    1.4530   12.7920   -2.3350 C   0  0  2  0  0  0  0  0  0  0  0  0
    2.6840   12.5310   -3.2680 C   0  0  0  0  0  0  0  0  0  0  0  0
   -0.9372   10.7484   -3.3762 H   0  0  0  0  0  0  0  0  0  0  0  0
    0.4571   11.2971   -4.3669 H   0  0  0  0  0  0  0  0  0  0  0  0
   -0.0184    9.5649   -4.3669 H   0  0  0  0  0  0  0  0  0  0  0  0
    1.9981   10.0108   -2.9853 H   0  0  0  0  0  0  0  0  0  0  0  0
    1.4296    8.2954   -1.6916 H   0  0  0  0  0  0  0  0  0  0  0  0
    0.2587    9.3501   -0.7638 H   0  0  0  0  0  0  0  0  0  0  0  0
   -0.6082    8.3546   -3.4404 H   0  0  0  0  0  0  0  0  0  0  0  0
   -0.5166    7.1649   -2.0751 H   0  0  0  0  0  0  0  0  0  0  0  0
   -2.4647    7.9027   -2.2900 H   0  0  0  0  0  0  0  0  0  0  0  0
   -1.2172    9.5227    1.5039 H   0  0  0  0  0  0  0  0  0  0  0  0
   -0.1461    8.7858    0.2643 H   0  0  0  0  0  0  0  0  0  0  0  0
   -0.4324   10.5592    0.2643 H   0  0  0  0  0  0  0  0  0  0  0  0
   -3.2951    9.3969    1.2946 H   0  0  0  0  0  0  0  0  0  0  0  0
   -3.9611   10.3010   -0.1075 H   0  0  0  0  0  0  0  0  0  0  0  0
   -3.9771    8.5048   -0.1075 H   0  0  0  0  0  0  0  0  0  0  0  0
    0.0051   11.4863   -1.3499 H   0  0  0  0  0  0  0  0  0  0  0  0
    1.5966   10.9456    0.3849 H   0  0  0  0  0  0  0  0  0  0  0  0
    2.8738   10.5776   -0.7938 H   0  0  0  0  0  0  0  0  0  0  0  0
    2.7007   12.9586    0.7782 H   0  0  0  0  0  0  0  0  0  0  0  0
    3.7389   12.7819   -0.6338 H   0  0  0  0  0  0  0  0  0  0  0  0
    0.8750   13.8363    0.9256 H   0  0  0  0  0  0  0  0  0  0  0  0
    0.1096   14.8916   -0.3102 H   0  0  0  0  0  0  0  0  0  0  0  0
   -0.2178   13.1254   -0.3102 H   0  0  0  0  0  0  0  0  0  0  0  0
    3.3034   14.6957   -2.0519 H   0  0  0  0  0  0  0  0  0  0  0  0
    3.1819   15.3111    0.4471 H   0  0  0  0  0  0  0  0  0  0  0  0
    3.6840   16.5527   -0.8166 H   0  0  0  0  0  0  0  0  0  0  0  0
    2.0604   17.4052    1.0736 H   0  0  0  0  0  0  0  0  0  0  0  0
   -0.4231   15.9447   -1.7555 H   0  0  0  0  0  0  0  0  0  0  0  0
    0.6991   18.5378   -2.9848 H   0  0  0  0  0  0  0  0  0  0  0  0
   -0.4778   17.3834   -3.7550 H   0  0  0  0  0  0  0  0  0  0  0  0
   -1.5920   19.4093   -2.8776 H   0  0  0  0  0  0  0  0  0  0  0  0
   -2.1354   17.8930   -2.0579 H   0  0  0  0  0  0  0  0  0  0  0  0
   -1.8315   19.6008   -0.3975 H   0  0  0  0  0  0  0  0  0  0  0  0
    0.8160   20.0010   -0.4470 H   0  0  0  0  0  0  0  0  0  0  0  0
   -1.5855   17.1629    1.7018 H   0  0  0  0  0  0  0  0  0  0  0  0
   -2.4957   17.5869    0.2124 H   0  0  0  0  0  0  0  0  0  0  0  0
   -1.3786   16.1802    0.2124 H   0  0  0  0  0  0  0  0  0  0  0  0
   -0.2523   18.3204    2.3236 H   0  0  0  0  0  0  0  0  0  0  0  0
    1.1961   18.9050    1.4365 H   0  0  0  0  0  0  0  0  0  0  0  0
   -0.3118   19.8812    1.4365 H   0  0  0  0  0  0  0  0  0  0  0  0
    3.1063   17.3252   -2.6463 H   0  0  0  0  0  0  0  0  0  0  0  0
    3.1644   16.1415   -3.9962 H   0  0  0  0  0  0  0  0  0  0  0  0
    1.9272   17.4438   -3.9962 H   0  0  0  0  0  0  0  0  0  0  0  0
    0.0091   15.3946   -4.0974 H   0  0  0  0  0  0  0  0  0  0  0  0
    1.6791   14.6410   -4.3743 H   0  0  0  0  0  0  0  0  0  0  0  0
   -0.5203   13.6407   -2.5449 H   0  0  0  0  0  0  0  0  0  0  0  0
    0.1424   12.8699   -4.0397 H   0  0  0  0  0  0  0  0  0  0  0  0
    3.5764   12.3418   -2.6533 H   0  0  0  0  0  0  0  0  0  0  0  0
    2.4837   11.6554   -3.9029 H   0  0  0  0  0  0  0  0  0  0  0  0
    2.8563   13.4126   -3.9029 H   0  0  0  0  0  0  0  0  0  0  0  0
  1  2  1  0
  2  3  1  0
  3  4  1  0
  4  5  1  0
  5  6  1  0
  6  7  1  0
  7  8  1  0
  7  9  1  0
  2 10  1  0
 10 11  1  0
 11 12  1  0
 12 13  1  0
 13 14  1  1
 13 15  1  0
 15 16  1  0
 16 17  1  0
 17 18  2  0
 18 19  1  0
 19 20  1  0
 20 21  1  0
 21 22  1  0
 22 23  1  0
 22 24  1  0
 24 25  1  0
 24 26  1  0
 19 27  1  0
 27 28  1  6
 27 29  1  0
 29 30  1  0
 30 31  1  0
 31 32  1  6
  7  5  1  0
 31 10  1  0
 31 13  1  0
 27 15  1  0
 24 18  1  0
  1 33  1  0
  1 34  1  0
  1 35  1  0
  2 36  1  6
  3 37  1  0
  3 38  1  0
  4 39  1  0
  4 40  1  0
  5 41  1  6
  8 42  1  0
  8 43  1  0
  8 44  1  0
  9 45  1  0
  9 46  1  0
  9 47  1  0
 10 48  1  1
 11 49  1  0
 11 50  1  0
 12 51  1  0
 12 52  1  0
 14 53  1  0
 14 54  1  0
 14 55  1  0
 15 56  1  6
 16 57  1  0
 16 58  1  0
 17 59  1  0
 19 60  1  1
 20 61  1  0
 20 62  1  0
 21 63  1  0
 21 64  1  0
 22 65  1  1
 23 66  1  0
 25 67  1  0
 25 68  1  0
 25 69  1  0
 26 70  1  0
 26 71  1  0
 26 72  1  0
 28 73  1  0
 28 74  1  0
 28 75  1  0
 29 76  1  0
 29 77  1  0
 30 78  1  0
 30 79  1  0
 32 80  1  0
 32 81  1  0
 32 82  1  0
M  END
>  <meeko>  (9) 
{"is_sidechain": [false], "intermolecular_energy": 2.731, "internal_energy": -0.839}

$$$$
EPH_relaxed_0001_pdb2pqr_Repair_104_r2_0001_out
     RDKit          3D

 82 86  0  0  0  0  0  0  0  0999 V2000
   -0.1800    9.3770   -2.2960 C   0  0  0  0  0  0  0  0  0  0  0  0
    0.9680   10.3010   -2.7120 C   0  0  2  0  0  0  0  0  0  0  0  0
    2.3260    9.5700   -2.7230 C   0  0  0  0  0  0  0  0  0  0  0  0
    3.2810   10.0620   -3.8140 C   0  0  0  0  0  0  0  0  0  0  0  0
    4.6320   10.3970   -3.2580 C   0  0  2  0  0  0  0  0  0  0  0  0
    5.0670   11.7400   -3.5090 O   0  0  0  0  0  0  0  0  0  0  0  0
    5.8420   10.6970   -4.1240 C   0  0  0  0  0  0  0  0  0  0  0  0
    5.7570   10.6760   -5.6180 C   0  0  0  0  0  0  0  0  0  0  0  0
    7.2060   10.5300   -3.5300 C   0  0  0  0  0  0  0  0  0  0  0  0
    1.0310   11.5040   -1.7780 C   0  0  1  0  0  0  0  0  0  0  0  0
    2.1250   11.3560   -0.6860 C   0  0  0  0  0  0  0  0  0  0  0  0
    2.6990   12.7740   -0.4330 C   0  0  0  0  0  0  0  0  0  0  0  0
    1.7030   13.7290   -1.1330 C   0  0  1  0  0  0  0  0  0  0  0  0
    0.5240   13.8890   -0.1240 C   0  0  0  0  0  0  0  0  0  0  0  0
    2.2720   15.1140   -1.5810 C   0  0  2  0  0  0  0  0  0  0  0  0
    2.7770   16.0120   -0.4370 C   0  0  0  0  0  0  0  0  0  0  0  0
    1.7580   16.9340    0.1460 C   0  0  0  0  0  0  0  0  0  0  0  0
    0.5730   17.2450   -0.4120 C   0  0  0  0  0  0  0  0  0  0  0  0
    0.1970   16.7220   -1.8050 C   0  0  1  0  0  0  0  0  0  0  0  0
   -0.3830   17.8830   -2.6540 C   0  0  0  0  0  0  0  0  0  0  0  0
   -1.5450   18.5890   -1.9630 C   0  0  0  0  0  0  0  0  0  0  0  0
   -1.1170   19.1460   -0.6080 C   0  0  2  0  0  0  0  0  0  0  0  0
   -0.1660   20.1940   -0.8190 O   0  0  0  0  0  0  0  0  0  0  0  0
   -0.5070   18.0680    0.3320 C   0  0  0  0  0  0  0  0  0  0  0  0
   -1.6190   17.0980    0.8020 C   0  0  0  0  0  0  0  0  0  0  0  0
    0.0120   18.7850    1.6070 C   0  0  0  0  0  0  0  0  0  0  0  0
    1.3310   15.9130   -2.5710 C   0  0  1  0  0  0  0  0  0  0  0  0
    2.2470   16.8980   -3.3590 C   0  0  0  0  0  0  0  0  0  0  0  0
    0.6590   14.9770   -3.6430 C   0  0  0  0  0  0  0  0  0  0  0  0
    0.2260   13.5760   -3.1690 C   0  0  0  0  0  0  0  0  0  0  0  0
    1.3600   12.8790   -2.4110 C   0  0  2  0  0  0  0  0  0  0  0  0
    2.5530   12.6840   -3.4080 C   0  0  0  0  0  0  0  0  0  0  0  0
   -0.2354    9.3324   -1.1983 H   0  0  0  0  0  0  0  0  0  0  0  0
   -1.1278    9.7671   -2.6954 H   0  0  0  0  0  0  0  0  0  0  0  0
   -0.0015    8.3677   -2.6954 H   0  0  0  0  0  0  0  0  0  0  0  0
    0.7664   10.6385   -3.7394 H   0  0  0  0  0  0  0  0  0  0  0  0
    2.8086    9.7192   -1.7459 H   0  0  0  0  0  0  0  0  0  0  0  0
    2.1188    8.5100   -2.9313 H   0  0  0  0  0  0  0  0  0  0  0  0
    3.3931    9.2729   -4.5721 H   0  0  0  0  0  0  0  0  0  0  0  0
    2.8558   10.9753   -4.2557 H   0  0  0  0  0  0  0  0  0  0  0  0
    4.4814    9.7082   -2.4137 H   0  0  0  0  0  0  0  0  0  0  0  0
    4.7311   10.4225   -5.9234 H   0  0  0  0  0  0  0  0  0  0  0  0
    6.0233   11.6669   -6.0144 H   0  0  0  0  0  0  0  0  0  0  0  0
    6.4541    9.9231   -6.0144 H   0  0  0  0  0  0  0  0  0  0  0  0
    7.1316   10.5391   -2.4326 H   0  0  0  0  0  0  0  0  0  0  0  0
    7.6351    9.5726   -3.8605 H   0  0  0  0  0  0  0  0  0  0  0  0
    7.8534   11.3556   -3.8605 H   0  0  0  0  0  0  0  0  0  0  0  0
   -0.0029   11.5003   -1.4024 H   0  0  0  0  0  0  0  0  0  0  0  0
    1.6851   10.9548    0.2390 H   0  0  0  0  0  0  0  0  0  0  0  0
    2.9148   10.6621   -1.0096 H   0  0  0  0  0  0  0  0  0  0  0  0
    2.7481   12.9864    0.6452 H   0  0  0  0  0  0  0  0  0  0  0  0
    3.7234   12.8842   -0.8183 H   0  0  0  0  0  0  0  0  0  0  0  0
    0.9116   13.8364    0.9041 H   0  0  0  0  0  0  0  0  0  0  0  0
    0.0353   14.8617   -0.2823 H   0  0  0  0  0  0  0  0  0  0  0  0
   -0.2062   13.0817   -0.2823 H   0  0  0  0  0  0  0  0  0  0  0  0
    3.1662   14.8275   -2.1539 H   0  0  0  0  0  0  0  0  0  0  0  0
    3.1468   15.3607    0.3686 H   0  0  0  0  0  0  0  0  0  0  0  0
    3.5546   16.6550   -0.8750 H   0  0  0  0  0  0  0  0  0  0  0  0
    1.9957   17.3990    1.1142 H   0  0  0  0  0  0  0  0  0  0  0  0
   -0.5750   15.9551   -1.6443 H   0  0  0  0  0  0  0  0  0  0  0  0
    0.4151   18.6168   -2.8399 H   0  0  0  0  0  0  0  0  0  0  0  0
   -0.7639   17.4528   -3.5920 H   0  0  0  0  0  0  0  0  0  0  0  0
   -1.8927   19.4166   -2.5988 H   0  0  0  0  0  0  0  0  0  0  0  0
   -2.3535   17.8604   -1.8035 H   0  0  0  0  0  0  0  0  0  0  0  0
   -2.0201   19.5249   -0.1071 H   0  0  0  0  0  0  0  0  0  0  0  0
    0.6650   19.9280   -0.3900 H   0  0  0  0  0  0  0  0  0  0  0  0
   -1.6451   17.0752    1.9015 H   0  0  0  0  0  0  0  0  0  0  0  0
   -2.5913   17.4417    0.4192 H   0  0  0  0  0  0  0  0  0  0  0  0
   -1.4105   16.0881    0.4192 H   0  0  0  0  0  0  0  0  0  0  0  0
   -0.3649   18.2643    2.4996 H   0  0  0  0  0  0  0  0  0  0  0  0
    1.1119   18.7728    1.6125 H   0  0  0  0  0  0  0  0  0  0  0  0
   -0.3432   19.8261    1.6125 H   0  0  0  0  0  0  0  0  0  0  0  0
    2.8194   17.5136   -2.6495 H   0  0  0  0  0  0  0  0  0  0  0  0
    2.9417   16.3261   -3.9918 H   0  0  0  0  0  0  0  0  0  0  0  0
    1.6262   17.5494   -3.9918 H   0  0  0  0  0  0  0  0  0  0  0  0
   -0.2368   15.4923   -4.0198 H   0  0  0  0  0  0  0  0  0  0  0  0
    1.4392   14.7971   -4.3973 H   0  0  0  0  0  0  0  0  0  0  0  0
   -0.6444   13.6743   -2.5036 H   0  0  0  0  0  0  0  0  0  0  0  0
   -0.0301   12.9708   -4.0511 H   0  0  0  0  0  0  0  0  0  0  0  0
    3.4834   12.5319   -2.8412 H   0  0  0  0  0  0  0  0  0  0  0  0
    2.3617   11.8052   -4.0413 H   0  0  0  0  0  0  0  0  0  0  0  0
    2.6514   13.5780   -4.0413 H   0  0  0  0  0  0  0  0  0  0  0  0
  1  2  1  0
  2  3  1  0
  3  4  1  0
  4  5  1  0
  5  6  1  0
  6  7  1  0
  7  8  1  0
  7  9  1  0
  2 10  1  0
 10 11  1  0
 11 12  1  0
 12 13  1  0
 13 14  1  1
 13 15  1  0
 15 16  1  0
 16 17  1  0
 17 18  2  0
 18 19  1  0
 19 20  1  0
 20 21  1  0
 21 22  1  0
 22 23  1  0
 22 24  1  0
 24 25  1  0
 24 26  1  0
 19 27  1  0
 27 28  1  6
 27 29  1  0
 29 30  1  0
 30 31  1  0
 31 32  1  6
  7  5  1  0
 31 10  1  0
 31 13  1  0
 27 15  1  0
 24 18  1  0
  1 33  1  0
  1 34  1  0
  1 35  1  0
  2 36  1  6
  3 37  1  0
  3 38  1  0
  4 39  1  0
  4 40  1  0
  5 41  1  1
  8 42  1  0
  8 43  1  0
  8 44  1  0
  9 45  1  0
  9 46  1  0
  9 47  1  0
 10 48  1  1
 11 49  1  0
 11 50  1  0
 12 51  1  0
 12 52  1  0
 14 53  1  0
 14 54  1  0
 14 55  1  0
 15 56  1  6
 16 57  1  0
 16 58  1  0
 17 59  1  0
 19 60  1  1
 20 61  1  0
 20 62  1  0
 21 63  1  0
 21 64  1  0
 22 65  1  1
 23 66  1  0
 25 67  1  0
 25 68  1  0
 25 69  1  0
 26 70  1  0
 26 71  1  0
 26 72  1  0
 28 73  1  0
 28 74  1  0
 28 75  1  0
 29 76  1  0
 29 77  1  0
 30 78  1  0
 30 79  1  0
 32 80  1  0
 32 81  1  0
 32 82  1  0
M  END
>  <meeko>  (10) 
{"is_sidechain": [false], "intermolecular_energy": 2.731, "internal_energy": -0.839}

$$$$
EPH_relaxed_0001_pdb2pqr_Repair_104_r2_0001_out
     RDKit          3D

 82 86  0  0  0  0  0  0  0  0999 V2000
   -0.9220   16.3870   -5.8920 C   0  0  0  0  0  0  0  0  0  0  0  0
    0.1870   15.6940   -6.6880 C   0  0  2  0  0  0  0  0  0  0  0  0
   -0.1990   15.4940   -8.1670 C   0  0  0  0  0  0  0  0  0  0  0  0
    0.4520   16.5050   -9.1150 C   0  0  0  0  0  0  0  0  0  0  0  0
    1.8560   16.1130   -9.4660 C   0  0  2  0  0  0  0  0  0  0  0  0
    2.3470   16.6760  -10.6890 O   0  0  0  0  0  0  0  0  0  0  0  0
    2.2090   15.2460  -10.6600 C   0  0  0  0  0  0  0  0  0  0  0  0
    1.1530   14.7170  -11.5790 C   0  0  0  0  0  0  0  0  0  0  0  0
    3.5150   14.5140  -10.6510 C   0  0  0  0  0  0  0  0  0  0  0  0
    0.5230   14.3510   -6.0510 C   0  0  1  0  0  0  0  0  0  0  0  0
    1.7530   13.6700   -6.7070 C   0  0  0  0  0  0  0  0  0  0  0  0
    2.5050   12.9210   -5.5770 C   0  0  0  0  0  0  0  0  0  0  0  0
    1.5170   12.9170   -4.3870 C   0  0  1  0  0  0  0  0  0  0  0  0
    0.5360   11.7400   -4.6850 C   0  0  0  0  0  0  0  0  0  0  0  0
    2.1510   12.7930   -2.9630 C   0  0  2  0  0  0  0  0  0  0  0  0
    2.9210   11.4870   -2.7020 C   0  0  0  0  0  0  0  0  0  0  0  0
    2.1100   10.3720   -2.1310 C   0  0  0  0  0  0  0  0  0  0  0  0
    0.8910   10.4970   -1.5740 C   0  0  0  0  0  0  0  0  0  0  0  0
    0.2470   11.8770   -1.3900 C   0  0  1  0  0  0  0  0  0  0  0  0
   -0.3360   11.9890    0.0440 C   0  0  0  0  0  0  0  0  0  0  0  0
   -1.2930   10.8490    0.3770 C   0  0  0  0  0  0  0  0  0  0  0  0
   -0.6000    9.4960    0.2380 C   0  0  2  0  0  0  0  0  0  0  0  0
    0.4100    9.3900    1.2460 O   0  0  0  0  0  0  0  0  0  0  0  0
    0.0340    9.2740   -1.1630 C   0  0  0  0  0  0  0  0  0  0  0  0
   -1.0850    9.0880   -2.2180 C   0  0  0  0  0  0  0  0  0  0  0  0
    0.8210    7.9360   -1.1240 C   0  0  0  0  0  0  0  0  0  0  0  0
    1.1540   13.1230   -1.7790 C   0  0  1  0  0  0  0  0  0  0  0  0
    2.0320   13.5430   -0.5610 C   0  0  0  0  0  0  0  0  0  0  0  0
    0.2260   14.3530   -2.1030 C   0  0  0  0  0  0  0  0  0  0  0  0
   -0.2710   14.4850   -3.5550 C   0  0  0  0  0  0  0  0  0  0  0  0
    0.8900   14.3490   -4.5460 C   0  0  2  0  0  0  0  0  0  0  0  0
    1.8830   15.5330   -4.2850 C   0  0  0  0  0  0  0  0  0  0  0  0
   -0.7303   16.2672   -4.8155 H   0  0  0  0  0  0  0  0  0  0  0  0
   -0.9403   17.4575   -6.1443 H   0  0  0  0  0  0  0  0  0  0  0  0
   -1.8922   15.9342   -6.1443 H   0  0  0  0  0  0  0  0  0  0  0  0
    1.0709   16.3483   -6.6628 H   0  0  0  0  0  0  0  0  0  0  0  0
    0.1088   14.4832   -8.4727 H   0  0  0  0  0  0  0  0  0  0  0  0
   -1.2868   15.6408   -8.2381 H   0  0  0  0  0  0  0  0  0  0  0  0
   -0.1433   16.5623  -10.0382 H   0  0  0  0  0  0  0  0  0  0  0  0
    0.4856   17.4795   -8.6059 H   0  0  0  0  0  0  0  0  0  0  0  0
    2.1292   16.0503   -8.4023 H   0  0  0  0  0  0  0  0  0  0  0  0
    0.3248   14.3021  -10.9857 H   0  0  0  0  0  0  0  0  0  0  0  0
    0.7767   15.5330  -12.2134 H   0  0  0  0  0  0  0  0  0  0  0  0
    1.5812   13.9270  -12.2134 H   0  0  0  0  0  0  0  0  0  0  0  0
    3.8294   14.3378   -9.6117 H   0  0  0  0  0  0  0  0  0  0  0  0
    3.3984   13.5497  -11.1673 H   0  0  0  0  0  0  0  0  0  0  0  0
    4.2767   15.1167  -11.1673 H   0  0  0  0  0  0  0  0  0  0  0  0
   -0.4333   13.8298   -6.2054 H   0  0  0  0  0  0  0  0  0  0  0  0
    1.4251   12.9591   -7.4797 H   0  0  0  0  0  0  0  0  0  0  0  0
    2.4047   14.4128   -7.1903 H   0  0  0  0  0  0  0  0  0  0  0  0
    2.7454   11.8929   -5.8856 H   0  0  0  0  0  0  0  0  0  0  0  0
    3.4617   13.4009   -5.3233 H   0  0  0  0  0  0  0  0  0  0  0  0
    0.1788   11.3114   -3.7370 H   0  0  0  0  0  0  0  0  0  0  0  0
   -0.3210   12.1146   -5.2640 H   0  0  0  0  0  0  0  0  0  0  0  0
    1.0589   10.9645   -5.2640 H   0  0  0  0  0  0  0  0  0  0  0  0
    2.9099   13.5892   -2.9731 H   0  0  0  0  0  0  0  0  0  0  0  0
    3.3437   11.1448   -3.6581 H   0  0  0  0  0  0  0  0  0  0  0  0
    3.6818   11.7284   -1.9451 H   0  0  0  0  0  0  0  0  0  0  0  0
    2.5452    9.3625   -2.1685 H   0  0  0  0  0  0  0  0  0  0  0  0
   -0.5656   11.9346   -2.1292 H   0  0  0  0  0  0  0  0  0  0  0  0
    0.4949   11.9737    0.7646 H   0  0  0  0  0  0  0  0  0  0  0  0
   -0.9041   12.9292    0.1010 H   0  0  0  0  0  0  0  0  0  0  0  0
   -1.6474   10.9672    1.4116 H   0  0  0  0  0  0  0  0  0  0  0  0
   -2.1385   10.8840   -0.3258 H   0  0  0  0  0  0  0  0  0  0  0  0
   -1.3674    8.7176    0.3615 H   0  0  0  0  0  0  0  0  0  0  0  0
    0.1610    8.6590    1.8360 H   0  0  0  0  0  0  0  0  0  0  0  0
   -2.0466    8.9282   -1.7083 H   0  0  0  0  0  0  0  0  0  0  0  0
   -1.1488    9.9879   -2.8474 H   0  0  0  0  0  0  0  0  0  0  0  0
   -0.8542    8.2159   -2.8474 H   0  0  0  0  0  0  0  0  0  0  0  0
    0.9936    7.6425   -0.0780 H   0  0  0  0  0  0  0  0  0  0  0  0
    0.2393    7.1535   -1.6332 H   0  0  0  0  0  0  0  0  0  0  0  0
    1.7876    8.0642   -1.6332 H   0  0  0  0  0  0  0  0  0  0  0  0
    1.5076   13.2922    0.3729 H   0  0  0  0  0  0  0  0  0  0  0  0
    2.9915   13.0064   -0.5983 H   0  0  0  0  0  0  0  0  0  0  0  0
    2.2163   14.6268   -0.5983 H   0  0  0  0  0  0  0  0  0  0  0  0
   -0.6590   14.2823   -1.4535 H   0  0  0  0  0  0  0  0  0  0  0  0
    0.8538   15.2399   -1.9321 H   0  0  0  0  0  0  0  0  0  0  0  0
   -1.0100   13.6953   -3.7557 H   0  0  0  0  0  0  0  0  0  0  0  0
   -0.7258   15.4786   -3.6814 H   0  0  0  0  0  0  0  0  0  0  0  0
    2.0043   15.6777   -3.2013 H   0  0  0  0  0  0  0  0  0  0  0  0
    2.8590   15.2990   -4.7352 H   0  0  0  0  0  0  0  0  0  0  0  0
    1.4827   16.4533   -4.7352 H   0  0  0  0  0  0  0  0  0  0  0  0
  1  2  1  0
  2  3  1  0
  3  4  1  0
  4  5  1  0
  5  6  1  0
  6  7  1  0
  7  8  1  0
  7  9  1  0
  2 10  1  0
 10 11  1  0
 11 12  1  0
 12 13  1  0
 13 14  1  6
 13 15  1  0
 15 16  1  0
 16 17  1  0
 17 18  2  0
 18 19  1  0
 19 20  1  0
 20 21  1  0
 21 22  1  0
 22 23  1  0
 22 24  1  0
 24 25  1  0
 24 26  1  0
 19 27  1  0
 27 28  1  1
 27 29  1  0
 29 30  1  0
 30 31  1  0
 31 32  1  6
  7  5  1  0
 31 10  1  0
 31 13  1  0
 27 15  1  0
 24 18  1  0
  1 33  1  0
  1 34  1  0
  1 35  1  0
  2 36  1  6
  3 37  1  0
  3 38  1  0
  4 39  1  0
  4 40  1  0
  5 41  1  1
  8 42  1  0
  8 43  1  0
  8 44  1  0
  9 45  1  0
  9 46  1  0
  9 47  1  0
 10 48  1  1
 11 49  1  0
 11 50  1  0
 12 51  1  0
 12 52  1  0
 14 53  1  0
 14 54  1  0
 14 55  1  0
 15 56  1  6
 16 57  1  0
 16 58  1  0
 17 59  1  0
 19 60  1  6
 20 61  1  0
 20 62  1  0
 21 63  1  0
 21 64  1  0
 22 65  1  1
 23 66  1  0
 25 67  1  0
 25 68  1  0
 25 69  1  0
 26 70  1  0
 26 71  1  0
 26 72  1  0
 28 73  1  0
 28 74  1  0
 28 75  1  0
 29 76  1  0
 29 77  1  0
 30 78  1  0
 30 79  1  0
 32 80  1  0
 32 81  1  0
 32 82  1  0
M  END
>  <meeko>  (11) 
{"is_sidechain": [false], "intermolecular_energy": 2.731, "internal_energy": -0.839}

$$$$
EPH_relaxed_0001_pdb2pqr_Repair_104_r2_0001_out
     RDKit          3D

 82 86  0  0  0  0  0  0  0  0999 V2000
   -2.1200    7.8630   -2.0310 C   0  0  0  0  0  0  0  0  0  0  0  0
   -2.1860    8.5350   -0.6570 C   0  0  2  0  0  0  0  0  0  0  0  0
   -3.6200    8.5620   -0.0910 C   0  0  0  0  0  0  0  0  0  0  0  0
   -4.7060    8.6220   -1.1690 C   0  0  0  0  0  0  0  0  0  0  0  0
   -5.8450    7.6990   -0.8600 C   0  0  2  0  0  0  0  0  0  0  0  0
   -5.4540    6.3910   -0.4210 O   0  0  0  0  0  0  0  0  0  0  0  0
   -6.1580    6.4550   -1.6720 C   0  0  0  0  0  0  0  0  0  0  0  0
   -5.3290    6.0680   -2.8570 C   0  0  0  0  0  0  0  0  0  0  0  0
   -7.5430    5.8920   -1.6130 C   0  0  0  0  0  0  0  0  0  0  0  0
   -1.6340    9.9530   -0.7450 C   0  0  1  0  0  0  0  0  0  0  0  0
   -1.1440   10.4900    0.6260 C   0  0  0  0  0  0  0  0  0  0  0  0
    0.0870   11.3880    0.3400 C   0  0  0  0  0  0  0  0  0  0  0  0
    0.0640   11.6070   -1.1910 C   0  0  1  0  0  0  0  0  0  0  0  0
   -0.9780   12.7460   -1.4180 C   0  0  0  0  0  0  0  0  0  0  0  0
    1.4370   11.9370   -1.8630 C   0  0  2  0  0  0  0  0  0  0  0  0
    2.0930   13.2480   -1.3950 C   0  0  0  0  0  0  0  0  0  0  0  0
    1.7320   14.4600   -2.1880 C   0  0  0  0  0  0  0  0  0  0  0  0
    1.1430   14.4570   -3.3980 C   0  0  0  0  0  0  0  0  0  0  0  0
    0.8690   13.1400   -4.1370 C   0  0  1  0  0  0  0  0  0  0  0  0
    1.3230   13.2710   -5.6150 C   0  0  0  0  0  0  0  0  0  0  0  0
    0.6970   14.4740   -6.3140 C   0  0  0  0  0  0  0  0  0  0  0  0
    1.0400   15.7700   -5.5830 C   0  0  2  0  0  0  0  0  0  0  0  0
    2.4460   16.0070   -5.7020 O   0  0  0  0  0  0  0  0  0  0  0  0
    0.6380   15.7510   -4.0820 C   0  0  0  0  0  0  0  0  0  0  0  0
   -0.9050   15.7970   -3.9550 C   0  0  0  0  0  0  0  0  0  0  0  0
    1.1660   17.0570   -3.4300 C   0  0  0  0  0  0  0  0  0  0  0  0
    1.4290   11.8250   -3.4410 C   0  0  1  0  0  0  0  0  0  0  0  0
    2.9060   11.5810   -3.8770 C   0  0  0  0  0  0  0  0  0  0  0  0
    0.6050   10.5840   -3.9490 C   0  0  0  0  0  0  0  0  0  0  0  0
   -0.6780   10.2360   -3.1710 C   0  0  0  0  0  0  0  0  0  0  0  0
   -0.4080   10.1840   -1.6640 C   0  0  2  0  0  0  0  0  0  0  0  0
    0.6200    9.0310   -1.4020 C   0  0  0  0  0  0  0  0  0  0  0  0
   -2.0132    6.7757   -1.9027 H   0  0  0  0  0  0  0  0  0  0  0  0
   -3.0435    8.0774   -2.5888 H   0  0  0  0  0  0  0  0  0  0  0  0
   -1.2558    8.2530   -2.5888 H   0  0  0  0  0  0  0  0  0  0  0  0
   -1.5708    7.9384    0.0326 H   0  0  0  0  0  0  0  0  0  0  0  0
   -3.7744    7.6520    0.5073 H   0  0  0  0  0  0  0  0  0  0  0  0
   -3.7116    9.4793    0.5092 H   0  0  0  0  0  0  0  0  0  0  0  0
   -5.0885    9.6514   -1.2328 H   0  0  0  0  0  0  0  0  0  0  0  0
   -4.2592    8.3077   -2.1238 H   0  0  0  0  0  0  0  0  0  0  0  0
   -6.4700    8.5423   -0.5311 H   0  0  0  0  0  0  0  0  0  0  0  0
   -4.3821    5.6260   -2.5134 H   0  0  0  0  0  0  0  0  0  0  0  0
   -5.8778    5.3330   -3.4641 H   0  0  0  0  0  0  0  0  0  0  0  0
   -5.1180    6.9607   -3.4641 H   0  0  0  0  0  0  0  0  0  0  0  0
   -7.8445    5.7694   -0.5623 H   0  0  0  0  0  0  0  0  0  0  0  0
   -8.2396    6.5784   -2.1167 H   0  0  0  0  0  0  0  0  0  0  0  0
   -7.5631    4.9143   -2.1167 H   0  0  0  0  0  0  0  0  0  0  0  0
   -2.5147   10.4676   -1.1567 H   0  0  0  0  0  0  0  0  0  0  0  0
   -1.9384   11.0785    1.1083 H   0  0  0  0  0  0  0  0  0  0  0  0
   -0.8816    9.6638    1.3031 H   0  0  0  0  0  0  0  0  0  0  0  0
   -0.0007   12.3475    0.8707 H   0  0  0  0  0  0  0  0  0  0  0  0
    1.0264   10.9286    0.6813 H   0  0  0  0  0  0  0  0  0  0  0  0
   -1.3247   13.1250   -0.4453 H   0  0  0  0  0  0  0  0  0  0  0  0
   -0.5093   13.5642   -1.9844 H   0  0  0  0  0  0  0  0  0  0  0  0
   -1.8346   12.3518   -1.9844 H   0  0  0  0  0  0  0  0  0  0  0  0
    2.0839   11.1295   -1.4896 H   0  0  0  0  0  0  0  0  0  0  0  0
    1.7946   13.4236   -0.3509 H   0  0  0  0  0  0  0  0  0  0  0  0
    3.1764   13.1100   -1.5262 H   0  0  0  0  0  0  0  0  0  0  0  0
    1.9675   15.4392   -1.7456 H   0  0  0  0  0  0  0  0  0  0  0  0
   -0.2195   12.9875   -4.0931 H   0  0  0  0  0  0  0  0  0  0  0  0
    2.4174   13.3788   -5.6396 H   0  0  0  0  0  0  0  0  0  0  0  0
    0.9936   12.3664   -6.1473 H   0  0  0  0  0  0  0  0  0  0  0  0
    1.0783   14.5302   -7.3443 H   0  0  0  0  0  0  0  0  0  0  0  0
   -0.3960   14.3500   -6.3143 H   0  0  0  0  0  0  0  0  0  0  0  0
    0.4597   16.5780   -6.0525 H   0  0  0  0  0  0  0  0  0  0  0  0
    2.6540   16.8050   -5.1870 H   0  0  0  0  0  0  0  0  0  0  0  0
   -1.1853   15.8054   -2.8913 H   0  0  0  0  0  0  0  0  0  0  0  0
   -1.2860   16.7069   -4.4417 H   0  0  0  0  0  0  0  0  0  0  0  0
   -1.3395   14.9114   -4.4417 H   0  0  0  0  0  0  0  0  0  0  0  0
    1.1274   16.9616   -2.3348 H   0  0  0  0  0  0  0  0  0  0  0  0
    2.2050   17.2308   -3.7466 H   0  0  0  0  0  0  0  0  0  0  0  0
    0.5397   17.9041   -3.7466 H   0  0  0  0  0  0  0  0  0  0  0  0
    3.5394   11.4764   -2.9838 H   0  0  0  0  0  0  0  0  0  0  0  0
    2.9639   10.6611   -4.4774 H   0  0  0  0  0  0  0  0  0  0  0  0
    3.2567   12.4334   -4.4774 H   0  0  0  0  0  0  0  0  0  0  0  0
    0.3184   10.7797   -4.9928 H   0  0  0  0  0  0  0  0  0  0  0  0
    1.2704    9.7196   -3.8077 H   0  0  0  0  0  0  0  0  0  0  0  0
   -1.4408   11.0022   -3.3737 H   0  0  0  0  0  0  0  0  0  0  0  0
   -1.0296    9.2466   -3.4988 H   0  0  0  0  0  0  0  0  0  0  0  0
    0.7452    8.8906   -0.3182 H   0  0  0  0  0  0  0  0  0  0  0  0
    0.2479    8.0987   -1.8519 H   0  0  0  0  0  0  0  0  0  0  0  0
    1.5887    9.2942   -1.8519 H   0  0  0  0  0  0  0  0  0  0  0  0
  1  2  1  0
  2  3  1  0
  3  4  1  0
  4  5  1  0
  5  6  1  0
  6  7  1  0
  7  8  1  0
  7  9  1  0
  2 10  1  0
 10 11  1  0
 11 12  1  0
 12 13  1  0
 13 14  1  1
 13 15  1  0
 15 16  1  0
 16 17  1  0
 17 18  2  0
 18 19  1  0
 19 20  1  0
 20 21  1  0
 21 22  1  0
 22 23  1  0
 22 24  1  0
 24 25  1  0
 24 26  1  0
 19 27  1  0
 27 28  1  6
 27 29  1  0
 29 30  1  0
 30 31  1  0
 31 32  1  6
  7  5  1  0
 31 10  1  0
 31 13  1  0
 27 15  1  0
 24 18  1  0
  1 33  1  0
  1 34  1  0
  1 35  1  0
  2 36  1  1
  3 37  1  0
  3 38  1  0
  4 39  1  0
  4 40  1  0
  5 41  1  1
  8 42  1  0
  8 43  1  0
  8 44  1  0
  9 45  1  0
  9 46  1  0
  9 47  1  0
 10 48  1  6
 11 49  1  0
 11 50  1  0
 12 51  1  0
 12 52  1  0
 14 53  1  0
 14 54  1  0
 14 55  1  0
 15 56  1  1
 16 57  1  0
 16 58  1  0
 17 59  1  0
 19 60  1  6
 20 61  1  0
 20 62  1  0
 21 63  1  0
 21 64  1  0
 22 65  1  6
 23 66  1  0
 25 67  1  0
 25 68  1  0
 25 69  1  0
 26 70  1  0
 26 71  1  0
 26 72  1  0
 28 73  1  0
 28 74  1  0
 28 75  1  0
 29 76  1  0
 29 77  1  0
 30 78  1  0
 30 79  1  0
 32 80  1  0
 32 81  1  0
 32 82  1  0
M  END
>  <meeko>  (12) 
{"is_sidechain": [false], "intermolecular_energy": 2.731, "internal_energy": -0.839}

$$$$
EPH_relaxed_0001_pdb2pqr_Repair_104_r2_0001_out
     RDKit          3D

 82 86  0  0  0  0  0  0  0  0999 V2000
    2.0980   10.8570   -5.1550 C   0  0  0  0  0  0  0  0  0  0  0  0
    1.4410   10.7640   -3.7750 C   0  0  2  0  0  0  0  0  0  0  0  0
    0.2900    9.7380   -3.7480 C   0  0  0  0  0  0  0  0  0  0  0  0
    0.1580    8.9970   -2.4150 C   0  0  0  0  0  0  0  0  0  0  0  0
   -1.2690    8.9120   -1.9670 C   0  0  2  0  0  0  0  0  0  0  0  0
   -1.9310   10.1760   -1.8330 O   0  0  0  0  0  0  0  0  0  0  0  0
   -1.7560    9.4210   -0.6230 C   0  0  0  0  0  0  0  0  0  0  0  0
   -0.8190   10.0530    0.3580 C   0  0  0  0  0  0  0  0  0  0  0  0
   -3.0310    8.8690   -0.0680 C   0  0  0  0  0  0  0  0  0  0  0  0
    0.9270   12.1350   -3.3510 C   0  0  1  0  0  0  0  0  0  0  0  0
   -0.5990   12.1400   -3.0690 C   0  0  0  0  0  0  0  0  0  0  0  0
   -0.8360   13.1330   -1.9030 C   0  0  0  0  0  0  0  0  0  0  0  0
    0.4960   13.9080   -1.7740 C   0  0  1  0  0  0  0  0  0  0  0  0
    0.4330   15.0020   -2.8850 C   0  0  0  0  0  0  0  0  0  0  0  0
    0.8030   14.5270   -0.3720 C   0  0  2  0  0  0  0  0  0  0  0  0
   -0.1980   15.5940    0.1040 C   0  0  0  0  0  0  0  0  0  0  0  0
    0.1380   16.9980   -0.2770 C   0  0  0  0  0  0  0  0  0  0  0  0
    1.3350   17.4220   -0.7230 C   0  0  0  0  0  0  0  0  0  0  0  0
    2.5340   16.4680   -0.7890 C   0  0  1  0  0  0  0  0  0  0  0  0
    3.7830   17.1640   -0.1870 C   0  0  0  0  0  0  0  0  0  0  0  0
    4.0730   18.5120   -0.8400 C   0  0  0  0  0  0  0  0  0  0  0  0
    2.8790   19.4530   -0.7020 C   0  0  2  0  0  0  0  0  0  0  0  0
    2.7070   19.7800    0.6800 O   0  0  0  0  0  0  0  0  0  0  0  0
    1.5600   18.8550   -1.2660 C   0  0  0  0  0  0  0  0  0  0  0  0
    1.6410   18.7820   -2.8110 C   0  0  0  0  0  0  0  0  0  0  0  0
    0.4090   19.8440   -0.9380 C   0  0  0  0  0  0  0  0  0  0  0  0
    2.2980   15.0150   -0.1910 C   0  0  1  0  0  0  0  0  0  0  0  0
    2.5830   15.0170    1.3420 C   0  0  0  0  0  0  0  0  0  0  0  0
    3.3340   14.0190   -0.8350 C   0  0  0  0  0  0  0  0  0  0  0  0
    2.9230   13.3490   -2.1590 C   0  0  0  0  0  0  0  0  0  0  0  0
    1.5180   12.7470   -2.0560 C   0  0  2  0  0  0  0  0  0  0  0  0
    1.5570   11.6270   -0.9610 C   0  0  0  0  0  0  0  0  0  0  0  0
    3.1808   11.0103   -5.0360 H   0  0  0  0  0  0  0  0  0  0  0  0
    1.9185    9.9245   -5.7102 H   0  0  0  0  0  0  0  0  0  0  0  0
    1.6667   11.7031   -5.7102 H   0  0  0  0  0  0  0  0  0  0  0  0
    2.2076   10.4187   -3.0657 H   0  0  0  0  0  0  0  0  0  0  0  0
   -0.6531   10.2687   -3.9453 H   0  0  0  0  0  0  0  0  0  0  0  0
    0.5145    8.9824   -4.5152 H   0  0  0  0  0  0  0  0  0  0  0  0
    0.5560    7.9783   -2.5326 H   0  0  0  0  0  0  0  0  0  0  0  0
    0.7233    9.5559   -1.6547 H   0  0  0  0  0  0  0  0  0  0  0  0
   -1.3974    7.9482   -2.4815 H   0  0  0  0  0  0  0  0  0  0  0  0
   -1.1530    9.8277    1.3816 H   0  0  0  0  0  0  0  0  0  0  0  0
    0.1946    9.6533    0.2067 H   0  0  0  0  0  0  0  0  0  0  0  0
   -0.8099   11.1425    0.2067 H   0  0  0  0  0  0  0  0  0  0  0  0
   -2.9904    8.8866    1.0311 H   0  0  0  0  0  0  0  0  0  0  0  0
   -3.8768    9.4815   -0.4135 H   0  0  0  0  0  0  0  0  0  0  0  0
   -3.1632    7.8331   -0.4135 H   0  0  0  0  0  0  0  0  0  0  0  0
    1.2396   12.7268   -4.2240 H   0  0  0  0  0  0  0  0  0  0  0  0
   -1.1483   12.4685   -3.9636 H   0  0  0  0  0  0  0  0  0  0  0  0
   -0.9553   11.1326   -2.8079 H   0  0  0  0  0  0  0  0  0  0  0  0
   -1.6630   13.8188   -2.1390 H   0  0  0  0  0  0  0  0  0  0  0  0
   -1.1133   12.6217   -0.9694 H   0  0  0  0  0  0  0  0  0  0  0  0
    0.3757   15.9962   -2.4178 H   0  0  0  0  0  0  0  0  0  0  0  0
    1.3361   14.9421   -3.5102 H   0  0  0  0  0  0  0  0  0  0  0  0
   -0.4572   14.8389   -3.5102 H   0  0  0  0  0  0  0  0  0  0  0  0
    0.6648   13.6670    0.2998 H   0  0  0  0  0  0  0  0  0  0  0  0
   -1.1821   15.3519   -0.3237 H   0  0  0  0  0  0  0  0  0  0  0  0
   -0.1761   15.5632    1.2034 H   0  0  0  0  0  0  0  0  0  0  0  0
   -0.6602   17.7493   -0.1855 H   0  0  0  0  0  0  0  0  0  0  0  0
    2.6996   16.2615   -1.8567 H   0  0  0  0  0  0  0  0  0  0  0  0
    3.6146   17.3221    0.8885 H   0  0  0  0  0  0  0  0  0  0  0  0
    4.6494   16.5113   -0.3693 H   0  0  0  0  0  0  0  0  0  0  0  0
    4.9482   18.9670   -0.3531 H   0  0  0  0  0  0  0  0  0  0  0  0
    4.2697   18.3488   -1.9099 H   0  0  0  0  0  0  0  0  0  0  0  0
    3.0961   20.3515   -1.2983 H   0  0  0  0  0  0  0  0  0  0  0  0
    2.9140   20.7240    0.7870 H   0  0  0  0  0  0  0  0  0  0  0  0
    2.4287   18.0721   -3.1037 H   0  0  0  0  0  0  0  0  0  0  0  0
    0.6747   18.4438   -3.2133 H   0  0  0  0  0  0  0  0  0  0  0  0
    1.8772   19.7782   -3.2133 H   0  0  0  0  0  0  0  0  0  0  0  0
    0.3034   19.9348    0.1531 H   0  0  0  0  0  0  0  0  0  0  0  0
    0.6394   20.8302   -1.3674 H   0  0  0  0  0  0  0  0  0  0  0  0
   -0.5313   19.4678   -1.3674 H   0  0  0  0  0  0  0  0  0  0  0  0
    1.6304   15.0103    1.8920 H   0  0  0  0  0  0  0  0  0  0  0  0
    3.1661   14.1229    1.6077 H   0  0  0  0  0  0  0  0  0  0  0  0
    3.1535   15.9192    1.6077 H   0  0  0  0  0  0  0  0  0  0  0  0
    4.2629   14.5786   -1.0196 H   0  0  0  0  0  0  0  0  0  0  0  0
    3.4278   13.1948   -0.1126 H   0  0  0  0  0  0  0  0  0  0  0  0
    2.9342   14.1012   -2.9616 H   0  0  0  0  0  0  0  0  0  0  0  0
    3.6357   12.5405   -2.3790 H   0  0  0  0  0  0  0  0  0  0  0  0
    1.5409   12.0892    0.0370 H   0  0  0  0  0  0  0  0  0  0  0  0
    0.6811   10.9715   -1.0756 H   0  0  0  0  0  0  0  0  0  0  0  0
    2.4763   11.0340   -1.0756 H   0  0  0  0  0  0  0  0  0  0  0  0
  1  2  1  0
  2  3  1  0
  3  4  1  0
  4  5  1  0
  5  6  1  0
  6  7  1  0
  7  8  1  0
  7  9  1  0
  2 10  1  0
 10 11  1  0
 11 12  1  0
 12 13  1  0
 13 14  1  6
 13 15  1  0
 15 16  1  0
 16 17  1  0
 17 18  2  0
 18 19  1  0
 19 20  1  0
 20 21  1  0
 21 22  1  0
 22 23  1  0
 22 24  1  0
 24 25  1  0
 24 26  1  0
 19 27  1  0
 27 28  1  1
 27 29  1  0
 29 30  1  0
 30 31  1  0
 31 32  1  1
  7  5  1  0
 31 10  1  0
 31 13  1  0
 27 15  1  0
 24 18  1  0
  1 33  1  0
  1 34  1  0
  1 35  1  0
  2 36  1  1
  3 37  1  0
  3 38  1  0
  4 39  1  0
  4 40  1  0
  5 41  1  6
  8 42  1  0
  8 43  1  0
  8 44  1  0
  9 45  1  0
  9 46  1  0
  9 47  1  0
 10 48  1  6
 11 49  1  0
 11 50  1  0
 12 51  1  0
 12 52  1  0
 14 53  1  0
 14 54  1  0
 14 55  1  0
 15 56  1  1
 16 57  1  0
 16 58  1  0
 17 59  1  0
 19 60  1  6
 20 61  1  0
 20 62  1  0
 21 63  1  0
 21 64  1  0
 22 65  1  6
 23 66  1  0
 25 67  1  0
 25 68  1  0
 25 69  1  0
 26 70  1  0
 26 71  1  0
 26 72  1  0
 28 73  1  0
 28 74  1  0
 28 75  1  0
 29 76  1  0
 29 77  1  0
 30 78  1  0
 30 79  1  0
 32 80  1  0
 32 81  1  0
 32 82  1  0
M  END
>  <meeko>  (13) 
{"is_sidechain": [false], "intermolecular_energy": 2.731, "internal_energy": -0.839}

$$$$
EPH_relaxed_0001_pdb2pqr_Repair_104_r2_0001_out
     RDKit          3D

 82 86  0  0  0  0  0  0  0  0999 V2000
   -1.5250    6.8550   -3.0870 C   0  0  0  0  0  0  0  0  0  0  0  0
   -2.7320    7.3610   -2.2910 C   0  0  2  0  0  0  0  0  0  0  0  0
   -4.0160    7.3920   -3.1430 C   0  0  0  0  0  0  0  0  0  0  0  0
   -4.9990    6.2640   -2.8160 C   0  0  0  0  0  0  0  0  0  0  0  0
   -5.8230    6.5810   -1.6050 C   0  0  2  0  0  0  0  0  0  0  0  0
   -6.2310    5.4370   -0.8430 O   0  0  0  0  0  0  0  0  0  0  0  0
   -7.2830    6.1940   -1.4620 C   0  0  0  0  0  0  0  0  0  0  0  0
   -8.0050    5.4580   -2.5470 C   0  0  0  0  0  0  0  0  0  0  0  0
   -8.1320    6.9520   -0.4900 C   0  0  0  0  0  0  0  0  0  0  0  0
   -2.4420    8.7500   -1.7340 C   0  0  1  0  0  0  0  0  0  0  0  0
   -3.2910    9.0790   -0.4780 C   0  0  0  0  0  0  0  0  0  0  0  0
   -2.4010    9.9460    0.4490 C   0  0  0  0  0  0  0  0  0  0  0  0
   -1.2040   10.3630   -0.4370 C   0  0  1  0  0  0  0  0  0  0  0  0
   -1.7270   11.5710   -1.2750 C   0  0  0  0  0  0  0  0  0  0  0  0
    0.1230   10.7110    0.3130 C   0  0  2  0  0  0  0  0  0  0  0  0
    0.0370   11.9160    1.2660 C   0  0  0  0  0  0  0  0  0  0  0  0
    0.3650   13.2370    0.6540 C   0  0  0  0  0  0  0  0  0  0  0  0
    0.9870   13.4200   -0.5260 C   0  0  0  0  0  0  0  0  0  0  0  0
    1.5170   12.2260   -1.3300 C   0  0  1  0  0  0  0  0  0  0  0  0
    2.9610   12.5270   -1.8120 C   0  0  0  0  0  0  0  0  0  0  0  0
    3.0580   13.8400   -2.5840 C   0  0  0  0  0  0  0  0  0  0  0  0
    2.5770   15.0110   -1.7310 C   0  0  2  0  0  0  0  0  0  0  0  0
    3.4870   15.1930   -0.6430 O   0  0  0  0  0  0  0  0  0  0  0  0
    1.1360   14.8160   -1.1800 C   0  0  0  0  0  0  0  0  0  0  0  0
    0.1170   14.9200   -2.3410 C   0  0  0  0  0  0  0  0  0  0  0  0
    0.8270   15.9990   -0.2230 C   0  0  0  0  0  0  0  0  0  0  0  0
    1.3920   10.8070   -0.6270 C   0  0  1  0  0  0  0  0  0  0  0  0
    2.6360   10.5490    0.2770 C   0  0  0  0  0  0  0  0  0  0  0  0
    1.4060    9.6840   -1.7310 C   0  0  0  0  0  0  0  0  0  0  0  0
    0.0470    9.3000   -2.3480 C   0  0  0  0  0  0  0  0  0  0  0  0
   -0.9960    9.0380   -1.2580 C   0  0  2  0  0  0  0  0  0  0  0  0
   -0.5080    7.8130   -0.4130 C   0  0  0  0  0  0  0  0  0  0  0  0
   -0.7391    6.5255   -2.3915 H   0  0  0  0  0  0  0  0  0  0  0  0
   -1.8318    6.0098   -3.7206 H   0  0  0  0  0  0  0  0  0  0  0  0
   -1.1373    7.6664   -3.7206 H   0  0  0  0  0  0  0  0  0  0  0  0
   -2.9020    6.6571   -1.4629 H   0  0  0  0  0  0  0  0  0  0  0  0
   -4.5222    8.3538   -2.9735 H   0  0  0  0  0  0  0  0  0  0  0  0
   -3.7098    7.2579   -4.1910 H   0  0  0  0  0  0  0  0  0  0  0  0
   -5.6700    6.1156   -3.6749 H   0  0  0  0  0  0  0  0  0  0  0  0
   -4.4188    5.3531   -2.6073 H   0  0  0  0  0  0  0  0  0  0  0  0
   -5.2961    7.5367   -1.4672 H   0  0  0  0  0  0  0  0  0  0  0  0
   -8.7083    4.7410   -2.0984 H   0  0  0  0  0  0  0  0  0  0  0  0
   -8.5598    6.1750   -3.1700 H   0  0  0  0  0  0  0  0  0  0  0  0
   -7.2775    4.9171   -3.1700 H   0  0  0  0  0  0  0  0  0  0  0  0
   -7.8376    6.6891    0.5368 H   0  0  0  0  0  0  0  0  0  0  0  0
   -7.9930    8.0319   -0.6462 H   0  0  0  0  0  0  0  0  0  0  0  0
   -9.1894    6.6920   -0.6462 H   0  0  0  0  0  0  0  0  0  0  0  0
   -2.6734    9.3565   -2.6220 H   0  0  0  0  0  0  0  0  0  0  0  0
   -4.1938    9.6372   -0.7667 H   0  0  0  0  0  0  0  0  0  0  0  0
   -3.6144    8.1596    0.0320 H   0  0  0  0  0  0  0  0  0  0  0  0
   -2.9519   10.8314    0.7991 H   0  0  0  0  0  0  0  0  0  0  0  0
   -2.0829    9.4014    1.3502 H   0  0  0  0  0  0  0  0  0  0  0  0
   -2.0712   12.3659   -0.5970 H   0  0  0  0  0  0  0  0  0  0  0  0
   -0.9150   11.9561   -1.9093 H   0  0  0  0  0  0  0  0  0  0  0  0
   -2.5635   11.2425   -1.9093 H   0  0  0  0  0  0  0  0  0  0  0  0
    0.2683    9.8310    0.9568 H   0  0  0  0  0  0  0  0  0  0  0  0
   -0.9900   11.9679    1.6566 H   0  0  0  0  0  0  0  0  0  0  0  0
    0.7957   11.7439    2.0436 H   0  0  0  0  0  0  0  0  0  0  0  0
    0.0739   14.1376    1.2145 H   0  0  0  0  0  0  0  0  0  0  0  0
    0.8480   12.1215   -2.1969 H   0  0  0  0  0  0  0  0  0  0  0  0
    3.6211   12.5845   -0.9340 H   0  0  0  0  0  0  0  0  0  0  0  0
    3.2620   11.7165   -2.4921 H   0  0  0  0  0  0  0  0  0  0  0  0
    4.1055   14.0113   -2.8728 H   0  0  0  0  0  0  0  0  0  0  0  0
    2.4194   13.7704   -3.4769 H   0  0  0  0  0  0  0  0  0  0  0  0
    2.5482   15.9004   -2.3776 H   0  0  0  0  0  0  0  0  0  0  0  0
    3.8190   16.1060   -0.6860 H   0  0  0  0  0  0  0  0  0  0  0  0
   -0.8980   15.0236   -1.9298 H   0  0  0  0  0  0  0  0  0  0  0  0
    0.3537   15.7987   -2.9590 H   0  0  0  0  0  0  0  0  0  0  0  0
    0.1713   14.0116   -2.9590 H   0  0  0  0  0  0  0  0  0  0  0  0
    0.9156   15.6599    0.8197 H   0  0  0  0  0  0  0  0  0  0  0  0
    1.5422   16.8146   -0.4053 H   0  0  0  0  0  0  0  0  0  0  0  0
   -0.1957   16.3606   -0.4053 H   0  0  0  0  0  0  0  0  0  0  0  0
    2.3398   10.6104    1.3346 H   0  0  0  0  0  0  0  0  0  0  0  0
    3.0405    9.5478    0.0671 H   0  0  0  0  0  0  0  0  0  0  0  0
    3.4053   11.3067    0.0671 H   0  0  0  0  0  0  0  0  0  0  0  0
    2.0571   10.0284   -2.5480 H   0  0  0  0  0  0  0  0  0  0  0  0
    1.7547    8.7772   -1.2151 H   0  0  0  0  0  0  0  0  0  0  0  0
   -0.3020   10.1225   -2.9896 H   0  0  0  0  0  0  0  0  0  0  0  0
    0.1769    8.3802   -2.9371 H   0  0  0  0  0  0  0  0  0  0  0  0
   -0.6008    8.0460    0.6580 H   0  0  0  0  0  0  0  0  0  0  0  0
   -1.1246    6.9339   -0.6518 H   0  0  0  0  0  0  0  0  0  0  0  0
    0.5442    7.5987   -0.6518 H   0  0  0  0  0  0  0  0  0  0  0  0
  1  2  1  0
  2  3  1  0
  3  4  1  0
  4  5  1  0
  5  6  1  0
  6  7  1  0
  7  8  1  0
  7  9  1  0
  2 10  1  0
 10 11  1  0
 11 12  1  0
 12 13  1  0
 13 14  1  6
 13 15  1  0
 15 16  1  0
 16 17  1  0
 17 18  2  0
 18 19  1  0
 19 20  1  0
 20 21  1  0
 21 22  1  0
 22 23  1  0
 22 24  1  0
 24 25  1  0
 24 26  1  0
 19 27  1  0
 27 28  1  1
 27 29  1  0
 29 30  1  0
 30 31  1  0
 31 32  1  1
  7  5  1  0
 31 10  1  0
 31 13  1  0
 27 15  1  0
 24 18  1  0
  1 33  1  0
  1 34  1  0
  1 35  1  0
  2 36  1  1
  3 37  1  0
  3 38  1  0
  4 39  1  0
  4 40  1  0
  5 41  1  1
  8 42  1  0
  8 43  1  0
  8 44  1  0
  9 45  1  0
  9 46  1  0
  9 47  1  0
 10 48  1  6
 11 49  1  0
 11 50  1  0
 12 51  1  0
 12 52  1  0
 14 53  1  0
 14 54  1  0
 14 55  1  0
 15 56  1  1
 16 57  1  0
 16 58  1  0
 17 59  1  0
 19 60  1  6
 20 61  1  0
 20 62  1  0
 21 63  1  0
 21 64  1  0
 22 65  1  6
 23 66  1  0
 25 67  1  0
 25 68  1  0
 25 69  1  0
 26 70  1  0
 26 71  1  0
 26 72  1  0
 28 73  1  0
 28 74  1  0
 28 75  1  0
 29 76  1  0
 29 77  1  0
 30 78  1  0
 30 79  1  0
 32 80  1  0
 32 81  1  0
 32 82  1  0
M  END
>  <meeko>  (14) 
{"is_sidechain": [false], "intermolecular_energy": 2.731, "internal_energy": -0.839}

$$$$
EPH_relaxed_0001_pdb2pqr_Repair_104_r2_0001_out
     RDKit          3D

 82 86  0  0  0  0  0  0  0  0999 V2000
    0.0080    9.2820   -4.1000 C   0  0  0  0  0  0  0  0  0  0  0  0
    0.0770    9.4870   -2.5840 C   0  0  2  0  0  0  0  0  0  0  0  0
   -0.7940    8.4700   -1.8190 C   0  0  0  0  0  0  0  0  0  0  0  0
   -2.2870    8.5730   -2.1410 C   0  0  0  0  0  0  0  0  0  0  0  0
   -2.8240    7.2910   -2.7010 C   0  0  2  0  0  0  0  0  0  0  0  0
   -3.8950    7.4490   -3.6410 O   0  0  0  0  0  0  0  0  0  0  0  0
   -4.2220    6.7740   -2.4150 C   0  0  0  0  0  0  0  0  0  0  0  0
   -5.1690    7.5290   -1.5380 C   0  0  0  0  0  0  0  0  0  0  0  0
   -4.4920    5.3110   -2.5870 C   0  0  0  0  0  0  0  0  0  0  0  0
   -0.3510   10.9070   -2.2310 C   0  0  1  0  0  0  0  0  0  0  0  0
   -1.5720   10.9430   -1.2750 C   0  0  0  0  0  0  0  0  0  0  0  0
   -1.3730   12.1640   -0.3410 C   0  0  0  0  0  0  0  0  0  0  0  0
   -0.2320   12.9750   -0.9970 C   0  0  1  0  0  0  0  0  0  0  0  0
   -0.9230   13.7960   -2.1310 C   0  0  0  0  0  0  0  0  0  0  0  0
    0.6000   13.8950   -0.0440 C   0  0  2  0  0  0  0  0  0  0  0  0
   -0.1980   15.0200    0.6360 C   0  0  0  0  0  0  0  0  0  0  0  0
   -0.2440   16.3120   -0.1110 C   0  0  0  0  0  0  0  0  0  0  0  0
    0.5610   16.6520   -1.1350 C   0  0  0  0  0  0  0  0  0  0  0  0
    1.7060   15.7310   -1.5760 C   0  0  1  0  0  0  0  0  0  0  0  0
    2.9980   16.5670   -1.7700 C   0  0  0  0  0  0  0  0  0  0  0  0
    2.7960   17.7430   -2.7210 C   0  0  0  0  0  0  0  0  0  0  0  0
    1.6890   18.6670   -2.2180 C   0  0  2  0  0  0  0  0  0  0  0  0
    2.1230   19.2880   -1.0040 O   0  0  0  0  0  0  0  0  0  0  0  0
    0.3410   17.9330   -1.9770 C   0  0  0  0  0  0  0  0  0  0  0  0
   -0.2780   17.5220   -3.3350 C   0  0  0  0  0  0  0  0  0  0  0  0
   -0.6470   18.9460   -1.3380 C   0  0  0  0  0  0  0  0  0  0  0  0
    1.9430   14.4410   -0.6790 C   0  0  1  0  0  0  0  0  0  0  0  0
    2.8890   14.7870    0.5110 C   0  0  0  0  0  0  0  0  0  0  0  0
    2.6870   13.3490   -1.5350 C   0  0  0  0  0  0  0  0  0  0  0  0
    1.8050   12.3940   -2.3620 C   0  0  0  0  0  0  0  0  0  0  0  0
    0.6840   11.8010   -1.5030 C   0  0  2  0  0  0  0  0  0  0  0  0
    1.3490   10.9520   -0.3670 C   0  0  0  0  0  0  0  0  0  0  0  0
   -0.3360    8.2599   -4.3165 H   0  0  0  0  0  0  0  0  0  0  0  0
   -0.6960   10.0059   -4.5362 H   0  0  0  0  0  0  0  0  0  0  0  0
    1.0065    9.4329   -4.5362 H   0  0  0  0  0  0  0  0  0  0  0  0
    1.1207    9.3252   -2.2765 H   0  0  0  0  0  0  0  0  0  0  0  0
   -0.4522    7.4568   -2.0769 H   0  0  0  0  0  0  0  0  0  0  0  0
   -0.6803    8.6913   -0.7475 H   0  0  0  0  0  0  0  0  0  0  0  0
   -2.8345    8.8158   -1.2184 H   0  0  0  0  0  0  0  0  0  0  0  0
   -2.4206    9.3599   -2.8980 H   0  0  0  0  0  0  0  0  0  0  0  0
   -1.8333    6.8182   -2.6303 H   0  0  0  0  0  0  0  0  0  0  0  0
   -4.9256    7.3350   -0.4830 H   0  0  0  0  0  0  0  0  0  0  0  0
   -5.0791    8.6060   -1.7429 H   0  0  0  0  0  0  0  0  0  0  0  0
   -6.1989    7.2014   -1.7429 H   0  0  0  0  0  0  0  0  0  0  0  0
   -4.5797    4.8357   -1.5989 H   0  0  0  0  0  0  0  0  0  0  0  0
   -5.4305    5.1744   -3.1442 H   0  0  0  0  0  0  0  0  0  0  0  0
   -3.6641    4.8484   -3.1442 H   0  0  0  0  0  0  0  0  0  0  0  0
   -0.5420   11.2984   -3.2411 H   0  0  0  0  0  0  0  0  0  0  0  0
   -2.5017   11.0551   -1.8521 H   0  0  0  0  0  0  0  0  0  0  0  0
   -1.6477   10.0109   -0.6958 H   0  0  0  0  0  0  0  0  0  0  0  0
   -2.2933   12.7640   -0.2848 H   0  0  0  0  0  0  0  0  0  0  0  0
   -1.1332   11.8656    0.6902 H   0  0  0  0  0  0  0  0  0  0  0  0
   -1.5704   14.5651   -1.6845 H   0  0  0  0  0  0  0  0  0  0  0  0
   -0.1556   14.2790   -2.7537 H   0  0  0  0  0  0  0  0  0  0  0  0
   -1.5299   13.1223   -2.7537 H   0  0  0  0  0  0  0  0  0  0  0  0
    0.8867   13.2028    0.7614 H   0  0  0  0  0  0  0  0  0  0  0  0
   -1.2317   14.6691    0.7717 H   0  0  0  0  0  0  0  0  0  0  0  0
    0.3230   15.2337    1.5809 H   0  0  0  0  0  0  0  0  0  0  0  0
   -0.9993   17.0480    0.2018 H   0  0  0  0  0  0  0  0  0  0  0  0
    1.3940   15.2977   -2.5377 H   0  0  0  0  0  0  0  0  0  0  0  0
    3.3170   16.9554   -0.7916 H   0  0  0  0  0  0  0  0  0  0  0  0
    3.7597   15.9074   -2.2113 H   0  0  0  0  0  0  0  0  0  0  0  0
    3.7345   18.3121   -2.7944 H   0  0  0  0  0  0  0  0  0  0  0  0
    2.5058   17.3515   -3.7072 H   0  0  0  0  0  0  0  0  0  0  0  0
    1.5023   19.4155   -3.0021 H   0  0  0  0  0  0  0  0  0  0  0  0
    1.3570   19.3340   -0.4070 H   0  0  0  0  0  0  0  0  0  0  0  0
   -1.1826   16.9214   -3.1589 H   0  0  0  0  0  0  0  0  0  0  0  0
   -0.5425   18.4245   -3.9056 H   0  0  0  0  0  0  0  0  0  0  0  0
    0.4512   16.9280   -3.9056 H   0  0  0  0  0  0  0  0  0  0  0  0
   -0.5823   18.8797   -0.2419 H   0  0  0  0  0  0  0  0  0  0  0  0
   -0.3864   19.9651   -1.6597 H   0  0  0  0  0  0  0  0  0  0  0  0
   -1.6723   18.7109   -1.6597 H   0  0  0  0  0  0  0  0  0  0  0  0
    2.3681   14.5965    1.4609 H   0  0  0  0  0  0  0  0  0  0  0  0
    3.7917   14.1608    0.4558 H   0  0  0  0  0  0  0  0  0  0  0  0
    3.1747   15.8478    0.4558 H   0  0  0  0  0  0  0  0  0  0  0  0
    3.3560   13.8728   -2.2336 H   0  0  0  0  0  0  0  0  0  0  0  0
    3.1970   12.7070   -0.8017 H   0  0  0  0  0  0  0  0  0  0  0  0
    1.3601   12.9502   -3.2003 H   0  0  0  0  0  0  0  0  0  0  0  0
    2.4329   11.5717   -2.7356 H   0  0  0  0  0  0  0  0  0  0  0  0
    1.0409   11.3454    0.6129 H   0  0  0  0  0  0  0  0  0  0  0  0
    1.0295    9.9034   -0.4581 H   0  0  0  0  0  0  0  0  0  0  0  0
    2.4436   11.0110   -0.4581 H   0  0  0  0  0  0  0  0  0  0  0  0
  1  2  1  0
  2  3  1  0
  3  4  1  0
  4  5  1  0
  5  6  1  0
  6  7  1  0
  7  8  1  0
  7  9  1  0
  2 10  1  0
 10 11  1  0
 11 12  1  0
 12 13  1  0
 13 14  1  6
 13 15  1  0
 15 16  1  0
 16 17  1  0
 17 18  2  0
 18 19  1  0
 19 20  1  0
 20 21  1  0
 21 22  1  0
 22 23  1  0
 22 24  1  0
 24 25  1  0
 24 26  1  0
 19 27  1  0
 27 28  1  1
 27 29  1  0
 29 30  1  0
 30 31  1  0
 31 32  1  1
  7  5  1  0
 31 10  1  0
 31 13  1  0
 27 15  1  0
 24 18  1  0
  1 33  1  0
  1 34  1  0
  1 35  1  0
  2 36  1  1
  3 37  1  0
  3 38  1  0
  4 39  1  0
  4 40  1  0
  5 41  1  6
  8 42  1  0
  8 43  1  0
  8 44  1  0
  9 45  1  0
  9 46  1  0
  9 47  1  0
 10 48  1  6
 11 49  1  0
 11 50  1  0
 12 51  1  0
 12 52  1  0
 14 53  1  0
 14 54  1  0
 14 55  1  0
 15 56  1  1
 16 57  1  0
 16 58  1  0
 17 59  1  0
 19 60  1  6
 20 61  1  0
 20 62  1  0
 21 63  1  0
 21 64  1  0
 22 65  1  6
 23 66  1  0
 25 67  1  0
 25 68  1  0
 25 69  1  0
 26 70  1  0
 26 71  1  0
 26 72  1  0
 28 73  1  0
 28 74  1  0
 28 75  1  0
 29 76  1  0
 29 77  1  0
 30 78  1  0
 30 79  1  0
 32 80  1  0
 32 81  1  0
 32 82  1  0
M  END
>  <meeko>  (15) 
{"is_sidechain": [false], "intermolecular_energy": 2.731, "internal_energy": -0.839}

$$$$
EPH_relaxed_0001_pdb2pqr_Repair_104_r2_0001_out
     RDKit          3D

 82 86  0  0  0  0  0  0  0  0999 V2000
   -1.7130   14.7890    0.5020 C   0  0  0  0  0  0  0  0  0  0  0  0
   -0.3720   15.4940    0.2800 C   0  0  2  0  0  0  0  0  0  0  0  0
   -0.4330   16.5070   -0.8810 C   0  0  0  0  0  0  0  0  0  0  0  0
   -0.0680   17.9360   -0.4720 C   0  0  0  0  0  0  0  0  0  0  0  0
    1.3630   18.0400   -0.0380 C   0  0  2  0  0  0  0  0  0  0  0  0
    2.0110   19.2670   -0.4000 O   0  0  0  0  0  0  0  0  0  0  0  0
    2.5300   18.0730   -1.0070 C   0  0  0  0  0  0  0  0  0  0  0  0
    2.3180   18.0000   -2.4870 C   0  0  0  0  0  0  0  0  0  0  0  0
    3.8870   17.6830   -0.5070 C   0  0  0  0  0  0  0  0  0  0  0  0
    0.7200   14.4640    0.0160 C   0  0  1  0  0  0  0  0  0  0  0  0
    0.8510   13.4250    1.1620 C   0  0  0  0  0  0  0  0  0  0  0  0
    1.2280   12.0750    0.5000 C   0  0  0  0  0  0  0  0  0  0  0  0
    1.6240   12.4470   -0.9480 C   0  0  1  0  0  0  0  0  0  0  0  0
    3.0980   12.9510   -0.8430 C   0  0  0  0  0  0  0  0  0  0  0  0
    1.4760   11.3160   -2.0170 C   0  0  2  0  0  0  0  0  0  0  0  0
    2.3600   10.0790   -1.7850 C   0  0  0  0  0  0  0  0  0  0  0  0
    3.7050   10.1260   -2.4310 C   0  0  0  0  0  0  0  0  0  0  0  0
    4.0790   10.9860   -3.3970 C   0  0  0  0  0  0  0  0  0  0  0  0
    3.0740   11.9720   -4.0060 C   0  0  1  0  0  0  0  0  0  0  0  0
    3.2000   11.9520   -5.5520 C   0  0  0  0  0  0  0  0  0  0  0  0
    4.6270   12.2060   -6.0260 C   0  0  0  0  0  0  0  0  0  0  0  0
    5.5870   11.1700   -5.4460 C   0  0  2  0  0  0  0  0  0  0  0  0
    5.2730    9.8890   -6.0010 O   0  0  0  0  0  0  0  0  0  0  0  0
    5.5420   11.0930   -3.8950 C   0  0  0  0  0  0  0  0  0  0  0  0
    6.1670   12.3750   -3.2920 C   0  0  0  0  0  0  0  0  0  0  0  0
    6.4500    9.9160   -3.4480 C   0  0  0  0  0  0  0  0  0  0  0  0
    1.5710   11.8230   -3.5130 C   0  0  1  0  0  0  0  0  0  0  0  0
    0.8270   10.7680   -4.3880 C   0  0  0  0  0  0  0  0  0  0  0  0
    0.8200   13.1890   -3.7310 C   0  0  0  0  0  0  0  0  0  0  0  0
    0.9050   14.2190   -2.5880 C   0  0  0  0  0  0  0  0  0  0  0  0
    0.5660   13.5720   -1.2420 C   0  0  2  0  0  0  0  0  0  0  0  0
   -0.9180   13.0750   -1.3090 C   0  0  0  0  0  0  0  0  0  0  0  0
   -1.9010   14.6901    1.5813 H   0  0  0  0  0  0  0  0  0  0  0  0
   -2.5186   15.3802    0.0421 H   0  0  0  0  0  0  0  0  0  0  0  0
   -1.6827   13.7902    0.0421 H   0  0  0  0  0  0  0  0  0  0  0  0
   -0.1387   16.0562    1.1963 H   0  0  0  0  0  0  0  0  0  0  0  0
    0.2675   16.1804   -1.6637 H   0  0  0  0  0  0  0  0  0  0  0  0
   -1.4751   16.5300   -1.2325 H   0  0  0  0  0  0  0  0  0  0  0  0
   -0.2297   18.6048   -1.3302 H   0  0  0  0  0  0  0  0  0  0  0  0
   -0.7056   18.2231    0.3771 H   0  0  0  0  0  0  0  0  0  0  0  0
    1.1616   17.4292    0.8544 H   0  0  0  0  0  0  0  0  0  0  0  0
    1.2965   17.6483   -2.6942 H   0  0  0  0  0  0  0  0  0  0  0  0
    2.4584   18.9983   -2.9272 H   0  0  0  0  0  0  0  0  0  0  0  0
    3.0432   17.2998   -2.9272 H   0  0  0  0  0  0  0  0  0  0  0  0
    3.8865   17.6832    0.5930 H   0  0  0  0  0  0  0  0  0  0  0  0
    4.1375   16.6765   -0.8734 H   0  0  0  0  0  0  0  0  0  0  0  0
    4.6336   18.4029   -0.8734 H   0  0  0  0  0  0  0  0  0  0  0  0
    1.5832   15.1356   -0.1017 H   0  0  0  0  0  0  0  0  0  0  0  0
    1.6375   13.7345    1.8660 H   0  0  0  0  0  0  0  0  0  0  0  0
   -0.0889   13.3392    1.7270 H   0  0  0  0  0  0  0  0  0  0  0  0
    2.0736   11.6075    1.0258 H   0  0  0  0  0  0  0  0  0  0  0  0
    0.4019   11.3494    0.5330 H   0  0  0  0  0  0  0  0  0  0  0  0
    3.3782   13.0468    0.2164 H   0  0  0  0  0  0  0  0  0  0  0  0
    3.7677   12.2308   -1.3357 H   0  0  0  0  0  0  0  0  0  0  0  0
    3.1866   13.9305   -1.3357 H   0  0  0  0  0  0  0  0  0  0  0  0
    0.4416   10.9763   -1.8600 H   0  0  0  0  0  0  0  0  0  0  0  0
    2.5075    9.9651   -0.7009 H   0  0  0  0  0  0  0  0  0  0  0  0
    1.8292    9.2344   -2.2486 H   0  0  0  0  0  0  0  0  0  0  0  0
    4.4537    9.3964   -2.0889 H   0  0  0  0  0  0  0  0  0  0  0  0
    3.3517   12.9649   -3.6227 H   0  0  0  0  0  0  0  0  0  0  0  0
    2.8765   10.9669   -5.9194 H   0  0  0  0  0  0  0  0  0  0  0  0
    2.5677   12.7599   -5.9489 H   0  0  0  0  0  0  0  0  0  0  0  0
    4.6570   12.1496   -7.1241 H   0  0  0  0  0  0  0  0  0  0  0  0
    4.9384   13.2039   -5.6835 H   0  0  0  0  0  0  0  0  0  0  0  0
    6.6078   11.4799   -5.7144 H   0  0  0  0  0  0  0  0  0  0  0  0
    5.6650    9.8490   -6.8900 H   0  0  0  0  0  0  0  0  0  0  0  0
    6.1380   12.3155   -2.1940 H   0  0  0  0  0  0  0  0  0  0  0  0
    7.2108   12.4665   -3.6268 H   0  0  0  0  0  0  0  0  0  0  0  0
    5.5962   13.2537   -3.6268 H   0  0  0  0  0  0  0  0  0  0  0  0
    6.4821    9.8744   -2.3493 H   0  0  0  0  0  0  0  0  0  0  0  0
    6.0446    8.9711   -3.8390 H   0  0  0  0  0  0  0  0  0  0  0  0
    7.4668   10.0684   -3.8390 H   0  0  0  0  0  0  0  0  0  0  0  0
    0.3167   10.0444   -3.7352 H   0  0  0  0  0  0  0  0  0  0  0  0
    0.0858   11.2753   -5.0230 H   0  0  0  0  0  0  0  0  0  0  0  0
    1.5537   10.2401   -5.0230 H   0  0  0  0  0  0  0  0  0  0  0  0
    1.2383   13.6583   -4.6336 H   0  0  0  0  0  0  0  0  0  0  0  0
   -0.2453   12.9238   -3.8007 H   0  0  0  0  0  0  0  0  0  0  0  0
    1.9262   14.6256   -2.5450 H   0  0  0  0  0  0  0  0  0  0  0  0
    0.1793   15.0220   -2.7843 H   0  0  0  0  0  0  0  0  0  0  0  0
   -1.3074   12.9446   -0.2885 H   0  0  0  0  0  0  0  0  0  0  0  0
   -1.5296   13.8174   -1.8428 H   0  0  0  0  0  0  0  0  0  0  0  0
   -0.9591   12.1141   -1.8428 H   0  0  0  0  0  0  0  0  0  0  0  0
  1  2  1  0
  2  3  1  0
  3  4  1  0
  4  5  1  0
  5  6  1  0
  6  7  1  0
  7  8  1  0
  7  9  1  0
  2 10  1  0
 10 11  1  0
 11 12  1  0
 12 13  1  0
 13 14  1  1
 13 15  1  0
 15 16  1  0
 16 17  1  0
 17 18  2  0
 18 19  1  0
 19 20  1  0
 20 21  1  0
 21 22  1  0
 22 23  1  0
 22 24  1  0
 24 25  1  0
 24 26  1  0
 19 27  1  0
 27 28  1  6
 27 29  1  0
 29 30  1  0
 30 31  1  0
 31 32  1  6
  7  5  1  0
 31 10  1  0
 31 13  1  0
 27 15  1  0
 24 18  1  0
  1 33  1  0
  1 34  1  0
  1 35  1  0
  2 36  1  1
  3 37  1  0
  3 38  1  0
  4 39  1  0
  4 40  1  0
  5 41  1  1
  8 42  1  0
  8 43  1  0
  8 44  1  0
  9 45  1  0
  9 46  1  0
  9 47  1  0
 10 48  1  6
 11 49  1  0
 11 50  1  0
 12 51  1  0
 12 52  1  0
 14 53  1  0
 14 54  1  0
 14 55  1  0
 15 56  1  6
 16 57  1  0
 16 58  1  0
 17 59  1  0
 19 60  1  1
 20 61  1  0
 20 62  1  0
 21 63  1  0
 21 64  1  0
 22 65  1  1
 23 66  1  0
 25 67  1  0
 25 68  1  0
 25 69  1  0
 26 70  1  0
 26 71  1  0
 26 72  1  0
 28 73  1  0
 28 74  1  0
 28 75  1  0
 29 76  1  0
 29 77  1  0
 30 78  1  0
 30 79  1  0
 32 80  1  0
 32 81  1  0
 32 82  1  0
M  END
>  <meeko>  (16) 
{"is_sidechain": [false], "intermolecular_energy": 2.731, "internal_energy": -0.839}

$$$$
EPH_relaxed_0001_pdb2pqr_Repair_104_r2_0001_out
     RDKit          3D

 82 86  0  0  0  0  0  0  0  0999 V2000
   -4.5660    7.0580   -2.9590 C   0  0  0  0  0  0  0  0  0  0  0  0
   -4.4210    7.3050   -1.4550 C   0  0  2  0  0  0  0  0  0  0  0  0
   -5.7840    7.3070   -0.7330 C   0  0  0  0  0  0  0  0  0  0  0  0
   -6.7360    6.2080   -1.2120 C   0  0  0  0  0  0  0  0  0  0  0  0
   -8.0540    6.7690   -1.6520 C   0  0  2  0  0  0  0  0  0  0  0  0
   -8.3310    8.0910   -1.1740 O   0  0  0  0  0  0  0  0  0  0  0  0
   -9.2020    7.0510   -0.7010 C   0  0  0  0  0  0  0  0  0  0  0  0
   -9.0850    6.7800    0.7660 C   0  0  0  0  0  0  0  0  0  0  0  0
  -10.5900    7.1270   -1.2570 C   0  0  0  0  0  0  0  0  0  0  0  0
   -3.7010    8.6260   -1.2130 C   0  0  1  0  0  0  0  0  0  0  0  0
   -4.1710    9.3330    0.0870 C   0  0  0  0  0  0  0  0  0  0  0  0
   -2.9290   10.0430    0.6830 C   0  0  0  0  0  0  0  0  0  0  0  0
   -1.8760   10.0040   -0.4490 C   0  0  1  0  0  0  0  0  0  0  0  0
   -2.2560   11.1880   -1.3920 C   0  0  0  0  0  0  0  0  0  0  0  0
   -0.3790   10.0800   -0.0030 C   0  0  2  0  0  0  0  0  0  0  0  0
    0.0230   11.3780    0.7180 C   0  0  0  0  0  0  0  0  0  0  0  0
    0.5230   12.4710   -0.1670 C   0  0  0  0  0  0  0  0  0  0  0  0
    0.9140   12.3240   -1.4460 C   0  0  0  0  0  0  0  0  0  0  0  0
    0.9680   10.9370   -2.0990 C   0  0  1  0  0  0  0  0  0  0  0  0
    2.3110   10.7740   -2.8590 C   0  0  0  0  0  0  0  0  0  0  0  0
    2.5570   11.8990   -3.8590 C   0  0  0  0  0  0  0  0  0  0  0  0
    2.5540   13.2580   -3.1630 C   0  0  2  0  0  0  0  0  0  0  0  0
    3.6860   13.3310   -2.2910 O   0  0  0  0  0  0  0  0  0  0  0  0
    1.2540   13.5300   -2.3560 C   0  0  0  0  0  0  0  0  0  0  0  0
    0.0720   13.7500   -3.3330 C   0  0  0  0  0  0  0  0  0  0  0  0
    1.4390   14.8680   -1.5900 C   0  0  0  0  0  0  0  0  0  0  0  0
    0.6560    9.7070   -1.1410 C   0  0  1  0  0  0  0  0  0  0  0  0
    1.9610    9.2470   -0.4230 C   0  0  0  0  0  0  0  0  0  0  0  0
    0.1740    8.4870   -2.0120 C   0  0  0  0  0  0  0  0  0  0  0  0
   -1.3330    8.4040   -2.3180 C   0  0  0  0  0  0  0  0  0  0  0  0
   -2.1620    8.5760   -1.0410 C   0  0  2  0  0  0  0  0  0  0  0  0
   -1.8170    7.3870   -0.0820 C   0  0  0  0  0  0  0  0  0  0  0  0
   -5.1165    6.1203   -3.1252 H   0  0  0  0  0  0  0  0  0  0  0  0
   -5.1174    7.8928   -3.4162 H   0  0  0  0  0  0  0  0  0  0  0  0
   -3.5683    6.9834   -3.4162 H   0  0  0  0  0  0  0  0  0  0  0  0
   -3.8284    6.4770   -1.0387 H   0  0  0  0  0  0  0  0  0  0  0  0
   -5.6068    7.1679    0.3437 H   0  0  0  0  0  0  0  0  0  0  0  0
   -6.2656    8.2700   -0.9583 H   0  0  0  0  0  0  0  0  0  0  0  0
   -6.2732    5.6795   -2.0584 H   0  0  0  0  0  0  0  0  0  0  0  0
   -6.9187    5.5225   -0.3714 H   0  0  0  0  0  0  0  0  0  0  0  0
   -8.0007    6.2139   -2.6002 H   0  0  0  0  0  0  0  0  0  0  0  0
   -9.4593    7.6470    1.3300 H   0  0  0  0  0  0  0  0  0  0  0  0
   -9.6794    5.8909    1.0232 H   0  0  0  0  0  0  0  0  0  0  0  0
   -8.0303    6.6029    1.0232 H   0  0  0  0  0  0  0  0  0  0  0  0
  -11.3145    7.1667   -0.4302 H   0  0  0  0  0  0  0  0  0  0  0  0
  -10.6885    8.0319   -1.8746 H   0  0  0  0  0  0  0  0  0  0  0  0
  -10.7868    6.2383   -1.8746 H   0  0  0  0  0  0  0  0  0  0  0  0
   -3.9585    9.1501   -2.1452 H   0  0  0  0  0  0  0  0  0  0  0  0
   -4.9541   10.0700   -0.1444 H   0  0  0  0  0  0  0  0  0  0  0  0
   -4.5928    8.6094    0.8001 H   0  0  0  0  0  0  0  0  0  0  0  0
   -3.1687   11.0816    0.9547 H   0  0  0  0  0  0  0  0  0  0  0  0
   -2.5713    9.5559    1.6021 H   0  0  0  0  0  0  0  0  0  0  0  0
   -2.5368   12.0629   -0.7872 H   0  0  0  0  0  0  0  0  0  0  0  0
   -1.3944   11.4423   -2.0267 H   0  0  0  0  0  0  0  0  0  0  0  0
   -3.1047   10.8934   -2.0267 H   0  0  0  0  0  0  0  0  0  0  0  0
   -0.3194    9.2864    0.7564 H   0  0  0  0  0  0  0  0  0  0  0  0
   -0.8588   11.7541    1.2574 H   0  0  0  0  0  0  0  0  0  0  0  0
    0.8627   11.1122    1.3770 H   0  0  0  0  0  0  0  0  0  0  0  0
    0.5763   13.4822    0.2628 H   0  0  0  0  0  0  0  0  0  0  0  0
    0.1299   10.9032   -2.8107 H   0  0  0  0  0  0  0  0  0  0  0  0
    3.1320   10.7671   -2.1269 H   0  0  0  0  0  0  0  0  0  0  0  0
    2.2635    9.8306   -3.4226 H   0  0  0  0  0  0  0  0  0  0  0  0
    3.5330   11.7441   -4.3422 H   0  0  0  0  0  0  0  0  0  0  0  0
    1.7510   11.8860   -4.6074 H   0  0  0  0  0  0  0  0  0  0  0  0
    2.6044   14.0298   -3.9451 H   0  0  0  0  0  0  0  0  0  0  0  0
    3.8600   12.4340   -1.9580 H   0  0  0  0  0  0  0  0  0  0  0  0
   -0.8507   13.9217   -2.7594 H   0  0  0  0  0  0  0  0  0  0  0  0
    0.2781   14.6252   -3.9667 H   0  0  0  0  0  0  0  0  0  0  0  0
   -0.0506   12.8593   -3.9667 H   0  0  0  0  0  0  0  0  0  0  0  0
    1.4126   14.6772   -0.5070 H   0  0  0  0  0  0  0  0  0  0  0  0
    2.4074   15.3143   -1.8602 H   0  0  0  0  0  0  0  0  0  0  0  0
    0.6280   15.5603   -1.8602 H   0  0  0  0  0  0  0  0  0  0  0  0
    1.8174    9.2976    0.6664 H   0  0  0  0  0  0  0  0  0  0  0  0
    2.1946    8.2123   -0.7144 H   0  0  0  0  0  0  0  0  0  0  0  0
    2.7918    9.9065   -0.7144 H   0  0  0  0  0  0  0  0  0  0  0  0
    0.7066    8.5336   -2.9733 H   0  0  0  0  0  0  0  0  0  0  0  0
    0.3938    7.5960   -1.4055 H   0  0  0  0  0  0  0  0  0  0  0  0
   -1.5999    9.1988   -3.0301 H   0  0  0  0  0  0  0  0  0  0  0  0
   -1.5500    7.4144   -2.7465 H   0  0  0  0  0  0  0  0  0  0  0  0
   -1.9132    7.7185    0.9624 H   0  0  0  0  0  0  0  0  0  0  0  0
   -2.5103    6.5534   -0.2674 H   0  0  0  0  0  0  0  0  0  0  0  0
   -0.7852    7.0539   -0.2674 H   0  0  0  0  0  0  0  0  0  0  0  0
  1  2  1  0
  2  3  1  0
  3  4  1  0
  4  5  1  0
  5  6  1  0
  6  7  1  0
  7  8  1  0
  7  9  1  0
  2 10  1  0
 10 11  1  0
 11 12  1  0
 12 13  1  0
 13 14  1  6
 13 15  1  0
 15 16  1  0
 16 17  1  0
 17 18  2  0
 18 19  1  0
 19 20  1  0
 20 21  1  0
 21 22  1  0
 22 23  1  0
 22 24  1  0
 24 25  1  0
 24 26  1  0
 19 27  1  0
 27 28  1  1
 27 29  1  0
 29 30  1  0
 30 31  1  0
 31 32  1  1
  7  5  1  0
 31 10  1  0
 31 13  1  0
 27 15  1  0
 24 18  1  0
  1 33  1  0
  1 34  1  0
  1 35  1  0
  2 36  1  1
  3 37  1  0
  3 38  1  0
  4 39  1  0
  4 40  1  0
  5 41  1  6
  8 42  1  0
  8 43  1  0
  8 44  1  0
  9 45  1  0
  9 46  1  0
  9 47  1  0
 10 48  1  6
 11 49  1  0
 11 50  1  0
 12 51  1  0
 12 52  1  0
 14 53  1  0
 14 54  1  0
 14 55  1  0
 15 56  1  1
 16 57  1  0
 16 58  1  0
 17 59  1  0
 19 60  1  6
 20 61  1  0
 20 62  1  0
 21 63  1  0
 21 64  1  0
 22 65  1  6
 23 66  1  0
 25 67  1  0
 25 68  1  0
 25 69  1  0
 26 70  1  0
 26 71  1  0
 26 72  1  0
 28 73  1  0
 28 74  1  0
 28 75  1  0
 29 76  1  0
 29 77  1  0
 30 78  1  0
 30 79  1  0
 32 80  1  0
 32 81  1  0
 32 82  1  0
M  END
>  <meeko>  (17) 
{"is_sidechain": [false], "intermolecular_energy": 2.731, "internal_energy": -0.839}

$$$$
EPH_relaxed_0001_pdb2pqr_Repair_104_r2_0001_out
     RDKit          3D

 82 86  0  0  0  0  0  0  0  0999 V2000
    0.9460   14.9600   -2.6830 C   0  0  0  0  0  0  0  0  0  0  0  0
    1.2050   14.2720   -4.0260 C   0  0  2  0  0  0  0  0  0  0  0  0
    0.4800   14.9770   -5.1900 C   0  0  0  0  0  0  0  0  0  0  0  0
    1.0310   14.6110   -6.5700 C   0  0  0  0  0  0  0  0  0  0  0  0
    0.7950   15.7040   -7.5690 C   0  0  2  0  0  0  0  0  0  0  0  0
    0.4170   15.2500   -8.8750 O   0  0  0  0  0  0  0  0  0  0  0  0
    1.6780   15.9330   -8.7820 C   0  0  0  0  0  0  0  0  0  0  0  0
    2.8640   15.0630   -9.0600 C   0  0  0  0  0  0  0  0  0  0  0  0
    1.6790   17.2870   -9.4200 C   0  0  0  0  0  0  0  0  0  0  0  0
    0.7750   12.8120   -3.9530 C   0  0  1  0  0  0  0  0  0  0  0  0
    1.9230   11.8310   -4.3120 C   0  0  0  0  0  0  0  0  0  0  0  0
    1.7350   10.5770   -3.4210 C   0  0  0  0  0  0  0  0  0  0  0  0
    0.3150   10.7290   -2.8270 C   0  0  1  0  0  0  0  0  0  0  0  0
   -0.6460   10.2300   -3.9510 C   0  0  0  0  0  0  0  0  0  0  0  0
    0.0510    9.9950   -1.4720 C   0  0  2  0  0  0  0  0  0  0  0  0
    0.1770    8.4620   -1.5250 C   0  0  0  0  0  0  0  0  0  0  0  0
   -1.0830    7.7290   -1.8470 C   0  0  0  0  0  0  0  0  0  0  0  0
   -2.3230    8.2490   -1.8030 C   0  0  0  0  0  0  0  0  0  0  0  0
   -2.5600    9.6810   -1.3060 C   0  0  1  0  0  0  0  0  0  0  0  0
   -3.7470    9.6930   -0.3070 C   0  0  0  0  0  0  0  0  0  0  0  0
   -5.0080    9.0620   -0.8900 C   0  0  0  0  0  0  0  0  0  0  0  0
   -4.7480    7.6200   -1.3190 C   0  0  2  0  0  0  0  0  0  0  0  0
   -4.4870    6.8320   -0.1540 O   0  0  0  0  0  0  0  0  0  0  0  0
   -3.5660    7.4830   -2.3190 C   0  0  0  0  0  0  0  0  0  0  0  0
   -3.9710    8.0800   -3.6900 C   0  0  0  0  0  0  0  0  0  0  0  0
   -3.3190    5.9690   -2.5610 C   0  0  0  0  0  0  0  0  0  0  0  0
   -1.2820   10.4400   -0.7430 C   0  0  1  0  0  0  0  0  0  0  0  0
   -1.0920   10.1130    0.7700 C   0  0  0  0  0  0  0  0  0  0  0  0
   -1.5240   11.9930   -0.8350 C   0  0  0  0  0  0  0  0  0  0  0  0
   -1.1310   12.6810   -2.1560 C   0  0  0  0  0  0  0  0  0  0  0  0
    0.2860   12.2820   -2.5820 C   0  0  2  0  0  0  0  0  0  0  0  0
    1.2770   12.7910   -1.4810 C   0  0  0  0  0  0  0  0  0  0  0  0
    1.2045   14.2734   -1.8634 H   0  0  0  0  0  0  0  0  0  0  0  0
    1.5643   15.8669   -2.6103 H   0  0  0  0  0  0  0  0  0  0  0  0
   -0.1168   15.2340   -2.6103 H   0  0  0  0  0  0  0  0  0  0  0  0
    2.2851   14.3324   -4.2255 H   0  0  0  0  0  0  0  0  0  0  0  0
   -0.5837   14.6989   -5.1559 H   0  0  0  0  0  0  0  0  0  0  0  0
    0.6358   16.0579   -5.0581 H   0  0  0  0  0  0  0  0  0  0  0  0
    2.1131   14.4324   -6.4859 H   0  0  0  0  0  0  0  0  0  0  0  0
    0.5086   13.7083   -6.9195 H   0  0  0  0  0  0  0  0  0  0  0  0
    0.4355   16.3805   -6.7796 H   0  0  0  0  0  0  0  0  0  0  0  0
    3.3098   14.7360   -8.1090 H   0  0  0  0  0  0  0  0  0  0  0  0
    2.5456   14.1827   -9.6376 H   0  0  0  0  0  0  0  0  0  0  0  0
    3.6081   15.6310   -9.6376 H   0  0  0  0  0  0  0  0  0  0  0  0
    1.6796   18.0607   -8.6381 H   0  0  0  0  0  0  0  0  0  0  0  0
    2.5772   17.3970  -10.0454 H   0  0  0  0  0  0  0  0  0  0  0  0
    0.7809   17.3983  -10.0454 H   0  0  0  0  0  0  0  0  0  0  0  0
   -0.0597   12.8309   -4.6692 H   0  0  0  0  0  0  0  0  0  0  0  0
    1.8650   11.5527   -5.3746 H   0  0  0  0  0  0  0  0  0  0  0  0
    2.9060   12.2937   -4.1401 H   0  0  0  0  0  0  0  0  0  0  0  0
    1.8080    9.6589   -4.0225 H   0  0  0  0  0  0  0  0  0  0  0  0
    2.5071   10.5000   -2.6413 H   0  0  0  0  0  0  0  0  0  0  0  0
   -1.5346    9.7686   -3.4955 H   0  0  0  0  0  0  0  0  0  0  0  0
   -0.9542   11.0820   -4.5748 H   0  0  0  0  0  0  0  0  0  0  0  0
   -0.1265    9.4878   -4.5748 H   0  0  0  0  0  0  0  0  0  0  0  0
    0.8879   10.3425   -0.8484 H   0  0  0  0  0  0  0  0  0  0  0  0
    0.9231    8.2087   -2.2926 H   0  0  0  0  0  0  0  0  0  0  0  0
    0.4626    8.1451   -0.5111 H   0  0  0  0  0  0  0  0  0  0  0  0
   -0.9897    6.6744   -2.1455 H   0  0  0  0  0  0  0  0  0  0  0  0
   -2.8157   10.2732   -2.1970 H   0  0  0  0  0  0  0  0  0  0  0  0
   -3.4559    9.1322    0.5934 H   0  0  0  0  0  0  0  0  0  0  0  0
   -3.9763   10.7431   -0.0731 H   0  0  0  0  0  0  0  0  0  0  0  0
   -5.8016    9.0735   -0.1283 H   0  0  0  0  0  0  0  0  0  0  0  0
   -5.3145    9.6414   -1.7734 H   0  0  0  0  0  0  0  0  0  0  0  0
   -5.6466    7.2647   -1.8447 H   0  0  0  0  0  0  0  0  0  0  0  0
   -5.1100    6.0860   -0.1580 H   0  0  0  0  0  0  0  0  0  0  0  0
   -4.5821    8.9808   -3.5315 H   0  0  0  0  0  0  0  0  0  0  0  0
   -3.0660    8.3458   -4.2560 H   0  0  0  0  0  0  0  0  0  0  0  0
   -4.5525    7.3373   -4.2560 H   0  0  0  0  0  0  0  0  0  0  0  0
   -3.2347    5.4520   -1.5937 H   0  0  0  0  0  0  0  0  0  0  0  0
   -4.1601    5.5467   -3.1303 H   0  0  0  0  0  0  0  0  0  0  0  0
   -2.3873    5.8359   -3.1303 H   0  0  0  0  0  0  0  0  0  0  0  0
   -1.5528   10.9061    1.3772 H   0  0  0  0  0  0  0  0  0  0  0  0
   -1.5712    9.1499    1.0000 H   0  0  0  0  0  0  0  0  0  0  0  0
   -0.0180   10.0524    1.0000 H   0  0  0  0  0  0  0  0  0  0  0  0
   -2.5971   12.1726   -0.6729 H   0  0  0  0  0  0  0  0  0  0  0  0
   -0.8624   12.4326   -0.0741 H   0  0  0  0  0  0  0  0  0  0  0  0
   -1.8404   12.3827   -2.9420 H   0  0  0  0  0  0  0  0  0  0  0  0
   -1.1584   13.7703   -2.0057 H   0  0  0  0  0  0  0  0  0  0  0  0
    0.8605   12.5771   -0.4856 H   0  0  0  0  0  0  0  0  0  0  0  0
    2.2436   12.2778   -1.5921 H   0  0  0  0  0  0  0  0  0  0  0  0
    1.4229   13.8756   -1.5921 H   0  0  0  0  0  0  0  0  0  0  0  0
  1  2  1  0
  2  3  1  0
  3  4  1  0
  4  5  1  0
  5  6  1  0
  6  7  1  0
  7  8  1  0
  7  9  1  0
  2 10  1  0
 10 11  1  0
 11 12  1  0
 12 13  1  0
 13 14  1  6
 13 15  1  0
 15 16  1  0
 16 17  1  0
 17 18  2  0
 18 19  1  0
 19 20  1  0
 20 21  1  0
 21 22  1  0
 22 23  1  0
 22 24  1  0
 24 25  1  0
 24 26  1  0
 19 27  1  0
 27 28  1  1
 27 29  1  0
 29 30  1  0
 30 31  1  0
 31 32  1  1
  7  5  1  0
 31 10  1  0
 31 13  1  0
 27 15  1  0
 24 18  1  0
  1 33  1  0
  1 34  1  0
  1 35  1  0
  2 36  1  6
  3 37  1  0
  3 38  1  0
  4 39  1  0
  4 40  1  0
  5 41  1  1
  8 42  1  0
  8 43  1  0
  8 44  1  0
  9 45  1  0
  9 46  1  0
  9 47  1  0
 10 48  1  6
 11 49  1  0
 11 50  1  0
 12 51  1  0
 12 52  1  0
 14 53  1  0
 14 54  1  0
 14 55  1  0
 15 56  1  1
 16 57  1  0
 16 58  1  0
 17 59  1  0
 19 60  1  6
 20 61  1  0
 20 62  1  0
 21 63  1  0
 21 64  1  0
 22 65  1  6
 23 66  1  0
 25 67  1  0
 25 68  1  0
 25 69  1  0
 26 70  1  0
 26 71  1  0
 26 72  1  0
 28 73  1  0
 28 74  1  0
 28 75  1  0
 29 76  1  0
 29 77  1  0
 30 78  1  0
 30 79  1  0
 32 80  1  0
 32 81  1  0
 32 82  1  0
M  END
>  <meeko>  (18) 
{"is_sidechain": [false], "intermolecular_energy": 2.731, "internal_energy": -0.839}

$$$$
