EPH_relaxed_0001_pdb2pqr_Repair_235_r2_0001_out
     RDKit          3D

 82 86  0  0  0  0  0  0  0  0999 V2000
   -1.6960    8.5860   -1.8750 C   0  0  0  0  0  0  0  0  0  0  0  0
   -2.0730    9.1170   -0.4890 C   0  0  2  0  0  0  0  0  0  0  0  0
   -3.5640    9.4990   -0.3990 C   0  0  0  0  0  0  0  0  0  0  0  0
   -4.5000    8.2950   -0.2550 C   0  0  0  0  0  0  0  0  0  0  0  0
   -5.1960    7.9780   -1.5440 C   0  0  2  0  0  0  0  0  0  0  0  0
   -6.3670    8.7650   -1.8010 O   0  0  0  0  0  0  0  0  0  0  0  0
   -6.5780    7.3550   -1.6160 C   0  0  0  0  0  0  0  0  0  0  0  0
   -7.3450    7.0120   -0.3780 C   0  0  0  0  0  0  0  0  0  0  0  0
   -6.9740    6.6360   -2.8680 C   0  0  0  0  0  0  0  0  0  0  0  0
   -1.2050   10.3210   -0.1400 C   0  0  1  0  0  0  0  0  0  0  0  0
   -0.1650   10.0060    0.9680 C   0  0  0  0  0  0  0  0  0  0  0  0
    1.1060   10.8300    0.6350 C   0  0  0  0  0  0  0  0  0  0  0  0
    0.6470   11.8340   -0.4490 C   0  0  1  0  0  0  0  0  0  0  0  0
   -0.0470   12.9870    0.3410 C   0  0  0  0  0  0  0  0  0  0  0  0
    1.7600   12.3760   -1.4030 C   0  0  2  0  0  0  0  0  0  0  0  0
    2.8730   13.1850   -0.7150 C   0  0  0  0  0  0  0  0  0  0  0  0
    2.6300   14.6550   -0.6220 C   0  0  0  0  0  0  0  0  0  0  0  0
    1.7030   15.3390   -1.3180 C   0  0  0  0  0  0  0  0  0  0  0  0
    0.8450   14.6440   -2.3830 C   0  0  1  0  0  0  0  0  0  0  0  0
    0.8090   15.5130   -3.6670 C   0  0  0  0  0  0  0  0  0  0  0  0
    0.3540   16.9440   -3.3930 C   0  0  0  0  0  0  0  0  0  0  0  0
    1.2660   17.6200   -2.3730 C   0  0  2  0  0  0  0  0  0  0  0  0
    2.5630   17.7870   -2.9540 O   0  0  0  0  0  0  0  0  0  0  0  0
    1.3880   16.8300   -1.0410 C   0  0  0  0  0  0  0  0  0  0  0  0
    0.0490   16.9080   -0.2650 C   0  0  0  0  0  0  0  0  0  0  0  0
    2.4440   17.5460   -0.1560 C   0  0  0  0  0  0  0  0  0  0  0  0
    1.2080   13.1260   -2.6830 C   0  0  1  0  0  0  0  0  0  0  0  0
    2.3300   13.0510   -3.7620 C   0  0  0  0  0  0  0  0  0  0  0  0
   -0.0510   12.4090   -3.3000 C   0  0  0  0  0  0  0  0  0  0  0  0
   -1.0530   11.7890   -2.3070 C   0  0  0  0  0  0  0  0  0  0  0  0
   -0.3330   10.9210   -1.2710 C   0  0  2  0  0  0  0  0  0  0  0  0
    0.3560    9.7390   -2.0340 C   0  0  0  0  0  0  0  0  0  0  0  0
   -1.0623    7.6935   -1.7658 H   0  0  0  0  0  0  0  0  0  0  0  0
   -2.6098    8.3216   -2.4274 H   0  0  0  0  0  0  0  0  0  0  0  0
   -1.1451    9.3615   -2.4274 H   0  0  0  0  0  0  0  0  0  0  0  0
   -1.8954    8.3079    0.2348 H   0  0  0  0  0  0  0  0  0  0  0  0
   -3.7028   10.1533    0.4743 H   0  0  0  0  0  0  0  0  0  0  0  0
   -3.8256    9.9987   -1.3434 H   0  0  0  0  0  0  0  0  0  0  0  0
   -3.9105    7.4201    0.0566 H   0  0  0  0  0  0  0  0  0  0  0  0
   -5.2645    8.5423    0.4962 H   0  0  0  0  0  0  0  0  0  0  0  0
   -4.2416    7.7136   -2.0227 H   0  0  0  0  0  0  0  0  0  0  0  0
   -6.7496    7.2783    0.5078 H   0  0  0  0  0  0  0  0  0  0  0  0
   -8.2913    7.5727   -0.3658 H   0  0  0  0  0  0  0  0  0  0  0  0
   -7.5580    5.9329   -0.3658 H   0  0  0  0  0  0  0  0  0  0  0  0
   -7.4894    5.7002   -2.6060 H   0  0  0  0  0  0  0  0  0  0  0  0
   -7.6485    7.2730   -3.4590 H   0  0  0  0  0  0  0  0  0  0  0  0
   -6.0751    6.4065   -3.4590 H   0  0  0  0  0  0  0  0  0  0  0  0
   -1.9892   11.0360    0.1495 H   0  0  0  0  0  0  0  0  0  0  0  0
   -0.5594   10.2989    1.9522 H   0  0  0  0  0  0  0  0  0  0  0  0
    0.0600    8.9299    1.0045 H   0  0  0  0  0  0  0  0  0  0  0  0
    1.4694   11.3610    1.5272 H   0  0  0  0  0  0  0  0  0  0  0  0
    1.9364   10.1956    0.2914 H   0  0  0  0  0  0  0  0  0  0  0  0
    0.0607   12.8081    1.4210 H   0  0  0  0  0  0  0  0  0  0  0  0
    0.4241   13.9460    0.0794 H   0  0  0  0  0  0  0  0  0  0  0  0
   -1.1150   13.0197    0.0794 H   0  0  0  0  0  0  0  0  0  0  0  0
    2.2383   11.4504   -1.7560 H   0  0  0  0  0  0  0  0  0  0  0  0
    2.9941   12.7955    0.3066 H   0  0  0  0  0  0  0  0  0  0  0  0
    3.7685   13.0642   -1.3424 H   0  0  0  0  0  0  0  0  0  0  0  0
    3.2615   15.2271    0.0736 H   0  0  0  0  0  0  0  0  0  0  0  0
   -0.1660   14.5669   -1.9565 H   0  0  0  0  0  0  0  0  0  0  0  0
    1.8189   15.5413   -4.1020 H   0  0  0  0  0  0  0  0  0  0  0  0
    0.0833   15.0584   -4.3575 H   0  0  0  0  0  0  0  0  0  0  0  0
    0.3784   17.5157   -4.3324 H   0  0  0  0  0  0  0  0  0  0  0  0
   -0.6677   16.9160   -2.9865 H   0  0  0  0  0  0  0  0  0  0  0  0
    0.8154   18.5912   -2.1206 H   0  0  0  0  0  0  0  0  0  0  0  0
    2.7000   18.7380   -3.1020 H   0  0  0  0  0  0  0  0  0  0  0  0
    0.2506   16.8963    0.8163 H   0  0  0  0  0  0  0  0  0  0  0  0
   -0.4748   17.8382   -0.5302 H   0  0  0  0  0  0  0  0  0  0  0  0
   -0.5793   16.0449   -0.5302 H   0  0  0  0  0  0  0  0  0  0  0  0
    2.2041   17.3834    0.9051 H   0  0  0  0  0  0  0  0  0  0  0  0
    3.4420   17.1376   -0.3731 H   0  0  0  0  0  0  0  0  0  0  0  0
    2.4340   18.6243   -0.3731 H   0  0  0  0  0  0  0  0  0  0  0  0
    3.3104   12.9855   -3.2675 H   0  0  0  0  0  0  0  0  0  0  0  0
    2.1759   12.1612   -4.3900 H   0  0  0  0  0  0  0  0  0  0  0  0
    2.2957   13.9534   -4.3900 H   0  0  0  0  0  0  0  0  0  0  0  0
   -0.5952   13.1516   -3.9020 H   0  0  0  0  0  0  0  0  0  0  0  0
    0.3522   11.5594   -3.8706 H   0  0  0  0  0  0  0  0  0  0  0  0
   -1.5916   12.5959   -1.7884 H   0  0  0  0  0  0  0  0  0  0  0  0
   -1.7556   11.1552   -2.8678 H   0  0  0  0  0  0  0  0  0  0  0  0
    0.7717    9.0259   -1.3068 H   0  0  0  0  0  0  0  0  0  0  0  0
   -0.3859    9.2282   -2.6655 H   0  0  0  0  0  0  0  0  0  0  0  0
    1.1660   10.1328   -2.6655 H   0  0  0  0  0  0  0  0  0  0  0  0
  1  2  1  0
  2  3  1  0
  3  4  1  0
  4  5  1  0
  5  6  1  0
  6  7  1  0
  7  8  1  0
  7  9  1  0
  2 10  1  0
 10 11  1  0
 11 12  1  0
 12 13  1  0
 13 14  1  1
 13 15  1  0
 15 16  1  0
 16 17  1  0
 17 18  2  0
 18 19  1  0
 19 20  1  0
 20 21  1  0
 21 22  1  0
 22 23  1  0
 22 24  1  0
 24 25  1  0
 24 26  1  0
 19 27  1  0
 27 28  1  6
 27 29  1  0
 29 30  1  0
 30 31  1  0
 31 32  1  6
  7  5  1  0
 31 10  1  0
 31 13  1  0
 27 15  1  0
 24 18  1  0
  1 33  1  0
  1 34  1  0
  1 35  1  0
  2 36  1  1
  3 37  1  0
  3 38  1  0
  4 39  1  0
  4 40  1  0
  5 41  1  6
  8 42  1  0
  8 43  1  0
  8 44  1  0
  9 45  1  0
  9 46  1  0
  9 47  1  0
 10 48  1  1
 11 49  1  0
 11 50  1  0
 12 51  1  0
 12 52  1  0
 14 53  1  0
 14 54  1  0
 14 55  1  0
 15 56  1  6
 16 57  1  0
 16 58  1  0
 17 59  1  0
 19 60  1  1
 20 61  1  0
 20 62  1  0
 21 63  1  0
 21 64  1  0
 22 65  1  1
 23 66  1  0
 25 67  1  0
 25 68  1  0
 25 69  1  0
 26 70  1  0
 26 71  1  0
 26 72  1  0
 28 73  1  0
 28 74  1  0
 28 75  1  0
 29 76  1  0
 29 77  1  0
 30 78  1  0
 30 79  1  0
 32 80  1  0
 32 81  1  0
 32 82  1  0
M  END
>  <meeko>  (1) 
{"is_sidechain": [false], "intermolecular_energy": 2.731, "internal_energy": -0.839}

$$$$
EPH_relaxed_0001_pdb2pqr_Repair_235_r2_0001_out
     RDKit          3D

 82 86  0  0  0  0  0  0  0  0999 V2000
    4.2490   17.4790   -0.6000 C   0  0  0  0  0  0  0  0  0  0  0  0
    2.8910   18.0700   -0.2090 C   0  0  2  0  0  0  0  0  0  0  0  0
    2.9380   18.7770    1.1600 C   0  0  0  0  0  0  0  0  0  0  0  0
    4.2470   18.5570    1.9220 C   0  0  0  0  0  0  0  0  0  0  0  0
    4.2230   19.2160    3.2680 C   0  0  2  0  0  0  0  0  0  0  0  0
    5.2510   20.1930    3.4750 O   0  0  0  0  0  0  0  0  0  0  0  0
    5.3080   19.0270    4.3120 C   0  0  0  0  0  0  0  0  0  0  0  0
    6.4930   18.1510    4.0550 C   0  0  0  0  0  0  0  0  0  0  0  0
    4.9750   19.2970    5.7460 C   0  0  0  0  0  0  0  0  0  0  0  0
    1.8320   16.9740   -0.1940 C   0  0  1  0  0  0  0  0  0  0  0  0
    0.4080   17.5150   -0.4880 C   0  0  0  0  0  0  0  0  0  0  0  0
   -0.3320   16.4140   -1.2910 C   0  0  0  0  0  0  0  0  0  0  0  0
    0.5610   15.1600   -1.1470 C   0  0  1  0  0  0  0  0  0  0  0  0
    0.1950   14.5640    0.2480 C   0  0  0  0  0  0  0  0  0  0  0  0
    0.4370   14.0910   -2.2810 C   0  0  2  0  0  0  0  0  0  0  0  0
   -0.9510   13.4420   -2.4180 C   0  0  0  0  0  0  0  0  0  0  0  0
   -1.1580   12.2020   -1.6120 C   0  0  0  0  0  0  0  0  0  0  0  0
   -0.1840   11.4730   -1.0350 C   0  0  0  0  0  0  0  0  0  0  0  0
    1.2940   11.8230   -1.2480 C   0  0  1  0  0  0  0  0  0  0  0  0
    2.0890   10.5340   -1.5810 C   0  0  0  0  0  0  0  0  0  0  0  0
    1.8940    9.4400   -0.5350 C   0  0  0  0  0  0  0  0  0  0  0  0
    0.4170    9.0780   -0.3940 C   0  0  2  0  0  0  0  0  0  0  0  0
   -0.0250    8.4640   -1.6080 O   0  0  0  0  0  0  0  0  0  0  0  0
   -0.4850   10.3010   -0.0680 C   0  0  0  0  0  0  0  0  0  0  0  0
   -0.2080   10.7810    1.3780 C   0  0  0  0  0  0  0  0  0  0  0  0
   -1.9620    9.8250   -0.0920 C   0  0  0  0  0  0  0  0  0  0  0  0
    1.5860   13.0020   -2.2740 C   0  0  1  0  0  0  0  0  0  0  0  0
    1.6730   12.4360   -3.7240 C   0  0  0  0  0  0  0  0  0  0  0  0
    2.9970   13.6240   -1.9540 C   0  0  0  0  0  0  0  0  0  0  0  0
    3.0370   14.7580   -0.9120 C   0  0  0  0  0  0  0  0  0  0  0  0
    1.9830   15.8250   -1.2230 C   0  0  2  0  0  0  0  0  0  0  0  0
    2.3380   16.4580   -2.6120 C   0  0  0  0  0  0  0  0  0  0  0  0
    4.8168   17.2319    0.3091 H   0  0  0  0  0  0  0  0  0  0  0  0
    4.0943   16.5668   -1.1950 H   0  0  0  0  0  0  0  0  0  0  0  0
    4.8111   18.2139   -1.1950 H   0  0  0  0  0  0  0  0  0  0  0  0
    2.6304   18.8278   -0.9626 H   0  0  0  0  0  0  0  0  0  0  0  0
    2.8082   19.8572    0.9976 H   0  0  0  0  0  0  0  0  0  0  0  0
    2.1331   18.3447    1.7726 H   0  0  0  0  0  0  0  0  0  0  0  0
    4.4036   17.4766    2.0569 H   0  0  0  0  0  0  0  0  0  0  0  0
    5.0638   19.0039    1.3362 H   0  0  0  0  0  0  0  0  0  0  0  0
    3.1277   19.1272    3.3176 H   0  0  0  0  0  0  0  0  0  0  0  0
    6.9267   17.8304    5.0137 H   0  0  0  0  0  0  0  0  0  0  0  0
    6.1779   17.2670    3.4812 H   0  0  0  0  0  0  0  0  0  0  0  0
    7.2457   18.7115    3.4812 H   0  0  0  0  0  0  0  0  0  0  0  0
    5.6652   18.7373    6.3944 H   0  0  0  0  0  0  0  0  0  0  0  0
    5.0732   20.3737    5.9488 H   0  0  0  0  0  0  0  0  0  0  0  0
    3.9419   18.9784    5.9488 H   0  0  0  0  0  0  0  0  0  0  0  0
    1.9803   16.5885    0.8255 H   0  0  0  0  0  0  0  0  0  0  0  0
   -0.1222   17.7176    0.4542 H   0  0  0  0  0  0  0  0  0  0  0  0
    0.4525   18.4558   -1.0563 H   0  0  0  0  0  0  0  0  0  0  0  0
   -1.3308   16.2301   -0.8685 H   0  0  0  0  0  0  0  0  0  0  0  0
   -0.4871   16.6974   -2.3425 H   0  0  0  0  0  0  0  0  0  0  0  0
    0.5942   15.2140    1.0406 H   0  0  0  0  0  0  0  0  0  0  0  0
   -0.8989   14.4989    0.3434 H   0  0  0  0  0  0  0  0  0  0  0  0
    0.6318   13.5589    0.3434 H   0  0  0  0  0  0  0  0  0  0  0  0
    0.5748   14.6952   -3.1898 H   0  0  0  0  0  0  0  0  0  0  0  0
   -1.7038   14.1804   -2.1050 H   0  0  0  0  0  0  0  0  0  0  0  0
   -1.0424   13.1389   -3.4714 H   0  0  0  0  0  0  0  0  0  0  0  0
   -2.1932   11.8550   -1.4784 H   0  0  0  0  0  0  0  0  0  0  0  0
    1.6473   12.2432   -0.2948 H   0  0  0  0  0  0  0  0  0  0  0  0
    1.7515   10.1536   -2.5564 H   0  0  0  0  0  0  0  0  0  0  0  0
    3.1575   10.7950   -1.5962 H   0  0  0  0  0  0  0  0  0  0  0  0
    2.4565    8.5454   -0.8403 H   0  0  0  0  0  0  0  0  0  0  0  0
    2.2590    9.8111    0.4340 H   0  0  0  0  0  0  0  0  0  0  0  0
    0.3266    8.3863    0.4565 H   0  0  0  0  0  0  0  0  0  0  0  0
   -0.9960    8.4190   -1.5790 H   0  0  0  0  0  0  0  0  0  0  0  0
   -0.6264   10.0559    2.0915 H   0  0  0  0  0  0  0  0  0  0  0  0
    0.8775   10.8651    1.5348 H   0  0  0  0  0  0  0  0  0  0  0  0
   -0.6783   11.7630    1.5348 H   0  0  0  0  0  0  0  0  0  0  0  0
   -2.3262    9.7076    0.9393 H   0  0  0  0  0  0  0  0  0  0  0  0
   -2.5788   10.5699   -0.6162 H   0  0  0  0  0  0  0  0  0  0  0  0
   -2.0278    8.8602   -0.6162 H   0  0  0  0  0  0  0  0  0  0  0  0
    1.8400   11.3495   -3.6841 H   0  0  0  0  0  0  0  0  0  0  0  0
    0.7325   12.6431   -4.2555 H   0  0  0  0  0  0  0  0  0  0  0  0
    2.5079   12.9160   -4.2555 H   0  0  0  0  0  0  0  0  0  0  0  0
    3.6428   12.8125   -1.5874 H   0  0  0  0  0  0  0  0  0  0  0  0
    3.3273   14.0870   -2.8956 H   0  0  0  0  0  0  0  0  0  0  0  0
    2.8402   14.3376    0.0853 H   0  0  0  0  0  0  0  0  0  0  0  0
    4.0313   15.2275   -0.9423 H   0  0  0  0  0  0  0  0  0  0  0  0
    2.8707   17.4078   -2.4567 H   0  0  0  0  0  0  0  0  0  0  0  0
    2.9796   15.7659   -3.1771 H   0  0  0  0  0  0  0  0  0  0  0  0
    1.4129   16.6446   -3.1771 H   0  0  0  0  0  0  0  0  0  0  0  0
  1  2  1  0
  2  3  1  0
  3  4  1  0
  4  5  1  0
  5  6  1  0
  6  7  1  0
  7  8  1  0
  7  9  1  0
  2 10  1  0
 10 11  1  0
 11 12  1  0
 12 13  1  0
 13 14  1  1
 13 15  1  0
 15 16  1  0
 16 17  1  0
 17 18  2  0
 18 19  1  0
 19 20  1  0
 20 21  1  0
 21 22  1  0
 22 23  1  0
 22 24  1  0
 24 25  1  0
 24 26  1  0
 19 27  1  0
 27 28  1  6
 27 29  1  0
 29 30  1  0
 30 31  1  0
 31 32  1  6
  7  5  1  0
 31 10  1  0
 31 13  1  0
 27 15  1  0
 24 18  1  0
  1 33  1  0
  1 34  1  0
  1 35  1  0
  2 36  1  6
  3 37  1  0
  3 38  1  0
  4 39  1  0
  4 40  1  0
  5 41  1  1
  8 42  1  0
  8 43  1  0
  8 44  1  0
  9 45  1  0
  9 46  1  0
  9 47  1  0
 10 48  1  1
 11 49  1  0
 11 50  1  0
 12 51  1  0
 12 52  1  0
 14 53  1  0
 14 54  1  0
 14 55  1  0
 15 56  1  6
 16 57  1  0
 16 58  1  0
 17 59  1  0
 19 60  1  1
 20 61  1  0
 20 62  1  0
 21 63  1  0
 21 64  1  0
 22 65  1  1
 23 66  1  0
 25 67  1  0
 25 68  1  0
 25 69  1  0
 26 70  1  0
 26 71  1  0
 26 72  1  0
 28 73  1  0
 28 74  1  0
 28 75  1  0
 29 76  1  0
 29 77  1  0
 30 78  1  0
 30 79  1  0
 32 80  1  0
 32 81  1  0
 32 82  1  0
M  END
>  <meeko>  (2) 
{"is_sidechain": [false], "intermolecular_energy": 2.731, "internal_energy": -0.839}

$$$$
EPH_relaxed_0001_pdb2pqr_Repair_235_r2_0001_out
     RDKit          3D

 82 86  0  0  0  0  0  0  0  0999 V2000
    0.4080   18.4280   -0.0720 C   0  0  0  0  0  0  0  0  0  0  0  0
    1.4910   17.3640   -0.2670 C   0  0  2  0  0  0  0  0  0  0  0  0
    2.7170   17.9140   -1.0240 C   0  0  0  0  0  0  0  0  0  0  0  0
    3.9480   18.1170   -0.1370 C   0  0  0  0  0  0  0  0  0  0  0  0
    3.5720   18.5940    1.2330 C   0  0  2  0  0  0  0  0  0  0  0  0
    3.7990   19.9910    1.4630 O   0  0  0  0  0  0  0  0  0  0  0  0
    4.5820   19.0830    2.2550 C   0  0  0  0  0  0  0  0  0  0  0  0
    6.0460   19.1170    1.9500 C   0  0  0  0  0  0  0  0  0  0  0  0
    4.2010   19.0630    3.7030 C   0  0  0  0  0  0  0  0  0  0  0  0
    0.9140   16.1660   -1.0120 C   0  0  1  0  0  0  0  0  0  0  0  0
    0.7810   16.4170   -2.5370 C   0  0  0  0  0  0  0  0  0  0  0  0
    1.0680   15.0660   -3.2400 C   0  0  0  0  0  0  0  0  0  0  0  0
    1.0270   14.0180   -2.1030 C   0  0  1  0  0  0  0  0  0  0  0  0
   -0.4900   13.7250   -1.8810 C   0  0  0  0  0  0  0  0  0  0  0  0
    1.8390   12.7040   -2.3450 C   0  0  2  0  0  0  0  0  0  0  0  0
    1.3660   11.8540   -3.5360 C   0  0  0  0  0  0  0  0  0  0  0  0
    0.3340   10.8240   -3.2140 C   0  0  0  0  0  0  0  0  0  0  0  0
    0.0150   10.3960   -1.9790 C   0  0  0  0  0  0  0  0  0  0  0  0
    0.7890   10.8890   -0.7500 C   0  0  1  0  0  0  0  0  0  0  0  0
    1.1470    9.6810    0.1560 C   0  0  0  0  0  0  0  0  0  0  0  0
   -0.0760    8.8500    0.5320 C   0  0  0  0  0  0  0  0  0  0  0  0
   -0.7860    8.3300   -0.7150 C   0  0  2  0  0  0  0  0  0  0  0  0
    0.0680    7.3890   -1.3740 O   0  0  0  0  0  0  0  0  0  0  0  0
   -1.1860    9.4570   -1.7080 C   0  0  0  0  0  0  0  0  0  0  0  0
   -2.3360   10.3000   -1.1030 C   0  0  0  0  0  0  0  0  0  0  0  0
   -1.7650    8.7860   -2.9840 C   0  0  0  0  0  0  0  0  0  0  0  0
    2.0420   11.8200   -1.0480 C   0  0  1  0  0  0  0  0  0  0  0  0
    3.3080   10.9450   -1.3000 C   0  0  0  0  0  0  0  0  0  0  0  0
    2.3510   12.6900    0.2270 C   0  0  0  0  0  0  0  0  0  0  0  0
    1.6060   14.0330    0.3490 C   0  0  0  0  0  0  0  0  0  0  0  0
    1.7110   14.8390   -0.9500 C   0  0  2  0  0  0  0  0  0  0  0  0
    3.2250   15.1670   -1.1870 C   0  0  0  0  0  0  0  0  0  0  0  0
    0.2428   18.5903    1.0034 H   0  0  0  0  0  0  0  0  0  0  0  0
    0.7309   19.3699   -0.5396 H   0  0  0  0  0  0  0  0  0  0  0  0
   -0.5280   18.0885   -0.5396 H   0  0  0  0  0  0  0  0  0  0  0  0
    1.8321   17.0527    0.7314 H   0  0  0  0  0  0  0  0  0  0  0  0
    2.9782   17.2051   -1.8235 H   0  0  0  0  0  0  0  0  0  0  0  0
    2.4361   18.9030   -1.4151 H   0  0  0  0  0  0  0  0  0  0  0  0
    4.4839   17.1606   -0.0468 H   0  0  0  0  0  0  0  0  0  0  0  0
    4.5843   18.8832   -0.6040 H   0  0  0  0  0  0  0  0  0  0  0  0
    2.7598   17.8547    1.2938 H   0  0  0  0  0  0  0  0  0  0  0  0
    6.6163   19.1302    2.8905 H   0  0  0  0  0  0  0  0  0  0  0  0
    6.3200   18.2250    1.3676 H   0  0  0  0  0  0  0  0  0  0  0  0
    6.2783   20.0208    1.3676 H   0  0  0  0  0  0  0  0  0  0  0  0
    5.1092   19.1107    4.3218 H   0  0  0  0  0  0  0  0  0  0  0  0
    3.5599   19.9287    3.9254 H   0  0  0  0  0  0  0  0  0  0  0  0
    3.6540   18.1349    3.9254 H   0  0  0  0  0  0  0  0  0  0  0  0
   -0.0400   16.0582   -0.4751 H   0  0  0  0  0  0  0  0  0  0  0  0
   -0.2362   16.7602   -2.7770 H   0  0  0  0  0  0  0  0  0  0  0  0
    1.4845   17.1935   -2.8720 H   0  0  0  0  0  0  0  0  0  0  0  0
    0.2980   14.8499   -3.9952 H   0  0  0  0  0  0  0  0  0  0  0  0
    2.0315   15.0683   -3.7706 H   0  0  0  0  0  0  0  0  0  0  0  0
   -0.7015   13.6841   -0.8023 H   0  0  0  0  0  0  0  0  0  0  0  0
   -1.0891   14.5240   -2.3421 H   0  0  0  0  0  0  0  0  0  0  0  0
   -0.7484   12.7603   -2.3421 H   0  0  0  0  0  0  0  0  0  0  0  0
    2.8300   13.0882   -2.6284 H   0  0  0  0  0  0  0  0  0  0  0  0
    0.9445   12.5328   -4.2920 H   0  0  0  0  0  0  0  0  0  0  0  0
    2.2501   11.3005   -3.8852 H   0  0  0  0  0  0  0  0  0  0  0  0
   -0.2118   10.3772   -4.0581 H   0  0  0  0  0  0  0  0  0  0  0  0
    0.1091   11.5682   -0.2149 H   0  0  0  0  0  0  0  0  0  0  0  0
    1.8598    9.0371   -0.3800 H   0  0  0  0  0  0  0  0  0  0  0  0
    1.5804   10.0776    1.0860 H   0  0  0  0  0  0  0  0  0  0  0  0
    0.2442    7.9958    1.1466 H   0  0  0  0  0  0  0  0  0  0  0  0
   -0.7746    9.4874    1.0939 H   0  0  0  0  0  0  0  0  0  0  0  0
   -1.7221    7.8548   -0.3866 H   0  0  0  0  0  0  0  0  0  0  0  0
   -0.2940    7.2350   -2.2630 H   0  0  0  0  0  0  0  0  0  0  0  0
   -2.2815   10.2601   -0.0051 H   0  0  0  0  0  0  0  0  0  0  0  0
   -2.2406   11.3437   -1.4371 H   0  0  0  0  0  0  0  0  0  0  0  0
   -3.3026    9.8949   -1.4371 H   0  0  0  0  0  0  0  0  0  0  0  0
   -2.4581    7.9828   -2.6935 H   0  0  0  0  0  0  0  0  0  0  0  0
   -2.3034    9.5368   -3.5810 H   0  0  0  0  0  0  0  0  0  0  0  0
   -0.9434    8.3633   -3.5810 H   0  0  0  0  0  0  0  0  0  0  0  0
    3.7435   10.6440   -0.3358 H   0  0  0  0  0  0  0  0  0  0  0  0
    3.0261   10.0481   -1.8710 H   0  0  0  0  0  0  0  0  0  0  0  0
    4.0474   11.5258   -1.8710 H   0  0  0  0  0  0  0  0  0  0  0  0
    2.0966   12.0869    1.1110 H   0  0  0  0  0  0  0  0  0  0  0  0
    3.4146   12.9576    0.1419 H   0  0  0  0  0  0  0  0  0  0  0  0
    0.5455   13.8377    0.5665 H   0  0  0  0  0  0  0  0  0  0  0  0
    2.0649   14.6159    1.1612 H   0  0  0  0  0  0  0  0  0  0  0  0
    3.7325   15.2769   -0.2173 H   0  0  0  0  0  0  0  0  0  0  0  0
    3.6928   14.3494   -1.7550 H   0  0  0  0  0  0  0  0  0  0  0  0
    3.3124   16.1049   -1.7550 H   0  0  0  0  0  0  0  0  0  0  0  0
  1  2  1  0
  2  3  1  0
  3  4  1  0
  4  5  1  0
  5  6  1  0
  6  7  1  0
  7  8  1  0
  7  9  1  0
  2 10  1  0
 10 11  1  0
 11 12  1  0
 12 13  1  0
 13 14  1  1
 13 15  1  0
 15 16  1  0
 16 17  1  0
 17 18  2  0
 18 19  1  0
 19 20  1  0
 20 21  1  0
 21 22  1  0
 22 23  1  0
 22 24  1  0
 24 25  1  0
 24 26  1  0
 19 27  1  0
 27 28  1  6
 27 29  1  0
 29 30  1  0
 30 31  1  0
 31 32  1  6
  7  5  1  0
 31 10  1  0
 31 13  1  0
 27 15  1  0
 24 18  1  0
  1 33  1  0
  1 34  1  0
  1 35  1  0
  2 36  1  1
  3 37  1  0
  3 38  1  0
  4 39  1  0
  4 40  1  0
  5 41  1  1
  8 42  1  0
  8 43  1  0
  8 44  1  0
  9 45  1  0
  9 46  1  0
  9 47  1  0
 10 48  1  1
 11 49  1  0
 11 50  1  0
 12 51  1  0
 12 52  1  0
 14 53  1  0
 14 54  1  0
 14 55  1  0
 15 56  1  6
 16 57  1  0
 16 58  1  0
 17 59  1  0
 19 60  1  1
 20 61  1  0
 20 62  1  0
 21 63  1  0
 21 64  1  0
 22 65  1  1
 23 66  1  0
 25 67  1  0
 25 68  1  0
 25 69  1  0
 26 70  1  0
 26 71  1  0
 26 72  1  0
 28 73  1  0
 28 74  1  0
 28 75  1  0
 29 76  1  0
 29 77  1  0
 30 78  1  0
 30 79  1  0
 32 80  1  0
 32 81  1  0
 32 82  1  0
M  END
>  <meeko>  (3) 
{"is_sidechain": [false], "intermolecular_energy": 2.731, "internal_energy": -0.839}

$$$$
EPH_relaxed_0001_pdb2pqr_Repair_235_r2_0001_out
     RDKit          3D

 82 86  0  0  0  0  0  0  0  0999 V2000
    2.5080   18.0040   -2.7200 C   0  0  0  0  0  0  0  0  0  0  0  0
    1.2270   17.6450   -1.9610 C   0  0  2  0  0  0  0  0  0  0  0  0
    1.4240   17.6950   -0.4330 C   0  0  0  0  0  0  0  0  0  0  0  0
    1.1020   19.0580    0.1850 C   0  0  0  0  0  0  0  0  0  0  0  0
   -0.3400   19.1600    0.5830 C   0  0  2  0  0  0  0  0  0  0  0  0
   -1.2170   18.2660   -0.1140 O   0  0  0  0  0  0  0  0  0  0  0  0
   -1.4290   19.6690   -0.3430 C   0  0  0  0  0  0  0  0  0  0  0  0
   -1.1220   20.1110   -1.7390 C   0  0  0  0  0  0  0  0  0  0  0  0
   -2.6940   20.1940    0.2620 C   0  0  0  0  0  0  0  0  0  0  0  0
    0.7460   16.2610   -2.3800 C   0  0  1  0  0  0  0  0  0  0  0  0
    0.8160   16.0430   -3.9150 C   0  0  0  0  0  0  0  0  0  0  0  0
    1.1840   14.5540   -4.1390 C   0  0  0  0  0  0  0  0  0  0  0  0
    0.9890   13.8910   -2.7550 C   0  0  1  0  0  0  0  0  0  0  0  0
   -0.5460   13.6260   -2.6500 C   0  0  0  0  0  0  0  0  0  0  0  0
    1.8180   12.5930   -2.4870 C   0  0  2  0  0  0  0  0  0  0  0  0
    1.5000   11.4110   -3.4200 C   0  0  0  0  0  0  0  0  0  0  0  0
    0.4290   10.4900   -2.9380 C   0  0  0  0  0  0  0  0  0  0  0  0
   -0.0520   10.4380   -1.6820 C   0  0  0  0  0  0  0  0  0  0  0  0
    0.5580   11.3000   -0.5690 C   0  0  1  0  0  0  0  0  0  0  0  0
    0.7870   10.4290    0.6940 C   0  0  0  0  0  0  0  0  0  0  0  0
   -0.4800    9.7060    1.1440 C   0  0  0  0  0  0  0  0  0  0  0  0
   -1.0230    8.8150    0.0300 C   0  0  2  0  0  0  0  0  0  0  0  0
   -0.0950    7.7510   -0.2030 O   0  0  0  0  0  0  0  0  0  0  0  0
   -1.2830    9.5810   -1.2970 C   0  0  0  0  0  0  0  0  0  0  0  0
   -2.4970   10.5270   -1.1220 C   0  0  0  0  0  0  0  0  0  0  0  0
   -1.6930    8.5430   -2.3760 C   0  0  0  0  0  0  0  0  0  0  0  0
    1.8450   12.1420   -0.9710 C   0  0  1  0  0  0  0  0  0  0  0  0
    3.1270   11.2750   -0.7870 C   0  0  0  0  0  0  0  0  0  0  0  0
    1.9890   13.3620    0.0140 C   0  0  0  0  0  0  0  0  0  0  0  0
    1.2410   14.6550   -0.3670 C   0  0  0  0  0  0  0  0  0  0  0  0
    1.5210   15.0400   -1.8230 C   0  0  2  0  0  0  0  0  0  0  0  0
    3.0540   15.3340   -1.9540 C   0  0  0  0  0  0  0  0  0  0  0  0
    3.3095   18.2286   -2.0009 H   0  0  0  0  0  0  0  0  0  0  0  0
    2.8096   17.1558   -3.3521 H   0  0  0  0  0  0  0  0  0  0  0  0
    2.3249   18.8854   -3.3521 H   0  0  0  0  0  0  0  0  0  0  0  0
    0.4668   18.3968   -2.2198 H   0  0  0  0  0  0  0  0  0  0  0  0
    0.7674   16.9415    0.0266 H   0  0  0  0  0  0  0  0  0  0  0  0
    2.4888   17.4980   -0.2397 H   0  0  0  0  0  0  0  0  0  0  0  0
    1.7291   19.2019    1.0772 H   0  0  0  0  0  0  0  0  0  0  0  0
    1.3052   19.8328   -0.5689 H   0  0  0  0  0  0  0  0  0  0  0  0
   -0.0619   19.4294    1.6126 H   0  0  0  0  0  0  0  0  0  0  0  0
   -0.4947   21.0141   -1.7081 H   0  0  0  0  0  0  0  0  0  0  0  0
   -0.5851   19.3096   -2.2676 H   0  0  0  0  0  0  0  0  0  0  0  0
   -2.0604   20.3343   -2.2676 H   0  0  0  0  0  0  0  0  0  0  0  0
   -2.6167   20.1619    1.3588 H   0  0  0  0  0  0  0  0  0  0  0  0
   -2.8530   21.2324   -0.0642 H   0  0  0  0  0  0  0  0  0  0  0  0
   -3.5416   19.5733   -0.0642 H   0  0  0  0  0  0  0  0  0  0  0  0
   -0.2708   16.2848   -1.9610 H   0  0  0  0  0  0  0  0  0  0  0  0
   -0.1586   16.2655   -4.3740 H   0  0  0  0  0  0  0  0  0  0  0  0
    1.5623   16.7077   -4.3747 H   0  0  0  0  0  0  0  0  0  0  0  0
    0.5176   14.0974   -4.8856 H   0  0  0  0  0  0  0  0  0  0  0  0
    2.2085   14.4304   -4.5200 H   0  0  0  0  0  0  0  0  0  0  0  0
   -0.8378   13.5756   -1.5906 H   0  0  0  0  0  0  0  0  0  0  0  0
   -1.0937   14.4429   -3.1427 H   0  0  0  0  0  0  0  0  0  0  0  0
   -0.7881   12.6728   -3.1427 H   0  0  0  0  0  0  0  0  0  0  0  0
    2.8398   12.9093   -2.7435 H   0  0  0  0  0  0  0  0  0  0  0  0
    1.1853   11.8197   -4.3915 H   0  0  0  0  0  0  0  0  0  0  0  0
    2.4189   10.8087   -3.4729 H   0  0  0  0  0  0  0  0  0  0  0  0
   -0.0042    9.7944   -3.6718 H   0  0  0  0  0  0  0  0  0  0  0  0
   -0.1817   12.0847   -0.3521 H   0  0  0  0  0  0  0  0  0  0  0  0
    1.5601    9.6793    0.4699 H   0  0  0  0  0  0  0  0  0  0  0  0
    1.0969   11.0987    1.5098 H   0  0  0  0  0  0  0  0  0  0  0  0
   -0.2478    9.0845    2.0214 H   0  0  0  0  0  0  0  0  0  0  0  0
   -1.2427   10.4573    1.3966 H   0  0  0  0  0  0  0  0  0  0  0  0
   -1.9969    8.4275    0.3638 H   0  0  0  0  0  0  0  0  0  0  0  0
    0.7330    8.1480   -0.5220 H   0  0  0  0  0  0  0  0  0  0  0  0
   -2.6919   10.6789   -0.0501 H   0  0  0  0  0  0  0  0  0  0  0  0
   -2.2785   11.4954   -1.5958 H   0  0  0  0  0  0  0  0  0  0  0  0
   -3.3826   10.0785   -1.5958 H   0  0  0  0  0  0  0  0  0  0  0  0
   -2.0547    7.6274   -1.8853 H   0  0  0  0  0  0  0  0  0  0  0  0
   -2.4928    8.9630   -3.0037 H   0  0  0  0  0  0  0  0  0  0  0  0
   -0.8221    8.3031   -3.0037 H   0  0  0  0  0  0  0  0  0  0  0  0
    3.3272   11.1396    0.2861 H   0  0  0  0  0  0  0  0  0  0  0  0
    2.9762   10.2927   -1.2586 H   0  0  0  0  0  0  0  0  0  0  0  0
    3.9825   11.7807   -1.2586 H   0  0  0  0  0  0  0  0  0  0  0  0
    1.6178   13.0406    0.9983 H   0  0  0  0  0  0  0  0  0  0  0  0
    3.0559   13.6284   -0.0119 H   0  0  0  0  0  0  0  0  0  0  0  0
    0.1601   14.4971   -0.2378 H   0  0  0  0  0  0  0  0  0  0  0  0
    1.5912   15.4687    0.2851 H   0  0  0  0  0  0  0  0  0  0  0  0
    3.4980   15.4192   -0.9512 H   0  0  0  0  0  0  0  0  0  0  0  0
    3.5394   14.5126   -2.5014 H   0  0  0  0  0  0  0  0  0  0  0  0
    3.2011   16.2767   -2.5014 H   0  0  0  0  0  0  0  0  0  0  0  0
  1  2  1  0
  2  3  1  0
  3  4  1  0
  4  5  1  0
  5  6  1  0
  6  7  1  0
  7  8  1  0
  7  9  1  0
  2 10  1  0
 10 11  1  0
 11 12  1  0
 12 13  1  0
 13 14  1  1
 13 15  1  0
 15 16  1  0
 16 17  1  0
 17 18  2  0
 18 19  1  0
 19 20  1  0
 20 21  1  0
 21 22  1  0
 22 23  1  0
 22 24  1  0
 24 25  1  0
 24 26  1  0
 19 27  1  0
 27 28  1  6
 27 29  1  0
 29 30  1  0
 30 31  1  0
 31 32  1  1
  7  5  1  0
 31 10  1  0
 31 13  1  0
 27 15  1  0
 24 18  1  0
  1 33  1  0
  1 34  1  0
  1 35  1  0
  2 36  1  1
  3 37  1  0
  3 38  1  0
  4 39  1  0
  4 40  1  0
  5 41  1  1
  8 42  1  0
  8 43  1  0
  8 44  1  0
  9 45  1  0
  9 46  1  0
  9 47  1  0
 10 48  1  1
 11 49  1  0
 11 50  1  0
 12 51  1  0
 12 52  1  0
 14 53  1  0
 14 54  1  0
 14 55  1  0
 15 56  1  6
 16 57  1  0
 16 58  1  0
 17 59  1  0
 19 60  1  1
 20 61  1  0
 20 62  1  0
 21 63  1  0
 21 64  1  0
 22 65  1  1
 23 66  1  0
 25 67  1  0
 25 68  1  0
 25 69  1  0
 26 70  1  0
 26 71  1  0
 26 72  1  0
 28 73  1  0
 28 74  1  0
 28 75  1  0
 29 76  1  0
 29 77  1  0
 30 78  1  0
 30 79  1  0
 32 80  1  0
 32 81  1  0
 32 82  1  0
M  END
>  <meeko>  (4) 
{"is_sidechain": [false], "intermolecular_energy": 2.731, "internal_energy": -0.839}

$$$$
EPH_relaxed_0001_pdb2pqr_Repair_235_r2_0001_out
     RDKit          3D

 82 86  0  0  0  0  0  0  0  0999 V2000
    3.7280   17.6310    0.5340 C   0  0  0  0  0  0  0  0  0  0  0  0
    2.8120   17.9360   -0.6540 C   0  0  2  0  0  0  0  0  0  0  0  0
    2.1450   19.3210   -0.5340 C   0  0  0  0  0  0  0  0  0  0  0  0
    1.2910   19.4860    0.7250 C   0  0  0  0  0  0  0  0  0  0  0  0
   -0.0330   20.1180    0.4180 C   0  0  2  0  0  0  0  0  0  0  0  0
   -0.9340   20.1910    1.5310 O   0  0  0  0  0  0  0  0  0  0  0  0
   -1.3470   19.3590    0.4350 C   0  0  0  0  0  0  0  0  0  0  0  0
   -1.4010   17.9000    0.7660 C   0  0  0  0  0  0  0  0  0  0  0  0
   -2.5020   19.9110   -0.3390 C   0  0  0  0  0  0  0  0  0  0  0  0
    1.7450   16.8540   -0.7790 C   0  0  1  0  0  0  0  0  0  0  0  0
    0.5110   17.3230   -1.5950 C   0  0  0  0  0  0  0  0  0  0  0  0
    0.0000   16.0890   -2.3820 C   0  0  0  0  0  0  0  0  0  0  0  0
    0.7400   14.8880   -1.7480 C   0  0  1  0  0  0  0  0  0  0  0  0
   -0.0700   14.5550   -0.4560 C   0  0  0  0  0  0  0  0  0  0  0  0
    0.9180   13.6280   -2.6570 C   0  0  2  0  0  0  0  0  0  0  0  0
   -0.3910   12.9560   -3.1060 C   0  0  0  0  0  0  0  0  0  0  0  0
   -0.9000   11.8840   -2.2010 C   0  0  0  0  0  0  0  0  0  0  0  0
   -0.1910   11.2790   -1.2290 C   0  0  0  0  0  0  0  0  0  0  0  0
    1.2960   11.5940   -1.0270 C   0  0  1  0  0  0  0  0  0  0  0  0
    2.0880   10.2710   -0.8610 C   0  0  0  0  0  0  0  0  0  0  0  0
    1.5240    9.3850    0.2450 C   0  0  0  0  0  0  0  0  0  0  0  0
    0.0600    9.0460   -0.0210 C   0  0  2  0  0  0  0  0  0  0  0  0
   -0.0170    8.2170   -1.1850 O   0  0  0  0  0  0  0  0  0  0  0  0
   -0.8350   10.3020   -0.2150 C   0  0  0  0  0  0  0  0  0  0  0  0
   -0.9950   11.0400    1.1370 C   0  0  0  0  0  0  0  0  0  0  0  0
   -2.2550    9.8190   -0.6160 C   0  0  0  0  0  0  0  0  0  0  0  0
    1.9510   12.5670   -2.0990 C   0  0  1  0  0  0  0  0  0  0  0  0
    2.4530   11.7460   -3.3260 C   0  0  0  0  0  0  0  0  0  0  0  0
    3.2240   13.2460   -1.4680 C   0  0  0  0  0  0  0  0  0  0  0  0
    2.9980   14.5520   -0.6820 C   0  0  0  0  0  0  0  0  0  0  0  0
    2.1480   15.5370   -1.4900 C   0  0  2  0  0  0  0  0  0  0  0  0
    2.9470   15.9080   -2.7860 C   0  0  0  0  0  0  0  0  0  0  0  0
    3.1838   17.8122    1.4726 H   0  0  0  0  0  0  0  0  0  0  0  0
    4.0455   16.5787    0.4915 H   0  0  0  0  0  0  0  0  0  0  0  0
    4.6130   18.2830    0.4915 H   0  0  0  0  0  0  0  0  0  0  0  0
    3.4378   17.9485   -1.5586 H   0  0  0  0  0  0  0  0  0  0  0  0
    2.9347   20.0867   -0.5207 H   0  0  0  0  0  0  0  0  0  0  0  0
    1.4704   19.4284   -1.3962 H   0  0  0  0  0  0  0  0  0  0  0  0
    1.1183   18.4954    1.1709 H   0  0  0  0  0  0  0  0  0  0  0  0
    1.8313   20.1434    1.4221 H   0  0  0  0  0  0  0  0  0  0  0  0
    0.4290   20.7765   -0.3323 H   0  0  0  0  0  0  0  0  0  0  0  0
   -1.4057   17.7718    1.8585 H   0  0  0  0  0  0  0  0  0  0  0  0
   -2.3160   17.4613    0.3414 H   0  0  0  0  0  0  0  0  0  0  0  0
   -0.5209   17.3949    0.3414 H   0  0  0  0  0  0  0  0  0  0  0  0
   -3.2692   20.2777    0.3588 H   0  0  0  0  0  0  0  0  0  0  0  0
   -2.1557   20.7410   -0.9725 H   0  0  0  0  0  0  0  0  0  0  0  0
   -2.9303   19.1203   -0.9725 H   0  0  0  0  0  0  0  0  0  0  0  0
    1.5506   16.6626    0.2866 H   0  0  0  0  0  0  0  0  0  0  0  0
   -0.2733   17.6916   -0.9175 H   0  0  0  0  0  0  0  0  0  0  0  0
    0.7773   18.1439   -2.2770 H   0  0  0  0  0  0  0  0  0  0  0  0
   -1.0885   15.9789   -2.2675 H   0  0  0  0  0  0  0  0  0  0  0  0
    0.1917   16.1743   -3.4618 H   0  0  0  0  0  0  0  0  0  0  0  0
    0.5337   14.8032    0.4294 H   0  0  0  0  0  0  0  0  0  0  0  0
   -0.9988   15.1443   -0.4434 H   0  0  0  0  0  0  0  0  0  0  0  0
   -0.3158   13.4829   -0.4434 H   0  0  0  0  0  0  0  0  0  0  0  0
    1.3608   14.0561   -3.5684 H   0  0  0  0  0  0  0  0  0  0  0  0
   -1.1648   13.7343   -3.1798 H   0  0  0  0  0  0  0  0  0  0  0  0
   -0.1677   12.4646   -4.0645 H   0  0  0  0  0  0  0  0  0  0  0  0
   -1.9423   11.5608   -2.3396 H   0  0  0  0  0  0  0  0  0  0  0  0
    1.3581   12.1847   -0.1011 H   0  0  0  0  0  0  0  0  0  0  0  0
    2.0506    9.7164   -1.8102 H   0  0  0  0  0  0  0  0  0  0  0  0
    3.1200   10.5328   -0.5847 H   0  0  0  0  0  0  0  0  0  0  0  0
    2.1065    8.4531    0.2920 H   0  0  0  0  0  0  0  0  0  0  0  0
    1.5908    9.9288    1.1989 H   0  0  0  0  0  0  0  0  0  0  0  0
   -0.3233    8.5219    0.8669 H   0  0  0  0  0  0  0  0  0  0  0  0
    0.5390    7.4350   -1.0270 H   0  0  0  0  0  0  0  0  0  0  0  0
   -0.8410   10.3299    1.9628 H   0  0  0  0  0  0  0  0  0  0  0  0
   -0.2511   11.8475    1.2043 H   0  0  0  0  0  0  0  0  0  0  0  0
   -2.0066   11.4669    1.2043 H   0  0  0  0  0  0  0  0  0  0  0  0
   -2.8439    9.6187    0.2912 H   0  0  0  0  0  0  0  0  0  0  0  0
   -2.7528   10.5984   -1.2117 H   0  0  0  0  0  0  0  0  0  0  0  0
   -2.1743    8.8978   -1.2117 H   0  0  0  0  0  0  0  0  0  0  0  0
    2.9967   10.8567   -2.9745 H   0  0  0  0  0  0  0  0  0  0  0  0
    1.5919   11.4325   -3.9345 H   0  0  0  0  0  0  0  0  0  0  0  0
    3.1244   12.3696   -3.9345 H   0  0  0  0  0  0  0  0  0  0  0  0
    3.6825   12.5194   -0.7811 H   0  0  0  0  0  0  0  0  0  0  0  0
    3.8523   13.5310   -2.3247 H   0  0  0  0  0  0  0  0  0  0  0  0
    2.4813   14.3198    0.2609 H   0  0  0  0  0  0  0  0  0  0  0  0
    3.9756   15.0145   -0.4811 H   0  0  0  0  0  0  0  0  0  0  0  0
    3.9119   16.3560   -2.5062 H   0  0  0  0  0  0  0  0  0  0  0  0
    3.1232   14.9996   -3.3808 H   0  0  0  0  0  0  0  0  0  0  0  0
    2.3667   16.6288   -3.3808 H   0  0  0  0  0  0  0  0  0  0  0  0
  1  2  1  0
  2  3  1  0
  3  4  1  0
  4  5  1  0
  5  6  1  0
  6  7  1  0
  7  8  1  0
  7  9  1  0
  2 10  1  0
 10 11  1  0
 11 12  1  0
 12 13  1  0
 13 14  1  1
 13 15  1  0
 15 16  1  0
 16 17  1  0
 17 18  2  0
 18 19  1  0
 19 20  1  0
 20 21  1  0
 21 22  1  0
 22 23  1  0
 22 24  1  0
 24 25  1  0
 24 26  1  0
 19 27  1  0
 27 28  1  6
 27 29  1  0
 29 30  1  0
 30 31  1  0
 31 32  1  6
  7  5  1  0
 31 10  1  0
 31 13  1  0
 27 15  1  0
 24 18  1  0
  1 33  1  0
  1 34  1  0
  1 35  1  0
  2 36  1  6
  3 37  1  0
  3 38  1  0
  4 39  1  0
  4 40  1  0
  5 41  1  6
  8 42  1  0
  8 43  1  0
  8 44  1  0
  9 45  1  0
  9 46  1  0
  9 47  1  0
 10 48  1  1
 11 49  1  0
 11 50  1  0
 12 51  1  0
 12 52  1  0
 14 53  1  0
 14 54  1  0
 14 55  1  0
 15 56  1  6
 16 57  1  0
 16 58  1  0
 17 59  1  0
 19 60  1  1
 20 61  1  0
 20 62  1  0
 21 63  1  0
 21 64  1  0
 22 65  1  1
 23 66  1  0
 25 67  1  0
 25 68  1  0
 25 69  1  0
 26 70  1  0
 26 71  1  0
 26 72  1  0
 28 73  1  0
 28 74  1  0
 28 75  1  0
 29 76  1  0
 29 77  1  0
 30 78  1  0
 30 79  1  0
 32 80  1  0
 32 81  1  0
 32 82  1  0
M  END
>  <meeko>  (5) 
{"is_sidechain": [false], "intermolecular_energy": 2.731, "internal_energy": -0.839}

$$$$
EPH_relaxed_0001_pdb2pqr_Repair_235_r2_0001_out
     RDKit          3D

 82 86  0  0  0  0  0  0  0  0999 V2000
   -5.1890    5.7680   -1.7370 C   0  0  0  0  0  0  0  0  0  0  0  0
   -5.4760    7.2720   -1.7810 C   0  0  2  0  0  0  0  0  0  0  0  0
   -5.2460    7.9460   -0.4130 C   0  0  0  0  0  0  0  0  0  0  0  0
   -4.1890    9.0540   -0.4440 C   0  0  0  0  0  0  0  0  0  0  0  0
   -2.8700    8.5470   -0.9440 C   0  0  2  0  0  0  0  0  0  0  0  0
   -1.7840    8.6910   -0.0190 O   0  0  0  0  0  0  0  0  0  0  0  0
   -1.6850    9.4480   -1.2360 C   0  0  0  0  0  0  0  0  0  0  0  0
   -1.7640   10.9300   -1.0400 C   0  0  0  0  0  0  0  0  0  0  0  0
   -0.6230    8.9540   -2.1690 C   0  0  0  0  0  0  0  0  0  0  0  0
   -6.9060    7.5150   -2.2480 C   0  0  1  0  0  0  0  0  0  0  0  0
   -7.2210    6.8180   -3.5980 C   0  0  0  0  0  0  0  0  0  0  0  0
   -8.7020    6.3640   -3.5340 C   0  0  0  0  0  0  0  0  0  0  0  0
   -9.2810    7.0980   -2.3020 C   0  0  1  0  0  0  0  0  0  0  0  0
   -9.6130    8.5360   -2.8110 C   0  0  0  0  0  0  0  0  0  0  0  0
  -10.5170    6.4290   -1.6170 C   0  0  2  0  0  0  0  0  0  0  0  0
  -11.7710    6.3160   -2.5010 C   0  0  0  0  0  0  0  0  0  0  0  0
  -12.7110    7.4740   -2.4260 C   0  0  0  0  0  0  0  0  0  0  0  0
  -12.7030    8.4270   -1.4760 C   0  0  0  0  0  0  0  0  0  0  0  0
  -11.7420    8.3420   -0.2830 C   0  0  1  0  0  0  0  0  0  0  0  0
  -12.5160    8.6370    1.0280 C   0  0  0  0  0  0  0  0  0  0  0  0
  -13.2690    9.9630    0.9780 C   0  0  0  0  0  0  0  0  0  0  0  0
  -14.2560    9.9860   -0.1860 C   0  0  2  0  0  0  0  0  0  0  0  0
  -15.2870    9.0260    0.0650 O   0  0  0  0  0  0  0  0  0  0  0  0
  -13.5920    9.6930   -1.5600 C   0  0  0  0  0  0  0  0  0  0  0  0
  -12.6970   10.8880   -1.9710 C   0  0  0  0  0  0  0  0  0  0  0  0
  -14.7170    9.6060   -2.6260 C   0  0  0  0  0  0  0  0  0  0  0  0
  -10.8660    7.0190   -0.1910 C   0  0  1  0  0  0  0  0  0  0  0  0
  -11.6570    5.9100    0.5690 C   0  0  0  0  0  0  0  0  0  0  0  0
   -9.5790    7.3130    0.6670 C   0  0  0  0  0  0  0  0  0  0  0  0
   -8.3520    7.8610   -0.0870 C   0  0  0  0  0  0  0  0  0  0  0  0
   -8.0490    7.0150   -1.3280 C   0  0  2  0  0  0  0  0  0  0  0  0
   -7.6900    5.5690   -0.8460 C   0  0  0  0  0  0  0  0  0  0  0  0
   -5.1259    5.4372   -0.6898 H   0  0  0  0  0  0  0  0  0  0  0  0
   -5.9997    5.2250   -2.2448 H   0  0  0  0  0  0  0  0  0  0  0  0
   -4.2353    5.5617   -2.2448 H   0  0  0  0  0  0  0  0  0  0  0  0
   -4.7710    7.7234   -2.4946 H   0  0  0  0  0  0  0  0  0  0  0  0
   -6.1977    8.3830   -0.0765 H   0  0  0  0  0  0  0  0  0  0  0  0
   -4.8770    7.1679    0.2714 H   0  0  0  0  0  0  0  0  0  0  0  0
   -4.5362    9.8596   -1.1077 H   0  0  0  0  0  0  0  0  0  0  0  0
   -4.0481    9.4228    0.5827 H   0  0  0  0  0  0  0  0  0  0  0  0
   -3.3678    7.7666   -1.5382 H   0  0  0  0  0  0  0  0  0  0  0  0
   -1.7761   11.1574    0.0362 H   0  0  0  0  0  0  0  0  0  0  0  0
   -0.8901   11.4086   -1.5061 H   0  0  0  0  0  0  0  0  0  0  0  0
   -2.6838   11.3130   -1.5061 H   0  0  0  0  0  0  0  0  0  0  0  0
    0.2229    8.5605   -1.5863 H   0  0  0  0  0  0  0  0  0  0  0  0
   -1.0347    8.1550   -2.8030 H   0  0  0  0  0  0  0  0  0  0  0  0
   -0.2771    9.7837   -2.8030 H   0  0  0  0  0  0  0  0  0  0  0  0
   -6.9037    8.6144   -2.2833 H   0  0  0  0  0  0  0  0  0  0  0  0
   -7.0767    7.5224   -4.4304 H   0  0  0  0  0  0  0  0  0  0  0  0
   -6.5525    5.9604   -3.7644 H   0  0  0  0  0  0  0  0  0  0  0  0
   -9.2382    6.6575   -4.4485 H   0  0  0  0  0  0  0  0  0  0  0  0
   -8.8007    5.2714   -3.4536 H   0  0  0  0  0  0  0  0  0  0  0  0
   -9.7670    9.2032   -1.9501 H   0  0  0  0  0  0  0  0  0  0  0  0
   -8.7778    8.9111   -3.4208 H   0  0  0  0  0  0  0  0  0  0  0  0
  -10.5281    8.5070   -3.4208 H   0  0  0  0  0  0  0  0  0  0  0  0
  -10.1693    5.3974   -1.4589 H   0  0  0  0  0  0  0  0  0  0  0  0
  -11.4422    6.2122   -3.5456 H   0  0  0  0  0  0  0  0  0  0  0  0
  -12.3299    5.4457   -2.1264 H   0  0  0  0  0  0  0  0  0  0  0  0
  -13.4744    7.5548   -3.2139 H   0  0  0  0  0  0  0  0  0  0  0  0
  -10.9814    9.1191   -0.4495 H   0  0  0  0  0  0  0  0  0  0  0  0
  -13.2399    7.8268    1.1998 H   0  0  0  0  0  0  0  0  0  0  0  0
  -11.7797    8.7021    1.8426 H   0  0  0  0  0  0  0  0  0  0  0  0
  -13.8201   10.0998    1.9201 H   0  0  0  0  0  0  0  0  0  0  0  0
  -12.5408   10.7753    0.8371 H   0  0  0  0  0  0  0  0  0  0  0  0
  -14.6675   11.0042   -0.2487 H   0  0  0  0  0  0  0  0  0  0  0  0
  -16.0880    9.3270   -0.3950 H   0  0  0  0  0  0  0  0  0  0  0  0
  -12.3201   11.3913   -1.0684 H   0  0  0  0  0  0  0  0  0  0  0  0
  -11.8487   10.5224   -2.5683 H   0  0  0  0  0  0  0  0  0  0  0  0
  -13.2865   11.5992   -2.5683 H   0  0  0  0  0  0  0  0  0  0  0  0
  -15.6928    9.5305   -2.1239 H   0  0  0  0  0  0  0  0  0  0  0  0
  -14.6969   10.5084   -3.2547 H   0  0  0  0  0  0  0  0  0  0  0  0
  -14.5584    8.7174   -3.2547 H   0  0  0  0  0  0  0  0  0  0  0  0
  -11.5495    6.0607    1.6533 H   0  0  0  0  0  0  0  0  0  0  0  0
  -12.7209    5.9652    0.2948 H   0  0  0  0  0  0  0  0  0  0  0  0
  -11.2584    4.9221    0.2948 H   0  0  0  0  0  0  0  0  0  0  0  0
   -9.8531    8.0497    1.4365 H   0  0  0  0  0  0  0  0  0  0  0  0
   -9.2635    6.3343    1.0576 H   0  0  0  0  0  0  0  0  0  0  0  0
   -8.5535    8.8967   -0.3978 H   0  0  0  0  0  0  0  0  0  0  0  0
   -7.4816    7.8234    0.5846 H   0  0  0  0  0  0  0  0  0  0  0  0
   -7.6829    5.5402    0.2536 H   0  0  0  0  0  0  0  0  0  0  0  0
   -8.4392    4.8591   -1.2265 H   0  0  0  0  0  0  0  0  0  0  0  0
   -6.6958    5.2919   -1.2265 H   0  0  0  0  0  0  0  0  0  0  0  0
  1  2  1  0
  2  3  1  0
  3  4  1  0
  4  5  1  0
  5  6  1  0
  6  7  1  0
  7  8  1  0
  7  9  1  0
  2 10  1  0
 10 11  1  0
 11 12  1  0
 12 13  1  0
 13 14  1  6
 13 15  1  0
 15 16  1  0
 16 17  1  0
 17 18  2  0
 18 19  1  0
 19 20  1  0
 20 21  1  0
 21 22  1  0
 22 23  1  0
 22 24  1  0
 24 25  1  0
 24 26  1  0
 19 27  1  0
 27 28  1  1
 27 29  1  0
 29 30  1  0
 30 31  1  0
 31 32  1  1
  7  5  1  0
 31 10  1  0
 31 13  1  0
 27 15  1  0
 24 18  1  0
  1 33  1  0
  1 34  1  0
  1 35  1  0
  2 36  1  6
  3 37  1  0
  3 38  1  0
  4 39  1  0
  4 40  1  0
  5 41  1  6
  8 42  1  0
  8 43  1  0
  8 44  1  0
  9 45  1  0
  9 46  1  0
  9 47  1  0
 10 48  1  6
 11 49  1  0
 11 50  1  0
 12 51  1  0
 12 52  1  0
 14 53  1  0
 14 54  1  0
 14 55  1  0
 15 56  1  1
 16 57  1  0
 16 58  1  0
 17 59  1  0
 19 60  1  6
 20 61  1  0
 20 62  1  0
 21 63  1  0
 21 64  1  0
 22 65  1  6
 23 66  1  0
 25 67  1  0
 25 68  1  0
 25 69  1  0
 26 70  1  0
 26 71  1  0
 26 72  1  0
 28 73  1  0
 28 74  1  0
 28 75  1  0
 29 76  1  0
 29 77  1  0
 30 78  1  0
 30 79  1  0
 32 80  1  0
 32 81  1  0
 32 82  1  0
M  END
>  <meeko>  (6) 
{"is_sidechain": [false], "intermolecular_energy": 2.731, "internal_energy": -0.839}

$$$$
EPH_relaxed_0001_pdb2pqr_Repair_235_r2_0001_out
     RDKit          3D

 82 86  0  0  0  0  0  0  0  0999 V2000
    0.4100    8.8690   -2.5440 C   0  0  0  0  0  0  0  0  0  0  0  0
    1.1790   10.0310   -3.1800 C   0  0  2  0  0  0  0  0  0  0  0  0
    2.6700   10.0230   -2.7890 C   0  0  0  0  0  0  0  0  0  0  0  0
    3.5900   10.6190   -3.8590 C   0  0  0  0  0  0  0  0  0  0  0  0
    4.9800   10.8310   -3.3390 C   0  0  2  0  0  0  0  0  0  0  0  0
    5.5960   12.0550   -3.7590 O   0  0  0  0  0  0  0  0  0  0  0  0
    6.2110   10.8440   -4.2250 C   0  0  0  0  0  0  0  0  0  0  0  0
    6.1110   10.6400   -5.7040 C   0  0  0  0  0  0  0  0  0  0  0  0
    7.5440   10.5660   -3.6020 C   0  0  0  0  0  0  0  0  0  0  0  0
    0.5420   11.3560   -2.7810 C   0  0  1  0  0  0  0  0  0  0  0  0
   -0.8310   11.1730   -2.0810 C   0  0  0  0  0  0  0  0  0  0  0  0
   -0.9410   12.2900   -1.0120 C   0  0  0  0  0  0  0  0  0  0  0  0
    0.2070   13.2690   -1.3520 C   0  0  1  0  0  0  0  0  0  0  0  0
   -0.3490   14.1520   -2.5130 C   0  0  0  0  0  0  0  0  0  0  0  0
    0.7440   14.1410   -0.1700 C   0  0  2  0  0  0  0  0  0  0  0  0
   -0.2830   15.1050    0.4490 C   0  0  0  0  0  0  0  0  0  0  0  0
   -0.3300   16.4660   -0.1630 C   0  0  0  0  0  0  0  0  0  0  0  0
    0.6070   16.9920   -0.9730 C   0  0  0  0  0  0  0  0  0  0  0  0
    1.9070   16.2330   -1.2710 C   0  0  1  0  0  0  0  0  0  0  0  0
    3.1130   17.1970   -1.1280 C   0  0  0  0  0  0  0  0  0  0  0  0
    2.9630   18.4540   -1.9800 C   0  0  0  0  0  0  0  0  0  0  0  0
    1.6890   19.2120   -1.6140 C   0  0  2  0  0  0  0  0  0  0  0  0
    1.8230   19.7230   -0.2840 O   0  0  0  0  0  0  0  0  0  0  0  0
    0.4070   18.3380   -1.7120 C   0  0  0  0  0  0  0  0  0  0  0  0
    0.0970   18.0360   -3.1990 C   0  0  0  0  0  0  0  0  0  0  0  0
   -0.7850   19.1790   -1.1820 C   0  0  0  0  0  0  0  0  0  0  0  0
    2.1130   14.8740   -0.4750 C   0  0  1  0  0  0  0  0  0  0  0  0
    2.7810   15.1610    0.9040 C   0  0  0  0  0  0  0  0  0  0  0  0
    3.1170   13.9590   -1.2720 C   0  0  0  0  0  0  0  0  0  0  0  0
    2.5110   13.0330   -2.3440 C   0  0  0  0  0  0  0  0  0  0  0  0
    1.3220   12.2480   -1.7820 C   0  0  2  0  0  0  0  0  0  0  0  0
    1.8550   11.3340   -0.6270 C   0  0  0  0  0  0  0  0  0  0  0  0
    0.4636    8.9499   -1.4483 H   0  0  0  0  0  0  0  0  0  0  0  0
   -0.6419    8.9069   -2.8635 H   0  0  0  0  0  0  0  0  0  0  0  0
    0.8561    7.9156   -2.8635 H   0  0  0  0  0  0  0  0  0  0  0  0
    1.1238    9.9067   -4.2716 H   0  0  0  0  0  0  0  0  0  0  0  0
    2.7897   10.6062   -1.8640 H   0  0  0  0  0  0  0  0  0  0  0  0
    2.9636    8.9705   -2.6623 H   0  0  0  0  0  0  0  0  0  0  0  0
    3.6312    9.9317   -4.7169 H   0  0  0  0  0  0  0  0  0  0  0  0
    3.1822   11.5964   -4.1564 H   0  0  0  0  0  0  0  0  0  0  0  0
    4.7425   10.2858   -2.4136 H   0  0  0  0  0  0  0  0  0  0  0  0
    5.6353    9.6696   -5.9089 H   0  0  0  0  0  0  0  0  0  0  0  0
    5.5056   11.4456   -6.1451 H   0  0  0  0  0  0  0  0  0  0  0  0
    7.1186   10.6549   -6.1451 H   0  0  0  0  0  0  0  0  0  0  0  0
    7.4480   10.5860   -2.5064 H   0  0  0  0  0  0  0  0  0  0  0  0
    7.8982    9.5747   -3.9210 H   0  0  0  0  0  0  0  0  0  0  0  0
    8.2650   11.3331   -3.9210 H   0  0  0  0  0  0  0  0  0  0  0  0
    0.4986   11.8431   -3.7663 H   0  0  0  0  0  0  0  0  0  0  0  0
   -1.6456   11.2688   -2.8140 H   0  0  0  0  0  0  0  0  0  0  0  0
   -0.9098   10.1770   -1.6207 H   0  0  0  0  0  0  0  0  0  0  0  0
   -1.9154   12.7961   -1.0779 H   0  0  0  0  0  0  0  0  0  0  0  0
   -0.8643   11.8964    0.0123 H   0  0  0  0  0  0  0  0  0  0  0  0
   -0.8906   15.0121   -2.0925 H   0  0  0  0  0  0  0  0  0  0  0  0
    0.4859   14.5116   -3.1323 H   0  0  0  0  0  0  0  0  0  0  0  0
   -1.0341   13.5545   -3.1323 H   0  0  0  0  0  0  0  0  0  0  0  0
    0.9506   13.3870    0.6039 H   0  0  0  0  0  0  0  0  0  0  0  0
   -1.2799   14.6515    0.3461 H   0  0  0  0  0  0  0  0  0  0  0  0
    0.0286   15.2518    1.4937 H   0  0  0  0  0  0  0  0  0  0  0  0
   -1.2047   17.0918    0.0678 H   0  0  0  0  0  0  0  0  0  0  0  0
    1.8272   15.8882   -2.3125 H   0  0  0  0  0  0  0  0  0  0  0  0
    3.2028   17.4950   -0.0730 H   0  0  0  0  0  0  0  0  0  0  0  0
    4.0096   16.6632   -1.4762 H   0  0  0  0  0  0  0  0  0  0  0  0
    3.8316   19.1079   -1.8130 H   0  0  0  0  0  0  0  0  0  0  0  0
    2.9033   18.1566   -3.0374 H   0  0  0  0  0  0  0  0  0  0  0  0
    1.5688   20.0275   -2.3424 H   0  0  0  0  0  0  0  0  0  0  0  0
    0.9980   20.1880   -0.0640 H   0  0  0  0  0  0  0  0  0  0  0  0
   -0.6897   17.2696   -3.2612 H   0  0  0  0  0  0  0  0  0  0  0  0
   -0.2465   18.9553   -3.6960 H   0  0  0  0  0  0  0  0  0  0  0  0
    1.0070   17.6686   -3.6960 H   0  0  0  0  0  0  0  0  0  0  0  0
   -0.7772   19.1735   -0.0820 H   0  0  0  0  0  0  0  0  0  0  0  0
   -0.6935   20.2136   -1.5442 H   0  0  0  0  0  0  0  0  0  0  0  0
   -1.7291   18.7459   -1.5442 H   0  0  0  0  0  0  0  0  0  0  0  0
    2.0952   14.8664    1.7120 H   0  0  0  0  0  0  0  0  0  0  0  0
    3.7141   14.5844    0.9865 H   0  0  0  0  0  0  0  0  0  0  0  0
    3.0050   16.2348    0.9865 H   0  0  0  0  0  0  0  0  0  0  0  0
    3.8422   14.6176   -1.7724 H   0  0  0  0  0  0  0  0  0  0  0  0
    3.5506   13.2837   -0.5197 H   0  0  0  0  0  0  0  0  0  0  0  0
    2.1705   13.6418   -3.1945 H   0  0  0  0  0  0  0  0  0  0  0  0
    3.2823   12.3181   -2.6664 H   0  0  0  0  0  0  0  0  0  0  0  0
    1.5945   11.7807    0.3439 H   0  0  0  0  0  0  0  0  0  0  0  0
    1.3965   10.3373   -0.7069 H   0  0  0  0  0  0  0  0  0  0  0  0
    2.9482   11.2422   -0.7069 H   0  0  0  0  0  0  0  0  0  0  0  0
  1  2  1  0
  2  3  1  0
  3  4  1  0
  4  5  1  0
  5  6  1  0
  6  7  1  0
  7  8  1  0
  7  9  1  0
  2 10  1  0
 10 11  1  0
 11 12  1  0
 12 13  1  0
 13 14  1  6
 13 15  1  0
 15 16  1  0
 16 17  1  0
 17 18  2  0
 18 19  1  0
 19 20  1  0
 20 21  1  0
 21 22  1  0
 22 23  1  0
 22 24  1  0
 24 25  1  0
 24 26  1  0
 19 27  1  0
 27 28  1  1
 27 29  1  0
 29 30  1  0
 30 31  1  0
 31 32  1  1
  7  5  1  0
 31 10  1  0
 31 13  1  0
 27 15  1  0
 24 18  1  0
  1 33  1  0
  1 34  1  0
  1 35  1  0
  2 36  1  6
  3 37  1  0
  3 38  1  0
  4 39  1  0
  4 40  1  0
  5 41  1  1
  8 42  1  0
  8 43  1  0
  8 44  1  0
  9 45  1  0
  9 46  1  0
  9 47  1  0
 10 48  1  6
 11 49  1  0
 11 50  1  0
 12 51  1  0
 12 52  1  0
 14 53  1  0
 14 54  1  0
 14 55  1  0
 15 56  1  1
 16 57  1  0
 16 58  1  0
 17 59  1  0
 19 60  1  6
 20 61  1  0
 20 62  1  0
 21 63  1  0
 21 64  1  0
 22 65  1  6
 23 66  1  0
 25 67  1  0
 25 68  1  0
 25 69  1  0
 26 70  1  0
 26 71  1  0
 26 72  1  0
 28 73  1  0
 28 74  1  0
 28 75  1  0
 29 76  1  0
 29 77  1  0
 30 78  1  0
 30 79  1  0
 32 80  1  0
 32 81  1  0
 32 82  1  0
M  END
>  <meeko>  (7) 
{"is_sidechain": [false], "intermolecular_energy": 2.731, "internal_energy": -0.839}

$$$$
EPH_relaxed_0001_pdb2pqr_Repair_235_r2_0001_out
     RDKit          3D

 82 86  0  0  0  0  0  0  0  0999 V2000
    3.0010   19.4370   -0.4950 C   0  0  0  0  0  0  0  0  0  0  0  0
    2.7680   18.5350   -1.7110 C   0  0  2  0  0  0  0  0  0  0  0  0
    1.3550   18.7110   -2.3020 C   0  0  0  0  0  0  0  0  0  0  0  0
    0.6810   20.0270   -1.9050 C   0  0  0  0  0  0  0  0  0  0  0  0
   -0.3030   19.8320   -0.7920 C   0  0  2  0  0  0  0  0  0  0  0  0
   -1.1120   18.6540   -0.9070 O   0  0  0  0  0  0  0  0  0  0  0  0
   -1.8070   19.9090   -0.9800 C   0  0  0  0  0  0  0  0  0  0  0  0
   -2.4110   20.1920   -2.3200 C   0  0  0  0  0  0  0  0  0  0  0  0
   -2.6640   20.1940    0.2130 C   0  0  0  0  0  0  0  0  0  0  0  0
    2.9940   17.0780   -1.3270 C   0  0  1  0  0  0  0  0  0  0  0  0
    3.7500   16.9250    0.0200 C   0  0  0  0  0  0  0  0  0  0  0  0
    3.1780   15.6610    0.7120 C   0  0  0  0  0  0  0  0  0  0  0  0
    2.3610   14.9480   -0.3910 C   0  0  1  0  0  0  0  0  0  0  0  0
    3.4190   14.1630   -1.2290 C   0  0  0  0  0  0  0  0  0  0  0  0
    1.2060   14.0150    0.0990 C   0  0  2  0  0  0  0  0  0  0  0  0
    1.6530   12.8130    0.9490 C   0  0  0  0  0  0  0  0  0  0  0  0
    1.9560   11.5680    0.1830 C   0  0  0  0  0  0  0  0  0  0  0  0
    1.6030   11.3290   -1.0940 C   0  0  0  0  0  0  0  0  0  0  0  0
    0.7380   12.3300   -1.8720 C   0  0  1  0  0  0  0  0  0  0  0  0
   -0.3970   11.5710   -2.6080 C   0  0  0  0  0  0  0  0  0  0  0  0
    0.1310   10.4450   -3.4920 C   0  0  0  0  0  0  0  0  0  0  0  0
    0.9360    9.4400   -2.6730 C   0  0  2  0  0  0  0  0  0  0  0  0
    0.0530    8.7700   -1.7680 O   0  0  0  0  0  0  0  0  0  0  0  0
    2.1020   10.0910   -1.8780 C   0  0  0  0  0  0  0  0  0  0  0  0
    3.2080   10.5520   -2.8600 C   0  0  0  0  0  0  0  0  0  0  0  0
    2.7440    8.9940   -0.9860 C   0  0  0  0  0  0  0  0  0  0  0  0
    0.2010   13.5740   -1.0410 C   0  0  1  0  0  0  0  0  0  0  0  0
   -1.1390   13.2040   -0.3350 C   0  0  0  0  0  0  0  0  0  0  0  0
   -0.1300   14.7510   -2.0340 C   0  0  0  0  0  0  0  0  0  0  0  0
    1.0240   15.7090   -2.3860 C   0  0  0  0  0  0  0  0  0  0  0  0
    1.7390   16.1930   -1.1210 C   0  0  2  0  0  0  0  0  0  0  0  0
    0.7060   17.0050   -0.2680 C   0  0  0  0  0  0  0  0  0  0  0  0
    2.8509   18.8558    0.4268 H   0  0  0  0  0  0  0  0  0  0  0  0
    4.0293   19.8268   -0.5193 H   0  0  0  0  0  0  0  0  0  0  0  0
    2.2901   20.2761   -0.5193 H   0  0  0  0  0  0  0  0  0  0  0  0
    3.4893   18.8316   -2.4867 H   0  0  0  0  0  0  0  0  0  0  0  0
    1.4307   18.6767   -3.3989 H   0  0  0  0  0  0  0  0  0  0  0  0
    0.7343   17.8975   -1.8983 H   0  0  0  0  0  0  0  0  0  0  0  0
    1.4534   20.7384   -1.5774 H   0  0  0  0  0  0  0  0  0  0  0  0
    0.1369   20.4113   -2.7804 H   0  0  0  0  0  0  0  0  0  0  0  0
    0.3767   20.3167   -0.0757 H   0  0  0  0  0  0  0  0  0  0  0  0
   -3.3997   20.6552   -2.1861 H   0  0  0  0  0  0  0  0  0  0  0  0
   -1.7575   20.8777   -2.8793 H   0  0  0  0  0  0  0  0  0  0  0  0
   -2.5197   19.2511   -2.8793 H   0  0  0  0  0  0  0  0  0  0  0  0
   -2.0894   20.0029    1.1313 H   0  0  0  0  0  0  0  0  0  0  0  0
   -2.9829   21.2466    0.1924 H   0  0  0  0  0  0  0  0  0  0  0  0
   -3.5497   19.5421    0.1924 H   0  0  0  0  0  0  0  0  0  0  0  0
    3.5515   16.7391   -2.2126 H   0  0  0  0  0  0  0  0  0  0  0  0
    4.8278   16.8023   -0.1622 H   0  0  0  0  0  0  0  0  0  0  0  0
    3.6168   17.8158    0.6514 H   0  0  0  0  0  0  0  0  0  0  0  0
    3.9913   15.0140    1.0723 H   0  0  0  0  0  0  0  0  0  0  0  0
    2.5649   15.9082    1.5912 H   0  0  0  0  0  0  0  0  0  0  0  0
    4.1145   13.6470   -0.5507 H   0  0  0  0  0  0  0  0  0  0  0  0
    2.9088   13.4232   -1.8633 H   0  0  0  0  0  0  0  0  0  0  0  0
    3.9791   14.8658   -1.8633 H   0  0  0  0  0  0  0  0  0  0  0  0
    0.6470   14.6719    0.7816 H   0  0  0  0  0  0  0  0  0  0  0  0
    2.5608   13.1037    1.4980 H   0  0  0  0  0  0  0  0  0  0  0  0
    0.8023   12.5690    1.6023 H   0  0  0  0  0  0  0  0  0  0  0  0
    2.5153   10.7787    0.7066 H   0  0  0  0  0  0  0  0  0  0  0  0
    1.4065   12.8042   -2.6056 H   0  0  0  0  0  0  0  0  0  0  0  0
   -1.0779   11.1414   -1.8585 H   0  0  0  0  0  0  0  0  0  0  0  0
   -0.9144   12.2919   -3.2581 H   0  0  0  0  0  0  0  0  0  0  0  0
   -0.7185    9.9280   -3.9621 H   0  0  0  0  0  0  0  0  0  0  0  0
    0.7889   10.8799   -4.2588 H   0  0  0  0  0  0  0  0  0  0  0  0
    1.3944    8.7318   -3.3789 H   0  0  0  0  0  0  0  0  0  0  0  0
    0.5590    8.5590   -0.9650 H   0  0  0  0  0  0  0  0  0  0  0  0
    4.0765   10.9140   -2.2903 H   0  0  0  0  0  0  0  0  0  0  0  0
    3.5119    9.7056   -3.4935 H   0  0  0  0  0  0  0  0  0  0  0  0
    2.8208   11.3637   -3.4935 H   0  0  0  0  0  0  0  0  0  0  0  0
    2.5947    9.2491    0.0735 H   0  0  0  0  0  0  0  0  0  0  0  0
    2.2709    8.0242   -1.1998 H   0  0  0  0  0  0  0  0  0  0  0  0
    3.8212    8.9315   -1.1998 H   0  0  0  0  0  0  0  0  0  0  0  0
   -1.0015   13.2420    0.7557 H   0  0  0  0  0  0  0  0  0  0  0  0
   -1.9195   13.9202   -0.6313 H   0  0  0  0  0  0  0  0  0  0  0  0
   -1.4414   12.1887   -0.6313 H   0  0  0  0  0  0  0  0  0  0  0  0
   -0.4888   14.3034   -2.9726 H   0  0  0  0  0  0  0  0  0  0  0  0
   -0.8690   15.3725   -1.5071 H   0  0  0  0  0  0  0  0  0  0  0  0
    1.7455   15.1828   -3.0283 H   0  0  0  0  0  0  0  0  0  0  0  0
    0.6079   16.5822   -2.9099 H   0  0  0  0  0  0  0  0  0  0  0  0
    0.9082   16.8461    0.8015 H   0  0  0  0  0  0  0  0  0  0  0  0
    0.7973   18.0757   -0.5033 H   0  0  0  0  0  0  0  0  0  0  0  0
   -0.3128   16.6634   -0.5033 H   0  0  0  0  0  0  0  0  0  0  0  0
  1  2  1  0
  2  3  1  0
  3  4  1  0
  4  5  1  0
  5  6  1  0
  6  7  1  0
  7  8  1  0
  7  9  1  0
  2 10  1  0
 10 11  1  0
 11 12  1  0
 12 13  1  0
 13 14  1  6
 13 15  1  0
 15 16  1  0
 16 17  1  0
 17 18  2  0
 18 19  1  0
 19 20  1  0
 20 21  1  0
 21 22  1  0
 22 23  1  0
 22 24  1  0
 24 25  1  0
 24 26  1  0
 19 27  1  0
 27 28  1  1
 27 29  1  0
 29 30  1  0
 30 31  1  0
 31 32  1  1
  7  5  1  0
 31 10  1  0
 31 13  1  0
 27 15  1  0
 24 18  1  0
  1 33  1  0
  1 34  1  0
  1 35  1  0
  2 36  1  6
  3 37  1  0
  3 38  1  0
  4 39  1  0
  4 40  1  0
  5 41  1  1
  8 42  1  0
  8 43  1  0
  8 44  1  0
  9 45  1  0
  9 46  1  0
  9 47  1  0
 10 48  1  6
 11 49  1  0
 11 50  1  0
 12 51  1  0
 12 52  1  0
 14 53  1  0
 14 54  1  0
 14 55  1  0
 15 56  1  1
 16 57  1  0
 16 58  1  0
 17 59  1  0
 19 60  1  6
 20 61  1  0
 20 62  1  0
 21 63  1  0
 21 64  1  0
 22 65  1  6
 23 66  1  0
 25 67  1  0
 25 68  1  0
 25 69  1  0
 26 70  1  0
 26 71  1  0
 26 72  1  0
 28 73  1  0
 28 74  1  0
 28 75  1  0
 29 76  1  0
 29 77  1  0
 30 78  1  0
 30 79  1  0
 32 80  1  0
 32 81  1  0
 32 82  1  0
M  END
>  <meeko>  (8) 
{"is_sidechain": [false], "intermolecular_energy": 2.731, "internal_energy": -0.839}

$$$$
EPH_relaxed_0001_pdb2pqr_Repair_235_r2_0001_out
     RDKit          3D

 82 86  0  0  0  0  0  0  0  0999 V2000
   -3.7510    7.2410   -3.4050 C   0  0  0  0  0  0  0  0  0  0  0  0
   -3.7530    7.3090   -1.8750 C   0  0  2  0  0  0  0  0  0  0  0  0
   -5.1590    7.0840   -1.2860 C   0  0  0  0  0  0  0  0  0  0  0  0
   -6.2830    7.1790   -2.3210 C   0  0  0  0  0  0  0  0  0  0  0  0
   -7.6130    7.4230   -1.6750 C   0  0  2  0  0  0  0  0  0  0  0  0
   -8.2400    6.2530   -1.1340 O   0  0  0  0  0  0  0  0  0  0  0  0
   -8.9220    6.8900   -2.2270 C   0  0  0  0  0  0  0  0  0  0  0  0
   -8.9650    6.0700   -3.4780 C   0  0  0  0  0  0  0  0  0  0  0  0
  -10.1960    7.5680   -1.8290 C   0  0  0  0  0  0  0  0  0  0  0  0
   -3.2030    8.6540   -1.4140 C   0  0  1  0  0  0  0  0  0  0  0  0
   -3.8170    9.1200   -0.0670 C   0  0  0  0  0  0  0  0  0  0  0  0
   -2.6980    9.8710    0.6980 C   0  0  0  0  0  0  0  0  0  0  0  0
   -1.5910   10.1020   -0.3570 C   0  0  1  0  0  0  0  0  0  0  0  0
   -2.0570   11.3560   -1.1600 C   0  0  0  0  0  0  0  0  0  0  0  0
   -0.1380   10.2750    0.1930 C   0  0  2  0  0  0  0  0  0  0  0  0
    0.0740   11.4980    1.1040 C   0  0  0  0  0  0  0  0  0  0  0  0
    0.4890   12.7490    0.4050 C   0  0  0  0  0  0  0  0  0  0  0  0
    0.9600   12.8230   -0.8530 C   0  0  0  0  0  0  0  0  0  0  0  0
    1.2070   11.5530   -1.6780 C   0  0  1  0  0  0  0  0  0  0  0  0
    2.5970   11.6410   -2.3620 C   0  0  0  0  0  0  0  0  0  0  0  0
    2.7630   12.9140   -3.1870 C   0  0  0  0  0  0  0  0  0  0  0  0
    2.5670   14.1550   -2.3200 C   0  0  2  0  0  0  0  0  0  0  0  0
    3.6370   14.2290   -1.3730 O   0  0  0  0  0  0  0  0  0  0  0  0
    1.2050   14.1720   -1.5730 C   0  0  0  0  0  0  0  0  0  0  0  0
    0.0570   14.3960   -2.5880 C   0  0  0  0  0  0  0  0  0  0  0  0
    1.1940   15.4040   -0.6280 C   0  0  0  0  0  0  0  0  0  0  0  0
    0.9900   10.1770   -0.9120 C   0  0  1  0  0  0  0  0  0  0  0  0
    2.3010    9.7650   -0.1750 C   0  0  0  0  0  0  0  0  0  0  0  0
    0.6980    9.0430   -1.9650 C   0  0  0  0  0  0  0  0  0  0  0  0
   -0.7720    8.8420   -2.3790 C   0  0  0  0  0  0  0  0  0  0  0  0
   -1.6800    8.7470   -1.1490 C   0  0  2  0  0  0  0  0  0  0  0  0
   -1.2490    7.4810   -0.3330 C   0  0  0  0  0  0  0  0  0  0  0  0
   -3.7201    6.1891   -3.7252 H   0  0  0  0  0  0  0  0  0  0  0  0
   -4.6635    7.7161   -3.7943 H   0  0  0  0  0  0  0  0  0  0  0  0
   -2.8680    7.7689   -3.7943 H   0  0  0  0  0  0  0  0  0  0  0  0
   -3.1078    6.4979   -1.5064 H   0  0  0  0  0  0  0  0  0  0  0  0
   -5.1890    6.0825   -0.8319 H   0  0  0  0  0  0  0  0  0  0  0  0
   -5.3310    7.8839   -0.5508 H   0  0  0  0  0  0  0  0  0  0  0  0
   -6.0640    8.0081   -3.0099 H   0  0  0  0  0  0  0  0  0  0  0  0
   -6.3344    6.2214   -2.8599 H   0  0  0  0  0  0  0  0  0  0  0  0
   -7.3009    8.4294   -1.3592 H   0  0  0  0  0  0  0  0  0  0  0  0
   -9.0209    5.0033   -3.2154 H   0  0  0  0  0  0  0  0  0  0  0  0
   -9.8497    6.3490   -4.0691 H   0  0  0  0  0  0  0  0  0  0  0  0
   -8.0559    6.2549   -4.0691 H   0  0  0  0  0  0  0  0  0  0  0  0
  -10.2646    7.6045   -0.7318 H   0  0  0  0  0  0  0  0  0  0  0  0
  -10.2078    8.5917   -2.2314 H   0  0  0  0  0  0  0  0  0  0  0  0
  -11.0517    7.0060   -2.2314 H   0  0  0  0  0  0  0  0  0  0  0  0
   -3.4712    9.2707   -2.2844 H   0  0  0  0  0  0  0  0  0  0  0  0
   -4.6675    9.7929   -0.2510 H   0  0  0  0  0  0  0  0  0  0  0  0
   -4.1876    8.2637    0.5155 H   0  0  0  0  0  0  0  0  0  0  0  0
   -3.0700   10.8304    1.0869 H   0  0  0  0  0  0  0  0  0  0  0  0
   -2.3339    9.3035    1.5671 H   0  0  0  0  0  0  0  0  0  0  0  0
   -2.3524   12.1510   -0.4595 H   0  0  0  0  0  0  0  0  0  0  0  0
   -1.2317   11.7134   -1.7933 H   0  0  0  0  0  0  0  0  0  0  0  0
   -2.9154   11.0877   -1.7933 H   0  0  0  0  0  0  0  0  0  0  0  0
   -0.0263    9.3943    0.8426 H   0  0  0  0  0  0  0  0  0  0  0  0
   -0.8718   11.6993    1.6283 H   0  0  0  0  0  0  0  0  0  0  0  0
    0.9036   11.2359    1.7771 H   0  0  0  0  0  0  0  0  0  0  0  0
    0.4025   13.6912    0.9661 H   0  0  0  0  0  0  0  0  0  0  0  0
    0.4165   11.5281   -2.4425 H   0  0  0  0  0  0  0  0  0  0  0  0
    3.3747   11.6207   -1.5843 H   0  0  0  0  0  0  0  0  0  0  0  0
    2.6872   10.7849   -3.0468 H   0  0  0  0  0  0  0  0  0  0  0  0
    3.7741   12.9332   -3.6199 H   0  0  0  0  0  0  0  0  0  0  0  0
    2.0038   12.9182   -3.9830 H   0  0  0  0  0  0  0  0  0  0  0  0
    2.5676   15.0282   -2.9889 H   0  0  0  0  0  0  0  0  0  0  0  0
    3.7680   13.3370   -1.0070 H   0  0  0  0  0  0  0  0  0  0  0  0
   -0.8819   14.5792   -2.0450 H   0  0  0  0  0  0  0  0  0  0  0  0
    0.2908   15.2655   -3.2200 H   0  0  0  0  0  0  0  0  0  0  0  0
   -0.0532   13.5024   -3.2200 H   0  0  0  0  0  0  0  0  0  0  0  0
    1.1970   15.0638    0.4181 H   0  0  0  0  0  0  0  0  0  0  0  0
    2.0867   16.0185   -0.8163 H   0  0  0  0  0  0  0  0  0  0  0  0
    0.2905   16.0025   -0.8163 H   0  0  0  0  0  0  0  0  0  0  0  0
    2.1417    9.8151    0.9122 H   0  0  0  0  0  0  0  0  0  0  0  0
    2.5738    8.7378   -0.4587 H   0  0  0  0  0  0  0  0  0  0  0  0
    3.1123   10.4515   -0.4587 H   0  0  0  0  0  0  0  0  0  0  0  0
    1.2708    9.2776   -2.8743 H   0  0  0  0  0  0  0  0  0  0  0  0
    0.9876    8.1060   -1.4669 H   0  0  0  0  0  0  0  0  0  0  0  0
   -1.0915    9.6940   -2.9971 H   0  0  0  0  0  0  0  0  0  0  0  0
   -0.8512    7.9032   -2.9468 H   0  0  0  0  0  0  0  0  0  0  0  0
   -1.3222    7.6961    0.7433 H   0  0  0  0  0  0  0  0  0  0  0  0
   -1.9113    6.6396   -0.5847 H   0  0  0  0  0  0  0  0  0  0  0  0
   -0.2109    7.2185   -0.5847 H   0  0  0  0  0  0  0  0  0  0  0  0
  1  2  1  0
  2  3  1  0
  3  4  1  0
  4  5  1  0
  5  6  1  0
  6  7  1  0
  7  8  1  0
  7  9  1  0
  2 10  1  0
 10 11  1  0
 11 12  1  0
 12 13  1  0
 13 14  1  6
 13 15  1  0
 15 16  1  0
 16 17  1  0
 17 18  2  0
 18 19  1  0
 19 20  1  0
 20 21  1  0
 21 22  1  0
 22 23  1  0
 22 24  1  0
 24 25  1  0
 24 26  1  0
 19 27  1  0
 27 28  1  1
 27 29  1  0
 29 30  1  0
 30 31  1  0
 31 32  1  1
  7  5  1  0
 31 10  1  0
 31 13  1  0
 27 15  1  0
 24 18  1  0
  1 33  1  0
  1 34  1  0
  1 35  1  0
  2 36  1  1
  3 37  1  0
  3 38  1  0
  4 39  1  0
  4 40  1  0
  5 41  1  1
  8 42  1  0
  8 43  1  0
  8 44  1  0
  9 45  1  0
  9 46  1  0
  9 47  1  0
 10 48  1  6
 11 49  1  0
 11 50  1  0
 12 51  1  0
 12 52  1  0
 14 53  1  0
 14 54  1  0
 14 55  1  0
 15 56  1  1
 16 57  1  0
 16 58  1  0
 17 59  1  0
 19 60  1  6
 20 61  1  0
 20 62  1  0
 21 63  1  0
 21 64  1  0
 22 65  1  6
 23 66  1  0
 25 67  1  0
 25 68  1  0
 25 69  1  0
 26 70  1  0
 26 71  1  0
 26 72  1  0
 28 73  1  0
 28 74  1  0
 28 75  1  0
 29 76  1  0
 29 77  1  0
 30 78  1  0
 30 79  1  0
 32 80  1  0
 32 81  1  0
 32 82  1  0
M  END
>  <meeko>  (9) 
{"is_sidechain": [false], "intermolecular_energy": 2.731, "internal_energy": -0.839}

$$$$
EPH_relaxed_0001_pdb2pqr_Repair_235_r2_0001_out
     RDKit          3D

 82 86  0  0  0  0  0  0  0  0999 V2000
   -0.8560   16.3480   -5.8380 C   0  0  0  0  0  0  0  0  0  0  0  0
    0.2320   15.6440   -6.6530 C   0  0  2  0  0  0  0  0  0  0  0  0
   -0.1730   15.4650   -8.1300 C   0  0  0  0  0  0  0  0  0  0  0  0
    0.4570   16.4950   -9.0700 C   0  0  0  0  0  0  0  0  0  0  0  0
    1.8560   16.1170   -9.4500 C   0  0  2  0  0  0  0  0  0  0  0  0
    2.3150   16.6820  -10.6850 O   0  0  0  0  0  0  0  0  0  0  0  0
    2.1930   15.2510  -10.6490 C   0  0  0  0  0  0  0  0  0  0  0  0
    1.1230   14.7090  -11.5450 C   0  0  0  0  0  0  0  0  0  0  0  0
    3.5060   14.5330  -10.6670 C   0  0  0  0  0  0  0  0  0  0  0  0
    0.5520   14.2900   -6.0320 C   0  0  1  0  0  0  0  0  0  0  0  0
    1.8180   13.6350   -6.6470 C   0  0  0  0  0  0  0  0  0  0  0  0
    2.5260   12.8670   -5.5010 C   0  0  0  0  0  0  0  0  0  0  0  0
    1.4850   12.8260   -4.3580 C   0  0  1  0  0  0  0  0  0  0  0  0
    0.5300   11.6480   -4.7270 C   0  0  0  0  0  0  0  0  0  0  0  0
    2.0550   12.6750   -2.9090 C   0  0  2  0  0  0  0  0  0  0  0  0
    2.8250   11.3700   -2.6440 C   0  0  0  0  0  0  0  0  0  0  0  0
    2.0000   10.2340   -2.1360 C   0  0  0  0  0  0  0  0  0  0  0  0
    0.7560   10.3350   -1.6330 C   0  0  0  0  0  0  0  0  0  0  0  0
    0.0910   11.7050   -1.4460 C   0  0  1  0  0  0  0  0  0  0  0  0
   -0.5570   11.7780   -0.0380 C   0  0  0  0  0  0  0  0  0  0  0  0
   -1.5180   10.6220    0.2250 C   0  0  0  0  0  0  0  0  0  0  0  0
   -0.8050    9.2790    0.0860 C   0  0  2  0  0  0  0  0  0  0  0  0
    0.1590    9.1590    1.1370 O   0  0  0  0  0  0  0  0  0  0  0  0
   -0.1060    9.0950   -1.2890 C   0  0  0  0  0  0  0  0  0  0  0  0
   -1.1740    8.9240   -2.3970 C   0  0  0  0  0  0  0  0  0  0  0  0
    0.6920    7.7640   -1.2450 C   0  0  0  0  0  0  0  0  0  0  0  0
    1.0010   12.9680   -1.7650 C   0  0  1  0  0  0  0  0  0  0  0  0
    1.8190   13.3670   -0.4990 C   0  0  0  0  0  0  0  0  0  0  0  0
    0.0770   14.1960   -2.1020 C   0  0  0  0  0  0  0  0  0  0  0  0
   -0.3550   14.3580   -3.5730 C   0  0  0  0  0  0  0  0  0  0  0  0
    0.8510   14.2560   -4.5120 C   0  0  2  0  0  0  0  0  0  0  0  0
    1.8190   15.4420   -4.1790 C   0  0  0  0  0  0  0  0  0  0  0  0
   -0.6530   16.2167   -4.7649 H   0  0  0  0  0  0  0  0  0  0  0  0
   -0.8604   17.4206   -6.0817 H   0  0  0  0  0  0  0  0  0  0  0  0
   -1.8363   15.9125   -6.0817 H   0  0  0  0  0  0  0  0  0  0  0  0
    1.1271   16.2830   -6.6320 H   0  0  0  0  0  0  0  0  0  0  0  0
    0.1378   14.4615   -8.4561 H   0  0  0  0  0  0  0  0  0  0  0  0
   -1.2627   15.6052   -8.1837 H   0  0  0  0  0  0  0  0  0  0  0  0
   -0.1535   16.5651   -9.9824 H   0  0  0  0  0  0  0  0  0  0  0  0
    0.4938   17.4607   -8.5447 H   0  0  0  0  0  0  0  0  0  0  0  0
    2.1522   16.0598   -8.3922 H   0  0  0  0  0  0  0  0  0  0  0  0
    0.3073   14.2958  -10.9336 H   0  0  0  0  0  0  0  0  0  0  0  0
    0.7319   15.5177  -12.1799 H   0  0  0  0  0  0  0  0  0  0  0  0
    1.5436   13.9153  -12.1799 H   0  0  0  0  0  0  0  0  0  0  0  0
    3.8386   14.3511   -9.6344 H   0  0  0  0  0  0  0  0  0  0  0  0
    3.3913   13.5721  -11.1899 H   0  0  0  0  0  0  0  0  0  0  0  0
    4.2531   15.1481  -11.1899 H   0  0  0  0  0  0  0  0  0  0  0  0
   -0.3914   13.7644   -6.2414 H   0  0  0  0  0  0  0  0  0  0  0  0
    1.5325   12.9390   -7.4496 H   0  0  0  0  0  0  0  0  0  0  0  0
    2.4833   14.3946   -7.0833 H   0  0  0  0  0  0  0  0  0  0  0  0
    2.7910   11.8487   -5.8216 H   0  0  0  0  0  0  0  0  0  0  0  0
    3.4651   13.3499   -5.1930 H   0  0  0  0  0  0  0  0  0  0  0  0
    0.1512   11.1808   -3.8060 H   0  0  0  0  0  0  0  0  0  0  0  0
   -0.3148   12.0321   -5.3175 H   0  0  0  0  0  0  0  0  0  0  0  0
    1.0805   10.9009   -5.3175 H   0  0  0  0  0  0  0  0  0  0  0  0
    2.8055   13.4780   -2.8647 H   0  0  0  0  0  0  0  0  0  0  0  0
    3.2935   11.0543   -3.5878 H   0  0  0  0  0  0  0  0  0  0  0  0
    3.5485   11.6001   -1.8480 H   0  0  0  0  0  0  0  0  0  0  0  0
    2.4468    9.2297   -2.1763 H   0  0  0  0  0  0  0  0  0  0  0  0
   -0.6878   11.7726   -2.2199 H   0  0  0  0  0  0  0  0  0  0  0  0
    0.2407   11.7525    0.7190 H   0  0  0  0  0  0  0  0  0  0  0  0
   -1.1359   12.7119    0.0149 H   0  0  0  0  0  0  0  0  0  0  0  0
   -1.9199   10.7126    1.2449 H   0  0  0  0  0  0  0  0  0  0  0  0
   -2.3318   10.6662   -0.5138 H   0  0  0  0  0  0  0  0  0  0  0  0
   -1.5691    8.4908    0.1555 H   0  0  0  0  0  0  0  0  0  0  0  0
   -0.3260    9.0050    1.9650 H   0  0  0  0  0  0  0  0  0  0  0  0
   -2.1597    8.7662   -1.9349 H   0  0  0  0  0  0  0  0  0  0  0  0
   -1.2025    9.8290   -3.0216 H   0  0  0  0  0  0  0  0  0  0  0  0
   -0.9185    8.0553   -3.0216 H   0  0  0  0  0  0  0  0  0  0  0  0
    0.8654    7.4749   -0.1979 H   0  0  0  0  0  0  0  0  0  0  0  0
    0.1177    6.9752   -1.7529 H   0  0  0  0  0  0  0  0  0  0  0  0
    1.6583    7.8989   -1.7529 H   0  0  0  0  0  0  0  0  0  0  0  0
    1.2545   13.0917    0.4041 H   0  0  0  0  0  0  0  0  0  0  0  0
    2.7835   12.8382   -0.5040 H   0  0  0  0  0  0  0  0  0  0  0  0
    1.9960   14.4526   -0.5040 H   0  0  0  0  0  0  0  0  0  0  0  0
   -0.8359   14.1019   -1.4955 H   0  0  0  0  0  0  0  0  0  0  0  0
    0.6873   15.0843   -1.8818 H   0  0  0  0  0  0  0  0  0  0  0  0
   -1.0760   13.5666   -3.8257 H   0  0  0  0  0  0  0  0  0  0  0  0
   -0.8137   15.3501   -3.6971 H   0  0  0  0  0  0  0  0  0  0  0  0
    1.9062   15.5488   -3.0877 H   0  0  0  0  0  0  0  0  0  0  0  0
    2.8110   15.2371   -4.6078 H   0  0  0  0  0  0  0  0  0  0  0  0
    1.4194   16.3729   -4.6078 H   0  0  0  0  0  0  0  0  0  0  0  0
  1  2  1  0
  2  3  1  0
  3  4  1  0
  4  5  1  0
  5  6  1  0
  6  7  1  0
  7  8  1  0
  7  9  1  0
  2 10  1  0
 10 11  1  0
 11 12  1  0
 12 13  1  0
 13 14  1  6
 13 15  1  0
 15 16  1  0
 16 17  1  0
 17 18  2  0
 18 19  1  0
 19 20  1  0
 20 21  1  0
 21 22  1  0
 22 23  1  0
 22 24  1  0
 24 25  1  0
 24 26  1  0
 19 27  1  0
 27 28  1  1
 27 29  1  0
 29 30  1  0
 30 31  1  0
 31 32  1  1
  7  5  1  0
 31 10  1  0
 31 13  1  0
 27 15  1  0
 24 18  1  0
  1 33  1  0
  1 34  1  0
  1 35  1  0
  2 36  1  6
  3 37  1  0
  3 38  1  0
  4 39  1  0
  4 40  1  0
  5 41  1  1
  8 42  1  0
  8 43  1  0
  8 44  1  0
  9 45  1  0
  9 46  1  0
  9 47  1  0
 10 48  1  1
 11 49  1  0
 11 50  1  0
 12 51  1  0
 12 52  1  0
 14 53  1  0
 14 54  1  0
 14 55  1  0
 15 56  1  6
 16 57  1  0
 16 58  1  0
 17 59  1  0
 19 60  1  6
 20 61  1  0
 20 62  1  0
 21 63  1  0
 21 64  1  0
 22 65  1  1
 23 66  1  0
 25 67  1  0
 25 68  1  0
 25 69  1  0
 26 70  1  0
 26 71  1  0
 26 72  1  0
 28 73  1  0
 28 74  1  0
 28 75  1  0
 29 76  1  0
 29 77  1  0
 30 78  1  0
 30 79  1  0
 32 80  1  0
 32 81  1  0
 32 82  1  0
M  END
>  <meeko>  (10) 
{"is_sidechain": [false], "intermolecular_energy": 2.731, "internal_energy": -0.839}

$$$$
EPH_relaxed_0001_pdb2pqr_Repair_235_r2_0001_out
     RDKit          3D

 82 86  0  0  0  0  0  0  0  0999 V2000
   -0.2950   15.1290   -7.5990 C   0  0  0  0  0  0  0  0  0  0  0  0
    1.0900   15.0810   -6.9490 C   0  0  2  0  0  0  0  0  0  0  0  0
    2.2240   15.1580   -7.9920 C   0  0  0  0  0  0  0  0  0  0  0  0
    2.2480   16.4700   -8.7800 C   0  0  0  0  0  0  0  0  0  0  0  0
    1.8500   16.2650  -10.2100 C   0  0  2  0  0  0  0  0  0  0  0  0
    1.2030   15.0140  -10.4780 O   0  0  0  0  0  0  0  0  0  0  0  0
    2.4770   15.2170  -11.1110 C   0  0  0  0  0  0  0  0  0  0  0  0
    3.5550   14.3050  -10.6150 C   0  0  0  0  0  0  0  0  0  0  0  0
    2.3910   15.4040  -12.5940 C   0  0  0  0  0  0  0  0  0  0  0  0
    1.2310   13.8110   -6.1190 C   0  0  1  0  0  0  0  0  0  0  0  0
    2.6590   13.2070   -6.1890 C   0  0  0  0  0  0  0  0  0  0  0  0
    2.9530   12.5930   -4.7960 C   0  0  0  0  0  0  0  0  0  0  0  0
    1.5810   12.5670   -4.0830 C   0  0  1  0  0  0  0  0  0  0  0  0
    0.8670   11.2930   -4.6330 C   0  0  0  0  0  0  0  0  0  0  0  0
    1.6150   12.5810   -2.5200 C   0  0  2  0  0  0  0  0  0  0  0  0
    2.2990   11.3650   -1.8710 C   0  0  0  0  0  0  0  0  0  0  0  0
    1.3980   10.2150   -1.5620 C   0  0  0  0  0  0  0  0  0  0  0  0
    0.0530   10.2620   -1.5310 C   0  0  0  0  0  0  0  0  0  0  0  0
   -0.6940   11.5880   -1.7280 C   0  0  1  0  0  0  0  0  0  0  0  0
   -1.7950   11.7280   -0.6450 C   0  0  0  0  0  0  0  0  0  0  0  0
   -2.7370   10.5270   -0.6090 C   0  0  0  0  0  0  0  0  0  0  0  0
   -1.9640    9.2360   -0.3530 C   0  0  2  0  0  0  0  0  0  0  0  0
   -1.4230    9.2770    0.9710 O   0  0  0  0  0  0  0  0  0  0  0  0
   -0.8200    8.9930   -1.3770 C   0  0  0  0  0  0  0  0  0  0  0  0
   -1.4250    8.6490   -2.7610 C   0  0  0  0  0  0  0  0  0  0  0  0
   -0.0320    7.7340   -0.9230 C   0  0  0  0  0  0  0  0  0  0  0  0
    0.2160   12.8860   -1.8440 C   0  0  1  0  0  0  0  0  0  0  0  0
    0.5220   13.4500   -0.4230 C   0  0  0  0  0  0  0  0  0  0  0  0
   -0.5840   14.0080   -2.6050 C   0  0  0  0  0  0  0  0  0  0  0  0
   -0.4810   14.0140   -4.1420 C   0  0  0  0  0  0  0  0  0  0  0  0
    0.9800   13.9270   -4.5940 C   0  0  2  0  0  0  0  0  0  0  0  0
    1.7190   15.2070   -4.0740 C   0  0  0  0  0  0  0  0  0  0  0  0
   -1.0669   15.1558   -6.8158 H   0  0  0  0  0  0  0  0  0  0  0  0
   -0.3756   16.0305   -8.2242 H   0  0  0  0  0  0  0  0  0  0  0  0
   -0.4378   14.2353   -8.2242 H   0  0  0  0  0  0  0  0  0  0  0  0
    1.1804   15.9626   -6.2974 H   0  0  0  0  0  0  0  0  0  0  0  0
    3.1853   15.0499   -7.4683 H   0  0  0  0  0  0  0  0  0  0  0  0
    2.0481   14.3505   -8.7179 H   0  0  0  0  0  0  0  0  0  0  0  0
    1.5483   17.1790   -8.3133 H   0  0  0  0  0  0  0  0  0  0  0  0
    3.2758   16.8615   -8.7629 H   0  0  0  0  0  0  0  0  0  0  0  0
    1.6780   17.3435  -10.3413 H   0  0  0  0  0  0  0  0  0  0  0  0
    3.5567   14.3036   -9.5150 H   0  0  0  0  0  0  0  0  0  0  0  0
    3.3702   13.2849  -10.9827 H   0  0  0  0  0  0  0  0  0  0  0  0
    4.5304   14.6562  -10.9827 H   0  0  0  0  0  0  0  0  0  0  0  0
    1.9407   16.3831  -12.8146 H   0  0  0  0  0  0  0  0  0  0  0  0
    3.4005   15.3584  -13.0285 H   0  0  0  0  0  0  0  0  0  0  0  0
    1.7686   14.6079  -13.0285 H   0  0  0  0  0  0  0  0  0  0  0  0
    0.4451   13.1980   -6.5844 H   0  0  0  0  0  0  0  0  0  0  0  0
    2.7031   12.4273   -6.9637 H   0  0  0  0  0  0  0  0  0  0  0  0
    3.4015   13.9767   -6.4463 H   0  0  0  0  0  0  0  0  0  0  0  0
    3.3569   11.5749   -4.8979 H   0  0  0  0  0  0  0  0  0  0  0  0
    3.7031   13.1705   -4.2358 H   0  0  0  0  0  0  0  0  0  0  0  0
    0.5205   10.6748   -3.7917 H   0  0  0  0  0  0  0  0  0  0  0  0
    0.0051   11.5922   -5.2475 H   0  0  0  0  0  0  0  0  0  0  0  0
    1.5721   10.7140   -5.2475 H   0  0  0  0  0  0  0  0  0  0  0  0
    2.2677   13.4402   -2.3061 H   0  0  0  0  0  0  0  0  0  0  0  0
    3.0813   11.0088   -2.5574 H   0  0  0  0  0  0  0  0  0  0  0  0
    2.6874   11.7153   -0.9033 H   0  0  0  0  0  0  0  0  0  0  0  0
    1.8734    9.2479   -1.3411 H   0  0  0  0  0  0  0  0  0  0  0  0
   -1.1559   11.5313   -2.7247 H   0  0  0  0  0  0  0  0  0  0  0  0
   -1.3119   11.8268    0.3383 H   0  0  0  0  0  0  0  0  0  0  0  0
   -2.3954   12.6159   -0.8921 H   0  0  0  0  0  0  0  0  0  0  0  0
   -3.4737   10.6711    0.1950 H   0  0  0  0  0  0  0  0  0  0  0  0
   -3.2419   10.4471   -1.5830 H   0  0  0  0  0  0  0  0  0  0  0  0
   -2.6706    8.4008   -0.4680 H   0  0  0  0  0  0  0  0  0  0  0  0
   -0.9280   10.1090    1.0610 H   0  0  0  0  0  0  0  0  0  0  0  0
   -2.3736    8.1096   -2.6227 H   0  0  0  0  0  0  0  0  0  0  0  0
   -1.6094    9.5773   -3.3215 H   0  0  0  0  0  0  0  0  0  0  0  0
   -0.7215    8.0158   -3.3215 H   0  0  0  0  0  0  0  0  0  0  0  0
   -0.0068    7.6937    0.1760 H   0  0  0  0  0  0  0  0  0  0  0  0
   -0.5269    6.8318   -1.3117 H   0  0  0  0  0  0  0  0  0  0  0  0
    0.9958    7.7848   -1.3117 H   0  0  0  0  0  0  0  0  0  0  0  0
    0.1432   12.7518    0.3380 H   0  0  0  0  0  0  0  0  0  0  0  0
    1.6088   13.5697   -0.3022 H   0  0  0  0  0  0  0  0  0  0  0  0
    0.0299   14.4263   -0.3022 H   0  0  0  0  0  0  0  0  0  0  0  0
   -1.6464   13.8949   -2.3432 H   0  0  0  0  0  0  0  0  0  0  0  0
   -0.1279   14.9556   -2.2824 H   0  0  0  0  0  0  0  0  0  0  0  0
   -1.0337   13.1516   -4.5430 H   0  0  0  0  0  0  0  0  0  0  0  0
   -0.9092   14.9547   -4.5185 H   0  0  0  0  0  0  0  0  0  0  0  0
    1.7198   15.2085   -2.9740 H   0  0  0  0  0  0  0  0  0  0  0  0
    2.7558   15.2065   -4.4415 H   0  0  0  0  0  0  0  0  0  0  0  0
    1.2002   16.1047   -4.4415 H   0  0  0  0  0  0  0  0  0  0  0  0
  1  2  1  0
  2  3  1  0
  3  4  1  0
  4  5  1  0
  5  6  1  0
  6  7  1  0
  7  8  1  0
  7  9  1  0
  2 10  1  0
 10 11  1  0
 11 12  1  0
 12 13  1  0
 13 14  1  1
 13 15  1  0
 15 16  1  0
 16 17  1  0
 17 18  2  0
 18 19  1  0
 19 20  1  0
 20 21  1  0
 21 22  1  0
 22 23  1  0
 22 24  1  0
 24 25  1  0
 24 26  1  0
 19 27  1  0
 27 28  1  1
 27 29  1  0
 29 30  1  0
 30 31  1  0
 31 32  1  1
  7  5  1  0
 31 10  1  0
 31 13  1  0
 27 15  1  0
 24 18  1  0
  1 33  1  0
  1 34  1  0
  1 35  1  0
  2 36  1  1
  3 37  1  0
  3 38  1  0
  4 39  1  0
  4 40  1  0
  5 41  1  6
  8 42  1  0
  8 43  1  0
  8 44  1  0
  9 45  1  0
  9 46  1  0
  9 47  1  0
 10 48  1  6
 11 49  1  0
 11 50  1  0
 12 51  1  0
 12 52  1  0
 14 53  1  0
 14 54  1  0
 14 55  1  0
 15 56  1  6
 16 57  1  0
 16 58  1  0
 17 59  1  0
 19 60  1  6
 20 61  1  0
 20 62  1  0
 21 63  1  0
 21 64  1  0
 22 65  1  1
 23 66  1  0
 25 67  1  0
 25 68  1  0
 25 69  1  0
 26 70  1  0
 26 71  1  0
 26 72  1  0
 28 73  1  0
 28 74  1  0
 28 75  1  0
 29 76  1  0
 29 77  1  0
 30 78  1  0
 30 79  1  0
 32 80  1  0
 32 81  1  0
 32 82  1  0
M  END
>  <meeko>  (11) 
{"is_sidechain": [false], "intermolecular_energy": 2.731, "internal_energy": -0.839}

$$$$
EPH_relaxed_0001_pdb2pqr_Repair_235_r2_0001_out
     RDKit          3D

 82 86  0  0  0  0  0  0  0  0999 V2000
   -2.2310    7.7610   -2.2120 C   0  0  0  0  0  0  0  0  0  0  0  0
   -2.2900    8.4120   -0.8280 C   0  0  2  0  0  0  0  0  0  0  0  0
   -3.7140    8.3930   -0.2370 C   0  0  0  0  0  0  0  0  0  0  0  0
   -4.8030    8.0790   -1.2660 C   0  0  0  0  0  0  0  0  0  0  0  0
   -5.9230    7.2860   -0.6630 C   0  0  2  0  0  0  0  0  0  0  0  0
   -6.2610    6.0900   -1.3780 O   0  0  0  0  0  0  0  0  0  0  0  0
   -7.2750    7.1070   -1.3290 C   0  0  0  0  0  0  0  0  0  0  0  0
   -7.5780    7.7280   -2.6570 C   0  0  0  0  0  0  0  0  0  0  0  0
   -8.4500    6.7470   -0.4760 C   0  0  0  0  0  0  0  0  0  0  0  0
   -1.7780    9.8460   -0.9060 C   0  0  1  0  0  0  0  0  0  0  0  0
   -1.3900   10.4190    0.4830 C   0  0  0  0  0  0  0  0  0  0  0  0
   -0.1720   11.3510    0.2580 C   0  0  0  0  0  0  0  0  0  0  0  0
   -0.1080   11.5460   -1.2750 C   0  0  1  0  0  0  0  0  0  0  0  0
   -1.1690   12.6480   -1.5850 C   0  0  0  0  0  0  0  0  0  0  0  0
    1.2930   11.9100   -1.8670 C   0  0  2  0  0  0  0  0  0  0  0  0
    1.8780   13.2480   -1.3820 C   0  0  0  0  0  0  0  0  0  0  0  0
    1.5290   14.4360   -2.2160 C   0  0  0  0  0  0  0  0  0  0  0  0
    1.0170   14.3960   -3.4600 C   0  0  0  0  0  0  0  0  0  0  0  0
    0.8300   13.0600   -4.1920 C   0  0  1  0  0  0  0  0  0  0  0  0
    1.3690   13.1840   -5.6410 C   0  0  0  0  0  0  0  0  0  0  0  0
    0.7500   14.3550   -6.3980 C   0  0  0  0  0  0  0  0  0  0  0  0
    1.0070   15.6720   -5.6690 C   0  0  2  0  0  0  0  0  0  0  0  0
    2.4100   15.9530   -5.7060 O   0  0  0  0  0  0  0  0  0  0  0  0
    0.5140   15.6630   -4.1950 C   0  0  0  0  0  0  0  0  0  0  0  0
   -1.0340   15.6610   -4.1640 C   0  0  0  0  0  0  0  0  0  0  0  0
    0.9600   16.9950   -3.5350 C   0  0  0  0  0  0  0  0  0  0  0  0
    1.3860   11.7750   -3.4410 C   0  0  1  0  0  0  0  0  0  0  0  0
    2.8940   11.5710   -3.7810 C   0  0  0  0  0  0  0  0  0  0  0  0
    0.6340   10.5000   -3.9780 C   0  0  0  0  0  0  0  0  0  0  0  0
   -0.6840   10.1230   -3.2730 C   0  0  0  0  0  0  0  0  0  0  0  0
   -0.5050   10.1010   -1.7520 C   0  0  2  0  0  0  0  0  0  0  0  0
    0.5400    8.9870   -1.4090 C   0  0  0  0  0  0  0  0  0  0  0  0
   -2.1322    6.6711   -2.1006 H   0  0  0  0  0  0  0  0  0  0  0  0
   -3.1537    7.9909   -2.7650 H   0  0  0  0  0  0  0  0  0  0  0  0
   -1.3647    8.1531   -2.7650 H   0  0  0  0  0  0  0  0  0  0  0  0
   -1.6467    7.8229   -0.1579 H   0  0  0  0  0  0  0  0  0  0  0  0
   -3.7519    7.6286    0.5531 H   0  0  0  0  0  0  0  0  0  0  0  0
   -3.9163    9.4038    0.1470 H   0  0  0  0  0  0  0  0  0  0  0  0
   -5.2063    9.0243   -1.6581 H   0  0  0  0  0  0  0  0  0  0  0  0
   -4.3522    7.4791   -2.0703 H   0  0  0  0  0  0  0  0  0  0  0  0
   -5.6363    7.6058    0.3497 H   0  0  0  0  0  0  0  0  0  0  0  0
   -8.0556    8.7069   -2.5036 H   0  0  0  0  0  0  0  0  0  0  0  0
   -6.6433    7.8605   -3.2216 H   0  0  0  0  0  0  0  0  0  0  0  0
   -8.2577    7.0728   -3.2216 H   0  0  0  0  0  0  0  0  0  0  0  0
   -8.1726    6.8320    0.5850 H   0  0  0  0  0  0  0  0  0  0  0  0
   -9.2838    7.4309   -0.6929 H   0  0  0  0  0  0  0  0  0  0  0  0
   -8.7576    5.7134   -0.6929 H   0  0  0  0  0  0  0  0  0  0  0  0
   -2.6472   10.3265   -1.3789 H   0  0  0  0  0  0  0  0  0  0  0  0
   -2.2303   10.9893    0.9057 H   0  0  0  0  0  0  0  0  0  0  0  0
   -1.1445    9.6117    1.1887 H   0  0  0  0  0  0  0  0  0  0  0  0
   -0.3216   12.3150    0.7662 H   0  0  0  0  0  0  0  0  0  0  0  0
    0.7583   10.9270    0.6638 H   0  0  0  0  0  0  0  0  0  0  0  0
   -1.5611   13.0553   -0.6414 H   0  0  0  0  0  0  0  0  0  0  0  0
   -0.6998   13.4556   -2.1660 H   0  0  0  0  0  0  0  0  0  0  0  0
   -1.9938   12.2098   -2.1660 H   0  0  0  0  0  0  0  0  0  0  0  0
    1.9400   11.1291   -1.4409 H   0  0  0  0  0  0  0  0  0  0  0  0
    1.5106   13.4295   -0.3612 H   0  0  0  0  0  0  0  0  0  0  0  0
    2.9712   13.1428   -1.4445 H   0  0  0  0  0  0  0  0  0  0  0  0
    1.7054   15.4287   -1.7762 H   0  0  0  0  0  0  0  0  0  0  0  0
   -0.2537   12.8727   -4.2123 H   0  0  0  0  0  0  0  0  0  0  0  0
    2.4589   13.3270   -5.6006 H   0  0  0  0  0  0  0  0  0  0  0  0
    1.1009   12.2614   -6.1767 H   0  0  0  0  0  0  0  0  0  0  0  0
    1.1923   14.4078   -7.4038 H   0  0  0  0  0  0  0  0  0  0  0  0
   -0.3364   14.1960   -6.4639 H   0  0  0  0  0  0  0  0  0  0  0  0
    0.4316   16.4535   -6.1867 H   0  0  0  0  0  0  0  0  0  0  0  0
    2.8730   15.1160   -5.8790 H   0  0  0  0  0  0  0  0  0  0  0  0
   -1.3798   15.6606   -3.1198 H   0  0  0  0  0  0  0  0  0  0  0  0
   -1.4121   16.5587   -4.6751 H   0  0  0  0  0  0  0  0  0  0  0  0
   -1.4098   14.7624   -4.6751 H   0  0  0  0  0  0  0  0  0  0  0  0
    0.9253   16.8915   -2.4404 H   0  0  0  0  0  0  0  0  0  0  0  0
    1.9871   17.2336   -3.8484 H   0  0  0  0  0  0  0  0  0  0  0  0
    0.2837   17.8040   -3.8484 H   0  0  0  0  0  0  0  0  0  0  0  0
    3.4727   11.4927   -2.8488 H   0  0  0  0  0  0  0  0  0  0  0  0
    3.0162   10.6481   -4.3670 H   0  0  0  0  0  0  0  0  0  0  0  0
    3.2570   12.4282   -4.3670 H   0  0  0  0  0  0  0  0  0  0  0  0
    0.4062   10.6707   -5.0405 H   0  0  0  0  0  0  0  0  0  0  0  0
    1.3161    9.6594   -3.7825 H   0  0  0  0  0  0  0  0  0  0  0  0
   -1.4559   10.8620   -3.5339 H   0  0  0  0  0  0  0  0  0  0  0  0
   -0.9849    9.1185   -3.6054 H   0  0  0  0  0  0  0  0  0  0  0  0
    0.6293    8.8918   -0.3168 H   0  0  0  0  0  0  0  0  0  0  0  0
    0.2074    8.0287   -1.8346 H   0  0  0  0  0  0  0  0  0  0  0  0
    1.5175    9.2577   -1.8346 H   0  0  0  0  0  0  0  0  0  0  0  0
  1  2  1  0
  2  3  1  0
  3  4  1  0
  4  5  1  0
  5  6  1  0
  6  7  1  0
  7  8  1  0
  7  9  1  0
  2 10  1  0
 10 11  1  0
 11 12  1  0
 12 13  1  0
 13 14  1  6
 13 15  1  0
 15 16  1  0
 16 17  1  0
 17 18  2  0
 18 19  1  0
 19 20  1  0
 20 21  1  0
 21 22  1  0
 22 23  1  0
 22 24  1  0
 24 25  1  0
 24 26  1  0
 19 27  1  0
 27 28  1  1
 27 29  1  0
 29 30  1  0
 30 31  1  0
 31 32  1  6
  7  5  1  0
 31 10  1  0
 31 13  1  0
 27 15  1  0
 24 18  1  0
  1 33  1  0
  1 34  1  0
  1 35  1  0
  2 36  1  1
  3 37  1  0
  3 38  1  0
  4 39  1  0
  4 40  1  0
  5 41  1  1
  8 42  1  0
  8 43  1  0
  8 44  1  0
  9 45  1  0
  9 46  1  0
  9 47  1  0
 10 48  1  6
 11 49  1  0
 11 50  1  0
 12 51  1  0
 12 52  1  0
 14 53  1  0
 14 54  1  0
 14 55  1  0
 15 56  1  1
 16 57  1  0
 16 58  1  0
 17 59  1  0
 19 60  1  6
 20 61  1  0
 20 62  1  0
 21 63  1  0
 21 64  1  0
 22 65  1  6
 23 66  1  0
 25 67  1  0
 25 68  1  0
 25 69  1  0
 26 70  1  0
 26 71  1  0
 26 72  1  0
 28 73  1  0
 28 74  1  0
 28 75  1  0
 29 76  1  0
 29 77  1  0
 30 78  1  0
 30 79  1  0
 32 80  1  0
 32 81  1  0
 32 82  1  0
M  END
>  <meeko>  (12) 
{"is_sidechain": [false], "intermolecular_energy": 2.731, "internal_energy": -0.839}

$$$$
EPH_relaxed_0001_pdb2pqr_Repair_235_r2_0001_out
     RDKit          3D

 82 86  0  0  0  0  0  0  0  0999 V2000
    0.0780   10.7760   -4.3850 C   0  0  0  0  0  0  0  0  0  0  0  0
    0.9050   10.3490   -3.1690 C   0  0  2  0  0  0  0  0  0  0  0  0
    0.2930    9.1300   -2.4500 C   0  0  0  0  0  0  0  0  0  0  0  0
   -0.9250    9.4710   -1.5870 C   0  0  0  0  0  0  0  0  0  0  0  0
   -0.5630    9.5830   -0.1370 C   0  0  2  0  0  0  0  0  0  0  0  0
   -1.6770    9.7680    0.7460 O   0  0  0  0  0  0  0  0  0  0  0  0
   -0.7380   10.8530    0.6740 C   0  0  0  0  0  0  0  0  0  0  0  0
   -1.2950   12.1000    0.0600 C   0  0  0  0  0  0  0  0  0  0  0  0
    0.0780   11.0280    1.9160 C   0  0  0  0  0  0  0  0  0  0  0  0
    1.0390   11.5140   -2.1970 C   0  0  1  0  0  0  0  0  0  0  0  0
    2.1660   11.2950   -1.1530 C   0  0  0  0  0  0  0  0  0  0  0  0
    2.7920   12.6850   -0.8710 C   0  0  0  0  0  0  0  0  0  0  0  0
    1.8010   13.6930   -1.4990 C   0  0  1  0  0  0  0  0  0  0  0  0
    0.6650   13.8510   -0.4400 C   0  0  0  0  0  0  0  0  0  0  0  0
    2.3960   15.0770   -1.9180 C   0  0  2  0  0  0  0  0  0  0  0  0
    2.9690   15.9170   -0.7630 C   0  0  0  0  0  0  0  0  0  0  0  0
    2.0010   16.8470   -0.1100 C   0  0  0  0  0  0  0  0  0  0  0  0
    0.8060   17.2120   -0.6110 C   0  0  0  0  0  0  0  0  0  0  0  0
    0.3640   16.7520   -2.0060 C   0  0  1  0  0  0  0  0  0  0  0  0
   -0.2110   17.9600   -2.7920 C   0  0  0  0  0  0  0  0  0  0  0  0
   -1.3250   18.6740   -2.0330 C   0  0  0  0  0  0  0  0  0  0  0  0
   -0.8310   19.1680   -0.6750 C   0  0  2  0  0  0  0  0  0  0  0  0
    0.1430   20.1940   -0.8850 O   0  0  0  0  0  0  0  0  0  0  0  0
   -0.2200   18.0390    0.2020 C   0  0  0  0  0  0  0  0  0  0  0  0
   -1.3430   17.0850    0.6790 C   0  0  0  0  0  0  0  0  0  0  0  0
    0.3670   18.6930    1.4810 C   0  0  0  0  0  0  0  0  0  0  0  0
    1.4440   15.9390   -2.8430 C   0  0  1  0  0  0  0  0  0  0  0  0
    2.3600   16.9250   -3.6300 C   0  0  0  0  0  0  0  0  0  0  0  0
    0.7040   15.0620   -3.9220 C   0  0  0  0  0  0  0  0  0  0  0  0
    0.2470   13.6580   -3.4820 C   0  0  0  0  0  0  0  0  0  0  0  0
    1.3860   12.9020   -2.7920 C   0  0  2  0  0  0  0  0  0  0  0  0
    2.5350   12.7090   -3.8400 C   0  0  0  0  0  0  0  0  0  0  0  0
   -0.8518   11.2561   -4.0458 H   0  0  0  0  0  0  0  0  0  0  0  0
    0.6579   11.4874   -4.9913 H   0  0  0  0  0  0  0  0  0  0  0  0
   -0.1662    9.8913   -4.9913 H   0  0  0  0  0  0  0  0  0  0  0  0
    1.8999   10.0524   -3.5327 H   0  0  0  0  0  0  0  0  0  0  0  0
   -0.0145    8.3969   -3.2102 H   0  0  0  0  0  0  0  0  0  0  0  0
    1.0653    8.7350   -1.7736 H   0  0  0  0  0  0  0  0  0  0  0  0
   -1.3441   10.4303   -1.9249 H   0  0  0  0  0  0  0  0  0  0  0  0
   -1.6600    8.6598   -1.6953 H   0  0  0  0  0  0  0  0  0  0  0  0
    0.2949    8.9086   -0.2755 H   0  0  0  0  0  0  0  0  0  0  0  0
   -1.6048   12.7936    0.8556 H   0  0  0  0  0  0  0  0  0  0  0  0
   -0.5246   12.5775   -0.5633 H   0  0  0  0  0  0  0  0  0  0  0  0
   -2.1647   11.8449   -0.5633 H   0  0  0  0  0  0  0  0  0  0  0  0
   -0.5637   10.8904    2.7988 H   0  0  0  0  0  0  0  0  0  0  0  0
    0.8871   10.2830    1.9311 H   0  0  0  0  0  0  0  0  0  0  0  0
    0.5105   12.0393    1.9311 H   0  0  0  0  0  0  0  0  0  0  0  0
    0.0196   11.5261   -1.7839 H   0  0  0  0  0  0  0  0  0  0  0  0
    1.7477   10.8732   -0.2272 H   0  0  0  0  0  0  0  0  0  0  0  0
    2.9222   10.5909   -1.5305 H   0  0  0  0  0  0  0  0  0  0  0  0
    2.8864   12.8561    0.2115 H   0  0  0  0  0  0  0  0  0  0  0  0
    3.8049   12.7794   -1.2896 H   0  0  0  0  0  0  0  0  0  0  0  0
    1.0950   13.7912    0.5707 H   0  0  0  0  0  0  0  0  0  0  0  0
    0.1735   14.8262   -0.5722 H   0  0  0  0  0  0  0  0  0  0  0  0
   -0.0740   13.0470   -0.5722 H   0  0  0  0  0  0  0  0  0  0  0  0
    3.2601   14.7859   -2.5333 H   0  0  0  0  0  0  0  0  0  0  0  0
    3.3473   15.2260    0.0048 H   0  0  0  0  0  0  0  0  0  0  0  0
    3.7496   16.5524   -1.2068 H   0  0  0  0  0  0  0  0  0  0  0  0
    2.2887   17.2702    0.8637 H   0  0  0  0  0  0  0  0  0  0  0  0
   -0.4246   16.0027   -1.8427 H   0  0  0  0  0  0  0  0  0  0  0  0
    0.6018   18.6764   -2.9819 H   0  0  0  0  0  0  0  0  0  0  0  0
   -0.6387   17.5756   -3.7297 H   0  0  0  0  0  0  0  0  0  0  0  0
   -1.6699   19.5344   -2.6253 H   0  0  0  0  0  0  0  0  0  0  0  0
   -2.1492   17.9641   -1.8696 H   0  0  0  0  0  0  0  0  0  0  0  0
   -1.7030   19.5540   -0.1267 H   0  0  0  0  0  0  0  0  0  0  0  0
    0.2980   20.2620   -1.8420 H   0  0  0  0  0  0  0  0  0  0  0  0
   -1.3654   17.0659    1.7786 H   0  0  0  0  0  0  0  0  0  0  0  0
   -2.3121   17.4402    0.2986 H   0  0  0  0  0  0  0  0  0  0  0  0
   -1.1491   16.0713    0.2986 H   0  0  0  0  0  0  0  0  0  0  0  0
   -0.0653   18.2114    2.3705 H   0  0  0  0  0  0  0  0  0  0  0  0
    1.4596   18.5657    1.4896 H   0  0  0  0  0  0  0  0  0  0  0  0
    0.1228   19.7655    1.4896 H   0  0  0  0  0  0  0  0  0  0  0  0
    2.9317   17.5404   -2.9198 H   0  0  0  0  0  0  0  0  0  0  0  0
    3.0553   16.3538   -4.2627 H   0  0  0  0  0  0  0  0  0  0  0  0
    1.7393   17.5764   -4.2627 H   0  0  0  0  0  0  0  0  0  0  0  0
   -0.1892   15.6164   -4.2457 H   0  0  0  0  0  0  0  0  0  0  0  0
    1.4498   14.8875   -4.7115 H   0  0  0  0  0  0  0  0  0  0  0  0
   -0.5954   13.7568   -2.7816 H   0  0  0  0  0  0  0  0  0  0  0  0
   -0.0588   13.0929   -4.3748 H   0  0  0  0  0  0  0  0  0  0  0  0
    3.4878   12.5490   -3.3142 H   0  0  0  0  0  0  0  0  0  0  0  0
    2.3131   11.8355   -4.4707 H   0  0  0  0  0  0  0  0  0  0  0  0
    2.6106   13.6070   -4.4707 H   0  0  0  0  0  0  0  0  0  0  0  0
  1  2  1  0
  2  3  1  0
  3  4  1  0
  4  5  1  0
  5  6  1  0
  6  7  1  0
  7  8  1  0
  7  9  1  0
  2 10  1  0
 10 11  1  0
 11 12  1  0
 12 13  1  0
 13 14  1  1
 13 15  1  0
 15 16  1  0
 16 17  1  0
 17 18  2  0
 18 19  1  0
 19 20  1  0
 20 21  1  0
 21 22  1  0
 22 23  1  0
 22 24  1  0
 24 25  1  0
 24 26  1  0
 19 27  1  0
 27 28  1  6
 27 29  1  0
 29 30  1  0
 30 31  1  0
 31 32  1  6
  7  5  1  0
 31 10  1  0
 31 13  1  0
 27 15  1  0
 24 18  1  0
  1 33  1  0
  1 34  1  0
  1 35  1  0
  2 36  1  6
  3 37  1  0
  3 38  1  0
  4 39  1  0
  4 40  1  0
  5 41  1  1
  8 42  1  0
  8 43  1  0
  8 44  1  0
  9 45  1  0
  9 46  1  0
  9 47  1  0
 10 48  1  1
 11 49  1  0
 11 50  1  0
 12 51  1  0
 12 52  1  0
 14 53  1  0
 14 54  1  0
 14 55  1  0
 15 56  1  6
 16 57  1  0
 16 58  1  0
 17 59  1  0
 19 60  1  1
 20 61  1  0
 20 62  1  0
 21 63  1  0
 21 64  1  0
 22 65  1  1
 23 66  1  0
 25 67  1  0
 25 68  1  0
 25 69  1  0
 26 70  1  0
 26 71  1  0
 26 72  1  0
 28 73  1  0
 28 74  1  0
 28 75  1  0
 29 76  1  0
 29 77  1  0
 30 78  1  0
 30 79  1  0
 32 80  1  0
 32 81  1  0
 32 82  1  0
M  END
>  <meeko>  (13) 
{"is_sidechain": [false], "intermolecular_energy": 2.731, "internal_energy": -0.839}

$$$$
EPH_relaxed_0001_pdb2pqr_Repair_235_r2_0001_out
     RDKit          3D

 82 86  0  0  0  0  0  0  0  0999 V2000
    2.8550   11.3530   -5.3480 C   0  0  0  0  0  0  0  0  0  0  0  0
    1.8470   11.0520   -4.2360 C   0  0  2  0  0  0  0  0  0  0  0  0
    0.7260   10.1040   -4.7090 C   0  0  0  0  0  0  0  0  0  0  0  0
   -0.3460    9.8420   -3.6480 C   0  0  0  0  0  0  0  0  0  0  0  0
    0.1890    9.0320   -2.5060 C   0  0  2  0  0  0  0  0  0  0  0  0
   -0.6590    7.9560   -2.0860 O   0  0  0  0  0  0  0  0  0  0  0  0
   -0.4460    9.0060   -1.1290 C   0  0  0  0  0  0  0  0  0  0  0  0
   -1.6720    9.8060   -0.8200 C   0  0  0  0  0  0  0  0  0  0  0  0
    0.3960    8.5950    0.0400 C   0  0  0  0  0  0  0  0  0  0  0  0
    1.2450   12.3510   -3.7150 C   0  0  1  0  0  0  0  0  0  0  0  0
   -0.2960   12.2700   -3.5440 C   0  0  0  0  0  0  0  0  0  0  0  0
   -0.6540   13.1280   -2.3040 C   0  0  0  0  0  0  0  0  0  0  0  0
    0.6300   13.9350   -2.0030 C   0  0  1  0  0  0  0  0  0  0  0  0
    0.5930   15.1350   -3.0010 C   0  0  0  0  0  0  0  0  0  0  0  0
    0.8140   14.4170   -0.5270 C   0  0  2  0  0  0  0  0  0  0  0  0
   -0.2640   15.3920   -0.0200 C   0  0  0  0  0  0  0  0  0  0  0  0
    0.0340   16.8390   -0.2340 C   0  0  0  0  0  0  0  0  0  0  0  0
    1.2380   17.3520   -0.5480 C   0  0  0  0  0  0  0  0  0  0  0  0
    2.4810   16.4550   -0.6230 C   0  0  1  0  0  0  0  0  0  0  0  0
    3.6540   17.1320    0.1330 C   0  0  0  0  0  0  0  0  0  0  0  0
    3.9270   18.5500   -0.3590 C   0  0  0  0  0  0  0  0  0  0  0  0
    2.6860   19.4260   -0.2140 C   0  0  2  0  0  0  0  0  0  0  0  0
    2.4060   19.6020    1.1780 O   0  0  0  0  0  0  0  0  0  0  0  0
    1.4360   18.8400   -0.9280 C   0  0  0  0  0  0  0  0  0  0  0  0
    1.6230   18.9290   -2.4630 C   0  0  0  0  0  0  0  0  0  0  0  0
    0.2220   19.7460   -0.5860 C   0  0  0  0  0  0  0  0  0  0  0  0
    2.2700   14.9400   -0.1930 C   0  0  1  0  0  0  0  0  0  0  0  0
    2.4510   14.7950    1.3490 C   0  0  0  0  0  0  0  0  0  0  0  0
    3.3900   14.0560   -0.8570 C   0  0  0  0  0  0  0  0  0  0  0  0
    3.1000   13.5100   -2.2680 C   0  0  0  0  0  0  0  0  0  0  0  0
    1.7190   12.8480   -2.3260 C   0  0  2  0  0  0  0  0  0  0  0  0
    1.7340   11.6240   -1.3490 C   0  0  0  0  0  0  0  0  0  0  0  0
    3.8183   11.6407   -4.9016 H   0  0  0  0  0  0  0  0  0  0  0  0
    2.9925   10.4567   -5.9707 H   0  0  0  0  0  0  0  0  0  0  0  0
    2.4785   12.1779   -5.9707 H   0  0  0  0  0  0  0  0  0  0  0  0
    2.3900   10.5427   -3.4262 H   0  0  0  0  0  0  0  0  0  0  0  0
    0.2414   10.5511   -5.5895 H   0  0  0  0  0  0  0  0  0  0  0  0
    1.1974    9.1364   -4.9359 H   0  0  0  0  0  0  0  0  0  0  0  0
   -0.7083   10.8062   -3.2620 H   0  0  0  0  0  0  0  0  0  0  0  0
   -1.1617    9.2735   -4.1185 H   0  0  0  0  0  0  0  0  0  0  0  0
    1.2234    9.2042   -2.8382 H   0  0  0  0  0  0  0  0  0  0  0  0
   -1.7931    9.8850    0.2705 H   0  0  0  0  0  0  0  0  0  0  0  0
   -1.5713   10.8128   -1.2516 H   0  0  0  0  0  0  0  0  0  0  0  0
   -2.5530    9.3084   -1.2516 H   0  0  0  0  0  0  0  0  0  0  0  0
   -0.1252    8.8494    0.9747 H   0  0  0  0  0  0  0  0  0  0  0  0
    0.5717    7.5098    0.0018 H   0  0  0  0  0  0  0  0  0  0  0  0
    1.3597    9.1240    0.0018 H   0  0  0  0  0  0  0  0  0  0  0  0
    1.5892   13.0407   -4.4998 H   0  0  0  0  0  0  0  0  0  0  0  0
   -0.7978   12.6685   -4.4381 H   0  0  0  0  0  0  0  0  0  0  0  0
   -0.6245   11.2285   -3.4119 H   0  0  0  0  0  0  0  0  0  0  0  0
   -1.4931   13.8030   -2.5282 H   0  0  0  0  0  0  0  0  0  0  0  0
   -0.9697   12.5128   -1.4485 H   0  0  0  0  0  0  0  0  0  0  0  0
    0.5639   16.0795   -2.4379 H   0  0  0  0  0  0  0  0  0  0  0  0
    1.4922   15.1132   -3.6342 H   0  0  0  0  0  0  0  0  0  0  0  0
   -0.3032   15.0578   -3.6342 H   0  0  0  0  0  0  0  0  0  0  0  0
    0.6695   13.4884    0.0447 H   0  0  0  0  0  0  0  0  0  0  0  0
   -1.2051   15.1583   -0.5393 H   0  0  0  0  0  0  0  0  0  0  0  0
   -0.3152   15.2496    1.0695 H   0  0  0  0  0  0  0  0  0  0  0  0
   -0.8016   17.5462   -0.1258 H   0  0  0  0  0  0  0  0  0  0  0  0
    2.7279   16.3657   -1.6912 H   0  0  0  0  0  0  0  0  0  0  0  0
    3.4067   17.1720    1.2041 H   0  0  0  0  0  0  0  0  0  0  0  0
    4.5590   16.5347   -0.0518 H   0  0  0  0  0  0  0  0  0  0  0  0
    4.7458   18.9850    0.2328 H   0  0  0  0  0  0  0  0  0  0  0  0
    4.2029   18.5054   -1.4229 H   0  0  0  0  0  0  0  0  0  0  0  0
    2.9030   20.3885   -0.7004 H   0  0  0  0  0  0  0  0  0  0  0  0
    3.0310   19.0490    1.6770 H   0  0  0  0  0  0  0  0  0  0  0  0
    2.5953   19.3918   -2.6877 H   0  0  0  0  0  0  0  0  0  0  0  0
    1.5892   17.9182   -2.8957 H   0  0  0  0  0  0  0  0  0  0  0  0
    0.8173   19.5402   -2.8957 H   0  0  0  0  0  0  0  0  0  0  0  0
    0.1184   19.8233    0.5064 H   0  0  0  0  0  0  0  0  0  0  0  0
    0.3810   20.7480   -1.0111 H   0  0  0  0  0  0  0  0  0  0  0  0
   -0.6933   19.3084   -1.0111 H   0  0  0  0  0  0  0  0  0  0  0  0
    1.6932   15.4021    1.8658 H   0  0  0  0  0  0  0  0  0  0  0  0
    2.3322   13.7393    1.6345 H   0  0  0  0  0  0  0  0  0  0  0  0
    3.4553   15.1413    1.6345 H   0  0  0  0  0  0  0  0  0  0  0  0
    4.3031   14.6664   -0.9178 H   0  0  0  0  0  0  0  0  0  0  0  0
    3.4716   13.1660   -0.2157 H   0  0  0  0  0  0  0  0  0  0  0  0
    3.1318   14.3403   -2.9888 H   0  0  0  0  0  0  0  0  0  0  0  0
    3.8615   12.7559   -2.5160 H   0  0  0  0  0  0  0  0  0  0  0  0
    1.7296   11.9843   -0.3097 H   0  0  0  0  0  0  0  0  0  0  0  0
    0.8434   11.0030   -1.5256 H   0  0  0  0  0  0  0  0  0  0  0  0
    2.6396   11.0250   -1.5256 H   0  0  0  0  0  0  0  0  0  0  0  0
  1  2  1  0
  2  3  1  0
  3  4  1  0
  4  5  1  0
  5  6  1  0
  6  7  1  0
  7  8  1  0
  7  9  1  0
  2 10  1  0
 10 11  1  0
 11 12  1  0
 12 13  1  0
 13 14  1  6
 13 15  1  0
 15 16  1  0
 16 17  1  0
 17 18  2  0
 18 19  1  0
 19 20  1  0
 20 21  1  0
 21 22  1  0
 22 23  1  0
 22 24  1  0
 24 25  1  0
 24 26  1  0
 19 27  1  0
 27 28  1  1
 27 29  1  0
 29 30  1  0
 30 31  1  0
 31 32  1  1
  7  5  1  0
 31 10  1  0
 31 13  1  0
 27 15  1  0
 24 18  1  0
  1 33  1  0
  1 34  1  0
  1 35  1  0
  2 36  1  1
  3 37  1  0
  3 38  1  0
  4 39  1  0
  4 40  1  0
  5 41  1  1
  8 42  1  0
  8 43  1  0
  8 44  1  0
  9 45  1  0
  9 46  1  0
  9 47  1  0
 10 48  1  6
 11 49  1  0
 11 50  1  0
 12 51  1  0
 12 52  1  0
 14 53  1  0
 14 54  1  0
 14 55  1  0
 15 56  1  1
 16 57  1  0
 16 58  1  0
 17 59  1  0
 19 60  1  6
 20 61  1  0
 20 62  1  0
 21 63  1  0
 21 64  1  0
 22 65  1  6
 23 66  1  0
 25 67  1  0
 25 68  1  0
 25 69  1  0
 26 70  1  0
 26 71  1  0
 26 72  1  0
 28 73  1  0
 28 74  1  0
 28 75  1  0
 29 76  1  0
 29 77  1  0
 30 78  1  0
 30 79  1  0
 32 80  1  0
 32 81  1  0
 32 82  1  0
M  END
>  <meeko>  (14) 
{"is_sidechain": [false], "intermolecular_energy": 2.731, "internal_energy": -0.839}

$$$$
EPH_relaxed_0001_pdb2pqr_Repair_235_r2_0001_out
     RDKit          3D

 82 86  0  0  0  0  0  0  0  0999 V2000
    3.0980   18.5470   -3.4220 C   0  0  0  0  0  0  0  0  0  0  0  0
    2.1250   18.2390   -2.2800 C   0  0  2  0  0  0  0  0  0  0  0  0
    2.2280   19.2670   -1.1370 C   0  0  0  0  0  0  0  0  0  0  0  0
    2.4170   18.6350    0.2450 C   0  0  0  0  0  0  0  0  0  0  0  0
    2.9030   19.6350    1.2500 C   0  0  2  0  0  0  0  0  0  0  0  0
    4.1920   20.1930    0.9640 O   0  0  0  0  0  0  0  0  0  0  0  0
    4.0960   19.3970    2.1570 C   0  0  0  0  0  0  0  0  0  0  0  0
    4.8760   18.1210    2.1010 C   0  0  0  0  0  0  0  0  0  0  0  0
    4.2030   20.1900    3.4220 C   0  0  0  0  0  0  0  0  0  0  0  0
    2.3830   16.8360   -1.7440 C   0  0  1  0  0  0  0  0  0  0  0  0
    3.0140   16.8450   -0.3260 C   0  0  0  0  0  0  0  0  0  0  0  0
    2.4400   15.6180    0.4280 C   0  0  0  0  0  0  0  0  0  0  0  0
    1.7660   14.7650   -0.6730 C   0  0  1  0  0  0  0  0  0  0  0  0
    2.9330   13.9700   -1.3360 C   0  0  0  0  0  0  0  0  0  0  0  0
    0.6140   13.8170   -0.2040 C   0  0  2  0  0  0  0  0  0  0  0  0
    1.0360   12.7210    0.7920 C   0  0  0  0  0  0  0  0  0  0  0  0
    1.4680   11.4320    0.1760 C   0  0  0  0  0  0  0  0  0  0  0  0
    1.2480   11.0620   -1.1000 C   0  0  0  0  0  0  0  0  0  0  0  0
    0.4150   11.9400   -2.0420 C   0  0  1  0  0  0  0  0  0  0  0  0
   -0.6080   11.0570   -2.8040 C   0  0  0  0  0  0  0  0  0  0  0  0
    0.0530    9.8880   -3.5280 C   0  0  0  0  0  0  0  0  0  0  0  0
    0.8240    9.0060   -2.5490 C   0  0  2  0  0  0  0  0  0  0  0  0
   -0.1090    8.3710   -1.6690 O   0  0  0  0  0  0  0  0  0  0  0  0
    1.8780    9.7890   -1.7170 C   0  0  0  0  0  0  0  0  0  0  0  0
    3.0480   10.2210   -2.6350 C   0  0  0  0  0  0  0  0  0  0  0  0
    2.4830    8.8130   -0.6730 C   0  0  0  0  0  0  0  0  0  0  0  0
   -0.2560   13.2220   -1.3830 C   0  0  1  0  0  0  0  0  0  0  0  0
   -1.6380   12.8420   -0.7690 C   0  0  0  0  0  0  0  0  0  0  0  0
   -0.5470   14.2850   -2.5080 C   0  0  0  0  0  0  0  0  0  0  0  0
    0.5880   15.2710   -2.8420 C   0  0  0  0  0  0  0  0  0  0  0  0
    1.1570   15.9040   -1.5690 C   0  0  2  0  0  0  0  0  0  0  0  0
    0.0110   16.7300   -0.8920 C   0  0  0  0  0  0  0  0  0  0  0  0
    4.0682   18.8541   -3.0043 H   0  0  0  0  0  0  0  0  0  0  0  0
    3.2334   17.6478   -4.0409 H   0  0  0  0  0  0  0  0  0  0  0  0
    2.6913   19.3603   -4.0409 H   0  0  0  0  0  0  0  0  0  0  0  0
    1.1050   18.3003   -2.6873 H   0  0  0  0  0  0  0  0  0  0  0  0
    3.0863   19.9250   -1.3382 H   0  0  0  0  0  0  0  0  0  0  0  0
    1.2750   19.8157   -1.1116 H   0  0  0  0  0  0  0  0  0  0  0  0
    1.4538   18.2270    0.5852 H   0  0  0  0  0  0  0  0  0  0  0  0
    3.1730   17.8407    0.1584 H   0  0  0  0  0  0  0  0  0  0  0  0
    1.8737   19.9638    1.4560 H   0  0  0  0  0  0  0  0  0  0  0  0
    5.0873   17.7753    3.1236 H   0  0  0  0  0  0  0  0  0  0  0  0
    4.2907   17.3565    1.5691 H   0  0  0  0  0  0  0  0  0  0  0  0
    5.8233   18.2934    1.5691 H   0  0  0  0  0  0  0  0  0  0  0  0
    4.1120   19.5157    4.2863 H   0  0  0  0  0  0  0  0  0  0  0  0
    5.1779   20.6985    3.4547 H   0  0  0  0  0  0  0  0  0  0  0  0
    3.3977   20.9386    3.4547 H   0  0  0  0  0  0  0  0  0  0  0  0
    3.0369   16.4520   -2.5408 H   0  0  0  0  0  0  0  0  0  0  0  0
    4.1088   16.7668   -0.3983 H   0  0  0  0  0  0  0  0  0  0  0  0
    2.7789   17.7795    0.2045 H   0  0  0  0  0  0  0  0  0  0  0  0
    3.2453   15.0523    0.9193 H   0  0  0  0  0  0  0  0  0  0  0  0
    1.7356   15.9076    1.2217 H   0  0  0  0  0  0  0  0  0  0  0  0
    3.5716   13.5350   -0.5531 H   0  0  0  0  0  0  0  0  0  0  0  0
    2.5195   13.1649   -1.9612 H   0  0  0  0  0  0  0  0  0  0  0  0
    3.5308   14.6495   -1.9612 H   0  0  0  0  0  0  0  0  0  0  0  0
   -0.0383   14.4994    0.3606 H   0  0  0  0  0  0  0  0  0  0  0  0
    1.8735   13.1094    1.3901 H   0  0  0  0  0  0  0  0  0  0  0  0
    0.1402   12.4890    1.3868 H   0  0  0  0  0  0  0  0  0  0  0  0
    2.0122   10.7243    0.8187 H   0  0  0  0  0  0  0  0  0  0  0  0
    1.1272   12.3837   -2.7532 H   0  0  0  0  0  0  0  0  0  0  0  0
   -1.3363   10.6584   -2.0823 H   0  0  0  0  0  0  0  0  0  0  0  0
   -1.0938   11.6880   -3.5628 H   0  0  0  0  0  0  0  0  0  0  0  0
   -0.7233    9.2848   -4.0216 H   0  0  0  0  0  0  0  0  0  0  0  0
    0.7587   10.2886   -4.2706 H   0  0  0  0  0  0  0  0  0  0  0  0
    1.3808    8.2645   -3.1407 H   0  0  0  0  0  0  0  0  0  0  0  0
   -0.5350    9.0660   -1.1400 H   0  0  0  0  0  0  0  0  0  0  0  0
    3.9017   10.5362   -2.0171 H   0  0  0  0  0  0  0  0  0  0  0  0
    3.3478    9.3743   -3.2700 H   0  0  0  0  0  0  0  0  0  0  0  0
    2.7256   11.0594   -3.2700 H   0  0  0  0  0  0  0  0  0  0  0  0
    2.2584    9.1754    0.3410 H   0  0  0  0  0  0  0  0  0  0  0  0
    2.0463    7.8127   -0.8100 H   0  0  0  0  0  0  0  0  0  0  0  0
    3.5731    8.7591   -0.8100 H   0  0  0  0  0  0  0  0  0  0  0  0
   -1.5692   12.8609    0.3287 H   0  0  0  0  0  0  0  0  0  0  0  0
   -2.3980   13.5645   -1.1013 H   0  0  0  0  0  0  0  0  0  0  0  0
   -1.9217   11.8325   -1.1013 H   0  0  0  0  0  0  0  0  0  0  0  0
   -0.7927   13.7360   -3.4290 H   0  0  0  0  0  0  0  0  0  0  0  0
   -1.3621   14.9081   -2.1114 H   0  0  0  0  0  0  0  0  0  0  0  0
    1.3910   14.7313   -3.3653 H   0  0  0  0  0  0  0  0  0  0  0  0
    0.1819   16.0701   -3.4795 H   0  0  0  0  0  0  0  0  0  0  0  0
    0.1064   16.6613    0.2017 H   0  0  0  0  0  0  0  0  0  0  0  0
    0.0861   17.7830   -1.2012 H   0  0  0  0  0  0  0  0  0  0  0  0
   -0.9642   16.3258   -1.2012 H   0  0  0  0  0  0  0  0  0  0  0  0
  1  2  1  0
  2  3  1  0
  3  4  1  0
  4  5  1  0
  5  6  1  0
  6  7  1  0
  7  8  1  0
  7  9  1  0
  2 10  1  0
 10 11  1  0
 11 12  1  0
 12 13  1  0
 13 14  1  6
 13 15  1  0
 15 16  1  0
 16 17  1  0
 17 18  2  0
 18 19  1  0
 19 20  1  0
 20 21  1  0
 21 22  1  0
 22 23  1  0
 22 24  1  0
 24 25  1  0
 24 26  1  0
 19 27  1  0
 27 28  1  1
 27 29  1  0
 29 30  1  0
 30 31  1  0
 31 32  1  1
  7  5  1  0
 31 10  1  0
 31 13  1  0
 27 15  1  0
 24 18  1  0
  1 33  1  0
  1 34  1  0
  1 35  1  0
  2 36  1  6
  3 37  1  0
  3 38  1  0
  4 39  1  0
  4 40  1  0
  5 41  1  1
  8 42  1  0
  8 43  1  0
  8 44  1  0
  9 45  1  0
  9 46  1  0
  9 47  1  0
 10 48  1  6
 11 49  1  0
 11 50  1  0
 12 51  1  0
 12 52  1  0
 14 53  1  0
 14 54  1  0
 14 55  1  0
 15 56  1  1
 16 57  1  0
 16 58  1  0
 17 59  1  0
 19 60  1  6
 20 61  1  0
 20 62  1  0
 21 63  1  0
 21 64  1  0
 22 65  1  6
 23 66  1  0
 25 67  1  0
 25 68  1  0
 25 69  1  0
 26 70  1  0
 26 71  1  0
 26 72  1  0
 28 73  1  0
 28 74  1  0
 28 75  1  0
 29 76  1  0
 29 77  1  0
 30 78  1  0
 30 79  1  0
 32 80  1  0
 32 81  1  0
 32 82  1  0
M  END
>  <meeko>  (15) 
{"is_sidechain": [false], "intermolecular_energy": 2.731, "internal_energy": -0.839}

$$$$
EPH_relaxed_0001_pdb2pqr_Repair_235_r2_0001_out
     RDKit          3D

 82 86  0  0  0  0  0  0  0  0999 V2000
    0.9390   14.9290   -2.6360 C   0  0  0  0  0  0  0  0  0  0  0  0
    1.1810   14.2620   -3.9930 C   0  0  2  0  0  0  0  0  0  0  0  0
    0.4600   14.9980   -5.1390 C   0  0  0  0  0  0  0  0  0  0  0  0
    0.9540   14.6020   -6.5330 C   0  0  0  0  0  0  0  0  0  0  0  0
    0.7450   15.7020   -7.5290 C   0  0  2  0  0  0  0  0  0  0  0  0
    0.3910   15.2580   -8.8450 O   0  0  0  0  0  0  0  0  0  0  0  0
    1.6530   15.9340   -8.7220 C   0  0  0  0  0  0  0  0  0  0  0  0
    2.8390   15.0600   -8.9820 C   0  0  0  0  0  0  0  0  0  0  0  0
    1.6730   17.2920   -9.3520 C   0  0  0  0  0  0  0  0  0  0  0  0
    0.7300   12.8070   -3.9430 C   0  0  1  0  0  0  0  0  0  0  0  0
    1.8540   11.8190   -4.3560 C   0  0  0  0  0  0  0  0  0  0  0  0
    1.6710   10.5460   -3.4910 C   0  0  0  0  0  0  0  0  0  0  0  0
    0.2690   10.7040   -2.8560 C   0  0  1  0  0  0  0  0  0  0  0  0
   -0.7280   10.2470   -3.9660 C   0  0  0  0  0  0  0  0  0  0  0  0
    0.0290    9.9410   -1.5130 C   0  0  2  0  0  0  0  0  0  0  0  0
    0.1300    8.4080   -1.6060 C   0  0  0  0  0  0  0  0  0  0  0  0
   -1.1490    7.7020   -1.9120 C   0  0  0  0  0  0  0  0  0  0  0  0
   -2.3790    8.2390   -1.8230 C   0  0  0  0  0  0  0  0  0  0  0  0
   -2.5810    9.6610   -1.2850 C   0  0  1  0  0  0  0  0  0  0  0  0
   -3.7420    9.6660   -0.2560 C   0  0  0  0  0  0  0  0  0  0  0  0
   -5.0270    9.0680   -0.8200 C   0  0  0  0  0  0  0  0  0  0  0  0
   -4.8000    7.6330   -1.2910 C   0  0  2  0  0  0  0  0  0  0  0  0
   -4.5210    6.8130   -0.1520 O   0  0  0  0  0  0  0  0  0  0  0  0
   -3.6470    7.5030   -2.3250 C   0  0  0  0  0  0  0  0  0  0  0  0
   -4.0780    8.1390   -3.6690 C   0  0  0  0  0  0  0  0  0  0  0  0
   -3.4290    5.9920   -2.6090 C   0  0  0  0  0  0  0  0  0  0  0  0
   -1.2770   10.3870   -0.7390 C   0  0  1  0  0  0  0  0  0  0  0  0
   -1.0530   10.0200    0.7600 C   0  0  0  0  0  0  0  0  0  0  0  0
   -1.4980   11.9450   -0.7860 C   0  0  0  0  0  0  0  0  0  0  0  0
   -1.1290   12.6590   -2.1010 C   0  0  0  0  0  0  0  0  0  0  0  0
    0.2690   12.2510   -2.5730 C   0  0  2  0  0  0  0  0  0  0  0  0
    1.2970   12.7180   -1.4860 C   0  0  0  0  0  0  0  0  0  0  0  0
    1.1945   14.2248   -1.8305 H   0  0  0  0  0  0  0  0  0  0  0  0
    1.5686   15.8270   -2.5513 H   0  0  0  0  0  0  0  0  0  0  0  0
   -0.1200   15.2144   -2.5513 H   0  0  0  0  0  0  0  0  0  0  0  0
    2.2606   14.3106   -4.1983 H   0  0  0  0  0  0  0  0  0  0  0  0
   -0.6147   14.7724   -5.0745 H   0  0  0  0  0  0  0  0  0  0  0  0
    0.6724   16.0702   -5.0157 H   0  0  0  0  0  0  0  0  0  0  0  0
    2.0279   14.3704   -6.4780 H   0  0  0  0  0  0  0  0  0  0  0  0
    0.3778   13.7256   -6.8645 H   0  0  0  0  0  0  0  0  0  0  0  0
    0.3737   16.3757   -6.7427 H   0  0  0  0  0  0  0  0  0  0  0  0
    3.2748   14.7389   -8.0244 H   0  0  0  0  0  0  0  0  0  0  0  0
    2.5243   14.1762   -9.5564 H   0  0  0  0  0  0  0  0  0  0  0  0
    3.5900   15.6223   -9.5564 H   0  0  0  0  0  0  0  0  0  0  0  0
    1.6843   18.0609   -8.5655 H   0  0  0  0  0  0  0  0  0  0  0  0
    2.5727   17.3932   -9.9767 H   0  0  0  0  0  0  0  0  0  0  0  0
    0.7766   17.4196   -9.9767 H   0  0  0  0  0  0  0  0  0  0  0  0
   -0.1235   12.8552   -4.6352 H   0  0  0  0  0  0  0  0  0  0  0  0
    1.7642   11.5679   -5.4232 H   0  0  0  0  0  0  0  0  0  0  0  0
    2.8478   12.2636   -4.1989 H   0  0  0  0  0  0  0  0  0  0  0  0
    1.7145    9.6420   -4.1163 H   0  0  0  0  0  0  0  0  0  0  0  0
    2.4621   10.4385   -2.7342 H   0  0  0  0  0  0  0  0  0  0  0  0
   -1.6329    9.8322   -3.4979 H   0  0  0  0  0  0  0  0  0  0  0  0
   -1.0012   11.1098   -4.5913 H   0  0  0  0  0  0  0  0  0  0  0  0
   -0.2527    9.4769   -4.5913 H   0  0  0  0  0  0  0  0  0  0  0  0
    0.8871   10.2609   -0.9037 H   0  0  0  0  0  0  0  0  0  0  0  0
    0.8519    8.1624   -2.3989 H   0  0  0  0  0  0  0  0  0  0  0  0
    0.4371    8.0622   -0.6079 H   0  0  0  0  0  0  0  0  0  0  0  0
   -1.0798    6.6537   -2.2379 H   0  0  0  0  0  0  0  0  0  0  0  0
   -2.8509   10.2795   -2.1537 H   0  0  0  0  0  0  0  0  0  0  0  0
   -3.4364    9.0795    0.6230 H   0  0  0  0  0  0  0  0  0  0  0  0
   -3.9493   10.7136    0.0079 H   0  0  0  0  0  0  0  0  0  0  0  0
   -5.7999    9.0720   -0.0373 H   0  0  0  0  0  0  0  0  0  0  0  0
   -5.3481    9.6735   -1.6804 H   0  0  0  0  0  0  0  0  0  0  0  0
   -5.7170    7.3039   -1.8018 H   0  0  0  0  0  0  0  0  0  0  0  0
   -5.3560    6.3990    0.1240 H   0  0  0  0  0  0  0  0  0  0  0  0
   -4.6852    9.0350   -3.4726 H   0  0  0  0  0  0  0  0  0  0  0  0
   -3.1840    8.4208   -4.2447 H   0  0  0  0  0  0  0  0  0  0  0  0
   -4.6710    7.4131   -4.2447 H   0  0  0  0  0  0  0  0  0  0  0  0
   -3.3504    5.4475   -1.6565 H   0  0  0  0  0  0  0  0  0  0  0  0
   -4.2800    5.6008   -3.1859 H   0  0  0  0  0  0  0  0  0  0  0  0
   -2.5021    5.8573   -3.1859 H   0  0  0  0  0  0  0  0  0  0  0  0
   -1.5197   10.7846    1.3984 H   0  0  0  0  0  0  0  0  0  0  0  0
   -1.5073    9.0403    0.9695 H   0  0  0  0  0  0  0  0  0  0  0  0
    0.0260    9.9762    0.9695 H   0  0  0  0  0  0  0  0  0  0  0  0
   -2.5636   12.1361   -0.5910 H   0  0  0  0  0  0  0  0  0  0  0  0
   -0.8108   12.3564   -0.0320 H   0  0  0  0  0  0  0  0  0  0  0  0
   -1.8629   12.3896   -2.8749 H   0  0  0  0  0  0  0  0  0  0  0  0
   -1.1364   13.7447   -1.9244 H   0  0  0  0  0  0  0  0  0  0  0  0
    0.8826   12.5298   -0.4846 H   0  0  0  0  0  0  0  0  0  0  0  0
    2.2364   12.1583   -1.6053 H   0  0  0  0  0  0  0  0  0  0  0  0
    1.4935   13.7937   -1.6053 H   0  0  0  0  0  0  0  0  0  0  0  0
  1  2  1  0
  2  3  1  0
  3  4  1  0
  4  5  1  0
  5  6  1  0
  6  7  1  0
  7  8  1  0
  7  9  1  0
  2 10  1  0
 10 11  1  0
 11 12  1  0
 12 13  1  0
 13 14  1  6
 13 15  1  0
 15 16  1  0
 16 17  1  0
 17 18  2  0
 18 19  1  0
 19 20  1  0
 20 21  1  0
 21 22  1  0
 22 23  1  0
 22 24  1  0
 24 25  1  0
 24 26  1  0
 19 27  1  0
 27 28  1  1
 27 29  1  0
 29 30  1  0
 30 31  1  0
 31 32  1  1
  7  5  1  0
 31 10  1  0
 31 13  1  0
 27 15  1  0
 24 18  1  0
  1 33  1  0
  1 34  1  0
  1 35  1  0
  2 36  1  6
  3 37  1  0
  3 38  1  0
  4 39  1  0
  4 40  1  0
  5 41  1  1
  8 42  1  0
  8 43  1  0
  8 44  1  0
  9 45  1  0
  9 46  1  0
  9 47  1  0
 10 48  1  6
 11 49  1  0
 11 50  1  0
 12 51  1  0
 12 52  1  0
 14 53  1  0
 14 54  1  0
 14 55  1  0
 15 56  1  1
 16 57  1  0
 16 58  1  0
 17 59  1  0
 19 60  1  6
 20 61  1  0
 20 62  1  0
 21 63  1  0
 21 64  1  0
 22 65  1  6
 23 66  1  0
 25 67  1  0
 25 68  1  0
 25 69  1  0
 26 70  1  0
 26 71  1  0
 26 72  1  0
 28 73  1  0
 28 74  1  0
 28 75  1  0
 29 76  1  0
 29 77  1  0
 30 78  1  0
 30 79  1  0
 32 80  1  0
 32 81  1  0
 32 82  1  0
M  END
>  <meeko>  (16) 
{"is_sidechain": [false], "intermolecular_energy": 2.731, "internal_energy": -0.839}

$$$$
EPH_relaxed_0001_pdb2pqr_Repair_235_r2_0001_out
     RDKit          3D

 82 86  0  0  0  0  0  0  0  0999 V2000
   -2.3990    7.7710    0.0190 C   0  0  0  0  0  0  0  0  0  0  0  0
   -3.0830    9.1400   -0.0440 C   0  0  2  0  0  0  0  0  0  0  0  0
   -4.5570    9.0330   -0.4840 C   0  0  0  0  0  0  0  0  0  0  0  0
   -5.0330    7.5940   -0.6980 C   0  0  0  0  0  0  0  0  0  0  0  0
   -5.8920    7.4700   -1.9200 C   0  0  2  0  0  0  0  0  0  0  0  0
   -6.8300    8.5380   -2.1030 O   0  0  0  0  0  0  0  0  0  0  0  0
   -7.3900    7.2360   -1.8690 C   0  0  0  0  0  0  0  0  0  0  0  0
   -8.1170    7.1120   -0.5660 C   0  0  0  0  0  0  0  0  0  0  0  0
   -8.0630    6.6450   -3.0680 C   0  0  0  0  0  0  0  0  0  0  0  0
   -2.3210   10.0580   -0.9920 C   0  0  1  0  0  0  0  0  0  0  0  0
   -2.9730   11.4610   -1.1190 C   0  0  0  0  0  0  0  0  0  0  0  0
   -1.8160   12.4780   -1.2890 C   0  0  0  0  0  0  0  0  0  0  0  0
   -0.5720   11.6080   -1.5880 C   0  0  1  0  0  0  0  0  0  0  0  0
   -0.6710   11.2750   -3.1090 C   0  0  0  0  0  0  0  0  0  0  0  0
    0.8130   12.2350   -1.2230 C   0  0  2  0  0  0  0  0  0  0  0  0
    1.1700   13.5200   -1.9900 C   0  0  0  0  0  0  0  0  0  0  0  0
    1.9150   13.3140   -3.2680 C   0  0  0  0  0  0  0  0  0  0  0  0
    2.5310   12.1770   -3.6390 C   0  0  0  0  0  0  0  0  0  0  0  0
    2.5990   10.9720   -2.6920 C   0  0  1  0  0  0  0  0  0  0  0  0
    4.0450   10.4110   -2.6710 C   0  0  0  0  0  0  0  0  0  0  0  0
    4.5650   10.0850   -4.0680 C   0  0  0  0  0  0  0  0  0  0  0  0
    4.5370   11.3210   -4.9630 C   0  0  2  0  0  0  0  0  0  0  0  0
    5.4830   12.2720   -4.4660 O   0  0  0  0  0  0  0  0  0  0  0  0
    3.1320   11.9790   -5.0530 C   0  0  0  0  0  0  0  0  0  0  0  0
    2.1790   11.0650   -5.8630 C   0  0  0  0  0  0  0  0  0  0  0  0
    3.2710   13.2920   -5.8690 C   0  0  0  0  0  0  0  0  0  0  0  0
    2.0130   11.2040   -1.2320 C   0  0  1  0  0  0  0  0  0  0  0  0
    3.1170   11.7980   -0.3040 C   0  0  0  0  0  0  0  0  0  0  0  0
    1.6130    9.8140   -0.6120 C   0  0  0  0  0  0  0  0  0  0  0  0
    0.1900    9.3040   -0.9100 C   0  0  0  0  0  0  0  0  0  0  0  0
   -0.8520   10.3920   -0.6310 C   0  0  2  0  0  0  0  0  0  0  0  0
   -0.7910   10.7330    0.8970 C   0  0  0  0  0  0  0  0  0  0  0  0
   -2.2543    7.4814    1.0703 H   0  0  0  0  0  0  0  0  0  0  0  0
   -3.0292    7.0228   -0.4840 H   0  0  0  0  0  0  0  0  0  0  0  0
   -1.4223    7.8256   -0.4840 H   0  0  0  0  0  0  0  0  0  0  0  0
   -3.0721    9.5629    0.9714 H   0  0  0  0  0  0  0  0  0  0  0  0
   -5.1853    9.4947    0.2919 H   0  0  0  0  0  0  0  0  0  0  0  0
   -4.6410    9.5466   -1.4531 H   0  0  0  0  0  0  0  0  0  0  0  0
   -4.1549    6.9413   -0.8118 H   0  0  0  0  0  0  0  0  0  0  0  0
   -5.6337    7.2982    0.1748 H   0  0  0  0  0  0  0  0  0  0  0  0
   -5.0838    6.9606   -2.4653 H   0  0  0  0  0  0  0  0  0  0  0  0
   -7.4053    7.2334    0.2639 H   0  0  0  0  0  0  0  0  0  0  0  0
   -8.8909    7.8911   -0.5023 H   0  0  0  0  0  0  0  0  0  0  0  0
   -8.5889    6.1204   -0.5023 H   0  0  0  0  0  0  0  0  0  0  0  0
   -8.8522    5.9520   -2.7411 H   0  0  0  0  0  0  0  0  0  0  0  0
   -8.5084    7.4492   -3.6721 H   0  0  0  0  0  0  0  0  0  0  0  0
   -7.3231    6.0995   -3.6721 H   0  0  0  0  0  0  0  0  0  0  0  0
   -2.3543    9.4469   -1.9060 H   0  0  0  0  0  0  0  0  0  0  0  0
   -3.6367   11.4923   -1.9956 H   0  0  0  0  0  0  0  0  0  0  0  0
   -3.5789   11.6967   -0.2317 H   0  0  0  0  0  0  0  0  0  0  0  0
   -2.0208   13.1629   -2.1250 H   0  0  0  0  0  0  0  0  0  0  0  0
   -1.6800   13.1078   -0.3974 H   0  0  0  0  0  0  0  0  0  0  0  0
   -0.9824   10.2276   -3.2355 H   0  0  0  0  0  0  0  0  0  0  0  0
   -1.4111   11.9372   -3.5819 H   0  0  0  0  0  0  0  0  0  0  0  0
    0.3107   11.4254   -3.5819 H   0  0  0  0  0  0  0  0  0  0  0  0
    0.6646   12.5432   -0.1775 H   0  0  0  0  0  0  0  0  0  0  0  0
    0.2335   14.0476   -2.2237 H   0  0  0  0  0  0  0  0  0  0  0  0
    1.8442   14.0892   -1.3331 H   0  0  0  0  0  0  0  0  0  0  0  0
    1.9642   14.1638   -3.9648 H   0  0  0  0  0  0  0  0  0  0  0  0
    1.9128   10.2193   -3.1073 H   0  0  0  0  0  0  0  0  0  0  0  0
    4.7077   11.1606   -2.2138 H   0  0  0  0  0  0  0  0  0  0  0  0
    4.0326    9.4758   -2.0920 H   0  0  0  0  0  0  0  0  0  0  0  0
    5.5998    9.7199   -3.9908 H   0  0  0  0  0  0  0  0  0  0  0  0
    3.9174    9.3150   -4.5127 H   0  0  0  0  0  0  0  0  0  0  0  0
    4.7979   10.9973   -5.9814 H   0  0  0  0  0  0  0  0  0  0  0  0
    6.3670   11.9800   -4.7450 H   0  0  0  0  0  0  0  0  0  0  0  0
    1.5621   10.4733   -5.1707 H   0  0  0  0  0  0  0  0  0  0  0  0
    1.5274   11.6845   -6.4967 H   0  0  0  0  0  0  0  0  0  0  0  0
    2.7708   10.3881   -6.4967 H   0  0  0  0  0  0  0  0  0  0  0  0
    3.3612   14.1444   -5.1796 H   0  0  0  0  0  0  0  0  0  0  0  0
    4.1683   13.2365   -6.5029 H   0  0  0  0  0  0  0  0  0  0  0  0
    2.3820   13.4256   -6.5029 H   0  0  0  0  0  0  0  0  0  0  0  0
    2.8332   11.6453    0.7477 H   0  0  0  0  0  0  0  0  0  0  0  0
    4.0738   11.2929   -0.5026 H   0  0  0  0  0  0  0  0  0  0  0  0
    3.2227   12.8747   -0.5026 H   0  0  0  0  0  0  0  0  0  0  0  0
    2.3218    9.0637   -0.9922 H   0  0  0  0  0  0  0  0  0  0  0  0
    1.6422    9.9656    0.4771 H   0  0  0  0  0  0  0  0  0  0  0  0
    0.1277    9.0088   -1.9678 H   0  0  0  0  0  0  0  0  0  0  0  0
   -0.0181    8.4434   -0.2573 H   0  0  0  0  0  0  0  0  0  0  0  0
   -0.9548    9.8172    1.4839 H   0  0  0  0  0  0  0  0  0  0  0  0
    0.1964   11.1525    1.1399 H   0  0  0  0  0  0  0  0  0  0  0  0
   -1.5718   11.4688    1.1399 H   0  0  0  0  0  0  0  0  0  0  0  0
  1  2  1  0
  2  3  1  0
  3  4  1  0
  4  5  1  0
  5  6  1  0
  6  7  1  0
  7  8  1  0
  7  9  1  0
  2 10  1  0
 10 11  1  0
 11 12  1  0
 12 13  1  0
 13 14  1  6
 13 15  1  0
 15 16  1  0
 16 17  1  0
 17 18  2  0
 18 19  1  0
 19 20  1  0
 20 21  1  0
 21 22  1  0
 22 23  1  0
 22 24  1  0
 24 25  1  0
 24 26  1  0
 19 27  1  0
 27 28  1  1
 27 29  1  0
 29 30  1  0
 30 31  1  0
 31 32  1  1
  7  5  1  0
 31 10  1  0
 31 13  1  0
 27 15  1  0
 24 18  1  0
  1 33  1  0
  1 34  1  0
  1 35  1  0
  2 36  1  1
  3 37  1  0
  3 38  1  0
  4 39  1  0
  4 40  1  0
  5 41  1  6
  8 42  1  0
  8 43  1  0
  8 44  1  0
  9 45  1  0
  9 46  1  0
  9 47  1  0
 10 48  1  6
 11 49  1  0
 11 50  1  0
 12 51  1  0
 12 52  1  0
 14 53  1  0
 14 54  1  0
 14 55  1  0
 15 56  1  1
 16 57  1  0
 16 58  1  0
 17 59  1  0
 19 60  1  6
 20 61  1  0
 20 62  1  0
 21 63  1  0
 21 64  1  0
 22 65  1  6
 23 66  1  0
 25 67  1  0
 25 68  1  0
 25 69  1  0
 26 70  1  0
 26 71  1  0
 26 72  1  0
 28 73  1  0
 28 74  1  0
 28 75  1  0
 29 76  1  0
 29 77  1  0
 30 78  1  0
 30 79  1  0
 32 80  1  0
 32 81  1  0
 32 82  1  0
M  END
>  <meeko>  (17) 
{"is_sidechain": [false], "intermolecular_energy": 2.731, "internal_energy": -0.839}

$$$$
