EPH_relaxed_0001_pdb2pqr_Repair_8_r2_0001_out
     RDKit          3D

 82 86  0  0  0  0  0  0  0  0999 V2000
   -1.6990    8.5830   -1.8650 C   0  0  0  0  0  0  0  0  0  0  0  0
   -2.0850    9.1070   -0.4790 C   0  0  2  0  0  0  0  0  0  0  0  0
   -3.5810    9.4700   -0.3920 C   0  0  0  0  0  0  0  0  0  0  0  0
   -4.5010    8.2580   -0.2260 C   0  0  0  0  0  0  0  0  0  0  0  0
   -5.1970    7.9090   -1.5070 C   0  0  2  0  0  0  0  0  0  0  0  0
   -6.3450    8.7150   -1.8020 O   0  0  0  0  0  0  0  0  0  0  0  0
   -6.5930    7.3190   -1.5660 C   0  0  0  0  0  0  0  0  0  0  0  0
   -7.3770    7.0420   -0.3220 C   0  0  0  0  0  0  0  0  0  0  0  0
   -6.9990    6.5630   -2.7930 C   0  0  0  0  0  0  0  0  0  0  0  0
   -1.2330   10.3190   -0.1250 C   0  0  1  0  0  0  0  0  0  0  0  0
   -0.2100   10.0220    1.0040 C   0  0  0  0  0  0  0  0  0  0  0  0
    1.0600   10.8520    0.6870 C   0  0  0  0  0  0  0  0  0  0  0  0
    0.6140   11.8430   -0.4140 C   0  0  1  0  0  0  0  0  0  0  0  0
   -0.1030   12.9980    0.3530 C   0  0  0  0  0  0  0  0  0  0  0  0
    1.7400   12.3860   -1.3530 C   0  0  2  0  0  0  0  0  0  0  0  0
    2.8350   13.2080   -0.6520 C   0  0  0  0  0  0  0  0  0  0  0  0
    2.5790   14.6770   -0.5760 C   0  0  0  0  0  0  0  0  0  0  0  0
    1.6600   15.3490   -1.2950 C   0  0  0  0  0  0  0  0  0  0  0  0
    0.8260   14.6380   -2.3690 C   0  0  1  0  0  0  0  0  0  0  0  0
    0.8080   15.4960   -3.6610 C   0  0  0  0  0  0  0  0  0  0  0  0
    0.3370   16.9250   -3.4080 C   0  0  0  0  0  0  0  0  0  0  0  0
    1.2260   17.6180   -2.3780 C   0  0  2  0  0  0  0  0  0  0  0  0
    2.5320   17.7890   -2.9370 O   0  0  0  0  0  0  0  0  0  0  0  0
    1.3290   16.8400   -1.0360 C   0  0  0  0  0  0  0  0  0  0  0  0
   -0.0240   16.9150   -0.2860 C   0  0  0  0  0  0  0  0  0  0  0  0
    2.3640   17.5710   -0.1390 C   0  0  0  0  0  0  0  0  0  0  0  0
    1.2050   13.1210   -2.6490 C   0  0  1  0  0  0  0  0  0  0  0  0
    2.3470   13.0440   -3.7070 C   0  0  0  0  0  0  0  0  0  0  0  0
   -0.0370   12.3890   -3.2820 C   0  0  0  0  0  0  0  0  0  0  0  0
   -1.0520   11.7700   -2.3030 C   0  0  0  0  0  0  0  0  0  0  0  0
   -0.3450   10.9160   -1.2460 C   0  0  2  0  0  0  0  0  0  0  0  0
    0.3670    9.7330   -1.9860 C   0  0  0  0  0  0  0  0  0  0  0  0
   -1.0498    7.7017   -1.7561 H   0  0  0  0  0  0  0  0  0  0  0  0
   -2.6081    8.3027   -2.4173 H   0  0  0  0  0  0  0  0  0  0  0  0
   -1.1618    9.3681   -2.4173 H   0  0  0  0  0  0  0  0  0  0  0  0
   -1.8987    8.2990    0.2439 H   0  0  0  0  0  0  0  0  0  0  0  0
   -3.7267   10.1370    0.4705 H   0  0  0  0  0  0  0  0  0  0  0  0
   -3.8507    9.9495   -1.3445 H   0  0  0  0  0  0  0  0  0  0  0  0
   -3.8997    7.3961    0.0990 H   0  0  0  0  0  0  0  0  0  0  0  0
   -5.2670    8.5096    0.5223 H   0  0  0  0  0  0  0  0  0  0  0  0
   -4.2467    7.6020   -1.9680 H   0  0  0  0  0  0  0  0  0  0  0  0
   -6.7561    7.2614    0.5591 H   0  0  0  0  0  0  0  0  0  0  0  0
   -8.2748    7.6773   -0.3053 H   0  0  0  0  0  0  0  0  0  0  0  0
   -7.6764    5.9837   -0.3053 H   0  0  0  0  0  0  0  0  0  0  0  0
   -7.5005    5.6291   -2.4991 H   0  0  0  0  0  0  0  0  0  0  0  0
   -7.6886    7.1772   -3.3907 H   0  0  0  0  0  0  0  0  0  0  0  0
   -6.1061    6.3273   -3.3907 H   0  0  0  0  0  0  0  0  0  0  0  0
   -2.0278   11.0300    0.1449 H   0  0  0  0  0  0  0  0  0  0  0  0
   -0.6241   10.3205    1.9784 H   0  0  0  0  0  0  0  0  0  0  0  0
    0.0225    8.9480    1.0536 H   0  0  0  0  0  0  0  0  0  0  0  0
    1.4032   11.3934    1.5809 H   0  0  0  0  0  0  0  0  0  0  0  0
    1.9010   10.2207    0.3641 H   0  0  0  0  0  0  0  0  0  0  0  0
   -0.0026   12.8363    1.4364 H   0  0  0  0  0  0  0  0  0  0  0  0
    0.3573   13.9595    0.0816 H   0  0  0  0  0  0  0  0  0  0  0  0
   -1.1689   13.0121    0.0816 H   0  0  0  0  0  0  0  0  0  0  0  0
    2.2315   11.4615   -1.6903 H   0  0  0  0  0  0  0  0  0  0  0  0
    2.9407   12.8278    0.3748 H   0  0  0  0  0  0  0  0  0  0  0  0
    3.7428   13.0883   -1.2616 H   0  0  0  0  0  0  0  0  0  0  0  0
    3.1930   15.2595    0.1267 H   0  0  0  0  0  0  0  0  0  0  0  0
   -0.1920   14.5567   -1.9603 H   0  0  0  0  0  0  0  0  0  0  0  0
    1.8259   15.5286   -4.0768 H   0  0  0  0  0  0  0  0  0  0  0  0
    0.0993   15.0300   -4.3614 H   0  0  0  0  0  0  0  0  0  0  0  0
    0.3731   17.4885   -4.3520 H   0  0  0  0  0  0  0  0  0  0  0  0
   -0.6914   16.8922   -3.0190 H   0  0  0  0  0  0  0  0  0  0  0  0
    0.7647   18.5886   -2.1431 H   0  0  0  0  0  0  0  0  0  0  0  0
    3.0090   18.4270   -2.3800 H   0  0  0  0  0  0  0  0  0  0  0  0
    0.1571   16.9050    0.7989 H   0  0  0  0  0  0  0  0  0  0  0  0
   -0.5453   17.8434   -0.5621 H   0  0  0  0  0  0  0  0  0  0  0  0
   -0.6447   16.0499   -0.5621 H   0  0  0  0  0  0  0  0  0  0  0  0
    2.1190   17.3980    0.9193 H   0  0  0  0  0  0  0  0  0  0  0  0
    3.3713   17.1829   -0.3504 H   0  0  0  0  0  0  0  0  0  0  0  0
    2.3350   18.6501   -0.3504 H   0  0  0  0  0  0  0  0  0  0  0  0
    3.3180   12.9785   -3.1943 H   0  0  0  0  0  0  0  0  0  0  0  0
    2.2040   12.1535   -4.3367 H   0  0  0  0  0  0  0  0  0  0  0  0
    2.3249   13.9457   -4.3367 H   0  0  0  0  0  0  0  0  0  0  0  0
   -0.5757   13.1221   -3.9003 H   0  0  0  0  0  0  0  0  0  0  0  0
    0.3832   11.5374   -3.8372 H   0  0  0  0  0  0  0  0  0  0  0  0
   -1.6062   12.5771   -1.8015 H   0  0  0  0  0  0  0  0  0  0  0  0
   -1.7391   11.1260   -2.8714 H   0  0  0  0  0  0  0  0  0  0  0  0
    0.7863    9.0364   -1.2451 H   0  0  0  0  0  0  0  0  0  0  0  0
   -0.3622    9.2028   -2.6163 H   0  0  0  0  0  0  0  0  0  0  0  0
    1.1769   10.1291   -2.6163 H   0  0  0  0  0  0  0  0  0  0  0  0
  1  2  1  0
  2  3  1  0
  3  4  1  0
  4  5  1  0
  5  6  1  0
  6  7  1  0
  7  8  1  0
  7  9  1  0
  2 10  1  0
 10 11  1  0
 11 12  1  0
 12 13  1  0
 13 14  1  1
 13 15  1  0
 15 16  1  0
 16 17  1  0
 17 18  2  0
 18 19  1  0
 19 20  1  0
 20 21  1  0
 21 22  1  0
 22 23  1  0
 22 24  1  0
 24 25  1  0
 24 26  1  0
 19 27  1  0
 27 28  1  6
 27 29  1  0
 29 30  1  0
 30 31  1  0
 31 32  1  6
  7  5  1  0
 31 10  1  0
 31 13  1  0
 27 15  1  0
 24 18  1  0
  1 33  1  0
  1 34  1  0
  1 35  1  0
  2 36  1  1
  3 37  1  0
  3 38  1  0
  4 39  1  0
  4 40  1  0
  5 41  1  6
  8 42  1  0
  8 43  1  0
  8 44  1  0
  9 45  1  0
  9 46  1  0
  9 47  1  0
 10 48  1  1
 11 49  1  0
 11 50  1  0
 12 51  1  0
 12 52  1  0
 14 53  1  0
 14 54  1  0
 14 55  1  0
 15 56  1  6
 16 57  1  0
 16 58  1  0
 17 59  1  0
 19 60  1  1
 20 61  1  0
 20 62  1  0
 21 63  1  0
 21 64  1  0
 22 65  1  1
 23 66  1  0
 25 67  1  0
 25 68  1  0
 25 69  1  0
 26 70  1  0
 26 71  1  0
 26 72  1  0
 28 73  1  0
 28 74  1  0
 28 75  1  0
 29 76  1  0
 29 77  1  0
 30 78  1  0
 30 79  1  0
 32 80  1  0
 32 81  1  0
 32 82  1  0
M  END
>  <meeko>  (1) 
{"is_sidechain": [false], "intermolecular_energy": 2.731, "internal_energy": -0.839}

$$$$
EPH_relaxed_0001_pdb2pqr_Repair_8_r2_0001_out
     RDKit          3D

 82 86  0  0  0  0  0  0  0  0999 V2000
    2.2240   19.4920   -0.8220 C   0  0  0  0  0  0  0  0  0  0  0  0
    2.3630   18.4120    0.2550 C   0  0  2  0  0  0  0  0  0  0  0  0
    3.8080   17.8840    0.3640 C   0  0  0  0  0  0  0  0  0  0  0  0
    4.7190   18.7600    1.2280 C   0  0  0  0  0  0  0  0  0  0  0  0
    4.2200   18.8570    2.6380 C   0  0  2  0  0  0  0  0  0  0  0  0
    3.9970   20.1940    3.1030 O   0  0  0  0  0  0  0  0  0  0  0  0
    5.0310   19.4550    3.7730 C   0  0  0  0  0  0  0  0  0  0  0  0
    6.4080   19.9950    3.5480 C   0  0  0  0  0  0  0  0  0  0  0  0
    4.6840   19.0730    5.1780 C   0  0  0  0  0  0  0  0  0  0  0  0
    1.4080   17.2610   -0.0380 C   0  0  1  0  0  0  0  0  0  0  0  0
    0.1430   17.7170   -0.8120 C   0  0  0  0  0  0  0  0  0  0  0  0
   -0.2380   16.5570   -1.7690 C   0  0  0  0  0  0  0  0  0  0  0  0
    0.6080   15.3570   -1.2830 C   0  0  1  0  0  0  0  0  0  0  0  0
   -0.1790   14.7780   -0.0650 C   0  0  0  0  0  0  0  0  0  0  0  0
    0.9180   14.2540   -2.3470 C   0  0  2  0  0  0  0  0  0  0  0  0
   -0.3160   13.5270   -2.9110 C   0  0  0  0  0  0  0  0  0  0  0  0
   -0.7270   12.2990   -2.1690 C   0  0  0  0  0  0  0  0  0  0  0  0
    0.0260   11.6390   -1.2700 C   0  0  0  0  0  0  0  0  0  0  0  0
    1.4740   12.0640   -0.9930 C   0  0  1  0  0  0  0  0  0  0  0  0
    2.3890   10.8110   -0.9860 C   0  0  0  0  0  0  0  0  0  0  0  0
    1.9010    9.7350   -0.0210 C   0  0  0  0  0  0  0  0  0  0  0  0
    0.4800    9.2980   -0.3650 C   0  0  2  0  0  0  0  0  0  0  0  0
    0.4970    8.6300   -1.6300 O   0  0  0  0  0  0  0  0  0  0  0  0
   -0.5300   10.4780   -0.4100 C   0  0  0  0  0  0  0  0  0  0  0  0
   -0.7750   11.0090    1.0240 C   0  0  0  0  0  0  0  0  0  0  0  0
   -1.8930    9.9210   -0.9050 C   0  0  0  0  0  0  0  0  0  0  0  0
    2.0430   13.2300   -1.9110 C   0  0  1  0  0  0  0  0  0  0  0  0
    2.6350   12.6330   -3.2240 C   0  0  0  0  0  0  0  0  0  0  0  0
    3.2370   13.9350   -1.1650 C   0  0  0  0  0  0  0  0  0  0  0  0
    2.8770   15.0960   -0.2190 C   0  0  0  0  0  0  0  0  0  0  0  0
    1.9440   16.0960   -0.9080 C   0  0  2  0  0  0  0  0  0  0  0  0
    2.7170   16.7120   -2.1240 C   0  0  0  0  0  0  0  0  0  0  0  0
    2.0976   20.4739   -0.3425 H   0  0  0  0  0  0  0  0  0  0  0  0
    3.1281   19.5035   -1.4485 H   0  0  0  0  0  0  0  0  0  0  0  0
    1.3465   19.2743   -1.4485 H   0  0  0  0  0  0  0  0  0  0  0  0
    2.1059   18.8715    1.2208 H   0  0  0  0  0  0  0  0  0  0  0  0
    3.7773   16.8758    0.8029 H   0  0  0  0  0  0  0  0  0  0  0  0
    4.2289   17.8862   -0.6523 H   0  0  0  0  0  0  0  0  0  0  0  0
    5.7290   18.3243    1.2365 H   0  0  0  0  0  0  0  0  0  0  0  0
    4.7300   19.7723    0.7977 H   0  0  0  0  0  0  0  0  0  0  0  0
    3.6820   17.9027    2.5385 H   0  0  0  0  0  0  0  0  0  0  0  0
    6.8907   20.1843    4.5182 H   0  0  0  0  0  0  0  0  0  0  0  0
    7.0008   19.2627    2.9802 H   0  0  0  0  0  0  0  0  0  0  0  0
    6.3450   20.9350    2.9802 H   0  0  0  0  0  0  0  0  0  0  0  0
    5.2536   19.7000    5.8798 H   0  0  0  0  0  0  0  0  0  0  0  0
    3.6069   19.2230    5.3434 H   0  0  0  0  0  0  0  0  0  0  0  0
    4.9365   18.0152    5.3434 H   0  0  0  0  0  0  0  0  0  0  0  0
    1.2223   16.9096    0.9877 H   0  0  0  0  0  0  0  0  0  0  0  0
   -0.6802   17.9146   -0.1096 H   0  0  0  0  0  0  0  0  0  0  0  0
    0.3351   18.6442   -1.3718 H   0  0  0  0  0  0  0  0  0  0  0  0
   -1.3119   16.3301   -1.6960 H   0  0  0  0  0  0  0  0  0  0  0  0
   -0.0440   16.8047   -2.8230 H   0  0  0  0  0  0  0  0  0  0  0  0
    0.2878   15.1214    0.8699 H   0  0  0  0  0  0  0  0  0  0  0  0
   -1.2219   15.1258   -0.1035 H   0  0  0  0  0  0  0  0  0  0  0  0
   -0.1574   13.6789   -0.1035 H   0  0  0  0  0  0  0  0  0  0  0  0
    1.3276   14.8406   -3.1825 H   0  0  0  0  0  0  0  0  0  0  0  0
   -1.1610   14.2311   -2.8974 H   0  0  0  0  0  0  0  0  0  0  0  0
   -0.0370   13.1930   -3.9213 H   0  0  0  0  0  0  0  0  0  0  0  0
   -1.7310   11.8994   -2.3745 H   0  0  0  0  0  0  0  0  0  0  0  0
    1.4687   12.5284    0.0042 H   0  0  0  0  0  0  0  0  0  0  0  0
    2.4156   10.3883   -2.0012 H   0  0  0  0  0  0  0  0  0  0  0  0
    3.3880   11.1293   -0.6534 H   0  0  0  0  0  0  0  0  0  0  0  0
    2.5705    8.8645   -0.0839 H   0  0  0  0  0  0  0  0  0  0  0  0
    1.9039   10.1496    0.9979 H   0  0  0  0  0  0  0  0  0  0  0  0
    0.1390    8.6246    0.4351 H   0  0  0  0  0  0  0  0  0  0  0  0
   -0.0970    9.1150   -2.2270 H   0  0  0  0  0  0  0  0  0  0  0  0
   -0.4307   10.2628    1.7551 H   0  0  0  0  0  0  0  0  0  0  0  0
   -0.2186   11.9470    1.1677 H   0  0  0  0  0  0  0  0  0  0  0  0
   -1.8497   11.1944    1.1677 H   0  0  0  0  0  0  0  0  0  0  0  0
   -2.5206    9.6645   -0.0388 H   0  0  0  0  0  0  0  0  0  0  0  0
   -2.4015   10.6834   -1.5134 H   0  0  0  0  0  0  0  0  0  0  0  0
   -1.7220    9.0206   -1.5134 H   0  0  0  0  0  0  0  0  0  0  0  0
    3.3892   11.8724   -2.9735 H   0  0  0  0  0  0  0  0  0  0  0  0
    1.8290   12.1703   -3.8124 H   0  0  0  0  0  0  0  0  0  0  0  0
    3.1045   13.4351   -3.8124 H   0  0  0  0  0  0  0  0  0  0  0  0
    3.7557   13.1693   -0.5695 H   0  0  0  0  0  0  0  0  0  0  0  0
    3.8446   14.3904   -1.9609 H   0  0  0  0  0  0  0  0  0  0  0  0
    2.3755   14.6914    0.6725 H   0  0  0  0  0  0  0  0  0  0  0  0
    3.8031   15.6180    0.0635 H   0  0  0  0  0  0  0  0  0  0  0  0
    3.5272   17.3577   -1.7544 H   0  0  0  0  0  0  0  0  0  0  0  0
    3.1429   15.9030   -2.7356 H   0  0  0  0  0  0  0  0  0  0  0  0
    2.0235   17.3078   -2.7356 H   0  0  0  0  0  0  0  0  0  0  0  0
  1  2  1  0
  2  3  1  0
  3  4  1  0
  4  5  1  0
  5  6  1  0
  6  7  1  0
  7  8  1  0
  7  9  1  0
  2 10  1  0
 10 11  1  0
 11 12  1  0
 12 13  1  0
 13 14  1  1
 13 15  1  0
 15 16  1  0
 16 17  1  0
 17 18  2  0
 18 19  1  0
 19 20  1  0
 20 21  1  0
 21 22  1  0
 22 23  1  0
 22 24  1  0
 24 25  1  0
 24 26  1  0
 19 27  1  0
 27 28  1  6
 27 29  1  0
 29 30  1  0
 30 31  1  0
 31 32  1  6
  7  5  1  0
 31 10  1  0
 31 13  1  0
 27 15  1  0
 24 18  1  0
  1 33  1  0
  1 34  1  0
  1 35  1  0
  2 36  1  1
  3 37  1  0
  3 38  1  0
  4 39  1  0
  4 40  1  0
  5 41  1  1
  8 42  1  0
  8 43  1  0
  8 44  1  0
  9 45  1  0
  9 46  1  0
  9 47  1  0
 10 48  1  1
 11 49  1  0
 11 50  1  0
 12 51  1  0
 12 52  1  0
 14 53  1  0
 14 54  1  0
 14 55  1  0
 15 56  1  6
 16 57  1  0
 16 58  1  0
 17 59  1  0
 19 60  1  1
 20 61  1  0
 20 62  1  0
 21 63  1  0
 21 64  1  0
 22 65  1  1
 23 66  1  0
 25 67  1  0
 25 68  1  0
 25 69  1  0
 26 70  1  0
 26 71  1  0
 26 72  1  0
 28 73  1  0
 28 74  1  0
 28 75  1  0
 29 76  1  0
 29 77  1  0
 30 78  1  0
 30 79  1  0
 32 80  1  0
 32 81  1  0
 32 82  1  0
M  END
>  <meeko>  (2) 
{"is_sidechain": [false], "intermolecular_energy": 2.731, "internal_energy": -0.839}

$$$$
EPH_relaxed_0001_pdb2pqr_Repair_8_r2_0001_out
     RDKit          3D

 82 86  0  0  0  0  0  0  0  0999 V2000
    0.4570   18.3900   -0.0030 C   0  0  0  0  0  0  0  0  0  0  0  0
    1.5380   17.3290   -0.2310 C   0  0  2  0  0  0  0  0  0  0  0  0
    2.7480   17.8900   -1.0040 C   0  0  0  0  0  0  0  0  0  0  0  0
    3.9850   18.1170   -0.1300 C   0  0  0  0  0  0  0  0  0  0  0  0
    3.6140   18.5810    1.2460 C   0  0  2  0  0  0  0  0  0  0  0  0
    3.8360   19.9770    1.4870 O   0  0  0  0  0  0  0  0  0  0  0  0
    4.6270   19.0650    2.2660 C   0  0  0  0  0  0  0  0  0  0  0  0
    6.0900   19.1090    1.9540 C   0  0  0  0  0  0  0  0  0  0  0  0
    4.2540   19.0320    3.7160 C   0  0  0  0  0  0  0  0  0  0  0  0
    0.9480   16.1400   -0.9800 C   0  0  1  0  0  0  0  0  0  0  0  0
    0.8020   16.4040   -2.5020 C   0  0  0  0  0  0  0  0  0  0  0  0
    1.0750   15.0570   -3.2190 C   0  0  0  0  0  0  0  0  0  0  0  0
    1.0410   14.0010   -2.0900 C   0  0  1  0  0  0  0  0  0  0  0  0
   -0.4760   13.7130   -1.8550 C   0  0  0  0  0  0  0  0  0  0  0  0
    1.8440   12.6850   -2.3490 C   0  0  2  0  0  0  0  0  0  0  0  0
    1.3550   11.8460   -3.5430 C   0  0  0  0  0  0  0  0  0  0  0  0
    0.3220   10.8190   -3.2200 C   0  0  0  0  0  0  0  0  0  0  0  0
    0.0120   10.3820   -1.9850 C   0  0  0  0  0  0  0  0  0  0  0  0
    0.8010   10.8620   -0.7590 C   0  0  1  0  0  0  0  0  0  0  0  0
    1.1620    9.6450    0.1330 C   0  0  0  0  0  0  0  0  0  0  0  0
   -0.0620    8.8160    0.5140 C   0  0  0  0  0  0  0  0  0  0  0  0
   -0.7860    8.3090   -0.7300 C   0  0  2  0  0  0  0  0  0  0  0  0
    0.0580    7.3710   -1.4040 O   0  0  0  0  0  0  0  0  0  0  0  0
   -1.1900    9.4460   -1.7100 C   0  0  0  0  0  0  0  0  0  0  0  0
   -2.3300   10.2890   -1.0870 C   0  0  0  0  0  0  0  0  0  0  0  0
   -1.7840    8.7890   -2.9850 C   0  0  0  0  0  0  0  0  0  0  0  0
    2.0560   11.7890   -1.0620 C   0  0  1  0  0  0  0  0  0  0  0  0
    3.3150   10.9100   -1.3330 C   0  0  0  0  0  0  0  0  0  0  0  0
    2.3810   12.6480    0.2170 C   0  0  0  0  0  0  0  0  0  0  0  0
    1.6430   13.9930    0.3570 C   0  0  0  0  0  0  0  0  0  0  0  0
    1.7400   14.8080   -0.9360 C   0  0  2  0  0  0  0  0  0  0  0  0
    3.2520   15.1320   -1.1860 C   0  0  0  0  0  0  0  0  0  0  0  0
    0.3084   18.5358    1.0771 H   0  0  0  0  0  0  0  0  0  0  0  0
    0.7723   19.3390   -0.4612 H   0  0  0  0  0  0  0  0  0  0  0  0
   -0.4860   18.0571   -0.4612 H   0  0  0  0  0  0  0  0  0  0  0  0
    1.8983   17.0055    0.7567 H   0  0  0  0  0  0  0  0  0  0  0  0
    3.0114   17.1787   -1.8007 H   0  0  0  0  0  0  0  0  0  0  0  0
    2.4495   18.8718   -1.4001 H   0  0  0  0  0  0  0  0  0  0  0  0
    4.5427   17.1723   -0.0493 H   0  0  0  0  0  0  0  0  0  0  0  0
    4.5992   18.8984   -0.6014 H   0  0  0  0  0  0  0  0  0  0  0  0
    2.8050   17.8379    1.3046 H   0  0  0  0  0  0  0  0  0  0  0  0
    6.6646   19.1263    2.8919 H   0  0  0  0  0  0  0  0  0  0  0  0
    6.3674   18.2188    1.3704 H   0  0  0  0  0  0  0  0  0  0  0  0
    6.3134   20.0143    1.3704 H   0  0  0  0  0  0  0  0  0  0  0  0
    5.1629   19.1124    4.3303 H   0  0  0  0  0  0  0  0  0  0  0  0
    3.5834   19.8743    3.9414 H   0  0  0  0  0  0  0  0  0  0  0  0
    3.7417   18.0850    3.9414 H   0  0  0  0  0  0  0  0  0  0  0  0
   -0.0016   16.0324   -0.4353 H   0  0  0  0  0  0  0  0  0  0  0  0
   -0.2155   16.7546   -2.7295 H   0  0  0  0  0  0  0  0  0  0  0  0
    1.5067   17.1792   -2.8373 H   0  0  0  0  0  0  0  0  0  0  0  0
    0.2959   14.8505   -3.9676 H   0  0  0  0  0  0  0  0  0  0  0  0
    2.0327   15.0588   -3.7601 H   0  0  0  0  0  0  0  0  0  0  0  0
   -0.6788   13.6745   -0.7745 H   0  0  0  0  0  0  0  0  0  0  0  0
   -1.0763   14.5132   -2.3125 H   0  0  0  0  0  0  0  0  0  0  0  0
   -0.7413   12.7485   -2.3125 H   0  0  0  0  0  0  0  0  0  0  0  0
    2.8341   13.0676   -2.6375 H   0  0  0  0  0  0  0  0  0  0  0  0
    0.9296   12.5329   -4.2895 H   0  0  0  0  0  0  0  0  0  0  0  0
    2.2331   11.2910   -3.9048 H   0  0  0  0  0  0  0  0  0  0  0  0
   -0.2336   10.3817   -4.0627 H   0  0  0  0  0  0  0  0  0  0  0  0
    0.1300   11.5405   -0.2118 H   0  0  0  0  0  0  0  0  0  0  0  0
    1.8666    9.0024   -0.4153 H   0  0  0  0  0  0  0  0  0  0  0  0
    1.6063   10.0316    1.0621 H   0  0  0  0  0  0  0  0  0  0  0  0
    0.2601    7.9555    1.1189 H   0  0  0  0  0  0  0  0  0  0  0  0
   -0.7524    9.4522    1.0872 H   0  0  0  0  0  0  0  0  0  0  0  0
   -1.7211    7.8348   -0.3971 H   0  0  0  0  0  0  0  0  0  0  0  0
    0.1320    7.6540   -2.3310 H   0  0  0  0  0  0  0  0  0  0  0  0
   -2.2645   10.2405    0.0100 H   0  0  0  0  0  0  0  0  0  0  0  0
   -2.2336   11.3348   -1.4142 H   0  0  0  0  0  0  0  0  0  0  0  0
   -3.3016    9.8905   -1.4142 H   0  0  0  0  0  0  0  0  0  0  0  0
   -2.4955    8.0020   -2.6944 H   0  0  0  0  0  0  0  0  0  0  0  0
   -2.3049    9.5521   -3.5820 H   0  0  0  0  0  0  0  0  0  0  0  0
   -0.9725    8.3474   -3.5820 H   0  0  0  0  0  0  0  0  0  0  0  0
    3.7589   10.6001   -0.3754 H   0  0  0  0  0  0  0  0  0  0  0  0
    3.0230   10.0185   -1.9074 H   0  0  0  0  0  0  0  0  0  0  0  0
    4.0513   11.4913   -1.9074 H   0  0  0  0  0  0  0  0  0  0  0  0
    2.1327   12.0389    1.0987 H   0  0  0  0  0  0  0  0  0  0  0  0
    3.4447   12.9120    0.1234 H   0  0  0  0  0  0  0  0  0  0  0  0
    0.5837   13.8006    0.5826 H   0  0  0  0  0  0  0  0  0  0  0  0
    2.1113   14.5674    1.1699 H   0  0  0  0  0  0  0  0  0  0  0  0
    3.7678   15.2425   -0.2207 H   0  0  0  0  0  0  0  0  0  0  0  0
    3.7132   14.3123   -1.7564 H   0  0  0  0  0  0  0  0  0  0  0  0
    3.3368   16.0687   -1.7564 H   0  0  0  0  0  0  0  0  0  0  0  0
  1  2  1  0
  2  3  1  0
  3  4  1  0
  4  5  1  0
  5  6  1  0
  6  7  1  0
  7  8  1  0
  7  9  1  0
  2 10  1  0
 10 11  1  0
 11 12  1  0
 12 13  1  0
 13 14  1  1
 13 15  1  0
 15 16  1  0
 16 17  1  0
 17 18  2  0
 18 19  1  0
 19 20  1  0
 20 21  1  0
 21 22  1  0
 22 23  1  0
 22 24  1  0
 24 25  1  0
 24 26  1  0
 19 27  1  0
 27 28  1  6
 27 29  1  0
 29 30  1  0
 30 31  1  0
 31 32  1  6
  7  5  1  0
 31 10  1  0
 31 13  1  0
 27 15  1  0
 24 18  1  0
  1 33  1  0
  1 34  1  0
  1 35  1  0
  2 36  1  1
  3 37  1  0
  3 38  1  0
  4 39  1  0
  4 40  1  0
  5 41  1  1
  8 42  1  0
  8 43  1  0
  8 44  1  0
  9 45  1  0
  9 46  1  0
  9 47  1  0
 10 48  1  1
 11 49  1  0
 11 50  1  0
 12 51  1  0
 12 52  1  0
 14 53  1  0
 14 54  1  0
 14 55  1  0
 15 56  1  6
 16 57  1  0
 16 58  1  0
 17 59  1  0
 19 60  1  1
 20 61  1  0
 20 62  1  0
 21 63  1  0
 21 64  1  0
 22 65  1  1
 23 66  1  0
 25 67  1  0
 25 68  1  0
 25 69  1  0
 26 70  1  0
 26 71  1  0
 26 72  1  0
 28 73  1  0
 28 74  1  0
 28 75  1  0
 29 76  1  0
 29 77  1  0
 30 78  1  0
 30 79  1  0
 32 80  1  0
 32 81  1  0
 32 82  1  0
M  END
>  <meeko>  (3) 
{"is_sidechain": [false], "intermolecular_energy": 2.731, "internal_energy": -0.839}

$$$$
EPH_relaxed_0001_pdb2pqr_Repair_8_r2_0001_out
     RDKit          3D

 82 86  0  0  0  0  0  0  0  0999 V2000
    2.3290   18.0860   -2.6220 C   0  0  0  0  0  0  0  0  0  0  0  0
    1.0220   17.6850   -1.9320 C   0  0  2  0  0  0  0  0  0  0  0  0
    1.1360   17.7420   -0.3950 C   0  0  0  0  0  0  0  0  0  0  0  0
    0.7720   19.1060    0.1980 C   0  0  0  0  0  0  0  0  0  0  0  0
   -0.6820   19.1860    0.5540 C   0  0  2  0  0  0  0  0  0  0  0  0
   -1.5270   18.2860   -0.1750 O   0  0  0  0  0  0  0  0  0  0  0  0
   -1.7500   19.6880   -0.3990 C   0  0  0  0  0  0  0  0  0  0  0  0
   -1.4090   20.1450   -1.7830 C   0  0  0  0  0  0  0  0  0  0  0  0
   -3.0390   20.1920    0.1720 C   0  0  0  0  0  0  0  0  0  0  0  0
    0.6110   16.2850   -2.3720 C   0  0  1  0  0  0  0  0  0  0  0  0
    0.7710   16.0680   -3.9010 C   0  0  0  0  0  0  0  0  0  0  0  0
    1.2010   14.5910   -4.1000 C   0  0  0  0  0  0  0  0  0  0  0  0
    0.9520   13.9240   -2.7270 C   0  0  1  0  0  0  0  0  0  0  0  0
   -0.5760   13.6080   -2.7050 C   0  0  0  0  0  0  0  0  0  0  0  0
    1.8090   12.6550   -2.4110 C   0  0  2  0  0  0  0  0  0  0  0  0
    1.5810   11.4620   -3.3560 C   0  0  0  0  0  0  0  0  0  0  0  0
    0.5170   10.5060   -2.9310 C   0  0  0  0  0  0  0  0  0  0  0  0
   -0.0300   10.4390   -1.7030 C   0  0  0  0  0  0  0  0  0  0  0  0
    0.4890   11.3220   -0.5610 C   0  0  1  0  0  0  0  0  0  0  0  0
    0.6770   10.4600    0.7150 C   0  0  0  0  0  0  0  0  0  0  0  0
   -0.5870    9.6960    1.0970 C   0  0  0  0  0  0  0  0  0  0  0  0
   -1.0390    8.7860   -0.0420 C   0  0  2  0  0  0  0  0  0  0  0  0
   -0.0650    7.7530   -0.2210 O   0  0  0  0  0  0  0  0  0  0  0  0
   -1.2510    9.5420   -1.3830 C   0  0  0  0  0  0  0  0  0  0  0  0
   -2.5040   10.4470   -1.2780 C   0  0  0  0  0  0  0  0  0  0  0  0
   -1.5670    8.4900   -2.4800 C   0  0  0  0  0  0  0  0  0  0  0  0
    1.7670   12.2060   -0.8940 C   0  0  1  0  0  0  0  0  0  0  0  0
    3.0660   11.3820   -0.6380 C   0  0  0  0  0  0  0  0  0  0  0  0
    1.8160   13.4310    0.0940 C   0  0  0  0  0  0  0  0  0  0  0  0
    1.0490   14.6980   -0.3310 C   0  0  0  0  0  0  0  0  0  0  0  0
    1.3940   15.0910   -1.7710 C   0  0  2  0  0  0  0  0  0  0  0  0
    2.9210   15.4360   -1.8190 C   0  0  0  0  0  0  0  0  0  0  0  0
    3.0887   18.3191   -1.8614 H   0  0  0  0  0  0  0  0  0  0  0  0
    2.6820   17.2548   -3.2501 H   0  0  0  0  0  0  0  0  0  0  0  0
    2.1551   18.9721   -3.2501 H   0  0  0  0  0  0  0  0  0  0  0  0
    0.2521   18.4106   -2.2332 H   0  0  0  0  0  0  0  0  0  0  0  0
    0.4604   16.9861    0.0318 H   0  0  0  0  0  0  0  0  0  0  0  0
    2.1898   17.5523   -0.1431 H   0  0  0  0  0  0  0  0  0  0  0  0
    1.3708   19.2713    1.1058 H   0  0  0  0  0  0  0  0  0  0  0  0
    0.9824   19.8760   -0.5589 H   0  0  0  0  0  0  0  0  0  0  0  0
   -0.4373   19.4508    1.5932 H   0  0  0  0  0  0  0  0  0  0  0  0
   -0.7520   21.0255   -1.7270 H   0  0  0  0  0  0  0  0  0  0  0  0
   -0.8924   19.3356   -2.3196 H   0  0  0  0  0  0  0  0  0  0  0  0
   -2.3320   20.4098   -2.3196 H   0  0  0  0  0  0  0  0  0  0  0  0
   -2.9863   20.1714    1.2705 H   0  0  0  0  0  0  0  0  0  0  0  0
   -3.2118   21.2239   -0.1675 H   0  0  0  0  0  0  0  0  0  0  0  0
   -3.8659   19.5510   -0.1675 H   0  0  0  0  0  0  0  0  0  0  0  0
   -0.4269   16.2754   -2.0078 H   0  0  0  0  0  0  0  0  0  0  0  0
   -0.1844   16.2567   -4.4125 H   0  0  0  0  0  0  0  0  0  0  0  0
    1.5178   16.7572   -4.3220 H   0  0  0  0  0  0  0  0  0  0  0  0
    0.5926   14.1112   -4.8809 H   0  0  0  0  0  0  0  0  0  0  0  0
    2.2485   14.5014   -4.4235 H   0  0  0  0  0  0  0  0  0  0  0  0
   -0.9207   13.5367   -1.6628 H   0  0  0  0  0  0  0  0  0  0  0  0
   -1.1241   14.4118   -3.2183 H   0  0  0  0  0  0  0  0  0  0  0  0
   -0.7603   12.6527   -3.2183 H   0  0  0  0  0  0  0  0  0  0  0  0
    2.8321   13.0051   -2.6125 H   0  0  0  0  0  0  0  0  0  0  0  0
    1.3061   11.8591   -4.3443 H   0  0  0  0  0  0  0  0  0  0  0  0
    2.5209   10.8905   -3.3565 H   0  0  0  0  0  0  0  0  0  0  0  0
    0.1483    9.7955   -3.6855 H   0  0  0  0  0  0  0  0  0  0  0  0
   -0.2869   12.0821   -0.3872 H   0  0  0  0  0  0  0  0  0  0  0  0
    1.4857    9.7362    0.5355 H   0  0  0  0  0  0  0  0  0  0  0  0
    0.9191   11.1405    1.5447 H   0  0  0  0  0  0  0  0  0  0  0  0
   -0.3823    9.0836    1.9876 H   0  0  0  0  0  0  0  0  0  0  0  0
   -1.3868   10.4219    1.3052 H   0  0  0  0  0  0  0  0  0  0  0  0
   -2.0162    8.3664    0.2392 H   0  0  0  0  0  0  0  0  0  0  0  0
    0.7510    8.1720   -0.5440 H   0  0  0  0  0  0  0  0  0  0  0  0
   -2.7436   10.6200   -0.2184 H   0  0  0  0  0  0  0  0  0  0  0  0
   -2.3032   11.4099   -1.7705 H   0  0  0  0  0  0  0  0  0  0  0  0
   -3.3549    9.9537   -1.7705 H   0  0  0  0  0  0  0  0  0  0  0  0
   -1.8525    7.5397   -2.0053 H   0  0  0  0  0  0  0  0  0  0  0  0
   -2.3964    8.8508   -3.1060 H   0  0  0  0  0  0  0  0  0  0  0  0
   -0.6760    8.3341   -3.1060 H   0  0  0  0  0  0  0  0  0  0  0  0
    3.2277   11.2795    0.4452 H   0  0  0  0  0  0  0  0  0  0  0  0
    2.9622   10.3842   -1.0893 H   0  0  0  0  0  0  0  0  0  0  0  0
    3.9244   11.9011   -1.0893 H   0  0  0  0  0  0  0  0  0  0  0  0
    1.4014   13.0985    1.0571 H   0  0  0  0  0  0  0  0  0  0  0  0
    2.8735   13.7322    0.1264 H   0  0  0  0  0  0  0  0  0  0  0  0
   -0.0316   14.5053   -0.2597 H   0  0  0  0  0  0  0  0  0  0  0  0
    1.3379   15.5232    0.3365 H   0  0  0  0  0  0  0  0  0  0  0  0
    3.3095   15.5238   -0.7936 H   0  0  0  0  0  0  0  0  0  0  0  0
    3.4609   14.6372   -2.3485 H   0  0  0  0  0  0  0  0  0  0  0  0
    3.0651   16.3893   -2.3485 H   0  0  0  0  0  0  0  0  0  0  0  0
  1  2  1  0
  2  3  1  0
  3  4  1  0
  4  5  1  0
  5  6  1  0
  6  7  1  0
  7  8  1  0
  7  9  1  0
  2 10  1  0
 10 11  1  0
 11 12  1  0
 12 13  1  0
 13 14  1  1
 13 15  1  0
 15 16  1  0
 16 17  1  0
 17 18  2  0
 18 19  1  0
 19 20  1  0
 20 21  1  0
 21 22  1  0
 22 23  1  0
 22 24  1  0
 24 25  1  0
 24 26  1  0
 19 27  1  0
 27 28  1  1
 27 29  1  0
 29 30  1  0
 30 31  1  0
 31 32  1  1
  7  5  1  0
 31 10  1  0
 31 13  1  0
 27 15  1  0
 24 18  1  0
  1 33  1  0
  1 34  1  0
  1 35  1  0
  2 36  1  6
  3 37  1  0
  3 38  1  0
  4 39  1  0
  4 40  1  0
  5 41  1  1
  8 42  1  0
  8 43  1  0
  8 44  1  0
  9 45  1  0
  9 46  1  0
  9 47  1  0
 10 48  1  6
 11 49  1  0
 11 50  1  0
 12 51  1  0
 12 52  1  0
 14 53  1  0
 14 54  1  0
 14 55  1  0
 15 56  1  6
 16 57  1  0
 16 58  1  0
 17 59  1  0
 19 60  1  1
 20 61  1  0
 20 62  1  0
 21 63  1  0
 21 64  1  0
 22 65  1  1
 23 66  1  0
 25 67  1  0
 25 68  1  0
 25 69  1  0
 26 70  1  0
 26 71  1  0
 26 72  1  0
 28 73  1  0
 28 74  1  0
 28 75  1  0
 29 76  1  0
 29 77  1  0
 30 78  1  0
 30 79  1  0
 32 80  1  0
 32 81  1  0
 32 82  1  0
M  END
>  <meeko>  (4) 
{"is_sidechain": [false], "intermolecular_energy": 2.731, "internal_energy": -0.839}

$$$$
EPH_relaxed_0001_pdb2pqr_Repair_8_r2_0001_out
     RDKit          3D

 82 86  0  0  0  0  0  0  0  0999 V2000
    2.2210   17.9840   -2.5430 C   0  0  0  0  0  0  0  0  0  0  0  0
    0.6990   17.8510   -2.6430 C   0  0  2  0  0  0  0  0  0  0  0  0
   -0.0120   18.3370   -1.3640 C   0  0  0  0  0  0  0  0  0  0  0  0
    0.7010   17.9310   -0.0720 C   0  0  0  0  0  0  0  0  0  0  0  0
    1.2590   19.1200    0.6510 C   0  0  2  0  0  0  0  0  0  0  0  0
    2.1580   19.9240   -0.1240 O   0  0  0  0  0  0  0  0  0  0  0  0
    2.7240   19.2630    1.0190 C   0  0  0  0  0  0  0  0  0  0  0  0
    3.7220   18.2020    0.6770 C   0  0  0  0  0  0  0  0  0  0  0  0
    3.0940   20.1940    2.1310 C   0  0  0  0  0  0  0  0  0  0  0  0
    0.3220   16.4030   -2.9300 C   0  0  1  0  0  0  0  0  0  0  0  0
    0.3830   16.0570   -4.4420 C   0  0  0  0  0  0  0  0  0  0  0  0
    0.8640   14.5870   -4.5460 C   0  0  0  0  0  0  0  0  0  0  0  0
    0.7450   14.0350   -3.1060 C   0  0  1  0  0  0  0  0  0  0  0  0
   -0.7620   13.6630   -2.9430 C   0  0  0  0  0  0  0  0  0  0  0  0
    1.6780   12.8330   -2.7470 C   0  0  2  0  0  0  0  0  0  0  0  0
    1.4390   11.5530   -3.5670 C   0  0  0  0  0  0  0  0  0  0  0  0
    0.4520   10.5970   -2.9840 C   0  0  0  0  0  0  0  0  0  0  0  0
   -0.0030   10.6180   -1.7170 C   0  0  0  0  0  0  0  0  0  0  0  0
    0.5550   11.6190   -0.6960 C   0  0  1  0  0  0  0  0  0  0  0  0
    0.8730   10.8820    0.6310 C   0  0  0  0  0  0  0  0  0  0  0  0
   -0.3250   10.1060    1.1700 C   0  0  0  0  0  0  0  0  0  0  0  0
   -0.8150    9.0810    0.1500 C   0  0  2  0  0  0  0  0  0  0  0  0
    0.1910    8.0760   -0.0120 O   0  0  0  0  0  0  0  0  0  0  0  0
   -1.1560    9.7060   -1.2310 C   0  0  0  0  0  0  0  0  0  0  0  0
   -2.4380   10.5670   -1.1110 C   0  0  0  0  0  0  0  0  0  0  0  0
   -1.5000    8.5490   -2.2070 C   0  0  0  0  0  0  0  0  0  0  0  0
    1.7650   12.5200   -1.1990 C   0  0  1  0  0  0  0  0  0  0  0  0
    3.1150   11.7730   -0.9700 C   0  0  0  0  0  0  0  0  0  0  0  0
    1.8280   13.8290   -0.3260 C   0  0  0  0  0  0  0  0  0  0  0  0
    0.9750   15.0210   -0.7990 C   0  0  0  0  0  0  0  0  0  0  0  0
    1.1990   15.2990   -2.2890 C   0  0  2  0  0  0  0  0  0  0  0  0
    2.7020   15.6980   -2.4800 C   0  0  0  0  0  0  0  0  0  0  0  0
    2.5180   18.0100   -1.4842 H   0  0  0  0  0  0  0  0  0  0  0  0
    2.6974   17.1241   -3.0365 H   0  0  0  0  0  0  0  0  0  0  0  0
    2.5411   18.9135   -3.0365 H   0  0  0  0  0  0  0  0  0  0  0  0
    0.3644   18.4936   -3.4708 H   0  0  0  0  0  0  0  0  0  0  0  0
   -0.0734   19.4348   -1.3966 H   0  0  0  0  0  0  0  0  0  0  0  0
   -1.0038   17.8616   -1.3470 H   0  0  0  0  0  0  0  0  0  0  0  0
   -0.0169   17.4187    0.5854 H   0  0  0  0  0  0  0  0  0  0  0  0
    1.5372   17.2670   -0.3361 H   0  0  0  0  0  0  0  0  0  0  0  0
    0.3364   19.2243    1.2409 H   0  0  0  0  0  0  0  0  0  0  0  0
    4.1290   17.7693    1.6028 H   0  0  0  0  0  0  0  0  0  0  0  0
    3.2312   17.4130    0.0884 H   0  0  0  0  0  0  0  0  0  0  0  0
    4.5396   18.6437    0.0884 H   0  0  0  0  0  0  0  0  0  0  0  0
    2.9001   19.7060    3.0976 H   0  0  0  0  0  0  0  0  0  0  0  0
    4.1616   20.4484    2.0563 H   0  0  0  0  0  0  0  0  0  0  0  0
    2.4923   21.1118    2.0563 H   0  0  0  0  0  0  0  0  0  0  0  0
   -0.6862   16.3856   -2.4905 H   0  0  0  0  0  0  0  0  0  0  0  0
   -0.6138   16.1622   -4.8951 H   0  0  0  0  0  0  0  0  0  0  0  0
    1.0665   16.7346   -4.9747 H   0  0  0  0  0  0  0  0  0  0  0  0
    0.2235   14.0166   -5.2347 H   0  0  0  0  0  0  0  0  0  0  0  0
    1.8885   14.5100   -4.9390 H   0  0  0  0  0  0  0  0  0  0  0  0
   -1.0109   13.6016   -1.8733 H   0  0  0  0  0  0  0  0  0  0  0  0
   -1.3839   14.4346   -3.4204 H   0  0  0  0  0  0  0  0  0  0  0  0
   -0.9534   12.6907   -3.4204 H   0  0  0  0  0  0  0  0  0  0  0  0
    2.6673   13.2032   -3.0538 H   0  0  0  0  0  0  0  0  0  0  0  0
    1.0774   11.8498   -4.5626 H   0  0  0  0  0  0  0  0  0  0  0  0
    2.4016   11.0211   -3.5882 H   0  0  0  0  0  0  0  0  0  0  0  0
    0.0635    9.8086   -3.6455 H   0  0  0  0  0  0  0  0  0  0  0  0
   -0.2408   12.3599   -0.5297 H   0  0  0  0  0  0  0  0  0  0  0  0
    1.6990   10.1774    0.4540 H   0  0  0  0  0  0  0  0  0  0  0  0
    1.1429   11.6420    1.3790 H   0  0  0  0  0  0  0  0  0  0  0  0
   -0.0303    9.5837    2.0921 H   0  0  0  0  0  0  0  0  0  0  0  0
   -1.1402   10.8158    1.3738 H   0  0  0  0  0  0  0  0  0  0  0  0
   -1.7495    8.6495    0.5380 H   0  0  0  0  0  0  0  0  0  0  0  0
    0.4760    7.7990    0.8750 H   0  0  0  0  0  0  0  0  0  0  0  0
   -2.6748   10.7260   -0.0486 H   0  0  0  0  0  0  0  0  0  0  0  0
   -2.2741   11.5388   -1.5996 H   0  0  0  0  0  0  0  0  0  0  0  0
   -3.2756   10.0476   -1.5996 H   0  0  0  0  0  0  0  0  0  0  0  0
   -1.7671    7.6507   -1.6311 H   0  0  0  0  0  0  0  0  0  0  0  0
   -2.3492    8.8442   -2.8408 H   0  0  0  0  0  0  0  0  0  0  0  0
   -0.6274    8.3323   -2.8408 H   0  0  0  0  0  0  0  0  0  0  0  0
    3.2991   11.6711    0.1097 H   0  0  0  0  0  0  0  0  0  0  0  0
    3.0641   10.7747   -1.4291 H   0  0  0  0  0  0  0  0  0  0  0  0
    3.9338   12.3464   -1.4291 H   0  0  0  0  0  0  0  0  0  0  0  0
    1.4992   13.5672    0.6905 H   0  0  0  0  0  0  0  0  0  0  0  0
    2.8700   14.1738   -0.3991 H   0  0  0  0  0  0  0  0  0  0  0  0
   -0.0878   14.7918   -0.6316 H   0  0  0  0  0  0  0  0  0  0  0  0
    1.2714   15.9129   -0.2275 H   0  0  0  0  0  0  0  0  0  0  0  0
    3.1759   15.8238   -1.4953 H   0  0  0  0  0  0  0  0  0  0  0  0
    3.2231   14.9071   -3.0394 H   0  0  0  0  0  0  0  0  0  0  0  0
    2.7622   16.6432   -3.0394 H   0  0  0  0  0  0  0  0  0  0  0  0
  1  2  1  0
  2  3  1  0
  3  4  1  0
  4  5  1  0
  5  6  1  0
  6  7  1  0
  7  8  1  0
  7  9  1  0
  2 10  1  0
 10 11  1  0
 11 12  1  0
 12 13  1  0
 13 14  1  1
 13 15  1  0
 15 16  1  0
 16 17  1  0
 17 18  2  0
 18 19  1  0
 19 20  1  0
 20 21  1  0
 21 22  1  0
 22 23  1  0
 22 24  1  0
 24 25  1  0
 24 26  1  0
 19 27  1  0
 27 28  1  6
 27 29  1  0
 29 30  1  0
 30 31  1  0
 31 32  1  1
  7  5  1  0
 31 10  1  0
 31 13  1  0
 27 15  1  0
 24 18  1  0
  1 33  1  0
  1 34  1  0
  1 35  1  0
  2 36  1  6
  3 37  1  0
  3 38  1  0
  4 39  1  0
  4 40  1  0
  5 41  1  1
  8 42  1  0
  8 43  1  0
  8 44  1  0
  9 45  1  0
  9 46  1  0
  9 47  1  0
 10 48  1  1
 11 49  1  0
 11 50  1  0
 12 51  1  0
 12 52  1  0
 14 53  1  0
 14 54  1  0
 14 55  1  0
 15 56  1  6
 16 57  1  0
 16 58  1  0
 17 59  1  0
 19 60  1  1
 20 61  1  0
 20 62  1  0
 21 63  1  0
 21 64  1  0
 22 65  1  1
 23 66  1  0
 25 67  1  0
 25 68  1  0
 25 69  1  0
 26 70  1  0
 26 71  1  0
 26 72  1  0
 28 73  1  0
 28 74  1  0
 28 75  1  0
 29 76  1  0
 29 77  1  0
 30 78  1  0
 30 79  1  0
 32 80  1  0
 32 81  1  0
 32 82  1  0
M  END
>  <meeko>  (5) 
{"is_sidechain": [false], "intermolecular_energy": 2.731, "internal_energy": -0.839}

$$$$
EPH_relaxed_0001_pdb2pqr_Repair_8_r2_0001_out
     RDKit          3D

 82 86  0  0  0  0  0  0  0  0999 V2000
   -3.4290    9.3360    0.5020 C   0  0  0  0  0  0  0  0  0  0  0  0
   -2.5800    9.6810   -0.7240 C   0  0  2  0  0  0  0  0  0  0  0  0
   -1.9060    8.4350   -1.3330 C   0  0  0  0  0  0  0  0  0  0  0  0
   -2.8140    7.6440   -2.2790 C   0  0  0  0  0  0  0  0  0  0  0  0
   -4.2550    7.7510   -1.8820 C   0  0  2  0  0  0  0  0  0  0  0  0
   -4.8150    6.5510   -1.3330 O   0  0  0  0  0  0  0  0  0  0  0  0
   -5.3730    6.9980   -2.5790 C   0  0  0  0  0  0  0  0  0  0  0  0
   -5.0980    6.0840   -3.7320 C   0  0  0  0  0  0  0  0  0  0  0  0
   -6.7700    7.5210   -2.4610 C   0  0  0  0  0  0  0  0  0  0  0  0
   -1.5230   10.7140   -0.3510 C   0  0  1  0  0  0  0  0  0  0  0  0
   -0.4260   10.1360    0.5830 C   0  0  0  0  0  0  0  0  0  0  0  0
    0.9040   10.8320    0.1940 C   0  0  0  0  0  0  0  0  0  0  0  0
    0.4770   12.0120   -0.7090 C   0  0  1  0  0  0  0  0  0  0  0  0
    0.0340   13.1350    0.2800 C   0  0  0  0  0  0  0  0  0  0  0  0
    1.5490   12.5280   -1.7240 C   0  0  2  0  0  0  0  0  0  0  0  0
    2.8280   13.1000   -1.0890 C   0  0  0  0  0  0  0  0  0  0  0  0
    2.7990   14.5650   -0.8050 C   0  0  0  0  0  0  0  0  0  0  0  0
    1.9080   15.4410   -1.3050 C   0  0  0  0  0  0  0  0  0  0  0  0
    0.8570   14.9970   -2.3300 C   0  0  1  0  0  0  0  0  0  0  0  0
    0.8080   16.0180   -3.4970 C   0  0  0  0  0  0  0  0  0  0  0  0
    0.5840   17.4480   -3.0140 C   0  0  0  0  0  0  0  0  0  0  0  0
    1.6820   17.8730   -2.0420 C   0  0  2  0  0  0  0  0  0  0  0  0
    2.9220   17.9490   -2.7520 O   0  0  0  0  0  0  0  0  0  0  0  0
    1.8310   16.9130   -0.8290 C   0  0  0  0  0  0  0  0  0  0  0  0
    0.6040   17.0580    0.1040 C   0  0  0  0  0  0  0  0  0  0  0  0
    3.0620   17.3750   -0.0030 C   0  0  0  0  0  0  0  0  0  0  0  0
    0.9740   13.4950   -2.8370 C   0  0  1  0  0  0  0  0  0  0  0  0
    1.9570   13.4170   -4.0460 C   0  0  0  0  0  0  0  0  0  0  0  0
   -0.4280   13.0230   -3.3750 C   0  0  0  0  0  0  0  0  0  0  0  0
   -1.3970   12.4130   -2.3450 C   0  0  0  0  0  0  0  0  0  0  0  0
   -0.7000   11.3380   -1.5050 C   0  0  2  0  0  0  0  0  0  0  0  0
   -0.2620   10.1850   -2.4710 C   0  0  0  0  0  0  0  0  0  0  0  0
   -2.8628    9.5661    1.4166 H   0  0  0  0  0  0  0  0  0  0  0  0
   -4.3553    9.9291    0.4852 H   0  0  0  0  0  0  0  0  0  0  0  0
   -3.6790    8.2649    0.4852 H   0  0  0  0  0  0  0  0  0  0  0  0
   -3.2546   10.0978   -1.4863 H   0  0  0  0  0  0  0  0  0  0  0  0
   -1.0182    8.7603   -1.8951 H   0  0  0  0  0  0  0  0  0  0  0  0
   -1.6521    7.7662   -0.4973 H   0  0  0  0  0  0  0  0  0  0  0  0
   -2.6951    8.0375   -3.2993 H   0  0  0  0  0  0  0  0  0  0  0  0
   -2.5221    6.5846   -2.2287 H   0  0  0  0  0  0  0  0  0  0  0  0
   -4.1297    8.8129   -1.6240 H   0  0  0  0  0  0  0  0  0  0  0  0
   -4.8005    5.0951   -3.3531 H   0  0  0  0  0  0  0  0  0  0  0  0
   -6.0058    5.9838   -4.3451 H   0  0  0  0  0  0  0  0  0  0  0  0
   -4.2857    6.5014   -4.3451 H   0  0  0  0  0  0  0  0  0  0  0  0
   -7.0357    7.6205   -1.3982 H   0  0  0  0  0  0  0  0  0  0  0  0
   -6.8357    8.5046   -2.9490 H   0  0  0  0  0  0  0  0  0  0  0  0
   -7.4655    6.8224   -2.9490 H   0  0  0  0  0  0  0  0  0  0  0  0
   -2.1668   11.4789    0.1078 H   0  0  0  0  0  0  0  0  0  0  0  0
   -0.6720   10.3492    1.6337 H   0  0  0  0  0  0  0  0  0  0  0  0
   -0.3479    9.0444    0.4726 H   0  0  0  0  0  0  0  0  0  0  0  0
    1.4272   11.1980    1.0897 H   0  0  0  0  0  0  0  0  0  0  0  0
    1.5996   10.1481   -0.3144 H   0  0  0  0  0  0  0  0  0  0  0  0
    0.1711   12.7875    1.3146 H   0  0  0  0  0  0  0  0  0  0  0  0
    0.6448   14.0341    0.1112 H   0  0  0  0  0  0  0  0  0  0  0  0
   -1.0262   13.3750    0.1112 H   0  0  0  0  0  0  0  0  0  0  0  0
    1.8571   11.6024   -2.2323 H   0  0  0  0  0  0  0  0  0  0  0  0
    3.0007   12.5730   -0.1390 H   0  0  0  0  0  0  0  0  0  0  0  0
    3.6283   12.9493   -1.8285 H   0  0  0  0  0  0  0  0  0  0  0  0
    3.5712   14.9623   -0.1299 H   0  0  0  0  0  0  0  0  0  0  0  0
   -0.1052   14.9934   -1.7970 H   0  0  0  0  0  0  0  0  0  0  0  0
    1.7620   15.9755   -4.0430 H   0  0  0  0  0  0  0  0  0  0  0  0
   -0.0403   15.7468   -4.1427 H   0  0  0  0  0  0  0  0  0  0  0  0
    0.5880   18.1256   -3.8805 H   0  0  0  0  0  0  0  0  0  0  0  0
   -0.3839   17.4956   -2.4935 H   0  0  0  0  0  0  0  0  0  0  0  0
    1.3989   18.8538   -1.6321 H   0  0  0  0  0  0  0  0  0  0  0  0
    3.2460   18.8630   -2.6810 H   0  0  0  0  0  0  0  0  0  0  0  0
    0.9341   17.0190    1.1526 H   0  0  0  0  0  0  0  0  0  0  0  0
    0.1085   18.0210   -0.0889 H   0  0  0  0  0  0  0  0  0  0  0  0
   -0.1023   16.2371   -0.0889 H   0  0  0  0  0  0  0  0  0  0  0  0
    2.8362   17.2902    1.0702 H   0  0  0  0  0  0  0  0  0  0  0  0
    3.9265   16.7401   -0.2470 H   0  0  0  0  0  0  0  0  0  0  0  0
    3.2954   18.4219   -0.2470 H   0  0  0  0  0  0  0  0  0  0  0  0
    2.9892   13.3351   -3.6746 H   0  0  0  0  0  0  0  0  0  0  0  0
    1.7164   12.5351   -4.6579 H   0  0  0  0  0  0  0  0  0  0  0  0
    1.8585   14.3258   -4.6579 H   0  0  0  0  0  0  0  0  0  0  0  0
   -0.9244   13.8969   -3.8221 H   0  0  0  0  0  0  0  0  0  0  0  0
   -0.2066   12.2081   -4.0800 H   0  0  0  0  0  0  0  0  0  0  0  0
   -1.7623   13.2089   -1.6794 H   0  0  0  0  0  0  0  0  0  0  0  0
   -2.2347   11.9474   -2.8848 H   0  0  0  0  0  0  0  0  0  0  0  0
    0.0676    9.3174   -1.8806 H   0  0  0  0  0  0  0  0  0  0  0  0
   -1.1126    9.8951   -3.1053 H   0  0  0  0  0  0  0  0  0  0  0  0
    0.5666   10.5330   -3.1053 H   0  0  0  0  0  0  0  0  0  0  0  0
  1  2  1  0
  2  3  1  0
  3  4  1  0
  4  5  1  0
  5  6  1  0
  6  7  1  0
  7  8  1  0
  7  9  1  0
  2 10  1  0
 10 11  1  0
 11 12  1  0
 12 13  1  0
 13 14  1  1
 13 15  1  0
 15 16  1  0
 16 17  1  0
 17 18  2  0
 18 19  1  0
 19 20  1  0
 20 21  1  0
 21 22  1  0
 22 23  1  0
 22 24  1  0
 24 25  1  0
 24 26  1  0
 19 27  1  0
 27 28  1  6
 27 29  1  0
 29 30  1  0
 30 31  1  0
 31 32  1  6
  7  5  1  0
 31 10  1  0
 31 13  1  0
 27 15  1  0
 24 18  1  0
  1 33  1  0
  1 34  1  0
  1 35  1  0
  2 36  1  6
  3 37  1  0
  3 38  1  0
  4 39  1  0
  4 40  1  0
  5 41  1  1
  8 42  1  0
  8 43  1  0
  8 44  1  0
  9 45  1  0
  9 46  1  0
  9 47  1  0
 10 48  1  1
 11 49  1  0
 11 50  1  0
 12 51  1  0
 12 52  1  0
 14 53  1  0
 14 54  1  0
 14 55  1  0
 15 56  1  6
 16 57  1  0
 16 58  1  0
 17 59  1  0
 19 60  1  1
 20 61  1  0
 20 62  1  0
 21 63  1  0
 21 64  1  0
 22 65  1  1
 23 66  1  0
 25 67  1  0
 25 68  1  0
 25 69  1  0
 26 70  1  0
 26 71  1  0
 26 72  1  0
 28 73  1  0
 28 74  1  0
 28 75  1  0
 29 76  1  0
 29 77  1  0
 30 78  1  0
 30 79  1  0
 32 80  1  0
 32 81  1  0
 32 82  1  0
M  END
>  <meeko>  (6) 
{"is_sidechain": [false], "intermolecular_energy": 2.731, "internal_energy": -0.839}

$$$$
EPH_relaxed_0001_pdb2pqr_Repair_8_r2_0001_out
     RDKit          3D

 82 86  0  0  0  0  0  0  0  0999 V2000
    3.6460   18.1990    0.7680 C   0  0  0  0  0  0  0  0  0  0  0  0
    2.5680   18.6890   -0.2030 C   0  0  2  0  0  0  0  0  0  0  0  0
    1.7820   19.8900    0.3590 C   0  0  0  0  0  0  0  0  0  0  0  0
    0.5190   19.4930    1.1280 C   0  0  0  0  0  0  0  0  0  0  0  0
   -0.6960   20.1910    0.5960 C   0  0  2  0  0  0  0  0  0  0  0  0
   -1.8210   20.1940    1.4840 O   0  0  0  0  0  0  0  0  0  0  0  0
   -1.9890   19.4740    0.2520 C   0  0  0  0  0  0  0  0  0  0  0  0
   -2.1310   17.9950    0.4270 C   0  0  0  0  0  0  0  0  0  0  0  0
   -2.9370   20.1280   -0.7050 C   0  0  0  0  0  0  0  0  0  0  0  0
    1.6120   17.5500   -0.5370 C   0  0  1  0  0  0  0  0  0  0  0  0
    0.5210   17.9660   -1.5590 C   0  0  0  0  0  0  0  0  0  0  0  0
    0.2400   16.7240   -2.4430 C   0  0  0  0  0  0  0  0  0  0  0  0
    0.9240   15.5530   -1.7000 C   0  0  1  0  0  0  0  0  0  0  0  0
   -0.0860   15.1430   -0.5830 C   0  0  0  0  0  0  0  0  0  0  0  0
    1.3430   14.3290   -2.5760 C   0  0  2  0  0  0  0  0  0  0  0  0
    0.1820   13.5920   -3.2670 C   0  0  0  0  0  0  0  0  0  0  0  0
   -0.4160   12.4700   -2.4850 C   0  0  0  0  0  0  0  0  0  0  0  0
    0.1380   11.8850   -1.4070 C   0  0  0  0  0  0  0  0  0  0  0  0
    1.5410   12.2810   -0.9300 C   0  0  1  0  0  0  0  0  0  0  0  0
    2.3700   11.0020   -0.6390 C   0  0  0  0  0  0  0  0  0  0  0  0
    1.6680   10.0590    0.3330 C   0  0  0  0  0  0  0  0  0  0  0  0
    0.3010    9.6410   -0.2030 C   0  0  2  0  0  0  0  0  0  0  0  0
    0.4910    8.8380   -1.3720 O   0  0  0  0  0  0  0  0  0  0  0  0
   -0.6190   10.8470   -0.5420 C   0  0  0  0  0  0  0  0  0  0  0  0
   -1.0690   11.5420    0.7670 C   0  0  0  0  0  0  0  0  0  0  0  0
   -1.9090   10.2930   -1.2040 C   0  0  0  0  0  0  0  0  0  0  0  0
    2.3200   13.3160   -1.8510 C   0  0  1  0  0  0  0  0  0  0  0  0
    3.0880   12.5560   -2.9750 C   0  0  0  0  0  0  0  0  0  0  0  0
    3.4120   14.0530   -0.9880 C   0  0  0  0  0  0  0  0  0  0  0  0
    2.9650   15.3240   -0.2410 C   0  0  0  0  0  0  0  0  0  0  0  0
    2.2180   16.2770   -1.1780 C   0  0  2  0  0  0  0  0  0  0  0  0
    3.2160   16.7240   -2.3000 C   0  0  0  0  0  0  0  0  0  0  0  0
    3.3055   18.3538    1.8024 H   0  0  0  0  0  0  0  0  0  0  0  0
    3.8318   17.1280    0.5995 H   0  0  0  0  0  0  0  0  0  0  0  0
    4.5751   18.7633    0.5995 H   0  0  0  0  0  0  0  0  0  0  0  0
    3.0765   19.0272   -1.1179 H   0  0  0  0  0  0  0  0  0  0  0  0
    2.4414   20.4491    1.0391 H   0  0  0  0  0  0  0  0  0  0  0  0
    1.4581   20.4936   -0.5017 H   0  0  0  0  0  0  0  0  0  0  0  0
    0.3738   18.4063    1.0383 H   0  0  0  0  0  0  0  0  0  0  0  0
    0.6509   19.7875    2.1796 H   0  0  0  0  0  0  0  0  0  0  0  0
   -0.0716   20.8985    0.0307 H   0  0  0  0  0  0  0  0  0  0  0  0
   -2.1542   17.7533    1.4999 H   0  0  0  0  0  0  0  0  0  0  0  0
   -3.0656   17.6580   -0.0451 H   0  0  0  0  0  0  0  0  0  0  0  0
   -1.2776   17.4863   -0.0451 H   0  0  0  0  0  0  0  0  0  0  0  0
   -3.7147   20.6645   -0.1417 H   0  0  0  0  0  0  0  0  0  0  0  0
   -2.3863   20.8392   -1.3382 H   0  0  0  0  0  0  0  0  0  0  0  0
   -3.4064   19.3607   -1.3382 H   0  0  0  0  0  0  0  0  0  0  0  0
    1.2389   17.3212    0.4722 H   0  0  0  0  0  0  0  0  0  0  0  0
   -0.3951   18.2711   -1.0321 H   0  0  0  0  0  0  0  0  0  0  0  0
    0.8555   18.8178   -2.1693 H   0  0  0  0  0  0  0  0  0  0  0  0
   -0.8421   16.5479   -2.5324 H   0  0  0  0  0  0  0  0  0  0  0  0
    0.6207   16.8468   -3.4677 H   0  0  0  0  0  0  0  0  0  0  0  0
    0.3645   15.3259    0.4037 H   0  0  0  0  0  0  0  0  0  0  0  0
   -1.0050   15.7393   -0.6827 H   0  0  0  0  0  0  0  0  0  0  0  0
   -0.3293   14.0749   -0.6827 H   0  0  0  0  0  0  0  0  0  0  0  0
    1.9181   14.8047   -3.3841 H   0  0  0  0  0  0  0  0  0  0  0  0
   -0.6123   14.3250   -3.4715 H   0  0  0  0  0  0  0  0  0  0  0  0
    0.6067   13.1381   -4.1745 H   0  0  0  0  0  0  0  0  0  0  0  0
   -1.3926   12.0889   -2.8182 H   0  0  0  0  0  0  0  0  0  0  0  0
    1.3960   12.8512   -0.0006 H   0  0  0  0  0  0  0  0  0  0  0  0
    2.5406   10.4692   -1.5861 H   0  0  0  0  0  0  0  0  0  0  0  0
    3.3167   11.3159   -0.1750 H   0  0  0  0  0  0  0  0  0  0  0  0
    2.2884    9.1619    0.4756 H   0  0  0  0  0  0  0  0  0  0  0  0
    1.5246   10.5836    1.2891 H   0  0  0  0  0  0  0  0  0  0  0  0
   -0.2058    9.0735    0.5915 H   0  0  0  0  0  0  0  0  0  0  0  0
    1.0730    9.3290   -1.9760 H   0  0  0  0  0  0  0  0  0  0  0  0
   -0.6992   10.9708    1.6313 H   0  0  0  0  0  0  0  0  0  0  0  0
   -0.6598   12.5625    0.7997 H   0  0  0  0  0  0  0  0  0  0  0  0
   -2.1676   11.5862    0.7997 H   0  0  0  0  0  0  0  0  0  0  0  0
   -2.6202    9.9876   -0.4223 H   0  0  0  0  0  0  0  0  0  0  0  0
   -2.3649   11.0747   -1.8294 H   0  0  0  0  0  0  0  0  0  0  0  0
   -1.6561    9.4241   -1.8294 H   0  0  0  0  0  0  0  0  0  0  0  0
    3.8001   11.8514   -2.5206 H   0  0  0  0  0  0  0  0  0  0  0  0
    2.3711   12.0018   -3.5987 H   0  0  0  0  0  0  0  0  0  0  0  0
    3.6346   13.2786   -3.5987 H   0  0  0  0  0  0  0  0  0  0  0  0
    3.7813   13.3384   -0.2377 H   0  0  0  0  0  0  0  0  0  0  0  0
    4.1680   14.3944   -1.7105 H   0  0  0  0  0  0  0  0  0  0  0  0
    2.2997   15.0392    0.5874 H   0  0  0  0  0  0  0  0  0  0  0  0
    3.8589   15.8381    0.1419 H   0  0  0  0  0  0  0  0  0  0  0  0
    4.1274   17.1322   -1.8387 H   0  0  0  0  0  0  0  0  0  0  0  0
    3.4778   15.8571   -2.9245 H   0  0  0  0  0  0  0  0  0  0  0  0
    2.7435   17.4965   -2.9245 H   0  0  0  0  0  0  0  0  0  0  0  0
  1  2  1  0
  2  3  1  0
  3  4  1  0
  4  5  1  0
  5  6  1  0
  6  7  1  0
  7  8  1  0
  7  9  1  0
  2 10  1  0
 10 11  1  0
 11 12  1  0
 12 13  1  0
 13 14  1  1
 13 15  1  0
 15 16  1  0
 16 17  1  0
 17 18  2  0
 18 19  1  0
 19 20  1  0
 20 21  1  0
 21 22  1  0
 22 23  1  0
 22 24  1  0
 24 25  1  0
 24 26  1  0
 19 27  1  0
 27 28  1  6
 27 29  1  0
 29 30  1  0
 30 31  1  0
 31 32  1  6
  7  5  1  0
 31 10  1  0
 31 13  1  0
 27 15  1  0
 24 18  1  0
  1 33  1  0
  1 34  1  0
  1 35  1  0
  2 36  1  6
  3 37  1  0
  3 38  1  0
  4 39  1  0
  4 40  1  0
  5 41  1  6
  8 42  1  0
  8 43  1  0
  8 44  1  0
  9 45  1  0
  9 46  1  0
  9 47  1  0
 10 48  1  1
 11 49  1  0
 11 50  1  0
 12 51  1  0
 12 52  1  0
 14 53  1  0
 14 54  1  0
 14 55  1  0
 15 56  1  6
 16 57  1  0
 16 58  1  0
 17 59  1  0
 19 60  1  1
 20 61  1  0
 20 62  1  0
 21 63  1  0
 21 64  1  0
 22 65  1  1
 23 66  1  0
 25 67  1  0
 25 68  1  0
 25 69  1  0
 26 70  1  0
 26 71  1  0
 26 72  1  0
 28 73  1  0
 28 74  1  0
 28 75  1  0
 29 76  1  0
 29 77  1  0
 30 78  1  0
 30 79  1  0
 32 80  1  0
 32 81  1  0
 32 82  1  0
M  END
>  <meeko>  (7) 
{"is_sidechain": [false], "intermolecular_energy": 2.731, "internal_energy": -0.839}

$$$$
EPH_relaxed_0001_pdb2pqr_Repair_8_r2_0001_out
     RDKit          3D

 82 86  0  0  0  0  0  0  0  0999 V2000
   -5.2300    5.8270   -1.4660 C   0  0  0  0  0  0  0  0  0  0  0  0
   -5.4440    7.3180   -1.7420 C   0  0  2  0  0  0  0  0  0  0  0  0
   -5.1490    8.1860   -0.5020 C   0  0  0  0  0  0  0  0  0  0  0  0
   -4.1630    9.3270   -0.7710 C   0  0  0  0  0  0  0  0  0  0  0  0
   -2.7610    8.9460   -0.4010 C   0  0  2  0  0  0  0  0  0  0  0  0
   -2.2030    9.6990    0.6840 O   0  0  0  0  0  0  0  0  0  0  0  0
   -1.5670    9.8630   -0.5940 C   0  0  0  0  0  0  0  0  0  0  0  0
   -1.7210   11.2310   -1.1800 C   0  0  0  0  0  0  0  0  0  0  0  0
   -0.2030    9.2530   -0.6710 C   0  0  0  0  0  0  0  0  0  0  0  0
   -6.8720    7.5580   -2.2180 C   0  0  1  0  0  0  0  0  0  0  0  0
   -7.1680    6.8850   -3.5850 C   0  0  0  0  0  0  0  0  0  0  0  0
   -8.6450    6.4180   -3.5430 C   0  0  0  0  0  0  0  0  0  0  0  0
   -9.2420    7.1230   -2.3030 C   0  0  1  0  0  0  0  0  0  0  0  0
   -9.5810    8.5680   -2.7860 C   0  0  0  0  0  0  0  0  0  0  0  0
  -10.4790    6.4300   -1.6430 C   0  0  2  0  0  0  0  0  0  0  0  0
  -11.7240    6.3240   -2.5410 C   0  0  0  0  0  0  0  0  0  0  0  0
  -12.6740    7.4730   -2.4530 C   0  0  0  0  0  0  0  0  0  0  0  0
  -12.6840    8.4060   -1.4830 C   0  0  0  0  0  0  0  0  0  0  0  0
  -11.7330    8.3060   -0.2840 C   0  0  1  0  0  0  0  0  0  0  0  0
  -12.5220    8.5690    1.0260 C   0  0  0  0  0  0  0  0  0  0  0  0
  -13.2850    9.8890    0.9950 C   0  0  0  0  0  0  0  0  0  0  0  0
  -14.2620    9.9270   -0.1780 C   0  0  2  0  0  0  0  0  0  0  0  0
  -15.2870    8.9530    0.0440 O   0  0  0  0  0  0  0  0  0  0  0  0
  -13.5820    9.6660   -1.5510 C   0  0  0  0  0  0  0  0  0  0  0  0
  -12.6930   10.8770   -1.9300 C   0  0  0  0  0  0  0  0  0  0  0  0
  -14.6960    9.5910   -2.6290 C   0  0  0  0  0  0  0  0  0  0  0  0
  -10.8470    6.9890   -0.2090 C   0  0  1  0  0  0  0  0  0  0  0  0
  -11.6350    5.8590    0.5210 C   0  0  0  0  0  0  0  0  0  0  0  0
   -9.5700    7.2770    0.6660 C   0  0  0  0  0  0  0  0  0  0  0  0
   -8.3410    7.8490   -0.0650 C   0  0  0  0  0  0  0  0  0  0  0  0
   -8.0190    7.0310   -1.3190 C   0  0  2  0  0  0  0  0  0  0  0  0
   -7.6530    5.5780   -0.8620 C   0  0  0  0  0  0  0  0  0  0  0  0
   -5.2053    5.6550   -0.3798 H   0  0  0  0  0  0  0  0  0  0  0  0
   -6.0545    5.2499   -1.9100 H   0  0  0  0  0  0  0  0  0  0  0  0
   -4.2764    5.5051   -1.9100 H   0  0  0  0  0  0  0  0  0  0  0  0
   -4.7348    7.6146   -2.5288 H   0  0  0  0  0  0  0  0  0  0  0  0
   -6.0957    8.6208   -0.1490 H   0  0  0  0  0  0  0  0  0  0  0  0
   -4.6843    7.5289    0.2478 H   0  0  0  0  0  0  0  0  0  0  0  0
   -4.1933    9.5797   -1.8412 H   0  0  0  0  0  0  0  0  0  0  0  0
   -4.4586   10.1887   -0.1544 H   0  0  0  0  0  0  0  0  0  0  0  0
   -2.9429    7.9004   -0.6903 H   0  0  0  0  0  0  0  0  0  0  0  0
   -1.8042   11.9699   -0.3694 H   0  0  0  0  0  0  0  0  0  0  0  0
   -0.8435   11.4649   -1.8007 H   0  0  0  0  0  0  0  0  0  0  0  0
   -2.6285   11.2640   -1.8007 H   0  0  0  0  0  0  0  0  0  0  0  0
    0.1800    9.0817    0.3458 H   0  0  0  0  0  0  0  0  0  0  0  0
   -0.2598    8.2945   -1.2077 H   0  0  0  0  0  0  0  0  0  0  0  0
    0.4736    9.9343   -1.2077 H   0  0  0  0  0  0  0  0  0  0  0  0
   -6.8791    8.6579   -2.2318 H   0  0  0  0  0  0  0  0  0  0  0  0
   -7.0221    7.6069   -4.4021 H   0  0  0  0  0  0  0  0  0  0  0  0
   -6.4905    6.0368   -3.7625 H   0  0  0  0  0  0  0  0  0  0  0  0
   -9.1753    6.7244   -4.4567 H   0  0  0  0  0  0  0  0  0  0  0  0
   -8.7348    5.3233   -3.4840 H   0  0  0  0  0  0  0  0  0  0  0  0
   -9.7339    9.2199   -1.9133 H   0  0  0  0  0  0  0  0  0  0  0  0
   -8.7496    8.9564   -3.3926 H   0  0  0  0  0  0  0  0  0  0  0  0
  -10.4984    8.5461   -3.3926 H   0  0  0  0  0  0  0  0  0  0  0  0
  -10.1235    5.3986   -1.5020 H   0  0  0  0  0  0  0  0  0  0  0  0
  -11.3847    6.2427   -3.5842 H   0  0  0  0  0  0  0  0  0  0  0  0
  -12.2793    5.4424   -2.1883 H   0  0  0  0  0  0  0  0  0  0  0  0
  -13.4290    7.5644   -3.2477 H   0  0  0  0  0  0  0  0  0  0  0  0
  -10.9774    9.0921   -0.4291 H   0  0  0  0  0  0  0  0  0  0  0  0
  -13.2408    7.7498    1.1750 H   0  0  0  0  0  0  0  0  0  0  0  0
  -11.7938    8.6239    1.8487 H   0  0  0  0  0  0  0  0  0  0  0  0
  -13.8458   10.0029    1.9345 H   0  0  0  0  0  0  0  0  0  0  0  0
  -12.5622   10.7097    0.8767 H   0  0  0  0  0  0  0  0  0  0  0  0
  -14.6820   10.9426   -0.2244 H   0  0  0  0  0  0  0  0  0  0  0  0
  -14.8600    8.0810    0.0820 H   0  0  0  0  0  0  0  0  0  0  0  0
  -12.3325   11.3681   -1.0141 H   0  0  0  0  0  0  0  0  0  0  0  0
  -11.8337   10.5298   -2.5225 H   0  0  0  0  0  0  0  0  0  0  0  0
  -13.2817   11.5928   -2.5225 H   0  0  0  0  0  0  0  0  0  0  0  0
  -15.6779    9.5249   -2.1376 H   0  0  0  0  0  0  0  0  0  0  0  0
  -14.6602   10.4936   -3.2567 H   0  0  0  0  0  0  0  0  0  0  0  0
  -14.5395    8.7014   -3.2567 H   0  0  0  0  0  0  0  0  0  0  0  0
  -11.5426    5.9916    1.6091 H   0  0  0  0  0  0  0  0  0  0  0  0
  -12.6959    5.9078    0.2345 H   0  0  0  0  0  0  0  0  0  0  0  0
  -11.2225    4.8804    0.2345 H   0  0  0  0  0  0  0  0  0  0  0  0
   -9.8572    7.9965    1.4469 H   0  0  0  0  0  0  0  0  0  0  0  0
   -9.2500    6.2933    1.0401 H   0  0  0  0  0  0  0  0  0  0  0  0
   -8.5480    8.8891   -0.3572 H   0  0  0  0  0  0  0  0  0  0  0  0
   -7.4769    7.8045    0.6142 H   0  0  0  0  0  0  0  0  0  0  0  0
   -7.6412    5.5313    0.2369 H   0  0  0  0  0  0  0  0  0  0  0  0
   -8.4013    4.8718   -1.2510 H   0  0  0  0  0  0  0  0  0  0  0  0
   -6.6594    5.3106   -1.2510 H   0  0  0  0  0  0  0  0  0  0  0  0
  1  2  1  0
  2  3  1  0
  3  4  1  0
  4  5  1  0
  5  6  1  0
  6  7  1  0
  7  8  1  0
  7  9  1  0
  2 10  1  0
 10 11  1  0
 11 12  1  0
 12 13  1  0
 13 14  1  6
 13 15  1  0
 15 16  1  0
 16 17  1  0
 17 18  2  0
 18 19  1  0
 19 20  1  0
 20 21  1  0
 21 22  1  0
 22 23  1  0
 22 24  1  0
 24 25  1  0
 24 26  1  0
 19 27  1  0
 27 28  1  1
 27 29  1  0
 29 30  1  0
 30 31  1  0
 31 32  1  1
  7  5  1  0
 31 10  1  0
 31 13  1  0
 27 15  1  0
 24 18  1  0
  1 33  1  0
  1 34  1  0
  1 35  1  0
  2 36  1  6
  3 37  1  0
  3 38  1  0
  4 39  1  0
  4 40  1  0
  5 41  1  1
  8 42  1  0
  8 43  1  0
  8 44  1  0
  9 45  1  0
  9 46  1  0
  9 47  1  0
 10 48  1  6
 11 49  1  0
 11 50  1  0
 12 51  1  0
 12 52  1  0
 14 53  1  0
 14 54  1  0
 14 55  1  0
 15 56  1  1
 16 57  1  0
 16 58  1  0
 17 59  1  0
 19 60  1  6
 20 61  1  0
 20 62  1  0
 21 63  1  0
 21 64  1  0
 22 65  1  6
 23 66  1  0
 25 67  1  0
 25 68  1  0
 25 69  1  0
 26 70  1  0
 26 71  1  0
 26 72  1  0
 28 73  1  0
 28 74  1  0
 28 75  1  0
 29 76  1  0
 29 77  1  0
 30 78  1  0
 30 79  1  0
 32 80  1  0
 32 81  1  0
 32 82  1  0
M  END
>  <meeko>  (8) 
{"is_sidechain": [false], "intermolecular_energy": 2.731, "internal_energy": -0.839}

$$$$
EPH_relaxed_0001_pdb2pqr_Repair_8_r2_0001_out
     RDKit          3D

 82 86  0  0  0  0  0  0  0  0999 V2000
    0.4110    8.8100   -2.3700 C   0  0  0  0  0  0  0  0  0  0  0  0
    1.1540    9.9520   -3.0690 C   0  0  2  0  0  0  0  0  0  0  0  0
    2.6560    9.9670   -2.7180 C   0  0  0  0  0  0  0  0  0  0  0  0
    3.5380   10.5700   -3.8150 C   0  0  0  0  0  0  0  0  0  0  0  0
    4.9320   10.8240   -3.3280 C   0  0  2  0  0  0  0  0  0  0  0  0
    5.5220   12.0400   -3.8070 O   0  0  0  0  0  0  0  0  0  0  0  0
    6.1490   10.8200   -4.2350 C   0  0  0  0  0  0  0  0  0  0  0  0
    6.0260   10.5560   -5.7030 C   0  0  0  0  0  0  0  0  0  0  0  0
    7.4960   10.5870   -3.6250 C   0  0  0  0  0  0  0  0  0  0  0  0
    0.5200   11.2880   -2.7010 C   0  0  1  0  0  0  0  0  0  0  0  0
   -0.8540   11.1230   -1.9980 C   0  0  0  0  0  0  0  0  0  0  0  0
   -0.9630   12.2640   -0.9550 C   0  0  0  0  0  0  0  0  0  0  0  0
    0.1870   13.2330   -1.3150 C   0  0  1  0  0  0  0  0  0  0  0  0
   -0.3660   14.0910   -2.4970 C   0  0  0  0  0  0  0  0  0  0  0  0
    0.7240   14.1310   -0.1530 C   0  0  2  0  0  0  0  0  0  0  0  0
   -0.3010   15.1110    0.4430 C   0  0  0  0  0  0  0  0  0  0  0  0
   -0.3450   16.4570   -0.2000 C   0  0  0  0  0  0  0  0  0  0  0  0
    0.5940   16.9630   -1.0210 C   0  0  0  0  0  0  0  0  0  0  0  0
    1.8920   16.1950   -1.3000 C   0  0  1  0  0  0  0  0  0  0  0  0
    3.1010   17.1600   -1.1770 C   0  0  0  0  0  0  0  0  0  0  0  0
    2.9540   18.3970   -2.0580 C   0  0  0  0  0  0  0  0  0  0  0  0
    1.6820   19.1650   -1.7110 C   0  0  2  0  0  0  0  0  0  0  0  0
    1.8140   19.7060   -0.3930 O   0  0  0  0  0  0  0  0  0  0  0  0
    0.3980   18.2920   -1.7910 C   0  0  0  0  0  0  0  0  0  0  0  0
    0.0880   17.9570   -3.2710 C   0  0  0  0  0  0  0  0  0  0  0  0
   -0.7940   19.1480   -1.2810 C   0  0  0  0  0  0  0  0  0  0  0  0
    2.0960   14.8530   -0.4730 C   0  0  1  0  0  0  0  0  0  0  0  0
    2.7630   15.1710    0.9000 C   0  0  0  0  0  0  0  0  0  0  0  0
    3.0980   13.9180   -1.2480 C   0  0  0  0  0  0  0  0  0  0  0  0
    2.4910   12.9700   -2.2990 C   0  0  0  0  0  0  0  0  0  0  0  0
    1.3000   12.2000   -1.7210 C   0  0  2  0  0  0  0  0  0  0  0  0
    1.8300   11.3110   -0.5450 C   0  0  0  0  0  0  0  0  0  0  0  0
    0.4913    8.9334   -1.2799 H   0  0  0  0  0  0  0  0  0  0  0  0
   -0.6488    8.8279   -2.6640 H   0  0  0  0  0  0  0  0  0  0  0  0
    0.8568    7.8483   -2.6640 H   0  0  0  0  0  0  0  0  0  0  0  0
    1.0691    9.7872   -4.1533 H   0  0  0  0  0  0  0  0  0  0  0  0
    2.7922   10.5567   -1.7995 H   0  0  0  0  0  0  0  0  0  0  0  0
    2.9679    8.9194   -2.5940 H   0  0  0  0  0  0  0  0  0  0  0  0
    3.5786    9.8716   -4.6639 H   0  0  0  0  0  0  0  0  0  0  0  0
    3.0996   11.5325   -4.1172 H   0  0  0  0  0  0  0  0  0  0  0  0
    4.7181   10.3129   -2.3777 H   0  0  0  0  0  0  0  0  0  0  0  0
    5.5663    9.5692   -5.8608 H   0  0  0  0  0  0  0  0  0  0  0  0
    5.3966   11.3317   -6.1636 H   0  0  0  0  0  0  0  0  0  0  0  0
    7.0248   10.5731   -6.1636 H   0  0  0  0  0  0  0  0  0  0  0  0
    7.4095   10.6020   -2.5285 H   0  0  0  0  0  0  0  0  0  0  0  0
    7.8811    9.6089   -3.9491 H   0  0  0  0  0  0  0  0  0  0  0  0
    8.1872   11.3789   -3.9491 H   0  0  0  0  0  0  0  0  0  0  0  0
    0.4796   11.7534   -3.6969 H   0  0  0  0  0  0  0  0  0  0  0  0
   -1.6679   11.2033   -2.7336 H   0  0  0  0  0  0  0  0  0  0  0  0
   -0.9347   10.1379   -1.5153 H   0  0  0  0  0  0  0  0  0  0  0  0
   -1.9364   12.7703   -1.0337 H   0  0  0  0  0  0  0  0  0  0  0  0
   -0.8881   11.8934    0.0780 H   0  0  0  0  0  0  0  0  0  0  0  0
   -0.9211   14.9522   -2.0967 H   0  0  0  0  0  0  0  0  0  0  0  0
    0.4717   14.4491   -3.1134 H   0  0  0  0  0  0  0  0  0  0  0  0
   -1.0381   13.4760   -3.1134 H   0  0  0  0  0  0  0  0  0  0  0  0
    0.9270   13.3947    0.6386 H   0  0  0  0  0  0  0  0  0  0  0  0
   -1.2988   14.6573    0.3502 H   0  0  0  0  0  0  0  0  0  0  0  0
    0.0106   15.2813    1.4841 H   0  0  0  0  0  0  0  0  0  0  0  0
   -1.2190   17.0893    0.0153 H   0  0  0  0  0  0  0  0  0  0  0  0
    1.8111   15.8270   -2.3334 H   0  0  0  0  0  0  0  0  0  0  0  0
    3.1900   17.4820   -0.1290 H   0  0  0  0  0  0  0  0  0  0  0  0
    3.9973   16.6167   -1.5110 H   0  0  0  0  0  0  0  0  0  0  0  0
    3.8237   19.0531   -1.9055 H   0  0  0  0  0  0  0  0  0  0  0  0
    2.8947   18.0753   -3.1082 H   0  0  0  0  0  0  0  0  0  0  0  0
    1.5656   19.9639   -2.4582 H   0  0  0  0  0  0  0  0  0  0  0  0
    1.3120   20.5380   -0.3640 H   0  0  0  0  0  0  0  0  0  0  0  0
   -0.6585   17.1503   -3.3157 H   0  0  0  0  0  0  0  0  0  0  0  0
   -0.3080   18.8514   -3.7742 H   0  0  0  0  0  0  0  0  0  0  0  0
    1.0104   17.6314   -3.7742 H   0  0  0  0  0  0  0  0  0  0  0  0
   -0.7988   19.1514   -0.1810 H   0  0  0  0  0  0  0  0  0  0  0  0
   -0.6897   20.1788   -1.6504 H   0  0  0  0  0  0  0  0  0  0  0  0
   -1.7375   18.7198   -1.6504 H   0  0  0  0  0  0  0  0  0  0  0  0
    2.0955   14.8528    1.7144 H   0  0  0  0  0  0  0  0  0  0  0  0
    3.7185   14.6316    0.9771 H   0  0  0  0  0  0  0  0  0  0  0  0
    2.9455   16.2530    0.9771 H   0  0  0  0  0  0  0  0  0  0  0  0
    3.8253   14.5633   -1.7624 H   0  0  0  0  0  0  0  0  0  0  0  0
    3.5291   13.2587   -0.4803 H   0  0  0  0  0  0  0  0  0  0  0  0
    2.1524   13.5605   -3.1631 H   0  0  0  0  0  0  0  0  0  0  0  0
    3.2611   12.2464   -2.6045 H   0  0  0  0  0  0  0  0  0  0  0  0
    1.5554   11.7716    0.4154 H   0  0  0  0  0  0  0  0  0  0  0  0
    1.3819   10.3087   -0.6123 H   0  0  0  0  0  0  0  0  0  0  0  0
    2.9248   11.2285   -0.6123 H   0  0  0  0  0  0  0  0  0  0  0  0
  1  2  1  0
  2  3  1  0
  3  4  1  0
  4  5  1  0
  5  6  1  0
  6  7  1  0
  7  8  1  0
  7  9  1  0
  2 10  1  0
 10 11  1  0
 11 12  1  0
 12 13  1  0
 13 14  1  6
 13 15  1  0
 15 16  1  0
 16 17  1  0
 17 18  2  0
 18 19  1  0
 19 20  1  0
 20 21  1  0
 21 22  1  0
 22 23  1  0
 22 24  1  0
 24 25  1  0
 24 26  1  0
 19 27  1  0
 27 28  1  1
 27 29  1  0
 29 30  1  0
 30 31  1  0
 31 32  1  1
  7  5  1  0
 31 10  1  0
 31 13  1  0
 27 15  1  0
 24 18  1  0
  1 33  1  0
  1 34  1  0
  1 35  1  0
  2 36  1  6
  3 37  1  0
  3 38  1  0
  4 39  1  0
  4 40  1  0
  5 41  1  1
  8 42  1  0
  8 43  1  0
  8 44  1  0
  9 45  1  0
  9 46  1  0
  9 47  1  0
 10 48  1  6
 11 49  1  0
 11 50  1  0
 12 51  1  0
 12 52  1  0
 14 53  1  0
 14 54  1  0
 14 55  1  0
 15 56  1  1
 16 57  1  0
 16 58  1  0
 17 59  1  0
 19 60  1  6
 20 61  1  0
 20 62  1  0
 21 63  1  0
 21 64  1  0
 22 65  1  6
 23 66  1  0
 25 67  1  0
 25 68  1  0
 25 69  1  0
 26 70  1  0
 26 71  1  0
 26 72  1  0
 28 73  1  0
 28 74  1  0
 28 75  1  0
 29 76  1  0
 29 77  1  0
 30 78  1  0
 30 79  1  0
 32 80  1  0
 32 81  1  0
 32 82  1  0
M  END
>  <meeko>  (9) 
{"is_sidechain": [false], "intermolecular_energy": 2.731, "internal_energy": -0.839}

$$$$
EPH_relaxed_0001_pdb2pqr_Repair_8_r2_0001_out
     RDKit          3D

 82 86  0  0  0  0  0  0  0  0999 V2000
    2.9230   19.1570   -0.8370 C   0  0  0  0  0  0  0  0  0  0  0  0
    2.7570   18.1650   -1.9920 C   0  0  2  0  0  0  0  0  0  0  0  0
    1.4010   18.3290   -2.7070 C   0  0  0  0  0  0  0  0  0  0  0  0
    0.5880   19.5310   -2.2180 C   0  0  0  0  0  0  0  0  0  0  0  0
   -0.7340   19.1130   -1.6510 C   0  0  2  0  0  0  0  0  0  0  0  0
   -1.6310   20.1930   -1.3610 O   0  0  0  0  0  0  0  0  0  0  0  0
   -1.1740   19.4280   -0.2340 C   0  0  0  0  0  0  0  0  0  0  0  0
   -0.2950   20.1930    0.7050 C   0  0  0  0  0  0  0  0  0  0  0  0
   -2.2390   18.5810    0.3900 C   0  0  0  0  0  0  0  0  0  0  0  0
    2.9030   16.7380   -1.4760 C   0  0  1  0  0  0  0  0  0  0  0  0
    3.5500   16.6750   -0.0670 C   0  0  0  0  0  0  0  0  0  0  0  0
    2.8840   15.4890    0.6780 C   0  0  0  0  0  0  0  0  0  0  0  0
    2.1290   14.7110   -0.4240 C   0  0  1  0  0  0  0  0  0  0  0  0
    3.2190   13.8310   -1.1130 C   0  0  0  0  0  0  0  0  0  0  0  0
    0.9090   13.8540    0.0470 C   0  0  2  0  0  0  0  0  0  0  0  0
    1.2500   12.7140    1.0220 C   0  0  0  0  0  0  0  0  0  0  0  0
    1.5660   11.4020    0.3840 C   0  0  0  0  0  0  0  0  0  0  0  0
    1.3020   11.0700   -0.8930 C   0  0  0  0  0  0  0  0  0  0  0  0
    0.5330   12.0270   -1.8130 C   0  0  1  0  0  0  0  0  0  0  0  0
   -0.5680   11.2420   -2.5730 C   0  0  0  0  0  0  0  0  0  0  0  0
   -0.0150   10.0320   -3.3200 C   0  0  0  0  0  0  0  0  0  0  0  0
    0.6920    9.0760   -2.3630 C   0  0  2  0  0  0  0  0  0  0  0  0
   -0.2800    8.5080   -1.4790 O   0  0  0  0  0  0  0  0  0  0  0  0
    1.8160    9.7580   -1.5350 C   0  0  0  0  0  0  0  0  0  0  0  0
    3.0080   10.1040   -2.4610 C   0  0  0  0  0  0  0  0  0  0  0  0
    2.3510    8.7200   -0.5110 C   0  0  0  0  0  0  0  0  0  0  0  0
   -0.0220   13.3500   -1.1290 C   0  0  1  0  0  0  0  0  0  0  0  0
   -1.4230   13.0770   -0.5020 C   0  0  0  0  0  0  0  0  0  0  0  0
   -0.2370   14.4490   -2.2360 C   0  0  0  0  0  0  0  0  0  0  0  0
    0.9730   15.3420   -2.5720 C   0  0  0  0  0  0  0  0  0  0  0  0
    1.6070   15.9090   -1.2980 C   0  0  2  0  0  0  0  0  0  0  0  0
    0.5400   16.8170   -0.5960 C   0  0  0  0  0  0  0  0  0  0  0  0
    2.8337   18.6231    0.1206 H   0  0  0  0  0  0  0  0  0  0  0  0
    3.9131   19.6320   -0.9010 H   0  0  0  0  0  0  0  0  0  0  0  0
    2.1415   19.9284   -0.9010 H   0  0  0  0  0  0  0  0  0  0  0  0
    3.5468   18.3778   -2.7274 H   0  0  0  0  0  0  0  0  0  0  0  0
    1.5890   18.4519   -3.7838 H   0  0  0  0  0  0  0  0  0  0  0  0
    0.8093   17.4289   -2.4840 H   0  0  0  0  0  0  0  0  0  0  0  0
    1.1604   20.0550   -1.4384 H   0  0  0  0  0  0  0  0  0  0  0  0
    0.3988   20.1895   -3.0785 H   0  0  0  0  0  0  0  0  0  0  0  0
   -0.7088   18.1747   -2.2245 H   0  0  0  0  0  0  0  0  0  0  0  0
   -0.5705   19.9532    1.7426 H   0  0  0  0  0  0  0  0  0  0  0  0
    0.7554   19.9165    0.5313 H   0  0  0  0  0  0  0  0  0  0  0  0
   -0.4238   21.2715    0.5313 H   0  0  0  0  0  0  0  0  0  0  0  0
   -2.1615   18.6426    1.4855 H   0  0  0  0  0  0  0  0  0  0  0  0
   -3.2281   18.9419    0.0715 H   0  0  0  0  0  0  0  0  0  0  0  0
   -2.1100   17.5361    0.0715 H   0  0  0  0  0  0  0  0  0  0  0  0
    3.5132   16.3118   -2.2859 H   0  0  0  0  0  0  0  0  0  0  0  0
    4.6335   16.5068   -0.1548 H   0  0  0  0  0  0  0  0  0  0  0  0
    3.4009   17.6183    0.4788 H   0  0  0  0  0  0  0  0  0  0  0  0
    3.6450   14.8513    1.1516 H   0  0  0  0  0  0  0  0  0  0  0  0
    2.2152   15.8253    1.4840 H   0  0  0  0  0  0  0  0  0  0  0  0
    3.8311   13.3368   -0.3442 H   0  0  0  0  0  0  0  0  0  0  0  0
    2.7328   13.0693   -1.7401 H   0  0  0  0  0  0  0  0  0  0  0  0
    3.8611   14.4669   -1.7401 H   0  0  0  0  0  0  0  0  0  0  0  0
    0.3223   14.5796    0.6295 H   0  0  0  0  0  0  0  0  0  0  0  0
    2.1240   13.0232    1.6141 H   0  0  0  0  0  0  0  0  0  0  0  0
    0.3451   12.5488    1.6252 H   0  0  0  0  0  0  0  0  0  0  0  0
    2.0561   10.6424    1.0107 H   0  0  0  0  0  0  0  0  0  0  0  0
    1.2709   12.4206   -2.5275 H   0  0  0  0  0  0  0  0  0  0  0  0
   -1.3184   10.8954   -1.8472 H   0  0  0  0  0  0  0  0  0  0  0  0
   -1.0081   11.9213   -3.3179 H   0  0  0  0  0  0  0  0  0  0  0  0
   -0.8446    9.5019   -3.8107 H   0  0  0  0  0  0  0  0  0  0  0  0
    0.7126   10.3830   -4.0666 H   0  0  0  0  0  0  0  0  0  0  0  0
    1.1787    8.2993   -2.9712 H   0  0  0  0  0  0  0  0  0  0  0  0
   -0.8760    7.9560   -2.0130 H   0  0  0  0  0  0  0  0  0  0  0  0
    3.8858   10.3588   -1.8490 H   0  0  0  0  0  0  0  0  0  0  0  0
    3.2428    9.2369   -3.0959 H   0  0  0  0  0  0  0  0  0  0  0  0
    2.7421   10.9620   -3.0959 H   0  0  0  0  0  0  0  0  0  0  0  0
    2.1640    9.0827    0.5105 H   0  0  0  0  0  0  0  0  0  0  0  0
    1.8356    7.7596   -0.6591 H   0  0  0  0  0  0  0  0  0  0  0  0
    3.4323    8.5825   -0.6591 H   0  0  0  0  0  0  0  0  0  0  0  0
   -1.3431   13.0926    0.5950 H   0  0  0  0  0  0  0  0  0  0  0  0
   -2.1290   13.8545   -0.8293 H   0  0  0  0  0  0  0  0  0  0  0  0
   -1.7854   12.0913   -0.8293 H   0  0  0  0  0  0  0  0  0  0  0  0
   -0.5387   13.9354   -3.1608 H   0  0  0  0  0  0  0  0  0  0  0  0
   -0.9927   15.1321   -1.8208 H   0  0  0  0  0  0  0  0  0  0  0  0
    1.7224   14.7443   -3.1115 H   0  0  0  0  0  0  0  0  0  0  0  0
    0.6278   16.1804   -3.1949 H   0  0  0  0  0  0  0  0  0  0  0  0
    0.6442   16.7284    0.4955 H   0  0  0  0  0  0  0  0  0  0  0  0
    0.6955   17.8640   -0.8954 H   0  0  0  0  0  0  0  0  0  0  0  0
   -0.4686   16.4960   -0.8954 H   0  0  0  0  0  0  0  0  0  0  0  0
  1  2  1  0
  2  3  1  0
  3  4  1  0
  4  5  1  0
  5  6  1  0
  6  7  1  0
  7  8  1  0
  7  9  1  0
  2 10  1  0
 10 11  1  0
 11 12  1  0
 12 13  1  0
 13 14  1  6
 13 15  1  0
 15 16  1  0
 16 17  1  0
 17 18  2  0
 18 19  1  0
 19 20  1  0
 20 21  1  0
 21 22  1  0
 22 23  1  0
 22 24  1  0
 24 25  1  0
 24 26  1  0
 19 27  1  0
 27 28  1  1
 27 29  1  0
 29 30  1  0
 30 31  1  0
 31 32  1  1
  7  5  1  0
 31 10  1  0
 31 13  1  0
 27 15  1  0
 24 18  1  0
  1 33  1  0
  1 34  1  0
  1 35  1  0
  2 36  1  6
  3 37  1  0
  3 38  1  0
  4 39  1  0
  4 40  1  0
  5 41  1  6
  8 42  1  0
  8 43  1  0
  8 44  1  0
  9 45  1  0
  9 46  1  0
  9 47  1  0
 10 48  1  6
 11 49  1  0
 11 50  1  0
 12 51  1  0
 12 52  1  0
 14 53  1  0
 14 54  1  0
 14 55  1  0
 15 56  1  1
 16 57  1  0
 16 58  1  0
 17 59  1  0
 19 60  1  6
 20 61  1  0
 20 62  1  0
 21 63  1  0
 21 64  1  0
 22 65  1  6
 23 66  1  0
 25 67  1  0
 25 68  1  0
 25 69  1  0
 26 70  1  0
 26 71  1  0
 26 72  1  0
 28 73  1  0
 28 74  1  0
 28 75  1  0
 29 76  1  0
 29 77  1  0
 30 78  1  0
 30 79  1  0
 32 80  1  0
 32 81  1  0
 32 82  1  0
M  END
>  <meeko>  (10) 
{"is_sidechain": [false], "intermolecular_energy": 2.731, "internal_energy": -0.839}

$$$$
EPH_relaxed_0001_pdb2pqr_Repair_8_r2_0001_out
     RDKit          3D

 82 86  0  0  0  0  0  0  0  0999 V2000
   -3.6990    7.1890   -3.4260 C   0  0  0  0  0  0  0  0  0  0  0  0
   -3.7090    7.2630   -1.8960 C   0  0  2  0  0  0  0  0  0  0  0  0
   -5.1170    7.0290   -1.3130 C   0  0  0  0  0  0  0  0  0  0  0  0
   -6.2380    7.1340   -2.3510 C   0  0  0  0  0  0  0  0  0  0  0  0
   -7.5650    7.4040   -1.7070 C   0  0  2  0  0  0  0  0  0  0  0  0
   -8.1840    6.2580   -1.1080 O   0  0  0  0  0  0  0  0  0  0  0  0
   -8.8750    6.8400   -2.2250 C   0  0  0  0  0  0  0  0  0  0  0  0
   -8.9230    5.9620   -3.4360 C   0  0  0  0  0  0  0  0  0  0  0  0
  -10.1490    7.5320   -1.8510 C   0  0  0  0  0  0  0  0  0  0  0  0
   -3.1740    8.6150   -1.4380 C   0  0  1  0  0  0  0  0  0  0  0  0
   -3.8080    9.0870   -0.1020 C   0  0  0  0  0  0  0  0  0  0  0  0
   -2.7030    9.8500    0.6720 C   0  0  0  0  0  0  0  0  0  0  0  0
   -1.5840   10.0800   -0.3710 C   0  0  1  0  0  0  0  0  0  0  0  0
   -2.0480   11.3260   -1.1890 C   0  0  0  0  0  0  0  0  0  0  0  0
   -0.1390   10.2670    0.1960 C   0  0  2  0  0  0  0  0  0  0  0  0
    0.0530   11.4970    1.1000 C   0  0  0  0  0  0  0  0  0  0  0  0
    0.4700   12.7470    0.3970 C   0  0  0  0  0  0  0  0  0  0  0  0
    0.9560   12.8140   -0.8560 C   0  0  0  0  0  0  0  0  0  0  0  0
    1.2210   11.5400   -1.6680 C   0  0  1  0  0  0  0  0  0  0  0  0
    2.6180   11.6320   -2.3350 C   0  0  0  0  0  0  0  0  0  0  0  0
    2.7860   12.9000   -3.1670 C   0  0  0  0  0  0  0  0  0  0  0  0
    2.5730   14.1460   -2.3120 C   0  0  2  0  0  0  0  0  0  0  0  0
    3.6300   14.2330   -1.3520 O   0  0  0  0  0  0  0  0  0  0  0  0
    1.2010   14.1600   -1.5820 C   0  0  0  0  0  0  0  0  0  0  0  0
    0.0640   14.3690   -2.6130 C   0  0  0  0  0  0  0  0  0  0  0  0
    1.1710   15.3980   -0.6460 C   0  0  0  0  0  0  0  0  0  0  0  0
    1.0030   10.1680   -0.8950 C   0  0  1  0  0  0  0  0  0  0  0  0
    2.3080    9.7700   -0.1390 C   0  0  0  0  0  0  0  0  0  0  0  0
    0.7310    9.0250   -1.9440 C   0  0  0  0  0  0  0  0  0  0  0  0
   -0.7320    8.8110   -2.3740 C   0  0  0  0  0  0  0  0  0  0  0  0
   -1.6550    8.7190   -1.1550 C   0  0  2  0  0  0  0  0  0  0  0  0
   -1.2260    7.4620   -0.3240 C   0  0  0  0  0  0  0  0  0  0  0  0
   -3.5579    6.1448   -3.7417 H   0  0  0  0  0  0  0  0  0  0  0  0
   -4.6560    7.5643   -3.8175 H   0  0  0  0  0  0  0  0  0  0  0  0
   -2.8759    7.8048   -3.8175 H   0  0  0  0  0  0  0  0  0  0  0  0
   -3.0585    6.4591   -1.5211 H   0  0  0  0  0  0  0  0  0  0  0  0
   -5.1467    6.0225   -0.8703 H   0  0  0  0  0  0  0  0  0  0  0  0
   -5.2925    7.8200   -0.5690 H   0  0  0  0  0  0  0  0  0  0  0  0
   -6.0051    7.9544   -3.0457 H   0  0  0  0  0  0  0  0  0  0  0  0
   -6.3038    6.1739   -2.8837 H   0  0  0  0  0  0  0  0  0  0  0  0
   -7.2550    8.4251   -1.4402 H   0  0  0  0  0  0  0  0  0  0  0  0
   -8.9806    4.9089   -3.1234 H   0  0  0  0  0  0  0  0  0  0  0  0
   -9.8087    6.2149   -4.0374 H   0  0  0  0  0  0  0  0  0  0  0  0
   -8.0150    6.1168   -4.0374 H   0  0  0  0  0  0  0  0  0  0  0  0
  -10.2333    7.5778   -0.7552 H   0  0  0  0  0  0  0  0  0  0  0  0
  -10.1461    8.5525   -2.2615 H   0  0  0  0  0  0  0  0  0  0  0  0
  -11.0035    6.9741   -2.2615 H   0  0  0  0  0  0  0  0  0  0  0  0
   -3.4357    9.2242   -2.3157 H   0  0  0  0  0  0  0  0  0  0  0  0
   -4.6599    9.7537   -0.3016 H   0  0  0  0  0  0  0  0  0  0  0  0
   -4.1812    8.2326    0.4818 H   0  0  0  0  0  0  0  0  0  0  0  0
   -3.0854   10.8099    1.0493 H   0  0  0  0  0  0  0  0  0  0  0  0
   -2.3466    9.2909    1.5498 H   0  0  0  0  0  0  0  0  0  0  0  0
   -2.3466   12.1279   -0.4978 H   0  0  0  0  0  0  0  0  0  0  0  0
   -1.2205   11.6775   -1.8228 H   0  0  0  0  0  0  0  0  0  0  0  0
   -2.9038   11.0506   -1.8228 H   0  0  0  0  0  0  0  0  0  0  0  0
   -0.0288    9.3924    0.8540 H   0  0  0  0  0  0  0  0  0  0  0  0
   -0.9010   11.6961    1.6101 H   0  0  0  0  0  0  0  0  0  0  0  0
    0.8753   11.2450    1.7858 H   0  0  0  0  0  0  0  0  0  0  0  0
    0.3715   13.6927    0.9502 H   0  0  0  0  0  0  0  0  0  0  0  0
    0.4400   11.5044   -2.4418 H   0  0  0  0  0  0  0  0  0  0  0  0
    3.3861   11.6224   -1.5477 H   0  0  0  0  0  0  0  0  0  0  0  0
    2.7222   10.7716   -3.0124 H   0  0  0  0  0  0  0  0  0  0  0  0
    3.8018   12.9220   -3.5884 H   0  0  0  0  0  0  0  0  0  0  0  0
    2.0357   12.8939   -3.9714 H   0  0  0  0  0  0  0  0  0  0  0  0
    2.5780   15.0144   -2.9872 H   0  0  0  0  0  0  0  0  0  0  0  0
    4.2140   14.9610   -1.6230 H   0  0  0  0  0  0  0  0  0  0  0  0
   -0.8840   14.5433   -2.0830 H   0  0  0  0  0  0  0  0  0  0  0  0
    0.2967   15.2394   -3.2441 H   0  0  0  0  0  0  0  0  0  0  0  0
   -0.0281   13.4727   -3.2441 H   0  0  0  0  0  0  0  0  0  0  0  0
    1.1791   15.0653    0.4024 H   0  0  0  0  0  0  0  0  0  0  0  0
    2.0542   16.0248   -0.8386 H   0  0  0  0  0  0  0  0  0  0  0  0
    0.2585   15.9812   -0.8386 H   0  0  0  0  0  0  0  0  0  0  0  0
    2.1340    9.8231    0.9458 H   0  0  0  0  0  0  0  0  0  0  0  0
    2.5932    8.7440   -0.4149 H   0  0  0  0  0  0  0  0  0  0  0  0
    3.1172   10.4622   -0.4149 H   0  0  0  0  0  0  0  0  0  0  0  0
    1.3129    9.2576   -2.8480 H   0  0  0  0  0  0  0  0  0  0  0  0
    1.0209    8.0933   -1.4362 H   0  0  0  0  0  0  0  0  0  0  0  0
   -1.0494    9.6561   -3.0025 H   0  0  0  0  0  0  0  0  0  0  0  0
   -0.7977    7.8672   -2.9351 H   0  0  0  0  0  0  0  0  0  0  0  0
   -1.3033    7.6884    0.7497 H   0  0  0  0  0  0  0  0  0  0  0  0
   -1.8868    6.6174   -0.5691 H   0  0  0  0  0  0  0  0  0  0  0  0
   -0.1868    7.1976   -0.5691 H   0  0  0  0  0  0  0  0  0  0  0  0
  1  2  1  0
  2  3  1  0
  3  4  1  0
  4  5  1  0
  5  6  1  0
  6  7  1  0
  7  8  1  0
  7  9  1  0
  2 10  1  0
 10 11  1  0
 11 12  1  0
 12 13  1  0
 13 14  1  6
 13 15  1  0
 15 16  1  0
 16 17  1  0
 17 18  2  0
 18 19  1  0
 19 20  1  0
 20 21  1  0
 21 22  1  0
 22 23  1  0
 22 24  1  0
 24 25  1  0
 24 26  1  0
 19 27  1  0
 27 28  1  1
 27 29  1  0
 29 30  1  0
 30 31  1  0
 31 32  1  1
  7  5  1  0
 31 10  1  0
 31 13  1  0
 27 15  1  0
 24 18  1  0
  1 33  1  0
  1 34  1  0
  1 35  1  0
  2 36  1  1
  3 37  1  0
  3 38  1  0
  4 39  1  0
  4 40  1  0
  5 41  1  1
  8 42  1  0
  8 43  1  0
  8 44  1  0
  9 45  1  0
  9 46  1  0
  9 47  1  0
 10 48  1  6
 11 49  1  0
 11 50  1  0
 12 51  1  0
 12 52  1  0
 14 53  1  0
 14 54  1  0
 14 55  1  0
 15 56  1  1
 16 57  1  0
 16 58  1  0
 17 59  1  0
 19 60  1  6
 20 61  1  0
 20 62  1  0
 21 63  1  0
 21 64  1  0
 22 65  1  6
 23 66  1  0
 25 67  1  0
 25 68  1  0
 25 69  1  0
 26 70  1  0
 26 71  1  0
 26 72  1  0
 28 73  1  0
 28 74  1  0
 28 75  1  0
 29 76  1  0
 29 77  1  0
 30 78  1  0
 30 79  1  0
 32 80  1  0
 32 81  1  0
 32 82  1  0
M  END
>  <meeko>  (11) 
{"is_sidechain": [false], "intermolecular_energy": 2.731, "internal_energy": -0.839}

$$$$
EPH_relaxed_0001_pdb2pqr_Repair_8_r2_0001_out
     RDKit          3D

 82 86  0  0  0  0  0  0  0  0999 V2000
   -0.9050   16.3790   -5.8610 C   0  0  0  0  0  0  0  0  0  0  0  0
    0.1920   15.6800   -6.6680 C   0  0  2  0  0  0  0  0  0  0  0  0
   -0.2060   15.4890   -8.1460 C   0  0  0  0  0  0  0  0  0  0  0  0
    0.4390   16.5050   -9.0930 C   0  0  0  0  0  0  0  0  0  0  0  0
    1.8440   16.1200   -9.4460 C   0  0  2  0  0  0  0  0  0  0  0  0
    2.3290   16.6860  -10.6710 O   0  0  0  0  0  0  0  0  0  0  0  0
    2.1980   15.2550  -10.6410 C   0  0  0  0  0  0  0  0  0  0  0  0
    1.1430   14.7210  -11.5580 C   0  0  0  0  0  0  0  0  0  0  0  0
    3.5080   14.5300  -10.6360 C   0  0  0  0  0  0  0  0  0  0  0  0
    0.5200   14.3310   -6.0390 C   0  0  1  0  0  0  0  0  0  0  0  0
    1.7510   13.6490   -6.6950 C   0  0  0  0  0  0  0  0  0  0  0  0
    2.4960   12.8900   -5.5670 C   0  0  0  0  0  0  0  0  0  0  0  0
    1.5030   12.8820   -4.3810 C   0  0  1  0  0  0  0  0  0  0  0  0
    0.5180   11.7110   -4.6910 C   0  0  0  0  0  0  0  0  0  0  0  0
    2.1300   12.7460   -2.9550 C   0  0  2  0  0  0  0  0  0  0  0  0
    2.8940   11.4350   -2.7000 C   0  0  0  0  0  0  0  0  0  0  0  0
    2.0760   10.3190   -2.1400 C   0  0  0  0  0  0  0  0  0  0  0  0
    0.8550   10.4440   -1.5880 C   0  0  0  0  0  0  0  0  0  0  0  0
    0.2160   11.8260   -1.3960 C   0  0  1  0  0  0  0  0  0  0  0  0
   -0.3720   11.9300    0.0350 C   0  0  0  0  0  0  0  0  0  0  0  0
   -1.3360   10.7910    0.3570 C   0  0  0  0  0  0  0  0  0  0  0  0
   -0.6470    9.4370    0.2110 C   0  0  2  0  0  0  0  0  0  0  0  0
    0.3590    9.3200    1.2230 O   0  0  0  0  0  0  0  0  0  0  0  0
   -0.0070    9.2220   -1.1890 C   0  0  0  0  0  0  0  0  0  0  0  0
   -1.1230    9.0470   -2.2490 C   0  0  0  0  0  0  0  0  0  0  0  0
    0.7740    7.8810   -1.1560 C   0  0  0  0  0  0  0  0  0  0  0  0
    1.1290   13.0710   -1.7730 C   0  0  1  0  0  0  0  0  0  0  0  0
    2.0030   13.4790   -0.5490 C   0  0  0  0  0  0  0  0  0  0  0  0
    0.2070   14.3060   -2.0920 C   0  0  0  0  0  0  0  0  0  0  0  0
   -0.2830   14.4510   -3.5460 C   0  0  0  0  0  0  0  0  0  0  0  0
    0.8810   14.3180   -4.5330 C   0  0  2  0  0  0  0  0  0  0  0  0
    1.8770   15.4960   -4.2590 C   0  0  0  0  0  0  0  0  0  0  0  0
   -0.7067   16.2526   -4.7864 H   0  0  0  0  0  0  0  0  0  0  0  0
   -0.9157   17.4508   -6.1083 H   0  0  0  0  0  0  0  0  0  0  0  0
   -1.8810   15.9359   -6.1083 H   0  0  0  0  0  0  0  0  0  0  0  0
    1.0815   16.3268   -6.6466 H   0  0  0  0  0  0  0  0  0  0  0  0
    0.0982   14.4796   -8.4600 H   0  0  0  0  0  0  0  0  0  0  0  0
   -1.2942   15.6374   -8.2078 H   0  0  0  0  0  0  0  0  0  0  0  0
   -0.1576   16.5612  -10.0154 H   0  0  0  0  0  0  0  0  0  0  0  0
    0.4684   17.4789   -8.5824 H   0  0  0  0  0  0  0  0  0  0  0  0
    2.1204   16.0585   -8.3831 H   0  0  0  0  0  0  0  0  0  0  0  0
    0.3174   14.3031  -10.9632 H   0  0  0  0  0  0  0  0  0  0  0  0
    0.7624   15.5350  -12.1925 H   0  0  0  0  0  0  0  0  0  0  0  0
    1.5736   13.9323  -12.1925 H   0  0  0  0  0  0  0  0  0  0  0  0
    3.8258   14.3541   -9.5977 H   0  0  0  0  0  0  0  0  0  0  0  0
    3.3954   13.5658  -11.1533 H   0  0  0  0  0  0  0  0  0  0  0  0
    4.2652   15.1374  -11.1533 H   0  0  0  0  0  0  0  0  0  0  0  0
   -0.4375   13.8143   -6.2011 H   0  0  0  0  0  0  0  0  0  0  0  0
    1.4234   12.9442   -7.4735 H   0  0  0  0  0  0  0  0  0  0  0  0
    2.4073   14.3924   -7.1709 H   0  0  0  0  0  0  0  0  0  0  0  0
    2.7339   11.8631   -5.8813 H   0  0  0  0  0  0  0  0  0  0  0  0
    3.4535   13.3646   -5.3064 H   0  0  0  0  0  0  0  0  0  0  0  0
    0.1541   11.2784   -3.7474 H   0  0  0  0  0  0  0  0  0  0  0  0
   -0.3344   12.0929   -5.2720 H   0  0  0  0  0  0  0  0  0  0  0  0
    1.0403   10.9366   -5.2720 H   0  0  0  0  0  0  0  0  0  0  0  0
    2.8915   13.5398   -2.9559 H   0  0  0  0  0  0  0  0  0  0  0  0
    3.3193   11.0978   -3.6568 H   0  0  0  0  0  0  0  0  0  0  0  0
    3.6527   11.6681   -1.9384 H   0  0  0  0  0  0  0  0  0  0  0  0
    2.5080    9.3083   -2.1821 H   0  0  0  0  0  0  0  0  0  0  0  0
   -0.5935   11.8923   -2.1378 H   0  0  0  0  0  0  0  0  0  0  0  0
    0.4560   11.9062    0.7588 H   0  0  0  0  0  0  0  0  0  0  0  0
   -0.9367   12.8720    0.0958 H   0  0  0  0  0  0  0  0  0  0  0  0
   -1.6938   10.9034    1.3911 H   0  0  0  0  0  0  0  0  0  0  0  0
   -2.1792   10.8342   -0.3480 H   0  0  0  0  0  0  0  0  0  0  0  0
   -1.4182    8.6610    0.3253 H   0  0  0  0  0  0  0  0  0  0  0  0
    1.1900    9.6620    0.8520 H   0  0  0  0  0  0  0  0  0  0  0  0
   -2.0882    8.8956   -1.7436 H   0  0  0  0  0  0  0  0  0  0  0  0
   -1.1758    9.9478   -2.8780 H   0  0  0  0  0  0  0  0  0  0  0  0
   -0.8975    8.1732   -2.8780 H   0  0  0  0  0  0  0  0  0  0  0  0
    0.9474    7.5833   -0.1113 H   0  0  0  0  0  0  0  0  0  0  0  0
    0.1879    7.1027   -1.6666 H   0  0  0  0  0  0  0  0  0  0  0  0
    1.7402    8.0067   -1.6666 H   0  0  0  0  0  0  0  0  0  0  0  0
    1.4705   13.2304    0.3809 H   0  0  0  0  0  0  0  0  0  0  0  0
    2.9576   12.9334   -0.5820 H   0  0  0  0  0  0  0  0  0  0  0  0
    2.1978   14.5611   -0.5820 H   0  0  0  0  0  0  0  0  0  0  0  0
   -0.6813   14.2333   -1.4473 H   0  0  0  0  0  0  0  0  0  0  0  0
    0.8370   15.1894   -1.9114 H   0  0  0  0  0  0  0  0  0  0  0  0
   -1.0242   13.6658   -3.7559 H   0  0  0  0  0  0  0  0  0  0  0  0
   -0.7329   15.4475   -3.6667 H   0  0  0  0  0  0  0  0  0  0  0  0
    1.9930   15.6332   -3.1738 H   0  0  0  0  0  0  0  0  0  0  0  0
    2.8545   15.2610   -4.7054 H   0  0  0  0  0  0  0  0  0  0  0  0
    1.4828   16.4208   -4.7054 H   0  0  0  0  0  0  0  0  0  0  0  0
  1  2  1  0
  2  3  1  0
  3  4  1  0
  4  5  1  0
  5  6  1  0
  6  7  1  0
  7  8  1  0
  7  9  1  0
  2 10  1  0
 10 11  1  0
 11 12  1  0
 12 13  1  0
 13 14  1  6
 13 15  1  0
 15 16  1  0
 16 17  1  0
 17 18  2  0
 18 19  1  0
 19 20  1  0
 20 21  1  0
 21 22  1  0
 22 23  1  0
 22 24  1  0
 24 25  1  0
 24 26  1  0
 19 27  1  0
 27 28  1  1
 27 29  1  0
 29 30  1  0
 30 31  1  0
 31 32  1  6
  7  5  1  0
 31 10  1  0
 31 13  1  0
 27 15  1  0
 24 18  1  0
  1 33  1  0
  1 34  1  0
  1 35  1  0
  2 36  1  6
  3 37  1  0
  3 38  1  0
  4 39  1  0
  4 40  1  0
  5 41  1  1
  8 42  1  0
  8 43  1  0
  8 44  1  0
  9 45  1  0
  9 46  1  0
  9 47  1  0
 10 48  1  1
 11 49  1  0
 11 50  1  0
 12 51  1  0
 12 52  1  0
 14 53  1  0
 14 54  1  0
 14 55  1  0
 15 56  1  6
 16 57  1  0
 16 58  1  0
 17 59  1  0
 19 60  1  6
 20 61  1  0
 20 62  1  0
 21 63  1  0
 21 64  1  0
 22 65  1  1
 23 66  1  0
 25 67  1  0
 25 68  1  0
 25 69  1  0
 26 70  1  0
 26 71  1  0
 26 72  1  0
 28 73  1  0
 28 74  1  0
 28 75  1  0
 29 76  1  0
 29 77  1  0
 30 78  1  0
 30 79  1  0
 32 80  1  0
 32 81  1  0
 32 82  1  0
M  END
>  <meeko>  (12) 
{"is_sidechain": [false], "intermolecular_energy": 2.731, "internal_energy": -0.839}

$$$$
EPH_relaxed_0001_pdb2pqr_Repair_8_r2_0001_out
     RDKit          3D

 82 86  0  0  0  0  0  0  0  0999 V2000
   -2.1830    7.8500   -2.0580 C   0  0  0  0  0  0  0  0  0  0  0  0
   -2.1880    8.4970   -0.6710 C   0  0  2  0  0  0  0  0  0  0  0  0
   -3.5930    8.4970   -0.0360 C   0  0  0  0  0  0  0  0  0  0  0  0
   -4.7310    8.5310   -1.0590 C   0  0  0  0  0  0  0  0  0  0  0  0
   -5.5420    7.2700   -1.0300 C   0  0  2  0  0  0  0  0  0  0  0  0
   -5.6570    6.6030   -2.2930 O   0  0  0  0  0  0  0  0  0  0  0  0
   -6.8760    7.1170   -1.7350 C   0  0  0  0  0  0  0  0  0  0  0  0
   -7.4780    8.2410   -2.5190 C   0  0  0  0  0  0  0  0  0  0  0  0
   -7.8180    6.0540   -1.2610 C   0  0  0  0  0  0  0  0  0  0  0  0
   -1.6570    9.9230   -0.7600 C   0  0  1  0  0  0  0  0  0  0  0  0
   -1.2000   10.4770    0.6160 C   0  0  0  0  0  0  0  0  0  0  0  0
    0.0220   11.3920    0.3450 C   0  0  0  0  0  0  0  0  0  0  0  0
    0.0230   11.5980   -1.1870 C   0  0  1  0  0  0  0  0  0  0  0  0
   -1.0320   12.7200   -1.4420 C   0  0  0  0  0  0  0  0  0  0  0  0
    1.4030   11.9450   -1.8370 C   0  0  2  0  0  0  0  0  0  0  0  0
    2.0300   13.2700   -1.3670 C   0  0  0  0  0  0  0  0  0  0  0  0
    1.6650   14.4700   -2.1750 C   0  0  0  0  0  0  0  0  0  0  0  0
    1.0990   14.4490   -3.3970 C   0  0  0  0  0  0  0  0  0  0  0  0
    0.8590   13.1230   -4.1300 C   0  0  1  0  0  0  0  0  0  0  0  0
    1.3370   13.2500   -5.6000 C   0  0  0  0  0  0  0  0  0  0  0  0
    0.7050   14.4380   -6.3200 C   0  0  0  0  0  0  0  0  0  0  0  0
    1.0150   15.7440   -5.5930 C   0  0  2  0  0  0  0  0  0  0  0  0
    2.4190   16.0020   -5.6880 O   0  0  0  0  0  0  0  0  0  0  0  0
    0.5860   15.7300   -4.0990 C   0  0  0  0  0  0  0  0  0  0  0  0
   -0.9590   15.7530   -4.0010 C   0  0  0  0  0  0  0  0  0  0  0  0
    1.0820   17.0490   -3.4480 C   0  0  0  0  0  0  0  0  0  0  0  0
    1.4260   11.8220   -3.4140 C   0  0  1  0  0  0  0  0  0  0  0  0
    2.9140   11.5970   -3.8210 C   0  0  0  0  0  0  0  0  0  0  0  0
    0.6300   10.5640   -3.9280 C   0  0  0  0  0  0  0  0  0  0  0  0
   -0.6620   10.2020   -3.1700 C   0  0  0  0  0  0  0  0  0  0  0  0
   -0.4180   10.1650   -1.6580 C   0  0  2  0  0  0  0  0  0  0  0  0
    0.6230    9.0300   -1.3690 C   0  0  0  0  0  0  0  0  0  0  0  0
   -2.1745    6.7552   -1.9519 H   0  0  0  0  0  0  0  0  0  0  0  0
   -3.0836    8.1580   -2.6095 H   0  0  0  0  0  0  0  0  0  0  0  0
   -1.2873    8.1719   -2.6095 H   0  0  0  0  0  0  0  0  0  0  0  0
   -1.5324    7.8963   -0.0234 H   0  0  0  0  0  0  0  0  0  0  0  0
   -3.6994    7.5862    0.5716 H   0  0  0  0  0  0  0  0  0  0  0  0
   -3.6739    9.4146    0.5652 H   0  0  0  0  0  0  0  0  0  0  0  0
   -5.3888    9.3830   -0.8321 H   0  0  0  0  0  0  0  0  0  0  0  0
   -4.2880    8.6303   -2.0609 H   0  0  0  0  0  0  0  0  0  0  0  0
   -5.2251    7.0624    0.0027 H   0  0  0  0  0  0  0  0  0  0  0  0
   -7.8819    8.9952   -1.8276 H   0  0  0  0  0  0  0  0  0  0  0  0
   -6.7055    8.7010   -3.1528 H   0  0  0  0  0  0  0  0  0  0  0  0
   -8.2890    7.8529   -3.1528 H   0  0  0  0  0  0  0  0  0  0  0  0
   -7.8309    6.0394   -0.1612 H   0  0  0  0  0  0  0  0  0  0  0  0
   -8.8297    6.2665   -1.6368 H   0  0  0  0  0  0  0  0  0  0  0  0
   -7.4854    5.0752   -1.6368 H   0  0  0  0  0  0  0  0  0  0  0  0
   -2.5375   10.4217   -1.1912 H   0  0  0  0  0  0  0  0  0  0  0  0
   -2.0119   11.0564    1.0799 H   0  0  0  0  0  0  0  0  0  0  0  0
   -0.9373    9.6598    1.3038 H   0  0  0  0  0  0  0  0  0  0  0  0
   -0.0903   12.3542    0.8661 H   0  0  0  0  0  0  0  0  0  0  0  0
    0.9621   10.9504    0.7071 H   0  0  0  0  0  0  0  0  0  0  0  0
   -1.3958   13.1070   -0.4787 H   0  0  0  0  0  0  0  0  0  0  0  0
   -0.5675   13.5371   -2.0135 H   0  0  0  0  0  0  0  0  0  0  0  0
   -1.8761   12.3066   -2.0135 H   0  0  0  0  0  0  0  0  0  0  0  0
    2.0550   11.1500   -1.4460 H   0  0  0  0  0  0  0  0  0  0  0  0
    1.7099   13.4484   -0.3299 H   0  0  0  0  0  0  0  0  0  0  0  0
    3.1176   13.1480   -1.4777 H   0  0  0  0  0  0  0  0  0  0  0  0
    1.8762   15.4559   -1.7352 H   0  0  0  0  0  0  0  0  0  0  0  0
   -0.2276   12.9539   -4.1042 H   0  0  0  0  0  0  0  0  0  0  0  0
    2.4299   13.3747   -5.6059 H   0  0  0  0  0  0  0  0  0  0  0  0
    1.0311   12.3364   -6.1308 H   0  0  0  0  0  0  0  0  0  0  0  0
    1.1039   14.4923   -7.3437 H   0  0  0  0  0  0  0  0  0  0  0  0
   -0.3858   14.2972   -6.3394 H   0  0  0  0  0  0  0  0  0  0  0  0
    0.4311   16.5393   -6.0794 H   0  0  0  0  0  0  0  0  0  0  0  0
    2.7160   15.6970   -6.5620 H   0  0  0  0  0  0  0  0  0  0  0  0
   -1.2593   15.7575   -2.9428 H   0  0  0  0  0  0  0  0  0  0  0  0
   -1.3443   16.6570   -4.4953 H   0  0  0  0  0  0  0  0  0  0  0  0
   -1.3711   14.8609   -4.4953 H   0  0  0  0  0  0  0  0  0  0  0  0
    1.0461   16.9535   -2.3527 H   0  0  0  0  0  0  0  0  0  0  0  0
    2.1164   17.2480   -3.7650 H   0  0  0  0  0  0  0  0  0  0  0  0
    0.4350   17.8802   -3.7650 H   0  0  0  0  0  0  0  0  0  0  0  0
    3.5317   11.5036   -2.9156 H   0  0  0  0  0  0  0  0  0  0  0  0
    2.9958   10.6763   -4.4173 H   0  0  0  0  0  0  0  0  0  0  0  0
    3.2644   12.4524   -4.4173 H   0  0  0  0  0  0  0  0  0  0  0  0
    0.3593   10.7478   -4.9782 H   0  0  0  0  0  0  0  0  0  0  0  0
    1.3059    9.7109   -3.7687 H   0  0  0  0  0  0  0  0  0  0  0  0
   -1.4325   10.9550   -3.3919 H   0  0  0  0  0  0  0  0  0  0  0  0
   -0.9929    9.2051   -3.4966 H   0  0  0  0  0  0  0  0  0  0  0  0
    0.7373    8.9054   -0.2821 H   0  0  0  0  0  0  0  0  0  0  0  0
    0.2693    8.0868   -1.8110 H   0  0  0  0  0  0  0  0  0  0  0  0
    1.5931    9.3010   -1.8110 H   0  0  0  0  0  0  0  0  0  0  0  0
  1  2  1  0
  2  3  1  0
  3  4  1  0
  4  5  1  0
  5  6  1  0
  6  7  1  0
  7  8  1  0
  7  9  1  0
  2 10  1  0
 10 11  1  0
 11 12  1  0
 12 13  1  0
 13 14  1  1
 13 15  1  0
 15 16  1  0
 16 17  1  0
 17 18  2  0
 18 19  1  0
 19 20  1  0
 20 21  1  0
 21 22  1  0
 22 23  1  0
 22 24  1  0
 24 25  1  0
 24 26  1  0
 19 27  1  0
 27 28  1  6
 27 29  1  0
 29 30  1  0
 30 31  1  0
 31 32  1  6
  7  5  1  0
 31 10  1  0
 31 13  1  0
 27 15  1  0
 24 18  1  0
  1 33  1  0
  1 34  1  0
  1 35  1  0
  2 36  1  1
  3 37  1  0
  3 38  1  0
  4 39  1  0
  4 40  1  0
  5 41  1  1
  8 42  1  0
  8 43  1  0
  8 44  1  0
  9 45  1  0
  9 46  1  0
  9 47  1  0
 10 48  1  6
 11 49  1  0
 11 50  1  0
 12 51  1  0
 12 52  1  0
 14 53  1  0
 14 54  1  0
 14 55  1  0
 15 56  1  1
 16 57  1  0
 16 58  1  0
 17 59  1  0
 19 60  1  6
 20 61  1  0
 20 62  1  0
 21 63  1  0
 21 64  1  0
 22 65  1  6
 23 66  1  0
 25 67  1  0
 25 68  1  0
 25 69  1  0
 26 70  1  0
 26 71  1  0
 26 72  1  0
 28 73  1  0
 28 74  1  0
 28 75  1  0
 29 76  1  0
 29 77  1  0
 30 78  1  0
 30 79  1  0
 32 80  1  0
 32 81  1  0
 32 82  1  0
M  END
>  <meeko>  (13) 
{"is_sidechain": [false], "intermolecular_energy": 2.731, "internal_energy": -0.839}

$$$$
EPH_relaxed_0001_pdb2pqr_Repair_8_r2_0001_out
     RDKit          3D

 82 86  0  0  0  0  0  0  0  0999 V2000
    3.0750   17.9850   -0.3280 C   0  0  0  0  0  0  0  0  0  0  0  0
    2.7070   17.1250   -1.5400 C   0  0  2  0  0  0  0  0  0  0  0  0
    2.1540   17.9700   -2.7050 C   0  0  0  0  0  0  0  0  0  0  0  0
    1.4550   19.2560   -2.2550 C   0  0  0  0  0  0  0  0  0  0  0  0
    0.0260   19.0080   -1.8800 C   0  0  2  0  0  0  0  0  0  0  0  0
   -0.7820   20.1890   -1.7850 O   0  0  0  0  0  0  0  0  0  0  0  0
   -0.5840   19.4570   -0.5650 C   0  0  0  0  0  0  0  0  0  0  0  0
    0.2240   20.1890    0.4600 C   0  0  0  0  0  0  0  0  0  0  0  0
   -1.8150   18.7620   -0.0730 C   0  0  0  0  0  0  0  0  0  0  0  0
    1.6880   16.0660   -1.1350 C   0  0  1  0  0  0  0  0  0  0  0  0
    0.2510   16.6380   -1.0060 C   0  0  0  0  0  0  0  0  0  0  0  0
   -0.7190   15.5240   -1.4760 C   0  0  0  0  0  0  0  0  0  0  0  0
    0.1550   14.2490   -1.5420 C   0  0  1  0  0  0  0  0  0  0  0  0
    0.2310   13.7370   -0.0700 C   0  0  0  0  0  0  0  0  0  0  0  0
   -0.3300   13.1290   -2.5190 C   0  0  2  0  0  0  0  0  0  0  0  0
   -1.7020   12.5200   -2.1830 C   0  0  0  0  0  0  0  0  0  0  0  0
   -1.6680   11.3300   -1.2820 C   0  0  0  0  0  0  0  0  0  0  0  0
   -0.5760   10.5990   -0.9920 C   0  0  0  0  0  0  0  0  0  0  0  0
    0.7690   10.8900   -1.6710 C   0  0  1  0  0  0  0  0  0  0  0  0
    1.4020    9.5600   -2.1570 C   0  0  0  0  0  0  0  0  0  0  0  0
    1.5230    8.5270   -1.0410 C   0  0  0  0  0  0  0  0  0  0  0  0
    0.1580    8.2210   -0.4300 C   0  0  2  0  0  0  0  0  0  0  0  0
   -0.6490    7.5610   -1.4110 O   0  0  0  0  0  0  0  0  0  0  0  0
   -0.5800    9.4880    0.0870 C   0  0  0  0  0  0  0  0  0  0  0  0
    0.1390   10.0310    1.3470 C   0  0  0  0  0  0  0  0  0  0  0  0
   -1.9990    9.0590    0.5470 C   0  0  0  0  0  0  0  0  0  0  0  0
    0.7470   12.0050   -2.8030 C   0  0  1  0  0  0  0  0  0  0  0  0
    0.3720   11.3640   -4.1740 C   0  0  0  0  0  0  0  0  0  0  0  0
    2.1980   12.5950   -2.9710 C   0  0  0  0  0  0  0  0  0  0  0  0
    2.5760   13.7790   -2.0600 C   0  0  0  0  0  0  0  0  0  0  0  0
    1.4940   14.8630   -2.0920 C   0  0  2  0  0  0  0  0  0  0  0  0
    1.4110   15.4130   -3.5560 C   0  0  0  0  0  0  0  0  0  0  0  0
    2.8401   17.4362    0.5959 H   0  0  0  0  0  0  0  0  0  0  0  0
    4.1504   18.2150   -0.3546 H   0  0  0  0  0  0  0  0  0  0  0  0
    2.4989   18.9217   -0.3546 H   0  0  0  0  0  0  0  0  0  0  0  0
    3.6283   16.6389   -1.8933 H   0  0  0  0  0  0  0  0  0  0  0  0
    2.9912   18.2423   -3.3645 H   0  0  0  0  0  0  0  0  0  0  0  0
    1.3987   17.3559   -3.2173 H   0  0  0  0  0  0  0  0  0  0  0  0
    1.9867   19.6643   -1.3829 H   0  0  0  0  0  0  0  0  0  0  0  0
    1.4708   19.9666   -3.0945 H   0  0  0  0  0  0  0  0  0  0  0  0
    0.0347   18.0365   -2.3960 H   0  0  0  0  0  0  0  0  0  0  0  0
   -0.1045   19.8914    1.4668 H   0  0  0  0  0  0  0  0  0  0  0  0
    1.2882   19.9412    0.3334 H   0  0  0  0  0  0  0  0  0  0  0  0
    0.0822   21.2724    0.3334 H   0  0  0  0  0  0  0  0  0  0  0  0
   -1.8197   18.7593    1.0270 H   0  0  0  0  0  0  0  0  0  0  0  0
   -2.7065   19.2901   -0.4422 H   0  0  0  0  0  0  0  0  0  0  0  0
   -1.8234   17.7258   -0.4422 H   0  0  0  0  0  0  0  0  0  0  0  0
    2.1395   15.7276   -0.1908 H   0  0  0  0  0  0  0  0  0  0  0  0
    0.0423   16.9050    0.0405 H   0  0  0  0  0  0  0  0  0  0  0  0
    0.1322   17.5469   -1.6141 H   0  0  0  0  0  0  0  0  0  0  0  0
   -1.5405   15.3950   -0.7560 H   0  0  0  0  0  0  0  0  0  0  0  0
   -1.1879   15.7593   -2.4428 H   0  0  0  0  0  0  0  0  0  0  0  0
    0.1052   14.5845    0.6199 H   0  0  0  0  0  0  0  0  0  0  0  0
   -0.5677   13.0009    0.1039 H   0  0  0  0  0  0  0  0  0  0  0  0
    1.2091   13.2647    0.1039 H   0  0  0  0  0  0  0  0  0  0  0  0
   -0.4702   13.6814   -3.4598 H   0  0  0  0  0  0  0  0  0  0  0  0
   -2.3091   13.2976   -1.6964 H   0  0  0  0  0  0  0  0  0  0  0  0
   -2.1204   12.1674   -3.1373 H   0  0  0  0  0  0  0  0  0  0  0  0
   -2.6163   11.0248   -0.8155 H   0  0  0  0  0  0  0  0  0  0  0  0
    1.4067   11.3468   -0.8998 H   0  0  0  0  0  0  0  0  0  0  0  0
    0.7736    9.1423   -2.9574 H   0  0  0  0  0  0  0  0  0  0  0  0
    2.4175    9.7850   -2.5150 H   0  0  0  0  0  0  0  0  0  0  0  0
    1.9488    7.6002   -1.4530 H   0  0  0  0  0  0  0  0  0  0  0  0
    2.1759    8.9343   -0.2550 H   0  0  0  0  0  0  0  0  0  0  0  0
    0.3257    7.5765    0.4455 H   0  0  0  0  0  0  0  0  0  0  0  0
   -0.0920    6.8980   -1.8520 H   0  0  0  0  0  0  0  0  0  0  0  0
   -0.3640    9.6511    2.2485 H   0  0  0  0  0  0  0  0  0  0  0  0
    1.1871    9.6970    1.3436 H   0  0  0  0  0  0  0  0  0  0  0  0
    0.1045   11.1305    1.3436 H   0  0  0  0  0  0  0  0  0  0  0  0
   -2.0400    9.0466    1.6462 H   0  0  0  0  0  0  0  0  0  0  0  0
   -2.7412    9.7729    0.1604 H   0  0  0  0  0  0  0  0  0  0  0  0
   -2.2214    8.0535    0.1604 H   0  0  0  0  0  0  0  0  0  0  0  0
   -0.1767   10.4262   -4.0024 H   0  0  0  0  0  0  0  0  0  0  0  0
   -0.2612   12.0603   -4.7434 H   0  0  0  0  0  0  0  0  0  0  0  0
    1.2893   11.1533   -4.7434 H   0  0  0  0  0  0  0  0  0  0  0  0
    2.9126   11.7822   -2.7742 H   0  0  0  0  0  0  0  0  0  0  0  0
    2.2285   12.9977   -3.9942 H   0  0  0  0  0  0  0  0  0  0  0  0
    2.6915   13.4163   -1.0280 H   0  0  0  0  0  0  0  0  0  0  0  0
    3.5188   14.2138   -2.4232 H   0  0  0  0  0  0  0  0  0  0  0  0
    1.2469   16.5004   -3.5304 H   0  0  0  0  0  0  0  0  0  0  0  0
    2.3520   15.1965   -4.0829 H   0  0  0  0  0  0  0  0  0  0  0  0
    0.5758   14.9284   -4.0829 H   0  0  0  0  0  0  0  0  0  0  0  0
  1  2  1  0
  2  3  1  0
  3  4  1  0
  4  5  1  0
  5  6  1  0
  6  7  1  0
  7  8  1  0
  7  9  1  0
  2 10  1  0
 10 11  1  0
 11 12  1  0
 12 13  1  0
 13 14  1  1
 13 15  1  0
 15 16  1  0
 16 17  1  0
 17 18  2  0
 18 19  1  0
 19 20  1  0
 20 21  1  0
 21 22  1  0
 22 23  1  0
 22 24  1  0
 24 25  1  0
 24 26  1  0
 19 27  1  0
 27 28  1  6
 27 29  1  0
 29 30  1  0
 30 31  1  0
 31 32  1  6
  7  5  1  0
 31 10  1  0
 31 13  1  0
 27 15  1  0
 24 18  1  0
  1 33  1  0
  1 34  1  0
  1 35  1  0
  2 36  1  6
  3 37  1  0
  3 38  1  0
  4 39  1  0
  4 40  1  0
  5 41  1  6
  8 42  1  0
  8 43  1  0
  8 44  1  0
  9 45  1  0
  9 46  1  0
  9 47  1  0
 10 48  1  1
 11 49  1  0
 11 50  1  0
 12 51  1  0
 12 52  1  0
 14 53  1  0
 14 54  1  0
 14 55  1  0
 15 56  1  6
 16 57  1  0
 16 58  1  0
 17 59  1  0
 19 60  1  1
 20 61  1  0
 20 62  1  0
 21 63  1  0
 21 64  1  0
 22 65  1  1
 23 66  1  0
 25 67  1  0
 25 68  1  0
 25 69  1  0
 26 70  1  0
 26 71  1  0
 26 72  1  0
 28 73  1  0
 28 74  1  0
 28 75  1  0
 29 76  1  0
 29 77  1  0
 30 78  1  0
 30 79  1  0
 32 80  1  0
 32 81  1  0
 32 82  1  0
M  END
>  <meeko>  (14) 
{"is_sidechain": [false], "intermolecular_energy": 2.731, "internal_energy": -0.839}

$$$$
EPH_relaxed_0001_pdb2pqr_Repair_8_r2_0001_out
     RDKit          3D

 82 86  0  0  0  0  0  0  0  0999 V2000
   -0.4320    9.4150   -2.3560 C   0  0  0  0  0  0  0  0  0  0  0  0
    0.7720   10.2730   -2.7550 C   0  0  2  0  0  0  0  0  0  0  0  0
    2.0870    9.4680   -2.7500 C   0  0  0  0  0  0  0  0  0  0  0  0
    3.0640    9.8780   -3.8550 C   0  0  0  0  0  0  0  0  0  0  0  0
    4.3440   10.4160   -3.2900 C   0  0  2  0  0  0  0  0  0  0  0  0
    4.6560   11.7580   -3.6880 O   0  0  0  0  0  0  0  0  0  0  0  0
    5.5620   10.7370   -4.1370 C   0  0  0  0  0  0  0  0  0  0  0  0
    5.5590   10.5300   -5.6190 C   0  0  0  0  0  0  0  0  0  0  0  0
    6.9030   10.7860   -3.4720 C   0  0  0  0  0  0  0  0  0  0  0  0
    0.8910   11.4700   -1.8190 C   0  0  1  0  0  0  0  0  0  0  0  0
    1.9960   11.2820   -0.7460 C   0  0  0  0  0  0  0  0  0  0  0  0
    2.6220   12.6790   -0.4980 C   0  0  0  0  0  0  0  0  0  0  0  0
    1.6470   13.6690   -1.1780 C   0  0  1  0  0  0  0  0  0  0  0  0
    0.4900   13.8650   -0.1490 C   0  0  0  0  0  0  0  0  0  0  0  0
    2.2550   15.0360   -1.6300 C   0  0  2  0  0  0  0  0  0  0  0  0
    2.8080   15.9130   -0.4930 C   0  0  0  0  0  0  0  0  0  0  0  0
    1.8300   16.8660    0.1100 C   0  0  0  0  0  0  0  0  0  0  0  0
    0.6480   17.2180   -0.4270 C   0  0  0  0  0  0  0  0  0  0  0  0
    0.2320   16.7140   -1.8150 C   0  0  1  0  0  0  0  0  0  0  0  0
   -0.3230   17.8960   -2.6510 C   0  0  0  0  0  0  0  0  0  0  0  0
   -1.4500   18.6390   -1.9390 C   0  0  0  0  0  0  0  0  0  0  0  0
   -0.9810   19.1750   -0.5890 C   0  0  2  0  0  0  0  0  0  0  0  0
    0.0010   20.1920   -0.8120 O   0  0  0  0  0  0  0  0  0  0  0  0
   -0.3920   18.0740    0.3370 C   0  0  0  0  0  0  0  0  0  0  0  0
   -1.5280   17.1410    0.8230 C   0  0  0  0  0  0  0  0  0  0  0  0
    0.1720   18.7690    1.6060 C   0  0  0  0  0  0  0  0  0  0  0  0
    1.3250   15.8700   -2.6020 C   0  0  1  0  0  0  0  0  0  0  0  0
    2.2600   16.8260   -3.4030 C   0  0  0  0  0  0  0  0  0  0  0  0
    0.6040   14.9600   -3.6660 C   0  0  0  0  0  0  0  0  0  0  0  0
    0.1330   13.5730   -3.1900 C   0  0  0  0  0  0  0  0  0  0  0  0
    1.2550   12.8360   -2.4530 C   0  0  2  0  0  0  0  0  0  0  0  0
    2.4240   12.6050   -3.4700 C   0  0  0  0  0  0  0  0  0  0  0  0
   -0.5002    9.3664   -1.2592 H   0  0  0  0  0  0  0  0  0  0  0  0
   -1.3516    9.8626   -2.7611 H   0  0  0  0  0  0  0  0  0  0  0  0
   -0.3091    8.3997   -2.7611 H   0  0  0  0  0  0  0  0  0  0  0  0
    0.6023   10.6213   -3.7845 H   0  0  0  0  0  0  0  0  0  0  0  0
    2.5805    9.6151   -1.7780 H   0  0  0  0  0  0  0  0  0  0  0  0
    1.8206    8.4161   -2.9306 H   0  0  0  0  0  0  0  0  0  0  0  0
    3.2899    8.9985   -4.4758 H   0  0  0  0  0  0  0  0  0  0  0  0
    2.5924   10.6714   -4.4534 H   0  0  0  0  0  0  0  0  0  0  0  0
    4.2185    9.8203   -2.3738 H   0  0  0  0  0  0  0  0  0  0  0  0
    5.5434    9.4523   -5.8387 H   0  0  0  0  0  0  0  0  0  0  0  0
    4.6677   11.0058   -6.0539 H   0  0  0  0  0  0  0  0  0  0  0  0
    6.4638   10.9798   -6.0539 H   0  0  0  0  0  0  0  0  0  0  0  0
    6.7711   10.7812   -2.3799 H   0  0  0  0  0  0  0  0  0  0  0  0
    7.4942    9.9089   -3.7738 H   0  0  0  0  0  0  0  0  0  0  0  0
    7.4286   11.7040   -3.7738 H   0  0  0  0  0  0  0  0  0  0  0  0
   -0.1363   11.4994   -1.4268 H   0  0  0  0  0  0  0  0  0  0  0  0
    1.5577   10.8928    0.1848 H   0  0  0  0  0  0  0  0  0  0  0  0
    2.7566   10.5631   -1.0845 H   0  0  0  0  0  0  0  0  0  0  0  0
    2.6963   12.8856    0.5799 H   0  0  0  0  0  0  0  0  0  0  0  0
    3.6430   12.7562   -0.8999 H   0  0  0  0  0  0  0  0  0  0  0  0
    0.8923   13.7968    0.8725 H   0  0  0  0  0  0  0  0  0  0  0  0
    0.0311   14.8537   -0.2971 H   0  0  0  0  0  0  0  0  0  0  0  0
   -0.2689   13.0826   -0.2971 H   0  0  0  0  0  0  0  0  0  0  0  0
    3.1302   14.7209   -2.2171 H   0  0  0  0  0  0  0  0  0  0  0  0
    3.1700   15.2474    0.3044 H   0  0  0  0  0  0  0  0  0  0  0  0
    3.5985   16.5318   -0.9427 H   0  0  0  0  0  0  0  0  0  0  0  0
    2.0988   17.3190    1.0757 H   0  0  0  0  0  0  0  0  0  0  0  0
   -0.5630   15.9733   -1.6436 H   0  0  0  0  0  0  0  0  0  0  0  0
    0.4960   18.6033   -2.8483 H   0  0  0  0  0  0  0  0  0  0  0  0
   -0.7337   17.4813   -3.5834 H   0  0  0  0  0  0  0  0  0  0  0  0
   -1.7790   19.4807   -2.5661 H   0  0  0  0  0  0  0  0  0  0  0  0
   -2.2809   17.9384   -1.7696 H   0  0  0  0  0  0  0  0  0  0  0  0
   -1.8628   19.5809   -0.0716 H   0  0  0  0  0  0  0  0  0  0  0  0
    0.5280   19.9270   -1.5850 H   0  0  0  0  0  0  0  0  0  0  0  0
   -1.5455   17.1267    1.9228 H   0  0  0  0  0  0  0  0  0  0  0  0
   -2.4929   17.5108    0.4458 H   0  0  0  0  0  0  0  0  0  0  0  0
   -1.3528   16.1227    0.4458 H   0  0  0  0  0  0  0  0  0  0  0  0
   -0.2289   18.2750    2.5034 H   0  0  0  0  0  0  0  0  0  0  0  0
    1.2696   18.6962    1.6068 H   0  0  0  0  0  0  0  0  0  0  0  0
   -0.1252   19.8281    1.6068 H   0  0  0  0  0  0  0  0  0  0  0  0
    2.8526   17.4319   -2.7017 H   0  0  0  0  0  0  0  0  0  0  0  0
    2.9357   16.2324   -4.0363 H   0  0  0  0  0  0  0  0  0  0  0  0
    1.6515   17.4884   -4.0363 H   0  0  0  0  0  0  0  0  0  0  0  0
   -0.2804   15.5061   -4.0260 H   0  0  0  0  0  0  0  0  0  0  0  0
    1.3653   14.7571   -4.4336 H   0  0  0  0  0  0  0  0  0  0  0  0
   -0.7229   13.6974   -2.5103 H   0  0  0  0  0  0  0  0  0  0  0  0
   -0.1570   12.9801   -4.0700 H   0  0  0  0  0  0  0  0  0  0  0  0
    3.3581   12.4204   -2.9192 H   0  0  0  0  0  0  0  0  0  0  0  0
    2.1933   11.7351   -4.1025 H   0  0  0  0  0  0  0  0  0  0  0  0
    2.5415   13.4973   -4.1025 H   0  0  0  0  0  0  0  0  0  0  0  0
  1  2  1  0
  2  3  1  0
  3  4  1  0
  4  5  1  0
  5  6  1  0
  6  7  1  0
  7  8  1  0
  7  9  1  0
  2 10  1  0
 10 11  1  0
 11 12  1  0
 12 13  1  0
 13 14  1  1
 13 15  1  0
 15 16  1  0
 16 17  1  0
 17 18  2  0
 18 19  1  0
 19 20  1  0
 20 21  1  0
 21 22  1  0
 22 23  1  0
 22 24  1  0
 24 25  1  0
 24 26  1  0
 19 27  1  0
 27 28  1  6
 27 29  1  0
 29 30  1  0
 30 31  1  0
 31 32  1  6
  7  5  1  0
 31 10  1  0
 31 13  1  0
 27 15  1  0
 24 18  1  0
  1 33  1  0
  1 34  1  0
  1 35  1  0
  2 36  1  6
  3 37  1  0
  3 38  1  0
  4 39  1  0
  4 40  1  0
  5 41  1  1
  8 42  1  0
  8 43  1  0
  8 44  1  0
  9 45  1  0
  9 46  1  0
  9 47  1  0
 10 48  1  1
 11 49  1  0
 11 50  1  0
 12 51  1  0
 12 52  1  0
 14 53  1  0
 14 54  1  0
 14 55  1  0
 15 56  1  6
 16 57  1  0
 16 58  1  0
 17 59  1  0
 19 60  1  1
 20 61  1  0
 20 62  1  0
 21 63  1  0
 21 64  1  0
 22 65  1  1
 23 66  1  0
 25 67  1  0
 25 68  1  0
 25 69  1  0
 26 70  1  0
 26 71  1  0
 26 72  1  0
 28 73  1  0
 28 74  1  0
 28 75  1  0
 29 76  1  0
 29 77  1  0
 30 78  1  0
 30 79  1  0
 32 80  1  0
 32 81  1  0
 32 82  1  0
M  END
>  <meeko>  (15) 
{"is_sidechain": [false], "intermolecular_energy": 2.731, "internal_energy": -0.839}

$$$$
EPH_relaxed_0001_pdb2pqr_Repair_8_r2_0001_out
     RDKit          3D

 82 86  0  0  0  0  0  0  0  0999 V2000
    1.0020   19.9670   -1.9260 C   0  0  0  0  0  0  0  0  0  0  0  0
    1.3590   19.6100   -0.4800 C   0  0  2  0  0  0  0  0  0  0  0  0
    2.8610   19.7990   -0.1890 C   0  0  0  0  0  0  0  0  0  0  0  0
    3.1620   20.1910    1.2600 C   0  0  0  0  0  0  0  0  0  0  0  0
    4.5640   19.8340    1.6510 C   0  0  2  0  0  0  0  0  0  0  0  0
    4.8400   18.4270    1.6710 O   0  0  0  0  0  0  0  0  0  0  0  0
    4.9140   19.1060    2.9350 C   0  0  0  0  0  0  0  0  0  0  0  0
    3.8570   18.6920    3.9110 C   0  0  0  0  0  0  0  0  0  0  0  0
    6.3060   19.2300    3.4720 C   0  0  0  0  0  0  0  0  0  0  0  0
    0.9480   18.1720   -0.1840 C   0  0  1  0  0  0  0  0  0  0  0  0
   -0.4860   18.0700    0.4030 C   0  0  0  0  0  0  0  0  0  0  0  0
   -1.1000   16.7560   -0.1460 C   0  0  0  0  0  0  0  0  0  0  0  0
    0.0980   15.9880   -0.7520 C   0  0  1  0  0  0  0  0  0  0  0  0
    0.7920   15.3030    0.4670 C   0  0  0  0  0  0  0  0  0  0  0  0
   -0.2410   14.9580   -1.8780 C   0  0  2  0  0  0  0  0  0  0  0  0
   -1.1420   13.7890   -1.4440 C   0  0  0  0  0  0  0  0  0  0  0  0
   -0.4230   12.5810   -0.9430 C   0  0  0  0  0  0  0  0  0  0  0  0
    0.8880   12.3260   -1.1080 C   0  0  0  0  0  0  0  0  0  0  0  0
    1.7720   13.2590   -1.9470 C   0  0  1  0  0  0  0  0  0  0  0  0
    2.6470   12.4150   -2.9100 C   0  0  0  0  0  0  0  0  0  0  0  0
    3.4550   11.3460   -2.1810 C   0  0  0  0  0  0  0  0  0  0  0  0
    2.5380   10.4030   -1.4070 C   0  0  2  0  0  0  0  0  0  0  0  0
    1.7530    9.6530   -2.3400 O   0  0  0  0  0  0  0  0  0  0  0  0
    1.6000   11.1420   -0.4110 C   0  0  0  0  0  0  0  0  0  0  0  0
    2.4330   11.7020    0.7690 C   0  0  0  0  0  0  0  0  0  0  0  0
    0.6320   10.0930    0.2010 C   0  0  0  0  0  0  0  0  0  0  0  0
    1.0190   14.4460   -2.6880 C   0  0  1  0  0  0  0  0  0  0  0  0
    0.4910   13.9600   -4.0720 C   0  0  0  0  0  0  0  0  0  0  0  0
    2.0480   15.6010   -2.9860 C   0  0  0  0  0  0  0  0  0  0  0  0
    2.2490   16.6550   -1.8810 C   0  0  0  0  0  0  0  0  0  0  0  0
    0.9030   17.1850   -1.3770 C   0  0  2  0  0  0  0  0  0  0  0  0
    0.1910   17.8990   -2.5750 C   0  0  0  0  0  0  0  0  0  0  0  0
    0.2242   20.7448   -1.9303 H   0  0  0  0  0  0  0  0  0  0  0  0
    1.8978   20.3414   -2.4431 H   0  0  0  0  0  0  0  0  0  0  0  0
    0.6276   19.0712   -2.4431 H   0  0  0  0  0  0  0  0  0  0  0  0
    0.8067   20.2979    0.1771 H   0  0  0  0  0  0  0  0  0  0  0  0
    3.3789   18.8535   -0.4078 H   0  0  0  0  0  0  0  0  0  0  0  0
    3.2104   20.6256   -0.8251 H   0  0  0  0  0  0  0  0  0  0  0  0
    3.0265   21.2770    1.3710 H   0  0  0  0  0  0  0  0  0  0  0  0
    2.4721   19.6387    1.9150 H   0  0  0  0  0  0  0  0  0  0  0  0
    4.9513   20.7585    1.1978 H   0  0  0  0  0  0  0  0  0  0  0  0
    4.2277   18.8372    4.9364 H   0  0  0  0  0  0  0  0  0  0  0  0
    2.9558   19.3036    3.7568 H   0  0  0  0  0  0  0  0  0  0  0  0
    3.6109   17.6310    3.7568 H   0  0  0  0  0  0  0  0  0  0  0  0
    6.2764   19.2274    4.5716 H   0  0  0  0  0  0  0  0  0  0  0  0
    6.9119   18.3823    3.1195 H   0  0  0  0  0  0  0  0  0  0  0  0
    6.7525   20.1715    3.1195 H   0  0  0  0  0  0  0  0  0  0  0  0
    1.7544   17.8882    0.5083 H   0  0  0  0  0  0  0  0  0  0  0  0
   -0.4445   18.0389    1.5018 H   0  0  0  0  0  0  0  0  0  0  0  0
   -1.0938   18.9408    0.1161 H   0  0  0  0  0  0  0  0  0  0  0  0
   -1.5631   16.1752    0.6653 H   0  0  0  0  0  0  0  0  0  0  0  0
   -1.8923   16.9433   -0.8857 H   0  0  0  0  0  0  0  0  0  0  0  0
    0.3786   15.7110    1.4012 H   0  0  0  0  0  0  0  0  0  0  0  0
    0.6123   14.2184    0.4294 H   0  0  0  0  0  0  0  0  0  0  0  0
    1.8741   15.4969    0.4294 H   0  0  0  0  0  0  0  0  0  0  0  0
   -0.8459   15.5590   -2.5729 H   0  0  0  0  0  0  0  0  0  0  0  0
   -1.8022   14.1488   -0.6411 H   0  0  0  0  0  0  0  0  0  0  0  0
   -1.6810   13.4689   -2.3479 H   0  0  0  0  0  0  0  0  0  0  0  0
   -1.0151   11.8355   -0.3919 H   0  0  0  0  0  0  0  0  0  0  0  0
    2.4141   13.7946   -1.2322 H   0  0  0  0  0  0  0  0  0  0  0  0
    1.9907   11.9225   -3.6426 H   0  0  0  0  0  0  0  0  0  0  0  0
    3.3590   13.0967   -3.3982 H   0  0  0  0  0  0  0  0  0  0  0  0
    4.0304   10.7652   -2.9169 H   0  0  0  0  0  0  0  0  0  0  0  0
    4.1312   11.8415   -1.4688 H   0  0  0  0  0  0  0  0  0  0  0  0
    3.1780    9.7415   -0.8046 H   0  0  0  0  0  0  0  0  0  0  0  0
    0.9220    9.4120   -1.8970 H   0  0  0  0  0  0  0  0  0  0  0  0
    1.9746   11.3938    1.7202 H   0  0  0  0  0  0  0  0  0  0  0  0
    3.4590   11.3095    0.7123 H   0  0  0  0  0  0  0  0  0  0  0  0
    2.4569   12.8003    0.7123 H   0  0  0  0  0  0  0  0  0  0  0  0
    0.6806   10.1457    1.2987 H   0  0  0  0  0  0  0  0  0  0  0  0
   -0.3952   10.3043   -0.1311 H   0  0  0  0  0  0  0  0  0  0  0  0
    0.9249    9.0861   -0.1311 H   0  0  0  0  0  0  0  0  0  0  0  0
   -0.3106   13.2222   -3.9201 H   0  0  0  0  0  0  0  0  0  0  0  0
    0.0973   14.8183   -4.6362 H   0  0  0  0  0  0  0  0  0  0  0  0
    1.3138   13.4966   -4.6362 H   0  0  0  0  0  0  0  0  0  0  0  0
    3.0245   15.1341   -3.1820 H   0  0  0  0  0  0  0  0  0  0  0  0
    1.6218   16.1535   -3.8363 H   0  0  0  0  0  0  0  0  0  0  0  0
    2.7925   16.1970   -1.0415 H   0  0  0  0  0  0  0  0  0  0  0  0
    2.8227   17.4956   -2.2985 H   0  0  0  0  0  0  0  0  0  0  0  0
   -0.5360   18.6280   -2.1877 H   0  0  0  0  0  0  0  0  0  0  0  0
    0.9404   18.4195   -3.1894 H   0  0  0  0  0  0  0  0  0  0  0  0
   -0.3316   17.1511   -3.1894 H   0  0  0  0  0  0  0  0  0  0  0  0
  1  2  1  0
  2  3  1  0
  3  4  1  0
  4  5  1  0
  5  6  1  0
  6  7  1  0
  7  8  1  0
  7  9  1  0
  2 10  1  0
 10 11  1  0
 11 12  1  0
 12 13  1  0
 13 14  1  1
 13 15  1  0
 15 16  1  0
 16 17  1  0
 17 18  2  0
 18 19  1  0
 19 20  1  0
 20 21  1  0
 21 22  1  0
 22 23  1  0
 22 24  1  0
 24 25  1  0
 24 26  1  0
 19 27  1  0
 27 28  1  6
 27 29  1  0
 29 30  1  0
 30 31  1  0
 31 32  1  6
  7  5  1  0
 31 10  1  0
 31 13  1  0
 27 15  1  0
 24 18  1  0
  1 33  1  0
  1 34  1  0
  1 35  1  0
  2 36  1  1
  3 37  1  0
  3 38  1  0
  4 39  1  0
  4 40  1  0
  5 41  1  6
  8 42  1  0
  8 43  1  0
  8 44  1  0
  9 45  1  0
  9 46  1  0
  9 47  1  0
 10 48  1  1
 11 49  1  0
 11 50  1  0
 12 51  1  0
 12 52  1  0
 14 53  1  0
 14 54  1  0
 14 55  1  0
 15 56  1  6
 16 57  1  0
 16 58  1  0
 17 59  1  0
 19 60  1  1
 20 61  1  0
 20 62  1  0
 21 63  1  0
 21 64  1  0
 22 65  1  1
 23 66  1  0
 25 67  1  0
 25 68  1  0
 25 69  1  0
 26 70  1  0
 26 71  1  0
 26 72  1  0
 28 73  1  0
 28 74  1  0
 28 75  1  0
 29 76  1  0
 29 77  1  0
 30 78  1  0
 30 79  1  0
 32 80  1  0
 32 81  1  0
 32 82  1  0
M  END
>  <meeko>  (16) 
{"is_sidechain": [false], "intermolecular_energy": 2.731, "internal_energy": -0.839}

$$$$
EPH_relaxed_0001_pdb2pqr_Repair_8_r2_0001_out
     RDKit          3D

 82 86  0  0  0  0  0  0  0  0999 V2000
    2.9390   18.7000   -3.2200 C   0  0  0  0  0  0  0  0  0  0  0  0
    2.3080   18.4380   -1.8500 C   0  0  2  0  0  0  0  0  0  0  0  0
    2.8130   19.4270   -0.7800 C   0  0  0  0  0  0  0  0  0  0  0  0
    2.4190   19.0410    0.6490 C   0  0  0  0  0  0  0  0  0  0  0  0
    3.0900   19.9160    1.6640 C   0  0  2  0  0  0  0  0  0  0  0  0
    4.4750   20.1810    1.4030 O   0  0  0  0  0  0  0  0  0  0  0  0
    4.1870   19.4290    2.5930 C   0  0  0  0  0  0  0  0  0  0  0  0
    4.6740   18.0150    2.5510 C   0  0  0  0  0  0  0  0  0  0  0  0
    4.4390   20.1850    3.8600 C   0  0  0  0  0  0  0  0  0  0  0  0
    2.5920   17.0060   -1.4120 C   0  0  1  0  0  0  0  0  0  0  0  0
    3.2950   16.9320   -0.0300 C   0  0  0  0  0  0  0  0  0  0  0  0
    2.7590   15.6610    0.6770 C   0  0  0  0  0  0  0  0  0  0  0  0
    2.0280   14.8740   -0.4360 C   0  0  1  0  0  0  0  0  0  0  0  0
    3.1600   14.1220   -1.2050 C   0  0  0  0  0  0  0  0  0  0  0  0
    0.9020   13.8970    0.0330 C   0  0  2  0  0  0  0  0  0  0  0  0
    1.3730   12.7450    0.9390 C   0  0  0  0  0  0  0  0  0  0  0  0
    1.7720   11.4960    0.2250 C   0  0  0  0  0  0  0  0  0  0  0  0
    1.4870   11.2020   -1.0570 C   0  0  0  0  0  0  0  0  0  0  0  0
    0.6070   12.1330   -1.9010 C   0  0  1  0  0  0  0  0  0  0  0  0
   -0.4540   11.2940   -2.6610 C   0  0  0  0  0  0  0  0  0  0  0  0
    0.1680   10.1720   -3.4860 C   0  0  0  0  0  0  0  0  0  0  0  0
    0.9870    9.2350   -2.6030 C   0  0  2  0  0  0  0  0  0  0  0  0
    0.1010    8.5460   -1.7150 O   0  0  0  0  0  0  0  0  0  0  0  0
    2.0830    9.9700   -1.7810 C   0  0  0  0  0  0  0  0  0  0  0  0
    3.2050   10.4590   -2.7300 C   0  0  0  0  0  0  0  0  0  0  0  0
    2.7400    8.9340   -0.8290 C   0  0  0  0  0  0  0  0  0  0  0  0
   -0.0280   13.3710   -1.1340 C   0  0  1  0  0  0  0  0  0  0  0  0
   -1.3770   12.9520   -0.4730 C   0  0  0  0  0  0  0  0  0  0  0  0
   -0.3760   14.4990   -2.1760 C   0  0  0  0  0  0  0  0  0  0  0  0
    0.7420   15.5060   -2.5090 C   0  0  0  0  0  0  0  0  0  0  0  0
    1.3760   16.0630   -1.2310 C   0  0  2  0  0  0  0  0  0  0  0  0
    0.2660   16.8440   -0.4480 C   0  0  0  0  0  0  0  0  0  0  0  0
    3.9473   19.1186   -3.0853 H   0  0  0  0  0  0  0  0  0  0  0  0
    3.0060   17.7553   -3.7795 H   0  0  0  0  0  0  0  0  0  0  0  0
    2.3171   19.4143   -3.7795 H   0  0  0  0  0  0  0  0  0  0  0  0
    1.2228   18.5869   -1.9512 H   0  0  0  0  0  0  0  0  0  0  0  0
    3.9106   19.4709   -0.8379 H   0  0  0  0  0  0  0  0  0  0  0  0
    2.3427   20.3985   -0.9922 H   0  0  0  0  0  0  0  0  0  0  0  0
    1.3289   19.1404    0.7575 H   0  0  0  0  0  0  0  0  0  0  0  0
    2.7394   18.0035    0.8249 H   0  0  0  0  0  0  0  0  0  0  0  0
    2.1524   20.4600    1.8508 H   0  0  0  0  0  0  0  0  0  0  0  0
    4.8028   17.6409    3.5774 H   0  0  0  0  0  0  0  0  0  0  0  0
    3.9394   17.3897    2.0224 H   0  0  0  0  0  0  0  0  0  0  0  0
    5.6378   17.9747    2.0224 H   0  0  0  0  0  0  0  0  0  0  0  0
    4.2231   19.5374    4.7225 H   0  0  0  0  0  0  0  0  0  0  0  0
    5.4916   20.5026    3.8943 H   0  0  0  0  0  0  0  0  0  0  0  0
    3.7875   21.0706    3.8943 H   0  0  0  0  0  0  0  0  0  0  0  0
    3.2043   16.6714   -2.2624 H   0  0  0  0  0  0  0  0  0  0  0  0
    4.3846   16.8606   -0.1627 H   0  0  0  0  0  0  0  0  0  0  0  0
    3.0886   17.8327    0.5668 H   0  0  0  0  0  0  0  0  0  0  0  0
    3.5879   15.0683    1.0912 H   0  0  0  0  0  0  0  0  0  0  0  0
    2.0966   15.9016    1.5216 H   0  0  0  0  0  0  0  0  0  0  0  0
    3.8512   13.6628   -0.4830 H   0  0  0  0  0  0  0  0  0  0  0  0
    2.7161   13.3386   -1.8369 H   0  0  0  0  0  0  0  0  0  0  0  0
    3.7101   14.8348   -1.8369 H   0  0  0  0  0  0  0  0  0  0  0  0
    0.2799   14.5431    0.6699 H   0  0  0  0  0  0  0  0  0  0  0  0
    2.2402   13.0988    1.5159 H   0  0  0  0  0  0  0  0  0  0  0  0
    0.5088   12.4760    1.5642 H   0  0  0  0  0  0  0  0  0  0  0  0
    2.3481   10.7526    0.7955 H   0  0  0  0  0  0  0  0  0  0  0  0
    1.2819   12.6206   -2.6198 H   0  0  0  0  0  0  0  0  0  0  0  0
   -1.1445   10.8514   -1.9280 H   0  0  0  0  0  0  0  0  0  0  0  0
   -0.9774   11.9678   -3.3553 H   0  0  0  0  0  0  0  0  0  0  0  0
   -0.6331    9.5977   -3.9744 H   0  0  0  0  0  0  0  0  0  0  0  0
    0.8353   10.6179   -4.2382 H   0  0  0  0  0  0  0  0  0  0  0  0
    1.5111    8.5312   -3.2663 H   0  0  0  0  0  0  0  0  0  0  0  0
   -0.3780    9.2160   -1.1990 H   0  0  0  0  0  0  0  0  0  0  0  0
    4.0532   10.8287   -2.1351 H   0  0  0  0  0  0  0  0  0  0  0  0
    3.5382    9.6245   -3.3645 H   0  0  0  0  0  0  0  0  0  0  0  0
    2.8205   11.2712   -3.3645 H   0  0  0  0  0  0  0  0  0  0  0  0
    2.5546    9.2263    0.2151 H   0  0  0  0  0  0  0  0  0  0  0  0
    2.3069    7.9399   -1.0139 H   0  0  0  0  0  0  0  0  0  0  0  0
    3.8239    8.9019   -1.0139 H   0  0  0  0  0  0  0  0  0  0  0  0
   -1.2744   12.9839    0.6217 H   0  0  0  0  0  0  0  0  0  0  0  0
   -2.1705   13.6460   -0.7873 H   0  0  0  0  0  0  0  0  0  0  0  0
   -1.6376   11.9306   -0.7873 H   0  0  0  0  0  0  0  0  0  0  0  0
   -0.6702   14.0060   -3.1143 H   0  0  0  0  0  0  0  0  0  0  0  0
   -1.1685   15.0955   -1.7006 H   0  0  0  0  0  0  0  0  0  0  0  0
    1.5166   15.0001   -3.1041 H   0  0  0  0  0  0  0  0  0  0  0  0
    0.3048   16.3408   -3.0764 H   0  0  0  0  0  0  0  0  0  0  0  0
    0.4301   16.7285    0.6335 H   0  0  0  0  0  0  0  0  0  0  0  0
    0.3112   17.9104   -0.7139 H   0  0  0  0  0  0  0  0  0  0  0  0
   -0.7225   16.4413   -0.7139 H   0  0  0  0  0  0  0  0  0  0  0  0
  1  2  1  0
  2  3  1  0
  3  4  1  0
  4  5  1  0
  5  6  1  0
  6  7  1  0
  7  8  1  0
  7  9  1  0
  2 10  1  0
 10 11  1  0
 11 12  1  0
 12 13  1  0
 13 14  1  6
 13 15  1  0
 15 16  1  0
 16 17  1  0
 17 18  2  0
 18 19  1  0
 19 20  1  0
 20 21  1  0
 21 22  1  0
 22 23  1  0
 22 24  1  0
 24 25  1  0
 24 26  1  0
 19 27  1  0
 27 28  1  1
 27 29  1  0
 29 30  1  0
 30 31  1  0
 31 32  1  1
  7  5  1  0
 31 10  1  0
 31 13  1  0
 27 15  1  0
 24 18  1  0
  1 33  1  0
  1 34  1  0
  1 35  1  0
  2 36  1  6
  3 37  1  0
  3 38  1  0
  4 39  1  0
  4 40  1  0
  5 41  1  1
  8 42  1  0
  8 43  1  0
  8 44  1  0
  9 45  1  0
  9 46  1  0
  9 47  1  0
 10 48  1  6
 11 49  1  0
 11 50  1  0
 12 51  1  0
 12 52  1  0
 14 53  1  0
 14 54  1  0
 14 55  1  0
 15 56  1  1
 16 57  1  0
 16 58  1  0
 17 59  1  0
 19 60  1  6
 20 61  1  0
 20 62  1  0
 21 63  1  0
 21 64  1  0
 22 65  1  6
 23 66  1  0
 25 67  1  0
 25 68  1  0
 25 69  1  0
 26 70  1  0
 26 71  1  0
 26 72  1  0
 28 73  1  0
 28 74  1  0
 28 75  1  0
 29 76  1  0
 29 77  1  0
 30 78  1  0
 30 79  1  0
 32 80  1  0
 32 81  1  0
 32 82  1  0
M  END
>  <meeko>  (17) 
{"is_sidechain": [false], "intermolecular_energy": 2.731, "internal_energy": -0.839}

$$$$
EPH_relaxed_0001_pdb2pqr_Repair_8_r2_0001_out
     RDKit          3D

 82 86  0  0  0  0  0  0  0  0999 V2000
    0.9120   14.8740   -2.6530 C   0  0  0  0  0  0  0  0  0  0  0  0
    1.1800   14.1920   -3.9970 C   0  0  2  0  0  0  0  0  0  0  0  0
    0.4840   14.9200   -5.1660 C   0  0  0  0  0  0  0  0  0  0  0  0
    1.0850   14.5970   -6.5360 C   0  0  0  0  0  0  0  0  0  0  0  0
    0.8370   15.6970   -7.5230 C   0  0  2  0  0  0  0  0  0  0  0  0
    0.4060   15.2540   -8.8170 O   0  0  0  0  0  0  0  0  0  0  0  0
    1.6820   15.9130   -8.7650 C   0  0  0  0  0  0  0  0  0  0  0  0
    2.8400   15.0220   -9.0860 C   0  0  0  0  0  0  0  0  0  0  0  0
    1.6860   17.2690   -9.4000 C   0  0  0  0  0  0  0  0  0  0  0  0
    0.7240   12.7390   -3.9430 C   0  0  1  0  0  0  0  0  0  0  0  0
    1.8510   11.7440   -4.3270 C   0  0  0  0  0  0  0  0  0  0  0  0
    1.6480   10.4800   -3.4530 C   0  0  0  0  0  0  0  0  0  0  0  0
    0.2370   10.6480   -2.8450 C   0  0  1  0  0  0  0  0  0  0  0  0
   -0.7420   10.1830   -3.9680 C   0  0  0  0  0  0  0  0  0  0  0  0
   -0.0300    9.8970   -1.5000 C   0  0  2  0  0  0  0  0  0  0  0  0
    0.0690    8.3640   -1.5770 C   0  0  0  0  0  0  0  0  0  0  0  0
   -1.2070    7.6580   -1.8990 C   0  0  0  0  0  0  0  0  0  0  0  0
   -2.4380    8.2000   -1.8370 C   0  0  0  0  0  0  0  0  0  0  0  0
   -2.6450    9.6280   -1.3160 C   0  0  1  0  0  0  0  0  0  0  0  0
   -3.8230    9.6450   -0.3070 C   0  0  0  0  0  0  0  0  0  0  0  0
   -5.1000    9.0460   -0.8890 C   0  0  0  0  0  0  0  0  0  0  0  0
   -4.8690    7.6070   -1.3430 C   0  0  2  0  0  0  0  0  0  0  0  0
   -4.6130    6.7960   -0.1920 O   0  0  0  0  0  0  0  0  0  0  0  0
   -3.6980    7.4630   -2.3540 C   0  0  0  0  0  0  0  0  0  0  0  0
   -4.1030    8.0880   -3.7120 C   0  0  0  0  0  0  0  0  0  0  0  0
   -3.4800    5.9490   -2.6210 C   0  0  0  0  0  0  0  0  0  0  0  0
   -1.3480   10.3550   -0.7530 C   0  0  1  0  0  0  0  0  0  0  0  0
   -1.1520   10.0010    0.7530 C   0  0  0  0  0  0  0  0  0  0  0  0
   -1.5630   11.9130   -0.8180 C   0  0  0  0  0  0  0  0  0  0  0  0
   -1.1690   12.6140   -2.1320 C   0  0  0  0  0  0  0  0  0  0  0  0
    0.2360   12.1970   -2.5760 C   0  0  2  0  0  0  0  0  0  0  0  0
    1.2460   12.6720   -1.4750 C   0  0  0  0  0  0  0  0  0  0  0  0
    1.1808   14.1899   -1.8346 H   0  0  0  0  0  0  0  0  0  0  0  0
    1.5172   15.7896   -2.5793 H   0  0  0  0  0  0  0  0  0  0  0  0
   -0.1546   15.1326   -2.5793 H   0  0  0  0  0  0  0  0  0  0  0  0
    2.2639   14.2344   -4.1795 H   0  0  0  0  0  0  0  0  0  0  0  0
   -0.5767   14.6287   -5.1745 H   0  0  0  0  0  0  0  0  0  0  0  0
    0.6212   15.9988   -5.0006 H   0  0  0  0  0  0  0  0  0  0  0  0
    2.1702   14.4556   -6.4249 H   0  0  0  0  0  0  0  0  0  0  0  0
    0.6051   13.6823   -6.9141 H   0  0  0  0  0  0  0  0  0  0  0  0
    0.5182   16.3779   -6.7200 H   0  0  0  0  0  0  0  0  0  0  0  0
    3.3002   14.6679   -8.1517 H   0  0  0  0  0  0  0  0  0  0  0  0
    2.4879   14.1596   -9.6711 H   0  0  0  0  0  0  0  0  0  0  0  0
    3.5833   15.5833   -9.6711 H   0  0  0  0  0  0  0  0  0  0  0  0
    1.6883   18.0409   -8.6163 H   0  0  0  0  0  0  0  0  0  0  0  0
    2.5845   17.3785  -10.0251 H   0  0  0  0  0  0  0  0  0  0  0  0
    0.7882   17.3838  -10.0251 H   0  0  0  0  0  0  0  0  0  0  0  0
   -0.1162   12.7834   -4.6516 H   0  0  0  0  0  0  0  0  0  0  0  0
    1.7789   11.4830   -5.3932 H   0  0  0  0  0  0  0  0  0  0  0  0
    2.8436   12.1866   -4.1571 H   0  0  0  0  0  0  0  0  0  0  0  0
    1.6996    9.5699   -4.0687 H   0  0  0  0  0  0  0  0  0  0  0  0
    2.4250   10.3777   -2.6811 H   0  0  0  0  0  0  0  0  0  0  0  0
   -1.6461    9.7536   -3.5116 H   0  0  0  0  0  0  0  0  0  0  0  0
   -1.0203   11.0451   -4.5919 H   0  0  0  0  0  0  0  0  0  0  0  0
   -0.2496    9.4226   -4.5919 H   0  0  0  0  0  0  0  0  0  0  0  0
    0.8181   10.2191   -0.8779 H   0  0  0  0  0  0  0  0  0  0  0  0
    0.8040    8.1095   -2.3548 H   0  0  0  0  0  0  0  0  0  0  0  0
    0.3580    8.0267   -0.5707 H   0  0  0  0  0  0  0  0  0  0  0  0
   -1.1351    6.6063   -2.2134 H   0  0  0  0  0  0  0  0  0  0  0  0
   -2.8978   10.2394   -2.1948 H   0  0  0  0  0  0  0  0  0  0  0  0
   -3.5345    9.0647    0.5818 H   0  0  0  0  0  0  0  0  0  0  0  0
   -4.0315   10.6951   -0.0545 H   0  0  0  0  0  0  0  0  0  0  0  0
   -5.8868    9.0592   -0.1204 H   0  0  0  0  0  0  0  0  0  0  0  0
   -5.4038    9.6449   -1.7602 H   0  0  0  0  0  0  0  0  0  0  0  0
   -5.7779    7.2774   -1.8677 H   0  0  0  0  0  0  0  0  0  0  0  0
   -5.3260    6.1380   -0.1300 H   0  0  0  0  0  0  0  0  0  0  0  0
   -4.6934    8.9991   -3.5348 H   0  0  0  0  0  0  0  0  0  0  0  0
   -3.1979    8.3428   -4.2828 H   0  0  0  0  0  0  0  0  0  0  0  0
   -4.7054    7.3660   -4.2828 H   0  0  0  0  0  0  0  0  0  0  0  0
   -3.4031    5.4150   -1.6624 H   0  0  0  0  0  0  0  0  0  0  0  0
   -4.3302    5.5517   -3.1949 H   0  0  0  0  0  0  0  0  0  0  0  0
   -2.5523    5.8077   -3.1949 H   0  0  0  0  0  0  0  0  0  0  0  0
   -1.5911   10.7940    1.3762 H   0  0  0  0  0  0  0  0  0  0  0  0
   -1.6491    9.0446    0.9726 H   0  0  0  0  0  0  0  0  0  0  0  0
   -0.0776    9.9147    0.9726 H   0  0  0  0  0  0  0  0  0  0  0  0
   -2.6312   12.1092   -0.6434 H   0  0  0  0  0  0  0  0  0  0  0  0
   -0.8875   12.3290   -0.0559 H   0  0  0  0  0  0  0  0  0  0  0  0
   -1.8902   12.3402   -2.9161 H   0  0  0  0  0  0  0  0  0  0  0  0
   -1.1758   13.7012   -1.9651 H   0  0  0  0  0  0  0  0  0  0  0  0
    0.8231   12.4731   -0.4792 H   0  0  0  0  0  0  0  0  0  0  0  0
    2.1940   12.1253   -1.5867 H   0  0  0  0  0  0  0  0  0  0  0  0
    1.4295   13.7508   -1.5867 H   0  0  0  0  0  0  0  0  0  0  0  0
  1  2  1  0
  2  3  1  0
  3  4  1  0
  4  5  1  0
  5  6  1  0
  6  7  1  0
  7  8  1  0
  7  9  1  0
  2 10  1  0
 10 11  1  0
 11 12  1  0
 12 13  1  0
 13 14  1  6
 13 15  1  0
 15 16  1  0
 16 17  1  0
 17 18  2  0
 18 19  1  0
 19 20  1  0
 20 21  1  0
 21 22  1  0
 22 23  1  0
 22 24  1  0
 24 25  1  0
 24 26  1  0
 19 27  1  0
 27 28  1  1
 27 29  1  0
 29 30  1  0
 30 31  1  0
 31 32  1  1
  7  5  1  0
 31 10  1  0
 31 13  1  0
 27 15  1  0
 24 18  1  0
  1 33  1  0
  1 34  1  0
  1 35  1  0
  2 36  1  6
  3 37  1  0
  3 38  1  0
  4 39  1  0
  4 40  1  0
  5 41  1  1
  8 42  1  0
  8 43  1  0
  8 44  1  0
  9 45  1  0
  9 46  1  0
  9 47  1  0
 10 48  1  6
 11 49  1  0
 11 50  1  0
 12 51  1  0
 12 52  1  0
 14 53  1  0
 14 54  1  0
 14 55  1  0
 15 56  1  1
 16 57  1  0
 16 58  1  0
 17 59  1  0
 19 60  1  6
 20 61  1  0
 20 62  1  0
 21 63  1  0
 21 64  1  0
 22 65  1  6
 23 66  1  0
 25 67  1  0
 25 68  1  0
 25 69  1  0
 26 70  1  0
 26 71  1  0
 26 72  1  0
 28 73  1  0
 28 74  1  0
 28 75  1  0
 29 76  1  0
 29 77  1  0
 30 78  1  0
 30 79  1  0
 32 80  1  0
 32 81  1  0
 32 82  1  0
M  END
>  <meeko>  (18) 
{"is_sidechain": [false], "intermolecular_energy": 2.731, "internal_energy": -0.839}

$$$$
EPH_relaxed_0001_pdb2pqr_Repair_8_r2_0001_out
     RDKit          3D

 82 86  0  0  0  0  0  0  0  0999 V2000
   -1.7290   14.8240    0.4760 C   0  0  0  0  0  0  0  0  0  0  0  0
   -0.3850   15.5260    0.2610 C   0  0  2  0  0  0  0  0  0  0  0  0
   -0.4390   16.5390   -0.9000 C   0  0  0  0  0  0  0  0  0  0  0  0
   -0.0480   17.9620   -0.4930 C   0  0  0  0  0  0  0  0  0  0  0  0
    1.3810   18.0390   -0.0480 C   0  0  2  0  0  0  0  0  0  0  0  0
    2.0480   19.2630   -0.3850 O   0  0  0  0  0  0  0  0  0  0  0  0
    2.5560   18.0720   -1.0080 C   0  0  0  0  0  0  0  0  0  0  0  0
    2.3540   18.0270   -2.4900 C   0  0  0  0  0  0  0  0  0  0  0  0
    3.9030   17.6560   -0.5050 C   0  0  0  0  0  0  0  0  0  0  0  0
    0.7050   14.4930    0.0020 C   0  0  1  0  0  0  0  0  0  0  0  0
    0.8330   13.4580    1.1510 C   0  0  0  0  0  0  0  0  0  0  0  0
    1.2090   12.1050    0.4950 C   0  0  0  0  0  0  0  0  0  0  0  0
    1.6070   12.4710   -0.9540 C   0  0  1  0  0  0  0  0  0  0  0  0
    3.0810   12.9730   -0.8500 C   0  0  0  0  0  0  0  0  0  0  0  0
    1.4570   11.3360   -2.0190 C   0  0  2  0  0  0  0  0  0  0  0  0
    2.3400   10.0980   -1.7820 C   0  0  0  0  0  0  0  0  0  0  0  0
    3.6850   10.1410   -2.4270 C   0  0  0  0  0  0  0  0  0  0  0  0
    4.0610   10.9960   -3.3960 C   0  0  0  0  0  0  0  0  0  0  0  0
    3.0580   11.9820   -4.0090 C   0  0  1  0  0  0  0  0  0  0  0  0
    3.1850   11.9550   -5.5550 C   0  0  0  0  0  0  0  0  0  0  0  0
    4.6130   12.2050   -6.0290 C   0  0  0  0  0  0  0  0  0  0  0  0
    5.5710   11.1700   -5.4450 C   0  0  2  0  0  0  0  0  0  0  0  0
    5.2550    9.8870   -5.9940 O   0  0  0  0  0  0  0  0  0  0  0  0
    5.5240   11.1000   -3.8930 C   0  0  0  0  0  0  0  0  0  0  0  0
    6.1520   12.3830   -3.2940 C   0  0  0  0  0  0  0  0  0  0  0  0
    6.4300    9.9220   -3.4410 C   0  0  0  0  0  0  0  0  0  0  0  0
    1.5540   11.8360   -3.5170 C   0  0  1  0  0  0  0  0  0  0  0  0
    0.8090   10.7790   -4.3880 C   0  0  0  0  0  0  0  0  0  0  0  0
    0.8050   13.2030   -3.7410 C   0  0  0  0  0  0  0  0  0  0  0  0
    0.8910   14.2370   -2.6020 C   0  0  0  0  0  0  0  0  0  0  0  0
    0.5510   13.5960   -1.2530 C   0  0  2  0  0  0  0  0  0  0  0  0
   -0.9340   13.1010   -1.3190 C   0  0  0  0  0  0  0  0  0  0  0  0
   -1.9217   14.7233    1.5543 H   0  0  0  0  0  0  0  0  0  0  0  0
   -2.5311   15.4183    0.0141 H   0  0  0  0  0  0  0  0  0  0  0  0
   -1.6995   13.8261    0.0141 H   0  0  0  0  0  0  0  0  0  0  0  0
   -0.1537   16.0876    1.1781 H   0  0  0  0  0  0  0  0  0  0  0  0
    0.2502   16.2013   -1.6880 H   0  0  0  0  0  0  0  0  0  0  0  0
   -1.4830   16.5783   -1.2444 H   0  0  0  0  0  0  0  0  0  0  0  0
   -0.1894   18.6307   -1.3549 H   0  0  0  0  0  0  0  0  0  0  0  0
   -0.6862   18.2648    0.3502 H   0  0  0  0  0  0  0  0  0  0  0  0
    1.1649   17.4161    0.8325 H   0  0  0  0  0  0  0  0  0  0  0  0
    1.3020   17.7926   -2.7097 H   0  0  0  0  0  0  0  0  0  0  0  0
    2.6105   19.0043   -2.9249 H   0  0  0  0  0  0  0  0  0  0  0  0
    3.0011   17.2510   -2.9249 H   0  0  0  0  0  0  0  0  0  0  0  0
    3.9000   17.6569    0.5950 H   0  0  0  0  0  0  0  0  0  0  0  0
    4.1344   16.6445   -0.8702 H   0  0  0  0  0  0  0  0  0  0  0  0
    4.6645   18.3608   -0.8702 H   0  0  0  0  0  0  0  0  0  0  0  0
    1.5691   15.1631   -0.1171 H   0  0  0  0  0  0  0  0  0  0  0  0
    1.6190   13.7689    1.8550 H   0  0  0  0  0  0  0  0  0  0  0  0
   -0.1081   13.3754    1.7145 H   0  0  0  0  0  0  0  0  0  0  0  0
    2.0534   11.6386    1.0236 H   0  0  0  0  0  0  0  0  0  0  0  0
    0.3821   11.3804    0.5300 H   0  0  0  0  0  0  0  0  0  0  0  0
    3.3619   13.0687    0.2092 H   0  0  0  0  0  0  0  0  0  0  0  0
    3.7496   12.2519   -1.3430 H   0  0  0  0  0  0  0  0  0  0  0  0
    3.1705   13.9523   -1.3430 H   0  0  0  0  0  0  0  0  0  0  0  0
    0.4217   10.9997   -1.8608 H   0  0  0  0  0  0  0  0  0  0  0  0
    2.4866    9.9878   -0.6974 H   0  0  0  0  0  0  0  0  0  0  0  0
    1.8085    9.2525   -2.2431 H   0  0  0  0  0  0  0  0  0  0  0  0
    4.4326    9.4120   -2.0811 H   0  0  0  0  0  0  0  0  0  0  0  0
    3.3367   12.9760   -3.6291 H   0  0  0  0  0  0  0  0  0  0  0  0
    2.8605   10.9687   -5.9183 H   0  0  0  0  0  0  0  0  0  0  0  0
    2.5540   12.7619   -5.9560 H   0  0  0  0  0  0  0  0  0  0  0  0
    4.6436   12.1447   -7.1269 H   0  0  0  0  0  0  0  0  0  0  0  0
    4.9257   13.2035   -5.6897 H   0  0  0  0  0  0  0  0  0  0  0  0
    6.5924   11.4765   -5.7150 H   0  0  0  0  0  0  0  0  0  0  0  0
    4.3150    9.7140   -5.8160 H   0  0  0  0  0  0  0  0  0  0  0  0
    6.1243   12.3265   -2.1958 H   0  0  0  0  0  0  0  0  0  0  0  0
    7.1955   12.4720   -3.6304 H   0  0  0  0  0  0  0  0  0  0  0  0
    5.5821   13.2617   -3.6304 H   0  0  0  0  0  0  0  0  0  0  0  0
    6.4599    9.8831   -2.3421 H   0  0  0  0  0  0  0  0  0  0  0  0
    6.0239    8.9768   -3.8304 H   0  0  0  0  0  0  0  0  0  0  0  0
    7.4478   10.0719   -3.8304 H   0  0  0  0  0  0  0  0  0  0  0  0
    0.3000   10.0569   -3.7327 H   0  0  0  0  0  0  0  0  0  0  0  0
    0.0666   11.2846   -5.0229 H   0  0  0  0  0  0  0  0  0  0  0  0
    1.5348   10.2498   -5.0229 H   0  0  0  0  0  0  0  0  0  0  0  0
    1.2247   13.6682   -4.6451 H   0  0  0  0  0  0  0  0  0  0  0  0
   -0.2607   12.9393   -3.8105 H   0  0  0  0  0  0  0  0  0  0  0  0
    1.9127   14.6425   -2.5604 H   0  0  0  0  0  0  0  0  0  0  0  0
    0.1660   15.0399   -2.8016 H   0  0  0  0  0  0  0  0  0  0  0  0
   -1.3230   12.9713   -0.2983 H   0  0  0  0  0  0  0  0  0  0  0  0
   -1.5448   13.8441   -1.8525 H   0  0  0  0  0  0  0  0  0  0  0  0
   -0.9768   12.1400   -1.8525 H   0  0  0  0  0  0  0  0  0  0  0  0
  1  2  1  0
  2  3  1  0
  3  4  1  0
  4  5  1  0
  5  6  1  0
  6  7  1  0
  7  8  1  0
  7  9  1  0
  2 10  1  0
 10 11  1  0
 11 12  1  0
 12 13  1  0
 13 14  1  1
 13 15  1  0
 15 16  1  0
 16 17  1  0
 17 18  2  0
 18 19  1  0
 19 20  1  0
 20 21  1  0
 21 22  1  0
 22 23  1  0
 22 24  1  0
 24 25  1  0
 24 26  1  0
 19 27  1  0
 27 28  1  6
 27 29  1  0
 29 30  1  0
 30 31  1  0
 31 32  1  6
  7  5  1  0
 31 10  1  0
 31 13  1  0
 27 15  1  0
 24 18  1  0
  1 33  1  0
  1 34  1  0
  1 35  1  0
  2 36  1  1
  3 37  1  0
  3 38  1  0
  4 39  1  0
  4 40  1  0
  5 41  1  1
  8 42  1  0
  8 43  1  0
  8 44  1  0
  9 45  1  0
  9 46  1  0
  9 47  1  0
 10 48  1  6
 11 49  1  0
 11 50  1  0
 12 51  1  0
 12 52  1  0
 14 53  1  0
 14 54  1  0
 14 55  1  0
 15 56  1  6
 16 57  1  0
 16 58  1  0
 17 59  1  0
 19 60  1  1
 20 61  1  0
 20 62  1  0
 21 63  1  0
 21 64  1  0
 22 65  1  1
 23 66  1  0
 25 67  1  0
 25 68  1  0
 25 69  1  0
 26 70  1  0
 26 71  1  0
 26 72  1  0
 28 73  1  0
 28 74  1  0
 28 75  1  0
 29 76  1  0
 29 77  1  0
 30 78  1  0
 30 79  1  0
 32 80  1  0
 32 81  1  0
 32 82  1  0
M  END
>  <meeko>  (19) 
{"is_sidechain": [false], "intermolecular_energy": 2.731, "internal_energy": -0.839}

$$$$
