EPH_relaxed_0001_pdb2pqr_Repair_159_r2_0001_out
     RDKit          3D

 82 86  0  0  0  0  0  0  0  0999 V2000
   -1.0000    8.7690   -1.9480 C   0  0  0  0  0  0  0  0  0  0  0  0
   -1.4490    9.1120   -0.5250 C   0  0  2  0  0  0  0  0  0  0  0  0
   -2.9850    9.1700   -0.3990 C   0  0  0  0  0  0  0  0  0  0  0  0
   -3.7120    8.1230   -1.2470 C   0  0  0  0  0  0  0  0  0  0  0  0
   -5.1650    8.0330   -0.8920 C   0  0  2  0  0  0  0  0  0  0  0  0
   -5.6330    6.7060   -0.6170 O   0  0  0  0  0  0  0  0  0  0  0  0
   -6.2000    7.3530   -1.7680 C   0  0  0  0  0  0  0  0  0  0  0  0
   -5.8240    6.7170   -3.0700 C   0  0  0  0  0  0  0  0  0  0  0  0
   -7.6390    7.7300   -1.6010 C   0  0  0  0  0  0  0  0  0  0  0  0
   -0.8410   10.4420   -0.0950 C   0  0  1  0  0  0  0  0  0  0  0  0
    0.0720   10.3060    1.1530 C   0  0  0  0  0  0  0  0  0  0  0  0
    1.2290   11.3220    0.9730 C   0  0  0  0  0  0  0  0  0  0  0  0
    0.7710   12.2330   -0.1900 C   0  0  1  0  0  0  0  0  0  0  0  0
   -0.2010   13.2630    0.4650 C   0  0  0  0  0  0  0  0  0  0  0  0
    1.9050   12.9430   -0.9990 C   0  0  2  0  0  0  0  0  0  0  0  0
    2.7690   13.9250   -0.1880 C   0  0  0  0  0  0  0  0  0  0  0  0
    2.2830   15.3360   -0.1700 C   0  0  0  0  0  0  0  0  0  0  0  0
    1.3650   15.8580   -1.0040 C   0  0  0  0  0  0  0  0  0  0  0  0
    0.7850   15.0280   -2.1560 C   0  0  1  0  0  0  0  0  0  0  0  0
    0.7900   15.8730   -3.4570 C   0  0  0  0  0  0  0  0  0  0  0  0
    0.0800   17.2120   -3.2880 C   0  0  0  0  0  0  0  0  0  0  0  0
    0.7220   18.0330   -2.1730 C   0  0  2  0  0  0  0  0  0  0  0  0
    2.0440   18.4040   -2.5760 O   0  0  0  0  0  0  0  0  0  0  0  0
    0.7810   17.2800   -0.8140 C   0  0  0  0  0  0  0  0  0  0  0  0
   -0.6470   17.1450   -0.2310 C   0  0  0  0  0  0  0  0  0  0  0  0
    1.5770   18.1620    0.1860 C   0  0  0  0  0  0  0  0  0  0  0  0
    1.4230   13.5870   -2.3620 C   0  0  1  0  0  0  0  0  0  0  0  0
    2.6820   13.6880   -3.2760 C   0  0  0  0  0  0  0  0  0  0  0  0
    0.3930   12.6730   -3.1240 C   0  0  0  0  0  0  0  0  0  0  0  0
   -0.6260   11.9040   -2.2610 C   0  0  0  0  0  0  0  0  0  0  0  0
    0.0720   11.1690   -1.1130 C   0  0  2  0  0  0  0  0  0  0  0  0
    1.0410   10.1100   -1.7420 C   0  0  0  0  0  0  0  0  0  0  0  0
   -0.1265    8.1017   -1.9061 H   0  0  0  0  0  0  0  0  0  0  0  0
   -1.8207    8.2657   -2.4801 H   0  0  0  0  0  0  0  0  0  0  0  0
   -0.7302    9.6931   -2.4801 H   0  0  0  0  0  0  0  0  0  0  0  0
   -1.0933    8.3088    0.1371 H   0  0  0  0  0  0  0  0  0  0  0  0
   -3.2532    9.0098    0.6557 H   0  0  0  0  0  0  0  0  0  0  0  0
   -3.3007   10.1574   -0.7670 H   0  0  0  0  0  0  0  0  0  0  0  0
   -3.6208    8.3981   -2.3081 H   0  0  0  0  0  0  0  0  0  0  0  0
   -3.2504    7.1437   -1.0522 H   0  0  0  0  0  0  0  0  0  0  0  0
   -5.1355    9.0267   -0.4211 H   0  0  0  0  0  0  0  0  0  0  0  0
   -5.2729    5.7848   -2.8771 H   0  0  0  0  0  0  0  0  0  0  0  0
   -6.7346    6.4924   -3.6448 H   0  0  0  0  0  0  0  0  0  0  0  0
   -5.1883    7.4065   -3.6448 H   0  0  0  0  0  0  0  0  0  0  0  0
   -7.8796    7.7930   -0.5295 H   0  0  0  0  0  0  0  0  0  0  0  0
   -7.8198    8.7058   -2.0754 H   0  0  0  0  0  0  0  0  0  0  0  0
   -8.2751    6.9682   -2.0754 H   0  0  0  0  0  0  0  0  0  0  0  0
   -1.7618   11.0221    0.0651 H   0  0  0  0  0  0  0  0  0  0  0  0
   -0.4969   10.5374    2.0656 H   0  0  0  0  0  0  0  0  0  0  0  0
    0.4581    9.2806    1.2503 H   0  0  0  0  0  0  0  0  0  0  0  0
    1.3765   11.9093    1.8914 H   0  0  0  0  0  0  0  0  0  0  0  0
    2.1890   10.8279    0.7626 H   0  0  0  0  0  0  0  0  0  0  0  0
   -0.1306   13.1884    1.5602 H   0  0  0  0  0  0  0  0  0  0  0  0
    0.0744   14.2798    0.1483 H   0  0  0  0  0  0  0  0  0  0  0  0
   -1.2320   13.0469    0.1483 H   0  0  0  0  0  0  0  0  0  0  0  0
    2.5691   12.1054   -1.2587 H   0  0  0  0  0  0  0  0  0  0  0  0
    2.8080   13.5656    0.8509 H   0  0  0  0  0  0  0  0  0  0  0  0
    3.7509   13.9474   -0.6833 H   0  0  0  0  0  0  0  0  0  0  0  0
    2.7117   16.0062    0.5896 H   0  0  0  0  0  0  0  0  0  0  0  0
   -0.2501   14.7911   -1.8689 H   0  0  0  0  0  0  0  0  0  0  0  0
    1.8331   16.0617   -3.7508 H   0  0  0  0  0  0  0  0  0  0  0  0
    0.2490   15.3033   -4.2269 H   0  0  0  0  0  0  0  0  0  0  0  0
    0.1431   17.7745   -4.2312 H   0  0  0  0  0  0  0  0  0  0  0  0
   -0.9705   17.0214   -3.0233 H   0  0  0  0  0  0  0  0  0  0  0  0
    0.0925   18.9206   -2.0123 H   0  0  0  0  0  0  0  0  0  0  0  0
    2.6670   17.9950   -1.9510 H   0  0  0  0  0  0  0  0  0  0  0  0
   -0.5964   17.1498    0.8678 H   0  0  0  0  0  0  0  0  0  0  0  0
   -1.2641   17.9888   -0.5733 H   0  0  0  0  0  0  0  0  0  0  0  0
   -1.0950   16.2005   -0.5733 H   0  0  0  0  0  0  0  0  0  0  0  0
    1.3175   17.8745    1.2156 H   0  0  0  0  0  0  0  0  0  0  0  0
    2.6554   18.0164    0.0254 H   0  0  0  0  0  0  0  0  0  0  0  0
    1.3219   19.2199    0.0254 H   0  0  0  0  0  0  0  0  0  0  0  0
    3.5841   13.7604   -2.6508 H   0  0  0  0  0  0  0  0  0  0  0  0
    2.7469   12.7922   -3.9110 H   0  0  0  0  0  0  0  0  0  0  0  0
    2.6033   14.5827   -3.9110 H   0  0  0  0  0  0  0  0  0  0  0  0
   -0.1734   13.3147   -3.8150 H   0  0  0  0  0  0  0  0  0  0  0  0
    1.0022   11.8965   -3.6098 H   0  0  0  0  0  0  0  0  0  0  0  0
   -1.3533   12.6156   -1.8432 H   0  0  0  0  0  0  0  0  0  0  0  0
   -1.1337   11.1623   -2.8951 H   0  0  0  0  0  0  0  0  0  0  0  0
    1.5487    9.5551   -0.9393 H   0  0  0  0  0  0  0  0  0  0  0  0
    0.4646    9.4095   -2.3641 H   0  0  0  0  0  0  0  0  0  0  0  0
    1.7898   10.6221   -2.3641 H   0  0  0  0  0  0  0  0  0  0  0  0
  1  2  1  0
  2  3  1  0
  3  4  1  0
  4  5  1  0
  5  6  1  0
  6  7  1  0
  7  8  1  0
  7  9  1  0
  2 10  1  0
 10 11  1  0
 11 12  1  0
 12 13  1  0
 13 14  1  1
 13 15  1  0
 15 16  1  0
 16 17  1  0
 17 18  2  0
 18 19  1  0
 19 20  1  0
 20 21  1  0
 21 22  1  0
 22 23  1  0
 22 24  1  0
 24 25  1  0
 24 26  1  0
 19 27  1  0
 27 28  1  6
 27 29  1  0
 29 30  1  0
 30 31  1  0
 31 32  1  6
  7  5  1  0
 31 10  1  0
 31 13  1  0
 27 15  1  0
 24 18  1  0
  1 33  1  0
  1 34  1  0
  1 35  1  0
  2 36  1  1
  3 37  1  0
  3 38  1  0
  4 39  1  0
  4 40  1  0
  5 41  1  1
  8 42  1  0
  8 43  1  0
  8 44  1  0
  9 45  1  0
  9 46  1  0
  9 47  1  0
 10 48  1  1
 11 49  1  0
 11 50  1  0
 12 51  1  0
 12 52  1  0
 14 53  1  0
 14 54  1  0
 14 55  1  0
 15 56  1  6
 16 57  1  0
 16 58  1  0
 17 59  1  0
 19 60  1  1
 20 61  1  0
 20 62  1  0
 21 63  1  0
 21 64  1  0
 22 65  1  1
 23 66  1  0
 25 67  1  0
 25 68  1  0
 25 69  1  0
 26 70  1  0
 26 71  1  0
 26 72  1  0
 28 73  1  0
 28 74  1  0
 28 75  1  0
 29 76  1  0
 29 77  1  0
 30 78  1  0
 30 79  1  0
 32 80  1  0
 32 81  1  0
 32 82  1  0
M  END
>  <meeko>  (1) 
{"is_sidechain": [false], "intermolecular_energy": 2.731, "internal_energy": -0.839}

$$$$
EPH_relaxed_0001_pdb2pqr_Repair_159_r2_0001_out
     RDKit          3D

 82 86  0  0  0  0  0  0  0  0999 V2000
    1.9210   17.0270   -0.0910 C   0  0  0  0  0  0  0  0  0  0  0  0
    1.5790   17.0840   -1.5830 C   0  0  2  0  0  0  0  0  0  0  0  0
    0.7390   18.3260   -1.9390 C   0  0  0  0  0  0  0  0  0  0  0  0
    0.8960   19.4810   -0.9460 C   0  0  0  0  0  0  0  0  0  0  0  0
   -0.4240   20.1030   -0.6040 C   0  0  2  0  0  0  0  0  0  0  0  0
   -0.6970   20.1930    0.8000 O   0  0  0  0  0  0  0  0  0  0  0  0
   -1.5660   19.3390    0.0390 C   0  0  0  0  0  0  0  0  0  0  0  0
   -1.4410   17.8870    0.3780 C   0  0  0  0  0  0  0  0  0  0  0  0
   -2.9570   19.8720   -0.1090 C   0  0  0  0  0  0  0  0  0  0  0  0
    0.8380   15.8180   -1.9950 C   0  0  1  0  0  0  0  0  0  0  0  0
    0.2950   15.8890   -3.4470 C   0  0  0  0  0  0  0  0  0  0  0  0
    0.3970   14.4570   -4.0330 C   0  0  0  0  0  0  0  0  0  0  0  0
    0.6780   13.5540   -2.8100 C   0  0  1  0  0  0  0  0  0  0  0  0
   -0.7190   13.3210   -2.1540 C   0  0  0  0  0  0  0  0  0  0  0  0
    1.4120   12.2040   -3.1020 C   0  0  2  0  0  0  0  0  0  0  0  0
    0.6440   11.2280   -4.0110 C   0  0  0  0  0  0  0  0  0  0  0  0
   -0.2490   10.2650   -3.3010 C   0  0  0  0  0  0  0  0  0  0  0  0
   -0.2180    9.9940   -1.9840 C   0  0  0  0  0  0  0  0  0  0  0  0
    0.8540   10.6130   -1.0770 C   0  0  1  0  0  0  0  0  0  0  0  0
    1.4580    9.5150   -0.1630 C   0  0  0  0  0  0  0  0  0  0  0  0
    0.3920    8.7590    0.6250 C   0  0  0  0  0  0  0  0  0  0  0  0
   -0.6220    8.1090   -0.3120 C   0  0  2  0  0  0  0  0  0  0  0  0
    0.0350    7.0800   -1.0590 O   0  0  0  0  0  0  0  0  0  0  0  0
   -1.2890    9.1180   -1.2880 C   0  0  0  0  0  0  0  0  0  0  0  0
   -2.2430   10.0500   -0.5010 C   0  0  0  0  0  0  0  0  0  0  0  0
   -2.1820    8.3130   -2.2700 C   0  0  0  0  0  0  0  0  0  0  0  0
    1.9680   11.4760   -1.8120 C   0  0  1  0  0  0  0  0  0  0  0  0
    3.1300   10.5510   -2.2880 C   0  0  0  0  0  0  0  0  0  0  0  0
    2.5990   12.4860   -0.7810 C   0  0  0  0  0  0  0  0  0  0  0  0
    1.8980   13.8490   -0.6250 C   0  0  0  0  0  0  0  0  0  0  0  0
    1.6380   14.4910   -1.9910 C   0  0  2  0  0  0  0  0  0  0  0  0
    3.0270   14.7580   -2.6650 C   0  0  0  0  0  0  0  0  0  0  0  0
    1.0064   17.1794    0.5009 H   0  0  0  0  0  0  0  0  0  0  0  0
    2.3534   16.0444    0.1488 H   0  0  0  0  0  0  0  0  0  0  0  0
    2.6487   17.8162    0.1488 H   0  0  0  0  0  0  0  0  0  0  0  0
    2.5264   17.1569   -2.1371 H   0  0  0  0  0  0  0  0  0  0  0  0
    1.0465   18.6795   -2.9342 H   0  0  0  0  0  0  0  0  0  0  0  0
   -0.3168   18.0188   -1.9102 H   0  0  0  0  0  0  0  0  0  0  0  0
    1.3588   19.0981   -0.0245 H   0  0  0  0  0  0  0  0  0  0  0  0
    1.5265   20.2514   -1.4139 H   0  0  0  0  0  0  0  0  0  0  0  0
   -0.3767   20.7499   -1.4924 H   0  0  0  0  0  0  0  0  0  0  0  0
   -1.4305   17.7653    1.4712 H   0  0  0  0  0  0  0  0  0  0  0  0
   -2.2951   17.3371   -0.0440 H   0  0  0  0  0  0  0  0  0  0  0  0
   -0.5055   17.4912   -0.0440 H   0  0  0  0  0  0  0  0  0  0  0  0
   -3.3935   20.0392    0.8868 H   0  0  0  0  0  0  0  0  0  0  0  0
   -2.9285   20.8229   -0.6613 H   0  0  0  0  0  0  0  0  0  0  0  0
   -3.5712   19.1455   -0.6613 H   0  0  0  0  0  0  0  0  0  0  0  0
    0.0663   15.7941   -1.2115 H   0  0  0  0  0  0  0  0  0  0  0  0
   -0.7530   16.2232   -3.4436 H   0  0  0  0  0  0  0  0  0  0  0  0
    0.8727   16.6048   -4.0503 H   0  0  0  0  0  0  0  0  0  0  0  0
   -0.5462   14.1687   -4.5200 H   0  0  0  0  0  0  0  0  0  0  0  0
    1.1807   14.3753   -4.8006 H   0  0  0  0  0  0  0  0  0  0  0  0
   -0.6172   13.3380   -1.0588 H   0  0  0  0  0  0  0  0  0  0  0  0
   -1.4099   14.1163   -2.4704 H   0  0  0  0  0  0  0  0  0  0  0  0
   -1.1144   12.3445   -2.4704 H   0  0  0  0  0  0  0  0  0  0  0  0
    2.2857   12.5314   -3.6847 H   0  0  0  0  0  0  0  0  0  0  0  0
    0.0250   11.8209   -4.7004 H   0  0  0  0  0  0  0  0  0  0  0  0
    1.4071   10.6190   -4.5177 H   0  0  0  0  0  0  0  0  0  0  0  0
   -0.9962    9.7315   -3.9068 H   0  0  0  0  0  0  0  0  0  0  0  0
    0.3359   11.3645   -0.4631 H   0  0  0  0  0  0  0  0  0  0  0  0
    2.0084    8.7978   -0.7897 H   0  0  0  0  0  0  0  0  0  0  0  0
    2.1207   10.0107    0.5617 H   0  0  0  0  0  0  0  0  0  0  0  0
    0.8771    7.9774    1.2282 H   0  0  0  0  0  0  0  0  0  0  0  0
   -0.1371    9.4730    1.2733 H   0  0  0  0  0  0  0  0  0  0  0  0
   -1.4288    7.6951    0.3107 H   0  0  0  0  0  0  0  0  0  0  0  0
    0.6770    6.6510   -0.4670 H   0  0  0  0  0  0  0  0  0  0  0  0
   -2.0919    9.9024    0.5785 H   0  0  0  0  0  0  0  0  0  0  0  0
   -2.0298   11.0973   -0.7612 H   0  0  0  0  0  0  0  0  0  0  0  0
   -3.2850    9.8124   -0.7612 H   0  0  0  0  0  0  0  0  0  0  0  0
   -2.8802    7.6836   -1.6987 H   0  0  0  0  0  0  0  0  0  0  0  0
   -2.7506    9.0096   -2.9036 H   0  0  0  0  0  0  0  0  0  0  0  0
   -1.5479    7.6754   -2.9036 H   0  0  0  0  0  0  0  0  0  0  0  0
    3.6508   10.1364   -1.4123 H   0  0  0  0  0  0  0  0  0  0  0  0
    2.7200    9.7294   -2.8937 H   0  0  0  0  0  0  0  0  0  0  0  0
    3.8387   11.1348   -2.8937 H   0  0  0  0  0  0  0  0  0  0  0  0
    2.6002   11.9978    0.2047 H   0  0  0  0  0  0  0  0  0  0  0  0
    3.5966   12.7198   -1.1813 H   0  0  0  0  0  0  0  0  0  0  0  0
    0.9384   13.7030   -0.1075 H   0  0  0  0  0  0  0  0  0  0  0  0
    2.5518   14.5152   -0.0430 H   0  0  0  0  0  0  0  0  0  0  0  0
    3.7902   14.9047   -1.8865 H   0  0  0  0  0  0  0  0  0  0  0  0
    3.3025   13.8964   -3.2908 H   0  0  0  0  0  0  0  0  0  0  0  0
    2.9635   15.6604   -3.2908 H   0  0  0  0  0  0  0  0  0  0  0  0
  1  2  1  0
  2  3  1  0
  3  4  1  0
  4  5  1  0
  5  6  1  0
  6  7  1  0
  7  8  1  0
  7  9  1  0
  2 10  1  0
 10 11  1  0
 11 12  1  0
 12 13  1  0
 13 14  1  1
 13 15  1  0
 15 16  1  0
 16 17  1  0
 17 18  2  0
 18 19  1  0
 19 20  1  0
 20 21  1  0
 21 22  1  0
 22 23  1  0
 22 24  1  0
 24 25  1  0
 24 26  1  0
 19 27  1  0
 27 28  1  6
 27 29  1  0
 29 30  1  0
 30 31  1  0
 31 32  1  6
  7  5  1  0
 31 10  1  0
 31 13  1  0
 27 15  1  0
 24 18  1  0
  1 33  1  0
  1 34  1  0
  1 35  1  0
  2 36  1  6
  3 37  1  0
  3 38  1  0
  4 39  1  0
  4 40  1  0
  5 41  1  6
  8 42  1  0
  8 43  1  0
  8 44  1  0
  9 45  1  0
  9 46  1  0
  9 47  1  0
 10 48  1  1
 11 49  1  0
 11 50  1  0
 12 51  1  0
 12 52  1  0
 14 53  1  0
 14 54  1  0
 14 55  1  0
 15 56  1  6
 16 57  1  0
 16 58  1  0
 17 59  1  0
 19 60  1  1
 20 61  1  0
 20 62  1  0
 21 63  1  0
 21 64  1  0
 22 65  1  1
 23 66  1  0
 25 67  1  0
 25 68  1  0
 25 69  1  0
 26 70  1  0
 26 71  1  0
 26 72  1  0
 28 73  1  0
 28 74  1  0
 28 75  1  0
 29 76  1  0
 29 77  1  0
 30 78  1  0
 30 79  1  0
 32 80  1  0
 32 81  1  0
 32 82  1  0
M  END
>  <meeko>  (2) 
{"is_sidechain": [false], "intermolecular_energy": 2.731, "internal_energy": -0.839}

$$$$
EPH_relaxed_0001_pdb2pqr_Repair_159_r2_0001_out
     RDKit          3D

 82 86  0  0  0  0  0  0  0  0999 V2000
   -3.5310    7.3400   -3.1530 C   0  0  0  0  0  0  0  0  0  0  0  0
   -3.5250    7.5370   -1.6340 C   0  0  2  0  0  0  0  0  0  0  0  0
   -4.9400    7.4350   -1.0300 C   0  0  0  0  0  0  0  0  0  0  0  0
   -6.0210    7.0730   -2.0520 C   0  0  0  0  0  0  0  0  0  0  0  0
   -7.3970    7.3330   -1.5180 C   0  0  2  0  0  0  0  0  0  0  0  0
   -8.0980    6.1630   -1.0740 O   0  0  0  0  0  0  0  0  0  0  0  0
   -8.6640    6.8520   -2.2010 C   0  0  0  0  0  0  0  0  0  0  0  0
   -8.6140    6.0730   -3.4780 C   0  0  0  0  0  0  0  0  0  0  0  0
   -9.9510    7.5520   -1.8950 C   0  0  0  0  0  0  0  0  0  0  0  0
   -2.9060    8.8860   -1.2870 C   0  0  1  0  0  0  0  0  0  0  0  0
   -3.3990    9.4360    0.0780 C   0  0  0  0  0  0  0  0  0  0  0  0
   -2.2040   10.1900    0.7140 C   0  0  0  0  0  0  0  0  0  0  0  0
   -1.1780   10.3360   -0.4350 C   0  0  1  0  0  0  0  0  0  0  0  0
   -1.6750   11.5630   -1.2630 C   0  0  0  0  0  0  0  0  0  0  0  0
    0.3180   10.4940   -0.0100 C   0  0  2  0  0  0  0  0  0  0  0  0
    0.6320   11.7520    0.8180 C   0  0  0  0  0  0  0  0  0  0  0  0
    1.0230   12.9550    0.0250 C   0  0  0  0  0  0  0  0  0  0  0  0
    1.3940   12.9530   -1.2690 C   0  0  0  0  0  0  0  0  0  0  0  0
    1.5420   11.6370   -2.0430 C   0  0  1  0  0  0  0  0  0  0  0  0
    2.8740   11.6500   -2.8370 C   0  0  0  0  0  0  0  0  0  0  0  0
    3.0070   12.8750   -3.7380 C   0  0  0  0  0  0  0  0  0  0  0  0
    2.9120   14.1630   -2.9240 C   0  0  2  0  0  0  0  0  0  0  0  0
    4.0560   14.2520   -2.0670 O   0  0  0  0  0  0  0  0  0  0  0  0
    1.6140   14.2570   -2.0740 C   0  0  0  0  0  0  0  0  0  0  0  0
    0.3960   14.4650   -3.0070 C   0  0  0  0  0  0  0  0  0  0  0  0
    1.7110   15.5340   -1.1950 C   0  0  0  0  0  0  0  0  0  0  0  0
    1.3510   10.3070   -1.1930 C   0  0  1  0  0  0  0  0  0  0  0  0
    2.7060    9.8940   -0.5410 C   0  0  0  0  0  0  0  0  0  0  0  0
    0.9480    9.1320   -2.1610 C   0  0  0  0  0  0  0  0  0  0  0  0
   -0.5560    8.9540   -2.4470 C   0  0  0  0  0  0  0  0  0  0  0  0
   -1.3650    8.9470   -1.1470 C   0  0  2  0  0  0  0  0  0  0  0  0
   -0.9030    7.7100   -0.3030 C   0  0  0  0  0  0  0  0  0  0  0  0
   -3.5637    6.2648   -3.3832 H   0  0  0  0  0  0  0  0  0  0  0  0
   -4.4145    7.8342   -3.5833 H   0  0  0  0  0  0  0  0  0  0  0  0
   -2.6191    7.7795   -3.5833 H   0  0  0  0  0  0  0  0  0  0  0  0
   -2.9208    6.7280   -1.1976 H   0  0  0  0  0  0  0  0  0  0  0  0
   -4.9287    6.6617   -0.2478 H   0  0  0  0  0  0  0  0  0  0  0  0
   -5.1927    8.4295   -0.6335 H   0  0  0  0  0  0  0  0  0  0  0  0
   -5.8706    7.6767   -2.9592 H   0  0  0  0  0  0  0  0  0  0  0  0
   -5.9366    5.9992   -2.2750 H   0  0  0  0  0  0  0  0  0  0  0  0
   -7.0905    8.3204   -1.1424 H   0  0  0  0  0  0  0  0  0  0  0  0
   -8.5451    4.9991   -3.2499 H   0  0  0  0  0  0  0  0  0  0  0  0
   -9.5264    6.2662   -4.0613 H   0  0  0  0  0  0  0  0  0  0  0  0
   -7.7338    6.3812   -4.0613 H   0  0  0  0  0  0  0  0  0  0  0  0
  -10.0800    7.6222   -0.8049 H   0  0  0  0  0  0  0  0  0  0  0  0
   -9.9303    8.5631   -2.3276 H   0  0  0  0  0  0  0  0  0  0  0  0
  -10.7886    6.9852   -2.3276 H   0  0  0  0  0  0  0  0  0  0  0  0
   -3.2268    9.4667   -2.1644 H   0  0  0  0  0  0  0  0  0  0  0  0
   -4.2437   10.1241   -0.0736 H   0  0  0  0  0  0  0  0  0  0  0  0
   -3.7443    8.6208    0.7309 H   0  0  0  0  0  0  0  0  0  0  0  0
   -2.5192   11.1779    1.0809 H   0  0  0  0  0  0  0  0  0  0  0  0
   -1.7869    9.6553    1.5801 H   0  0  0  0  0  0  0  0  0  0  0  0
   -1.9982   12.3608   -0.5782 H   0  0  0  0  0  0  0  0  0  0  0  0
   -0.8560   11.9335   -1.8971 H   0  0  0  0  0  0  0  0  0  0  0  0
   -2.5209   11.2591   -1.8971 H   0  0  0  0  0  0  0  0  0  0  0  0
    0.4597    9.6442    0.6739 H   0  0  0  0  0  0  0  0  0  0  0  0
   -0.2642   12.0067    1.4028 H   0  0  0  0  0  0  0  0  0  0  0  0
    1.5047   11.4988    1.4380 H   0  0  0  0  0  0  0  0  0  0  0  0
    1.0065   13.9257    0.5422 H   0  0  0  0  0  0  0  0  0  0  0  0
    0.6923   11.5976   -2.7404 H   0  0  0  0  0  0  0  0  0  0  0  0
    3.7104   11.6454   -2.1225 H   0  0  0  0  0  0  0  0  0  0  0  0
    2.8870   10.7587   -3.4816 H   0  0  0  0  0  0  0  0  0  0  0  0
    3.9809   12.8426   -4.2484 H   0  0  0  0  0  0  0  0  0  0  0  0
    2.1878   12.8620   -4.4720 H   0  0  0  0  0  0  0  0  0  0  0  0
    2.8818   15.0013   -3.6355 H   0  0  0  0  0  0  0  0  0  0  0  0
    3.9490   15.0450   -1.5150 H   0  0  0  0  0  0  0  0  0  0  0  0
   -0.5085   14.6195   -2.4003 H   0  0  0  0  0  0  0  0  0  0  0  0
    0.5668   15.3470   -3.6418 H   0  0  0  0  0  0  0  0  0  0  0  0
    0.2644   13.5763   -3.6418 H   0  0  0  0  0  0  0  0  0  0  0  0
    1.6894   15.2502   -0.1324 H   0  0  0  0  0  0  0  0  0  0  0  0
    2.6517   16.0600   -1.4150 H   0  0  0  0  0  0  0  0  0  0  0  0
    0.8606   16.1961   -1.4150 H   0  0  0  0  0  0  0  0  0  0  0  0
    2.6098    9.9233    0.5544 H   0  0  0  0  0  0  0  0  0  0  0  0
    2.9701    8.8746   -0.8587 H   0  0  0  0  0  0  0  0  0  0  0  0
    3.4939   10.5928   -0.8587 H   0  0  0  0  0  0  0  0  0  0  0  0
    1.4518    9.3056   -3.1233 H   0  0  0  0  0  0  0  0  0  0  0  0
    1.2536    8.2121   -1.6410 H   0  0  0  0  0  0  0  0  0  0  0  0
   -0.9021    9.7832   -3.0815 H   0  0  0  0  0  0  0  0  0  0  0  0
   -0.7040    7.9906   -2.9569 H   0  0  0  0  0  0  0  0  0  0  0  0
   -0.9903    7.9438    0.7683 H   0  0  0  0  0  0  0  0  0  0  0  0
   -1.5386    6.8447   -0.5424 H   0  0  0  0  0  0  0  0  0  0  0  0
    0.1442    7.4732   -0.5424 H   0  0  0  0  0  0  0  0  0  0  0  0
  1  2  1  0
  2  3  1  0
  3  4  1  0
  4  5  1  0
  5  6  1  0
  6  7  1  0
  7  8  1  0
  7  9  1  0
  2 10  1  0
 10 11  1  0
 11 12  1  0
 12 13  1  0
 13 14  1  6
 13 15  1  0
 15 16  1  0
 16 17  1  0
 17 18  2  0
 18 19  1  0
 19 20  1  0
 20 21  1  0
 21 22  1  0
 22 23  1  0
 22 24  1  0
 24 25  1  0
 24 26  1  0
 19 27  1  0
 27 28  1  1
 27 29  1  0
 29 30  1  0
 30 31  1  0
 31 32  1  1
  7  5  1  0
 31 10  1  0
 31 13  1  0
 27 15  1  0
 24 18  1  0
  1 33  1  0
  1 34  1  0
  1 35  1  0
  2 36  1  1
  3 37  1  0
  3 38  1  0
  4 39  1  0
  4 40  1  0
  5 41  1  1
  8 42  1  0
  8 43  1  0
  8 44  1  0
  9 45  1  0
  9 46  1  0
  9 47  1  0
 10 48  1  6
 11 49  1  0
 11 50  1  0
 12 51  1  0
 12 52  1  0
 14 53  1  0
 14 54  1  0
 14 55  1  0
 15 56  1  1
 16 57  1  0
 16 58  1  0
 17 59  1  0
 19 60  1  6
 20 61  1  0
 20 62  1  0
 21 63  1  0
 21 64  1  0
 22 65  1  6
 23 66  1  0
 25 67  1  0
 25 68  1  0
 25 69  1  0
 26 70  1  0
 26 71  1  0
 26 72  1  0
 28 73  1  0
 28 74  1  0
 28 75  1  0
 29 76  1  0
 29 77  1  0
 30 78  1  0
 30 79  1  0
 32 80  1  0
 32 81  1  0
 32 82  1  0
M  END
>  <meeko>  (3) 
{"is_sidechain": [false], "intermolecular_energy": 2.731, "internal_energy": -0.839}

$$$$
EPH_relaxed_0001_pdb2pqr_Repair_159_r2_0001_out
     RDKit          3D

 82 86  0  0  0  0  0  0  0  0999 V2000
   -5.1150    5.9250   -1.8360 C   0  0  0  0  0  0  0  0  0  0  0  0
   -5.4560    7.4180   -1.8370 C   0  0  2  0  0  0  0  0  0  0  0  0
   -5.2410    8.0630   -0.4530 C   0  0  0  0  0  0  0  0  0  0  0  0
   -4.1750    9.1620   -0.4440 C   0  0  0  0  0  0  0  0  0  0  0  0
   -2.8230    8.6250   -0.8020 C   0  0  2  0  0  0  0  0  0  0  0  0
   -1.7920    8.9140    0.1520 O   0  0  0  0  0  0  0  0  0  0  0  0
   -1.6370    9.5070   -1.1480 C   0  0  0  0  0  0  0  0  0  0  0  0
   -1.7500   10.9990   -1.1530 C   0  0  0  0  0  0  0  0  0  0  0  0
   -0.5170    8.9190   -1.9480 C   0  0  0  0  0  0  0  0  0  0  0  0
   -6.8970    7.6220   -2.2890 C   0  0  1  0  0  0  0  0  0  0  0  0
   -7.2080    6.9110   -3.6330 C   0  0  0  0  0  0  0  0  0  0  0  0
   -8.6760    6.4200   -3.5490 C   0  0  0  0  0  0  0  0  0  0  0  0
   -9.2600    7.1460   -2.3150 C   0  0  1  0  0  0  0  0  0  0  0  0
   -9.6340    8.5720   -2.8270 C   0  0  0  0  0  0  0  0  0  0  0  0
  -10.4720    6.4490   -1.6130 C   0  0  2  0  0  0  0  0  0  0  0  0
  -11.7320    6.3000   -2.4830 C   0  0  0  0  0  0  0  0  0  0  0  0
  -12.6990    7.4340   -2.4030 C   0  0  0  0  0  0  0  0  0  0  0  0
  -12.7060    8.3920   -1.4570 C   0  0  0  0  0  0  0  0  0  0  0  0
  -11.7300    8.3380   -0.2750 C   0  0  1  0  0  0  0  0  0  0  0  0
  -12.4970    8.6200    1.0430 C   0  0  0  0  0  0  0  0  0  0  0  0
  -13.2830    9.9260    0.9950 C   0  0  0  0  0  0  0  0  0  0  0  0
  -14.2840    9.9180   -0.1580 C   0  0  2  0  0  0  0  0  0  0  0  0
  -15.2870    8.9330    0.1090 O   0  0  0  0  0  0  0  0  0  0  0  0
  -13.6270    9.6340   -1.5380 C   0  0  0  0  0  0  0  0  0  0  0  0
  -12.7670   10.8500   -1.9650 C   0  0  0  0  0  0  0  0  0  0  0  0
  -14.7610    9.5130   -2.5910 C   0  0  0  0  0  0  0  0  0  0  0  0
  -10.8200    7.0380   -0.1860 C   0  0  1  0  0  0  0  0  0  0  0  0
  -11.5740    5.9130    0.5870 C   0  0  0  0  0  0  0  0  0  0  0  0
   -9.5310    7.3690    0.6560 C   0  0  0  0  0  0  0  0  0  0  0  0
   -8.3270    7.9430   -0.1140 C   0  0  0  0  0  0  0  0  0  0  0  0
   -8.0160    7.0990   -1.3550 C   0  0  2  0  0  0  0  0  0  0  0  0
   -7.6160    5.6650   -0.8690 C   0  0  0  0  0  0  0  0  0  0  0  0
   -5.0335    5.5682   -0.7987 H   0  0  0  0  0  0  0  0  0  0  0  0
   -5.9089    5.3672   -2.3543 H   0  0  0  0  0  0  0  0  0  0  0  0
   -4.1577    5.7672   -2.3543 H   0  0  0  0  0  0  0  0  0  0  0  0
   -4.7722    7.9134   -2.5420 H   0  0  0  0  0  0  0  0  0  0  0  0
   -6.1942    8.5013   -0.1225 H   0  0  0  0  0  0  0  0  0  0  0  0
   -4.8882    7.2680    0.2204 H   0  0  0  0  0  0  0  0  0  0  0  0
   -4.4554    9.9367   -1.1729 H   0  0  0  0  0  0  0  0  0  0  0  0
   -4.1205    9.5787    0.5726 H   0  0  0  0  0  0  0  0  0  0  0  0
   -3.2750    7.7623   -1.3133 H   0  0  0  0  0  0  0  0  0  0  0  0
   -1.7780   11.3681   -0.1171 H   0  0  0  0  0  0  0  0  0  0  0  0
   -0.8820   11.4307   -1.6728 H   0  0  0  0  0  0  0  0  0  0  0  0
   -2.6731   11.2951   -1.6728 H   0  0  0  0  0  0  0  0  0  0  0  0
    0.2482    8.5173   -1.2675 H   0  0  0  0  0  0  0  0  0  0  0  0
   -0.9055    8.1086   -2.5822 H   0  0  0  0  0  0  0  0  0  0  0  0
   -0.0705    9.6990   -2.5822 H   0  0  0  0  0  0  0  0  0  0  0  0
   -6.9237    8.7210   -2.3289 H   0  0  0  0  0  0  0  0  0  0  0  0
   -7.0912    7.6151   -4.4701 H   0  0  0  0  0  0  0  0  0  0  0  0
   -6.5193    6.0706   -3.8042 H   0  0  0  0  0  0  0  0  0  0  0  0
   -9.2298    6.6941   -4.4590 H   0  0  0  0  0  0  0  0  0  0  0  0
   -8.7455    5.3257   -3.4609 H   0  0  0  0  0  0  0  0  0  0  0  0
   -9.8082    9.2362   -1.9676 H   0  0  0  0  0  0  0  0  0  0  0  0
   -8.8100    8.9703   -3.4371 H   0  0  0  0  0  0  0  0  0  0  0  0
  -10.5475    8.5146   -3.4371 H   0  0  0  0  0  0  0  0  0  0  0  0
  -10.0974    5.4271   -1.4535 H   0  0  0  0  0  0  0  0  0  0  0  0
  -11.4119    6.1994   -3.5306 H   0  0  0  0  0  0  0  0  0  0  0  0
  -12.2648    5.4177   -2.0988 H   0  0  0  0  0  0  0  0  0  0  0  0
  -13.4719    7.4921   -3.1835 H   0  0  0  0  0  0  0  0  0  0  0  0
  -10.9912    9.1331   -0.4540 H   0  0  0  0  0  0  0  0  0  0  0  0
  -13.1986    7.7929    1.2264 H   0  0  0  0  0  0  0  0  0  0  0  0
  -11.7539    8.7073    1.8493 H   0  0  0  0  0  0  0  0  0  0  0  0
  -13.8265   10.0542    1.9427 H   0  0  0  0  0  0  0  0  0  0  0  0
  -12.5770   10.7554    0.8414 H   0  0  0  0  0  0  0  0  0  0  0  0
  -14.7227   10.9248   -0.2208 H   0  0  0  0  0  0  0  0  0  0  0  0
  -15.0000    8.4240    0.8850 H   0  0  0  0  0  0  0  0  0  0  0  0
  -12.3984   11.3711   -1.0691 H   0  0  0  0  0  0  0  0  0  0  0  0
  -11.9127   10.5025   -2.5645 H   0  0  0  0  0  0  0  0  0  0  0  0
  -13.3793   11.5397   -2.5645 H   0  0  0  0  0  0  0  0  0  0  0  0
  -15.7284    9.4098   -2.0778 H   0  0  0  0  0  0  0  0  0  0  0  0
  -14.7744   10.4148   -3.2207 H   0  0  0  0  0  0  0  0  0  0  0  0
  -14.5838    8.6287   -3.2207 H   0  0  0  0  0  0  0  0  0  0  0  0
  -11.4651    6.0755    1.6695 H   0  0  0  0  0  0  0  0  0  0  0  0
  -12.6405    5.9350    0.3184 H   0  0  0  0  0  0  0  0  0  0  0  0
  -11.1483    4.9349    0.3184 H   0  0  0  0  0  0  0  0  0  0  0  0
   -9.8150    8.1029    1.4246 H   0  0  0  0  0  0  0  0  0  0  0  0
   -9.1868    6.4006    1.0480 H   0  0  0  0  0  0  0  0  0  0  0  0
   -8.5577    8.9719   -0.4272 H   0  0  0  0  0  0  0  0  0  0  0  0
   -7.4487    7.9296    0.5482 H   0  0  0  0  0  0  0  0  0  0  0  0
   -7.6088    5.6393    0.2307 H   0  0  0  0  0  0  0  0  0  0  0  0
   -8.3442    4.9329   -1.2482 H   0  0  0  0  0  0  0  0  0  0  0  0
   -6.6140    5.4156   -1.2482 H   0  0  0  0  0  0  0  0  0  0  0  0
  1  2  1  0
  2  3  1  0
  3  4  1  0
  4  5  1  0
  5  6  1  0
  6  7  1  0
  7  8  1  0
  7  9  1  0
  2 10  1  0
 10 11  1  0
 11 12  1  0
 12 13  1  0
 13 14  1  6
 13 15  1  0
 15 16  1  0
 16 17  1  0
 17 18  2  0
 18 19  1  0
 19 20  1  0
 20 21  1  0
 21 22  1  0
 22 23  1  0
 22 24  1  0
 24 25  1  0
 24 26  1  0
 19 27  1  0
 27 28  1  1
 27 29  1  0
 29 30  1  0
 30 31  1  0
 31 32  1  1
  7  5  1  0
 31 10  1  0
 31 13  1  0
 27 15  1  0
 24 18  1  0
  1 33  1  0
  1 34  1  0
  1 35  1  0
  2 36  1  6
  3 37  1  0
  3 38  1  0
  4 39  1  0
  4 40  1  0
  5 41  1  6
  8 42  1  0
  8 43  1  0
  8 44  1  0
  9 45  1  0
  9 46  1  0
  9 47  1  0
 10 48  1  6
 11 49  1  0
 11 50  1  0
 12 51  1  0
 12 52  1  0
 14 53  1  0
 14 54  1  0
 14 55  1  0
 15 56  1  1
 16 57  1  0
 16 58  1  0
 17 59  1  0
 19 60  1  6
 20 61  1  0
 20 62  1  0
 21 63  1  0
 21 64  1  0
 22 65  1  6
 23 66  1  0
 25 67  1  0
 25 68  1  0
 25 69  1  0
 26 70  1  0
 26 71  1  0
 26 72  1  0
 28 73  1  0
 28 74  1  0
 28 75  1  0
 29 76  1  0
 29 77  1  0
 30 78  1  0
 30 79  1  0
 32 80  1  0
 32 81  1  0
 32 82  1  0
M  END
>  <meeko>  (4) 
{"is_sidechain": [false], "intermolecular_energy": 2.731, "internal_energy": -0.839}

$$$$
EPH_relaxed_0001_pdb2pqr_Repair_159_r2_0001_out
     RDKit          3D

 82 86  0  0  0  0  0  0  0  0999 V2000
   -0.2540   18.4410   -3.1460 C   0  0  0  0  0  0  0  0  0  0  0  0
    0.3240   17.7370   -1.9150 C   0  0  2  0  0  0  0  0  0  0  0  0
    1.5800   18.4490   -1.3750 C   0  0  0  0  0  0  0  0  0  0  0  0
    1.3610   19.1500   -0.0320 C   0  0  0  0  0  0  0  0  0  0  0  0
    0.1110   19.9770   -0.0360 C   0  0  2  0  0  0  0  0  0  0  0  0
   -0.4690   20.1920    1.2570 O   0  0  0  0  0  0  0  0  0  0  0  0
   -1.2560   19.4290    0.3290 C   0  0  0  0  0  0  0  0  0  0  0  0
   -1.4440   17.9980    0.7230 C   0  0  0  0  0  0  0  0  0  0  0  0
   -2.4710   20.1500   -0.1660 C   0  0  0  0  0  0  0  0  0  0  0  0
    0.6510   16.2870   -2.2530 C   0  0  1  0  0  0  0  0  0  0  0  0
    1.9830   16.1410   -3.0360 C   0  0  0  0  0  0  0  0  0  0  0  0
    2.6350   14.8150   -2.5670 C   0  0  0  0  0  0  0  0  0  0  0  0
    1.5160   14.0840   -1.7890 C   0  0  1  0  0  0  0  0  0  0  0  0
    0.6380   13.4100   -2.8890 C   0  0  0  0  0  0  0  0  0  0  0  0
    1.9840   13.0520   -0.7110 C   0  0  2  0  0  0  0  0  0  0  0  0
    2.7840   11.8570   -1.2570 C   0  0  0  0  0  0  0  0  0  0  0  0
    1.9700   10.6650   -1.6380 C   0  0  0  0  0  0  0  0  0  0  0  0
    0.6890   10.4480   -1.2850 C   0  0  0  0  0  0  0  0  0  0  0  0
   -0.0410   11.4090   -0.3400 C   0  0  1  0  0  0  0  0  0  0  0  0
   -0.7920   10.5960    0.7470 C   0  0  0  0  0  0  0  0  0  0  0  0
   -1.7230    9.5440    0.1520 C   0  0  0  0  0  0  0  0  0  0  0  0
   -0.9500    8.5720   -0.7360 C   0  0  2  0  0  0  0  0  0  0  0  0
   -0.0610    7.8070    0.0840 O   0  0  0  0  0  0  0  0  0  0  0  0
   -0.1450    9.2780   -1.8630 C   0  0  0  0  0  0  0  0  0  0  0  0
   -1.1220    9.8530   -2.9180 C   0  0  0  0  0  0  0  0  0  0  0  0
    0.6990    8.2000   -2.5940 C   0  0  0  0  0  0  0  0  0  0  0  0
    0.8400   12.5810    0.2750 C   0  0  1  0  0  0  0  0  0  0  0  0
    1.5470   12.0890    1.5750 C   0  0  0  0  0  0  0  0  0  0  0  0
   -0.1050   13.7640    0.7040 C   0  0  0  0  0  0  0  0  0  0  0  0
   -0.4350   14.8160   -0.3720 C   0  0  0  0  0  0  0  0  0  0  0  0
    0.8390   15.3060   -1.0680 C   0  0  2  0  0  0  0  0  0  0  0  0
    1.7330   16.0090    0.0100 C   0  0  0  0  0  0  0  0  0  0  0  0
   -0.9214   19.2539   -2.8239 H   0  0  0  0  0  0  0  0  0  0  0  0
    0.5663   18.8573   -3.7492 H   0  0  0  0  0  0  0  0  0  0  0  0
   -0.8220   17.7175   -3.7492 H   0  0  0  0  0  0  0  0  0  0  0  0
   -0.4396   17.7717   -1.1240 H   0  0  0  0  0  0  0  0  0  0  0  0
    2.3766   17.7008   -1.2502 H   0  0  0  0  0  0  0  0  0  0  0  0
    1.8462   19.2282   -2.1044 H   0  0  0  0  0  0  0  0  0  0  0  0
    1.2827   18.3893    0.7587 H   0  0  0  0  0  0  0  0  0  0  0  0
    2.2148   19.8197    0.1487 H   0  0  0  0  0  0  0  0  0  0  0  0
    0.4676   20.5539   -0.9020 H   0  0  0  0  0  0  0  0  0  0  0  0
   -1.4545   17.9181    1.8200 H   0  0  0  0  0  0  0  0  0  0  0  0
   -2.3984   17.6289    0.3193 H   0  0  0  0  0  0  0  0  0  0  0  0
   -0.6174   17.3949    0.3193 H   0  0  0  0  0  0  0  0  0  0  0  0
   -3.0635   20.5016    0.6915 H   0  0  0  0  0  0  0  0  0  0  0  0
   -2.1628   21.0115   -0.7766 H   0  0  0  0  0  0  0  0  0  0  0  0
   -3.0795   19.4667   -0.7766 H   0  0  0  0  0  0  0  0  0  0  0  0
   -0.2524   16.0223   -2.8220 H   0  0  0  0  0  0  0  0  0  0  0  0
    1.7845   16.1037   -4.1173 H   0  0  0  0  0  0  0  0  0  0  0  0
    2.6480   16.9965   -2.8467 H   0  0  0  0  0  0  0  0  0  0  0  0
    2.9625   14.2167   -3.4300 H   0  0  0  0  0  0  0  0  0  0  0  0
    3.5294   14.9853   -1.9498 H   0  0  0  0  0  0  0  0  0  0  0  0
   -0.1482   12.8065   -2.4118 H   0  0  0  0  0  0  0  0  0  0  0  0
    0.1747   14.1866   -3.5153 H   0  0  0  0  0  0  0  0  0  0  0  0
    1.2685   12.7618   -3.5153 H   0  0  0  0  0  0  0  0  0  0  0  0
    2.6964   13.6402   -0.1140 H   0  0  0  0  0  0  0  0  0  0  0  0
    3.3316   12.1939   -2.1495 H   0  0  0  0  0  0  0  0  0  0  0  0
    3.4386   11.5286   -0.4362 H   0  0  0  0  0  0  0  0  0  0  0  0
    2.4579    9.8996   -2.2594 H   0  0  0  0  0  0  0  0  0  0  0  0
   -0.7636   11.9565   -0.9630 H   0  0  0  0  0  0  0  0  0  0  0  0
   -0.0512   10.0912    1.3845 H   0  0  0  0  0  0  0  0  0  0  0  0
   -1.4095   11.3004    1.3237 H   0  0  0  0  0  0  0  0  0  0  0  0
   -2.2014    8.9833    0.9685 H   0  0  0  0  0  0  0  0  0  0  0  0
   -2.4818   10.0525   -0.4609 H   0  0  0  0  0  0  0  0  0  0  0  0
   -1.6860    7.9250   -1.2358 H   0  0  0  0  0  0  0  0  0  0  0  0
   -0.5010    7.6600    0.9380 H   0  0  0  0  0  0  0  0  0  0  0  0
   -1.9622   10.3475   -2.4086 H   0  0  0  0  0  0  0  0  0  0  0  0
   -0.5933   10.5840   -3.5474 H   0  0  0  0  0  0  0  0  0  0  0  0
   -1.5044    9.0359   -3.5474 H   0  0  0  0  0  0  0  0  0  0  0  0
    1.1995    7.5607   -1.8518 H   0  0  0  0  0  0  0  0  0  0  0  0
    0.0407    7.5839   -3.2241 H   0  0  0  0  0  0  0  0  0  0  0  0
    1.4550    8.6913   -3.2241 H   0  0  0  0  0  0  0  0  0  0  0  0
    1.0036   12.4671    2.4535 H   0  0  0  0  0  0  0  0  0  0  0  0
    1.5550   10.9892    1.5943 H   0  0  0  0  0  0  0  0  0  0  0  0
    2.5811   12.4636    1.5943 H   0  0  0  0  0  0  0  0  0  0  0  0
   -1.0551   13.3248    1.0422 H   0  0  0  0  0  0  0  0  0  0  0  0
    0.4525   14.3106    1.4789 H   0  0  0  0  0  0  0  0  0  0  0  0
   -1.1044   14.3673   -1.1207 H   0  0  0  0  0  0  0  0  0  0  0  0
   -0.9218   15.6744    0.1140 H   0  0  0  0  0  0  0  0  0  0  0  0
    1.3814   15.7325    1.0149 H   0  0  0  0  0  0  0  0  0  0  0  0
    2.7778   15.6880   -0.1141 H   0  0  0  0  0  0  0  0  0  0  0  0
    1.6674   17.1000   -0.1141 H   0  0  0  0  0  0  0  0  0  0  0  0
  1  2  1  0
  2  3  1  0
  3  4  1  0
  4  5  1  0
  5  6  1  0
  6  7  1  0
  7  8  1  0
  7  9  1  0
  2 10  1  0
 10 11  1  0
 11 12  1  0
 12 13  1  0
 13 14  1  6
 13 15  1  0
 15 16  1  0
 16 17  1  0
 17 18  2  0
 18 19  1  0
 19 20  1  0
 20 21  1  0
 21 22  1  0
 22 23  1  0
 22 24  1  0
 24 25  1  0
 24 26  1  0
 19 27  1  0
 27 28  1  1
 27 29  1  0
 29 30  1  0
 30 31  1  0
 31 32  1  1
  7  5  1  0
 31 10  1  0
 31 13  1  0
 27 15  1  0
 24 18  1  0
  1 33  1  0
  1 34  1  0
  1 35  1  0
  2 36  1  1
  3 37  1  0
  3 38  1  0
  4 39  1  0
  4 40  1  0
  5 41  1  6
  8 42  1  0
  8 43  1  0
  8 44  1  0
  9 45  1  0
  9 46  1  0
  9 47  1  0
 10 48  1  6
 11 49  1  0
 11 50  1  0
 12 51  1  0
 12 52  1  0
 14 53  1  0
 14 54  1  0
 14 55  1  0
 15 56  1  1
 16 57  1  0
 16 58  1  0
 17 59  1  0
 19 60  1  6
 20 61  1  0
 20 62  1  0
 21 63  1  0
 21 64  1  0
 22 65  1  6
 23 66  1  0
 25 67  1  0
 25 68  1  0
 25 69  1  0
 26 70  1  0
 26 71  1  0
 26 72  1  0
 28 73  1  0
 28 74  1  0
 28 75  1  0
 29 76  1  0
 29 77  1  0
 30 78  1  0
 30 79  1  0
 32 80  1  0
 32 81  1  0
 32 82  1  0
M  END
>  <meeko>  (5) 
{"is_sidechain": [false], "intermolecular_energy": 2.731, "internal_energy": -0.839}

$$$$
EPH_relaxed_0001_pdb2pqr_Repair_159_r2_0001_out
     RDKit          3D

 82 86  0  0  0  0  0  0  0  0999 V2000
    1.6090   20.0100   -0.8090 C   0  0  0  0  0  0  0  0  0  0  0  0
    1.4190   19.0610    0.3780 C   0  0  2  0  0  0  0  0  0  0  0  0
    2.7560   18.7090    1.0610 C   0  0  0  0  0  0  0  0  0  0  0  0
    3.2710   19.7990    2.0050 C   0  0  0  0  0  0  0  0  0  0  0  0
    4.7340   19.6380    2.2910 C   0  0  2  0  0  0  0  0  0  0  0  0
    5.1210   18.3230    2.7090 O   0  0  0  0  0  0  0  0  0  0  0  0
    5.2910   19.3710    3.6770 C   0  0  0  0  0  0  0  0  0  0  0  0
    4.3930   19.2500    4.8680 C   0  0  0  0  0  0  0  0  0  0  0  0
    6.7220   19.7130    3.9500 C   0  0  0  0  0  0  0  0  0  0  0  0
    0.7170   17.7890   -0.0810 C   0  0  1  0  0  0  0  0  0  0  0  0
   -0.4510   18.0720   -1.0620 C   0  0  0  0  0  0  0  0  0  0  0  0
   -0.4790   16.8980   -2.0750 C   0  0  0  0  0  0  0  0  0  0  0  0
    0.4450   15.8250   -1.4540 C   0  0  1  0  0  0  0  0  0  0  0  0
   -0.4410   15.0970   -0.3950 C   0  0  0  0  0  0  0  0  0  0  0  0
    1.0990   14.8140   -2.4520 C   0  0  2  0  0  0  0  0  0  0  0  0
    0.1070   13.9280   -3.2260 C   0  0  0  0  0  0  0  0  0  0  0  0
   -0.2320   12.6300   -2.5710 C   0  0  0  0  0  0  0  0  0  0  0  0
    0.4480   12.0630   -1.5570 C   0  0  0  0  0  0  0  0  0  0  0  0
    1.7440   12.6930   -1.0300 C   0  0  1  0  0  0  0  0  0  0  0  0
    2.8260   11.5930   -0.8690 C   0  0  0  0  0  0  0  0  0  0  0  0
    2.3510   10.4260   -0.0070 C   0  0  0  0  0  0  0  0  0  0  0  0
    1.0940    9.7900   -0.5960 C   0  0  2  0  0  0  0  0  0  0  0  0
    1.4310    9.1710   -1.8410 O   0  0  0  0  0  0  0  0  0  0  0  0
   -0.0630   10.8060   -0.8120 C   0  0  0  0  0  0  0  0  0  0  0  0
   -0.6290   11.2500    0.5590 C   0  0  0  0  0  0  0  0  0  0  0  0
   -1.2170   10.0660   -1.5400 C   0  0  0  0  0  0  0  0  0  0  0  0
    2.2760   13.9590   -1.8300 C   0  0  1  0  0  0  0  0  0  0  0  0
    3.1690   13.4980   -3.0220 C   0  0  0  0  0  0  0  0  0  0  0  0
    3.2020   14.8130   -0.8850 C   0  0  0  0  0  0  0  0  0  0  0  0
    2.5100   15.8770   -0.0110 C   0  0  0  0  0  0  0  0  0  0  0  0
    1.5670   16.7450   -0.8490 C   0  0  2  0  0  0  0  0  0  0  0  0
    2.4330   17.5070   -1.9090 C   0  0  0  0  0  0  0  0  0  0  0  0
    1.8123   21.0253   -0.4378 H   0  0  0  0  0  0  0  0  0  0  0  0
    2.4563   19.6668   -1.4209 H   0  0  0  0  0  0  0  0  0  0  0  0
    0.6949   20.0195   -1.4209 H   0  0  0  0  0  0  0  0  0  0  0  0
    0.7968   19.5813    1.1211 H   0  0  0  0  0  0  0  0  0  0  0  0
    2.6169   17.7847    1.6410 H   0  0  0  0  0  0  0  0  0  0  0  0
    3.5044   18.5952    0.2629 H   0  0  0  0  0  0  0  0  0  0  0  0
    3.1046   20.7817    1.5395 H   0  0  0  0  0  0  0  0  0  0  0  0
    2.7242   19.7160    2.9559 H   0  0  0  0  0  0  0  0  0  0  0  0
    4.9901   20.3837    1.5240 H   0  0  0  0  0  0  0  0  0  0  0  0
    4.9910   19.3306    5.7878 H   0  0  0  0  0  0  0  0  0  0  0  0
    3.6440   20.0553    4.8458 H   0  0  0  0  0  0  0  0  0  0  0  0
    3.8839   18.2751    4.8458 H   0  0  0  0  0  0  0  0  0  0  0  0
    6.8886   19.7528    5.0366 H   0  0  0  0  0  0  0  0  0  0  0  0
    7.3734   18.9452    3.5071 H   0  0  0  0  0  0  0  0  0  0  0  0
    6.9559   20.6923    3.5071 H   0  0  0  0  0  0  0  0  0  0  0  0
    0.4143   17.3830    0.8955 H   0  0  0  0  0  0  0  0  0  0  0  0
   -1.4030   18.1216   -0.5132 H   0  0  0  0  0  0  0  0  0  0  0  0
   -0.3105   19.0341   -1.5763 H   0  0  0  0  0  0  0  0  0  0  0  0
   -1.5016   16.5097   -2.1913 H   0  0  0  0  0  0  0  0  0  0  0  0
   -0.1472   17.2044   -3.0780 H   0  0  0  0  0  0  0  0  0  0  0  0
   -0.1055   15.3727    0.6157 H   0  0  0  0  0  0  0  0  0  0  0  0
   -1.4911   15.3966   -0.5272 H   0  0  0  0  0  0  0  0  0  0  0  0
   -0.3508   14.0087   -0.5272 H   0  0  0  0  0  0  0  0  0  0  0  0
    1.5513   15.4802   -3.2014 H   0  0  0  0  0  0  0  0  0  0  0  0
   -0.8256   14.4963   -3.3577 H   0  0  0  0  0  0  0  0  0  0  0  0
    0.6030   13.6710   -4.1736 H   0  0  0  0  0  0  0  0  0  0  0  0
   -1.1129   12.0907   -2.9494 H   0  0  0  0  0  0  0  0  0  0  0  0
    1.4959   13.1203   -0.0472 H   0  0  0  0  0  0  0  0  0  0  0  0
    3.0907   11.2103   -1.8657 H   0  0  0  0  0  0  0  0  0  0  0  0
    3.6924   12.0480   -0.3667 H   0  0  0  0  0  0  0  0  0  0  0  0
    3.1473    9.6689    0.0447 H   0  0  0  0  0  0  0  0  0  0  0  0
    2.1152   10.8048    0.9984 H   0  0  0  0  0  0  0  0  0  0  0  0
    0.7279    9.0485    0.1293 H   0  0  0  0  0  0  0  0  0  0  0  0
    2.2600    9.5700   -2.1530 H   0  0  0  0  0  0  0  0  0  0  0  0
   -0.0405   10.7883    1.3655 H   0  0  0  0  0  0  0  0  0  0  0  0
   -0.5700   12.3452    0.6428 H   0  0  0  0  0  0  0  0  0  0  0  0
   -1.6787   10.9319    0.6428 H   0  0  0  0  0  0  0  0  0  0  0  0
   -1.8991    9.6286   -0.7960 H   0  0  0  0  0  0  0  0  0  0  0  0
   -1.7697   10.7785   -2.1699 H   0  0  0  0  0  0  0  0  0  0  0  0
   -0.8001    9.2664   -2.1699 H   0  0  0  0  0  0  0  0  0  0  0  0
    4.0836   13.0259   -2.6338 H   0  0  0  0  0  0  0  0  0  0  0  0
    2.6147   12.7734   -3.6366 H   0  0  0  0  0  0  0  0  0  0  0  0
    3.4387   14.3695   -3.6366 H   0  0  0  0  0  0  0  0  0  0  0  0
    3.7230   14.1166   -0.2115 H   0  0  0  0  0  0  0  0  0  0  0  0
    3.8596   15.3790   -1.5611 H   0  0  0  0  0  0  0  0  0  0  0  0
    1.9309   15.3740    0.7775 H   0  0  0  0  0  0  0  0  0  0  0  0
    3.2819   16.5237    0.4317 H   0  0  0  0  0  0  0  0  0  0  0  0
    3.1625   18.1489   -1.3935 H   0  0  0  0  0  0  0  0  0  0  0  0
    2.9656   16.7793   -2.5389 H   0  0  0  0  0  0  0  0  0  0  0  0
    1.7790   18.1279   -2.5389 H   0  0  0  0  0  0  0  0  0  0  0  0
  1  2  1  0
  2  3  1  0
  3  4  1  0
  4  5  1  0
  5  6  1  0
  6  7  1  0
  7  8  1  0
  7  9  1  0
  2 10  1  0
 10 11  1  0
 11 12  1  0
 12 13  1  0
 13 14  1  1
 13 15  1  0
 15 16  1  0
 16 17  1  0
 17 18  2  0
 18 19  1  0
 19 20  1  0
 20 21  1  0
 21 22  1  0
 22 23  1  0
 22 24  1  0
 24 25  1  0
 24 26  1  0
 19 27  1  0
 27 28  1  6
 27 29  1  0
 29 30  1  0
 30 31  1  0
 31 32  1  6
  7  5  1  0
 31 10  1  0
 31 13  1  0
 27 15  1  0
 24 18  1  0
  1 33  1  0
  1 34  1  0
  1 35  1  0
  2 36  1  1
  3 37  1  0
  3 38  1  0
  4 39  1  0
  4 40  1  0
  5 41  1  6
  8 42  1  0
  8 43  1  0
  8 44  1  0
  9 45  1  0
  9 46  1  0
  9 47  1  0
 10 48  1  1
 11 49  1  0
 11 50  1  0
 12 51  1  0
 12 52  1  0
 14 53  1  0
 14 54  1  0
 14 55  1  0
 15 56  1  6
 16 57  1  0
 16 58  1  0
 17 59  1  0
 19 60  1  1
 20 61  1  0
 20 62  1  0
 21 63  1  0
 21 64  1  0
 22 65  1  1
 23 66  1  0
 25 67  1  0
 25 68  1  0
 25 69  1  0
 26 70  1  0
 26 71  1  0
 26 72  1  0
 28 73  1  0
 28 74  1  0
 28 75  1  0
 29 76  1  0
 29 77  1  0
 30 78  1  0
 30 79  1  0
 32 80  1  0
 32 81  1  0
 32 82  1  0
M  END
>  <meeko>  (6) 
{"is_sidechain": [false], "intermolecular_energy": 2.731, "internal_energy": -0.839}

$$$$
EPH_relaxed_0001_pdb2pqr_Repair_159_r2_0001_out
     RDKit          3D

 82 86  0  0  0  0  0  0  0  0999 V2000
   -4.9120    8.9450   -0.7850 C   0  0  0  0  0  0  0  0  0  0  0  0
   -5.3140    7.6800   -1.5490 C   0  0  2  0  0  0  0  0  0  0  0  0
   -4.3540    7.3780   -2.7170 C   0  0  0  0  0  0  0  0  0  0  0  0
   -2.9060    7.1400   -2.2780 C   0  0  0  0  0  0  0  0  0  0  0  0
   -2.0160    8.2850   -2.6590 C   0  0  2  0  0  0  0  0  0  0  0  0
   -0.6350    8.1080   -2.3180 O   0  0  0  0  0  0  0  0  0  0  0  0
   -1.3220    9.1770   -1.6470 C   0  0  0  0  0  0  0  0  0  0  0  0
   -1.4890    8.9650   -0.1750 C   0  0  0  0  0  0  0  0  0  0  0  0
   -0.8820   10.5410   -2.0800 C   0  0  0  0  0  0  0  0  0  0  0  0
   -6.7400    7.8180   -2.0690 C   0  0  1  0  0  0  0  0  0  0  0  0
   -6.9530    7.0940   -3.4250 C   0  0  0  0  0  0  0  0  0  0  0  0
   -8.3990    6.5360   -3.4110 C   0  0  0  0  0  0  0  0  0  0  0  0
   -9.0750    7.2310   -2.2060 C   0  0  1  0  0  0  0  0  0  0  0  0
   -9.4900    8.6390   -2.7370 C   0  0  0  0  0  0  0  0  0  0  0  0
  -10.2840    6.4780   -1.5620 C   0  0  2  0  0  0  0  0  0  0  0  0
  -11.4940    6.2720   -2.4900 C   0  0  0  0  0  0  0  0  0  0  0  0
  -12.5150    7.3590   -2.4570 C   0  0  0  0  0  0  0  0  0  0  0  0
  -12.6110    8.3140   -1.5140 C   0  0  0  0  0  0  0  0  0  0  0  0
  -11.6910    8.3050   -0.2860 C   0  0  1  0  0  0  0  0  0  0  0  0
  -12.5320    8.5480    0.9940 C   0  0  0  0  0  0  0  0  0  0  0  0
  -13.3750    9.8170    0.9070 C   0  0  0  0  0  0  0  0  0  0  0  0
  -14.3180    9.7640   -0.2910 C   0  0  2  0  0  0  0  0  0  0  0  0
  -15.2860    8.7330   -0.0710 O   0  0  0  0  0  0  0  0  0  0  0  0
  -13.5840    9.5130   -1.6380 C   0  0  0  0  0  0  0  0  0  0  0  0
  -12.7630   10.7670   -2.0250 C   0  0  0  0  0  0  0  0  0  0  0  0
  -14.6610    9.3410   -2.7440 C   0  0  0  0  0  0  0  0  0  0  0  0
  -10.7270    7.0480   -0.1530 C   0  0  1  0  0  0  0  0  0  0  0  0
  -11.4630    5.8880    0.5850 C   0  0  0  0  0  0  0  0  0  0  0  0
   -9.4960    7.4380    0.7480 C   0  0  0  0  0  0  0  0  0  0  0  0
   -8.2840    8.0690    0.0350 C   0  0  0  0  0  0  0  0  0  0  0  0
   -7.8770    7.2420   -1.1880 C   0  0  2  0  0  0  0  0  0  0  0  0
   -7.4330    5.8270   -0.6830 C   0  0  0  0  0  0  0  0  0  0  0  0
   -4.9724    8.7548    0.2967 H   0  0  0  0  0  0  0  0  0  0  0  0
   -3.8814    9.2224   -1.0515 H   0  0  0  0  0  0  0  0  0  0  0  0
   -5.5934    9.7664   -1.0515 H   0  0  0  0  0  0  0  0  0  0  0  0
   -5.2549    6.8358   -0.8463 H   0  0  0  0  0  0  0  0  0  0  0  0
   -4.7119    6.4770   -3.2366 H   0  0  0  0  0  0  0  0  0  0  0  0
   -4.3509    8.2646   -3.3681 H   0  0  0  0  0  0  0  0  0  0  0  0
   -2.8804    7.0168   -1.1852 H   0  0  0  0  0  0  0  0  0  0  0  0
   -2.5380    6.2359   -2.7852 H   0  0  0  0  0  0  0  0  0  0  0  0
   -2.6414    8.5111   -3.5352 H   0  0  0  0  0  0  0  0  0  0  0  0
   -0.8987    9.7144    0.3727 H   0  0  0  0  0  0  0  0  0  0  0  0
   -2.5511    9.0682    0.0921 H   0  0  0  0  0  0  0  0  0  0  0  0
   -1.1400    7.9566    0.0921 H   0  0  0  0  0  0  0  0  0  0  0  0
   -0.6822   11.1605   -1.1933 H   0  0  0  0  0  0  0  0  0  0  0  0
    0.0345   10.4566   -2.6824 H   0  0  0  0  0  0  0  0  0  0  0  0
   -1.6751   11.0081   -2.6824 H   0  0  0  0  0  0  0  0  0  0  0  0
   -6.8162    8.9145   -2.1115 H   0  0  0  0  0  0  0  0  0  0  0  0
   -6.8285    7.8030   -4.2567 H   0  0  0  0  0  0  0  0  0  0  0  0
   -6.2190    6.2862   -3.5613 H   0  0  0  0  0  0  0  0  0  0  0  0
   -8.9208    6.7866   -4.3464 H   0  0  0  0  0  0  0  0  0  0  0  0
   -8.4217    5.4395   -3.3261 H   0  0  0  0  0  0  0  0  0  0  0  0
   -9.6872    9.3081   -1.8865 H   0  0  0  0  0  0  0  0  0  0  0  0
   -8.6761    9.0545   -3.3494 H   0  0  0  0  0  0  0  0  0  0  0  0
  -10.3991    8.5466   -3.3494 H   0  0  0  0  0  0  0  0  0  0  0  0
   -9.8691    5.4748   -1.3847 H   0  0  0  0  0  0  0  0  0  0  0  0
  -11.1208    6.1875   -3.5213 H   0  0  0  0  0  0  0  0  0  0  0  0
  -12.0028    5.3657   -2.1298 H   0  0  0  0  0  0  0  0  0  0  0  0
  -13.2522    7.3818   -3.2731 H   0  0  0  0  0  0  0  0  0  0  0  0
  -10.9835    9.1349   -0.4297 H   0  0  0  0  0  0  0  0  0  0  0  0
  -13.2023    7.6888    1.1441 H   0  0  0  0  0  0  0  0  0  0  0  0
  -11.8334    8.6677    1.8352 H   0  0  0  0  0  0  0  0  0  0  0  0
  -13.9681    9.9190    1.8278 H   0  0  0  0  0  0  0  0  0  0  0  0
  -12.7015   10.6783    0.7859 H   0  0  0  0  0  0  0  0  0  0  0  0
  -14.7996   10.7494   -0.3753 H   0  0  0  0  0  0  0  0  0  0  0  0
  -15.8160    8.6490   -0.8820 H   0  0  0  0  0  0  0  0  0  0  0  0
  -12.4265   11.2809   -1.1125 H   0  0  0  0  0  0  0  0  0  0  0  0
  -11.8881   10.4636   -2.6187 H   0  0  0  0  0  0  0  0  0  0  0  0
  -13.3910   11.4475   -2.6187 H   0  0  0  0  0  0  0  0  0  0  0  0
  -15.6444    9.1839   -2.2769 H   0  0  0  0  0  0  0  0  0  0  0  0
  -14.6923   10.2455   -3.3692 H   0  0  0  0  0  0  0  0  0  0  0  0
  -14.4090    8.4717   -3.3692 H   0  0  0  0  0  0  0  0  0  0  0  0
  -11.3731    6.0297    1.6721 H   0  0  0  0  0  0  0  0  0  0  0  0
  -12.5259    5.8892    0.3017 H   0  0  0  0  0  0  0  0  0  0  0  0
  -11.0091    4.9269    0.3017 H   0  0  0  0  0  0  0  0  0  0  0  0
   -9.8499    8.1569    1.5016 H   0  0  0  0  0  0  0  0  0  0  0  0
   -9.1257    6.4861    1.1564 H   0  0  0  0  0  0  0  0  0  0  0  0
   -8.5470    9.0865   -0.2898 H   0  0  0  0  0  0  0  0  0  0  0  0
   -7.4382    8.0962    0.7378 H   0  0  0  0  0  0  0  0  0  0  0  0
   -7.4292    5.8148    0.4169 H   0  0  0  0  0  0  0  0  0  0  0  0
   -8.1360    5.0674   -1.0557 H   0  0  0  0  0  0  0  0  0  0  0  0
   -6.4221    5.6052   -1.0557 H   0  0  0  0  0  0  0  0  0  0  0  0
  1  2  1  0
  2  3  1  0
  3  4  1  0
  4  5  1  0
  5  6  1  0
  6  7  1  0
  7  8  1  0
  7  9  1  0
  2 10  1  0
 10 11  1  0
 11 12  1  0
 12 13  1  0
 13 14  1  6
 13 15  1  0
 15 16  1  0
 16 17  1  0
 17 18  2  0
 18 19  1  0
 19 20  1  0
 20 21  1  0
 21 22  1  0
 22 23  1  0
 22 24  1  0
 24 25  1  0
 24 26  1  0
 19 27  1  0
 27 28  1  1
 27 29  1  0
 29 30  1  0
 30 31  1  0
 31 32  1  1
  7  5  1  0
 31 10  1  0
 31 13  1  0
 27 15  1  0
 24 18  1  0
  1 33  1  0
  1 34  1  0
  1 35  1  0
  2 36  1  1
  3 37  1  0
  3 38  1  0
  4 39  1  0
  4 40  1  0
  5 41  1  6
  8 42  1  0
  8 43  1  0
  8 44  1  0
  9 45  1  0
  9 46  1  0
  9 47  1  0
 10 48  1  6
 11 49  1  0
 11 50  1  0
 12 51  1  0
 12 52  1  0
 14 53  1  0
 14 54  1  0
 14 55  1  0
 15 56  1  1
 16 57  1  0
 16 58  1  0
 17 59  1  0
 19 60  1  6
 20 61  1  0
 20 62  1  0
 21 63  1  0
 21 64  1  0
 22 65  1  6
 23 66  1  0
 25 67  1  0
 25 68  1  0
 25 69  1  0
 26 70  1  0
 26 71  1  0
 26 72  1  0
 28 73  1  0
 28 74  1  0
 28 75  1  0
 29 76  1  0
 29 77  1  0
 30 78  1  0
 30 79  1  0
 32 80  1  0
 32 81  1  0
 32 82  1  0
M  END
>  <meeko>  (7) 
{"is_sidechain": [false], "intermolecular_energy": 2.731, "internal_energy": -0.839}

$$$$
EPH_relaxed_0001_pdb2pqr_Repair_159_r2_0001_out
     RDKit          3D

 82 86  0  0  0  0  0  0  0  0999 V2000
   -1.3190   10.4020    1.6370 C   0  0  0  0  0  0  0  0  0  0  0  0
   -1.9930   10.1030    0.2950 C   0  0  2  0  0  0  0  0  0  0  0  0
   -2.8380    8.8140    0.3440 C   0  0  0  0  0  0  0  0  0  0  0  0
   -4.1800    8.9290   -0.3840 C   0  0  0  0  0  0  0  0  0  0  0  0
   -4.7030    7.5860   -0.7980 C   0  0  2  0  0  0  0  0  0  0  0  0
   -4.8290    7.4030   -2.2140 O   0  0  0  0  0  0  0  0  0  0  0  0
   -6.0520    7.3830   -1.4610 C   0  0  0  0  0  0  0  0  0  0  0  0
   -6.9630    8.5350   -1.7470 C   0  0  0  0  0  0  0  0  0  0  0  0
   -6.6900    6.0300   -1.3840 C   0  0  0  0  0  0  0  0  0  0  0  0
   -0.9420    9.9950   -0.8030 C   0  0  1  0  0  0  0  0  0  0  0  0
   -1.4130    9.1260   -1.9990 C   0  0  0  0  0  0  0  0  0  0  0  0
   -0.8030    9.7550   -3.2780 C   0  0  0  0  0  0  0  0  0  0  0  0
    0.2570   10.7520   -2.7530 C   0  0  1  0  0  0  0  0  0  0  0  0
    1.5090    9.8760   -2.4350 C   0  0  0  0  0  0  0  0  0  0  0  0
    0.6130   11.9440   -3.7010 C   0  0  2  0  0  0  0  0  0  0  0  0
    1.2370   11.5420   -5.0490 C   0  0  0  0  0  0  0  0  0  0  0  0
    2.7270   11.4550   -5.0610 C   0  0  0  0  0  0  0  0  0  0  0  0
    3.5480   11.9600   -4.1210 C   0  0  0  0  0  0  0  0  0  0  0  0
    2.9940   12.7880   -2.9550 C   0  0  1  0  0  0  0  0  0  0  0  0
    3.8540   14.0670   -2.7740 C   0  0  0  0  0  0  0  0  0  0  0  0
    5.3390   13.7570   -2.6150 C   0  0  0  0  0  0  0  0  0  0  0  0
    5.8660   12.9830   -3.8210 C   0  0  2  0  0  0  0  0  0  0  0  0
    5.8230   13.8350   -4.9700 O   0  0  0  0  0  0  0  0  0  0  0  0
    5.0710   11.6790   -4.1080 C   0  0  0  0  0  0  0  0  0  0  0  0
    5.3630   10.6370   -2.9990 C   0  0  0  0  0  0  0  0  0  0  0  0
    5.6130   11.0700   -5.4290 C   0  0  0  0  0  0  0  0  0  0  0  0
    1.4370   13.1020   -3.0050 C   0  0  1  0  0  0  0  0  0  0  0  0
    1.1810   14.3940   -3.8380 C   0  0  0  0  0  0  0  0  0  0  0  0
    0.9270   13.4060   -1.5460 C   0  0  0  0  0  0  0  0  0  0  0  0
    0.4770   12.1980   -0.7020 C   0  0  0  0  0  0  0  0  0  0  0  0
   -0.4910   11.3090   -1.4880 C   0  0  2  0  0  0  0  0  0  0  0  0
   -1.7700   12.1570   -1.8040 C   0  0  0  0  0  0  0  0  0  0  0  0
   -1.9885   10.1050    2.4578 H   0  0  0  0  0  0  0  0  0  0  0  0
   -0.3780    9.8369    1.7087 H   0  0  0  0  0  0  0  0  0  0  0  0
   -1.1064   11.4789    1.7087 H   0  0  0  0  0  0  0  0  0  0  0  0
   -2.6754   10.9373    0.0750 H   0  0  0  0  0  0  0  0  0  0  0  0
   -2.2595    8.0018   -0.1205 H   0  0  0  0  0  0  0  0  0  0  0  0
   -3.0627    8.6173    1.4027 H   0  0  0  0  0  0  0  0  0  0  0  0
   -4.9102    9.4045    0.2874 H   0  0  0  0  0  0  0  0  0  0  0  0
   -4.0275    9.5322   -1.2911 H   0  0  0  0  0  0  0  0  0  0  0  0
   -4.2278    7.1066    0.0706 H   0  0  0  0  0  0  0  0  0  0  0  0
   -7.3092    8.9728   -0.7991 H   0  0  0  0  0  0  0  0  0  0  0  0
   -6.4203    9.2967   -2.3261 H   0  0  0  0  0  0  0  0  0  0  0  0
   -7.8292    8.1825   -2.3261 H   0  0  0  0  0  0  0  0  0  0  0  0
   -6.8234    5.7470   -0.3294 H   0  0  0  0  0  0  0  0  0  0  0  0
   -7.6699    6.0577   -1.8830 H   0  0  0  0  0  0  0  0  0  0  0  0
   -6.0452    5.2916   -1.8830 H   0  0  0  0  0  0  0  0  0  0  0  0
   -0.1113    9.5701   -0.2204 H   0  0  0  0  0  0  0  0  0  0  0  0
   -1.0573    8.0920   -1.8790 H   0  0  0  0  0  0  0  0  0  0  0  0
   -2.5111    9.0982   -2.0582 H   0  0  0  0  0  0  0  0  0  0  0  0
   -0.3333    8.9827   -3.9049 H   0  0  0  0  0  0  0  0  0  0  0  0
   -1.5621   10.2444   -3.9059 H   0  0  0  0  0  0  0  0  0  0  0  0
    1.6300    9.7913   -1.3450 H   0  0  0  0  0  0  0  0  0  0  0  0
    1.3748    8.8737   -2.8680 H   0  0  0  0  0  0  0  0  0  0  0  0
    2.4046   10.3455   -2.8680 H   0  0  0  0  0  0  0  0  0  0  0  0
   -0.3775   12.3574   -3.9420 H   0  0  0  0  0  0  0  0  0  0  0  0
    0.8367   10.5563   -5.3284 H   0  0  0  0  0  0  0  0  0  0  0  0
    0.9731   12.3414   -5.7570 H   0  0  0  0  0  0  0  0  0  0  0  0
    3.1939   10.9341   -5.9099 H   0  0  0  0  0  0  0  0  0  0  0  0
    3.0791   12.1508   -2.0624 H   0  0  0  0  0  0  0  0  0  0  0  0
    3.7206   14.7092   -3.6570 H   0  0  0  0  0  0  0  0  0  0  0  0
    3.5175   14.5676   -1.8541 H   0  0  0  0  0  0  0  0  0  0  0  0
    5.8960   14.7009   -2.5214 H   0  0  0  0  0  0  0  0  0  0  0  0
    5.4748   13.1399   -1.7146 H   0  0  0  0  0  0  0  0  0  0  0  0
    6.8973   12.6770   -3.5911 H   0  0  0  0  0  0  0  0  0  0  0  0
    4.9090   13.8350   -5.3020 H   0  0  0  0  0  0  0  0  0  0  0  0
    5.2318   11.1052   -2.0123 H   0  0  0  0  0  0  0  0  0  0  0  0
    4.6674    9.7907   -3.0987 H   0  0  0  0  0  0  0  0  0  0  0  0
    6.3971   10.2754   -3.0987 H   0  0  0  0  0  0  0  0  0  0  0  0
    6.3278   10.2669   -5.1964 H   0  0  0  0  0  0  0  0  0  0  0  0
    4.7767   10.6587   -6.0134 H   0  0  0  0  0  0  0  0  0  0  0  0
    6.1186   11.8529   -6.0134 H   0  0  0  0  0  0  0  0  0  0  0  0
    1.0130   15.2417   -3.1575 H   0  0  0  0  0  0  0  0  0  0  0  0
    2.0557   14.6007   -4.4722 H   0  0  0  0  0  0  0  0  0  0  0  0
    0.2936   14.2515   -4.4722 H   0  0  0  0  0  0  0  0  0  0  0  0
    1.7447   13.9042   -1.0046 H   0  0  0  0  0  0  0  0  0  0  0  0
    0.0224   14.0176   -1.6787 H   0  0  0  0  0  0  0  0  0  0  0  0
    1.3608   11.6065   -0.4207 H   0  0  0  0  0  0  0  0  0  0  0  0
   -0.0392   12.5703    0.1952 H   0  0  0  0  0  0  0  0  0  0  0  0
   -2.2436   12.4710   -0.8622 H   0  0  0  0  0  0  0  0  0  0  0  0
   -1.4858   13.0462   -2.3858 H   0  0  0  0  0  0  0  0  0  0  0  0
   -2.4785   11.5491   -2.3858 H   0  0  0  0  0  0  0  0  0  0  0  0
  1  2  1  0
  2  3  1  0
  3  4  1  0
  4  5  1  0
  5  6  1  0
  6  7  1  0
  7  8  1  0
  7  9  1  0
  2 10  1  0
 10 11  1  0
 11 12  1  0
 12 13  1  0
 13 14  1  1
 13 15  1  0
 15 16  1  0
 16 17  1  0
 17 18  2  0
 18 19  1  0
 19 20  1  0
 20 21  1  0
 21 22  1  0
 22 23  1  0
 22 24  1  0
 24 25  1  0
 24 26  1  0
 19 27  1  0
 27 28  1  6
 27 29  1  0
 29 30  1  0
 30 31  1  0
 31 32  1  6
  7  5  1  0
 31 10  1  0
 31 13  1  0
 27 15  1  0
 24 18  1  0
  1 33  1  0
  1 34  1  0
  1 35  1  0
  2 36  1  6
  3 37  1  0
  3 38  1  0
  4 39  1  0
  4 40  1  0
  5 41  1  1
  8 42  1  0
  8 43  1  0
  8 44  1  0
  9 45  1  0
  9 46  1  0
  9 47  1  0
 10 48  1  1
 11 49  1  0
 11 50  1  0
 12 51  1  0
 12 52  1  0
 14 53  1  0
 14 54  1  0
 14 55  1  0
 15 56  1  6
 16 57  1  0
 16 58  1  0
 17 59  1  0
 19 60  1  1
 20 61  1  0
 20 62  1  0
 21 63  1  0
 21 64  1  0
 22 65  1  1
 23 66  1  0
 25 67  1  0
 25 68  1  0
 25 69  1  0
 26 70  1  0
 26 71  1  0
 26 72  1  0
 28 73  1  0
 28 74  1  0
 28 75  1  0
 29 76  1  0
 29 77  1  0
 30 78  1  0
 30 79  1  0
 32 80  1  0
 32 81  1  0
 32 82  1  0
M  END
>  <meeko>  (8) 
{"is_sidechain": [false], "intermolecular_energy": 2.731, "internal_energy": -0.839}

$$$$
EPH_relaxed_0001_pdb2pqr_Repair_159_r2_0001_out
     RDKit          3D

 82 86  0  0  0  0  0  0  0  0999 V2000
    1.3350   18.3860   -2.5900 C   0  0  0  0  0  0  0  0  0  0  0  0
    0.8230   17.5700   -1.3990 C   0  0  2  0  0  0  0  0  0  0  0  0
    1.9050   17.3790   -0.3170 C   0  0  0  0  0  0  0  0  0  0  0  0
    2.0180   18.5570    0.6540 C   0  0  0  0  0  0  0  0  0  0  0  0
    3.4380   18.7990    1.0690 C   0  0  2  0  0  0  0  0  0  0  0  0
    3.8230   18.1530    2.2890 O   0  0  0  0  0  0  0  0  0  0  0  0
    3.8250   19.5900    2.3050 C   0  0  0  0  0  0  0  0  0  0  0  0
    2.7890   20.1890    3.2040 C   0  0  0  0  0  0  0  0  0  0  0  0
    5.1950   20.1900    2.3710 C   0  0  0  0  0  0  0  0  0  0  0  0
    0.3200   16.2130   -1.8770 C   0  0  1  0  0  0  0  0  0  0  0  0
    0.0290   16.1870   -3.4010 C   0  0  0  0  0  0  0  0  0  0  0  0
    0.4010   14.7680   -3.9040 C   0  0  0  0  0  0  0  0  0  0  0  0
    0.5750   13.9310   -2.6150 C   0  0  1  0  0  0  0  0  0  0  0  0
   -0.8750   13.5380   -2.1930 C   0  0  0  0  0  0  0  0  0  0  0  0
    1.5040   12.6780   -2.7250 C   0  0  2  0  0  0  0  0  0  0  0  0
    1.0250   11.5960   -3.7080 C   0  0  0  0  0  0  0  0  0  0  0  0
    0.1450   10.5430   -3.1200 C   0  0  0  0  0  0  0  0  0  0  0  0
   -0.0160   10.3040   -1.8050 C   0  0  0  0  0  0  0  0  0  0  0  0
    0.8020   11.0710   -0.7590 C   0  0  1  0  0  0  0  0  0  0  0  0
    1.3680   10.0740    0.2880 C   0  0  0  0  0  0  0  0  0  0  0  0
    0.2810    9.2080    0.9170 C   0  0  0  0  0  0  0  0  0  0  0  0
   -0.4720    8.4170   -0.1500 C   0  0  2  0  0  0  0  0  0  0  0  0
    0.4210    7.4640   -0.7330 O   0  0  0  0  0  0  0  0  0  0  0  0
   -1.0780    9.3150   -1.2640 C   0  0  0  0  0  0  0  0  0  0  0  0
   -2.2570   10.1360   -0.6860 C   0  0  0  0  0  0  0  0  0  0  0  0
   -1.6870    8.3850   -2.3480 C   0  0  0  0  0  0  0  0  0  0  0  0
    1.9140   12.0510   -1.3310 C   0  0  1  0  0  0  0  0  0  0  0  0
    3.2420   11.2690   -1.5680 C   0  0  0  0  0  0  0  0  0  0  0  0
    2.2340   13.1520   -0.2510 C   0  0  0  0  0  0  0  0  0  0  0  0
    1.3580   14.4190   -0.2700 C   0  0  0  0  0  0  0  0  0  0  0  0
    1.2610   14.9970   -1.6850 C   0  0  2  0  0  0  0  0  0  0  0  0
    2.7030   15.4220   -2.1280 C   0  0  0  0  0  0  0  0  0  0  0  0
    1.8861   19.2643   -2.2229 H   0  0  0  0  0  0  0  0  0  0  0  0
    2.0041   17.7625   -3.2012 H   0  0  0  0  0  0  0  0  0  0  0  0
    0.4825   18.7172   -3.2012 H   0  0  0  0  0  0  0  0  0  0  0  0
   -0.0039   18.1340   -0.9428 H   0  0  0  0  0  0  0  0  0  0  0  0
    1.6629   16.4747    0.2606 H   0  0  0  0  0  0  0  0  0  0  0  0
    2.8703   17.2978   -0.8381 H   0  0  0  0  0  0  0  0  0  0  0  0
    1.6309   19.4621    0.1631 H   0  0  0  0  0  0  0  0  0  0  0  0
    1.4338   18.3165    1.5545 H   0  0  0  0  0  0  0  0  0  0  0  0
    3.7583   18.8678    0.0189 H   0  0  0  0  0  0  0  0  0  0  0  0
    3.0745   20.0239    4.2534 H   0  0  0  0  0  0  0  0  0  0  0  0
    2.7151   21.2692    3.0096 H   0  0  0  0  0  0  0  0  0  0  0  0
    1.8160   19.7141    3.0096 H   0  0  0  0  0  0  0  0  0  0  0  0
    5.4887   20.3186    3.4232 H   0  0  0  0  0  0  0  0  0  0  0  0
    5.9118   19.5234    1.8691 H   0  0  0  0  0  0  0  0  0  0  0  0
    5.1912   21.1688    1.8691 H   0  0  0  0  0  0  0  0  0  0  0  0
   -0.5660   16.1080   -1.2335 H   0  0  0  0  0  0  0  0  0  0  0  0
   -1.0366   16.3873   -3.5865 H   0  0  0  0  0  0  0  0  0  0  0  0
    0.6114   16.9576   -3.9273 H   0  0  0  0  0  0  0  0  0  0  0  0
   -0.4034   14.3545   -4.5300 H   0  0  0  0  0  0  0  0  0  0  0  0
    1.3083   14.7701   -4.5259 H   0  0  0  0  0  0  0  0  0  0  0  0
   -0.9450   13.5190   -1.0954 H   0  0  0  0  0  0  0  0  0  0  0  0
   -1.5860   14.2758   -2.5931 H   0  0  0  0  0  0  0  0  0  0  0  0
   -1.1161   12.5421   -2.5931 H   0  0  0  0  0  0  0  0  0  0  0  0
    2.4187   13.1000   -3.1668 H   0  0  0  0  0  0  0  0  0  0  0  0
    0.4669   12.0933   -4.5150 H   0  0  0  0  0  0  0  0  0  0  0  0
    1.9311   11.0766   -4.0532 H   0  0  0  0  0  0  0  0  0  0  0  0
   -0.4192    9.9092   -3.8200 H   0  0  0  0  0  0  0  0  0  0  0  0
    0.1005   11.7652   -0.2732 H   0  0  0  0  0  0  0  0  0  0  0  0
    2.0985    9.4181   -0.2083 H   0  0  0  0  0  0  0  0  0  0  0  0
    1.8338   10.6624    1.0923 H   0  0  0  0  0  0  0  0  0  0  0  0
    0.7450    8.5058    1.6252 H   0  0  0  0  0  0  0  0  0  0  0  0
   -0.4329    9.8635    1.4373 H   0  0  0  0  0  0  0  0  0  0  0  0
   -1.3179    7.9175    0.3449 H   0  0  0  0  0  0  0  0  0  0  0  0
    1.1480    7.3170   -0.1040 H   0  0  0  0  0  0  0  0  0  0  0  0
   -2.2185   10.1092    0.4130 H   0  0  0  0  0  0  0  0  0  0  0  0
   -2.1817   11.1780   -1.0302 H   0  0  0  0  0  0  0  0  0  0  0  0
   -3.2082    9.7039   -1.0302 H   0  0  0  0  0  0  0  0  0  0  0  0
   -2.2275    7.5597   -1.8615 H   0  0  0  0  0  0  0  0  0  0  0  0
   -2.3839    8.9603   -2.9752 H   0  0  0  0  0  0  0  0  0  0  0  0
   -0.8811    7.9762   -2.9752 H   0  0  0  0  0  0  0  0  0  0  0  0
    3.6901   11.0051   -0.5987 H   0  0  0  0  0  0  0  0  0  0  0  0
    3.0306   10.3512   -2.1363 H   0  0  0  0  0  0  0  0  0  0  0  0
    3.9421   11.8990   -2.1363 H   0  0  0  0  0  0  0  0  0  0  0  0
    2.1256   12.6873    0.7401 H   0  0  0  0  0  0  0  0  0  0  0  0
    3.2499   13.5009   -0.4880 H   0  0  0  0  0  0  0  0  0  0  0  0
    0.3484   14.1639    0.0845 H   0  0  0  0  0  0  0  0  0  0  0  0
    1.8173   15.1729    0.3862 H   0  0  0  0  0  0  0  0  0  0  0  0
    3.3216   15.6043   -1.2368 H   0  0  0  0  0  0  0  0  0  0  0  0
    3.1537   14.6185   -2.7290 H   0  0  0  0  0  0  0  0  0  0  0  0
    2.6459   16.3415   -2.7290 H   0  0  0  0  0  0  0  0  0  0  0  0
  1  2  1  0
  2  3  1  0
  3  4  1  0
  4  5  1  0
  5  6  1  0
  6  7  1  0
  7  8  1  0
  7  9  1  0
  2 10  1  0
 10 11  1  0
 11 12  1  0
 12 13  1  0
 13 14  1  1
 13 15  1  0
 15 16  1  0
 16 17  1  0
 17 18  2  0
 18 19  1  0
 19 20  1  0
 20 21  1  0
 21 22  1  0
 22 23  1  0
 22 24  1  0
 24 25  1  0
 24 26  1  0
 19 27  1  0
 27 28  1  6
 27 29  1  0
 29 30  1  0
 30 31  1  0
 31 32  1  6
  7  5  1  0
 31 10  1  0
 31 13  1  0
 27 15  1  0
 24 18  1  0
  1 33  1  0
  1 34  1  0
  1 35  1  0
  2 36  1  1
  3 37  1  0
  3 38  1  0
  4 39  1  0
  4 40  1  0
  5 41  1  6
  8 42  1  0
  8 43  1  0
  8 44  1  0
  9 45  1  0
  9 46  1  0
  9 47  1  0
 10 48  1  1
 11 49  1  0
 11 50  1  0
 12 51  1  0
 12 52  1  0
 14 53  1  0
 14 54  1  0
 14 55  1  0
 15 56  1  6
 16 57  1  0
 16 58  1  0
 17 59  1  0
 19 60  1  1
 20 61  1  0
 20 62  1  0
 21 63  1  0
 21 64  1  0
 22 65  1  1
 23 66  1  0
 25 67  1  0
 25 68  1  0
 25 69  1  0
 26 70  1  0
 26 71  1  0
 26 72  1  0
 28 73  1  0
 28 74  1  0
 28 75  1  0
 29 76  1  0
 29 77  1  0
 30 78  1  0
 30 79  1  0
 32 80  1  0
 32 81  1  0
 32 82  1  0
M  END
>  <meeko>  (9) 
{"is_sidechain": [false], "intermolecular_energy": 2.731, "internal_energy": -0.839}

$$$$
EPH_relaxed_0001_pdb2pqr_Repair_159_r2_0001_out
     RDKit          3D

 82 86  0  0  0  0  0  0  0  0999 V2000
   -2.9550    9.6080    0.3820 C   0  0  0  0  0  0  0  0  0  0  0  0
   -2.8970    9.5970   -1.1480 C   0  0  2  0  0  0  0  0  0  0  0  0
   -2.6030    8.1910   -1.7080 C   0  0  0  0  0  0  0  0  0  0  0  0
   -3.8150    7.5240   -2.3630 C   0  0  0  0  0  0  0  0  0  0  0  0
   -5.0450    7.6540   -1.5150 C   0  0  2  0  0  0  0  0  0  0  0  0
   -5.5490    6.4160   -0.9980 O   0  0  0  0  0  0  0  0  0  0  0  0
   -6.4020    7.1120   -1.9220 C   0  0  0  0  0  0  0  0  0  0  0  0
   -6.6000    6.3980   -3.2220 C   0  0  0  0  0  0  0  0  0  0  0  0
   -7.6260    7.6980   -1.2890 C   0  0  0  0  0  0  0  0  0  0  0  0
   -1.8410   10.5830   -1.6340 C   0  0  1  0  0  0  0  0  0  0  0  0
   -2.1540   12.0460   -1.2210 C   0  0  0  0  0  0  0  0  0  0  0  0
   -0.7920   12.7320   -0.9410 C   0  0  0  0  0  0  0  0  0  0  0  0
    0.2620   11.7570   -1.5160 C   0  0  1  0  0  0  0  0  0  0  0  0
    0.2870   12.0510   -3.0490 C   0  0  0  0  0  0  0  0  0  0  0  0
    1.6920   11.8380   -0.8900 C   0  0  2  0  0  0  0  0  0  0  0  0
    2.4120   13.1850   -1.0790 C   0  0  0  0  0  0  0  0  0  0  0  0
    3.2510   13.2930   -2.3100 C   0  0  0  0  0  0  0  0  0  0  0  0
    3.6490   12.2610   -3.0770 C   0  0  0  0  0  0  0  0  0  0  0  0
    3.3350   10.8140   -2.6770 C   0  0  1  0  0  0  0  0  0  0  0  0
    4.6110    9.9460   -2.8310 C   0  0  0  0  0  0  0  0  0  0  0  0
    5.2220   10.0460   -4.2260 C   0  0  0  0  0  0  0  0  0  0  0  0
    5.5730   11.4920   -4.5640 C   0  0  2  0  0  0  0  0  0  0  0  0
    6.6320   11.9230   -3.7040 O   0  0  0  0  0  0  0  0  0  0  0  0
    4.3670   12.4630   -4.4350 C   0  0  0  0  0  0  0  0  0  0  0  0
    3.3500   12.1840   -5.5690 C   0  0  0  0  0  0  0  0  0  0  0  0
    4.8880   13.9070   -4.6650 C   0  0  0  0  0  0  0  0  0  0  0  0
    2.6330   10.6220   -1.2630 C   0  0  1  0  0  0  0  0  0  0  0  0
    3.7130   10.5340   -0.1420 C   0  0  0  0  0  0  0  0  0  0  0  0
    1.8670    9.2470   -1.2520 C   0  0  0  0  0  0  0  0  0  0  0  0
    0.4170    9.2560   -1.7720 C   0  0  0  0  0  0  0  0  0  0  0  0
   -0.3920   10.3830   -1.1230 C   0  0  2  0  0  0  0  0  0  0  0  0
   -0.4530   10.1020    0.4170 C   0  0  0  0  0  0  0  0  0  0  0  0
   -1.9507    9.4175    0.7884 H   0  0  0  0  0  0  0  0  0  0  0  0
   -3.3106   10.5896    0.7284 H   0  0  0  0  0  0  0  0  0  0  0  0
   -3.6453    8.8248    0.7284 H   0  0  0  0  0  0  0  0  0  0  0  0
   -3.8873    9.8991   -1.5195 H   0  0  0  0  0  0  0  0  0  0  0  0
   -1.8050    8.2766   -2.4602 H   0  0  0  0  0  0  0  0  0  0  0  0
   -2.3103    7.5602   -0.8557 H   0  0  0  0  0  0  0  0  0  0  0  0
   -4.0013    8.0006   -3.3367 H   0  0  0  0  0  0  0  0  0  0  0  0
   -3.5935    6.4534   -2.4842 H   0  0  0  0  0  0  0  0  0  0  0  0
   -4.7228    8.6430   -1.1573 H   0  0  0  0  0  0  0  0  0  0  0  0
   -6.8893    5.3548   -3.0270 H   0  0  0  0  0  0  0  0  0  0  0  0
   -7.3936    6.8972   -3.7973 H   0  0  0  0  0  0  0  0  0  0  0  0
   -5.6626    6.4172   -3.7973 H   0  0  0  0  0  0  0  0  0  0  0  0
   -7.5303    7.6522   -0.1941 H   0  0  0  0  0  0  0  0  0  0  0  0
   -7.7356    8.7462   -1.6039 H   0  0  0  0  0  0  0  0  0  0  0  0
   -8.5113    7.1261   -1.6039 H   0  0  0  0  0  0  0  0  0  0  0  0
   -1.8892   10.3860   -2.7151 H   0  0  0  0  0  0  0  0  0  0  0  0
   -2.6796   12.5656   -2.0357 H   0  0  0  0  0  0  0  0  0  0  0  0
   -2.8018   12.0759   -0.3325 H   0  0  0  0  0  0  0  0  0  0  0  0
   -0.7367   13.7066   -1.4480 H   0  0  0  0  0  0  0  0  0  0  0  0
   -0.6370   12.9294    0.1300 H   0  0  0  0  0  0  0  0  0  0  0  0
    0.3792   13.1348   -3.2130 H   0  0  0  0  0  0  0  0  0  0  0  0
    1.1446   11.5366   -3.5071 H   0  0  0  0  0  0  0  0  0  0  0  0
   -0.6452   11.6888   -3.5071 H   0  0  0  0  0  0  0  0  0  0  0  0
    1.4824   11.7602    0.1870 H   0  0  0  0  0  0  0  0  0  0  0  0
    1.6485   13.9760   -1.1176 H   0  0  0  0  0  0  0  0  0  0  0  0
    3.1042   13.2817   -0.2296 H   0  0  0  0  0  0  0  0  0  0  0  0
    3.5704   14.3003   -2.6154 H   0  0  0  0  0  0  0  0  0  0  0  0
    2.5603   10.4663   -3.3763 H   0  0  0  0  0  0  0  0  0  0  0  0
    5.3564   10.2811   -2.0947 H   0  0  0  0  0  0  0  0  0  0  0  0
    4.3231    8.8971   -2.6670 H   0  0  0  0  0  0  0  0  0  0  0  0
    6.1361    9.4352   -4.2635 H   0  0  0  0  0  0  0  0  0  0  0  0
    4.4867    9.6822   -4.9588 H   0  0  0  0  0  0  0  0  0  0  0  0
    5.8830   11.5169   -5.6191 H   0  0  0  0  0  0  0  0  0  0  0  0
    6.3840   12.7910   -3.3440 H   0  0  0  0  0  0  0  0  0  0  0  0
    2.3768   11.9170   -5.1312 H   0  0  0  0  0  0  0  0  0  0  0  0
    3.2378   13.0845   -6.1906 H   0  0  0  0  0  0  0  0  0  0  0  0
    3.7130   11.3523   -6.1906 H   0  0  0  0  0  0  0  0  0  0  0  0
    5.0632   14.3926   -3.6937 H   0  0  0  0  0  0  0  0  0  0  0  0
    5.8298   13.8710   -5.2322 H   0  0  0  0  0  0  0  0  0  0  0  0
    4.1402   14.4806   -5.2322 H   0  0  0  0  0  0  0  0  0  0  0  0
    3.2238   10.5739    0.8424 H   0  0  0  0  0  0  0  0  0  0  0  0
    4.2657    9.5878   -0.2388 H   0  0  0  0  0  0  0  0  0  0  0  0
    4.4115   11.3782   -0.2388 H   0  0  0  0  0  0  0  0  0  0  0  0
    2.4391    8.5423   -1.8734 H   0  0  0  0  0  0  0  0  0  0  0  0
    1.7906    8.9683   -0.1906 H   0  0  0  0  0  0  0  0  0  0  0  0
    0.4268    9.4020   -2.8622 H   0  0  0  0  0  0  0  0  0  0  0  0
   -0.0530    8.2950   -1.5160 H   0  0  0  0  0  0  0  0  0  0  0  0
   -0.2510   11.0325    0.9678 H   0  0  0  0  0  0  0  0  0  0  0  0
   -1.4531    9.7286    0.6823 H   0  0  0  0  0  0  0  0  0  0  0  0
    0.3023    9.3476    0.6823 H   0  0  0  0  0  0  0  0  0  0  0  0
  1  2  1  0
  2  3  1  0
  3  4  1  0
  4  5  1  0
  5  6  1  0
  6  7  1  0
  7  8  1  0
  7  9  1  0
  2 10  1  0
 10 11  1  0
 11 12  1  0
 12 13  1  0
 13 14  1  6
 13 15  1  0
 15 16  1  0
 16 17  1  0
 17 18  2  0
 18 19  1  0
 19 20  1  0
 20 21  1  0
 21 22  1  0
 22 23  1  0
 22 24  1  0
 24 25  1  0
 24 26  1  0
 19 27  1  0
 27 28  1  1
 27 29  1  0
 29 30  1  0
 30 31  1  0
 31 32  1  1
  7  5  1  0
 31 10  1  0
 31 13  1  0
 27 15  1  0
 24 18  1  0
  1 33  1  0
  1 34  1  0
  1 35  1  0
  2 36  1  6
  3 37  1  0
  3 38  1  0
  4 39  1  0
  4 40  1  0
  5 41  1  1
  8 42  1  0
  8 43  1  0
  8 44  1  0
  9 45  1  0
  9 46  1  0
  9 47  1  0
 10 48  1  6
 11 49  1  0
 11 50  1  0
 12 51  1  0
 12 52  1  0
 14 53  1  0
 14 54  1  0
 14 55  1  0
 15 56  1  1
 16 57  1  0
 16 58  1  0
 17 59  1  0
 19 60  1  6
 20 61  1  0
 20 62  1  0
 21 63  1  0
 21 64  1  0
 22 65  1  6
 23 66  1  0
 25 67  1  0
 25 68  1  0
 25 69  1  0
 26 70  1  0
 26 71  1  0
 26 72  1  0
 28 73  1  0
 28 74  1  0
 28 75  1  0
 29 76  1  0
 29 77  1  0
 30 78  1  0
 30 79  1  0
 32 80  1  0
 32 81  1  0
 32 82  1  0
M  END
>  <meeko>  (10) 
{"is_sidechain": [false], "intermolecular_energy": 2.731, "internal_energy": -0.839}

$$$$
EPH_relaxed_0001_pdb2pqr_Repair_159_r2_0001_out
     RDKit          3D

 82 86  0  0  0  0  0  0  0  0999 V2000
    1.4200   17.3420   -0.4710 C   0  0  0  0  0  0  0  0  0  0  0  0
    1.6900   17.1470   -1.9650 C   0  0  2  0  0  0  0  0  0  0  0  0
    0.6430   17.8630   -2.8420 C   0  0  0  0  0  0  0  0  0  0  0  0
    0.1320   19.1760   -2.2430 C   0  0  0  0  0  0  0  0  0  0  0  0
   -1.1520   18.9810   -1.4940 C   0  0  2  0  0  0  0  0  0  0  0  0
   -1.8730   20.1880   -1.2170 O   0  0  0  0  0  0  0  0  0  0  0  0
   -1.3760   19.4710   -0.0760 C   0  0  0  0  0  0  0  0  0  0  0  0
   -0.3050   20.1940    0.6780 C   0  0  0  0  0  0  0  0  0  0  0  0
   -2.4490   18.8240    0.7430 C   0  0  0  0  0  0  0  0  0  0  0  0
    1.7200   15.6600   -2.2990 C   0  0  1  0  0  0  0  0  0  0  0  0
    3.0260   15.2360   -3.0220 C   0  0  0  0  0  0  0  0  0  0  0  0
    3.3620   13.8040   -2.5350 C   0  0  0  0  0  0  0  0  0  0  0  0
    2.0800   13.3260   -1.8130 C   0  0  1  0  0  0  0  0  0  0  0  0
    1.1310   12.8490   -2.9570 C   0  0  0  0  0  0  0  0  0  0  0  0
    2.2720   12.2210   -0.7240 C   0  0  2  0  0  0  0  0  0  0  0  0
    2.8270   10.8830   -1.2420 C   0  0  0  0  0  0  0  0  0  0  0  0
    1.7980    9.8880   -1.6680 C   0  0  0  0  0  0  0  0  0  0  0  0
    0.4860    9.9460   -1.3750 C   0  0  0  0  0  0  0  0  0  0  0  0
   -0.0690   11.0420   -0.4560 C   0  0  1  0  0  0  0  0  0  0  0  0
   -1.0230   10.4070    0.5900 C   0  0  0  0  0  0  0  0  0  0  0  0
   -2.1260    9.5730   -0.0550 C   0  0  0  0  0  0  0  0  0  0  0  0
   -1.5350    8.4580   -0.9140 C   0  0  2  0  0  0  0  0  0  0  0  0
   -0.8640    7.5250   -0.0610 O   0  0  0  0  0  0  0  0  0  0  0  0
   -0.5490    8.9770   -1.9980 C   0  0  0  0  0  0  0  0  0  0  0  0
   -1.3350    9.7420   -3.0920 C   0  0  0  0  0  0  0  0  0  0  0  0
    0.0810    7.7440   -2.6990 C   0  0  0  0  0  0  0  0  0  0  0  0
    1.0100   12.0020    0.2060 C   0  0  1  0  0  0  0  0  0  0  0  0
    1.5380   11.3750    1.5330 C   0  0  0  0  0  0  0  0  0  0  0  0
    0.3160   13.3590    0.6020 C   0  0  0  0  0  0  0  0  0  0  0  0
    0.2650   14.4550   -0.4800 C   0  0  0  0  0  0  0  0  0  0  0  0
    1.6430   14.6640   -1.1140 C   0  0  2  0  0  0  0  0  0  0  0  0
    2.6150   15.1660    0.0080 C   0  0  0  0  0  0  0  0  0  0  0  0
    2.1759   16.7961    0.1125 H   0  0  0  0  0  0  0  0  0  0  0  0
    1.4709   18.4131   -0.2259 H   0  0  0  0  0  0  0  0  0  0  0  0
    0.4192   16.9569   -0.2259 H   0  0  0  0  0  0  0  0  0  0  0  0
    2.6693   17.5968   -2.1856 H   0  0  0  0  0  0  0  0  0  0  0  0
    1.0992   18.0814   -3.8188 H   0  0  0  0  0  0  0  0  0  0  0  0
   -0.2224   17.1890   -2.9239 H   0  0  0  0  0  0  0  0  0  0  0  0
    0.8910   19.5720   -1.5523 H   0  0  0  0  0  0  0  0  0  0  0  0
   -0.0555   19.8792   -3.0678 H   0  0  0  0  0  0  0  0  0  0  0  0
   -1.3075   18.0013   -1.9694 H   0  0  0  0  0  0  0  0  0  0  0  0
   -0.4757   20.0788    1.7585 H   0  0  0  0  0  0  0  0  0  0  0  0
    0.6766   19.7730    0.4149 H   0  0  0  0  0  0  0  0  0  0  0  0
   -0.3284   21.2618    0.4149 H   0  0  0  0  0  0  0  0  0  0  0  0
   -2.2259   18.9585    1.8117 H   0  0  0  0  0  0  0  0  0  0  0  0
   -3.4186   19.2882    0.5096 H   0  0  0  0  0  0  0  0  0  0  0  0
   -2.4910   17.7499    0.5096 H   0  0  0  0  0  0  0  0  0  0  0  0
    0.8082   15.5896   -2.9103 H   0  0  0  0  0  0  0  0  0  0  0  0
    2.8741   15.2397   -4.1115 H   0  0  0  0  0  0  0  0  0  0  0  0
    3.8466   15.9327   -2.7959 H   0  0  0  0  0  0  0  0  0  0  0  0
    3.5949   13.1487   -3.3873 H   0  0  0  0  0  0  0  0  0  0  0  0
    4.2434   13.7834   -1.8771 H   0  0  0  0  0  0  0  0  0  0  0  0
    0.2290   12.3956   -2.5201 H   0  0  0  0  0  0  0  0  0  0  0  0
    0.8443   13.7101   -3.5785 H   0  0  0  0  0  0  0  0  0  0  0  0
    1.6510   12.1051   -3.5785 H   0  0  0  0  0  0  0  0  0  0  0  0
    3.0648   12.6480   -0.0922 H   0  0  0  0  0  0  0  0  0  0  0  0
    3.4734   11.0949   -2.1065 H   0  0  0  0  0  0  0  0  0  0  0  0
    3.3600   10.4262   -0.3951 H   0  0  0  0  0  0  0  0  0  0  0  0
    2.1417    9.0356   -2.2724 H   0  0  0  0  0  0  0  0  0  0  0  0
   -0.6319   11.7282   -1.1058 H   0  0  0  0  0  0  0  0  0  0  0  0
   -0.4347    9.7589    1.2563 H   0  0  0  0  0  0  0  0  0  0  0  0
   -1.5044   11.2264    1.1440 H   0  0  0  0  0  0  0  0  0  0  0  0
   -2.7489    9.1274    0.7346 H   0  0  0  0  0  0  0  0  0  0  0  0
   -2.7313   10.2286   -0.6983 H   0  0  0  0  0  0  0  0  0  0  0  0
   -2.3672    7.9787   -1.4503 H   0  0  0  0  0  0  0  0  0  0  0  0
   -0.4870    8.0250    0.6820 H   0  0  0  0  0  0  0  0  0  0  0  0
   -2.0459   10.4339   -2.6167 H   0  0  0  0  0  0  0  0  0  0  0  0
   -0.6322   10.3113   -3.7181 H   0  0  0  0  0  0  0  0  0  0  0  0
   -1.8850    9.0240   -3.7181 H   0  0  0  0  0  0  0  0  0  0  0  0
    0.4430    7.0356   -1.9393 H   0  0  0  0  0  0  0  0  0  0  0  0
   -0.6765    7.2526   -3.3273 H   0  0  0  0  0  0  0  0  0  0  0  0
    0.9231    8.0699   -3.3273 H   0  0  0  0  0  0  0  0  0  0  0  0
    1.0938   11.9025    2.3900 H   0  0  0  0  0  0  0  0  0  0  0  0
    1.2593   10.3116    1.5724 H   0  0  0  0  0  0  0  0  0  0  0  0
    2.6333   11.4687    1.5724 H   0  0  0  0  0  0  0  0  0  0  0  0
   -0.7198   13.1304    0.8932 H   0  0  0  0  0  0  0  0  0  0  0  0
    0.9394   13.7772    1.4061 H   0  0  0  0  0  0  0  0  0  0  0  0
   -0.4491   14.1561   -1.2615 H   0  0  0  0  0  0  0  0  0  0  0  0
   -0.0512   15.3977   -0.0096 H   0  0  0  0  0  0  0  0  0  0  0  0
    2.1827   14.9427    0.9945 H   0  0  0  0  0  0  0  0  0  0  0  0
    3.5844   14.6558   -0.0915 H   0  0  0  0  0  0  0  0  0  0  0  0
    2.7602   16.2518   -0.0915 H   0  0  0  0  0  0  0  0  0  0  0  0
  1  2  1  0
  2  3  1  0
  3  4  1  0
  4  5  1  0
  5  6  1  0
  6  7  1  0
  7  8  1  0
  7  9  1  0
  2 10  1  0
 10 11  1  0
 11 12  1  0
 12 13  1  0
 13 14  1  6
 13 15  1  0
 15 16  1  0
 16 17  1  0
 17 18  2  0
 18 19  1  0
 19 20  1  0
 20 21  1  0
 21 22  1  0
 22 23  1  0
 22 24  1  0
 24 25  1  0
 24 26  1  0
 19 27  1  0
 27 28  1  1
 27 29  1  0
 29 30  1  0
 30 31  1  0
 31 32  1  1
  7  5  1  0
 31 10  1  0
 31 13  1  0
 27 15  1  0
 24 18  1  0
  1 33  1  0
  1 34  1  0
  1 35  1  0
  2 36  1  6
  3 37  1  0
  3 38  1  0
  4 39  1  0
  4 40  1  0
  5 41  1  1
  8 42  1  0
  8 43  1  0
  8 44  1  0
  9 45  1  0
  9 46  1  0
  9 47  1  0
 10 48  1  6
 11 49  1  0
 11 50  1  0
 12 51  1  0
 12 52  1  0
 14 53  1  0
 14 54  1  0
 14 55  1  0
 15 56  1  1
 16 57  1  0
 16 58  1  0
 17 59  1  0
 19 60  1  6
 20 61  1  0
 20 62  1  0
 21 63  1  0
 21 64  1  0
 22 65  1  6
 23 66  1  0
 25 67  1  0
 25 68  1  0
 25 69  1  0
 26 70  1  0
 26 71  1  0
 26 72  1  0
 28 73  1  0
 28 74  1  0
 28 75  1  0
 29 76  1  0
 29 77  1  0
 30 78  1  0
 30 79  1  0
 32 80  1  0
 32 81  1  0
 32 82  1  0
M  END
>  <meeko>  (11) 
{"is_sidechain": [false], "intermolecular_energy": 2.731, "internal_energy": -0.839}

$$$$
EPH_relaxed_0001_pdb2pqr_Repair_159_r2_0001_out
     RDKit          3D

 82 86  0  0  0  0  0  0  0  0999 V2000
   -3.7640    6.9090   -2.3640 C   0  0  0  0  0  0  0  0  0  0  0  0
   -4.4160    7.7330   -1.2500 C   0  0  2  0  0  0  0  0  0  0  0  0
   -5.8720    8.1120   -1.5840 C   0  0  0  0  0  0  0  0  0  0  0  0
   -6.8880    7.0230   -1.2320 C   0  0  0  0  0  0  0  0  0  0  0  0
   -7.8340    7.4720   -0.1590 C   0  0  2  0  0  0  0  0  0  0  0  0
   -8.4210    6.4100    0.6040 O   0  0  0  0  0  0  0  0  0  0  0  0
   -9.3250    7.1960   -0.1890 C   0  0  0  0  0  0  0  0  0  0  0  0
   -9.9570    6.4420   -1.3170 C   0  0  0  0  0  0  0  0  0  0  0  0
  -10.2310    8.0720    0.6190 C   0  0  0  0  0  0  0  0  0  0  0  0
   -3.5970    8.9910   -0.9860 C   0  0  1  0  0  0  0  0  0  0  0  0
   -3.8620    9.5920    0.4200 C   0  0  0  0  0  0  0  0  0  0  0  0
   -2.5170   10.1860    0.9130 C   0  0  0  0  0  0  0  0  0  0  0  0
   -1.6160   10.2060   -0.3430 C   0  0  1  0  0  0  0  0  0  0  0  0
   -2.0410   11.4900   -1.1230 C   0  0  0  0  0  0  0  0  0  0  0  0
   -0.0740   10.1710   -0.0870 C   0  0  2  0  0  0  0  0  0  0  0  0
    0.4870   11.3750    0.6880 C   0  0  0  0  0  0  0  0  0  0  0  0
    0.9370   12.5230   -0.1540 C   0  0  0  0  0  0  0  0  0  0  0  0
    1.1590   12.4790   -1.4810 C   0  0  0  0  0  0  0  0  0  0  0  0
    1.0520   11.1590   -2.2540 C   0  0  1  0  0  0  0  0  0  0  0  0
    2.2800   11.0070   -3.1910 C   0  0  0  0  0  0  0  0  0  0  0  0
    2.4650   12.2090   -4.1120 C   0  0  0  0  0  0  0  0  0  0  0  0
    2.6260   13.4950   -3.3050 C   0  0  2  0  0  0  0  0  0  0  0  0
    3.8590   13.4340   -2.5810 O   0  0  0  0  0  0  0  0  0  0  0  0
    1.4520   13.7490   -2.3180 C   0  0  0  0  0  0  0  0  0  0  0  0
    0.1740   14.1140   -3.1120 C   0  0  0  0  0  0  0  0  0  0  0  0
    1.8060   14.9990   -1.4670 C   0  0  0  0  0  0  0  0  0  0  0  0
    0.7900    9.8600   -1.3760 C   0  0  1  0  0  0  0  0  0  0  0  0
    2.1460    9.2750   -0.8740 C   0  0  0  0  0  0  0  0  0  0  0  0
    0.1370    8.7510   -2.2820 C   0  0  0  0  0  0  0  0  0  0  0  0
   -1.3990    8.7650   -2.3990 C   0  0  0  0  0  0  0  0  0  0  0  0
   -2.0540    8.8550   -1.0170 C   0  0  2  0  0  0  0  0  0  0  0  0
   -1.6620    7.5660   -0.2180 C   0  0  0  0  0  0  0  0  0  0  0  0
   -3.1398    6.1201   -1.9191 H   0  0  0  0  0  0  0  0  0  0  0  0
   -4.5463    6.4502   -2.9865 H   0  0  0  0  0  0  0  0  0  0  0  0
   -3.1376    7.5648   -2.9865 H   0  0  0  0  0  0  0  0  0  0  0  0
   -4.4375    7.1074   -0.3455 H   0  0  0  0  0  0  0  0  0  0  0  0
   -6.1310    9.0226   -1.0238 H   0  0  0  0  0  0  0  0  0  0  0  0
   -5.9238    8.2598   -2.6728 H   0  0  0  0  0  0  0  0  0  0  0  0
   -7.4656    6.7699   -2.1332 H   0  0  0  0  0  0  0  0  0  0  0  0
   -6.3364    6.1478   -0.8581 H   0  0  0  0  0  0  0  0  0  0  0  0
   -7.2580    8.3964   -0.0054 H   0  0  0  0  0  0  0  0  0  0  0  0
  -10.6139    5.6583   -0.9116 H   0  0  0  0  0  0  0  0  0  0  0  0
  -10.5491    7.1337   -1.9342 H   0  0  0  0  0  0  0  0  0  0  0  0
   -9.1725    5.9798   -1.9342 H   0  0  0  0  0  0  0  0  0  0  0  0
  -10.0505    7.8975    1.6900 H   0  0  0  0  0  0  0  0  0  0  0  0
  -10.0298    9.1268    0.3804 H   0  0  0  0  0  0  0  0  0  0  0  0
  -11.2784    7.8354    0.3804 H   0  0  0  0  0  0  0  0  0  0  0  0
   -3.9369    9.6121   -1.8278 H   0  0  0  0  0  0  0  0  0  0  0  0
   -4.6246   10.3822    0.3566 H   0  0  0  0  0  0  0  0  0  0  0  0
   -4.2329    8.8238    1.1145 H   0  0  0  0  0  0  0  0  0  0  0  0
   -2.6619   11.2042    1.3032 H   0  0  0  0  0  0  0  0  0  0  0  0
   -2.0771    9.5989    1.7327 H   0  0  0  0  0  0  0  0  0  0  0  0
   -2.3036   12.2834   -0.4078 H   0  0  0  0  0  0  0  0  0  0  0  0
   -1.2068   11.8278   -1.7554 H   0  0  0  0  0  0  0  0  0  0  0  0
   -2.9121   11.2634   -1.7554 H   0  0  0  0  0  0  0  0  0  0  0  0
    0.0331    9.3074    0.5858 H   0  0  0  0  0  0  0  0  0  0  0  0
   -0.2990   11.7387    1.3662 H   0  0  0  0  0  0  0  0  0  0  0  0
    1.3845   11.0098    1.2087 H   0  0  0  0  0  0  0  0  0  0  0  0
    1.1009   13.4856    0.3526 H   0  0  0  0  0  0  0  0  0  0  0  0
    0.1318   11.2308   -2.8524 H   0  0  0  0  0  0  0  0  0  0  0  0
    3.1831   10.8937   -2.5733 H   0  0  0  0  0  0  0  0  0  0  0  0
    2.1096   10.1240   -3.8244 H   0  0  0  0  0  0  0  0  0  0  0  0
    3.3634   12.0557   -4.7280 H   0  0  0  0  0  0  0  0  0  0  0  0
    1.5734   12.3036   -4.7492 H   0  0  0  0  0  0  0  0  0  0  0  0
    2.6249   14.3338   -4.0166 H   0  0  0  0  0  0  0  0  0  0  0  0
    3.6490   13.5160   -1.6350 H   0  0  0  0  0  0  0  0  0  0  0  0
   -0.6401   14.3465   -2.4097 H   0  0  0  0  0  0  0  0  0  0  0  0
    0.3737   14.9910   -3.7452 H   0  0  0  0  0  0  0  0  0  0  0  0
   -0.1196   13.2638   -3.7452 H   0  0  0  0  0  0  0  0  0  0  0  0
    1.7347   14.7473   -0.3985 H   0  0  0  0  0  0  0  0  0  0  0  0
    2.8312   15.3228   -1.6999 H   0  0  0  0  0  0  0  0  0  0  0  0
    1.1028   15.8122   -1.6999 H   0  0  0  0  0  0  0  0  0  0  0  0
    2.1583    9.2697    0.2259 H   0  0  0  0  0  0  0  0  0  0  0  0
    2.2622    8.2467   -1.2469 H   0  0  0  0  0  0  0  0  0  0  0  0
    2.9738    9.8960   -1.2469 H   0  0  0  0  0  0  0  0  0  0  0  0
    0.5490    8.8643   -3.2956 H   0  0  0  0  0  0  0  0  0  0  0  0
    0.3794    7.7977   -1.7897 H   0  0  0  0  0  0  0  0  0  0  0  0
   -1.7061    9.6337   -2.9999 H   0  0  0  0  0  0  0  0  0  0  0  0
   -1.7224    7.8301   -2.8799 H   0  0  0  0  0  0  0  0  0  0  0  0
   -1.7242    7.7704    0.8611 H   0  0  0  0  0  0  0  0  0  0  0  0
   -2.3526    6.7499   -0.4770 H   0  0  0  0  0  0  0  0  0  0  0  0
   -0.6340    7.2725   -0.4770 H   0  0  0  0  0  0  0  0  0  0  0  0
  1  2  1  0
  2  3  1  0
  3  4  1  0
  4  5  1  0
  5  6  1  0
  6  7  1  0
  7  8  1  0
  7  9  1  0
  2 10  1  0
 10 11  1  0
 11 12  1  0
 12 13  1  0
 13 14  1  6
 13 15  1  0
 15 16  1  0
 16 17  1  0
 17 18  2  0
 18 19  1  0
 19 20  1  0
 20 21  1  0
 21 22  1  0
 22 23  1  0
 22 24  1  0
 24 25  1  0
 24 26  1  0
 19 27  1  0
 27 28  1  1
 27 29  1  0
 29 30  1  0
 30 31  1  0
 31 32  1  1
  7  5  1  0
 31 10  1  0
 31 13  1  0
 27 15  1  0
 24 18  1  0
  1 33  1  0
  1 34  1  0
  1 35  1  0
  2 36  1  1
  3 37  1  0
  3 38  1  0
  4 39  1  0
  4 40  1  0
  5 41  1  1
  8 42  1  0
  8 43  1  0
  8 44  1  0
  9 45  1  0
  9 46  1  0
  9 47  1  0
 10 48  1  6
 11 49  1  0
 11 50  1  0
 12 51  1  0
 12 52  1  0
 14 53  1  0
 14 54  1  0
 14 55  1  0
 15 56  1  1
 16 57  1  0
 16 58  1  0
 17 59  1  0
 19 60  1  6
 20 61  1  0
 20 62  1  0
 21 63  1  0
 21 64  1  0
 22 65  1  6
 23 66  1  0
 25 67  1  0
 25 68  1  0
 25 69  1  0
 26 70  1  0
 26 71  1  0
 26 72  1  0
 28 73  1  0
 28 74  1  0
 28 75  1  0
 29 76  1  0
 29 77  1  0
 30 78  1  0
 30 79  1  0
 32 80  1  0
 32 81  1  0
 32 82  1  0
M  END
>  <meeko>  (12) 
{"is_sidechain": [false], "intermolecular_energy": 2.731, "internal_energy": -0.839}

$$$$
EPH_relaxed_0001_pdb2pqr_Repair_159_r2_0001_out
     RDKit          3D

 82 86  0  0  0  0  0  0  0  0999 V2000
   -2.7950    9.7290    0.3740 C   0  0  0  0  0  0  0  0  0  0  0  0
   -1.3400    9.9050    0.8190 C   0  0  2  0  0  0  0  0  0  0  0  0
   -1.1160   11.2410    1.5550 C   0  0  0  0  0  0  0  0  0  0  0  0
    0.0590   11.2140    2.5360 C   0  0  0  0  0  0  0  0  0  0  0  0
    0.2260   12.5280    3.2370 C   0  0  2  0  0  0  0  0  0  0  0  0
    0.6240   12.4280    4.6110 O   0  0  0  0  0  0  0  0  0  0  0  0
   -0.6730   12.9940    4.3670 C   0  0  0  0  0  0  0  0  0  0  0  0
   -1.8080   12.1520    4.8590 C   0  0  0  0  0  0  0  0  0  0  0  0
   -0.7550   14.4600    4.6580 C   0  0  0  0  0  0  0  0  0  0  0  0
   -0.4130    9.8130   -0.3870 C   0  0  1  0  0  0  0  0  0  0  0  0
   -0.9900    8.9210   -1.5180 C   0  0  0  0  0  0  0  0  0  0  0  0
   -0.5400    9.5530   -2.8600 C   0  0  0  0  0  0  0  0  0  0  0  0
    0.5450   10.5810   -2.4630 C   0  0  1  0  0  0  0  0  0  0  0  0
    1.8460    9.7390   -2.2770 C   0  0  0  0  0  0  0  0  0  0  0  0
    0.7640   11.7720   -3.4510 C   0  0  2  0  0  0  0  0  0  0  0  0
    1.2470   11.3730   -4.8570 C   0  0  0  0  0  0  0  0  0  0  0  0
    2.7290   11.3230   -5.0320 C   0  0  0  0  0  0  0  0  0  0  0  0
    3.6340   11.8580   -4.1910 C   0  0  0  0  0  0  0  0  0  0  0  0
    3.1900   12.6830   -2.9770 C   0  0  1  0  0  0  0  0  0  0  0  0
    4.0310   13.9840   -2.9000 C   0  0  0  0  0  0  0  0  0  0  0  0
    5.5320   13.7120   -2.9030 C   0  0  0  0  0  0  0  0  0  0  0  0
    5.9440   12.9410   -4.1550 C   0  0  2  0  0  0  0  0  0  0  0  0
    5.7530   13.7800   -5.2970 O   0  0  0  0  0  0  0  0  0  0  0  0
    5.1560   11.6140   -4.3430 C   0  0  0  0  0  0  0  0  0  0  0  0
    5.5940   10.5910   -3.2670 C   0  0  0  0  0  0  0  0  0  0  0  0
    5.5650   11.0060   -5.7120 C   0  0  0  0  0  0  0  0  0  0  0  0
    1.6290   12.9570   -2.8570 C   0  0  1  0  0  0  0  0  0  0  0  0
    1.2500   14.2340   -3.6670 C   0  0  0  0  0  0  0  0  0  0  0  0
    1.2740   13.2620   -1.3540 C   0  0  0  0  0  0  0  0  0  0  0  0
    0.9510   12.0520   -0.4570 C   0  0  0  0  0  0  0  0  0  0  0  0
   -0.0740   11.1320   -1.1270 C   0  0  2  0  0  0  0  0  0  0  0  0
   -1.4020   11.9450   -1.3060 C   0  0  0  0  0  0  0  0  0  0  0  0
   -3.4424    9.6507    1.2598 H   0  0  0  0  0  0  0  0  0  0  0  0
   -3.1016   10.5966   -0.2287 H   0  0  0  0  0  0  0  0  0  0  0  0
   -2.8859    8.8133   -0.2287 H   0  0  0  0  0  0  0  0  0  0  0  0
   -1.1100    9.0952    1.5271 H   0  0  0  0  0  0  0  0  0  0  0  0
   -0.9244   12.0227    0.8051 H   0  0  0  0  0  0  0  0  0  0  0  0
   -2.0229   11.4387    2.1452 H   0  0  0  0  0  0  0  0  0  0  0  0
   -0.1210   10.4300    3.2863 H   0  0  0  0  0  0  0  0  0  0  0  0
    0.9773   11.0104    1.9657 H   0  0  0  0  0  0  0  0  0  0  0  0
    0.5484   13.0115    2.3030 H   0  0  0  0  0  0  0  0  0  0  0  0
   -1.8123   12.1488    5.9590 H   0  0  0  0  0  0  0  0  0  0  0  0
   -2.7582   12.5654    4.4898 H   0  0  0  0  0  0  0  0  0  0  0  0
   -1.6879   11.1228    4.4898 H   0  0  0  0  0  0  0  0  0  0  0  0
   -0.7638   14.6178    5.7466 H   0  0  0  0  0  0  0  0  0  0  0  0
    0.1160   14.9699    4.2206 H   0  0  0  0  0  0  0  0  0  0  0  0
   -1.6775   14.8696    4.2206 H   0  0  0  0  0  0  0  0  0  0  0  0
    0.4875    9.4150    0.1037 H   0  0  0  0  0  0  0  0  0  0  0  0
   -0.5969    7.8973   -1.4308 H   0  0  0  0  0  0  0  0  0  0  0  0
   -2.0868    8.8651   -1.4560 H   0  0  0  0  0  0  0  0  0  0  0  0
   -0.1223    8.7865   -3.5294 H   0  0  0  0  0  0  0  0  0  0  0  0
   -1.3760   10.0178   -3.4032 H   0  0  0  0  0  0  0  0  0  0  0  0
    2.0479    9.6083   -1.2036 H   0  0  0  0  0  0  0  0  0  0  0  0
    1.7155    8.7536   -2.7482 H   0  0  0  0  0  0  0  0  0  0  0  0
    2.6915   10.2616   -2.7482 H   0  0  0  0  0  0  0  0  0  0  0  0
   -0.2572   12.1585   -3.5843 H   0  0  0  0  0  0  0  0  0  0  0  0
    0.8441   10.3750   -5.0843 H   0  0  0  0  0  0  0  0  0  0  0  0
    0.8867   12.1590   -5.5370 H   0  0  0  0  0  0  0  0  0  0  0  0
    3.1138   10.8055   -5.9231 H   0  0  0  0  0  0  0  0  0  0  0  0
    3.3890   12.0567   -2.0949 H   0  0  0  0  0  0  0  0  0  0  0  0
    3.7853   14.6144   -3.7673 H   0  0  0  0  0  0  0  0  0  0  0  0
    3.7846   14.4849   -1.9522 H   0  0  0  0  0  0  0  0  0  0  0  0
    6.0716   14.6702   -2.8763 H   0  0  0  0  0  0  0  0  0  0  0  0
    5.7809   13.1059   -2.0194 H   0  0  0  0  0  0  0  0  0  0  0  0
    7.0023   12.6641   -4.0391 H   0  0  0  0  0  0  0  0  0  0  0  0
    5.1170   14.4730   -5.0510 H   0  0  0  0  0  0  0  0  0  0  0  0
    5.4140   11.0114   -2.2666 H   0  0  0  0  0  0  0  0  0  0  0  0
    5.0140    9.6638   -3.3849 H   0  0  0  0  0  0  0  0  0  0  0  0
    6.6653   10.3708   -3.3849 H   0  0  0  0  0  0  0  0  0  0  0  0
    6.1719   10.1038   -5.5459 H   0  0  0  0  0  0  0  0  0  0  0  0
    4.6612   10.7405   -6.2800 H   0  0  0  0  0  0  0  0  0  0  0  0
    6.1516   11.7431   -6.2800 H   0  0  0  0  0  0  0  0  0  0  0  0
    1.0076   15.0509   -2.9714 H   0  0  0  0  0  0  0  0  0  0  0  0
    2.0985   14.5316   -4.3006 H   0  0  0  0  0  0  0  0  0  0  0  0
    0.3765   14.0205   -4.3006 H   0  0  0  0  0  0  0  0  0  0  0  0
    2.1326   13.7862   -0.9091 H   0  0  0  0  0  0  0  0  0  0  0  0
    0.3443   13.8488   -1.3913 H   0  0  0  0  0  0  0  0  0  0  0  0
    1.8752   11.4855   -0.2701 H   0  0  0  0  0  0  0  0  0  0  0  0
    0.5272   12.4196    0.4892 H   0  0  0  0  0  0  0  0  0  0  0  0
   -1.8137   12.1970   -0.3176 H   0  0  0  0  0  0  0  0  0  0  0  0
   -1.1932   12.8703   -1.8630 H   0  0  0  0  0  0  0  0  0  0  0  0
   -2.1311   11.3383   -1.8630 H   0  0  0  0  0  0  0  0  0  0  0  0
  1  2  1  0
  2  3  1  0
  3  4  1  0
  4  5  1  0
  5  6  1  0
  6  7  1  0
  7  8  1  0
  7  9  1  0
  2 10  1  0
 10 11  1  0
 11 12  1  0
 12 13  1  0
 13 14  1  1
 13 15  1  0
 15 16  1  0
 16 17  1  0
 17 18  2  0
 18 19  1  0
 19 20  1  0
 20 21  1  0
 21 22  1  0
 22 23  1  0
 22 24  1  0
 24 25  1  0
 24 26  1  0
 19 27  1  0
 27 28  1  6
 27 29  1  0
 29 30  1  0
 30 31  1  0
 31 32  1  6
  7  5  1  0
 31 10  1  0
 31 13  1  0
 27 15  1  0
 24 18  1  0
  1 33  1  0
  1 34  1  0
  1 35  1  0
  2 36  1  1
  3 37  1  0
  3 38  1  0
  4 39  1  0
  4 40  1  0
  5 41  1  6
  8 42  1  0
  8 43  1  0
  8 44  1  0
  9 45  1  0
  9 46  1  0
  9 47  1  0
 10 48  1  1
 11 49  1  0
 11 50  1  0
 12 51  1  0
 12 52  1  0
 14 53  1  0
 14 54  1  0
 14 55  1  0
 15 56  1  6
 16 57  1  0
 16 58  1  0
 17 59  1  0
 19 60  1  1
 20 61  1  0
 20 62  1  0
 21 63  1  0
 21 64  1  0
 22 65  1  1
 23 66  1  0
 25 67  1  0
 25 68  1  0
 25 69  1  0
 26 70  1  0
 26 71  1  0
 26 72  1  0
 28 73  1  0
 28 74  1  0
 28 75  1  0
 29 76  1  0
 29 77  1  0
 30 78  1  0
 30 79  1  0
 32 80  1  0
 32 81  1  0
 32 82  1  0
M  END
>  <meeko>  (13) 
{"is_sidechain": [false], "intermolecular_energy": 2.731, "internal_energy": -0.839}

$$$$
EPH_relaxed_0001_pdb2pqr_Repair_159_r2_0001_out
     RDKit          3D

 82 86  0  0  0  0  0  0  0  0999 V2000
   -0.1850   10.4840   -3.9650 C   0  0  0  0  0  0  0  0  0  0  0  0
    0.9300   10.2950   -2.9320 C   0  0  2  0  0  0  0  0  0  0  0  0
    0.7780    8.9750   -2.1500 C   0  0  0  0  0  0  0  0  0  0  0  0
   -0.6710    8.6340   -1.7920 C   0  0  0  0  0  0  0  0  0  0  0  0
   -0.9820    8.9660   -0.3640 C   0  0  2  0  0  0  0  0  0  0  0  0
   -2.3810    9.0090   -0.0510 O   0  0  0  0  0  0  0  0  0  0  0  0
   -1.6660   10.2500    0.0660 C   0  0  0  0  0  0  0  0  0  0  0  0
   -2.0790   11.2860   -0.9310 C   0  0  0  0  0  0  0  0  0  0  0  0
   -1.4920   10.7140    1.4790 C   0  0  0  0  0  0  0  0  0  0  0  0
    0.9490   11.4740   -1.9670 C   0  0  1  0  0  0  0  0  0  0  0  0
    1.9050   11.2460   -0.7650 C   0  0  0  0  0  0  0  0  0  0  0  0
    2.5190   12.6260   -0.4140 C   0  0  0  0  0  0  0  0  0  0  0  0
    1.6570   13.6460   -1.1940 C   0  0  1  0  0  0  0  0  0  0  0  0
    0.3820   13.8490   -0.3170 C   0  0  0  0  0  0  0  0  0  0  0  0
    2.3430   15.0080   -1.5400 C   0  0  2  0  0  0  0  0  0  0  0  0
    2.7620   15.8540   -0.3250 C   0  0  0  0  0  0  0  0  0  0  0  0
    1.7330   16.8180    0.1660 C   0  0  0  0  0  0  0  0  0  0  0  0
    0.6350   17.2020   -0.5110 C   0  0  0  0  0  0  0  0  0  0  0  0
    0.3910   16.7290   -1.9500 C   0  0  1  0  0  0  0  0  0  0  0  0
   -0.0310   17.9360   -2.8280 C   0  0  0  0  0  0  0  0  0  0  0  0
   -1.2260   18.6900   -2.2510 C   0  0  0  0  0  0  0  0  0  0  0  0
   -0.9240   19.1950   -0.8430 C   0  0  2  0  0  0  0  0  0  0  0  0
    0.0970   20.1940   -0.9200 O   0  0  0  0  0  0  0  0  0  0  0  0
   -0.4780   18.0670    0.1300 C   0  0  0  0  0  0  0  0  0  0  0  0
   -1.6840   17.1490    0.4500 C   0  0  0  0  0  0  0  0  0  0  0  0
   -0.0690   18.7300    1.4730 C   0  0  0  0  0  0  0  0  0  0  0  0
    1.5600   15.8760   -2.6060 C   0  0  1  0  0  0  0  0  0  0  0  0
    2.6080   16.8260   -3.2630 C   0  0  0  0  0  0  0  0  0  0  0  0
    0.9650   14.9980   -3.7710 C   0  0  0  0  0  0  0  0  0  0  0  0
    0.4110   13.6140   -3.3840 C   0  0  0  0  0  0  0  0  0  0  0  0
    1.4160   12.8420   -2.5240 C   0  0  2  0  0  0  0  0  0  0  0  0
    2.7020   12.6030   -3.3880 C   0  0  0  0  0  0  0  0  0  0  0  0
   -1.1415   10.6461   -3.4466 H   0  0  0  0  0  0  0  0  0  0  0  0
    0.0430   11.3563   -4.5952 H   0  0  0  0  0  0  0  0  0  0  0  0
   -0.2572    9.5853   -4.5952 H   0  0  0  0  0  0  0  0  0  0  0  0
    1.8837   10.2470   -3.4781 H   0  0  0  0  0  0  0  0  0  0  0  0
    1.1850    8.1586   -2.7647 H   0  0  0  0  0  0  0  0  0  0  0  0
    1.3223    9.0989   -1.2021 H   0  0  0  0  0  0  0  0  0  0  0  0
   -1.3442    9.2075   -2.4461 H   0  0  0  0  0  0  0  0  0  0  0  0
   -0.8131    7.5522   -1.9313 H   0  0  0  0  0  0  0  0  0  0  0  0
   -0.0607    8.4710   -0.0230 H   0  0  0  0  0  0  0  0  0  0  0  0
   -2.4362   12.1820   -0.4022 H   0  0  0  0  0  0  0  0  0  0  0  0
   -1.2180   11.5515   -1.5620 H   0  0  0  0  0  0  0  0  0  0  0  0
   -2.8865   10.8863   -1.5620 H   0  0  0  0  0  0  0  0  0  0  0  0
   -1.7930    9.9113    2.1682 H   0  0  0  0  0  0  0  0  0  0  0  0
   -0.4366   10.9704    1.6534 H   0  0  0  0  0  0  0  0  0  0  0  0
   -2.1185   11.6012    1.6534 H   0  0  0  0  0  0  0  0  0  0  0  0
   -0.1193   11.5183   -1.7087 H   0  0  0  0  0  0  0  0  0  0  0  0
    1.3446   10.8509    0.0951 H   0  0  0  0  0  0  0  0  0  0  0  0
    2.6894   10.5171   -1.0168 H   0  0  0  0  0  0  0  0  0  0  0  0
    2.4589   12.8139    0.6682 H   0  0  0  0  0  0  0  0  0  0  0  0
    3.5841   12.6890   -0.6814 H   0  0  0  0  0  0  0  0  0  0  0  0
    0.6580   13.8051    0.7469 H   0  0  0  0  0  0  0  0  0  0  0  0
   -0.0641   14.8295   -0.5399 H   0  0  0  0  0  0  0  0  0  0  0  0
   -0.3465   13.0555   -0.5399 H   0  0  0  0  0  0  0  0  0  0  0  0
    3.2800   14.6856   -2.0176 H   0  0  0  0  0  0  0  0  0  0  0  0
    3.0056   15.1677    0.4994 H   0  0  0  0  0  0  0  0  0  0  0  0
    3.6154   16.4630   -0.6579 H   0  0  0  0  0  0  0  0  0  0  0  0
    1.8852   17.2510    1.1657 H   0  0  0  0  0  0  0  0  0  0  0  0
   -0.4327   16.0020   -1.8957 H   0  0  0  0  0  0  0  0  0  0  0  0
    0.8192   18.6295   -2.9062 H   0  0  0  0  0  0  0  0  0  0  0  0
   -0.3266   17.5453   -3.8129 H   0  0  0  0  0  0  0  0  0  0  0  0
   -1.4574   19.5480   -2.8993 H   0  0  0  0  0  0  0  0  0  0  0  0
   -2.0838   18.0032   -2.2012 H   0  0  0  0  0  0  0  0  0  0  0  0
   -1.8570   19.6111   -0.4352 H   0  0  0  0  0  0  0  0  0  0  0  0
    0.8910   19.7760   -1.2940 H   0  0  0  0  0  0  0  0  0  0  0  0
   -1.7990   17.0615    1.5405 H   0  0  0  0  0  0  0  0  0  0  0  0
   -2.5987   17.5815    0.0184 H   0  0  0  0  0  0  0  0  0  0  0  0
   -1.5107   16.1522    0.0184 H   0  0  0  0  0  0  0  0  0  0  0  0
   -0.4434   18.1231    2.3105 H   0  0  0  0  0  0  0  0  0  0  0  0
    1.0275   18.7968    1.5300 H   0  0  0  0  0  0  0  0  0  0  0  0
   -0.5013   19.7399    1.5300 H   0  0  0  0  0  0  0  0  0  0  0  0
    3.1781   17.3428   -2.4769 H   0  0  0  0  0  0  0  0  0  0  0  0
    3.2958   16.2372   -3.8878 H   0  0  0  0  0  0  0  0  0  0  0  0
    2.0893   17.5681   -3.8878 H   0  0  0  0  0  0  0  0  0  0  0  0
    0.1446   15.5679   -4.2316 H   0  0  0  0  0  0  0  0  0  0  0  0
    1.8145   14.7916   -4.4386 H   0  0  0  0  0  0  0  0  0  0  0  0
   -0.5219   13.7458   -2.8163 H   0  0  0  0  0  0  0  0  0  0  0  0
    0.2241   13.0412   -4.3043 H   0  0  0  0  0  0  0  0  0  0  0  0
    3.5648   12.4427   -2.7247 H   0  0  0  0  0  0  0  0  0  0  0  0
    2.5577   11.7163   -4.0228 H   0  0  0  0  0  0  0  0  0  0  0  0
    2.8859   13.4823   -4.0228 H   0  0  0  0  0  0  0  0  0  0  0  0
  1  2  1  0
  2  3  1  0
  3  4  1  0
  4  5  1  0
  5  6  1  0
  6  7  1  0
  7  8  1  0
  7  9  1  0
  2 10  1  0
 10 11  1  0
 11 12  1  0
 12 13  1  0
 13 14  1  1
 13 15  1  0
 15 16  1  0
 16 17  1  0
 17 18  2  0
 18 19  1  0
 19 20  1  0
 20 21  1  0
 21 22  1  0
 22 23  1  0
 22 24  1  0
 24 25  1  0
 24 26  1  0
 19 27  1  0
 27 28  1  6
 27 29  1  0
 29 30  1  0
 30 31  1  0
 31 32  1  6
  7  5  1  0
 31 10  1  0
 31 13  1  0
 27 15  1  0
 24 18  1  0
  1 33  1  0
  1 34  1  0
  1 35  1  0
  2 36  1  6
  3 37  1  0
  3 38  1  0
  4 39  1  0
  4 40  1  0
  5 41  1  1
  8 42  1  0
  8 43  1  0
  8 44  1  0
  9 45  1  0
  9 46  1  0
  9 47  1  0
 10 48  1  1
 11 49  1  0
 11 50  1  0
 12 51  1  0
 12 52  1  0
 14 53  1  0
 14 54  1  0
 14 55  1  0
 15 56  1  6
 16 57  1  0
 16 58  1  0
 17 59  1  0
 19 60  1  1
 20 61  1  0
 20 62  1  0
 21 63  1  0
 21 64  1  0
 22 65  1  1
 23 66  1  0
 25 67  1  0
 25 68  1  0
 25 69  1  0
 26 70  1  0
 26 71  1  0
 26 72  1  0
 28 73  1  0
 28 74  1  0
 28 75  1  0
 29 76  1  0
 29 77  1  0
 30 78  1  0
 30 79  1  0
 32 80  1  0
 32 81  1  0
 32 82  1  0
M  END
>  <meeko>  (14) 
{"is_sidechain": [false], "intermolecular_energy": 2.731, "internal_energy": -0.839}

$$$$
EPH_relaxed_0001_pdb2pqr_Repair_159_r2_0001_out
     RDKit          3D

 82 86  0  0  0  0  0  0  0  0999 V2000
    0.5570    8.9940    0.1510 C   0  0  0  0  0  0  0  0  0  0  0  0
   -0.6590    9.9240    0.1670 C   0  0  2  0  0  0  0  0  0  0  0  0
   -1.3850    9.9550   -1.1920 C   0  0  0  0  0  0  0  0  0  0  0  0
   -0.6040    9.2800   -2.3230 C   0  0  0  0  0  0  0  0  0  0  0  0
   -0.4220   10.1960   -3.4950 C   0  0  2  0  0  0  0  0  0  0  0  0
    0.1860    9.5870   -4.6420 O   0  0  0  0  0  0  0  0  0  0  0  0
    0.9360   10.6370   -4.0090 C   0  0  0  0  0  0  0  0  0  0  0  0
    2.2030   10.1750   -3.3610 C   0  0  0  0  0  0  0  0  0  0  0  0
    1.0200   11.8920   -4.8220 C   0  0  0  0  0  0  0  0  0  0  0  0
   -0.2300   11.3330    0.5610 C   0  0  1  0  0  0  0  0  0  0  0  0
    0.6800   11.3510    1.8180 C   0  0  0  0  0  0  0  0  0  0  0  0
    1.6990   12.5020    1.6160 C   0  0  0  0  0  0  0  0  0  0  0  0
    1.1410   13.3120    0.4230 C   0  0  1  0  0  0  0  0  0  0  0  0
    0.0380   14.2280    1.0410 C   0  0  0  0  0  0  0  0  0  0  0  0
    2.1830   14.1370   -0.4000 C   0  0  2  0  0  0  0  0  0  0  0  0
    2.9060   15.2450    0.3870 C   0  0  0  0  0  0  0  0  0  0  0  0
    2.2440   16.5820    0.3600 C   0  0  0  0  0  0  0  0  0  0  0  0
    1.2750   16.9580   -0.4960 C   0  0  0  0  0  0  0  0  0  0  0  0
    0.8180   16.0270   -1.6270 C   0  0  1  0  0  0  0  0  0  0  0  0
    0.7290   16.8280   -2.9520 C   0  0  0  0  0  0  0  0  0  0  0  0
   -0.1490   18.0700   -2.8280 C   0  0  0  0  0  0  0  0  0  0  0  0
    0.3710   18.9980   -1.7340 C   0  0  2  0  0  0  0  0  0  0  0  0
    1.6390   19.5230   -2.1390 O   0  0  0  0  0  0  0  0  0  0  0  0
    0.5120   18.2980   -0.3530 C   0  0  0  0  0  0  0  0  0  0  0  0
   -0.8930   17.9980    0.2250 C   0  0  0  0  0  0  0  0  0  0  0  0
    1.1780   19.3030    0.6260 C   0  0  0  0  0  0  0  0  0  0  0  0
    1.6370   14.6750   -1.7840 C   0  0  1  0  0  0  0  0  0  0  0  0
    2.8820   14.9090   -2.6930 C   0  0  0  0  0  0  0  0  0  0  0  0
    0.7400   13.6140   -2.5260 C   0  0  0  0  0  0  0  0  0  0  0  0
   -0.1810   12.7470   -1.6460 C   0  0  0  0  0  0  0  0  0  0  0  0
    0.5940   12.1410   -0.4720 C   0  0  2  0  0  0  0  0  0  0  0  0
    1.6960   11.1970   -1.0620 C   0  0  0  0  0  0  0  0  0  0  0  0
    0.8568    8.7647    1.1842 H   0  0  0  0  0  0  0  0  0  0  0  0
    0.2983    8.0611   -0.3713 H   0  0  0  0  0  0  0  0  0  0  0  0
    1.3896    9.4880   -0.3713 H   0  0  0  0  0  0  0  0  0  0  0  0
   -1.3676    9.5292    0.9100 H   0  0  0  0  0  0  0  0  0  0  0  0
   -2.3508    9.4401   -1.0815 H   0  0  0  0  0  0  0  0  0  0  0  0
   -1.5025   11.0129   -1.4695 H   0  0  0  0  0  0  0  0  0  0  0  0
    0.3857    8.9836   -1.9452 H   0  0  0  0  0  0  0  0  0  0  0  0
   -1.1767    8.4031   -2.6591 H   0  0  0  0  0  0  0  0  0  0  0  0
   -1.3274   10.7596   -3.2254 H   0  0  0  0  0  0  0  0  0  0  0  0
    2.0915   10.2157   -2.2674 H   0  0  0  0  0  0  0  0  0  0  0  0
    2.4168    9.1410   -3.6696 H   0  0  0  0  0  0  0  0  0  0  0  0
    3.0322   10.8286   -3.6696 H   0  0  0  0  0  0  0  0  0  0  0  0
    1.0782   12.7610   -4.1501 H   0  0  0  0  0  0  0  0  0  0  0  0
    1.9179   11.8584   -5.4565 H   0  0  0  0  0  0  0  0  0  0  0  0
    0.1256   11.9784   -5.4565 H   0  0  0  0  0  0  0  0  0  0  0  0
   -1.2190   11.7948    0.6974 H   0  0  0  0  0  0  0  0  0  0  0  0
    0.0769   11.5329    2.7197 H   0  0  0  0  0  0  0  0  0  0  0  0
    1.1936   10.3870    1.9476 H   0  0  0  0  0  0  0  0  0  0  0  0
    1.7594   13.1298    2.5173 H   0  0  0  0  0  0  0  0  0  0  0  0
    2.7169   12.1298    1.4279 H   0  0  0  0  0  0  0  0  0  0  0  0
    0.0948   14.1809    2.1385 H   0  0  0  0  0  0  0  0  0  0  0  0
    0.1949   15.2652    0.7099 H   0  0  0  0  0  0  0  0  0  0  0  0
   -0.9528   13.8833    0.7099 H   0  0  0  0  0  0  0  0  0  0  0  0
    2.9505   13.3836   -0.6307 H   0  0  0  0  0  0  0  0  0  0  0  0
    2.9800   14.9235    1.4364 H   0  0  0  0  0  0  0  0  0  0  0  0
    3.8818   15.3788   -0.1028 H   0  0  0  0  0  0  0  0  0  0  0  0
    2.5756   17.3231    1.1021 H   0  0  0  0  0  0  0  0  0  0  0  0
   -0.1815   15.6673   -1.3412 H   0  0  0  0  0  0  0  0  0  0  0  0
    1.7425   17.1405   -3.2437 H   0  0  0  0  0  0  0  0  0  0  0  0
    0.2738   16.1719   -3.7085 H   0  0  0  0  0  0  0  0  0  0  0  0
   -0.1486   18.6085   -3.7872 H   0  0  0  0  0  0  0  0  0  0  0  0
   -1.1693   17.7540   -2.5649 H   0  0  0  0  0  0  0  0  0  0  0  0
   -0.3685   19.8019   -1.6041 H   0  0  0  0  0  0  0  0  0  0  0  0
    1.5110   19.9770   -2.9890 H   0  0  0  0  0  0  0  0  0  0  0  0
   -0.8471   18.0078    1.3240 H   0  0  0  0  0  0  0  0  0  0  0  0
   -1.6025   18.7649   -0.1192 H   0  0  0  0  0  0  0  0  0  0  0  0
   -1.2274   17.0082   -0.1192 H   0  0  0  0  0  0  0  0  0  0  0  0
    0.9741   18.9953    1.6622 H   0  0  0  0  0  0  0  0  0  0  0  0
    2.2645   19.3166    0.4546 H   0  0  0  0  0  0  0  0  0  0  0  0
    0.7671   20.3089    0.4546 H   0  0  0  0  0  0  0  0  0  0  0  0
    3.7690   15.0757   -2.0642 H   0  0  0  0  0  0  0  0  0  0  0  0
    3.0436   14.0255   -3.3281 H   0  0  0  0  0  0  0  0  0  0  0  0
    2.7118   15.7909   -3.3281 H   0  0  0  0  0  0  0  0  0  0  0  0
    0.1035   14.1572   -3.2400 H   0  0  0  0  0  0  0  0  0  0  0  0
    1.4482   12.9083   -2.9847 H   0  0  0  0  0  0  0  0  0  0  0  0
   -0.9970   13.3720   -1.2542 H   0  0  0  0  0  0  0  0  0  0  0  0
   -0.5840   11.9283   -2.2602 H   0  0  0  0  0  0  0  0  0  0  0  0
    2.2506   10.7219   -0.2394 H   0  0  0  0  0  0  0  0  0  0  0  0
    1.2213   10.4210   -1.6805 H   0  0  0  0  0  0  0  0  0  0  0  0
    2.3899   11.7852   -1.6805 H   0  0  0  0  0  0  0  0  0  0  0  0
  1  2  1  0
  2  3  1  0
  3  4  1  0
  4  5  1  0
  5  6  1  0
  6  7  1  0
  7  8  1  0
  7  9  1  0
  2 10  1  0
 10 11  1  0
 11 12  1  0
 12 13  1  0
 13 14  1  1
 13 15  1  0
 15 16  1  0
 16 17  1  0
 17 18  2  0
 18 19  1  0
 19 20  1  0
 20 21  1  0
 21 22  1  0
 22 23  1  0
 22 24  1  0
 24 25  1  0
 24 26  1  0
 19 27  1  0
 27 28  1  6
 27 29  1  0
 29 30  1  0
 30 31  1  0
 31 32  1  6
  7  5  1  0
 31 10  1  0
 31 13  1  0
 27 15  1  0
 24 18  1  0
  1 33  1  0
  1 34  1  0
  1 35  1  0
  2 36  1  1
  3 37  1  0
  3 38  1  0
  4 39  1  0
  4 40  1  0
  5 41  1  6
  8 42  1  0
  8 43  1  0
  8 44  1  0
  9 45  1  0
  9 46  1  0
  9 47  1  0
 10 48  1  1
 11 49  1  0
 11 50  1  0
 12 51  1  0
 12 52  1  0
 14 53  1  0
 14 54  1  0
 14 55  1  0
 15 56  1  6
 16 57  1  0
 16 58  1  0
 17 59  1  0
 19 60  1  1
 20 61  1  0
 20 62  1  0
 21 63  1  0
 21 64  1  0
 22 65  1  1
 23 66  1  0
 25 67  1  0
 25 68  1  0
 25 69  1  0
 26 70  1  0
 26 71  1  0
 26 72  1  0
 28 73  1  0
 28 74  1  0
 28 75  1  0
 29 76  1  0
 29 77  1  0
 30 78  1  0
 30 79  1  0
 32 80  1  0
 32 81  1  0
 32 82  1  0
M  END
>  <meeko>  (15) 
{"is_sidechain": [false], "intermolecular_energy": 2.731, "internal_energy": -0.839}

$$$$
EPH_relaxed_0001_pdb2pqr_Repair_159_r2_0001_out
     RDKit          3D

 82 86  0  0  0  0  0  0  0  0999 V2000
    3.2260   10.2840   -3.6360 C   0  0  0  0  0  0  0  0  0  0  0  0
    2.6420   11.2030   -4.7130 C   0  0  2  0  0  0  0  0  0  0  0  0
    3.7390   11.9610   -5.4870 C   0  0  0  0  0  0  0  0  0  0  0  0
    4.9020   12.4270   -4.6070 C   0  0  0  0  0  0  0  0  0  0  0  0
    6.1550   11.6530   -4.8890 C   0  0  2  0  0  0  0  0  0  0  0  0
    5.9760   10.2330   -4.9670 O   0  0  0  0  0  0  0  0  0  0  0  0
    6.7980   10.7110   -3.8890 C   0  0  0  0  0  0  0  0  0  0  0  0
    6.2080   10.4920   -2.5310 C   0  0  0  0  0  0  0  0  0  0  0  0
    8.2500   10.3820   -4.0480 C   0  0  0  0  0  0  0  0  0  0  0  0
    1.6710   12.1930   -4.0810 C   0  0  1  0  0  0  0  0  0  0  0  0
    0.2480   11.6010   -3.8990 C   0  0  0  0  0  0  0  0  0  0  0  0
   -0.3230   12.2030   -2.5890 C   0  0  0  0  0  0  0  0  0  0  0  0
    0.6420   13.3600   -2.2390 C   0  0  1  0  0  0  0  0  0  0  0  0
    0.1800   14.5520   -3.1350 C   0  0  0  0  0  0  0  0  0  0  0  0
    0.7140   13.7670   -0.7310 C   0  0  2  0  0  0  0  0  0  0  0  0
   -0.6010   14.2970   -0.1340 C   0  0  0  0  0  0  0  0  0  0  0  0
   -0.7970   15.7730   -0.2320 C   0  0  0  0  0  0  0  0  0  0  0  0
    0.1640   16.6720   -0.5180 C   0  0  0  0  0  0  0  0  0  0  0  0
    1.6260   16.2380   -0.6800 C   0  0  1  0  0  0  0  0  0  0  0  0
    2.5440   17.2030    0.1150 C   0  0  0  0  0  0  0  0  0  0  0  0
    2.3240   18.6640   -0.2630 C   0  0  0  0  0  0  0  0  0  0  0  0
    0.8720   19.0750   -0.0330 C   0  0  2  0  0  0  0  0  0  0  0  0
    0.6030   19.0480    1.3730 O   0  0  0  0  0  0  0  0  0  0  0  0
   -0.1460   18.1670   -0.7770 C   0  0  0  0  0  0  0  0  0  0  0  0
   -0.0560   18.4250   -2.3020 C   0  0  0  0  0  0  0  0  0  0  0  0
   -1.5740   18.6000   -0.3480 C   0  0  0  0  0  0  0  0  0  0  0  0
    1.9340   14.7090   -0.3720 C   0  0  1  0  0  0  0  0  0  0  0  0
    2.2100   14.5190    1.1510 C   0  0  0  0  0  0  0  0  0  0  0  0
    3.2550   14.2900   -1.1190 C   0  0  0  0  0  0  0  0  0  0  0  0
    3.1040   13.7840   -2.5660 C   0  0  0  0  0  0  0  0  0  0  0  0
    2.0110   12.7150   -2.6620 C   0  0  2  0  0  0  0  0  0  0  0  0
    2.4590   11.4940   -1.7880 C   0  0  0  0  0  0  0  0  0  0  0  0
    2.9747   10.6795   -2.6408 H   0  0  0  0  0  0  0  0  0  0  0  0
    2.8034    9.2745   -3.7468 H   0  0  0  0  0  0  0  0  0  0  0  0
    4.3194   10.2379   -3.7468 H   0  0  0  0  0  0  0  0  0  0  0  0
    2.1076   10.5683   -5.4353 H   0  0  0  0  0  0  0  0  0  0  0  0
    4.1381   11.2947   -6.2660 H   0  0  0  0  0  0  0  0  0  0  0  0
    3.2713   12.8638   -5.9067 H   0  0  0  0  0  0  0  0  0  0  0  0
    5.0905   13.4933   -4.8004 H   0  0  0  0  0  0  0  0  0  0  0  0
    4.6250   12.2602   -3.5556 H   0  0  0  0  0  0  0  0  0  0  0  0
    6.5607   12.4813   -5.4885 H   0  0  0  0  0  0  0  0  0  0  0  0
    6.9456   10.7658   -1.7623 H   0  0  0  0  0  0  0  0  0  0  0  0
    5.3098   11.1166   -2.4164 H   0  0  0  0  0  0  0  0  0  0  0  0
    5.9349    9.4326   -2.4164 H   0  0  0  0  0  0  0  0  0  0  0  0
    8.7130   10.2771   -3.0557 H   0  0  0  0  0  0  0  0  0  0  0  0
    8.3534    9.4377   -4.6026 H   0  0  0  0  0  0  0  0  0  0  0  0
    8.7504   11.1895   -4.6026 H   0  0  0  0  0  0  0  0  0  0  0  0
    1.7423   13.0128   -4.8110 H   0  0  0  0  0  0  0  0  0  0  0  0
   -0.3891   11.8773   -4.7520 H   0  0  0  0  0  0  0  0  0  0  0  0
    0.2809   10.5027   -3.8474 H   0  0  0  0  0  0  0  0  0  0  0  0
   -1.3430   12.5827   -2.7483 H   0  0  0  0  0  0  0  0  0  0  0  0
   -0.3915   11.4581   -1.7825 H   0  0  0  0  0  0  0  0  0  0  0  0
   -0.1436   15.3870   -2.4962 H   0  0  0  0  0  0  0  0  0  0  0  0
    1.0165   14.8790   -3.7701 H   0  0  0  0  0  0  0  0  0  0  0  0
   -0.6584   14.2299   -3.7701 H   0  0  0  0  0  0  0  0  0  0  0  0
    0.8985   12.8027   -0.2350 H   0  0  0  0  0  0  0  0  0  0  0  0
   -1.4343   13.8079   -0.6598 H   0  0  0  0  0  0  0  0  0  0  0  0
   -0.5617   14.0662    0.9408 H   0  0  0  0  0  0  0  0  0  0  0  0
   -1.8118   16.1592   -0.0558 H   0  0  0  0  0  0  0  0  0  0  0  0
    1.8480   16.3129   -1.7547 H   0  0  0  0  0  0  0  0  0  0  0  0
    2.3375   17.0816    1.1886 H   0  0  0  0  0  0  0  0  0  0  0  0
    3.5862   16.9486   -0.1283 H   0  0  0  0  0  0  0  0  0  0  0  0
    2.9792   19.2976    0.3528 H   0  0  0  0  0  0  0  0  0  0  0  0
    2.5593   18.7895   -1.3302 H   0  0  0  0  0  0  0  0  0  0  0  0
    0.7464   20.0882   -0.4424 H   0  0  0  0  0  0  0  0  0  0  0  0
    0.3140   19.9390    1.6340 H   0  0  0  0  0  0  0  0  0  0  0  0
    0.3015   19.4499   -2.4800 H   0  0  0  0  0  0  0  0  0  0  0  0
    0.6452   17.7083   -2.7544 H   0  0  0  0  0  0  0  0  0  0  0  0
   -1.0508   18.2999   -2.7544 H   0  0  0  0  0  0  0  0  0  0  0  0
   -1.6370   18.6191    0.7500 H   0  0  0  0  0  0  0  0  0  0  0  0
   -1.7877   19.6033   -0.7450 H   0  0  0  0  0  0  0  0  0  0  0  0
   -2.3090   17.8843   -0.7450 H   0  0  0  0  0  0  0  0  0  0  0  0
    1.4406   15.0487    1.7319 H   0  0  0  0  0  0  0  0  0  0  0  0
    2.1828   13.4474    1.3977 H   0  0  0  0  0  0  0  0  0  0  0  0
    3.2013   14.9270    1.3977 H   0  0  0  0  0  0  0  0  0  0  0  0
    3.9176   15.1677   -1.1408 H   0  0  0  0  0  0  0  0  0  0  0  0
    3.6457   13.4314   -0.5531 H   0  0  0  0  0  0  0  0  0  0  0  0
    2.8382   14.6299   -3.2171 H   0  0  0  0  0  0  0  0  0  0  0  0
    4.0586   13.3389   -2.8833 H   0  0  0  0  0  0  0  0  0  0  0  0
    2.3646   11.7513   -0.7227 H   0  0  0  0  0  0  0  0  0  0  0  0
    1.8203   10.6274   -2.0139 H   0  0  0  0  0  0  0  0  0  0  0  0
    3.5066   11.2461   -2.0139 H   0  0  0  0  0  0  0  0  0  0  0  0
  1  2  1  0
  2  3  1  0
  3  4  1  0
  4  5  1  0
  5  6  1  0
  6  7  1  0
  7  8  1  0
  7  9  1  0
  2 10  1  0
 10 11  1  0
 11 12  1  0
 12 13  1  0
 13 14  1  6
 13 15  1  0
 15 16  1  0
 16 17  1  0
 17 18  2  0
 18 19  1  0
 19 20  1  0
 20 21  1  0
 21 22  1  0
 22 23  1  0
 22 24  1  0
 24 25  1  0
 24 26  1  0
 19 27  1  0
 27 28  1  1
 27 29  1  0
 29 30  1  0
 30 31  1  0
 31 32  1  1
  7  5  1  0
 31 10  1  0
 31 13  1  0
 27 15  1  0
 24 18  1  0
  1 33  1  0
  1 34  1  0
  1 35  1  0
  2 36  1  6
  3 37  1  0
  3 38  1  0
  4 39  1  0
  4 40  1  0
  5 41  1  6
  8 42  1  0
  8 43  1  0
  8 44  1  0
  9 45  1  0
  9 46  1  0
  9 47  1  0
 10 48  1  6
 11 49  1  0
 11 50  1  0
 12 51  1  0
 12 52  1  0
 14 53  1  0
 14 54  1  0
 14 55  1  0
 15 56  1  1
 16 57  1  0
 16 58  1  0
 17 59  1  0
 19 60  1  6
 20 61  1  0
 20 62  1  0
 21 63  1  0
 21 64  1  0
 22 65  1  6
 23 66  1  0
 25 67  1  0
 25 68  1  0
 25 69  1  0
 26 70  1  0
 26 71  1  0
 26 72  1  0
 28 73  1  0
 28 74  1  0
 28 75  1  0
 29 76  1  0
 29 77  1  0
 30 78  1  0
 30 79  1  0
 32 80  1  0
 32 81  1  0
 32 82  1  0
M  END
>  <meeko>  (16) 
{"is_sidechain": [false], "intermolecular_energy": 2.731, "internal_energy": -0.839}

$$$$
EPH_relaxed_0001_pdb2pqr_Repair_159_r2_0001_out
     RDKit          3D

 82 86  0  0  0  0  0  0  0  0999 V2000
   -0.6090    9.3090   -2.5780 C   0  0  0  0  0  0  0  0  0  0  0  0
    0.4010   10.3460   -3.0760 C   0  0  2  0  0  0  0  0  0  0  0  0
    1.7930    9.7300   -3.3230 C   0  0  0  0  0  0  0  0  0  0  0  0
    2.7580   10.6640   -4.0580 C   0  0  0  0  0  0  0  0  0  0  0  0
    4.1850   10.2460   -3.8700 C   0  0  2  0  0  0  0  0  0  0  0  0
    4.8950   10.9770   -2.8610 O   0  0  0  0  0  0  0  0  0  0  0  0
    5.3690   11.1320   -4.2090 C   0  0  0  0  0  0  0  0  0  0  0  0
    5.1780   12.5080   -4.7660 C   0  0  0  0  0  0  0  0  0  0  0  0
    6.6960   10.4880   -4.4600 C   0  0  0  0  0  0  0  0  0  0  0  0
    0.5090   11.4900   -2.0740 C   0  0  1  0  0  0  0  0  0  0  0  0
    1.5110   11.1870   -0.9280 C   0  0  0  0  0  0  0  0  0  0  0  0
    2.1900   12.5320   -0.5610 C   0  0  0  0  0  0  0  0  0  0  0  0
    1.3310   13.6080   -1.2650 C   0  0  1  0  0  0  0  0  0  0  0  0
    0.1070   13.8240   -0.3210 C   0  0  0  0  0  0  0  0  0  0  0  0
    2.0490   14.9560   -1.5980 C   0  0  2  0  0  0  0  0  0  0  0  0
    2.5540   15.7450   -0.3770 C   0  0  0  0  0  0  0  0  0  0  0  0
    1.5850   16.7260    0.1940 C   0  0  0  0  0  0  0  0  0  0  0  0
    0.4710   17.1720   -0.4170 C   0  0  0  0  0  0  0  0  0  0  0  0
    0.1430   16.7570   -1.8570 C   0  0  1  0  0  0  0  0  0  0  0  0
   -0.2750   18.0080   -2.6730 C   0  0  0  0  0  0  0  0  0  0  0  0
   -1.4130   18.7820   -2.0150 C   0  0  0  0  0  0  0  0  0  0  0  0
   -1.0270   19.2270   -0.6070 C   0  0  2  0  0  0  0  0  0  0  0  0
    0.0240   20.1930   -0.7010 O   0  0  0  0  0  0  0  0  0  0  0  0
   -0.5780   18.0520    0.3060 C   0  0  0  0  0  0  0  0  0  0  0  0
   -1.8000   17.1660    0.6520 C   0  0  0  0  0  0  0  0  0  0  0  0
   -0.0830   18.6530    1.6490 C   0  0  0  0  0  0  0  0  0  0  0  0
    1.2490   15.8870   -2.5960 C   0  0  1  0  0  0  0  0  0  0  0  0
    2.2980   16.8220   -3.2710 C   0  0  0  0  0  0  0  0  0  0  0  0
    0.5680   15.0720   -3.7590 C   0  0  0  0  0  0  0  0  0  0  0  0
   -0.0170   13.6950   -3.3920 C   0  0  0  0  0  0  0  0  0  0  0  0
    0.9990   12.8590   -2.6070 C   0  0  2  0  0  0  0  0  0  0  0  0
    2.2330   12.6060   -3.5390 C   0  0  0  0  0  0  0  0  0  0  0  0
   -0.6155    9.3023   -1.4780 H   0  0  0  0  0  0  0  0  0  0  0  0
   -1.6120    9.5664   -2.9491 H   0  0  0  0  0  0  0  0  0  0  0  0
   -0.3252    8.3131   -2.9491 H   0  0  0  0  0  0  0  0  0  0  0  0
    0.0334   10.7286   -4.0396 H   0  0  0  0  0  0  0  0  0  0  0  0
    2.2351    9.4697   -2.3500 H   0  0  0  0  0  0  0  0  0  0  0  0
    1.6454    8.8498   -3.9660 H   0  0  0  0  0  0  0  0  0  0  0  0
    2.5205   10.6486   -5.1320 H   0  0  0  0  0  0  0  0  0  0  0  0
    2.6394   11.6756   -3.6426 H   0  0  0  0  0  0  0  0  0  0  0  0
    3.9404    9.2077   -4.1383 H   0  0  0  0  0  0  0  0  0  0  0  0
    5.0781   13.2274   -3.9399 H   0  0  0  0  0  0  0  0  0  0  0  0
    6.0474   12.7774   -5.3838 H   0  0  0  0  0  0  0  0  0  0  0  0
    4.2681   12.5305   -5.3838 H   0  0  0  0  0  0  0  0  0  0  0  0
    7.1777   10.2542   -3.4991 H   0  0  0  0  0  0  0  0  0  0  0  0
    6.5508    9.5601   -5.0327 H   0  0  0  0  0  0  0  0  0  0  0  0
    7.3351   11.1762   -5.0327 H   0  0  0  0  0  0  0  0  0  0  0  0
   -0.5437   11.5628   -1.7633 H   0  0  0  0  0  0  0  0  0  0  0  0
    0.9776   10.7814   -0.0557 H   0  0  0  0  0  0  0  0  0  0  0  0
    2.2559   10.4408   -1.2414 H   0  0  0  0  0  0  0  0  0  0  0  0
    2.1866   12.6841    0.5284 H   0  0  0  0  0  0  0  0  0  0  0  0
    3.2432   12.5671   -0.8765 H   0  0  0  0  0  0  0  0  0  0  0  0
    0.4372   13.7657    0.7267 H   0  0  0  0  0  0  0  0  0  0  0  0
   -0.3333   14.8137   -0.5122 H   0  0  0  0  0  0  0  0  0  0  0  0
   -0.6455   13.0448   -0.5122 H   0  0  0  0  0  0  0  0  0  0  0  0
    2.9506   14.6179   -2.1297 H   0  0  0  0  0  0  0  0  0  0  0  0
    2.8109   15.0226    0.4118 H   0  0  0  0  0  0  0  0  0  0  0  0
    3.4121   16.3356   -0.7303 H   0  0  0  0  0  0  0  0  0  0  0  0
    1.7990   17.1180    1.1993 H   0  0  0  0  0  0  0  0  0  0  0  0
   -0.7028   16.0571   -1.7878 H   0  0  0  0  0  0  0  0  0  0  0  0
    0.5954   18.6738   -2.7684 H   0  0  0  0  0  0  0  0  0  0  0  0
   -0.6301   17.6627   -3.6552 H   0  0  0  0  0  0  0  0  0  0  0  0
   -1.6433   19.6695   -2.6226 H   0  0  0  0  0  0  0  0  0  0  0  0
   -2.2919   18.1241   -1.9468 H   0  0  0  0  0  0  0  0  0  0  0  0
   -1.9240   19.6603   -0.1405 H   0  0  0  0  0  0  0  0  0  0  0  0
    0.3120   20.4030    0.2040 H   0  0  0  0  0  0  0  0  0  0  0  0
   -1.9017   17.0922    1.7448 H   0  0  0  0  0  0  0  0  0  0  0  0
   -2.7104   17.6153    0.2285 H   0  0  0  0  0  0  0  0  0  0  0  0
   -1.6559   16.1611    0.2285 H   0  0  0  0  0  0  0  0  0  0  0  0
   -0.5365   18.1024    2.4864 H   0  0  0  0  0  0  0  0  0  0  0  0
    1.0124   18.5702    1.7061 H   0  0  0  0  0  0  0  0  0  0  0  0
   -0.3742   19.7122    1.7061 H   0  0  0  0  0  0  0  0  0  0  0  0
    2.8799   17.3407   -2.4949 H   0  0  0  0  0  0  0  0  0  0  0  0
    2.9747   16.2221   -3.8972 H   0  0  0  0  0  0  0  0  0  0  0  0
    1.7795   17.5630   -3.8972 H   0  0  0  0  0  0  0  0  0  0  0  0
   -0.2521   15.6859   -4.1597 H   0  0  0  0  0  0  0  0  0  0  0  0
    1.3768   14.8599   -4.4738 H   0  0  0  0  0  0  0  0  0  0  0  0
   -0.9170   13.8390   -2.7761 H   0  0  0  0  0  0  0  0  0  0  0  0
   -0.2673   13.1614   -4.3208 H   0  0  0  0  0  0  0  0  0  0  0  0
    3.1260   12.4229   -2.9234 H   0  0  0  0  0  0  0  0  0  0  0  0
    2.0392   11.7289   -4.1739 H   0  0  0  0  0  0  0  0  0  0  0  0
    2.4000   13.4886   -4.1739 H   0  0  0  0  0  0  0  0  0  0  0  0
  1  2  1  0
  2  3  1  0
  3  4  1  0
  4  5  1  0
  5  6  1  0
  6  7  1  0
  7  8  1  0
  7  9  1  0
  2 10  1  0
 10 11  1  0
 11 12  1  0
 12 13  1  0
 13 14  1  1
 13 15  1  0
 15 16  1  0
 16 17  1  0
 17 18  2  0
 18 19  1  0
 19 20  1  0
 20 21  1  0
 21 22  1  0
 22 23  1  0
 22 24  1  0
 24 25  1  0
 24 26  1  0
 19 27  1  0
 27 28  1  6
 27 29  1  0
 29 30  1  0
 30 31  1  0
 31 32  1  6
  7  5  1  0
 31 10  1  0
 31 13  1  0
 27 15  1  0
 24 18  1  0
  1 33  1  0
  1 34  1  0
  1 35  1  0
  2 36  1  6
  3 37  1  0
  3 38  1  0
  4 39  1  0
  4 40  1  0
  5 41  1  1
  8 42  1  0
  8 43  1  0
  8 44  1  0
  9 45  1  0
  9 46  1  0
  9 47  1  0
 10 48  1  1
 11 49  1  0
 11 50  1  0
 12 51  1  0
 12 52  1  0
 14 53  1  0
 14 54  1  0
 14 55  1  0
 15 56  1  6
 16 57  1  0
 16 58  1  0
 17 59  1  0
 19 60  1  1
 20 61  1  0
 20 62  1  0
 21 63  1  0
 21 64  1  0
 22 65  1  1
 23 66  1  0
 25 67  1  0
 25 68  1  0
 25 69  1  0
 26 70  1  0
 26 71  1  0
 26 72  1  0
 28 73  1  0
 28 74  1  0
 28 75  1  0
 29 76  1  0
 29 77  1  0
 30 78  1  0
 30 79  1  0
 32 80  1  0
 32 81  1  0
 32 82  1  0
M  END
>  <meeko>  (17) 
{"is_sidechain": [false], "intermolecular_energy": 2.731, "internal_energy": -0.839}

$$$$
EPH_relaxed_0001_pdb2pqr_Repair_159_r2_0001_out
     RDKit          3D

 82 86  0  0  0  0  0  0  0  0999 V2000
    2.9490   13.8070   -2.5740 C   0  0  0  0  0  0  0  0  0  0  0  0
    1.5890   13.7900   -3.2760 C   0  0  2  0  0  0  0  0  0  0  0  0
    0.5740   14.7320   -2.5990 C   0  0  0  0  0  0  0  0  0  0  0  0
    0.9730   16.2090   -2.6550 C   0  0  0  0  0  0  0  0  0  0  0  0
    1.1970   16.7760   -1.2860 C   0  0  2  0  0  0  0  0  0  0  0  0
    0.0190   16.8660   -0.4740 O   0  0  0  0  0  0  0  0  0  0  0  0
    0.6400   18.1110   -0.8310 C   0  0  0  0  0  0  0  0  0  0  0  0
   -0.1860   18.9630   -1.7430 C   0  0  0  0  0  0  0  0  0  0  0  0
    1.2980   18.8080    0.3190 C   0  0  0  0  0  0  0  0  0  0  0  0
    1.0390   12.3690   -3.3080 C   0  0  1  0  0  0  0  0  0  0  0  0
    2.1480   11.3030   -3.5110 C   0  0  0  0  0  0  0  0  0  0  0  0
    1.7260   10.0560   -2.6920 C   0  0  0  0  0  0  0  0  0  0  0  0
    0.2470   10.3160   -2.3210 C   0  0  1  0  0  0  0  0  0  0  0  0
   -0.5630    9.9120   -3.5930 C   0  0  0  0  0  0  0  0  0  0  0  0
   -0.2830    9.5870   -1.0430 C   0  0  2  0  0  0  0  0  0  0  0  0
   -0.2700    8.0500   -1.1160 C   0  0  0  0  0  0  0  0  0  0  0  0
   -1.5180    7.4270   -1.6470 C   0  0  0  0  0  0  0  0  0  0  0  0
   -2.7060    8.0460   -1.7830 C   0  0  0  0  0  0  0  0  0  0  0  0
   -2.9040    9.4860   -1.2910 C   0  0  1  0  0  0  0  0  0  0  0  0
   -4.2280    9.5810   -0.4880 C   0  0  0  0  0  0  0  0  0  0  0  0
   -5.4280    9.0630   -1.2750 C   0  0  0  0  0  0  0  0  0  0  0  0
   -5.2180    7.6110   -1.6960 C   0  0  2  0  0  0  0  0  0  0  0  0
   -5.2050    6.7880   -0.5260 O   0  0  0  0  0  0  0  0  0  0  0  0
   -3.9090    7.3900   -2.5050 C   0  0  0  0  0  0  0  0  0  0  0  0
   -4.0470    8.0360   -3.9050 C   0  0  0  0  0  0  0  0  0  0  0  0
   -3.7470    5.8650   -2.7450 C   0  0  0  0  0  0  0  0  0  0  0  0
   -1.6740   10.1300   -0.5180 C   0  0  1  0  0  0  0  0  0  0  0  0
   -1.7490    9.7680    0.9970 C   0  0  0  0  0  0  0  0  0  0  0  0
   -1.7760   11.6980   -0.6050 C   0  0  0  0  0  0  0  0  0  0  0  0
   -1.1290   12.3690   -1.8320 C   0  0  0  0  0  0  0  0  0  0  0  0
    0.3010   11.8620   -2.0430 C   0  0  2  0  0  0  0  0  0  0  0  0
    1.1450   12.2740   -0.7890 C   0  0  0  0  0  0  0  0  0  0  0  0
    2.7992   13.8051   -1.4843 H   0  0  0  0  0  0  0  0  0  0  0  0
    3.5238   12.9160   -2.8666 H   0  0  0  0  0  0  0  0  0  0  0  0
    3.5014   14.7121   -2.8666 H   0  0  0  0  0  0  0  0  0  0  0  0
    1.7422   14.1532   -4.3029 H   0  0  0  0  0  0  0  0  0  0  0  0
   -0.3972   14.6153   -3.1021 H   0  0  0  0  0  0  0  0  0  0  0  0
    0.5328   14.4501   -1.5365 H   0  0  0  0  0  0  0  0  0  0  0  0
    1.9015   16.3054   -3.2369 H   0  0  0  0  0  0  0  0  0  0  0  0
    0.1515   16.7680   -3.1270 H   0  0  0  0  0  0  0  0  0  0  0  0
    2.2099   16.3486   -1.2504 H   0  0  0  0  0  0  0  0  0  0  0  0
   -0.8283   19.6255   -1.1441 H   0  0  0  0  0  0  0  0  0  0  0  0
    0.4764   19.5700   -2.3776 H   0  0  0  0  0  0  0  0  0  0  0  0
   -0.8133   18.3197   -2.3776 H   0  0  0  0  0  0  0  0  0  0  0  0
    0.9123   18.3994    1.2647 H   0  0  0  0  0  0  0  0  0  0  0  0
    2.3857   18.6518    0.2687 H   0  0  0  0  0  0  0  0  0  0  0  0
    1.0795   19.8849    0.2687 H   0  0  0  0  0  0  0  0  0  0  0  0
    0.3300   12.4657   -4.1435 H   0  0  0  0  0  0  0  0  0  0  0  0
    2.2344   11.0446   -4.5767 H   0  0  0  0  0  0  0  0  0  0  0  0
    3.1254   11.6819   -3.1777 H   0  0  0  0  0  0  0  0  0  0  0  0
    1.8197    9.1430   -3.2984 H   0  0  0  0  0  0  0  0  0  0  0  0
    2.3587    9.9055   -1.8048 H   0  0  0  0  0  0  0  0  0  0  0  0
   -1.5094    9.4400   -3.2904 H   0  0  0  0  0  0  0  0  0  0  0  0
   -0.7760   10.8094   -4.1924 H   0  0  0  0  0  0  0  0  0  0  0  0
    0.0257    9.2020   -4.1924 H   0  0  0  0  0  0  0  0  0  0  0  0
    0.4702    9.8557   -0.2877 H   0  0  0  0  0  0  0  0  0  0  0  0
    0.5642    7.7475   -1.7661 H   0  0  0  0  0  0  0  0  0  0  0  0
   -0.1706    7.6967   -0.0791 H   0  0  0  0  0  0  0  0  0  0  0  0
   -1.4625    6.3720   -1.9534 H   0  0  0  0  0  0  0  0  0  0  0  0
   -2.9696   10.1099   -2.1946 H   0  0  0  0  0  0  0  0  0  0  0  0
   -4.1261    8.9862    0.4317 H   0  0  0  0  0  0  0  0  0  0  0  0
   -4.4080   10.6431   -0.2654 H   0  0  0  0  0  0  0  0  0  0  0  0
   -6.3274    9.1288   -0.6451 H   0  0  0  0  0  0  0  0  0  0  0  0
   -5.5466    9.6774   -2.1797 H   0  0  0  0  0  0  0  0  0  0  0  0
   -6.0488    7.3387   -2.3636 H   0  0  0  0  0  0  0  0  0  0  0  0
   -4.3480    6.9170   -0.0850 H   0  0  0  0  0  0  0  0  0  0  0  0
   -4.2756    9.1062   -3.7941 H   0  0  0  0  0  0  0  0  0  0  0  0
   -3.1034    7.9180   -4.4579 H   0  0  0  0  0  0  0  0  0  0  0  0
   -4.8600    7.5428   -4.4579 H   0  0  0  0  0  0  0  0  0  0  0  0
   -3.6918    5.3453   -1.7771 H   0  0  0  0  0  0  0  0  0  0  0  0
   -4.6103    5.4896   -3.3140 H   0  0  0  0  0  0  0  0  0  0  0  0
   -2.8241    5.6794   -3.3140 H   0  0  0  0  0  0  0  0  0  0  0  0
   -1.5622   10.6695    1.5991 H   0  0  0  0  0  0  0  0  0  0  0  0
   -2.7483    9.3718    1.2303 H   0  0  0  0  0  0  0  0  0  0  0  0
   -0.9894    9.0074    1.2303 H   0  0  0  0  0  0  0  0  0  0  0  0
   -2.8437   11.9626   -0.6053 H   0  0  0  0  0  0  0  0  0  0  0  0
   -1.2089   12.0719    0.2602 H   0  0  0  0  0  0  0  0  0  0  0  0
   -1.7279   12.1391   -2.7256 H   0  0  0  0  0  0  0  0  0  0  0  0
   -1.0947   13.4550   -1.6608 H   0  0  0  0  0  0  0  0  0  0  0  0
    0.5966   12.0063    0.1262 H   0  0  0  0  0  0  0  0  0  0  0  0
    2.1095   11.7454   -0.8064 H   0  0  0  0  0  0  0  0  0  0  0  0
    1.3215   13.3596   -0.8064 H   0  0  0  0  0  0  0  0  0  0  0  0
  1  2  1  0
  2  3  1  0
  3  4  1  0
  4  5  1  0
  5  6  1  0
  6  7  1  0
  7  8  1  0
  7  9  1  0
  2 10  1  0
 10 11  1  0
 11 12  1  0
 12 13  1  0
 13 14  1  6
 13 15  1  0
 15 16  1  0
 16 17  1  0
 17 18  2  0
 18 19  1  0
 19 20  1  0
 20 21  1  0
 21 22  1  0
 22 23  1  0
 22 24  1  0
 24 25  1  0
 24 26  1  0
 19 27  1  0
 27 28  1  1
 27 29  1  0
 29 30  1  0
 30 31  1  0
 31 32  1  1
  7  5  1  0
 31 10  1  0
 31 13  1  0
 27 15  1  0
 24 18  1  0
  1 33  1  0
  1 34  1  0
  1 35  1  0
  2 36  1  6
  3 37  1  0
  3 38  1  0
  4 39  1  0
  4 40  1  0
  5 41  1  1
  8 42  1  0
  8 43  1  0
  8 44  1  0
  9 45  1  0
  9 46  1  0
  9 47  1  0
 10 48  1  6
 11 49  1  0
 11 50  1  0
 12 51  1  0
 12 52  1  0
 14 53  1  0
 14 54  1  0
 14 55  1  0
 15 56  1  1
 16 57  1  0
 16 58  1  0
 17 59  1  0
 19 60  1  6
 20 61  1  0
 20 62  1  0
 21 63  1  0
 21 64  1  0
 22 65  1  6
 23 66  1  0
 25 67  1  0
 25 68  1  0
 25 69  1  0
 26 70  1  0
 26 71  1  0
 26 72  1  0
 28 73  1  0
 28 74  1  0
 28 75  1  0
 29 76  1  0
 29 77  1  0
 30 78  1  0
 30 79  1  0
 32 80  1  0
 32 81  1  0
 32 82  1  0
M  END
>  <meeko>  (18) 
{"is_sidechain": [false], "intermolecular_energy": 2.731, "internal_energy": -0.839}

$$$$
