EPH_relaxed_0001_pdb2pqr_Repair_179_r2_0001_out
     RDKit          3D

 82 86  0  0  0  0  0  0  0  0999 V2000
   -1.6470    8.6420   -1.9090 C   0  0  0  0  0  0  0  0  0  0  0  0
   -2.0350    9.1270   -0.5090 C   0  0  2  0  0  0  0  0  0  0  0  0
   -3.5410    9.4420   -0.4010 C   0  0  0  0  0  0  0  0  0  0  0  0
   -4.4260    8.1960   -0.3110 C   0  0  0  0  0  0  0  0  0  0  0  0
   -5.1410    7.9290   -1.6000 C   0  0  2  0  0  0  0  0  0  0  0  0
   -6.3340    8.7000   -1.7940 O   0  0  0  0  0  0  0  0  0  0  0  0
   -6.5100    7.2790   -1.6780 C   0  0  0  0  0  0  0  0  0  0  0  0
   -7.2440    6.8550   -0.4450 C   0  0  0  0  0  0  0  0  0  0  0  0
   -6.9150    6.6160   -2.9570 C   0  0  0  0  0  0  0  0  0  0  0  0
   -1.2170   10.3590   -0.1410 C   0  0  1  0  0  0  0  0  0  0  0  0
   -0.2120   10.0860    1.0100 C   0  0  0  0  0  0  0  0  0  0  0  0
    1.0460   10.9440    0.7180 C   0  0  0  0  0  0  0  0  0  0  0  0
    0.6000   11.9230   -0.3940 C   0  0  1  0  0  0  0  0  0  0  0  0
   -0.1570   13.0630    0.3560 C   0  0  0  0  0  0  0  0  0  0  0  0
    1.7330   12.4890   -1.3110 C   0  0  2  0  0  0  0  0  0  0  0  0
    2.7950   13.3370   -0.5890 C   0  0  0  0  0  0  0  0  0  0  0  0
    2.5050   14.8000   -0.5210 C   0  0  0  0  0  0  0  0  0  0  0  0
    1.5870   15.4500   -1.2600 C   0  0  0  0  0  0  0  0  0  0  0  0
    0.7910   14.7200   -2.3500 C   0  0  1  0  0  0  0  0  0  0  0  0
    0.7800   15.5740   -3.6440 C   0  0  0  0  0  0  0  0  0  0  0  0
    0.2730   16.9930   -3.4040 C   0  0  0  0  0  0  0  0  0  0  0  0
    1.1250   17.7070   -2.3570 C   0  0  2  0  0  0  0  0  0  0  0  0
    2.4380   17.9060   -2.8890 O   0  0  0  0  0  0  0  0  0  0  0  0
    1.2170   16.9330   -1.0120 C   0  0  0  0  0  0  0  0  0  0  0  0
   -0.1520   16.9790   -0.2900 C   0  0  0  0  0  0  0  0  0  0  0  0
    2.2170   17.6890   -0.0950 C   0  0  0  0  0  0  0  0  0  0  0  0
    1.2090   13.2100   -2.6190 C   0  0  1  0  0  0  0  0  0  0  0  0
    2.3750   13.1570   -3.6530 C   0  0  0  0  0  0  0  0  0  0  0  0
   -0.0030   12.4500   -3.2760 C   0  0  0  0  0  0  0  0  0  0  0  0
   -1.0240   11.8100   -2.3160 C   0  0  0  0  0  0  0  0  0  0  0  0
   -0.3200   10.9740   -1.2440 C   0  0  2  0  0  0  0  0  0  0  0  0
    0.4330    9.8050   -1.9670 C   0  0  0  0  0  0  0  0  0  0  0  0
   -0.9619    7.7856   -1.8236 H   0  0  0  0  0  0  0  0  0  0  0  0
   -2.5515    8.3349   -2.4545 H   0  0  0  0  0  0  0  0  0  0  0  0
   -1.1489    9.4571   -2.4545 H   0  0  0  0  0  0  0  0  0  0  0  0
   -1.8168    8.3119    0.1967 H   0  0  0  0  0  0  0  0  0  0  0  0
   -3.7047   10.0500    0.5010 H   0  0  0  0  0  0  0  0  0  0  0  0
   -3.8252    9.9720   -1.3221 H   0  0  0  0  0  0  0  0  0  0  0  0
   -3.7958    7.3282   -0.0667 H   0  0  0  0  0  0  0  0  0  0  0  0
   -5.1810    8.3678    0.4703 H   0  0  0  0  0  0  0  0  0  0  0  0
   -4.1906    7.7115   -2.1094 H   0  0  0  0  0  0  0  0  0  0  0  0
   -6.6838    7.1786    0.4447 H   0  0  0  0  0  0  0  0  0  0  0  0
   -8.2431    7.3151   -0.4366 H   0  0  0  0  0  0  0  0  0  0  0  0
   -7.3446    5.7596   -0.4366 H   0  0  0  0  0  0  0  0  0  0  0  0
   -7.4763    5.6971   -2.7320 H   0  0  0  0  0  0  0  0  0  0  0  0
   -7.5497    7.3000   -3.5396 H   0  0  0  0  0  0  0  0  0  0  0  0
   -6.0167    6.3636   -3.5396 H   0  0  0  0  0  0  0  0  0  0  0  0
   -2.0325   11.0533    0.1097 H   0  0  0  0  0  0  0  0  0  0  0  0
   -0.6531   10.3765    1.9749 H   0  0  0  0  0  0  0  0  0  0  0  0
    0.0430    9.0175    1.0666 H   0  0  0  0  0  0  0  0  0  0  0  0
    1.3583   11.4943    1.6178 H   0  0  0  0  0  0  0  0  0  0  0  0
    1.9078   10.3316    0.4142 H   0  0  0  0  0  0  0  0  0  0  0  0
   -0.0591   12.9156    1.4417 H   0  0  0  0  0  0  0  0  0  0  0  0
    0.2755   14.0353    0.0775 H   0  0  0  0  0  0  0  0  0  0  0  0
   -1.2209   13.0416    0.0775 H   0  0  0  0  0  0  0  0  0  0  0  0
    2.2514   11.5749   -1.6361 H   0  0  0  0  0  0  0  0  0  0  0  0
    2.8880   12.9608    0.4405 H   0  0  0  0  0  0  0  0  0  0  0  0
    3.7174   13.2369   -1.1798 H   0  0  0  0  0  0  0  0  0  0  0  0
    3.0910   15.3969    0.1933 H   0  0  0  0  0  0  0  0  0  0  0  0
   -0.2333   14.6186   -1.9619 H   0  0  0  0  0  0  0  0  0  0  0  0
    1.8050   15.6279   -4.0397 H   0  0  0  0  0  0  0  0  0  0  0  0
    0.0958   15.0910   -4.3571 H   0  0  0  0  0  0  0  0  0  0  0  0
    0.3168   17.5555   -4.3483 H   0  0  0  0  0  0  0  0  0  0  0  0
   -0.7624   16.9385   -3.0365 H   0  0  0  0  0  0  0  0  0  0  0  0
    0.6379   18.6676   -2.1335 H   0  0  0  0  0  0  0  0  0  0  0  0
    3.0520   17.3600   -2.3690 H   0  0  0  0  0  0  0  0  0  0  0  0
    0.0071   16.9737    0.7984 H   0  0  0  0  0  0  0  0  0  0  0  0
   -0.6877   17.8957   -0.5778 H   0  0  0  0  0  0  0  0  0  0  0  0
   -0.7480   16.1004   -0.5778 H   0  0  0  0  0  0  0  0  0  0  0  0
    1.9646   17.4982    0.9585 H   0  0  0  0  0  0  0  0  0  0  0  0
    3.2389   17.3356   -0.2970 H   0  0  0  0  0  0  0  0  0  0  0  0
    2.1557   18.7685   -0.2970 H   0  0  0  0  0  0  0  0  0  0  0  0
    3.3362   13.1133   -3.1198 H   0  0  0  0  0  0  0  0  0  0  0  0
    2.2649   12.2629   -4.2843 H   0  0  0  0  0  0  0  0  0  0  0  0
    2.3465   14.0574   -4.2843 H   0  0  0  0  0  0  0  0  0  0  0  0
   -0.5451   13.1701   -3.9066 H   0  0  0  0  0  0  0  0  0  0  0  0
    0.4470   11.6073   -3.8213 H   0  0  0  0  0  0  0  0  0  0  0  0
   -1.6059   12.6054   -1.8273 H   0  0  0  0  0  0  0  0  0  0  0  0
   -1.6852   11.1501   -2.8968 H   0  0  0  0  0  0  0  0  0  0  0  0
    0.8682    9.1293   -1.2160 H   0  0  0  0  0  0  0  0  0  0  0  0
   -0.2754    9.2462   -2.5962 H   0  0  0  0  0  0  0  0  0  0  0  0
    1.2347   10.2190   -2.5962 H   0  0  0  0  0  0  0  0  0  0  0  0
  1  2  1  0
  2  3  1  0
  3  4  1  0
  4  5  1  0
  5  6  1  0
  6  7  1  0
  7  8  1  0
  7  9  1  0
  2 10  1  0
 10 11  1  0
 11 12  1  0
 12 13  1  0
 13 14  1  1
 13 15  1  0
 15 16  1  0
 16 17  1  0
 17 18  2  0
 18 19  1  0
 19 20  1  0
 20 21  1  0
 21 22  1  0
 22 23  1  0
 22 24  1  0
 24 25  1  0
 24 26  1  0
 19 27  1  0
 27 28  1  6
 27 29  1  0
 29 30  1  0
 30 31  1  0
 31 32  1  6
  7  5  1  0
 31 10  1  0
 31 13  1  0
 27 15  1  0
 24 18  1  0
  1 33  1  0
  1 34  1  0
  1 35  1  0
  2 36  1  1
  3 37  1  0
  3 38  1  0
  4 39  1  0
  4 40  1  0
  5 41  1  6
  8 42  1  0
  8 43  1  0
  8 44  1  0
  9 45  1  0
  9 46  1  0
  9 47  1  0
 10 48  1  1
 11 49  1  0
 11 50  1  0
 12 51  1  0
 12 52  1  0
 14 53  1  0
 14 54  1  0
 14 55  1  0
 15 56  1  6
 16 57  1  0
 16 58  1  0
 17 59  1  0
 19 60  1  1
 20 61  1  0
 20 62  1  0
 21 63  1  0
 21 64  1  0
 22 65  1  1
 23 66  1  0
 25 67  1  0
 25 68  1  0
 25 69  1  0
 26 70  1  0
 26 71  1  0
 26 72  1  0
 28 73  1  0
 28 74  1  0
 28 75  1  0
 29 76  1  0
 29 77  1  0
 30 78  1  0
 30 79  1  0
 32 80  1  0
 32 81  1  0
 32 82  1  0
M  END
>  <meeko>  (1) 
{"is_sidechain": [false], "intermolecular_energy": 2.731, "internal_energy": -0.839}

$$$$
EPH_relaxed_0001_pdb2pqr_Repair_179_r2_0001_out
     RDKit          3D

 82 86  0  0  0  0  0  0  0  0999 V2000
    4.1130   17.3780   -0.0520 C   0  0  0  0  0  0  0  0  0  0  0  0
    2.7130   17.9290   -0.3390 C   0  0  2  0  0  0  0  0  0  0  0  0
    2.3230   19.0600    0.6340 C   0  0  0  0  0  0  0  0  0  0  0  0
    3.5240   19.7710    1.2630 C   0  0  0  0  0  0  0  0  0  0  0  0
    3.9050   19.1600    2.5780 C   0  0  2  0  0  0  0  0  0  0  0  0
    4.1000   20.1010    3.6410 O   0  0  0  0  0  0  0  0  0  0  0  0
    5.2600   19.3580    3.2310 C   0  0  0  0  0  0  0  0  0  0  0  0
    6.3220   20.1930    2.5880 C   0  0  0  0  0  0  0  0  0  0  0  0
    5.7200   18.3530    4.2410 C   0  0  0  0  0  0  0  0  0  0  0  0
    1.6880   16.8030   -0.2680 C   0  0  1  0  0  0  0  0  0  0  0  0
    0.2300   17.3130   -0.4210 C   0  0  0  0  0  0  0  0  0  0  0  0
   -0.5490   16.2170   -1.1910 C   0  0  0  0  0  0  0  0  0  0  0  0
    0.3840   14.9840   -1.1650 C   0  0  1  0  0  0  0  0  0  0  0  0
    0.1550   14.3380    0.2380 C   0  0  0  0  0  0  0  0  0  0  0  0
    0.1900   13.9450   -2.3170 C   0  0  2  0  0  0  0  0  0  0  0  0
   -1.1880   13.2620   -2.3540 C   0  0  0  0  0  0  0  0  0  0  0  0
   -1.2930   11.9940   -1.5730 C   0  0  0  0  0  0  0  0  0  0  0  0
   -0.2560   11.2760   -1.1050 C   0  0  0  0  0  0  0  0  0  0  0  0
    1.1890   11.6730   -1.4330 C   0  0  1  0  0  0  0  0  0  0  0  0
    1.9850   10.4160   -1.8730 C   0  0  0  0  0  0  0  0  0  0  0  0
    1.9080    9.2870   -0.8490 C   0  0  0  0  0  0  0  0  0  0  0  0
    0.4590    8.8810   -0.5930 C   0  0  2  0  0  0  0  0  0  0  0  0
   -0.0710    8.2900   -1.7840 O   0  0  0  0  0  0  0  0  0  0  0  0
   -0.4420   10.0680   -0.1530 C   0  0  0  0  0  0  0  0  0  0  0  0
   -0.0530   10.5140    1.2790 C   0  0  0  0  0  0  0  0  0  0  0  0
   -1.9030    9.5520   -0.0650 C   0  0  0  0  0  0  0  0  0  0  0  0
    1.3620   12.8890   -2.4420 C   0  0  1  0  0  0  0  0  0  0  0  0
    1.3370   12.3680   -3.9110 C   0  0  0  0  0  0  0  0  0  0  0  0
    2.7790   13.5400   -2.2250 C   0  0  0  0  0  0  0  0  0  0  0  0
    2.8810   14.6440   -1.1550 C   0  0  0  0  0  0  0  0  0  0  0  0
    1.7780   15.6900   -1.3410 C   0  0  2  0  0  0  0  0  0  0  0  0
    1.9950   16.3720   -2.7340 C   0  0  0  0  0  0  0  0  0  0  0  0
    4.2673   17.3173    1.0354 H   0  0  0  0  0  0  0  0  0  0  0  0
    4.2096   16.3748   -0.4927 H   0  0  0  0  0  0  0  0  0  0  0  0
    4.8675   18.0463   -0.4927 H   0  0  0  0  0  0  0  0  0  0  0  0
    2.7262   18.3567   -1.3524 H   0  0  0  0  0  0  0  0  0  0  0  0
    1.7289   19.8035    0.0823 H   0  0  0  0  0  0  0  0  0  0  0  0
    1.7568   18.5968    1.4555 H   0  0  0  0  0  0  0  0  0  0  0  0
    4.3800   19.7001    0.5758 H   0  0  0  0  0  0  0  0  0  0  0  0
    3.2463   20.8204    1.4406 H   0  0  0  0  0  0  0  0  0  0  0  0
    3.3188   18.2564    2.3548 H   0  0  0  0  0  0  0  0  0  0  0  0
    6.9326   20.6731    3.3669 H   0  0  0  0  0  0  0  0  0  0  0  0
    6.9622   19.5539    1.9622 H   0  0  0  0  0  0  0  0  0  0  0  0
    5.8520   20.9659    1.9622 H   0  0  0  0  0  0  0  0  0  0  0  0
    5.5415   18.7430    5.2539 H   0  0  0  0  0  0  0  0  0  0  0  0
    5.1616   17.4150    4.1056 H   0  0  0  0  0  0  0  0  0  0  0  0
    6.7949   18.1626    4.1056 H   0  0  0  0  0  0  0  0  0  0  0  0
    1.9346   16.3913    0.7218 H   0  0  0  0  0  0  0  0  0  0  0  0
   -0.2211   17.4732    0.5694 H   0  0  0  0  0  0  0  0  0  0  0  0
    0.2015   18.2708   -0.9611 H   0  0  0  0  0  0  0  0  0  0  0  0
   -1.5022   15.9933   -0.6897 H   0  0  0  0  0  0  0  0  0  0  0  0
   -0.8021   16.5270   -2.2156 H   0  0  0  0  0  0  0  0  0  0  0  0
    0.4126   15.0646    1.0227 H   0  0  0  0  0  0  0  0  0  0  0  0
   -0.9010   14.0472    0.3398 H   0  0  0  0  0  0  0  0  0  0  0  0
    0.7921   13.4471    0.3398 H   0  0  0  0  0  0  0  0  0  0  0  0
    0.2340   14.5782   -3.2154 H   0  0  0  0  0  0  0  0  0  0  0  0
   -1.9289   13.9698   -1.9540 H   0  0  0  0  0  0  0  0  0  0  0  0
   -1.3631   12.9874   -3.4047 H   0  0  0  0  0  0  0  0  0  0  0  0
   -2.3038   11.6147   -1.3624 H   0  0  0  0  0  0  0  0  0  0  0  0
    1.6125   12.0752   -0.5008 H   0  0  0  0  0  0  0  0  0  0  0  0
    1.5746   10.0549   -2.8276 H   0  0  0  0  0  0  0  0  0  0  0  0
    3.0413   10.7068   -1.9708 H   0  0  0  0  0  0  0  0  0  0  0  0
    2.4637    8.4173   -1.2295 H   0  0  0  0  0  0  0  0  0  0  0  0
    2.3462    9.6397    0.0963 H   0  0  0  0  0  0  0  0  0  0  0  0
    0.4600    8.1633    0.2406 H   0  0  0  0  0  0  0  0  0  0  0  0
   -0.3420    7.3820   -1.5660 H   0  0  0  0  0  0  0  0  0  0  0  0
   -0.5910    9.8972    2.0140 H   0  0  0  0  0  0  0  0  0  0  0  0
    1.0309   10.3903    1.4198 H   0  0  0  0  0  0  0  0  0  0  0  0
   -0.3228   11.5711    1.4198 H   0  0  0  0  0  0  0  0  0  0  0  0
   -2.1927    9.4497    0.9912 H   0  0  0  0  0  0  0  0  0  0  0  0
   -2.5750   10.2672   -0.5619 H   0  0  0  0  0  0  0  0  0  0  0  0
   -1.9768    8.5734   -0.5619 H   0  0  0  0  0  0  0  0  0  0  0  0
    1.2843   11.2693   -3.9095 H   0  0  0  0  0  0  0  0  0  0  0  0
    0.4574   12.7766   -4.4300 H   0  0  0  0  0  0  0  0  0  0  0  0
    2.2517   12.6905   -4.4300 H   0  0  0  0  0  0  0  0  0  0  0  0
    3.4743   12.7363   -1.9409 H   0  0  0  0  0  0  0  0  0  0  0  0
    3.0146   14.0393   -3.1764 H   0  0  0  0  0  0  0  0  0  0  0  0
    2.7817   14.1895   -0.1582 H   0  0  0  0  0  0  0  0  0  0  0  0
    3.8570   15.1413   -1.2555 H   0  0  0  0  0  0  0  0  0  0  0  0
    2.3255   17.4107   -2.5862 H   0  0  0  0  0  0  0  0  0  0  0  0
    2.7618   15.8198   -3.2971 H   0  0  0  0  0  0  0  0  0  0  0  0
    1.0501   16.3645   -3.2971 H   0  0  0  0  0  0  0  0  0  0  0  0
  1  2  1  0
  2  3  1  0
  3  4  1  0
  4  5  1  0
  5  6  1  0
  6  7  1  0
  7  8  1  0
  7  9  1  0
  2 10  1  0
 10 11  1  0
 11 12  1  0
 12 13  1  0
 13 14  1  1
 13 15  1  0
 15 16  1  0
 16 17  1  0
 17 18  2  0
 18 19  1  0
 19 20  1  0
 20 21  1  0
 21 22  1  0
 22 23  1  0
 22 24  1  0
 24 25  1  0
 24 26  1  0
 19 27  1  0
 27 28  1  6
 27 29  1  0
 29 30  1  0
 30 31  1  0
 31 32  1  6
  7  5  1  0
 31 10  1  0
 31 13  1  0
 27 15  1  0
 24 18  1  0
  1 33  1  0
  1 34  1  0
  1 35  1  0
  2 36  1  6
  3 37  1  0
  3 38  1  0
  4 39  1  0
  4 40  1  0
  5 41  1  1
  8 42  1  0
  8 43  1  0
  8 44  1  0
  9 45  1  0
  9 46  1  0
  9 47  1  0
 10 48  1  1
 11 49  1  0
 11 50  1  0
 12 51  1  0
 12 52  1  0
 14 53  1  0
 14 54  1  0
 14 55  1  0
 15 56  1  6
 16 57  1  0
 16 58  1  0
 17 59  1  0
 19 60  1  1
 20 61  1  0
 20 62  1  0
 21 63  1  0
 21 64  1  0
 22 65  1  1
 23 66  1  0
 25 67  1  0
 25 68  1  0
 25 69  1  0
 26 70  1  0
 26 71  1  0
 26 72  1  0
 28 73  1  0
 28 74  1  0
 28 75  1  0
 29 76  1  0
 29 77  1  0
 30 78  1  0
 30 79  1  0
 32 80  1  0
 32 81  1  0
 32 82  1  0
M  END
>  <meeko>  (2) 
{"is_sidechain": [false], "intermolecular_energy": 2.731, "internal_energy": -0.839}

$$$$
EPH_relaxed_0001_pdb2pqr_Repair_179_r2_0001_out
     RDKit          3D

 82 86  0  0  0  0  0  0  0  0999 V2000
    1.9630   18.2580   -2.6290 C   0  0  0  0  0  0  0  0  0  0  0  0
    0.4460   18.0510   -2.6480 C   0  0  2  0  0  0  0  0  0  0  0  0
   -0.2150   18.4820   -1.3230 C   0  0  0  0  0  0  0  0  0  0  0  0
    0.5610   18.0480   -0.0770 C   0  0  0  0  0  0  0  0  0  0  0  0
    1.2120   19.2130    0.6040 C   0  0  2  0  0  0  0  0  0  0  0  0
    2.1710   19.9170   -0.1970 O   0  0  0  0  0  0  0  0  0  0  0  0
    2.6840   19.2530    0.9700 C   0  0  0  0  0  0  0  0  0  0  0  0
    3.5950   18.1050    0.6660 C   0  0  0  0  0  0  0  0  0  0  0  0
    3.1280   20.1900    2.0500 C   0  0  0  0  0  0  0  0  0  0  0  0
    0.1250   16.5900   -2.9380 C   0  0  1  0  0  0  0  0  0  0  0  0
    0.2010   16.2500   -4.4510 C   0  0  0  0  0  0  0  0  0  0  0  0
    0.7380   14.8000   -4.5580 C   0  0  0  0  0  0  0  0  0  0  0  0
    0.6380   14.2400   -3.1190 C   0  0  1  0  0  0  0  0  0  0  0  0
   -0.8540   13.8100   -2.9590 C   0  0  0  0  0  0  0  0  0  0  0  0
    1.6170   13.0740   -2.7620 C   0  0  2  0  0  0  0  0  0  0  0  0
    1.4280   11.7880   -3.5850 C   0  0  0  0  0  0  0  0  0  0  0  0
    0.4780   10.7940   -3.0050 C   0  0  0  0  0  0  0  0  0  0  0  0
    0.0210   10.7940   -1.7390 C   0  0  0  0  0  0  0  0  0  0  0  0
    0.5390   11.8130   -0.7150 C   0  0  1  0  0  0  0  0  0  0  0  0
    0.8830   11.0860    0.6110 C   0  0  0  0  0  0  0  0  0  0  0  0
   -0.2850   10.2630    1.1470 C   0  0  0  0  0  0  0  0  0  0  0  0
   -0.7330    9.2230    0.1240 C   0  0  2  0  0  0  0  0  0  0  0  0
    0.3100    8.2570   -0.0400 O   0  0  0  0  0  0  0  0  0  0  0  0
   -1.0970    9.8380   -1.2570 C   0  0  0  0  0  0  0  0  0  0  0  0
   -2.4110   10.6480   -1.1350 C   0  0  0  0  0  0  0  0  0  0  0  0
   -1.3960    8.6700   -2.2360 C   0  0  0  0  0  0  0  0  0  0  0  0
    1.7140   12.7610   -1.2140 C   0  0  1  0  0  0  0  0  0  0  0  0
    3.0910   12.0660   -0.9860 C   0  0  0  0  0  0  0  0  0  0  0  0
    1.7260   14.0690   -0.3380 C   0  0  0  0  0  0  0  0  0  0  0  0
    0.8280   15.2290   -0.8100 C   0  0  0  0  0  0  0  0  0  0  0  0
    1.0430   15.5180   -2.2980 C   0  0  2  0  0  0  0  0  0  0  0  0
    2.5300   15.9750   -2.4870 C   0  0  0  0  0  0  0  0  0  0  0  0
    2.3135   18.3058   -1.5874 H   0  0  0  0  0  0  0  0  0  0  0  0
    2.4541   17.4185   -3.1430 H   0  0  0  0  0  0  0  0  0  0  0  0
    2.2112   19.1983   -3.1430 H   0  0  0  0  0  0  0  0  0  0  0  0
    0.0348   18.6878   -3.4451 H   0  0  0  0  0  0  0  0  0  0  0  0
   -0.2964   19.5790   -1.3165 H   0  0  0  0  0  0  0  0  0  0  0  0
   -1.1965   17.9873   -1.2782 H   0  0  0  0  0  0  0  0  0  0  0  0
   -0.1344   17.5669    0.6265 H   0  0  0  0  0  0  0  0  0  0  0  0
    1.3505   17.3492   -0.3908 H   0  0  0  0  0  0  0  0  0  0  0  0
    0.3008   19.4100    1.1880 H   0  0  0  0  0  0  0  0  0  0  0  0
    3.9491   17.6588    1.6070 H   0  0  0  0  0  0  0  0  0  0  0  0
    3.0492   17.3480    0.0838 H   0  0  0  0  0  0  0  0  0  0  0  0
    4.4562   18.4646    0.0838 H   0  0  0  0  0  0  0  0  0  0  0  0
    2.9164   19.7434    3.0327 H   0  0  0  0  0  0  0  0  0  0  0  0
    4.2086   20.3729    1.9554 H   0  0  0  0  0  0  0  0  0  0  0  0
    2.5853   21.1421    1.9554 H   0  0  0  0  0  0  0  0  0  0  0  0
   -0.8821   16.5331   -2.4992 H   0  0  0  0  0  0  0  0  0  0  0  0
   -0.7986   16.3180   -4.9050 H   0  0  0  0  0  0  0  0  0  0  0  0
    0.8587   16.9545   -4.9812 H   0  0  0  0  0  0  0  0  0  0  0  0
    0.1208   14.2073   -5.2492 H   0  0  0  0  0  0  0  0  0  0  0  0
    1.7653   14.7633   -4.9496 H   0  0  0  0  0  0  0  0  0  0  0  0
   -1.1023   13.7384   -1.8898 H   0  0  0  0  0  0  0  0  0  0  0  0
   -1.5043   14.5573   -3.4372 H   0  0  0  0  0  0  0  0  0  0  0  0
   -1.0068   12.8313   -3.4372 H   0  0  0  0  0  0  0  0  0  0  0  0
    2.5918   13.4824   -3.0669 H   0  0  0  0  0  0  0  0  0  0  0  0
    1.0562   12.0729   -4.5803 H   0  0  0  0  0  0  0  0  0  0  0  0
    2.4103   11.2934   -3.6067 H   0  0  0  0  0  0  0  0  0  0  0  0
    0.1207    9.9929   -3.6688 H   0  0  0  0  0  0  0  0  0  0  0  0
   -0.2850   12.5224   -0.5484 H   0  0  0  0  0  0  0  0  0  0  0  0
    1.7358   10.4142    0.4339 H   0  0  0  0  0  0  0  0  0  0  0  0
    1.1220   11.8545    1.3609 H   0  0  0  0  0  0  0  0  0  0  0  0
    0.0285    9.7502    2.0683 H   0  0  0  0  0  0  0  0  0  0  0  0
   -1.1273   10.9401    1.3519 H   0  0  0  0  0  0  0  0  0  0  0  0
   -1.6504    8.7552    0.5108 H   0  0  0  0  0  0  0  0  0  0  0  0
   -0.1090    7.3850   -0.1400 H   0  0  0  0  0  0  0  0  0  0  0  0
   -2.6526   10.7969   -0.0722 H   0  0  0  0  0  0  0  0  0  0  0  0
   -2.2856   11.6258   -1.6230 H   0  0  0  0  0  0  0  0  0  0  0  0
   -3.2282   10.0967   -1.6230 H   0  0  0  0  0  0  0  0  0  0  0  0
   -1.6287    7.7609   -1.6620 H   0  0  0  0  0  0  0  0  0  0  0  0
   -2.2556    8.9336   -2.8697 H   0  0  0  0  0  0  0  0  0  0  0  0
   -0.5154    8.4882   -2.8697 H   0  0  0  0  0  0  0  0  0  0  0  0
    3.2794   11.9709    0.0936 H   0  0  0  0  0  0  0  0  0  0  0  0
    3.0778   11.0666   -1.4454 H   0  0  0  0  0  0  0  0  0  0  0  0
    3.8872   12.6702   -1.4454 H   0  0  0  0  0  0  0  0  0  0  0  0
    1.4062   13.7925    0.6775 H   0  0  0  0  0  0  0  0  0  0  0  0
    2.7542   14.4535   -0.4086 H   0  0  0  0  0  0  0  0  0  0  0  0
   -0.2254   14.9589   -0.6444 H   0  0  0  0  0  0  0  0  0  0  0  0
    1.0891   16.1305   -0.2363 H   0  0  0  0  0  0  0  0  0  0  0  0
    2.9975   16.1187   -1.5017 H   0  0  0  0  0  0  0  0  0  0  0  0
    3.0820   15.2050   -3.0460 H   0  0  0  0  0  0  0  0  0  0  0  0
    2.5543   16.9221   -3.0460 H   0  0  0  0  0  0  0  0  0  0  0  0
  1  2  1  0
  2  3  1  0
  3  4  1  0
  4  5  1  0
  5  6  1  0
  6  7  1  0
  7  8  1  0
  7  9  1  0
  2 10  1  0
 10 11  1  0
 11 12  1  0
 12 13  1  0
 13 14  1  1
 13 15  1  0
 15 16  1  0
 16 17  1  0
 17 18  2  0
 18 19  1  0
 19 20  1  0
 20 21  1  0
 21 22  1  0
 22 23  1  0
 22 24  1  0
 24 25  1  0
 24 26  1  0
 19 27  1  0
 27 28  1  6
 27 29  1  0
 29 30  1  0
 30 31  1  0
 31 32  1  1
  7  5  1  0
 31 10  1  0
 31 13  1  0
 27 15  1  0
 24 18  1  0
  1 33  1  0
  1 34  1  0
  1 35  1  0
  2 36  1  6
  3 37  1  0
  3 38  1  0
  4 39  1  0
  4 40  1  0
  5 41  1  1
  8 42  1  0
  8 43  1  0
  8 44  1  0
  9 45  1  0
  9 46  1  0
  9 47  1  0
 10 48  1  1
 11 49  1  0
 11 50  1  0
 12 51  1  0
 12 52  1  0
 14 53  1  0
 14 54  1  0
 14 55  1  0
 15 56  1  6
 16 57  1  0
 16 58  1  0
 17 59  1  0
 19 60  1  1
 20 61  1  0
 20 62  1  0
 21 63  1  0
 21 64  1  0
 22 65  1  1
 23 66  1  0
 25 67  1  0
 25 68  1  0
 25 69  1  0
 26 70  1  0
 26 71  1  0
 26 72  1  0
 28 73  1  0
 28 74  1  0
 28 75  1  0
 29 76  1  0
 29 77  1  0
 30 78  1  0
 30 79  1  0
 32 80  1  0
 32 81  1  0
 32 82  1  0
M  END
>  <meeko>  (3) 
{"is_sidechain": [false], "intermolecular_energy": 2.731, "internal_energy": -0.839}

$$$$
EPH_relaxed_0001_pdb2pqr_Repair_179_r2_0001_out
     RDKit          3D

 82 86  0  0  0  0  0  0  0  0999 V2000
    3.8760   17.4380    0.2700 C   0  0  0  0  0  0  0  0  0  0  0  0
    2.8030   17.7240   -0.7840 C   0  0  2  0  0  0  0  0  0  0  0  0
    2.1790   19.1240   -0.6120 C   0  0  0  0  0  0  0  0  0  0  0  0
    1.3350   19.2700    0.6560 C   0  0  0  0  0  0  0  0  0  0  0  0
    0.0670   20.0250    0.3940 C   0  0  2  0  0  0  0  0  0  0  0  0
   -0.7800   20.1900    1.5390 O   0  0  0  0  0  0  0  0  0  0  0  0
   -1.3120   19.3960    0.4670 C   0  0  0  0  0  0  0  0  0  0  0  0
   -1.4930   17.9510    0.8120 C   0  0  0  0  0  0  0  0  0  0  0  0
   -2.4380   20.0530   -0.2680 C   0  0  0  0  0  0  0  0  0  0  0  0
    1.7150   16.6580   -0.7210 C   0  0  1  0  0  0  0  0  0  0  0  0
    0.3210   17.2020   -1.1330 C   0  0  0  0  0  0  0  0  0  0  0  0
   -0.4100   16.0490   -1.8670 C   0  0  0  0  0  0  0  0  0  0  0  0
    0.4420   14.7930   -1.5660 C   0  0  1  0  0  0  0  0  0  0  0  0
   -0.0060   14.3380   -0.1410 C   0  0  0  0  0  0  0  0  0  0  0  0
    0.3430   13.6270   -2.6020 C   0  0  2  0  0  0  0  0  0  0  0  0
   -1.0540   12.9990   -2.7480 C   0  0  0  0  0  0  0  0  0  0  0  0
   -1.3320   11.8440   -1.8430 C   0  0  0  0  0  0  0  0  0  0  0  0
   -0.4070   11.1500   -1.1540 C   0  0  0  0  0  0  0  0  0  0  0  0
    1.0890   11.4460   -1.3250 C   0  0  1  0  0  0  0  0  0  0  0  0
    1.8630   10.1140   -1.4990 C   0  0  0  0  0  0  0  0  0  0  0  0
    1.5900    9.1260   -0.3690 C   0  0  0  0  0  0  0  0  0  0  0  0
    0.0990    8.8120   -0.2680 C   0  0  2  0  0  0  0  0  0  0  0  0
   -0.3020    8.0980   -1.4420 O   0  0  0  0  0  0  0  0  0  0  0  0
   -0.7840   10.0800   -0.1000 C   0  0  0  0  0  0  0  0  0  0  0  0
   -0.5630   10.6860    1.3080 C   0  0  0  0  0  0  0  0  0  0  0  0
   -2.2710    9.6370   -0.1540 C   0  0  0  0  0  0  0  0  0  0  0  0
    1.4600   12.5180   -2.4380 C   0  0  1  0  0  0  0  0  0  0  0  0
    1.6000   11.8180   -3.8250 C   0  0  0  0  0  0  0  0  0  0  0  0
    2.8710   13.1340   -2.1080 C   0  0  0  0  0  0  0  0  0  0  0  0
    2.8920   14.3590   -1.1730 C   0  0  0  0  0  0  0  0  0  0  0  0
    1.8830   15.4160   -1.6320 C   0  0  2  0  0  0  0  0  0  0  0  0
    2.3200   15.9090   -3.0530 C   0  0  0  0  0  0  0  0  0  0  0  0
    3.4431   17.5534    1.2746 H   0  0  0  0  0  0  0  0  0  0  0  0
    4.2466   16.4097    0.1463 H   0  0  0  0  0  0  0  0  0  0  0  0
    4.7092   18.1454    0.1463 H   0  0  0  0  0  0  0  0  0  0  0  0
    3.2918   17.6987   -1.7691 H   0  0  0  0  0  0  0  0  0  0  0  0
    2.9918   19.8643   -0.5753 H   0  0  0  0  0  0  0  0  0  0  0  0
    1.5050   19.2826   -1.4667 H   0  0  0  0  0  0  0  0  0  0  0  0
    1.0819   18.2681    1.0331 H   0  0  0  0  0  0  0  0  0  0  0  0
    1.9226   19.8329    1.3961 H   0  0  0  0  0  0  0  0  0  0  0  0
    0.5612   20.6324   -0.3785 H   0  0  0  0  0  0  0  0  0  0  0  0
   -1.5076   17.8342    1.9057 H   0  0  0  0  0  0  0  0  0  0  0  0
   -2.4434   17.5900    0.3919 H   0  0  0  0  0  0  0  0  0  0  0  0
   -0.6610   17.3667    0.3919 H   0  0  0  0  0  0  0  0  0  0  0  0
   -3.1538   20.4707    0.4553 H   0  0  0  0  0  0  0  0  0  0  0  0
   -2.0413   20.8614   -0.8998 H   0  0  0  0  0  0  0  0  0  0  0  0
   -2.9465   19.3099   -0.8998 H   0  0  0  0  0  0  0  0  0  0  0  0
    1.8048   16.3650    0.3354 H   0  0  0  0  0  0  0  0  0  0  0  0
   -0.2470   17.5031   -0.2404 H   0  0  0  0  0  0  0  0  0  0  0  0
    0.4176   18.0848   -1.7821 H   0  0  0  0  0  0  0  0  0  0  0  0
   -1.4319   15.9274   -1.4784 H   0  0  0  0  0  0  0  0  0  0  0  0
   -0.5086   16.2376   -2.9462 H   0  0  0  0  0  0  0  0  0  0  0  0
    0.5528   14.9055    0.6177 H   0  0  0  0  0  0  0  0  0  0  0  0
   -1.0832   14.5241   -0.0184 H   0  0  0  0  0  0  0  0  0  0  0  0
    0.1968   13.2638   -0.0184 H   0  0  0  0  0  0  0  0  0  0  0  0
    0.5398   14.1415   -3.5542 H   0  0  0  0  0  0  0  0  0  0  0  0
   -1.8009   13.7798   -2.5418 H   0  0  0  0  0  0  0  0  0  0  0  0
   -1.1034   12.6016   -3.7725 H   0  0  0  0  0  0  0  0  0  0  0  0
   -2.3814   11.5342   -1.7299 H   0  0  0  0  0  0  0  0  0  0  0  0
    1.4091   11.9449   -0.3984 H   0  0  0  0  0  0  0  0  0  0  0  0
    1.5613    9.6528   -2.4510 H   0  0  0  0  0  0  0  0  0  0  0  0
    2.9377   10.3484   -1.4848 H   0  0  0  0  0  0  0  0  0  0  0  0
    2.1418    8.1946   -0.5638 H   0  0  0  0  0  0  0  0  0  0  0  0
    1.9193    9.5765    0.5789 H   0  0  0  0  0  0  0  0  0  0  0  0
   -0.0500    8.2044    0.6368 H   0  0  0  0  0  0  0  0  0  0  0  0
   -0.9080    7.3910   -1.1630 H   0  0  0  0  0  0  0  0  0  0  0  0
   -0.8337    9.9437    2.0733 H   0  0  0  0  0  0  0  0  0  0  0  0
    0.4946   10.9647    1.4254 H   0  0  0  0  0  0  0  0  0  0  0  0
   -1.1929   11.5801    1.4254 H   0  0  0  0  0  0  0  0  0  0  0  0
   -2.6568    9.5221    0.8697 H   0  0  0  0  0  0  0  0  0  0  0  0
   -2.8613   10.3983   -0.6850 H   0  0  0  0  0  0  0  0  0  0  0  0
   -2.3485    8.6768   -0.6850 H   0  0  0  0  0  0  0  0  0  0  0  0
    1.8138   10.7492   -3.6764 H   0  0  0  0  0  0  0  0  0  0  0  0
    0.6618   11.9294   -4.3883 H   0  0  0  0  0  0  0  0  0  0  0  0
    2.4232   12.2817   -4.3883 H   0  0  0  0  0  0  0  0  0  0  0  0
    3.4767   12.3455   -1.6374 H   0  0  0  0  0  0  0  0  0  0  0  0
    3.2582   13.4994   -3.0706 H   0  0  0  0  0  0  0  0  0  0  0  0
    2.6370   14.0372   -0.1525 H   0  0  0  0  0  0  0  0  0  0  0  0
    3.8989   14.8014   -1.1968 H   0  0  0  0  0  0  0  0  0  0  0  0
    3.0464   16.7285   -2.9494 H   0  0  0  0  0  0  0  0  0  0  0  0
    2.7824   15.0766   -3.6038 H   0  0  0  0  0  0  0  0  0  0  0  0
    1.4381   16.2681   -3.6038 H   0  0  0  0  0  0  0  0  0  0  0  0
  1  2  1  0
  2  3  1  0
  3  4  1  0
  4  5  1  0
  5  6  1  0
  6  7  1  0
  7  8  1  0
  7  9  1  0
  2 10  1  0
 10 11  1  0
 11 12  1  0
 12 13  1  0
 13 14  1  1
 13 15  1  0
 15 16  1  0
 16 17  1  0
 17 18  2  0
 18 19  1  0
 19 20  1  0
 20 21  1  0
 21 22  1  0
 22 23  1  0
 22 24  1  0
 24 25  1  0
 24 26  1  0
 19 27  1  0
 27 28  1  6
 27 29  1  0
 29 30  1  0
 30 31  1  0
 31 32  1  6
  7  5  1  0
 31 10  1  0
 31 13  1  0
 27 15  1  0
 24 18  1  0
  1 33  1  0
  1 34  1  0
  1 35  1  0
  2 36  1  6
  3 37  1  0
  3 38  1  0
  4 39  1  0
  4 40  1  0
  5 41  1  6
  8 42  1  0
  8 43  1  0
  8 44  1  0
  9 45  1  0
  9 46  1  0
  9 47  1  0
 10 48  1  1
 11 49  1  0
 11 50  1  0
 12 51  1  0
 12 52  1  0
 14 53  1  0
 14 54  1  0
 14 55  1  0
 15 56  1  6
 16 57  1  0
 16 58  1  0
 17 59  1  0
 19 60  1  1
 20 61  1  0
 20 62  1  0
 21 63  1  0
 21 64  1  0
 22 65  1  1
 23 66  1  0
 25 67  1  0
 25 68  1  0
 25 69  1  0
 26 70  1  0
 26 71  1  0
 26 72  1  0
 28 73  1  0
 28 74  1  0
 28 75  1  0
 29 76  1  0
 29 77  1  0
 30 78  1  0
 30 79  1  0
 32 80  1  0
 32 81  1  0
 32 82  1  0
M  END
>  <meeko>  (4) 
{"is_sidechain": [false], "intermolecular_energy": 2.731, "internal_energy": -0.839}

$$$$
EPH_relaxed_0001_pdb2pqr_Repair_179_r2_0001_out
     RDKit          3D

 82 86  0  0  0  0  0  0  0  0999 V2000
    2.2640   17.9890   -2.9130 C   0  0  0  0  0  0  0  0  0  0  0  0
    0.9920   17.5870   -2.1610 C   0  0  2  0  0  0  0  0  0  0  0  0
    1.1730   17.6660   -0.6320 C   0  0  0  0  0  0  0  0  0  0  0  0
    0.8650   19.0460   -0.0460 C   0  0  0  0  0  0  0  0  0  0  0  0
   -0.5570   19.1490    0.4140 C   0  0  2  0  0  0  0  0  0  0  0  0
   -1.4680   18.2650   -0.2530 O   0  0  0  0  0  0  0  0  0  0  0  0
   -1.6840   19.6710   -0.4580 C   0  0  0  0  0  0  0  0  0  0  0  0
   -1.4360   20.1260   -1.8620 C   0  0  0  0  0  0  0  0  0  0  0  0
   -2.9190   20.1940    0.2050 C   0  0  0  0  0  0  0  0  0  0  0  0
    0.5740   16.1780   -2.5640 C   0  0  1  0  0  0  0  0  0  0  0  0
    0.7560   15.9120   -4.0830 C   0  0  0  0  0  0  0  0  0  0  0  0
    1.1740   14.4260   -4.2300 C   0  0  0  0  0  0  0  0  0  0  0  0
    0.8980   13.8040   -2.8410 C   0  0  1  0  0  0  0  0  0  0  0  0
   -0.6340   13.5040   -2.8330 C   0  0  0  0  0  0  0  0  0  0  0  0
    1.7360   12.5370   -2.4720 C   0  0  2  0  0  0  0  0  0  0  0  0
    1.5120   11.3180   -3.3830 C   0  0  0  0  0  0  0  0  0  0  0  0
    0.4320   10.3850   -2.9460 C   0  0  0  0  0  0  0  0  0  0  0  0
   -0.1350   10.3620   -1.7250 C   0  0  0  0  0  0  0  0  0  0  0  0
    0.3750   11.2750   -0.6030 C   0  0  1  0  0  0  0  0  0  0  0  0
    0.5350   10.4520    0.7020 C   0  0  0  0  0  0  0  0  0  0  0  0
   -0.7430    9.7120    1.0870 C   0  0  0  0  0  0  0  0  0  0  0  0
   -1.1860    8.7710   -0.0300 C   0  0  2  0  0  0  0  0  0  0  0  0
   -0.2190    7.7240   -0.1620 O   0  0  0  0  0  0  0  0  0  0  0  0
   -1.3700    9.4870   -1.3970 C   0  0  0  0  0  0  0  0  0  0  0  0
   -2.6150   10.4060   -1.3400 C   0  0  0  0  0  0  0  0  0  0  0  0
   -1.6790    8.4040   -2.4660 C   0  0  0  0  0  0  0  0  0  0  0  0
    1.6670   12.1360   -0.9430 C   0  0  1  0  0  0  0  0  0  0  0  0
    2.9530   11.3090   -0.6400 C   0  0  0  0  0  0  0  0  0  0  0  0
    1.7130   13.3910    0.0070 C   0  0  0  0  0  0  0  0  0  0  0  0
    0.9640   14.6510   -0.4690 C   0  0  0  0  0  0  0  0  0  0  0  0
    1.3360   14.9960   -1.9140 C   0  0  2  0  0  0  0  0  0  0  0  0
    2.8670   15.3250   -1.9480 C   0  0  0  0  0  0  0  0  0  0  0  0
    3.0542   18.2387   -2.1896 H   0  0  0  0  0  0  0  0  0  0  0  0
    2.5964   17.1521   -3.5448 H   0  0  0  0  0  0  0  0  0  0  0  0
    2.0551   18.8649   -3.5448 H   0  0  0  0  0  0  0  0  0  0  0  0
    0.2032   18.3021   -2.4376 H   0  0  0  0  0  0  0  0  0  0  0  0
    0.5001   16.9322   -0.1644 H   0  0  0  0  0  0  0  0  0  0  0  0
    2.2325   17.4573   -0.4227 H   0  0  0  0  0  0  0  0  0  0  0  0
    1.5306   19.2258    0.8111 H   0  0  0  0  0  0  0  0  0  0  0  0
    1.0251   19.7963   -0.8343 H   0  0  0  0  0  0  0  0  0  0  0  0
   -0.2327   19.4072    1.4329 H   0  0  0  0  0  0  0  0  0  0  0  0
   -0.9096   21.0918   -1.8469 H   0  0  0  0  0  0  0  0  0  0  0  0
   -0.8194   19.3805   -2.3855 H   0  0  0  0  0  0  0  0  0  0  0  0
   -2.3967   20.2402   -2.3855 H   0  0  0  0  0  0  0  0  0  0  0  0
   -2.7985   20.1430    1.2972 H   0  0  0  0  0  0  0  0  0  0  0  0
   -3.0830   21.2388   -0.0974 H   0  0  0  0  0  0  0  0  0  0  0  0
   -3.7835   19.5847   -0.0974 H   0  0  0  0  0  0  0  0  0  0  0  0
   -0.4696   16.1894   -2.2164 H   0  0  0  0  0  0  0  0  0  0  0  0
   -0.1892   16.0941   -4.6154 H   0  0  0  0  0  0  0  0  0  0  0  0
    1.5165   16.5806   -4.5127 H   0  0  0  0  0  0  0  0  0  0  0  0
    0.5725   13.9282   -5.0049 H   0  0  0  0  0  0  0  0  0  0  0  0
    2.2253   14.3165   -4.5347 H   0  0  0  0  0  0  0  0  0  0  0  0
   -0.9886   13.4346   -1.7940 H   0  0  0  0  0  0  0  0  0  0  0  0
   -1.1690   14.3144   -3.3497 H   0  0  0  0  0  0  0  0  0  0  0  0
   -0.8238   12.5516   -3.3497 H   0  0  0  0  0  0  0  0  0  0  0  0
    2.7655   12.8712   -2.6680 H   0  0  0  0  0  0  0  0  0  0  0  0
    1.2567   11.6867   -4.3874 H   0  0  0  0  0  0  0  0  0  0  0  0
    2.4463   10.7383   -3.3506 H   0  0  0  0  0  0  0  0  0  0  0  0
    0.0686    9.6545   -3.6838 H   0  0  0  0  0  0  0  0  0  0  0  0
   -0.3963   12.0471   -0.4654 H   0  0  0  0  0  0  0  0  0  0  0  0
    1.3393    9.7155    0.5581 H   0  0  0  0  0  0  0  0  0  0  0  0
    0.7712   11.1556    1.5139 H   0  0  0  0  0  0  0  0  0  0  0  0
   -0.5587    9.1260    1.9995 H   0  0  0  0  0  0  0  0  0  0  0  0
   -1.5387   10.4517    1.2591 H   0  0  0  0  0  0  0  0  0  0  0  0
   -2.1712    8.3690    0.2490 H   0  0  0  0  0  0  0  0  0  0  0  0
    0.0470    7.6850   -1.0960 H   0  0  0  0  0  0  0  0  0  0  0  0
   -2.8791   10.6009   -0.2901 H   0  0  0  0  0  0  0  0  0  0  0  0
   -2.3918   11.3576   -1.8447 H   0  0  0  0  0  0  0  0  0  0  0  0
   -3.4586    9.9123   -1.8447 H   0  0  0  0  0  0  0  0  0  0  0  0
   -1.9479    7.4617   -1.9662 H   0  0  0  0  0  0  0  0  0  0  0  0
   -2.5177    8.7380   -3.0945 H   0  0  0  0  0  0  0  0  0  0  0  0
   -0.7903    8.2451   -3.0945 H   0  0  0  0  0  0  0  0  0  0  0  0
    3.0859   11.2235    0.4486 H   0  0  0  0  0  0  0  0  0  0  0  0
    2.8545   10.3045   -1.0774 H   0  0  0  0  0  0  0  0  0  0  0  0
    3.8261   11.8154   -1.0774 H   0  0  0  0  0  0  0  0  0  0  0  0
    1.2812   13.0925    0.9737 H   0  0  0  0  0  0  0  0  0  0  0  0
    2.7726   13.6837    0.0459 H   0  0  0  0  0  0  0  0  0  0  0  0
   -0.1193   14.4697   -0.4097 H   0  0  0  0  0  0  0  0  0  0  0  0
    1.2490   15.4940    0.1776 H   0  0  0  0  0  0  0  0  0  0  0  0
    3.2474   15.4067   -0.9191 H   0  0  0  0  0  0  0  0  0  0  0  0
    3.4031   14.5216   -2.4744 H   0  0  0  0  0  0  0  0  0  0  0  0
    3.0257   16.2778   -2.4744 H   0  0  0  0  0  0  0  0  0  0  0  0
  1  2  1  0
  2  3  1  0
  3  4  1  0
  4  5  1  0
  5  6  1  0
  6  7  1  0
  7  8  1  0
  7  9  1  0
  2 10  1  0
 10 11  1  0
 11 12  1  0
 12 13  1  0
 13 14  1  6
 13 15  1  0
 15 16  1  0
 16 17  1  0
 17 18  2  0
 18 19  1  0
 19 20  1  0
 20 21  1  0
 21 22  1  0
 22 23  1  0
 22 24  1  0
 24 25  1  0
 24 26  1  0
 19 27  1  0
 27 28  1  1
 27 29  1  0
 29 30  1  0
 30 31  1  0
 31 32  1  1
  7  5  1  0
 31 10  1  0
 31 13  1  0
 27 15  1  0
 24 18  1  0
  1 33  1  0
  1 34  1  0
  1 35  1  0
  2 36  1  6
  3 37  1  0
  3 38  1  0
  4 39  1  0
  4 40  1  0
  5 41  1  1
  8 42  1  0
  8 43  1  0
  8 44  1  0
  9 45  1  0
  9 46  1  0
  9 47  1  0
 10 48  1  6
 11 49  1  0
 11 50  1  0
 12 51  1  0
 12 52  1  0
 14 53  1  0
 14 54  1  0
 14 55  1  0
 15 56  1  6
 16 57  1  0
 16 58  1  0
 17 59  1  0
 19 60  1  1
 20 61  1  0
 20 62  1  0
 21 63  1  0
 21 64  1  0
 22 65  1  1
 23 66  1  0
 25 67  1  0
 25 68  1  0
 25 69  1  0
 26 70  1  0
 26 71  1  0
 26 72  1  0
 28 73  1  0
 28 74  1  0
 28 75  1  0
 29 76  1  0
 29 77  1  0
 30 78  1  0
 30 79  1  0
 32 80  1  0
 32 81  1  0
 32 82  1  0
M  END
>  <meeko>  (5) 
{"is_sidechain": [false], "intermolecular_energy": 2.731, "internal_energy": -0.839}

$$$$
EPH_relaxed_0001_pdb2pqr_Repair_179_r2_0001_out
     RDKit          3D

 82 86  0  0  0  0  0  0  0  0999 V2000
   -5.1790    5.8120   -1.5620 C   0  0  0  0  0  0  0  0  0  0  0  0
   -5.4360    7.3160   -1.6950 C   0  0  2  0  0  0  0  0  0  0  0  0
   -5.2000    8.0660   -0.3690 C   0  0  0  0  0  0  0  0  0  0  0  0
   -4.1740    9.1970   -0.4750 C   0  0  0  0  0  0  0  0  0  0  0  0
   -2.8140    8.6800   -0.8340 C   0  0  2  0  0  0  0  0  0  0  0  0
   -1.7890    8.9740    0.1240 O   0  0  0  0  0  0  0  0  0  0  0  0
   -1.6390    9.5790   -1.1710 C   0  0  0  0  0  0  0  0  0  0  0  0
   -1.7710   11.0700   -1.1650 C   0  0  0  0  0  0  0  0  0  0  0  0
   -0.5110    9.0120   -1.9750 C   0  0  0  0  0  0  0  0  0  0  0  0
   -6.8580    7.5590   -2.1850 C   0  0  1  0  0  0  0  0  0  0  0  0
   -7.1440    6.8780   -3.5510 C   0  0  0  0  0  0  0  0  0  0  0  0
   -8.6240    6.4170   -3.5200 C   0  0  0  0  0  0  0  0  0  0  0  0
   -9.2290    7.1320   -2.2890 C   0  0  1  0  0  0  0  0  0  0  0  0
   -9.5580    8.5750   -2.7850 C   0  0  0  0  0  0  0  0  0  0  0  0
  -10.4750    6.4480   -1.6360 C   0  0  2  0  0  0  0  0  0  0  0  0
  -11.7120    6.3410   -2.5450 C   0  0  0  0  0  0  0  0  0  0  0  0
  -12.6580    7.4940   -2.4730 C   0  0  0  0  0  0  0  0  0  0  0  0
  -12.6730    8.4340   -1.5090 C   0  0  0  0  0  0  0  0  0  0  0  0
  -11.7330    8.3380   -0.3000 C   0  0  1  0  0  0  0  0  0  0  0  0
  -12.5330    8.6110    1.0000 C   0  0  0  0  0  0  0  0  0  0  0  0
  -13.2910    9.9340    0.9540 C   0  0  0  0  0  0  0  0  0  0  0  0
  -14.2570    9.9690   -0.2280 C   0  0  2  0  0  0  0  0  0  0  0  0
  -15.2870    9.0000   -0.0090 O   0  0  0  0  0  0  0  0  0  0  0  0
  -13.5660    9.6960   -1.5930 C   0  0  0  0  0  0  0  0  0  0  0  0
  -12.6690   10.9010   -1.9710 C   0  0  0  0  0  0  0  0  0  0  0  0
  -14.6700    9.6180   -2.6810 C   0  0  0  0  0  0  0  0  0  0  0  0
  -10.8530    7.0170   -0.2090 C   0  0  1  0  0  0  0  0  0  0  0  0
  -11.6520    5.8950    0.5210 C   0  0  0  0  0  0  0  0  0  0  0  0
   -9.5830    7.3060    0.6760 C   0  0  0  0  0  0  0  0  0  0  0  0
   -8.3450    7.8690   -0.0480 C   0  0  0  0  0  0  0  0  0  0  0  0
   -8.0150    7.0420   -1.2940 C   0  0  2  0  0  0  0  0  0  0  0  0
   -7.6590    5.5910   -0.8250 C   0  0  0  0  0  0  0  0  0  0  0  0
   -5.1326    5.5407   -0.4970 H   0  0  0  0  0  0  0  0  0  0  0  0
   -5.9952    5.2563   -2.0467 H   0  0  0  0  0  0  0  0  0  0  0  0
   -4.2246    5.5588   -2.0467 H   0  0  0  0  0  0  0  0  0  0  0  0
   -4.7175    7.7102   -2.4287 H   0  0  0  0  0  0  0  0  0  0  0  0
   -6.1571    8.4955   -0.0380 H   0  0  0  0  0  0  0  0  0  0  0  0
   -4.7981    7.3339    0.3469 H   0  0  0  0  0  0  0  0  0  0  0  0
   -4.5024    9.9047   -1.2504 H   0  0  0  0  0  0  0  0  0  0  0  0
   -4.1053    9.6906    0.5057 H   0  0  0  0  0  0  0  0  0  0  0  0
   -3.2542    7.8157   -1.3528 H   0  0  0  0  0  0  0  0  0  0  0  0
   -1.8030   11.4311   -0.1264 H   0  0  0  0  0  0  0  0  0  0  0  0
   -0.9089   11.5165   -1.6821 H   0  0  0  0  0  0  0  0  0  0  0  0
   -2.6982   11.3581   -1.6821 H   0  0  0  0  0  0  0  0  0  0  0  0
    0.2631    8.6229   -1.2972 H   0  0  0  0  0  0  0  0  0  0  0  0
   -0.8869    8.1957   -2.6093 H   0  0  0  0  0  0  0  0  0  0  0  0
   -0.0802    9.8007   -2.6093 H   0  0  0  0  0  0  0  0  0  0  0  0
   -6.8607    8.6588   -2.2052 H   0  0  0  0  0  0  0  0  0  0  0  0
   -6.9874    7.5939   -4.3713 H   0  0  0  0  0  0  0  0  0  0  0  0
   -6.4684    6.0259   -3.7166 H   0  0  0  0  0  0  0  0  0  0  0  0
   -9.1447    6.7204   -4.4402 H   0  0  0  0  0  0  0  0  0  0  0  0
   -8.7192    5.3230   -3.4558 H   0  0  0  0  0  0  0  0  0  0  0  0
   -9.7085    9.2353   -1.9182 H   0  0  0  0  0  0  0  0  0  0  0  0
   -8.7230    8.9530   -3.3932 H   0  0  0  0  0  0  0  0  0  0  0  0
  -10.4743    8.5537   -3.3932 H   0  0  0  0  0  0  0  0  0  0  0  0
  -10.1256    5.4159   -1.4853 H   0  0  0  0  0  0  0  0  0  0  0  0
  -11.3633    6.2518   -3.5844 H   0  0  0  0  0  0  0  0  0  0  0  0
  -12.2740    5.4637   -2.1921 H   0  0  0  0  0  0  0  0  0  0  0  0
  -13.4056    7.5830   -3.2750 H   0  0  0  0  0  0  0  0  0  0  0  0
  -10.9732    9.1206   -0.4423 H   0  0  0  0  0  0  0  0  0  0  0  0
  -13.2562    7.7953    1.1467 H   0  0  0  0  0  0  0  0  0  0  0  0
  -11.8127    8.6678    1.8294 H   0  0  0  0  0  0  0  0  0  0  0  0
  -13.8600   10.0555    1.8876 H   0  0  0  0  0  0  0  0  0  0  0  0
  -12.5639   10.7512    0.8374 H   0  0  0  0  0  0  0  0  0  0  0  0
  -14.6722   10.9861   -0.2847 H   0  0  0  0  0  0  0  0  0  0  0  0
  -15.4350    8.5320   -0.8480 H   0  0  0  0  0  0  0  0  0  0  0  0
  -12.3056   11.3892   -1.0547 H   0  0  0  0  0  0  0  0  0  0  0  0
  -11.8118   10.5484   -2.5633 H   0  0  0  0  0  0  0  0  0  0  0  0
  -13.2527   11.6210   -2.5633 H   0  0  0  0  0  0  0  0  0  0  0  0
  -15.6561    9.5483   -2.1985 H   0  0  0  0  0  0  0  0  0  0  0  0
  -14.6315   10.5211   -3.3078 H   0  0  0  0  0  0  0  0  0  0  0  0
  -14.5049    8.7293   -3.3078 H   0  0  0  0  0  0  0  0  0  0  0  0
  -11.5582    6.0267    1.6091 H   0  0  0  0  0  0  0  0  0  0  0  0
  -12.7124    5.9543    0.2345 H   0  0  0  0  0  0  0  0  0  0  0  0
  -11.2492    4.9123    0.2345 H   0  0  0  0  0  0  0  0  0  0  0  0
   -9.8746    8.0316    1.4496 H   0  0  0  0  0  0  0  0  0  0  0  0
   -9.2700    6.3237    1.0596 H   0  0  0  0  0  0  0  0  0  0  0  0
   -8.5455    8.9080   -0.3485 H   0  0  0  0  0  0  0  0  0  0  0  0
   -7.4871    7.8254    0.6391 H   0  0  0  0  0  0  0  0  0  0  0  0
   -7.6497    5.5529    0.2743 H   0  0  0  0  0  0  0  0  0  0  0  0
   -8.4109    4.8864   -1.2099 H   0  0  0  0  0  0  0  0  0  0  0  0
   -6.6664    5.3144   -1.2099 H   0  0  0  0  0  0  0  0  0  0  0  0
  1  2  1  0
  2  3  1  0
  3  4  1  0
  4  5  1  0
  5  6  1  0
  6  7  1  0
  7  8  1  0
  7  9  1  0
  2 10  1  0
 10 11  1  0
 11 12  1  0
 12 13  1  0
 13 14  1  6
 13 15  1  0
 15 16  1  0
 16 17  1  0
 17 18  2  0
 18 19  1  0
 19 20  1  0
 20 21  1  0
 21 22  1  0
 22 23  1  0
 22 24  1  0
 24 25  1  0
 24 26  1  0
 19 27  1  0
 27 28  1  1
 27 29  1  0
 29 30  1  0
 30 31  1  0
 31 32  1  1
  7  5  1  0
 31 10  1  0
 31 13  1  0
 27 15  1  0
 24 18  1  0
  1 33  1  0
  1 34  1  0
  1 35  1  0
  2 36  1  6
  3 37  1  0
  3 38  1  0
  4 39  1  0
  4 40  1  0
  5 41  1  6
  8 42  1  0
  8 43  1  0
  8 44  1  0
  9 45  1  0
  9 46  1  0
  9 47  1  0
 10 48  1  6
 11 49  1  0
 11 50  1  0
 12 51  1  0
 12 52  1  0
 14 53  1  0
 14 54  1  0
 14 55  1  0
 15 56  1  1
 16 57  1  0
 16 58  1  0
 17 59  1  0
 19 60  1  6
 20 61  1  0
 20 62  1  0
 21 63  1  0
 21 64  1  0
 22 65  1  6
 23 66  1  0
 25 67  1  0
 25 68  1  0
 25 69  1  0
 26 70  1  0
 26 71  1  0
 26 72  1  0
 28 73  1  0
 28 74  1  0
 28 75  1  0
 29 76  1  0
 29 77  1  0
 30 78  1  0
 30 79  1  0
 32 80  1  0
 32 81  1  0
 32 82  1  0
M  END
>  <meeko>  (6) 
{"is_sidechain": [false], "intermolecular_energy": 2.731, "internal_energy": -0.839}

$$$$
EPH_relaxed_0001_pdb2pqr_Repair_179_r2_0001_out
     RDKit          3D

 82 86  0  0  0  0  0  0  0  0999 V2000
    2.9680   18.7620   -1.3920 C   0  0  0  0  0  0  0  0  0  0  0  0
    2.4350   17.7080   -2.3660 C   0  0  2  0  0  0  0  0  0  0  0  0
    0.9600   17.9560   -2.7400 C   0  0  0  0  0  0  0  0  0  0  0  0
    0.3790   19.2360   -2.1350 C   0  0  0  0  0  0  0  0  0  0  0  0
   -0.9800   19.0040   -1.5470 C   0  0  2  0  0  0  0  0  0  0  0  0
   -1.7460   20.1940   -1.3220 O   0  0  0  0  0  0  0  0  0  0  0  0
   -1.3750   19.4490   -0.1510 C   0  0  0  0  0  0  0  0  0  0  0  0
   -0.4090   20.1610    0.7430 C   0  0  0  0  0  0  0  0  0  0  0  0
   -2.5260   18.7650    0.5190 C   0  0  0  0  0  0  0  0  0  0  0  0
    2.5930   16.3170   -1.7630 C   0  0  1  0  0  0  0  0  0  0  0  0
    3.3130   16.3390   -0.3880 C   0  0  0  0  0  0  0  0  0  0  0  0
    2.6740   15.2170    0.4700 C   0  0  0  0  0  0  0  0  0  0  0  0
    1.8510   14.3780   -0.5350 C   0  0  1  0  0  0  0  0  0  0  0  0
    2.8920   13.4360   -1.2190 C   0  0  0  0  0  0  0  0  0  0  0  0
    0.6480   13.5740    0.0570 C   0  0  2  0  0  0  0  0  0  0  0  0
    1.0270   12.4980    1.0890 C   0  0  0  0  0  0  0  0  0  0  0  0
    1.2930   11.1410    0.5260 C   0  0  0  0  0  0  0  0  0  0  0  0
    0.9560   10.7270   -0.7100 C   0  0  0  0  0  0  0  0  0  0  0  0
    0.1510   11.6320   -1.6510 C   0  0  1  0  0  0  0  0  0  0  0  0
   -1.0000   10.8150   -2.2960 C   0  0  0  0  0  0  0  0  0  0  0  0
   -0.5020    9.5490   -2.9880 C   0  0  0  0  0  0  0  0  0  0  0  0
    0.2430    8.6480   -2.0060 C   0  0  2  0  0  0  0  0  0  0  0  0
   -0.6860    8.1560   -1.0350 O   0  0  0  0  0  0  0  0  0  0  0  0
    1.4190    9.3670   -1.2870 C   0  0  0  0  0  0  0  0  0  0  0  0
    2.5630    9.6310   -2.2970 C   0  0  0  0  0  0  0  0  0  0  0  0
    1.9960    8.3920   -0.2240 C   0  0  0  0  0  0  0  0  0  0  0  0
   -0.3510   13.0060   -1.0310 C   0  0  1  0  0  0  0  0  0  0  0  0
   -1.7200   12.7990   -0.3130 C   0  0  0  0  0  0  0  0  0  0  0  0
   -0.6120   14.0320   -2.1970 C   0  0  0  0  0  0  0  0  0  0  0  0
    0.5890   14.8810   -2.6570 C   0  0  0  0  0  0  0  0  0  0  0  0
    1.2970   15.5220   -1.4600 C   0  0  2  0  0  0  0  0  0  0  0  0
    0.2810   16.4920   -0.7660 C   0  0  0  0  0  0  0  0  0  0  0  0
    2.7979   18.4256   -0.3586 H   0  0  0  0  0  0  0  0  0  0  0  0
    4.0460   18.9035   -1.5588 H   0  0  0  0  0  0  0  0  0  0  0  0
    2.4430   19.7142   -1.5588 H   0  0  0  0  0  0  0  0  0  0  0  0
    3.0264   17.7821   -3.2905 H   0  0  0  0  0  0  0  0  0  0  0  0
    0.8863   18.0250   -3.8354 H   0  0  0  0  0  0  0  0  0  0  0  0
    0.3792   17.1154   -2.3325 H   0  0  0  0  0  0  0  0  0  0  0  0
    1.0535   19.5942   -1.3434 H   0  0  0  0  0  0  0  0  0  0  0  0
    0.2825   19.9817   -2.9379 H   0  0  0  0  0  0  0  0  0  0  0  0
   -1.0646   18.0372   -2.0648 H   0  0  0  0  0  0  0  0  0  0  0  0
   -0.6710   19.9679    1.7937 H   0  0  0  0  0  0  0  0  0  0  0  0
    0.6099   19.7963    0.5462 H   0  0  0  0  0  0  0  0  0  0  0  0
   -0.4558   21.2422    0.5462 H   0  0  0  0  0  0  0  0  0  0  0  0
   -2.4089   18.8346    1.6105 H   0  0  0  0  0  0  0  0  0  0  0  0
   -3.4662   19.2510    0.2194 H   0  0  0  0  0  0  0  0  0  0  0  0
   -2.5485   17.7068    0.2194 H   0  0  0  0  0  0  0  0  0  0  0  0
    3.1548   15.8282   -2.5726 H   0  0  0  0  0  0  0  0  0  0  0  0
    4.3883   16.1486   -0.5205 H   0  0  0  0  0  0  0  0  0  0  0  0
    3.2038   17.3192    0.0992 H   0  0  0  0  0  0  0  0  0  0  0  0
    3.4516   14.6009    0.9450 H   0  0  0  0  0  0  0  0  0  0  0  0
    2.0537   15.6175    1.2854 H   0  0  0  0  0  0  0  0  0  0  0  0
    3.4732   12.9101   -0.4473 H   0  0  0  0  0  0  0  0  0  0  0  0
    2.3654   12.7013   -1.8458 H   0  0  0  0  0  0  0  0  0  0  0  0
    3.5706   14.0332   -1.8458 H   0  0  0  0  0  0  0  0  0  0  0  0
    0.1019   14.3465    0.6183 H   0  0  0  0  0  0  0  0  0  0  0  0
    1.9349   12.8332    1.6119 H   0  0  0  0  0  0  0  0  0  0  0  0
    0.1540   12.3882    1.7492 H   0  0  0  0  0  0  0  0  0  0  0  0
    1.8079   10.4183    1.1761 H   0  0  0  0  0  0  0  0  0  0  0  0
    0.8550   11.9646   -2.4281 H   0  0  0  0  0  0  0  0  0  0  0  0
   -1.7137   10.5294   -1.5092 H   0  0  0  0  0  0  0  0  0  0  0  0
   -1.4727   11.4496   -3.0601 H   0  0  0  0  0  0  0  0  0  0  0  0
   -1.3628    9.0005   -3.3981 H   0  0  0  0  0  0  0  0  0  0  0  0
    0.1891    9.8377   -3.7936 H   0  0  0  0  0  0  0  0  0  0  0  0
    0.6856    7.8239   -2.5848 H   0  0  0  0  0  0  0  0  0  0  0  0
   -1.5690    8.4770   -1.2840 H   0  0  0  0  0  0  0  0  0  0  0  0
    3.4929    9.8456   -1.7499 H   0  0  0  0  0  0  0  0  0  0  0  0
    2.7063    8.7423   -2.9292 H   0  0  0  0  0  0  0  0  0  0  0  0
    2.3024   10.4926   -2.9292 H   0  0  0  0  0  0  0  0  0  0  0  0
    1.7708    8.7726    0.7832 H   0  0  0  0  0  0  0  0  0  0  0  0
    1.5399    7.3991   -0.3513 H   0  0  0  0  0  0  0  0  0  0  0  0
    3.0858    8.3140   -0.3513 H   0  0  0  0  0  0  0  0  0  0  0  0
   -1.5698   12.8217    0.7765 H   0  0  0  0  0  0  0  0  0  0  0  0
   -2.4122   13.6027   -0.6045 H   0  0  0  0  0  0  0  0  0  0  0  0
   -2.1436   11.8266   -0.6045 H   0  0  0  0  0  0  0  0  0  0  0  0
   -0.9699   13.4626   -3.0674 H   0  0  0  0  0  0  0  0  0  0  0  0
   -1.3353   14.7535   -1.7891 H   0  0  0  0  0  0  0  0  0  0  0  0
    1.3010   14.2365   -3.1934 H   0  0  0  0  0  0  0  0  0  0  0  0
    0.2213   15.6807   -3.3167 H   0  0  0  0  0  0  0  0  0  0  0  0
    0.3755   16.4018    0.3262 H   0  0  0  0  0  0  0  0  0  0  0  0
    0.4973   17.5272   -1.0685 H   0  0  0  0  0  0  0  0  0  0  0  0
   -0.7431   16.2280   -1.0685 H   0  0  0  0  0  0  0  0  0  0  0  0
  1  2  1  0
  2  3  1  0
  3  4  1  0
  4  5  1  0
  5  6  1  0
  6  7  1  0
  7  8  1  0
  7  9  1  0
  2 10  1  0
 10 11  1  0
 11 12  1  0
 12 13  1  0
 13 14  1  6
 13 15  1  0
 15 16  1  0
 16 17  1  0
 17 18  2  0
 18 19  1  0
 19 20  1  0
 20 21  1  0
 21 22  1  0
 22 23  1  0
 22 24  1  0
 24 25  1  0
 24 26  1  0
 19 27  1  0
 27 28  1  1
 27 29  1  0
 29 30  1  0
 30 31  1  0
 31 32  1  1
  7  5  1  0
 31 10  1  0
 31 13  1  0
 27 15  1  0
 24 18  1  0
  1 33  1  0
  1 34  1  0
  1 35  1  0
  2 36  1  6
  3 37  1  0
  3 38  1  0
  4 39  1  0
  4 40  1  0
  5 41  1  6
  8 42  1  0
  8 43  1  0
  8 44  1  0
  9 45  1  0
  9 46  1  0
  9 47  1  0
 10 48  1  6
 11 49  1  0
 11 50  1  0
 12 51  1  0
 12 52  1  0
 14 53  1  0
 14 54  1  0
 14 55  1  0
 15 56  1  1
 16 57  1  0
 16 58  1  0
 17 59  1  0
 19 60  1  6
 20 61  1  0
 20 62  1  0
 21 63  1  0
 21 64  1  0
 22 65  1  6
 23 66  1  0
 25 67  1  0
 25 68  1  0
 25 69  1  0
 26 70  1  0
 26 71  1  0
 26 72  1  0
 28 73  1  0
 28 74  1  0
 28 75  1  0
 29 76  1  0
 29 77  1  0
 30 78  1  0
 30 79  1  0
 32 80  1  0
 32 81  1  0
 32 82  1  0
M  END
>  <meeko>  (7) 
{"is_sidechain": [false], "intermolecular_energy": 2.731, "internal_energy": -0.839}

$$$$
EPH_relaxed_0001_pdb2pqr_Repair_179_r2_0001_out
     RDKit          3D

 82 86  0  0  0  0  0  0  0  0999 V2000
   -0.9280   16.3900   -5.8570 C   0  0  0  0  0  0  0  0  0  0  0  0
    0.1630   15.6990   -6.6790 C   0  0  2  0  0  0  0  0  0  0  0  0
   -0.2340   15.5480   -8.1610 C   0  0  0  0  0  0  0  0  0  0  0  0
    0.4350   16.5690   -9.0850 C   0  0  0  0  0  0  0  0  0  0  0  0
    1.8370   16.1680   -9.4310 C   0  0  2  0  0  0  0  0  0  0  0  0
    2.3260   16.7050  -10.6670 O   0  0  0  0  0  0  0  0  0  0  0  0
    2.1850   15.2760  -10.6090 C   0  0  0  0  0  0  0  0  0  0  0  0
    1.1260   14.7310  -11.5150 C   0  0  0  0  0  0  0  0  0  0  0  0
    3.4900   14.5430  -10.5900 C   0  0  0  0  0  0  0  0  0  0  0  0
    0.4770   14.3320   -6.0820 C   0  0  1  0  0  0  0  0  0  0  0  0
    1.7010   13.6530   -6.7520 C   0  0  0  0  0  0  0  0  0  0  0  0
    2.4360   12.8600   -5.6410 C   0  0  0  0  0  0  0  0  0  0  0  0
    1.4410   12.8330   -4.4570 C   0  0  1  0  0  0  0  0  0  0  0  0
    0.4450   11.6810   -4.7960 C   0  0  0  0  0  0  0  0  0  0  0  0
    2.0650   12.6570   -3.0340 C   0  0  2  0  0  0  0  0  0  0  0  0
    2.8150   11.3330   -2.8100 C   0  0  0  0  0  0  0  0  0  0  0  0
    1.9850   10.2120   -2.2770 C   0  0  0  0  0  0  0  0  0  0  0  0
    0.7650   10.3380   -1.7230 C   0  0  0  0  0  0  0  0  0  0  0  0
    0.1400   11.7210   -1.5000 C   0  0  1  0  0  0  0  0  0  0  0  0
   -0.4490   11.7970   -0.0670 C   0  0  0  0  0  0  0  0  0  0  0  0
   -1.4250   10.6620    0.2270 C   0  0  0  0  0  0  0  0  0  0  0  0
   -0.7500    9.3040    0.0500 C   0  0  2  0  0  0  0  0  0  0  0  0
    0.2530    9.1520    1.0590 O   0  0  0  0  0  0  0  0  0  0  0  0
   -0.1110    9.1150   -1.3540 C   0  0  0  0  0  0  0  0  0  0  0  0
   -1.2270    8.9770   -2.4200 C   0  0  0  0  0  0  0  0  0  0  0  0
    0.6560    7.7650   -1.3530 C   0  0  0  0  0  0  0  0  0  0  0  0
    1.0670   12.9650   -1.8460 C   0  0  1  0  0  0  0  0  0  0  0  0
    1.9440   13.3350   -0.6110 C   0  0  0  0  0  0  0  0  0  0  0  0
    0.1580   14.2170   -2.1370 C   0  0  0  0  0  0  0  0  0  0  0  0
   -0.3290   14.4010   -3.5870 C   0  0  0  0  0  0  0  0  0  0  0  0
    0.8350   14.2790   -4.5750 C   0  0  2  0  0  0  0  0  0  0  0  0
    1.8430   15.4400   -4.2730 C   0  0  0  0  0  0  0  0  0  0  0  0
   -0.7189   16.2575   -4.7852 H   0  0  0  0  0  0  0  0  0  0  0  0
   -0.9440   17.4633   -6.0976 H   0  0  0  0  0  0  0  0  0  0  0  0
   -1.9051   15.9457   -6.0976 H   0  0  0  0  0  0  0  0  0  0  0  0
    1.0590   16.3360   -6.6407 H   0  0  0  0  0  0  0  0  0  0  0  0
    0.0495   14.5391   -8.4953 H   0  0  0  0  0  0  0  0  0  0  0  0
   -1.3185   15.7215   -8.2223 H   0  0  0  0  0  0  0  0  0  0  0  0
   -0.1519   16.6493  -10.0119 H   0  0  0  0  0  0  0  0  0  0  0  0
    0.4743   17.5340   -8.5586 H   0  0  0  0  0  0  0  0  0  0  0  0
    2.1131   16.1268   -8.3670 H   0  0  0  0  0  0  0  0  0  0  0  0
    0.3082   14.3101  -10.9116 H   0  0  0  0  0  0  0  0  0  0  0  0
    0.7347   15.5397  -12.1497 H   0  0  0  0  0  0  0  0  0  0  0  0
    1.5567   13.9425  -12.1497 H   0  0  0  0  0  0  0  0  0  0  0  0
    3.7982   14.3699   -9.5483 H   0  0  0  0  0  0  0  0  0  0  0  0
    3.3756   13.5772  -11.1038 H   0  0  0  0  0  0  0  0  0  0  0  0
    4.2552   15.1433  -11.1038 H   0  0  0  0  0  0  0  0  0  0  0  0
   -0.4854   13.8293   -6.2582 H   0  0  0  0  0  0  0  0  0  0  0  0
    1.3672   12.9702   -7.5472 H   0  0  0  0  0  0  0  0  0  0  0  0
    2.3659   14.4003   -7.2097 H   0  0  0  0  0  0  0  0  0  0  0  0
    2.6646   11.8386   -5.9795 H   0  0  0  0  0  0  0  0  0  0  0  0
    3.3974   13.3192   -5.3674 H   0  0  0  0  0  0  0  0  0  0  0  0
    0.0635   11.2398   -3.8634 H   0  0  0  0  0  0  0  0  0  0  0  0
   -0.3948   12.0829   -5.3818 H   0  0  0  0  0  0  0  0  0  0  0  0
    0.9640   10.9081   -5.3818 H   0  0  0  0  0  0  0  0  0  0  0  0
    2.8347   13.4426   -3.0151 H   0  0  0  0  0  0  0  0  0  0  0  0
    3.2375   11.0144   -3.7743 H   0  0  0  0  0  0  0  0  0  0  0  0
    3.5754   11.5401   -2.0426 H   0  0  0  0  0  0  0  0  0  0  0  0
    2.4061    9.1979   -2.3427 H   0  0  0  0  0  0  0  0  0  0  0  0
   -0.6675   11.8135   -2.2412 H   0  0  0  0  0  0  0  0  0  0  0  0
    0.3778   11.7471    0.6568 H   0  0  0  0  0  0  0  0  0  0  0  0
   -1.0038   12.7433    0.0154 H   0  0  0  0  0  0  0  0  0  0  0  0
   -1.7830   10.7540    1.2630 H   0  0  0  0  0  0  0  0  0  0  0  0
   -2.2668   10.7307   -0.4777 H   0  0  0  0  0  0  0  0  0  0  0  0
   -1.5298    8.5341    0.1458 H   0  0  0  0  0  0  0  0  0  0  0  0
    0.2440    8.2240    1.3460 H   0  0  0  0  0  0  0  0  0  0  0  0
   -2.1992    8.8568   -1.9196 H   0  0  0  0  0  0  0  0  0  0  0  0
   -1.2473    9.8795   -3.0486 H   0  0  0  0  0  0  0  0  0  0  0  0
   -1.0268    8.0968   -3.0486 H   0  0  0  0  0  0  0  0  0  0  0  0
    0.8368    7.4468   -0.3157 H   0  0  0  0  0  0  0  0  0  0  0  0
    0.0564    7.0022   -1.8713 H   0  0  0  0  0  0  0  0  0  0  0  0
    1.6182    7.8896   -1.8713 H   0  0  0  0  0  0  0  0  0  0  0  0
    1.3934   13.1027    0.3125 H   0  0  0  0  0  0  0  0  0  0  0  0
    2.8778   12.7541   -0.6371 H   0  0  0  0  0  0  0  0  0  0  0  0
    2.1795   14.4092   -0.6371 H   0  0  0  0  0  0  0  0  0  0  0  0
   -0.7316   14.1386   -1.4948 H   0  0  0  0  0  0  0  0  0  0  0  0
    0.7972   15.0893   -1.9356 H   0  0  0  0  0  0  0  0  0  0  0  0
   -1.0780   13.6286   -3.8160 H   0  0  0  0  0  0  0  0  0  0  0  0
   -0.7690   15.4044   -3.6849 H   0  0  0  0  0  0  0  0  0  0  0  0
    1.9478   15.5607   -3.1847 H   0  0  0  0  0  0  0  0  0  0  0  0
    2.8226   15.1983   -4.7112 H   0  0  0  0  0  0  0  0  0  0  0  0
    1.4662   16.3760   -4.7112 H   0  0  0  0  0  0  0  0  0  0  0  0
  1  2  1  0
  2  3  1  0
  3  4  1  0
  4  5  1  0
  5  6  1  0
  6  7  1  0
  7  8  1  0
  7  9  1  0
  2 10  1  0
 10 11  1  0
 11 12  1  0
 12 13  1  0
 13 14  1  6
 13 15  1  0
 15 16  1  0
 16 17  1  0
 17 18  2  0
 18 19  1  0
 19 20  1  0
 20 21  1  0
 21 22  1  0
 22 23  1  0
 22 24  1  0
 24 25  1  0
 24 26  1  0
 19 27  1  0
 27 28  1  1
 27 29  1  0
 29 30  1  0
 30 31  1  0
 31 32  1  1
  7  5  1  0
 31 10  1  0
 31 13  1  0
 27 15  1  0
 24 18  1  0
  1 33  1  0
  1 34  1  0
  1 35  1  0
  2 36  1  6
  3 37  1  0
  3 38  1  0
  4 39  1  0
  4 40  1  0
  5 41  1  1
  8 42  1  0
  8 43  1  0
  8 44  1  0
  9 45  1  0
  9 46  1  0
  9 47  1  0
 10 48  1  1
 11 49  1  0
 11 50  1  0
 12 51  1  0
 12 52  1  0
 14 53  1  0
 14 54  1  0
 14 55  1  0
 15 56  1  6
 16 57  1  0
 16 58  1  0
 17 59  1  0
 19 60  1  6
 20 61  1  0
 20 62  1  0
 21 63  1  0
 21 64  1  0
 22 65  1  1
 23 66  1  0
 25 67  1  0
 25 68  1  0
 25 69  1  0
 26 70  1  0
 26 71  1  0
 26 72  1  0
 28 73  1  0
 28 74  1  0
 28 75  1  0
 29 76  1  0
 29 77  1  0
 30 78  1  0
 30 79  1  0
 32 80  1  0
 32 81  1  0
 32 82  1  0
M  END
>  <meeko>  (8) 
{"is_sidechain": [false], "intermolecular_energy": 2.731, "internal_energy": -0.839}

$$$$
EPH_relaxed_0001_pdb2pqr_Repair_179_r2_0001_out
     RDKit          3D

 82 86  0  0  0  0  0  0  0  0999 V2000
   -2.2450    7.8470   -2.2090 C   0  0  0  0  0  0  0  0  0  0  0  0
   -2.1440    8.4340   -0.7990 C   0  0  2  0  0  0  0  0  0  0  0  0
   -3.4950    8.3990   -0.0570 C   0  0  0  0  0  0  0  0  0  0  0  0
   -4.7090    8.5290   -0.9820 C   0  0  0  0  0  0  0  0  0  0  0  0
   -5.5080    7.2620   -1.0290 C   0  0  2  0  0  0  0  0  0  0  0  0
   -5.6090    6.6660   -2.3290 O   0  0  0  0  0  0  0  0  0  0  0  0
   -6.8370    7.1380   -1.7510 C   0  0  0  0  0  0  0  0  0  0  0  0
   -7.4430    8.2990   -2.4750 C   0  0  0  0  0  0  0  0  0  0  0  0
   -7.7730    6.0430   -1.3440 C   0  0  0  0  0  0  0  0  0  0  0  0
   -1.6250    9.8650   -0.8680 C   0  0  1  0  0  0  0  0  0  0  0  0
   -1.1660   10.4020    0.5150 C   0  0  0  0  0  0  0  0  0  0  0  0
    0.0470   11.3310    0.2530 C   0  0  0  0  0  0  0  0  0  0  0  0
    0.0390   11.5620   -1.2760 C   0  0  1  0  0  0  0  0  0  0  0  0
   -1.0260   12.6790   -1.5080 C   0  0  0  0  0  0  0  0  0  0  0  0
    1.4130   11.9310   -1.9260 C   0  0  2  0  0  0  0  0  0  0  0  0
    2.0310   13.2530   -1.4390 C   0  0  0  0  0  0  0  0  0  0  0  0
    1.6520   14.4630   -2.2260 C   0  0  0  0  0  0  0  0  0  0  0  0
    1.0800   14.4560   -3.4440 C   0  0  0  0  0  0  0  0  0  0  0  0
    0.8480   13.1400   -4.1980 C   0  0  1  0  0  0  0  0  0  0  0  0
    1.3180   13.2950   -5.6680 C   0  0  0  0  0  0  0  0  0  0  0  0
    0.6730   14.4880   -6.3660 C   0  0  0  0  0  0  0  0  0  0  0  0
    0.9750   15.7850   -5.6190 C   0  0  2  0  0  0  0  0  0  0  0  0
    2.3760   16.0570   -5.7170 O   0  0  0  0  0  0  0  0  0  0  0  0
    0.5540   15.7440   -4.1240 C   0  0  0  0  0  0  0  0  0  0  0  0
   -0.9910   15.7520   -4.0180 C   0  0  0  0  0  0  0  0  0  0  0  0
    1.0420   17.0570   -3.4540 C   0  0  0  0  0  0  0  0  0  0  0  0
    1.4290   11.8330   -3.5050 C   0  0  1  0  0  0  0  0  0  0  0  0
    2.9170   11.6270   -3.9230 C   0  0  0  0  0  0  0  0  0  0  0  0
    0.6410   10.5770   -4.0350 C   0  0  0  0  0  0  0  0  0  0  0  0
   -0.6430   10.1920   -3.2770 C   0  0  0  0  0  0  0  0  0  0  0  0
   -0.3920   10.1320   -1.7670 C   0  0  2  0  0  0  0  0  0  0  0  0
    0.6600    9.0020   -1.5020 C   0  0  0  0  0  0  0  0  0  0  0  0
   -2.4312    6.7649   -2.1432 H   0  0  0  0  0  0  0  0  0  0  0  0
   -3.0733    8.3294   -2.7486 H   0  0  0  0  0  0  0  0  0  0  0  0
   -1.3031    8.0248   -2.7486 H   0  0  0  0  0  0  0  0  0  0  0  0
   -1.4391    7.8096   -0.2305 H   0  0  0  0  0  0  0  0  0  0  0  0
   -3.5702    7.4434    0.4825 H   0  0  0  0  0  0  0  0  0  0  0  0
   -3.5125    9.2657    0.6201 H   0  0  0  0  0  0  0  0  0  0  0  0
   -5.3518    9.3424   -0.6144 H   0  0  0  0  0  0  0  0  0  0  0  0
   -4.3449    8.7428   -1.9978 H   0  0  0  0  0  0  0  0  0  0  0  0
   -5.1957    6.9989   -0.0076 H   0  0  0  0  0  0  0  0  0  0  0  0
   -7.8237    9.0283   -1.7448 H   0  0  0  0  0  0  0  0  0  0  0  0
   -6.6792    8.7767   -3.1062 H   0  0  0  0  0  0  0  0  0  0  0  0
   -8.2716    7.9455   -3.1062 H   0  0  0  0  0  0  0  0  0  0  0  0
   -7.8191    5.9891   -0.2463 H   0  0  0  0  0  0  0  0  0  0  0  0
   -8.7766    6.2512   -1.7433 H   0  0  0  0  0  0  0  0  0  0  0  0
   -7.4112    5.0840   -1.7433 H   0  0  0  0  0  0  0  0  0  0  0  0
   -2.5119   10.3622   -1.2879 H   0  0  0  0  0  0  0  0  0  0  0  0
   -1.9805   10.9675    0.9913 H   0  0  0  0  0  0  0  0  0  0  0  0
   -0.8933    9.5765    1.1889 H   0  0  0  0  0  0  0  0  0  0  0  0
   -0.0705   12.2837    0.7902 H   0  0  0  0  0  0  0  0  0  0  0  0
    0.9924   10.8911    0.6033 H   0  0  0  0  0  0  0  0  0  0  0  0
   -1.3826   13.0530   -0.5369 H   0  0  0  0  0  0  0  0  0  0  0  0
   -0.5730   13.5054   -2.0753 H   0  0  0  0  0  0  0  0  0  0  0  0
   -1.8731   12.2659   -2.0753 H   0  0  0  0  0  0  0  0  0  0  0  0
    2.0736   11.1361   -1.5495 H   0  0  0  0  0  0  0  0  0  0  0  0
    1.7149   13.4124   -0.3975 H   0  0  0  0  0  0  0  0  0  0  0  0
    3.1189   13.1418   -1.5577 H   0  0  0  0  0  0  0  0  0  0  0  0
    1.8576   15.4436   -1.7720 H   0  0  0  0  0  0  0  0  0  0  0  0
   -0.2370   12.9609   -4.1711 H   0  0  0  0  0  0  0  0  0  0  0  0
    2.4097   13.4294   -5.6768 H   0  0  0  0  0  0  0  0  0  0  0  0
    1.0172   12.3875   -6.2120 H   0  0  0  0  0  0  0  0  0  0  0  0
    1.0671   14.5622   -7.3903 H   0  0  0  0  0  0  0  0  0  0  0  0
   -0.4166   14.3380   -6.3834 H   0  0  0  0  0  0  0  0  0  0  0  0
    0.3811   16.5825   -6.0895 H   0  0  0  0  0  0  0  0  0  0  0  0
    2.4780   16.9310   -6.1310 H   0  0  0  0  0  0  0  0  0  0  0  0
   -1.2858   15.7535   -2.9582 H   0  0  0  0  0  0  0  0  0  0  0  0
   -1.3876   16.6522   -4.5102 H   0  0  0  0  0  0  0  0  0  0  0  0
   -1.3969   14.8559   -4.5102 H   0  0  0  0  0  0  0  0  0  0  0  0
    1.0013   16.9476   -2.3602 H   0  0  0  0  0  0  0  0  0  0  0  0
    2.0771   17.2639   -3.7636 H   0  0  0  0  0  0  0  0  0  0  0  0
    0.3933   17.8897   -3.7636 H   0  0  0  0  0  0  0  0  0  0  0  0
    3.5423   11.5404   -3.0222 H   0  0  0  0  0  0  0  0  0  0  0  0
    3.0060   10.7080   -4.5209 H   0  0  0  0  0  0  0  0  0  0  0  0
    3.2524   12.4873   -4.5209 H   0  0  0  0  0  0  0  0  0  0  0  0
    0.3633   10.7754   -5.0807 H   0  0  0  0  0  0  0  0  0  0  0  0
    1.3249    9.7272   -3.8928 H   0  0  0  0  0  0  0  0  0  0  0  0
   -1.4208   10.9421   -3.4828 H   0  0  0  0  0  0  0  0  0  0  0  0
   -0.9666    9.1976   -3.6183 H   0  0  0  0  0  0  0  0  0  0  0  0
    0.7867    8.8659   -0.4178 H   0  0  0  0  0  0  0  0  0  0  0  0
    0.3087    8.0613   -1.9510 H   0  0  0  0  0  0  0  0  0  0  0  0
    1.6234    9.2853   -1.9510 H   0  0  0  0  0  0  0  0  0  0  0  0
  1  2  1  0
  2  3  1  0
  3  4  1  0
  4  5  1  0
  5  6  1  0
  6  7  1  0
  7  8  1  0
  7  9  1  0
  2 10  1  0
 10 11  1  0
 11 12  1  0
 12 13  1  0
 13 14  1  1
 13 15  1  0
 15 16  1  0
 16 17  1  0
 17 18  2  0
 18 19  1  0
 19 20  1  0
 20 21  1  0
 21 22  1  0
 22 23  1  0
 22 24  1  0
 24 25  1  0
 24 26  1  0
 19 27  1  0
 27 28  1  6
 27 29  1  0
 29 30  1  0
 30 31  1  0
 31 32  1  6
  7  5  1  0
 31 10  1  0
 31 13  1  0
 27 15  1  0
 24 18  1  0
  1 33  1  0
  1 34  1  0
  1 35  1  0
  2 36  1  1
  3 37  1  0
  3 38  1  0
  4 39  1  0
  4 40  1  0
  5 41  1  1
  8 42  1  0
  8 43  1  0
  8 44  1  0
  9 45  1  0
  9 46  1  0
  9 47  1  0
 10 48  1  6
 11 49  1  0
 11 50  1  0
 12 51  1  0
 12 52  1  0
 14 53  1  0
 14 54  1  0
 14 55  1  0
 15 56  1  1
 16 57  1  0
 16 58  1  0
 17 59  1  0
 19 60  1  6
 20 61  1  0
 20 62  1  0
 21 63  1  0
 21 64  1  0
 22 65  1  6
 23 66  1  0
 25 67  1  0
 25 68  1  0
 25 69  1  0
 26 70  1  0
 26 71  1  0
 26 72  1  0
 28 73  1  0
 28 74  1  0
 28 75  1  0
 29 76  1  0
 29 77  1  0
 30 78  1  0
 30 79  1  0
 32 80  1  0
 32 81  1  0
 32 82  1  0
M  END
>  <meeko>  (9) 
{"is_sidechain": [false], "intermolecular_energy": 2.731, "internal_energy": -0.839}

$$$$
EPH_relaxed_0001_pdb2pqr_Repair_179_r2_0001_out
     RDKit          3D

 82 86  0  0  0  0  0  0  0  0999 V2000
   -3.9120    7.0640   -3.4390 C   0  0  0  0  0  0  0  0  0  0  0  0
   -3.9700    7.1750   -1.9130 C   0  0  2  0  0  0  0  0  0  0  0  0
   -5.3990    6.9750   -1.3700 C   0  0  0  0  0  0  0  0  0  0  0  0
   -6.4950    7.3820   -2.3580 C   0  0  0  0  0  0  0  0  0  0  0  0
   -7.8170    7.5640   -1.6750 C   0  0  2  0  0  0  0  0  0  0  0  0
   -8.3690    6.3670   -1.1110 O   0  0  0  0  0  0  0  0  0  0  0  0
   -9.1130    6.9630   -2.1870 C   0  0  0  0  0  0  0  0  0  0  0  0
   -9.1500    6.1350   -3.4330 C   0  0  0  0  0  0  0  0  0  0  0  0
  -10.4070    7.5790   -1.7550 C   0  0  0  0  0  0  0  0  0  0  0  0
   -3.4290    8.5290   -1.4690 C   0  0  1  0  0  0  0  0  0  0  0  0
   -4.0340    9.0010   -0.1210 C   0  0  0  0  0  0  0  0  0  0  0  0
   -2.9150    9.7700    0.6280 C   0  0  0  0  0  0  0  0  0  0  0  0
   -1.8200   10.0010   -0.4400 C   0  0  1  0  0  0  0  0  0  0  0  0
   -2.3050   11.2440   -1.2490 C   0  0  0  0  0  0  0  0  0  0  0  0
   -0.3630   10.1930    0.0950 C   0  0  2  0  0  0  0  0  0  0  0  0
   -0.1550   11.4250    0.9930 C   0  0  0  0  0  0  0  0  0  0  0  0
    0.2430   12.6750    0.2790 C   0  0  0  0  0  0  0  0  0  0  0  0
    0.7010   12.7410   -0.9850 C   0  0  0  0  0  0  0  0  0  0  0  0
    0.9520   11.4660   -1.8000 C   0  0  1  0  0  0  0  0  0  0  0  0
    2.3340   11.5610   -2.4980 C   0  0  0  0  0  0  0  0  0  0  0  0
    2.4800   12.8280   -3.3360 C   0  0  0  0  0  0  0  0  0  0  0  0
    2.2810   14.0750   -2.4790 C   0  0  2  0  0  0  0  0  0  0  0  0
    3.3590   14.1670   -1.5420 O   0  0  0  0  0  0  0  0  0  0  0  0
    0.9260   14.0860   -1.7190 C   0  0  0  0  0  0  0  0  0  0  0  0
   -0.2340   14.2910   -2.7250 C   0  0  0  0  0  0  0  0  0  0  0  0
    0.9130   15.3260   -0.7840 C   0  0  0  0  0  0  0  0  0  0  0  0
    0.7550   10.0950   -1.0200 C   0  0  1  0  0  0  0  0  0  0  0  0
    2.0770    9.7020   -0.2920 C   0  0  0  0  0  0  0  0  0  0  0  0
    0.4640    8.9500   -2.0610 C   0  0  0  0  0  0  0  0  0  0  0  0
   -1.0080    8.7300   -2.4590 C   0  0  0  0  0  0  0  0  0  0  0  0
   -1.9040    8.6380   -1.2190 C   0  0  2  0  0  0  0  0  0  0  0  0
   -1.4530    7.3830   -0.3960 C   0  0  0  0  0  0  0  0  0  0  0  0
   -3.4194    6.1213   -3.7196 H   0  0  0  0  0  0  0  0  0  0  0  0
   -4.9335    7.0795   -3.8469 H   0  0  0  0  0  0  0  0  0  0  0  0
   -3.3414    7.9114   -3.8469 H   0  0  0  0  0  0  0  0  0  0  0  0
   -3.3440    6.3708   -1.4991 H   0  0  0  0  0  0  0  0  0  0  0  0
   -5.5312    5.9111   -1.1235 H   0  0  0  0  0  0  0  0  0  0  0  0
   -5.5023    7.6257   -0.4892 H   0  0  0  0  0  0  0  0  0  0  0  0
   -6.2084    8.3292   -2.8382 H   0  0  0  0  0  0  0  0  0  0  0  0
   -6.6011    6.5792   -3.1025 H   0  0  0  0  0  0  0  0  0  0  0  0
   -7.5469    8.5866   -1.3728 H   0  0  0  0  0  0  0  0  0  0  0  0
   -9.1976    5.0695   -3.1639 H   0  0  0  0  0  0  0  0  0  0  0  0
  -10.0370    6.4035   -4.0255 H   0  0  0  0  0  0  0  0  0  0  0  0
   -8.2425    6.3233   -4.0255 H   0  0  0  0  0  0  0  0  0  0  0  0
  -10.4537    7.6012   -0.6562 H   0  0  0  0  0  0  0  0  0  0  0  0
  -10.4731    8.6052   -2.1457 H   0  0  0  0  0  0  0  0  0  0  0  0
  -11.2452    6.9833   -2.1457 H   0  0  0  0  0  0  0  0  0  0  0  0
   -3.7117    9.1357   -2.3419 H   0  0  0  0  0  0  0  0  0  0  0  0
   -4.8926    9.6641   -0.3029 H   0  0  0  0  0  0  0  0  0  0  0  0
   -4.3903    8.1461    0.4724 H   0  0  0  0  0  0  0  0  0  0  0  0
   -3.2925   10.7295    1.0113 H   0  0  0  0  0  0  0  0  0  0  0  0
   -2.5379    9.2147    1.4995 H   0  0  0  0  0  0  0  0  0  0  0  0
   -2.6144   12.0370   -0.5523 H   0  0  0  0  0  0  0  0  0  0  0  0
   -1.4845   11.6121   -1.8825 H   0  0  0  0  0  0  0  0  0  0  0  0
   -3.1580   10.9592   -1.8825 H   0  0  0  0  0  0  0  0  0  0  0  0
   -0.2358    9.3198    0.7517 H   0  0  0  0  0  0  0  0  0  0  0  0
   -1.0983   11.6222    1.5234 H   0  0  0  0  0  0  0  0  0  0  0  0
    0.6826   11.1765    1.6614 H   0  0  0  0  0  0  0  0  0  0  0  0
    0.1544   13.6213    0.8327 H   0  0  0  0  0  0  0  0  0  0  0  0
    0.1542   11.4264   -2.5563 H   0  0  0  0  0  0  0  0  0  0  0  0
    3.1193   11.5551   -1.7278 H   0  0  0  0  0  0  0  0  0  0  0  0
    2.4258   10.6996   -3.1760 H   0  0  0  0  0  0  0  0  0  0  0  0
    3.4866   12.8526   -3.7790 H   0  0  0  0  0  0  0  0  0  0  0  0
    1.7129   12.8178   -4.1243 H   0  0  0  0  0  0  0  0  0  0  0  0
    2.2677   14.9419   -3.1559 H   0  0  0  0  0  0  0  0  0  0  0  0
    3.0460   14.6870   -0.7830 H   0  0  0  0  0  0  0  0  0  0  0  0
   -1.1718   14.4567   -2.1745 H   0  0  0  0  0  0  0  0  0  0  0  0
   -0.0207   15.1654   -3.3574 H   0  0  0  0  0  0  0  0  0  0  0  0
   -0.3333   13.3965   -3.3574 H   0  0  0  0  0  0  0  0  0  0  0  0
    0.9165   14.9944    0.2648 H   0  0  0  0  0  0  0  0  0  0  0  0
    1.8048   15.9403   -0.9773 H   0  0  0  0  0  0  0  0  0  0  0  0
    0.0086   15.9215   -0.9773 H   0  0  0  0  0  0  0  0  0  0  0  0
    1.9238    9.7476    0.7963 H   0  0  0  0  0  0  0  0  0  0  0  0
    2.3639    8.6797   -0.5794 H   0  0  0  0  0  0  0  0  0  0  0  0
    2.8758   10.4015   -0.5794 H   0  0  0  0  0  0  0  0  0  0  0  0
    1.0252    9.1834   -2.9778 H   0  0  0  0  0  0  0  0  0  0  0  0
    0.7681    8.0201   -1.5582 H   0  0  0  0  0  0  0  0  0  0  0  0
   -1.3419    9.5725   -3.0824 H   0  0  0  0  0  0  0  0  0  0  0  0
   -1.0829    7.7848   -3.0166 H   0  0  0  0  0  0  0  0  0  0  0  0
   -1.5317    7.6019    0.6791 H   0  0  0  0  0  0  0  0  0  0  0  0
   -2.1006    6.5293   -0.6447 H   0  0  0  0  0  0  0  0  0  0  0  0
   -0.4102    7.1368   -0.6447 H   0  0  0  0  0  0  0  0  0  0  0  0
  1  2  1  0
  2  3  1  0
  3  4  1  0
  4  5  1  0
  5  6  1  0
  6  7  1  0
  7  8  1  0
  7  9  1  0
  2 10  1  0
 10 11  1  0
 11 12  1  0
 12 13  1  0
 13 14  1  6
 13 15  1  0
 15 16  1  0
 16 17  1  0
 17 18  2  0
 18 19  1  0
 19 20  1  0
 20 21  1  0
 21 22  1  0
 22 23  1  0
 22 24  1  0
 24 25  1  0
 24 26  1  0
 19 27  1  0
 27 28  1  1
 27 29  1  0
 29 30  1  0
 30 31  1  0
 31 32  1  1
  7  5  1  0
 31 10  1  0
 31 13  1  0
 27 15  1  0
 24 18  1  0
  1 33  1  0
  1 34  1  0
  1 35  1  0
  2 36  1  1
  3 37  1  0
  3 38  1  0
  4 39  1  0
  4 40  1  0
  5 41  1  1
  8 42  1  0
  8 43  1  0
  8 44  1  0
  9 45  1  0
  9 46  1  0
  9 47  1  0
 10 48  1  6
 11 49  1  0
 11 50  1  0
 12 51  1  0
 12 52  1  0
 14 53  1  0
 14 54  1  0
 14 55  1  0
 15 56  1  1
 16 57  1  0
 16 58  1  0
 17 59  1  0
 19 60  1  6
 20 61  1  0
 20 62  1  0
 21 63  1  0
 21 64  1  0
 22 65  1  6
 23 66  1  0
 25 67  1  0
 25 68  1  0
 25 69  1  0
 26 70  1  0
 26 71  1  0
 26 72  1  0
 28 73  1  0
 28 74  1  0
 28 75  1  0
 29 76  1  0
 29 77  1  0
 30 78  1  0
 30 79  1  0
 32 80  1  0
 32 81  1  0
 32 82  1  0
M  END
>  <meeko>  (10) 
{"is_sidechain": [false], "intermolecular_energy": 2.731, "internal_energy": -0.839}

$$$$
EPH_relaxed_0001_pdb2pqr_Repair_179_r2_0001_out
     RDKit          3D

 82 86  0  0  0  0  0  0  0  0999 V2000
    2.8240   18.2570   -3.6540 C   0  0  0  0  0  0  0  0  0  0  0  0
    1.9930   18.0500   -2.3850 C   0  0  2  0  0  0  0  0  0  0  0  0
    2.2850   19.1250   -1.3180 C   0  0  0  0  0  0  0  0  0  0  0  0
    1.9280   18.6910    0.1060 C   0  0  0  0  0  0  0  0  0  0  0  0
    2.4520   19.6550    1.1270 C   0  0  2  0  0  0  0  0  0  0  0  0
    3.7480   20.1940    0.8320 O   0  0  0  0  0  0  0  0  0  0  0  0
    3.6560   19.3710    2.0060 C   0  0  0  0  0  0  0  0  0  0  0  0
    4.4090   18.0820    1.9050 C   0  0  0  0  0  0  0  0  0  0  0  0
    3.8010   20.1310    3.2880 C   0  0  0  0  0  0  0  0  0  0  0  0
    2.2570   16.6630   -1.8120 C   0  0  1  0  0  0  0  0  0  0  0  0
    2.9350   16.7110   -0.4170 C   0  0  0  0  0  0  0  0  0  0  0  0
    2.3760   15.5150    0.3950 C   0  0  0  0  0  0  0  0  0  0  0  0
    1.6570   14.6340   -0.6540 C   0  0  1  0  0  0  0  0  0  0  0  0
    2.7950   13.8060   -1.3300 C   0  0  0  0  0  0  0  0  0  0  0  0
    0.5140   13.7120   -0.1170 C   0  0  2  0  0  0  0  0  0  0  0  0
    0.9600   12.6460    0.8990 C   0  0  0  0  0  0  0  0  0  0  0  0
    1.3590   11.3330    0.3110 C   0  0  0  0  0  0  0  0  0  0  0  0
    1.0930   10.9250   -0.9440 C   0  0  0  0  0  0  0  0  0  0  0  0
    0.2360   11.7800   -1.8860 C   0  0  1  0  0  0  0  0  0  0  0  0
   -0.8200   10.8830   -2.5840 C   0  0  0  0  0  0  0  0  0  0  0  0
   -0.1940    9.6850   -3.2910 C   0  0  0  0  0  0  0  0  0  0  0  0
    0.6010    8.8270   -2.3110 C   0  0  2  0  0  0  0  0  0  0  0  0
   -0.3060    8.2300   -1.3800 O   0  0  0  0  0  0  0  0  0  0  0  0
    1.6900    9.6260   -1.5410 C   0  0  0  0  0  0  0  0  0  0  0  0
    2.8320   10.0170   -2.5110 C   0  0  0  0  0  0  0  0  0  0  0  0
    2.3210    8.6780   -0.4860 C   0  0  0  0  0  0  0  0  0  0  0  0
   -0.4010   13.0890   -1.2470 C   0  0  1  0  0  0  0  0  0  0  0  0
   -1.7650   12.7420   -0.5740 C   0  0  0  0  0  0  0  0  0  0  0  0
   -0.7200   14.1180   -2.3940 C   0  0  0  0  0  0  0  0  0  0  0  0
    0.4120   15.0820   -2.7980 C   0  0  0  0  0  0  0  0  0  0  0  0
    1.0290   15.7500   -1.5660 C   0  0  2  0  0  0  0  0  0  0  0  0
   -0.0870   16.6080   -0.8780 C   0  0  0  0  0  0  0  0  0  0  0  0
    3.8572   18.5144   -3.3778 H   0  0  0  0  0  0  0  0  0  0  0  0
    2.8230   17.3312   -4.2480 H   0  0  0  0  0  0  0  0  0  0  0  0
    2.3889   19.0742   -4.2480 H   0  0  0  0  0  0  0  0  0  0  0  0
    0.9331   18.1415   -2.6646 H   0  0  0  0  0  0  0  0  0  0  0  0
    3.3584   19.3633   -1.3497 H   0  0  0  0  0  0  0  0  0  0  0  0
    1.6550   19.9946   -1.5567 H   0  0  0  0  0  0  0  0  0  0  0  0
    0.8333   18.6347    0.1977 H   0  0  0  0  0  0  0  0  0  0  0  0
    2.3900   17.7101    0.2916 H   0  0  0  0  0  0  0  0  0  0  0  0
    1.4333   19.9987    1.3596 H   0  0  0  0  0  0  0  0  0  0  0  0
    4.6288   17.7057    2.9150 H   0  0  0  0  0  0  0  0  0  0  0  0
    3.8004   17.3433    1.3629 H   0  0  0  0  0  0  0  0  0  0  0  0
    5.3514   18.2494    1.3629 H   0  0  0  0  0  0  0  0  0  0  0  0
    3.6701   19.4449    4.1378 H   0  0  0  0  0  0  0  0  0  0  0  0
    4.8019   20.5849    3.3340 H   0  0  0  0  0  0  0  0  0  0  0  0
    3.0375   20.9215    3.3340 H   0  0  0  0  0  0  0  0  0  0  0  0
    2.8811   16.2473   -2.6168 H   0  0  0  0  0  0  0  0  0  0  0  0
    4.0261   16.6196   -0.5231 H   0  0  0  0  0  0  0  0  0  0  0  0
    2.7259   17.6643    0.0905 H   0  0  0  0  0  0  0  0  0  0  0  0
    3.1925   14.9571    0.8768 H   0  0  0  0  0  0  0  0  0  0  0  0
    1.7017   15.8372    1.2022 H   0  0  0  0  0  0  0  0  0  0  0  0
    3.4254   13.3474   -0.5539 H   0  0  0  0  0  0  0  0  0  0  0  0
    2.3523   13.0174   -1.9562 H   0  0  0  0  0  0  0  0  0  0  0  0
    3.4091   14.4699   -1.9562 H   0  0  0  0  0  0  0  0  0  0  0  0
   -0.1139   14.4173    0.4471 H   0  0  0  0  0  0  0  0  0  0  0  0
    1.8211   13.0453    1.4549 H   0  0  0  0  0  0  0  0  0  0  0  0
    0.0835   12.4426    1.5317 H   0  0  0  0  0  0  0  0  0  0  0  0
    1.9175   10.6405    0.9579 H   0  0  0  0  0  0  0  0  0  0  0  0
    0.9275   12.1931   -2.6351 H   0  0  0  0  0  0  0  0  0  0  0  0
   -1.5269   10.5152   -1.8257 H   0  0  0  0  0  0  0  0  0  0  0  0
   -1.3258   11.4939   -3.3463 H   0  0  0  0  0  0  0  0  0  0  0  0
   -0.9917    9.0743   -3.7390 H   0  0  0  0  0  0  0  0  0  0  0  0
    0.4904   10.0548   -4.0687 H   0  0  0  0  0  0  0  0  0  0  0  0
    1.1297    8.0609   -2.8971 H   0  0  0  0  0  0  0  0  0  0  0  0
   -0.5590    7.3600   -1.7320 H   0  0  0  0  0  0  0  0  0  0  0  0
    3.7170   10.3200   -1.9323 H   0  0  0  0  0  0  0  0  0  0  0  0
    3.0860    9.1546   -3.1449 H   0  0  0  0  0  0  0  0  0  0  0  0
    2.5042   10.8541   -3.1449 H   0  0  0  0  0  0  0  0  0  0  0  0
    2.0795    9.0408    0.5240 H   0  0  0  0  0  0  0  0  0  0  0  0
    1.9176    7.6631   -0.6172 H   0  0  0  0  0  0  0  0  0  0  0  0
    3.4130    8.6584   -0.6172 H   0  0  0  0  0  0  0  0  0  0  0  0
   -1.6520   12.7707    0.5198 H   0  0  0  0  0  0  0  0  0  0  0  0
   -2.5238   13.4757   -0.8836 H   0  0  0  0  0  0  0  0  0  0  0  0
   -2.0809   11.7349   -0.8836 H   0  0  0  0  0  0  0  0  0  0  0  0
   -1.0019   13.5426   -3.2881 H   0  0  0  0  0  0  0  0  0  0  0  0
   -1.5152   14.7616   -1.9899 H   0  0  0  0  0  0  0  0  0  0  0  0
    1.1922   14.5179   -3.3301 H   0  0  0  0  0  0  0  0  0  0  0  0
   -0.0084   15.8640   -3.4473 H   0  0  0  0  0  0  0  0  0  0  0  0
    0.0129   16.5312    0.2148 H   0  0  0  0  0  0  0  0  0  0  0  0
    0.0187   17.6596   -1.1829 H   0  0  0  0  0  0  0  0  0  0  0  0
   -1.0761   16.2355   -1.1829 H   0  0  0  0  0  0  0  0  0  0  0  0
  1  2  1  0
  2  3  1  0
  3  4  1  0
  4  5  1  0
  5  6  1  0
  6  7  1  0
  7  8  1  0
  7  9  1  0
  2 10  1  0
 10 11  1  0
 11 12  1  0
 12 13  1  0
 13 14  1  6
 13 15  1  0
 15 16  1  0
 16 17  1  0
 17 18  2  0
 18 19  1  0
 19 20  1  0
 20 21  1  0
 21 22  1  0
 22 23  1  0
 22 24  1  0
 24 25  1  0
 24 26  1  0
 19 27  1  0
 27 28  1  1
 27 29  1  0
 29 30  1  0
 30 31  1  0
 31 32  1  1
  7  5  1  0
 31 10  1  0
 31 13  1  0
 27 15  1  0
 24 18  1  0
  1 33  1  0
  1 34  1  0
  1 35  1  0
  2 36  1  6
  3 37  1  0
  3 38  1  0
  4 39  1  0
  4 40  1  0
  5 41  1  1
  8 42  1  0
  8 43  1  0
  8 44  1  0
  9 45  1  0
  9 46  1  0
  9 47  1  0
 10 48  1  6
 11 49  1  0
 11 50  1  0
 12 51  1  0
 12 52  1  0
 14 53  1  0
 14 54  1  0
 14 55  1  0
 15 56  1  1
 16 57  1  0
 16 58  1  0
 17 59  1  0
 19 60  1  6
 20 61  1  0
 20 62  1  0
 21 63  1  0
 21 64  1  0
 22 65  1  6
 23 66  1  0
 25 67  1  0
 25 68  1  0
 25 69  1  0
 26 70  1  0
 26 71  1  0
 26 72  1  0
 28 73  1  0
 28 74  1  0
 28 75  1  0
 29 76  1  0
 29 77  1  0
 30 78  1  0
 30 79  1  0
 32 80  1  0
 32 81  1  0
 32 82  1  0
M  END
>  <meeko>  (11) 
{"is_sidechain": [false], "intermolecular_energy": 2.731, "internal_energy": -0.839}

$$$$
EPH_relaxed_0001_pdb2pqr_Repair_179_r2_0001_out
     RDKit          3D

 82 86  0  0  0  0  0  0  0  0999 V2000
    1.7480   10.8660   -4.7470 C   0  0  0  0  0  0  0  0  0  0  0  0
    0.9310   10.6390   -3.4720 C   0  0  2  0  0  0  0  0  0  0  0  0
   -0.1970    9.6090   -3.6810 C   0  0  0  0  0  0  0  0  0  0  0  0
   -0.1930    8.4740   -2.6540 C   0  0  0  0  0  0  0  0  0  0  0  0
    0.1750    8.9660   -1.2860 C   0  0  2  0  0  0  0  0  0  0  0  0
   -0.1580    8.0700   -0.2180 O   0  0  0  0  0  0  0  0  0  0  0  0
   -0.8470    9.3310   -0.2260 C   0  0  0  0  0  0  0  0  0  0  0  0
   -2.3170    9.2200   -0.4870 C   0  0  0  0  0  0  0  0  0  0  0  0
   -0.4330   10.2510    0.8810 C   0  0  0  0  0  0  0  0  0  0  0  0
    0.3460   11.9610   -2.9880 C   0  0  1  0  0  0  0  0  0  0  0  0
   -1.0250   11.7850   -2.2840 C   0  0  0  0  0  0  0  0  0  0  0  0
   -1.0840   12.8400   -1.1490 C   0  0  0  0  0  0  0  0  0  0  0  0
    0.0950   13.7960   -1.4440 C   0  0  1  0  0  0  0  0  0  0  0  0
   -0.4410   14.7660   -2.5440 C   0  0  0  0  0  0  0  0  0  0  0  0
    0.6750   14.5770   -0.2200 C   0  0  2  0  0  0  0  0  0  0  0  0
   -0.3100   15.5380    0.4670 C   0  0  0  0  0  0  0  0  0  0  0  0
   -0.3150   16.9340   -0.0630 C   0  0  0  0  0  0  0  0  0  0  0  0
    0.6330   17.4730   -0.8520 C   0  0  0  0  0  0  0  0  0  0  0  0
    1.9010   16.6880   -1.2100 C   0  0  1  0  0  0  0  0  0  0  0  0
    3.1430   17.5980   -1.0240 C   0  0  0  0  0  0  0  0  0  0  0  0
    3.0300   18.9080   -1.7990 C   0  0  0  0  0  0  0  0  0  0  0  0
    1.7880   19.6870   -1.3740 C   0  0  2  0  0  0  0  0  0  0  0  0
    1.9530   20.1130   -0.0180 O   0  0  0  0  0  0  0  0  0  0  0  0
    0.4750   18.8670   -1.5080 C   0  0  0  0  0  0  0  0  0  0  0  0
    0.1380   18.6650   -3.0060 C   0  0  0  0  0  0  0  0  0  0  0  0
   -0.6810   19.7170   -0.9150 C   0  0  0  0  0  0  0  0  0  0  0  0
    2.0670   15.2770   -0.4980 C   0  0  1  0  0  0  0  0  0  0  0  0
    2.7580   15.4580    0.8880 C   0  0  0  0  0  0  0  0  0  0  0  0
    3.0280   14.3760   -1.3600 C   0  0  0  0  0  0  0  0  0  0  0  0
    2.3790   13.5370   -2.4770 C   0  0  0  0  0  0  0  0  0  0  0  0
    1.1680   12.7630   -1.9480 C   0  0  2  0  0  0  0  0  0  0  0  0
    1.6790   11.7640   -0.8550 C   0  0  0  0  0  0  0  0  0  0  0  0
    2.7757   11.1515   -4.4780 H   0  0  0  0  0  0  0  0  0  0  0  0
    1.7681    9.9394   -5.3395 H   0  0  0  0  0  0  0  0  0  0  0  0
    1.2872   11.6701   -5.3395 H   0  0  0  0  0  0  0  0  0  0  0  0
    1.6122   10.2323   -2.7101 H   0  0  0  0  0  0  0  0  0  0  0  0
   -1.1620   10.1329   -3.6156 H   0  0  0  0  0  0  0  0  0  0  0  0
   -0.0341    9.1501   -4.6674 H   0  0  0  0  0  0  0  0  0  0  0  0
   -1.1968    8.0260   -2.6138 H   0  0  0  0  0  0  0  0  0  0  0  0
    0.5572    7.7322   -2.9652 H   0  0  0  0  0  0  0  0  0  0  0  0
    1.0457    9.5048   -1.6880 H   0  0  0  0  0  0  0  0  0  0  0  0
   -2.8573    9.1792    0.4703 H   0  0  0  0  0  0  0  0  0  0  0  0
   -2.6545   10.0952   -1.0615 H   0  0  0  0  0  0  0  0  0  0  0  0
   -2.5193    8.3040   -1.0615 H   0  0  0  0  0  0  0  0  0  0  0  0
   -0.6462    9.7772    1.8506 H   0  0  0  0  0  0  0  0  0  0  0  0
    0.6447   10.4572    0.8027 H   0  0  0  0  0  0  0  0  0  0  0  0
   -0.9934   11.1943    0.8027 H   0  0  0  0  0  0  0  0  0  0  0  0
    0.3100   12.5078   -3.9418 H   0  0  0  0  0  0  0  0  0  0  0  0
   -1.8429   11.9530   -3.0002 H   0  0  0  0  0  0  0  0  0  0  0  0
   -1.1350   10.7667   -1.8827 H   0  0  0  0  0  0  0  0  0  0  0  0
   -2.0401   13.3834   -1.1732 H   0  0  0  0  0  0  0  0  0  0  0  0
   -1.0115   12.3836   -0.1508 H   0  0  0  0  0  0  0  0  0  0  0  0
   -0.9202   15.6332   -2.0662 H   0  0  0  0  0  0  0  0  0  0  0  0
    0.3959   15.1084   -3.1703 H   0  0  0  0  0  0  0  0  0  0  0  0
   -1.1763   14.2397   -3.1703 H   0  0  0  0  0  0  0  0  0  0  0  0
    0.8620   13.7720    0.5060 H   0  0  0  0  0  0  0  0  0  0  0  0
   -1.3234   15.1266    0.3500 H   0  0  0  0  0  0  0  0  0  0  0  0
    0.0179   15.6118    1.5144 H   0  0  0  0  0  0  0  0  0  0  0  0
   -1.1644   17.5755    0.2146 H   0  0  0  0  0  0  0  0  0  0  0  0
    1.7972   16.4095   -2.2691 H   0  0  0  0  0  0  0  0  0  0  0  0
    3.2535   17.8295    0.0457 H   0  0  0  0  0  0  0  0  0  0  0  0
    4.0166   17.0543   -1.4129 H   0  0  0  0  0  0  0  0  0  0  0  0
    3.9231   19.5199   -1.6041 H   0  0  0  0  0  0  0  0  0  0  0  0
    2.9496   18.6761   -2.8713 H   0  0  0  0  0  0  0  0  0  0  0  0
    1.6904   20.5478   -2.0519 H   0  0  0  0  0  0  0  0  0  0  0  0
    2.5290   20.8970   -0.0240 H   0  0  0  0  0  0  0  0  0  0  0  0
   -0.8022   18.1014   -3.0976 H   0  0  0  0  0  0  0  0  0  0  0  0
    0.0267   19.6454   -3.4922 H   0  0  0  0  0  0  0  0  0  0  0  0
    0.9502   18.1047   -3.4922 H   0  0  0  0  0  0  0  0  0  0  0  0
   -0.6349   19.6831    0.1835 H   0  0  0  0  0  0  0  0  0  0  0  0
   -0.5815   20.7587   -1.2542 H   0  0  0  0  0  0  0  0  0  0  0  0
   -1.6456   19.3115   -1.2542 H   0  0  0  0  0  0  0  0  0  0  0  0
    2.0287   15.2670    1.6890 H   0  0  0  0  0  0  0  0  0  0  0  0
    3.5940   14.7485    0.9764 H   0  0  0  0  0  0  0  0  0  0  0  0
    3.1388   16.4862    0.9764 H   0  0  0  0  0  0  0  0  0  0  0  0
    3.7712   15.0370   -1.8297 H   0  0  0  0  0  0  0  0  0  0  0  0
    3.4438   13.6420   -0.6540 H   0  0  0  0  0  0  0  0  0  0  0  0
    2.0526   14.2065   -3.2864 H   0  0  0  0  0  0  0  0  0  0  0  0
    3.1209   12.8154   -2.8497 H   0  0  0  0  0  0  0  0  0  0  0  0
    1.4691   12.1744    0.1437 H   0  0  0  0  0  0  0  0  0  0  0  0
    1.1638   10.7990   -0.9706 H   0  0  0  0  0  0  0  0  0  0  0  0
    2.7630   11.6170   -0.9706 H   0  0  0  0  0  0  0  0  0  0  0  0
  1  2  1  0
  2  3  1  0
  3  4  1  0
  4  5  1  0
  5  6  1  0
  6  7  1  0
  7  8  1  0
  7  9  1  0
  2 10  1  0
 10 11  1  0
 11 12  1  0
 12 13  1  0
 13 14  1  6
 13 15  1  0
 15 16  1  0
 16 17  1  0
 17 18  2  0
 18 19  1  0
 19 20  1  0
 20 21  1  0
 21 22  1  0
 22 23  1  0
 22 24  1  0
 24 25  1  0
 24 26  1  0
 19 27  1  0
 27 28  1  1
 27 29  1  0
 29 30  1  0
 30 31  1  0
 31 32  1  1
  7  5  1  0
 31 10  1  0
 31 13  1  0
 27 15  1  0
 24 18  1  0
  1 33  1  0
  1 34  1  0
  1 35  1  0
  2 36  1  1
  3 37  1  0
  3 38  1  0
  4 39  1  0
  4 40  1  0
  5 41  1  6
  8 42  1  0
  8 43  1  0
  8 44  1  0
  9 45  1  0
  9 46  1  0
  9 47  1  0
 10 48  1  6
 11 49  1  0
 11 50  1  0
 12 51  1  0
 12 52  1  0
 14 53  1  0
 14 54  1  0
 14 55  1  0
 15 56  1  1
 16 57  1  0
 16 58  1  0
 17 59  1  0
 19 60  1  6
 20 61  1  0
 20 62  1  0
 21 63  1  0
 21 64  1  0
 22 65  1  6
 23 66  1  0
 25 67  1  0
 25 68  1  0
 25 69  1  0
 26 70  1  0
 26 71  1  0
 26 72  1  0
 28 73  1  0
 28 74  1  0
 28 75  1  0
 29 76  1  0
 29 77  1  0
 30 78  1  0
 30 79  1  0
 32 80  1  0
 32 81  1  0
 32 82  1  0
M  END
>  <meeko>  (12) 
{"is_sidechain": [false], "intermolecular_energy": 2.731, "internal_energy": -0.839}

$$$$
EPH_relaxed_0001_pdb2pqr_Repair_179_r2_0001_out
     RDKit          3D

 82 86  0  0  0  0  0  0  0  0999 V2000
    0.9530   14.9660   -2.6920 C   0  0  0  0  0  0  0  0  0  0  0  0
    1.1980   14.2880   -4.0430 C   0  0  2  0  0  0  0  0  0  0  0  0
    0.4690   15.0090   -5.1950 C   0  0  0  0  0  0  0  0  0  0  0  0
    0.9910   14.6330   -6.5850 C   0  0  0  0  0  0  0  0  0  0  0  0
    0.8020   15.7480   -7.5680 C   0  0  2  0  0  0  0  0  0  0  0  0
    0.3920   15.3300   -8.8760 O   0  0  0  0  0  0  0  0  0  0  0  0
    1.6850   15.9490   -8.7850 C   0  0  0  0  0  0  0  0  0  0  0  0
    2.8250   15.0260   -9.0840 C   0  0  0  0  0  0  0  0  0  0  0  0
    1.7470   17.3090   -9.4080 C   0  0  0  0  0  0  0  0  0  0  0  0
    0.7580   12.8300   -3.9800 C   0  0  1  0  0  0  0  0  0  0  0  0
    1.8920   11.8470   -4.3740 C   0  0  0  0  0  0  0  0  0  0  0  0
    1.7130   10.5820   -3.4950 C   0  0  0  0  0  0  0  0  0  0  0  0
    0.3060   10.7370   -2.8710 C   0  0  1  0  0  0  0  0  0  0  0  0
   -0.6800   10.2590   -3.9820 C   0  0  0  0  0  0  0  0  0  0  0  0
    0.0620    9.9880   -1.5210 C   0  0  2  0  0  0  0  0  0  0  0  0
    0.1770    8.4550   -1.5960 C   0  0  0  0  0  0  0  0  0  0  0  0
   -1.0950    7.7350   -1.9010 C   0  0  0  0  0  0  0  0  0  0  0  0
   -2.3300    8.2630   -1.8280 C   0  0  0  0  0  0  0  0  0  0  0  0
   -2.5470    9.6900   -1.3080 C   0  0  1  0  0  0  0  0  0  0  0  0
   -3.7140    9.6980   -0.2860 C   0  0  0  0  0  0  0  0  0  0  0  0
   -4.9910    9.0830   -0.8520 C   0  0  0  0  0  0  0  0  0  0  0  0
   -4.7500    7.6450   -1.3050 C   0  0  2  0  0  0  0  0  0  0  0  0
   -4.4720    6.8410   -0.1540 O   0  0  0  0  0  0  0  0  0  0  0  0
   -3.5880    7.5120   -2.3290 C   0  0  0  0  0  0  0  0  0  0  0  0
   -4.0150    8.1290   -3.6840 C   0  0  0  0  0  0  0  0  0  0  0  0
   -3.3570    6.0000   -2.5940 C   0  0  0  0  0  0  0  0  0  0  0  0
   -1.2530   10.4330   -0.7610 C   0  0  1  0  0  0  0  0  0  0  0  0
   -1.0360   10.0850    0.7440 C   0  0  0  0  0  0  0  0  0  0  0  0
   -1.4850   11.9890   -0.8280 C   0  0  0  0  0  0  0  0  0  0  0  0
   -1.1130   12.6900   -2.1480 C   0  0  0  0  0  0  0  0  0  0  0  0
    0.2920   12.2870   -2.6060 C   0  0  2  0  0  0  0  0  0  0  0  0
    1.3080   12.7750   -1.5180 C   0  0  0  0  0  0  0  0  0  0  0  0
    1.2053   14.2678   -1.8803 H   0  0  0  0  0  0  0  0  0  0  0  0
    1.5835   15.8638   -2.6126 H   0  0  0  0  0  0  0  0  0  0  0  0
   -0.1058   15.2534   -2.6126 H   0  0  0  0  0  0  0  0  0  0  0  0
    2.2770   14.3422   -4.2498 H   0  0  0  0  0  0  0  0  0  0  0  0
   -0.5995   14.7526   -5.1442 H   0  0  0  0  0  0  0  0  0  0  0  0
    0.6487   16.0864   -5.0647 H   0  0  0  0  0  0  0  0  0  0  0  0
    2.0636   14.4000   -6.5120 H   0  0  0  0  0  0  0  0  0  0  0  0
    0.4218   13.7617   -6.9410 H   0  0  0  0  0  0  0  0  0  0  0  0
    0.4828   16.4311   -6.7671 H   0  0  0  0  0  0  0  0  0  0  0  0
    3.2652   14.6696   -8.1410 H   0  0  0  0  0  0  0  0  0  0  0  0
    2.4586   14.1671   -9.6653 H   0  0  0  0  0  0  0  0  0  0  0  0
    3.5889   15.5631   -9.6653 H   0  0  0  0  0  0  0  0  0  0  0  0
    1.7818   18.0732   -8.6175 H   0  0  0  0  0  0  0  0  0  0  0  0
    2.6496   17.3856  -10.0321 H   0  0  0  0  0  0  0  0  0  0  0  0
    0.8551   17.4674  -10.0321 H   0  0  0  0  0  0  0  0  0  0  0  0
   -0.0909   12.8625   -4.6788 H   0  0  0  0  0  0  0  0  0  0  0  0
    1.8114   11.5829   -5.4388 H   0  0  0  0  0  0  0  0  0  0  0  0
    2.8812   12.3013   -4.2156 H   0  0  0  0  0  0  0  0  0  0  0  0
    1.7672    9.6712   -4.1094 H   0  0  0  0  0  0  0  0  0  0  0  0
    2.5000   10.4891   -2.7321 H   0  0  0  0  0  0  0  0  0  0  0  0
   -1.5761    9.8246   -3.5148 H   0  0  0  0  0  0  0  0  0  0  0  0
   -0.9713   11.1159   -4.6072 H   0  0  0  0  0  0  0  0  0  0  0  0
   -0.1877    9.4996   -4.6072 H   0  0  0  0  0  0  0  0  0  0  0  0
    0.9124   10.3220   -0.9084 H   0  0  0  0  0  0  0  0  0  0  0  0
    0.9052    8.2067   -2.3821 H   0  0  0  0  0  0  0  0  0  0  0  0
    0.4821    8.1229   -0.5927 H   0  0  0  0  0  0  0  0  0  0  0  0
   -1.0153    6.6829   -2.2120 H   0  0  0  0  0  0  0  0  0  0  0  0
   -2.8160   10.2951   -2.1864 H   0  0  0  0  0  0  0  0  0  0  0  0
   -3.4095    9.1241    0.6016 H   0  0  0  0  0  0  0  0  0  0  0  0
   -3.9310   10.7467   -0.0348 H   0  0  0  0  0  0  0  0  0  0  0  0
   -5.7691    9.0899   -0.0745 H   0  0  0  0  0  0  0  0  0  0  0  0
   -5.3107    9.6760   -1.7215 H   0  0  0  0  0  0  0  0  0  0  0  0
   -5.6606    7.3029   -1.8186 H   0  0  0  0  0  0  0  0  0  0  0  0
   -4.9540    6.0030   -0.2580 H   0  0  0  0  0  0  0  0  0  0  0  0
   -4.6324    9.0211   -3.5024 H   0  0  0  0  0  0  0  0  0  0  0  0
   -3.1194    8.4132   -4.2560 H   0  0  0  0  0  0  0  0  0  0  0  0
   -4.5965    7.3909   -4.2560 H   0  0  0  0  0  0  0  0  0  0  0  0
   -3.2757    5.4679   -1.6347 H   0  0  0  0  0  0  0  0  0  0  0  0
   -4.2036    5.5947   -3.1675 H   0  0  0  0  0  0  0  0  0  0  0  0
   -2.4280    5.8660   -3.1675 H   0  0  0  0  0  0  0  0  0  0  0  0
   -1.5144   10.8523    1.3704 H   0  0  0  0  0  0  0  0  0  0  0  0
   -1.4824    9.1034    0.9614 H   0  0  0  0  0  0  0  0  0  0  0  0
    0.0418   10.0539    0.9614 H   0  0  0  0  0  0  0  0  0  0  0  0
   -2.5532   12.1746   -0.6421 H   0  0  0  0  0  0  0  0  0  0  0  0
   -0.8055   12.4142   -0.0747 H   0  0  0  0  0  0  0  0  0  0  0  0
   -1.8396   12.4058   -2.9235 H   0  0  0  0  0  0  0  0  0  0  0  0
   -1.1300   13.7776   -1.9843 H   0  0  0  0  0  0  0  0  0  0  0  0
    0.8965   12.5774   -0.5172 H   0  0  0  0  0  0  0  0  0  0  0  0
    2.2593   12.2355   -1.6364 H   0  0  0  0  0  0  0  0  0  0  0  0
    1.4816   13.8547   -1.6364 H   0  0  0  0  0  0  0  0  0  0  0  0
  1  2  1  0
  2  3  1  0
  3  4  1  0
  4  5  1  0
  5  6  1  0
  6  7  1  0
  7  8  1  0
  7  9  1  0
  2 10  1  0
 10 11  1  0
 11 12  1  0
 12 13  1  0
 13 14  1  6
 13 15  1  0
 15 16  1  0
 16 17  1  0
 17 18  2  0
 18 19  1  0
 19 20  1  0
 20 21  1  0
 21 22  1  0
 22 23  1  0
 22 24  1  0
 24 25  1  0
 24 26  1  0
 19 27  1  0
 27 28  1  1
 27 29  1  0
 29 30  1  0
 30 31  1  0
 31 32  1  1
  7  5  1  0
 31 10  1  0
 31 13  1  0
 27 15  1  0
 24 18  1  0
  1 33  1  0
  1 34  1  0
  1 35  1  0
  2 36  1  6
  3 37  1  0
  3 38  1  0
  4 39  1  0
  4 40  1  0
  5 41  1  1
  8 42  1  0
  8 43  1  0
  8 44  1  0
  9 45  1  0
  9 46  1  0
  9 47  1  0
 10 48  1  6
 11 49  1  0
 11 50  1  0
 12 51  1  0
 12 52  1  0
 14 53  1  0
 14 54  1  0
 14 55  1  0
 15 56  1  1
 16 57  1  0
 16 58  1  0
 17 59  1  0
 19 60  1  6
 20 61  1  0
 20 62  1  0
 21 63  1  0
 21 64  1  0
 22 65  1  6
 23 66  1  0
 25 67  1  0
 25 68  1  0
 25 69  1  0
 26 70  1  0
 26 71  1  0
 26 72  1  0
 28 73  1  0
 28 74  1  0
 28 75  1  0
 29 76  1  0
 29 77  1  0
 30 78  1  0
 30 79  1  0
 32 80  1  0
 32 81  1  0
 32 82  1  0
M  END
>  <meeko>  (13) 
{"is_sidechain": [false], "intermolecular_energy": 2.731, "internal_energy": -0.839}

$$$$
EPH_relaxed_0001_pdb2pqr_Repair_179_r2_0001_out
     RDKit          3D

 82 86  0  0  0  0  0  0  0  0999 V2000
   -1.5530    9.5030   -0.0020 C   0  0  0  0  0  0  0  0  0  0  0  0
   -0.5590   10.2150   -0.9240 C   0  0  2  0  0  0  0  0  0  0  0  0
    0.6900    9.3560   -1.2040 C   0  0  0  0  0  0  0  0  0  0  0  0
    0.9380    9.0980   -2.6930 C   0  0  0  0  0  0  0  0  0  0  0  0
    0.3230   10.1620   -3.5500 C   0  0  2  0  0  0  0  0  0  0  0  0
    0.3390    9.8830   -4.9560 O   0  0  0  0  0  0  0  0  0  0  0  0
    1.1150   11.0130   -4.5250 C   0  0  0  0  0  0  0  0  0  0  0  0
    2.5910   10.8380   -4.6930 C   0  0  0  0  0  0  0  0  0  0  0  0
    0.5460   12.3310   -4.9510 C   0  0  0  0  0  0  0  0  0  0  0  0
   -0.1470   11.5490   -0.3130 C   0  0  1  0  0  0  0  0  0  0  0  0
    0.8900   11.3880    0.8300 C   0  0  0  0  0  0  0  0  0  0  0  0
    1.8350   12.6150    0.7520 C   0  0  0  0  0  0  0  0  0  0  0  0
    1.1210   13.5980   -0.2050 C   0  0  1  0  0  0  0  0  0  0  0  0
    0.0550   14.3160    0.6800 C   0  0  0  0  0  0  0  0  0  0  0  0
    2.0350   14.6220   -0.9530 C   0  0  2  0  0  0  0  0  0  0  0  0
    2.7930   15.6050   -0.0440 C   0  0  0  0  0  0  0  0  0  0  0  0
    2.0790   16.8830    0.2480 C   0  0  0  0  0  0  0  0  0  0  0  0
    1.0110   17.3530   -0.4220 C   0  0  0  0  0  0  0  0  0  0  0  0
    0.4730   16.6220   -1.6590 C   0  0  1  0  0  0  0  0  0  0  0  0
    0.2100   17.6470   -2.7930 C   0  0  0  0  0  0  0  0  0  0  0  0
   -0.6980   18.7900   -2.3500 C   0  0  0  0  0  0  0  0  0  0  0  0
   -0.1010   19.5290   -1.1550 C   0  0  2  0  0  0  0  0  0  0  0  0
    1.0940   20.1940   -1.5740 O   0  0  0  0  0  0  0  0  0  0  0  0
    0.2150   18.5960    0.0470 C   0  0  0  0  0  0  0  0  0  0  0  0
   -1.1080   18.1110    0.6910 C   0  0  0  0  0  0  0  0  0  0  0  0
    0.9400   19.4400    1.1290 C   0  0  0  0  0  0  0  0  0  0  0  0
    1.3240   15.3730   -2.1500 C   0  0  1  0  0  0  0  0  0  0  0  0
    2.4540   15.8450   -3.1150 C   0  0  0  0  0  0  0  0  0  0  0  0
    0.3960   14.4160   -2.9890 C   0  0  0  0  0  0  0  0  0  0  0  0
   -0.3910   13.3480   -2.2050 C   0  0  0  0  0  0  0  0  0  0  0  0
    0.5280   12.5820   -1.2490 C   0  0  2  0  0  0  0  0  0  0  0  0
    1.5980   11.8310   -2.1120 C   0  0  0  0  0  0  0  0  0  0  0  0
   -1.2834    9.6961    1.0468 H   0  0  0  0  0  0  0  0  0  0  0  0
   -2.5678    9.8809   -0.1953 H   0  0  0  0  0  0  0  0  0  0  0  0
   -1.5218    8.4206   -0.1953 H   0  0  0  0  0  0  0  0  0  0  0  0
   -1.0643   10.3870   -1.8858 H   0  0  0  0  0  0  0  0  0  0  0  0
    1.5678    9.8741   -0.7903 H   0  0  0  0  0  0  0  0  0  0  0  0
    0.5196    8.3772   -0.7320 H   0  0  0  0  0  0  0  0  0  0  0  0
    2.0226    9.0763   -2.8752 H   0  0  0  0  0  0  0  0  0  0  0  0
    0.4746    8.1357   -2.9560 H   0  0  0  0  0  0  0  0  0  0  0  0
   -0.3909   10.4222   -2.7546 H   0  0  0  0  0  0  0  0  0  0  0  0
    3.0685   10.7814   -3.7037 H   0  0  0  0  0  0  0  0  0  0  0  0
    2.7892    9.9101   -5.2494 H   0  0  0  0  0  0  0  0  0  0  0  0
    3.0007   11.6939   -5.2494 H   0  0  0  0  0  0  0  0  0  0  0  0
    0.2897   12.9246   -4.0611 H   0  0  0  0  0  0  0  0  0  0  0  0
    1.2897   12.8743   -5.5524 H   0  0  0  0  0  0  0  0  0  0  0  0
   -0.3594   12.1623   -5.5524 H   0  0  0  0  0  0  0  0  0  0  0  0
   -1.1333   11.9182    0.0048 H   0  0  0  0  0  0  0  0  0  0  0  0
    0.3796   11.3642    1.8041 H   0  0  0  0  0  0  0  0  0  0  0  0
    1.4524   10.4486    0.7239 H   0  0  0  0  0  0  0  0  0  0  0  0
    1.9666   13.0675    1.7460 H   0  0  0  0  0  0  0  0  0  0  0  0
    2.8407   12.3448    0.3978 H   0  0  0  0  0  0  0  0  0  0  0  0
    0.2924   14.1561    1.7421 H   0  0  0  0  0  0  0  0  0  0  0  0
    0.0623   15.3939    0.4609 H   0  0  0  0  0  0  0  0  0  0  0  0
   -0.9411   13.9041    0.4609 H   0  0  0  0  0  0  0  0  0  0  0  0
    2.8032   13.9715   -1.3965 H   0  0  0  0  0  0  0  0  0  0  0  0
    2.9907   15.0998    0.9129 H   0  0  0  0  0  0  0  0  0  0  0  0
    3.7054   15.8842   -0.5914 H   0  0  0  0  0  0  0  0  0  0  0  0
    2.4582   17.4922    1.0817 H   0  0  0  0  0  0  0  0  0  0  0  0
   -0.4748   16.1573   -1.3497 H   0  0  0  0  0  0  0  0  0  0  0  0
    1.1729   18.0676   -3.1184 H   0  0  0  0  0  0  0  0  0  0  0  0
   -0.2974   17.1159   -3.6118 H   0  0  0  0  0  0  0  0  0  0  0  0
   -0.8216   19.4958   -3.1846 H   0  0  0  0  0  0  0  0  0  0  0  0
   -1.6709   18.3709   -2.0535 H   0  0  0  0  0  0  0  0  0  0  0  0
   -0.8543   20.2494   -0.8035 H   0  0  0  0  0  0  0  0  0  0  0  0
    1.0610   20.2760   -2.5430 H   0  0  0  0  0  0  0  0  0  0  0  0
   -1.0164   18.1446    1.7867 H   0  0  0  0  0  0  0  0  0  0  0  0
   -1.9326   18.7653    0.3718 H   0  0  0  0  0  0  0  0  0  0  0  0
   -1.3144   17.0788    0.3718 H   0  0  0  0  0  0  0  0  0  0  0  0
    0.6402   19.0909    2.1281 H   0  0  0  0  0  0  0  0  0  0  0  0
    2.0281   19.3284    1.0129 H   0  0  0  0  0  0  0  0  0  0  0  0
    0.6656   20.4989    1.0129 H   0  0  0  0  0  0  0  0  0  0  0  0
    3.3120   16.2034   -2.5274 H   0  0  0  0  0  0  0  0  0  0  0  0
    2.7698   15.0035   -3.7492 H   0  0  0  0  0  0  0  0  0  0  0  0
    2.0774   16.6611   -3.7492 H   0  0  0  0  0  0  0  0  0  0  0  0
   -0.3341   15.0432   -3.5215 H   0  0  0  0  0  0  0  0  0  0  0  0
    1.0792   13.8502   -3.6395 H   0  0  0  0  0  0  0  0  0  0  0  0
   -1.1848   13.8402   -1.6240 H   0  0  0  0  0  0  0  0  0  0  0  0
   -0.8243   12.6349   -2.9218 H   0  0  0  0  0  0  0  0  0  0  0  0
    2.3161   11.3270   -1.4485 H   0  0  0  0  0  0  0  0  0  0  0  0
    1.0987   11.0842   -2.7468 H   0  0  0  0  0  0  0  0  0  0  0  0
    2.1306   12.5545   -2.7468 H   0  0  0  0  0  0  0  0  0  0  0  0
  1  2  1  0
  2  3  1  0
  3  4  1  0
  4  5  1  0
  5  6  1  0
  6  7  1  0
  7  8  1  0
  7  9  1  0
  2 10  1  0
 10 11  1  0
 11 12  1  0
 12 13  1  0
 13 14  1  1
 13 15  1  0
 15 16  1  0
 16 17  1  0
 17 18  2  0
 18 19  1  0
 19 20  1  0
 20 21  1  0
 21 22  1  0
 22 23  1  0
 22 24  1  0
 24 25  1  0
 24 26  1  0
 19 27  1  0
 27 28  1  6
 27 29  1  0
 29 30  1  0
 30 31  1  0
 31 32  1  6
  7  5  1  0
 31 10  1  0
 31 13  1  0
 27 15  1  0
 24 18  1  0
  1 33  1  0
  1 34  1  0
  1 35  1  0
  2 36  1  6
  3 37  1  0
  3 38  1  0
  4 39  1  0
  4 40  1  0
  5 41  1  1
  8 42  1  0
  8 43  1  0
  8 44  1  0
  9 45  1  0
  9 46  1  0
  9 47  1  0
 10 48  1  1
 11 49  1  0
 11 50  1  0
 12 51  1  0
 12 52  1  0
 14 53  1  0
 14 54  1  0
 14 55  1  0
 15 56  1  6
 16 57  1  0
 16 58  1  0
 17 59  1  0
 19 60  1  1
 20 61  1  0
 20 62  1  0
 21 63  1  0
 21 64  1  0
 22 65  1  1
 23 66  1  0
 25 67  1  0
 25 68  1  0
 25 69  1  0
 26 70  1  0
 26 71  1  0
 26 72  1  0
 28 73  1  0
 28 74  1  0
 28 75  1  0
 29 76  1  0
 29 77  1  0
 30 78  1  0
 30 79  1  0
 32 80  1  0
 32 81  1  0
 32 82  1  0
M  END
>  <meeko>  (14) 
{"is_sidechain": [false], "intermolecular_energy": 2.731, "internal_energy": -0.839}

$$$$
EPH_relaxed_0001_pdb2pqr_Repair_179_r2_0001_out
     RDKit          3D

 82 86  0  0  0  0  0  0  0  0999 V2000
    0.8160    8.2150   -2.3840 C   0  0  0  0  0  0  0  0  0  0  0  0
   -0.6180    8.5290   -1.9480 C   0  0  2  0  0  0  0  0  0  0  0  0
   -1.6620    7.9100   -2.8980 C   0  0  0  0  0  0  0  0  0  0  0  0
   -2.9190    7.4030   -2.1850 C   0  0  0  0  0  0  0  0  0  0  0  0
   -4.0720    7.2550   -3.1310 C   0  0  2  0  0  0  0  0  0  0  0  0
   -5.3650    7.3310   -2.5160 O   0  0  0  0  0  0  0  0  0  0  0  0
   -5.0200    6.0710   -3.1150 C   0  0  0  0  0  0  0  0  0  0  0  0
   -4.8580    4.9540   -2.1330 C   0  0  0  0  0  0  0  0  0  0  0  0
   -5.7980    5.7620   -4.3560 C   0  0  0  0  0  0  0  0  0  0  0  0
   -0.8180   10.0380   -1.8660 C   0  0  1  0  0  0  0  0  0  0  0  0
   -2.2900   10.4300   -1.5710 C   0  0  0  0  0  0  0  0  0  0  0  0
   -2.2450   11.6990   -0.6810 C   0  0  0  0  0  0  0  0  0  0  0  0
   -0.7790   12.1840   -0.7680 C   0  0  1  0  0  0  0  0  0  0  0  0
   -0.6950   12.9720   -2.1130 C   0  0  0  0  0  0  0  0  0  0  0  0
   -0.2620   13.0400    0.4350 C   0  0  2  0  0  0  0  0  0  0  0  0
   -0.9950   14.3750    0.6480 C   0  0  0  0  0  0  0  0  0  0  0  0
   -0.4110   15.5460   -0.0720 C   0  0  0  0  0  0  0  0  0  0  0  0
    0.8150   15.5900   -0.6270 C   0  0  0  0  0  0  0  0  0  0  0  0
    1.7920   14.4180   -0.4750 C   0  0  1  0  0  0  0  0  0  0  0  0
    3.1920   14.9580   -0.0810 C   0  0  0  0  0  0  0  0  0  0  0  0
    3.7020   16.0200   -1.0500 C   0  0  0  0  0  0  0  0  0  0  0  0
    2.7320   17.1960   -1.1300 C   0  0  2  0  0  0  0  0  0  0  0  0
    2.7210   17.8710    0.1320 O   0  0  0  0  0  0  0  0  0  0  0  0
    1.2860   16.7730   -1.5090 C   0  0  0  0  0  0  0  0  0  0  0  0
    1.2470   16.3190   -2.9900 C   0  0  0  0  0  0  0  0  0  0  0  0
    0.3800   18.0300   -1.4170 C   0  0  0  0  0  0  0  0  0  0  0  0
    1.3090   13.2310    0.4660 C   0  0  1  0  0  0  0  0  0  0  0  0
    1.6900   13.5370    1.9470 C   0  0  0  0  0  0  0  0  0  0  0  0
    2.0800   11.9160    0.0720 C   0  0  0  0  0  0  0  0  0  0  0  0
    1.4560   11.0520   -1.0410 C   0  0  0  0  0  0  0  0  0  0  0  0
   -0.0310   10.8010   -0.7710 C   0  0  2  0  0  0  0  0  0  0  0  0
   -0.1450    9.9910    0.5650 C   0  0  0  0  0  0  0  0  0  0  0  0
    1.4478    8.0767   -1.4942 H   0  0  0  0  0  0  0  0  0  0  0  0
    0.8230    7.2940   -2.9855 H   0  0  0  0  0  0  0  0  0  0  0  0
    1.2073    9.0488   -2.9855 H   0  0  0  0  0  0  0  0  0  0  0  0
   -0.7679    8.0799   -0.9551 H   0  0  0  0  0  0  0  0  0  0  0  0
   -1.9623    8.6746   -3.6296 H   0  0  0  0  0  0  0  0  0  0  0  0
   -1.1879    7.0382   -3.3726 H   0  0  0  0  0  0  0  0  0  0  0  0
   -2.7016    6.4244   -1.7322 H   0  0  0  0  0  0  0  0  0  0  0  0
   -3.1981    8.1396   -1.4172 H   0  0  0  0  0  0  0  0  0  0  0  0
   -3.4991    7.7306   -3.9407 H   0  0  0  0  0  0  0  0  0  0  0  0
   -4.9160    5.3539   -1.1099 H   0  0  0  0  0  0  0  0  0  0  0  0
   -5.6583    4.2145   -2.2835 H   0  0  0  0  0  0  0  0  0  0  0  0
   -3.8806    4.4723   -2.2835 H   0  0  0  0  0  0  0  0  0  0  0  0
   -6.7876    5.3690   -4.0800 H   0  0  0  0  0  0  0  0  0  0  0  0
   -5.9206    6.6797   -4.9500 H   0  0  0  0  0  0  0  0  0  0  0  0
   -5.2575    5.0103   -4.9500 H   0  0  0  0  0  0  0  0  0  0  0  0
   -0.4522   10.3273   -2.8623 H   0  0  0  0  0  0  0  0  0  0  0  0
   -2.8204   10.6448   -2.5104 H   0  0  0  0  0  0  0  0  0  0  0  0
   -2.8230    9.6114   -1.0652 H   0  0  0  0  0  0  0  0  0  0  0  0
   -2.9318   12.4675   -1.0653 H   0  0  0  0  0  0  0  0  0  0  0  0
   -2.5561   11.4942    0.3540 H   0  0  0  0  0  0  0  0  0  0  0  0
   -0.5806   14.0456   -1.9024 H   0  0  0  0  0  0  0  0  0  0  0  0
    0.1705   12.6176   -2.6921 H   0  0  0  0  0  0  0  0  0  0  0  0
   -1.6157   12.8080   -2.6921 H   0  0  0  0  0  0  0  0  0  0  0  0
   -0.5247   12.4142    1.3007 H   0  0  0  0  0  0  0  0  0  0  0  0
   -2.0336   14.2504    0.3078 H   0  0  0  0  0  0  0  0  0  0  0  0
   -0.9067   14.6026    1.7206 H   0  0  0  0  0  0  0  0  0  0  0  0
   -1.0348   16.4482   -0.1559 H   0  0  0  0  0  0  0  0  0  0  0  0
    1.8429   13.9346   -1.4618 H   0  0  0  0  0  0  0  0  0  0  0  0
    3.1299   15.3988    0.9249 H   0  0  0  0  0  0  0  0  0  0  0  0
    3.8963   14.1135   -0.1095 H   0  0  0  0  0  0  0  0  0  0  0  0
    4.6807   16.3834   -0.7034 H   0  0  0  0  0  0  0  0  0  0  0  0
    3.7911   15.5696   -2.0496 H   0  0  0  0  0  0  0  0  0  0  0  0
    3.0845   17.8602   -1.9328 H   0  0  0  0  0  0  0  0  0  0  0  0
    3.1260   17.2770    0.7860 H   0  0  0  0  0  0  0  0  0  0  0  0
    1.1529   15.2240   -3.0355 H   0  0  0  0  0  0  0  0  0  0  0  0
    0.3853   16.7822   -3.4929 H   0  0  0  0  0  0  0  0  0  0  0  0
    2.1750   16.6285   -3.4929 H   0  0  0  0  0  0  0  0  0  0  0  0
    0.2019   18.2771   -0.3600 H   0  0  0  0  0  0  0  0  0  0  0  0
    0.8766   18.8770   -1.9129 H   0  0  0  0  0  0  0  0  0  0  0  0
   -0.5806   17.8267   -1.9129 H   0  0  0  0  0  0  0  0  0  0  0  0
    1.0117   12.9922    2.6202 H   0  0  0  0  0  0  0  0  0  0  0  0
    2.7259   13.2170    2.1327 H   0  0  0  0  0  0  0  0  0  0  0  0
    1.6011   14.6176    2.1327 H   0  0  0  0  0  0  0  0  0  0  0  0
    3.0879   12.2075   -0.2585 H   0  0  0  0  0  0  0  0  0  0  0  0
    2.0548   11.2863    0.9736 H   0  0  0  0  0  0  0  0  0  0  0  0
    1.5641   11.5725   -2.0040 H   0  0  0  0  0  0  0  0  0  0  0  0
    1.9764   10.0832   -1.0667 H   0  0  0  0  0  0  0  0  0  0  0  0
   -0.0484   10.6773    1.4192 H   0  0  0  0  0  0  0  0  0  0  0  0
   -1.1227    9.4887    0.6069 H   0  0  0  0  0  0  0  0  0  0  0  0
    0.6561    9.2383    0.6069 H   0  0  0  0  0  0  0  0  0  0  0  0
  1  2  1  0
  2  3  1  0
  3  4  1  0
  4  5  1  0
  5  6  1  0
  6  7  1  0
  7  8  1  0
  7  9  1  0
  2 10  1  0
 10 11  1  0
 11 12  1  0
 12 13  1  0
 13 14  1  6
 13 15  1  0
 15 16  1  0
 16 17  1  0
 17 18  2  0
 18 19  1  0
 19 20  1  0
 20 21  1  0
 21 22  1  0
 22 23  1  0
 22 24  1  0
 24 25  1  0
 24 26  1  0
 19 27  1  0
 27 28  1  1
 27 29  1  0
 29 30  1  0
 30 31  1  0
 31 32  1  1
  7  5  1  0
 31 10  1  0
 31 13  1  0
 27 15  1  0
 24 18  1  0
  1 33  1  0
  1 34  1  0
  1 35  1  0
  2 36  1  1
  3 37  1  0
  3 38  1  0
  4 39  1  0
  4 40  1  0
  5 41  1  6
  8 42  1  0
  8 43  1  0
  8 44  1  0
  9 45  1  0
  9 46  1  0
  9 47  1  0
 10 48  1  6
 11 49  1  0
 11 50  1  0
 12 51  1  0
 12 52  1  0
 14 53  1  0
 14 54  1  0
 14 55  1  0
 15 56  1  1
 16 57  1  0
 16 58  1  0
 17 59  1  0
 19 60  1  6
 20 61  1  0
 20 62  1  0
 21 63  1  0
 21 64  1  0
 22 65  1  6
 23 66  1  0
 25 67  1  0
 25 68  1  0
 25 69  1  0
 26 70  1  0
 26 71  1  0
 26 72  1  0
 28 73  1  0
 28 74  1  0
 28 75  1  0
 29 76  1  0
 29 77  1  0
 30 78  1  0
 30 79  1  0
 32 80  1  0
 32 81  1  0
 32 82  1  0
M  END
>  <meeko>  (15) 
{"is_sidechain": [false], "intermolecular_energy": 2.731, "internal_energy": -0.839}

$$$$
EPH_relaxed_0001_pdb2pqr_Repair_179_r2_0001_out
     RDKit          3D

 82 86  0  0  0  0  0  0  0  0999 V2000
    2.9710   11.2340   -4.2320 C   0  0  0  0  0  0  0  0  0  0  0  0
    1.9120   11.9100   -5.1070 C   0  0  2  0  0  0  0  0  0  0  0  0
    2.5350   12.6530   -6.3060 C   0  0  0  0  0  0  0  0  0  0  0  0
    1.8170   13.9570   -6.6640 C   0  0  0  0  0  0  0  0  0  0  0  0
    2.3140   14.5260   -7.9570 C   0  0  2  0  0  0  0  0  0  0  0  0
    2.4620   15.9520   -7.9660 O   0  0  0  0  0  0  0  0  0  0  0  0
    1.4750   15.4120   -8.8590 C   0  0  0  0  0  0  0  0  0  0  0  0
    0.0680   15.7770   -8.5030 C   0  0  0  0  0  0  0  0  0  0  0  0
    1.8470   15.5190  -10.3050 C   0  0  0  0  0  0  0  0  0  0  0  0
    1.0850   12.8780   -4.2680 C   0  0  1  0  0  0  0  0  0  0  0  0
   -0.3030   12.3000   -3.8840 C   0  0  0  0  0  0  0  0  0  0  0  0
   -0.6330   12.8330   -2.4660 C   0  0  0  0  0  0  0  0  0  0  0  0
    0.4060   13.9520   -2.2180 C   0  0  1  0  0  0  0  0  0  0  0  0
   -0.1660   15.2020   -2.9580 C   0  0  0  0  0  0  0  0  0  0  0  0
    0.7380   14.2680   -0.7230 C   0  0  2  0  0  0  0  0  0  0  0  0
   -0.4460   14.7840    0.1130 C   0  0  0  0  0  0  0  0  0  0  0  0
   -0.6160   16.2670    0.1300 C   0  0  0  0  0  0  0  0  0  0  0  0
    0.3070   17.1650   -0.2610 C   0  0  0  0  0  0  0  0  0  0  0  0
    1.7100   16.7160   -0.6890 C   0  0  1  0  0  0  0  0  0  0  0  0
    2.7730   17.6170   -0.0060 C   0  0  0  0  0  0  0  0  0  0  0  0
    2.5320   19.1020   -0.2610 C   0  0  0  0  0  0  0  0  0  0  0  0
    1.1490   19.5220    0.2310 C   0  0  2  0  0  0  0  0  0  0  0  0
    1.1160   19.4170    1.6570 O   0  0  0  0  0  0  0  0  0  0  0  0
   -0.0020   18.6770   -0.3830 C   0  0  0  0  0  0  0  0  0  0  0  0
   -0.1580   19.0220   -1.8840 C   0  0  0  0  0  0  0  0  0  0  0  0
   -1.3280   19.1080    0.3020 C   0  0  0  0  0  0  0  0  0  0  0  0
    2.0240   15.1670   -0.5210 C   0  0  1  0  0  0  0  0  0  0  0  0
    2.5440   14.8830    0.9210 C   0  0  0  0  0  0  0  0  0  0  0  0
    3.1920   14.7700   -1.5000 C   0  0  0  0  0  0  0  0  0  0  0  0
    2.7900   14.3530   -2.9280 C   0  0  0  0  0  0  0  0  0  0  0  0
    1.6690   13.3090   -2.8990 C   0  0  2  0  0  0  0  0  0  0  0  0
    2.2230   12.0320   -2.1800 C   0  0  0  0  0  0  0  0  0  0  0  0
    2.7250   11.3910   -3.1714 H   0  0  0  0  0  0  0  0  0  0  0  0
    2.9912   10.1556   -4.4480 H   0  0  0  0  0  0  0  0  0  0  0  0
    3.9577   11.6697   -4.4480 H   0  0  0  0  0  0  0  0  0  0  0  0
    1.2634   11.1185   -5.5105 H   0  0  0  0  0  0  0  0  0  0  0  0
    3.5815   12.8886   -6.0626 H   0  0  0  0  0  0  0  0  0  0  0  0
    2.4457   11.9877   -7.1775 H   0  0  0  0  0  0  0  0  0  0  0  0
    0.7389   13.7574   -6.7533 H   0  0  0  0  0  0  0  0  0  0  0  0
    2.0178   14.6888   -5.8676 H   0  0  0  0  0  0  0  0  0  0  0  0
    2.9050   13.6197   -8.1556 H   0  0  0  0  0  0  0  0  0  0  0  0
   -0.0379   15.8045   -7.4085 H   0  0  0  0  0  0  0  0  0  0  0  0
   -0.1706   16.7668   -8.9194 H   0  0  0  0  0  0  0  0  0  0  0  0
   -0.6217   15.0280   -8.9194 H   0  0  0  0  0  0  0  0  0  0  0  0
    2.9009   15.8221  -10.3910 H   0  0  0  0  0  0  0  0  0  0  0  0
    1.7050   14.5436  -10.7933 H   0  0  0  0  0  0  0  0  0  0  0  0
    1.2085   16.2699  -10.7933 H   0  0  0  0  0  0  0  0  0  0  0  0
    1.0557   13.7382   -4.9530 H   0  0  0  0  0  0  0  0  0  0  0  0
   -1.0653   12.6366   -4.6021 H   0  0  0  0  0  0  0  0  0  0  0  0
   -0.2907   11.2002   -3.8995 H   0  0  0  0  0  0  0  0  0  0  0  0
   -1.6553   13.2377   -2.4315 H   0  0  0  0  0  0  0  0  0  0  0  0
   -0.5856   12.0430   -1.7020 H   0  0  0  0  0  0  0  0  0  0  0  0
   -0.5049   15.9426   -2.2186 H   0  0  0  0  0  0  0  0  0  0  0  0
    0.6186   15.6458   -3.5884 H   0  0  0  0  0  0  0  0  0  0  0  0
   -1.0148   14.8984   -3.5884 H   0  0  0  0  0  0  0  0  0  0  0  0
    0.9776   13.2734   -0.3189 H   0  0  0  0  0  0  0  0  0  0  0  0
   -1.3674   14.3409   -0.2928 H   0  0  0  0  0  0  0  0  0  0  0  0
   -0.2362   14.4897    1.1519 H   0  0  0  0  0  0  0  0  0  0  0  0
   -1.5775   16.6592    0.4930 H   0  0  0  0  0  0  0  0  0  0  0  0
    1.7524   16.8500   -1.7800 H   0  0  0  0  0  0  0  0  0  0  0  0
    2.7442   17.4362    1.0787 H   0  0  0  0  0  0  0  0  0  0  0  0
    3.7534   17.3595   -0.4333 H   0  0  0  0  0  0  0  0  0  0  0  0
    3.2965   19.6874    0.2708 H   0  0  0  0  0  0  0  0  0  0  0  0
    2.5908   19.2867   -1.3438 H   0  0  0  0  0  0  0  0  0  0  0  0
    0.9836   20.5597   -0.0944 H   0  0  0  0  0  0  0  0  0  0  0  0
    1.5770   18.5970    1.9030 H   0  0  0  0  0  0  0  0  0  0  0  0
   -0.6093   20.0200   -1.9859 H   0  0  0  0  0  0  0  0  0  0  0  0
    0.8306   19.0156   -2.3664 H   0  0  0  0  0  0  0  0  0  0  0  0
   -0.8062   18.2755   -2.3664 H   0  0  0  0  0  0  0  0  0  0  0  0
   -1.2061   19.0684    1.3945 H   0  0  0  0  0  0  0  0  0  0  0  0
   -1.5808   20.1346   -0.0017 H   0  0  0  0  0  0  0  0  0  0  0  0
   -2.1361   18.4263   -0.0017 H   0  0  0  0  0  0  0  0  0  0  0  0
    1.8244   15.2760    1.6543 H   0  0  0  0  0  0  0  0  0  0  0  0
    2.6567   13.7981    1.0631 H   0  0  0  0  0  0  0  0  0  0  0  0
    3.5178   15.3745    1.0631 H   0  0  0  0  0  0  0  0  0  0  0  0
    3.8653   15.6359   -1.5833 H   0  0  0  0  0  0  0  0  0  0  0  0
    3.6477   13.8729   -1.0556 H   0  0  0  0  0  0  0  0  0  0  0  0
    2.4416   15.2400   -3.4773 H   0  0  0  0  0  0  0  0  0  0  0  0
    3.6670   13.9125   -3.4249 H   0  0  0  0  0  0  0  0  0  0  0  0
    2.1632   12.1698   -1.0903 H   0  0  0  0  0  0  0  0  0  0  0  0
    1.6234   11.1574   -2.4724 H   0  0  0  0  0  0  0  0  0  0  0  0
    3.2713   11.8723   -2.4724 H   0  0  0  0  0  0  0  0  0  0  0  0
  1  2  1  0
  2  3  1  0
  3  4  1  0
  4  5  1  0
  5  6  1  0
  6  7  1  0
  7  8  1  0
  7  9  1  0
  2 10  1  0
 10 11  1  0
 11 12  1  0
 12 13  1  0
 13 14  1  6
 13 15  1  0
 15 16  1  0
 16 17  1  0
 17 18  2  0
 18 19  1  0
 19 20  1  0
 20 21  1  0
 21 22  1  0
 22 23  1  0
 22 24  1  0
 24 25  1  0
 24 26  1  0
 19 27  1  0
 27 28  1  1
 27 29  1  0
 29 30  1  0
 30 31  1  0
 31 32  1  1
  7  5  1  0
 31 10  1  0
 31 13  1  0
 27 15  1  0
 24 18  1  0
  1 33  1  0
  1 34  1  0
  1 35  1  0
  2 36  1  6
  3 37  1  0
  3 38  1  0
  4 39  1  0
  4 40  1  0
  5 41  1  6
  8 42  1  0
  8 43  1  0
  8 44  1  0
  9 45  1  0
  9 46  1  0
  9 47  1  0
 10 48  1  6
 11 49  1  0
 11 50  1  0
 12 51  1  0
 12 52  1  0
 14 53  1  0
 14 54  1  0
 14 55  1  0
 15 56  1  1
 16 57  1  0
 16 58  1  0
 17 59  1  0
 19 60  1  6
 20 61  1  0
 20 62  1  0
 21 63  1  0
 21 64  1  0
 22 65  1  1
 23 66  1  0
 25 67  1  0
 25 68  1  0
 25 69  1  0
 26 70  1  0
 26 71  1  0
 26 72  1  0
 28 73  1  0
 28 74  1  0
 28 75  1  0
 29 76  1  0
 29 77  1  0
 30 78  1  0
 30 79  1  0
 32 80  1  0
 32 81  1  0
 32 82  1  0
M  END
>  <meeko>  (16) 
{"is_sidechain": [false], "intermolecular_energy": 2.731, "internal_energy": -0.839}

$$$$
EPH_relaxed_0001_pdb2pqr_Repair_179_r2_0001_out
     RDKit          3D

 82 86  0  0  0  0  0  0  0  0999 V2000
    0.8420   14.7280   -4.7830 C   0  0  0  0  0  0  0  0  0  0  0  0
    0.6210   14.1640   -3.3760 C   0  0  2  0  0  0  0  0  0  0  0  0
    1.8590   14.3460   -2.4760 C   0  0  0  0  0  0  0  0  0  0  0  0
    1.6800   15.4090   -1.3890 C   0  0  0  0  0  0  0  0  0  0  0  0
    1.0940   16.6730   -1.9410 C   0  0  2  0  0  0  0  0  0  0  0  0
    1.9810   17.4310   -2.7730 O   0  0  0  0  0  0  0  0  0  0  0  0
    1.5720   18.0580   -1.5470 C   0  0  0  0  0  0  0  0  0  0  0  0
    2.6820   18.2500   -0.5620 C   0  0  0  0  0  0  0  0  0  0  0  0
    0.6450   19.2170   -1.7430 C   0  0  0  0  0  0  0  0  0  0  0  0
    0.2500   12.6890   -3.4600 C   0  0  1  0  0  0  0  0  0  0  0  0
    1.4690   11.7830   -3.7790 C   0  0  0  0  0  0  0  0  0  0  0  0
    1.2520   10.4540   -3.0120 C   0  0  0  0  0  0  0  0  0  0  0  0
   -0.2230   10.5060   -2.5500 C   0  0  1  0  0  0  0  0  0  0  0  0
   -1.0500   10.0660   -3.7990 C   0  0  0  0  0  0  0  0  0  0  0  0
   -0.5830    9.6540   -1.2900 C   0  0  2  0  0  0  0  0  0  0  0  0
   -0.3850    8.1360   -1.4490 C   0  0  0  0  0  0  0  0  0  0  0  0
   -1.5750    7.3870   -1.9490 C   0  0  0  0  0  0  0  0  0  0  0  0
   -2.8360    7.8570   -1.9880 C   0  0  0  0  0  0  0  0  0  0  0  0
   -3.1810    9.2340   -1.4060 C   0  0  1  0  0  0  0  0  0  0  0  0
   -4.4580    9.1210   -0.5310 C   0  0  0  0  0  0  0  0  0  0  0  0
   -5.6280    8.4950   -1.2830 C   0  0  0  0  0  0  0  0  0  0  0  0
   -5.2660    7.1030   -1.7960 C   0  0  2  0  0  0  0  0  0  0  0  0
   -5.0830    6.2320   -0.6750 O   0  0  0  0  0  0  0  0  0  0  0  0
   -3.9890    7.0910   -2.6820 C   0  0  0  0  0  0  0  0  0  0  0  0
   -4.2880    7.7830   -4.0350 C   0  0  0  0  0  0  0  0  0  0  0  0
   -3.6540    5.6120   -3.0150 C   0  0  0  0  0  0  0  0  0  0  0  0
   -1.9970    9.9890   -0.6630 C   0  0  1  0  0  0  0  0  0  0  0  0
   -1.9380    9.5470    0.8310 C   0  0  0  0  0  0  0  0  0  0  0  0
   -2.2970   11.5350   -0.6560 C   0  0  0  0  0  0  0  0  0  0  0  0
   -1.8110   12.3420   -1.8750 C   0  0  0  0  0  0  0  0  0  0  0  0
   -0.3440   12.0310   -2.1890 C   0  0  2  0  0  0  0  0  0  0  0  0
    0.5150   12.4840   -0.9590 C   0  0  0  0  0  0  0  0  0  0  0  0
    1.2424   15.7499   -4.7097 H   0  0  0  0  0  0  0  0  0  0  0  0
    1.5574   14.0919   -5.3248 H   0  0  0  0  0  0  0  0  0  0  0  0
   -0.1151   14.7472   -5.3248 H   0  0  0  0  0  0  0  0  0  0  0  0
   -0.2045   14.7293   -2.9189 H   0  0  0  0  0  0  0  0  0  0  0  0
    2.0781   13.3846   -1.9885 H   0  0  0  0  0  0  0  0  0  0  0  0
    2.6802   14.6851   -3.1245 H   0  0  0  0  0  0  0  0  0  0  0  0
    1.0089   15.0146   -0.6118 H   0  0  0  0  0  0  0  0  0  0  0  0
    2.6706   15.6437   -0.9724 H   0  0  0  0  0  0  0  0  0  0  0  0
    0.0920   16.2205   -1.9769 H   0  0  0  0  0  0  0  0  0  0  0  0
    2.2813   18.1807    0.4601 H   0  0  0  0  0  0  0  0  0  0  0  0
    3.4434   17.4702   -0.7110 H   0  0  0  0  0  0  0  0  0  0  0  0
    3.1372   19.2402   -0.7110 H   0  0  0  0  0  0  0  0  0  0  0  0
    0.3331   19.6069   -0.7628 H   0  0  0  0  0  0  0  0  0  0  0  0
    1.1617   20.0089   -2.3051 H   0  0  0  0  0  0  0  0  0  0  0  0
   -0.2410   18.8869   -2.3051 H   0  0  0  0  0  0  0  0  0  0  0  0
   -0.5127   12.7364   -4.2512 H   0  0  0  0  0  0  0  0  0  0  0  0
    1.5254   11.5911   -4.8607 H   0  0  0  0  0  0  0  0  0  0  0  0
    2.4096   12.2653   -3.4747 H   0  0  0  0  0  0  0  0  0  0  0  0
    1.4214    9.5917   -3.6737 H   0  0  0  0  0  0  0  0  0  0  0  0
    1.9493   10.3406   -2.1688 H   0  0  0  0  0  0  0  0  0  0  0  0
   -1.9767    9.5730   -3.4701 H   0  0  0  0  0  0  0  0  0  0  0  0
   -1.2999   10.9504   -4.4035 H   0  0  0  0  0  0  0  0  0  0  0  0
   -0.4561    9.3646   -4.4035 H   0  0  0  0  0  0  0  0  0  0  0  0
    0.1749    9.9795   -0.5622 H   0  0  0  0  0  0  0  0  0  0  0  0
    0.4411    7.9733   -2.1568 H   0  0  0  0  0  0  0  0  0  0  0  0
   -0.1832    7.7480   -0.4397 H   0  0  0  0  0  0  0  0  0  0  0  0
   -1.4076    6.3640   -2.3169 H   0  0  0  0  0  0  0  0  0  0  0  0
   -3.3759    9.8886   -2.2682 H   0  0  0  0  0  0  0  0  0  0  0  0
   -4.2299    8.4992    0.3472 H   0  0  0  0  0  0  0  0  0  0  0  0
   -4.7546   10.1394   -0.2396 H   0  0  0  0  0  0  0  0  0  0  0  0
   -6.4904    8.4155   -0.6049 H   0  0  0  0  0  0  0  0  0  0  0  0
   -5.8731    9.1335   -2.1445 H   0  0  0  0  0  0  0  0  0  0  0  0
   -6.0938    6.7598   -2.4340 H   0  0  0  0  0  0  0  0  0  0  0  0
   -5.9330    5.7960   -0.4990 H   0  0  0  0  0  0  0  0  0  0  0  0
   -4.7181    8.7785   -3.8505 H   0  0  0  0  0  0  0  0  0  0  0  0
   -3.3546    7.8872   -4.6077 H   0  0  0  0  0  0  0  0  0  0  0  0
   -5.0036    7.1748   -4.6077 H   0  0  0  0  0  0  0  0  0  0  0  0
   -3.5257    5.0458   -2.0807 H   0  0  0  0  0  0  0  0  0  0  0  0
   -4.4754    5.1728   -3.6001 H   0  0  0  0  0  0  0  0  0  0  0  0
   -2.7235    5.5696   -3.6001 H   0  0  0  0  0  0  0  0  0  0  0  0
   -2.0556   10.4281    1.4790 H   0  0  0  0  0  0  0  0  0  0  0  0
   -2.7486    8.8317    1.0340 H   0  0  0  0  0  0  0  0  0  0  0  0
   -0.9681    9.0694    1.0340 H   0  0  0  0  0  0  0  0  0  0  0  0
   -3.3874   11.6622   -0.5859 H   0  0  0  0  0  0  0  0  0  0  0  0
   -1.7306   11.9344    0.1982 H   0  0  0  0  0  0  0  0  0  0  0  0
   -2.4286   12.0828   -2.7476 H   0  0  0  0  0  0  0  0  0  0  0  0
   -1.9008   13.4138   -1.6445 H   0  0  0  0  0  0  0  0  0  0  0  0
   -0.0040   12.2103   -0.0286 H   0  0  0  0  0  0  0  0  0  0  0  0
    1.4949   11.9854   -0.9925 H   0  0  0  0  0  0  0  0  0  0  0  0
    0.6570   13.5743   -0.9925 H   0  0  0  0  0  0  0  0  0  0  0  0
  1  2  1  0
  2  3  1  0
  3  4  1  0
  4  5  1  0
  5  6  1  0
  6  7  1  0
  7  8  1  0
  7  9  1  0
  2 10  1  0
 10 11  1  0
 11 12  1  0
 12 13  1  0
 13 14  1  6
 13 15  1  0
 15 16  1  0
 16 17  1  0
 17 18  2  0
 18 19  1  0
 19 20  1  0
 20 21  1  0
 21 22  1  0
 22 23  1  0
 22 24  1  0
 24 25  1  0
 24 26  1  0
 19 27  1  0
 27 28  1  1
 27 29  1  0
 29 30  1  0
 30 31  1  0
 31 32  1  1
  7  5  1  0
 31 10  1  0
 31 13  1  0
 27 15  1  0
 24 18  1  0
  1 33  1  0
  1 34  1  0
  1 35  1  0
  2 36  1  1
  3 37  1  0
  3 38  1  0
  4 39  1  0
  4 40  1  0
  5 41  1  6
  8 42  1  0
  8 43  1  0
  8 44  1  0
  9 45  1  0
  9 46  1  0
  9 47  1  0
 10 48  1  6
 11 49  1  0
 11 50  1  0
 12 51  1  0
 12 52  1  0
 14 53  1  0
 14 54  1  0
 14 55  1  0
 15 56  1  1
 16 57  1  0
 16 58  1  0
 17 59  1  0
 19 60  1  6
 20 61  1  0
 20 62  1  0
 21 63  1  0
 21 64  1  0
 22 65  1  6
 23 66  1  0
 25 67  1  0
 25 68  1  0
 25 69  1  0
 26 70  1  0
 26 71  1  0
 26 72  1  0
 28 73  1  0
 28 74  1  0
 28 75  1  0
 29 76  1  0
 29 77  1  0
 30 78  1  0
 30 79  1  0
 32 80  1  0
 32 81  1  0
 32 82  1  0
M  END
>  <meeko>  (17) 
{"is_sidechain": [false], "intermolecular_energy": 2.731, "internal_energy": -0.839}

$$$$
