EPH_relaxed_0001_pdb2pqr_Repair_15_r2_0001_out
     RDKit          3D

 82 86  0  0  0  0  0  0  0  0999 V2000
   -1.5970    8.5740   -1.8450 C   0  0  0  0  0  0  0  0  0  0  0  0
   -2.0190    9.1590   -0.4940 C   0  0  2  0  0  0  0  0  0  0  0  0
   -3.5060    9.5660   -0.4760 C   0  0  0  0  0  0  0  0  0  0  0  0
   -4.4670    8.3820   -0.3390 C   0  0  0  0  0  0  0  0  0  0  0  0
   -5.0980    8.0260   -1.6500 C   0  0  2  0  0  0  0  0  0  0  0  0
   -6.3690    8.6450   -1.8910 O   0  0  0  0  0  0  0  0  0  0  0  0
   -6.3740    7.2130   -1.7710 C   0  0  0  0  0  0  0  0  0  0  0  0
   -7.0940    6.7070   -0.5610 C   0  0  0  0  0  0  0  0  0  0  0  0
   -6.6500    6.5020   -3.0590 C   0  0  0  0  0  0  0  0  0  0  0  0
   -1.1460   10.3610   -0.1530 C   0  0  1  0  0  0  0  0  0  0  0  0
   -0.0780   10.0370    0.9250 C   0  0  0  0  0  0  0  0  0  0  0  0
    1.1820   10.8670    0.5710 C   0  0  0  0  0  0  0  0  0  0  0  0
    0.6950   11.8820   -0.4900 C   0  0  1  0  0  0  0  0  0  0  0  0
    0.0180   13.0250    0.3290 C   0  0  0  0  0  0  0  0  0  0  0  0
    1.7830   12.4370   -1.4660 C   0  0  2  0  0  0  0  0  0  0  0  0
    2.9110   13.2410   -0.7960 C   0  0  0  0  0  0  0  0  0  0  0  0
    2.6660   14.7090   -0.6810 C   0  0  0  0  0  0  0  0  0  0  0  0
    1.7210   15.3990   -1.3460 C   0  0  0  0  0  0  0  0  0  0  0  0
    0.8390   14.7140   -2.3970 C   0  0  1  0  0  0  0  0  0  0  0  0
    0.7700   15.5970   -3.6710 C   0  0  0  0  0  0  0  0  0  0  0  0
    0.3190   17.0230   -3.3700 C   0  0  0  0  0  0  0  0  0  0  0  0
    1.2540   17.6910   -2.3660 C   0  0  2  0  0  0  0  0  0  0  0  0
    2.5360   17.8670   -2.9760 O   0  0  0  0  0  0  0  0  0  0  0  0
    1.4100   16.8860   -1.0450 C   0  0  0  0  0  0  0  0  0  0  0  0
    0.0910   16.9520   -0.2360 C   0  0  0  0  0  0  0  0  0  0  0  0
    2.4860   17.5950   -0.1780 C   0  0  0  0  0  0  0  0  0  0  0  0
    1.1980   13.2000   -2.7230 C   0  0  1  0  0  0  0  0  0  0  0  0
    2.2940   13.1390   -3.8300 C   0  0  0  0  0  0  0  0  0  0  0  0
   -0.0740   12.4870   -3.3170 C   0  0  0  0  0  0  0  0  0  0  0  0
   -1.0500   11.8530   -2.3070 C   0  0  0  0  0  0  0  0  0  0  0  0
   -0.3030   10.9750   -1.2990 C   0  0  2  0  0  0  0  0  0  0  0  0
    0.3700    9.8040   -2.0910 C   0  0  0  0  0  0  0  0  0  0  0  0
   -0.9607    7.6920   -1.6800 H   0  0  0  0  0  0  0  0  0  0  0  0
   -2.4920    8.2795   -2.4127 H   0  0  0  0  0  0  0  0  0  0  0  0
   -1.0352    9.3304   -2.4127 H   0  0  0  0  0  0  0  0  0  0  0  0
   -1.8829    8.3733    0.2637 H   0  0  0  0  0  0  0  0  0  0  0  0
   -3.6696   10.2460    0.3730 H   0  0  0  0  0  0  0  0  0  0  0  0
   -3.7202   10.0433   -1.4436 H   0  0  0  0  0  0  0  0  0  0  0  0
   -3.9089    7.5115    0.0361 H   0  0  0  0  0  0  0  0  0  0  0  0
   -5.2667    8.6685    0.3598 H   0  0  0  0  0  0  0  0  0  0  0  0
   -4.1107    7.9249   -2.1245 H   0  0  0  0  0  0  0  0  0  0  0  0
   -6.5842    7.0653    0.3455 H   0  0  0  0  0  0  0  0  0  0  0  0
   -8.1300    7.0767   -0.5695 H   0  0  0  0  0  0  0  0  0  0  0  0
   -7.0971    5.6070   -0.5695 H   0  0  0  0  0  0  0  0  0  0  0  0
   -7.0405    5.4959   -2.8461 H   0  0  0  0  0  0  0  0  0  0  0  0
   -7.3934    7.0688   -3.6387 H   0  0  0  0  0  0  0  0  0  0  0  0
   -5.7189    6.4188   -3.6387 H   0  0  0  0  0  0  0  0  0  0  0  0
   -1.9245   11.0705    0.1640 H   0  0  0  0  0  0  0  0  0  0  0  0
   -0.4488   10.3180    1.9218 H   0  0  0  0  0  0  0  0  0  0  0  0
    0.1505    8.9611    0.9433 H   0  0  0  0  0  0  0  0  0  0  0  0
    1.5658   11.3887    1.4601 H   0  0  0  0  0  0  0  0  0  0  0  0
    2.0051   10.2384    0.2002 H   0  0  0  0  0  0  0  0  0  0  0  0
    0.1363   12.8253    1.4042 H   0  0  0  0  0  0  0  0  0  0  0  0
    0.4930   13.9854    0.0800 H   0  0  0  0  0  0  0  0  0  0  0  0
   -1.0525   13.0700    0.0800 H   0  0  0  0  0  0  0  0  0  0  0  0
    2.2540   11.5168   -1.8419 H   0  0  0  0  0  0  0  0  0  0  0  0
    3.0580   12.8405    0.2179 H   0  0  0  0  0  0  0  0  0  0  0  0
    3.7916   13.1294   -1.4457 H   0  0  0  0  0  0  0  0  0  0  0  0
    3.3128   15.2749    0.0056 H   0  0  0  0  0  0  0  0  0  0  0  0
   -0.1610   14.6302   -1.9465 H   0  0  0  0  0  0  0  0  0  0  0  0
    1.7690   15.6325   -4.1301 H   0  0  0  0  0  0  0  0  0  0  0  0
    0.0290   15.1482   -4.3489 H   0  0  0  0  0  0  0  0  0  0  0  0
    0.3184   17.6049   -4.3035 H   0  0  0  0  0  0  0  0  0  0  0  0
   -0.6920   16.9873   -2.9379 H   0  0  0  0  0  0  0  0  0  0  0  0
    0.8079   18.6588   -2.0931 H   0  0  0  0  0  0  0  0  0  0  0  0
    2.6040   18.7960   -3.2560 H   0  0  0  0  0  0  0  0  0  0  0  0
    0.3198   16.9406    0.8399 H   0  0  0  0  0  0  0  0  0  0  0  0
   -0.4469   17.8782   -0.4866 H   0  0  0  0  0  0  0  0  0  0  0  0
   -0.5367   16.0841   -0.4866 H   0  0  0  0  0  0  0  0  0  0  0  0
    2.2566   17.4438    0.8871 H   0  0  0  0  0  0  0  0  0  0  0  0
    3.4759   17.1717   -0.4035 H   0  0  0  0  0  0  0  0  0  0  0  0
    2.4876   18.6716   -0.4035 H   0  0  0  0  0  0  0  0  0  0  0  0
    3.2871   13.0837   -3.3601 H   0  0  0  0  0  0  0  0  0  0  0  0
    2.1342   12.2484   -4.4555 H   0  0  0  0  0  0  0  0  0  0  0  0
    2.2340   14.0419   -4.4555 H   0  0  0  0  0  0  0  0  0  0  0  0
   -0.6345   13.2350   -3.8969 H   0  0  0  0  0  0  0  0  0  0  0  0
    0.3171   11.6450   -3.9070 H   0  0  0  0  0  0  0  0  0  0  0  0
   -1.5776   12.6525   -1.7661 H   0  0  0  0  0  0  0  0  0  0  0  0
   -1.7646   11.2238   -2.8578 H   0  0  0  0  0  0  0  0  0  0  0  0
    0.7890    9.0749   -1.3819 H   0  0  0  0  0  0  0  0  0  0  0  0
   -0.3818    9.3096   -2.7238 H   0  0  0  0  0  0  0  0  0  0  0  0
    1.1756   10.2047   -2.7238 H   0  0  0  0  0  0  0  0  0  0  0  0
  1  2  1  0
  2  3  1  0
  3  4  1  0
  4  5  1  0
  5  6  1  0
  6  7  1  0
  7  8  1  0
  7  9  1  0
  2 10  1  0
 10 11  1  0
 11 12  1  0
 12 13  1  0
 13 14  1  1
 13 15  1  0
 15 16  1  0
 16 17  1  0
 17 18  2  0
 18 19  1  0
 19 20  1  0
 20 21  1  0
 21 22  1  0
 22 23  1  0
 22 24  1  0
 24 25  1  0
 24 26  1  0
 19 27  1  0
 27 28  1  6
 27 29  1  0
 29 30  1  0
 30 31  1  0
 31 32  1  6
  7  5  1  0
 31 10  1  0
 31 13  1  0
 27 15  1  0
 24 18  1  0
  1 33  1  0
  1 34  1  0
  1 35  1  0
  2 36  1  1
  3 37  1  0
  3 38  1  0
  4 39  1  0
  4 40  1  0
  5 41  1  6
  8 42  1  0
  8 43  1  0
  8 44  1  0
  9 45  1  0
  9 46  1  0
  9 47  1  0
 10 48  1  1
 11 49  1  0
 11 50  1  0
 12 51  1  0
 12 52  1  0
 14 53  1  0
 14 54  1  0
 14 55  1  0
 15 56  1  6
 16 57  1  0
 16 58  1  0
 17 59  1  0
 19 60  1  1
 20 61  1  0
 20 62  1  0
 21 63  1  0
 21 64  1  0
 22 65  1  1
 23 66  1  0
 25 67  1  0
 25 68  1  0
 25 69  1  0
 26 70  1  0
 26 71  1  0
 26 72  1  0
 28 73  1  0
 28 74  1  0
 28 75  1  0
 29 76  1  0
 29 77  1  0
 30 78  1  0
 30 79  1  0
 32 80  1  0
 32 81  1  0
 32 82  1  0
M  END
>  <meeko>  (1) 
{"is_sidechain": [false], "intermolecular_energy": 2.731, "internal_energy": -0.839}

$$$$
EPH_relaxed_0001_pdb2pqr_Repair_15_r2_0001_out
     RDKit          3D

 82 86  0  0  0  0  0  0  0  0999 V2000
    1.9930   19.6060   -0.6420 C   0  0  0  0  0  0  0  0  0  0  0  0
    2.3830   18.3950    0.2090 C   0  0  2  0  0  0  0  0  0  0  0  0
    3.8340   17.9430   -0.0530 C   0  0  0  0  0  0  0  0  0  0  0  0
    4.7920   18.2470    1.1020 C   0  0  0  0  0  0  0  0  0  0  0  0
    4.1180   19.0270    2.1900 C   0  0  2  0  0  0  0  0  0  0  0  0
    4.8360   20.1890    2.6270 O   0  0  0  0  0  0  0  0  0  0  0  0
    4.6680   19.1450    3.5990 C   0  0  0  0  0  0  0  0  0  0  0  0
    5.9450   18.4730    3.9970 C   0  0  0  0  0  0  0  0  0  0  0  0
    3.7270   19.4990    4.7080 C   0  0  0  0  0  0  0  0  0  0  0  0
    1.4230   17.2420   -0.0560 C   0  0  1  0  0  0  0  0  0  0  0  0
    0.1380   17.6940   -0.8010 C   0  0  0  0  0  0  0  0  0  0  0  0
   -0.2640   16.5310   -1.7450 C   0  0  0  0  0  0  0  0  0  0  0  0
    0.5940   15.3330   -1.2760 C   0  0  1  0  0  0  0  0  0  0  0  0
   -0.1630   14.7580   -0.0380 C   0  0  0  0  0  0  0  0  0  0  0  0
    0.8790   14.2270   -2.3430 C   0  0  2  0  0  0  0  0  0  0  0  0
   -0.3670   13.4980   -2.8760 C   0  0  0  0  0  0  0  0  0  0  0  0
   -0.7600   12.2720   -2.1200 C   0  0  0  0  0  0  0  0  0  0  0  0
    0.0160   11.6150   -1.2370 C   0  0  0  0  0  0  0  0  0  0  0  0
    1.4700   12.0420   -0.9960 C   0  0  1  0  0  0  0  0  0  0  0  0
    2.3860   10.7900   -1.0080 C   0  0  0  0  0  0  0  0  0  0  0  0
    1.9220    9.7170   -0.0270 C   0  0  0  0  0  0  0  0  0  0  0  0
    0.4930    9.2770   -0.3350 C   0  0  2  0  0  0  0  0  0  0  0  0
    0.4800    8.6050   -1.5980 O   0  0  0  0  0  0  0  0  0  0  0  0
   -0.5190   10.4560   -0.3600 C   0  0  0  0  0  0  0  0  0  0  0  0
   -0.7300   10.9920    1.0780 C   0  0  0  0  0  0  0  0  0  0  0  0
   -1.8920    9.8970   -0.8210 C   0  0  0  0  0  0  0  0  0  0  0  0
    2.0150   13.2060   -1.9310 C   0  0  1  0  0  0  0  0  0  0  0  0
    2.5760   12.6050   -3.2560 C   0  0  0  0  0  0  0  0  0  0  0  0
    3.2260   13.9140   -1.2170 C   0  0  0  0  0  0  0  0  0  0  0  0
    2.8880   15.0770   -0.2660 C   0  0  0  0  0  0  0  0  0  0  0  0
    1.9380   16.0750   -0.9350 C   0  0  2  0  0  0  0  0  0  0  0  0
    2.6810   16.6870   -2.1720 C   0  0  0  0  0  0  0  0  0  0  0  0
    1.7228   20.4449    0.0162 H   0  0  0  0  0  0  0  0  0  0  0  0
    2.8429   19.8970   -1.2769 H   0  0  0  0  0  0  0  0  0  0  0  0
    1.1330   19.3464   -1.2769 H   0  0  0  0  0  0  0  0  0  0  0  0
    2.3174   18.6984    1.2643 H   0  0  0  0  0  0  0  0  0  0  0  0
    3.8333   16.8568   -0.2267 H   0  0  0  0  0  0  0  0  0  0  0  0
    4.1937   18.5077   -0.9258 H   0  0  0  0  0  0  0  0  0  0  0  0
    5.1601   17.2980    1.5191 H   0  0  0  0  0  0  0  0  0  0  0  0
    5.6218   18.8528    0.7091 H   0  0  0  0  0  0  0  0  0  0  0  0
    3.1253   18.7490    1.8062 H   0  0  0  0  0  0  0  0  0  0  0  0
    6.0138   18.4368    5.0943 H   0  0  0  0  0  0  0  0  0  0  0  0
    5.9616   17.4494    3.5946 H   0  0  0  0  0  0  0  0  0  0  0  0
    6.7981   19.0390    3.5946 H   0  0  0  0  0  0  0  0  0  0  0  0
    4.2156   19.3152    5.6762 H   0  0  0  0  0  0  0  0  0  0  0  0
    3.4532   20.5616    4.6314 H   0  0  0  0  0  0  0  0  0  0  0  0
    2.8207   18.8804    4.6314 H   0  0  0  0  0  0  0  0  0  0  0  0
    1.2637   16.8941    0.9753 H   0  0  0  0  0  0  0  0  0  0  0  0
   -0.6683   17.8923   -0.0795 H   0  0  0  0  0  0  0  0  0  0  0  0
    0.3150   18.6199   -1.3679 H   0  0  0  0  0  0  0  0  0  0  0  0
   -1.3356   16.3034   -1.6461 H   0  0  0  0  0  0  0  0  0  0  0  0
   -0.0947   16.7759   -2.8039 H   0  0  0  0  0  0  0  0  0  0  0  0
    0.3142   15.1205    0.8844 H   0  0  0  0  0  0  0  0  0  0  0  0
   -1.2116   15.0894   -0.0630 H   0  0  0  0  0  0  0  0  0  0  0  0
   -0.1251   13.6589   -0.0630 H   0  0  0  0  0  0  0  0  0  0  0  0
    1.2679   14.8111   -3.1901 H   0  0  0  0  0  0  0  0  0  0  0  0
   -1.2118   14.2018   -2.8453 H   0  0  0  0  0  0  0  0  0  0  0  0
   -0.1115   13.1609   -3.8914 H   0  0  0  0  0  0  0  0  0  0  0  0
   -1.7687   11.8715   -2.2994 H   0  0  0  0  0  0  0  0  0  0  0  0
    1.4888   12.5088   -0.0001 H   0  0  0  0  0  0  0  0  0  0  0  0
    2.3877   10.3638   -2.0221 H   0  0  0  0  0  0  0  0  0  0  0  0
    3.3930   11.1097   -0.7020 H   0  0  0  0  0  0  0  0  0  0  0  0
    2.5907    8.8469   -0.1025 H   0  0  0  0  0  0  0  0  0  0  0  0
    1.9488   10.1358    0.9898 H   0  0  0  0  0  0  0  0  0  0  0  0
    0.1724    8.6059    0.4755 H   0  0  0  0  0  0  0  0  0  0  0  0
    0.5270    9.2830   -2.2930 H   0  0  0  0  0  0  0  0  0  0  0  0
   -0.4273   10.2231    1.8040 H   0  0  0  0  0  0  0  0  0  0  0  0
   -0.1205   11.8958    1.2256 H   0  0  0  0  0  0  0  0  0  0  0  0
   -1.7920   11.2378    1.2256 H   0  0  0  0  0  0  0  0  0  0  0  0
   -2.5015    9.6488    0.0604 H   0  0  0  0  0  0  0  0  0  0  0  0
   -2.4123   10.6549   -1.4250 H   0  0  0  0  0  0  0  0  0  0  0  0
   -1.7350    8.9912   -1.4250 H   0  0  0  0  0  0  0  0  0  0  0  0
    3.3092   11.8195   -3.0208 H   0  0  0  0  0  0  0  0  0  0  0  0
    1.7507   12.1729   -3.8410 H   0  0  0  0  0  0  0  0  0  0  0  0
    3.0638   13.3986   -3.8410 H   0  0  0  0  0  0  0  0  0  0  0  0
    3.7601   13.1505   -0.6323 H   0  0  0  0  0  0  0  0  0  0  0  0
    3.8135   14.3676   -2.0288 H   0  0  0  0  0  0  0  0  0  0  0  0
    2.4082   14.6744    0.6382 H   0  0  0  0  0  0  0  0  0  0  0  0
    3.8203   15.6002   -0.0072 H   0  0  0  0  0  0  0  0  0  0  0  0
    3.4866   17.3505   -1.8245 H   0  0  0  0  0  0  0  0  0  0  0  0
    3.1100   15.8767   -2.7798 H   0  0  0  0  0  0  0  0  0  0  0  0
    1.9679   17.2632   -2.7798 H   0  0  0  0  0  0  0  0  0  0  0  0
  1  2  1  0
  2  3  1  0
  3  4  1  0
  4  5  1  0
  5  6  1  0
  6  7  1  0
  7  8  1  0
  7  9  1  0
  2 10  1  0
 10 11  1  0
 11 12  1  0
 12 13  1  0
 13 14  1  1
 13 15  1  0
 15 16  1  0
 16 17  1  0
 17 18  2  0
 18 19  1  0
 19 20  1  0
 20 21  1  0
 21 22  1  0
 22 23  1  0
 22 24  1  0
 24 25  1  0
 24 26  1  0
 19 27  1  0
 27 28  1  6
 27 29  1  0
 29 30  1  0
 30 31  1  0
 31 32  1  6
  7  5  1  0
 31 10  1  0
 31 13  1  0
 27 15  1  0
 24 18  1  0
  1 33  1  0
  1 34  1  0
  1 35  1  0
  2 36  1  1
  3 37  1  0
  3 38  1  0
  4 39  1  0
  4 40  1  0
  5 41  1  1
  8 42  1  0
  8 43  1  0
  8 44  1  0
  9 45  1  0
  9 46  1  0
  9 47  1  0
 10 48  1  1
 11 49  1  0
 11 50  1  0
 12 51  1  0
 12 52  1  0
 14 53  1  0
 14 54  1  0
 14 55  1  0
 15 56  1  6
 16 57  1  0
 16 58  1  0
 17 59  1  0
 19 60  1  1
 20 61  1  0
 20 62  1  0
 21 63  1  0
 21 64  1  0
 22 65  1  1
 23 66  1  0
 25 67  1  0
 25 68  1  0
 25 69  1  0
 26 70  1  0
 26 71  1  0
 26 72  1  0
 28 73  1  0
 28 74  1  0
 28 75  1  0
 29 76  1  0
 29 77  1  0
 30 78  1  0
 30 79  1  0
 32 80  1  0
 32 81  1  0
 32 82  1  0
M  END
>  <meeko>  (2) 
{"is_sidechain": [false], "intermolecular_energy": 2.731, "internal_energy": -0.839}

$$$$
EPH_relaxed_0001_pdb2pqr_Repair_15_r2_0001_out
     RDKit          3D

 82 86  0  0  0  0  0  0  0  0999 V2000
    0.3790   18.4490   -0.0260 C   0  0  0  0  0  0  0  0  0  0  0  0
    1.4740   17.4020   -0.2490 C   0  0  2  0  0  0  0  0  0  0  0  0
    2.6820   17.9770   -1.0140 C   0  0  0  0  0  0  0  0  0  0  0  0
    3.9210   18.1890   -0.1400 C   0  0  0  0  0  0  0  0  0  0  0  0
    3.5550   18.6640    1.2340 C   0  0  2  0  0  0  0  0  0  0  0  0
    3.8060   20.0550    1.4730 O   0  0  0  0  0  0  0  0  0  0  0  0
    4.5750   19.1290    2.2570 C   0  0  0  0  0  0  0  0  0  0  0  0
    6.0390   19.1390    1.9500 C   0  0  0  0  0  0  0  0  0  0  0  0
    4.1960   19.1060    3.7050 C   0  0  0  0  0  0  0  0  0  0  0  0
    0.9020   16.2050   -1.0010 C   0  0  1  0  0  0  0  0  0  0  0  0
    0.7460   16.4750   -2.5210 C   0  0  0  0  0  0  0  0  0  0  0  0
    1.0400   15.1360   -3.2450 C   0  0  0  0  0  0  0  0  0  0  0  0
    1.0290   14.0740   -2.1210 C   0  0  1  0  0  0  0  0  0  0  0  0
   -0.4810   13.7580   -1.8830 C   0  0  0  0  0  0  0  0  0  0  0  0
    1.8550   12.7740   -2.3900 C   0  0  2  0  0  0  0  0  0  0  0  0
    1.3760   11.9320   -3.5860 C   0  0  0  0  0  0  0  0  0  0  0  0
    0.3630   10.8850   -3.2640 C   0  0  0  0  0  0  0  0  0  0  0  0
    0.0660   10.4370   -2.0300 C   0  0  0  0  0  0  0  0  0  0  0  0
    0.8510   10.9250   -0.8050 C   0  0  1  0  0  0  0  0  0  0  0  0
    1.2360    9.7100    0.0800 C   0  0  0  0  0  0  0  0  0  0  0  0
    0.0300    8.8580    0.4620 C   0  0  0  0  0  0  0  0  0  0  0  0
   -0.6900    8.3440   -0.7820 C   0  0  2  0  0  0  0  0  0  0  0  0
    0.1680    7.4240   -1.4640 O   0  0  0  0  0  0  0  0  0  0  0  0
   -1.1190    9.4780   -1.7550 C   0  0  0  0  0  0  0  0  0  0  0  0
   -2.2710   10.2980   -1.1240 C   0  0  0  0  0  0  0  0  0  0  0  0
   -1.7050    8.8160   -3.0310 C   0  0  0  0  0  0  0  0  0  0  0  0
    2.0870   11.8760   -1.1080 C   0  0  1  0  0  0  0  0  0  0  0  0
    3.3610   11.0210   -1.3880 C   0  0  0  0  0  0  0  0  0  0  0  0
    2.4020   12.7340    0.1740 C   0  0  0  0  0  0  0  0  0  0  0  0
    1.6410   14.0650    0.3230 C   0  0  0  0  0  0  0  0  0  0  0  0
    1.7180   14.8880   -0.9660 C   0  0  2  0  0  0  0  0  0  0  0  0
    3.2230   15.2400   -1.2200 C   0  0  0  0  0  0  0  0  0  0  0  0
    0.2260   18.5953    1.0534 H   0  0  0  0  0  0  0  0  0  0  0  0
    0.6829   19.4010   -0.4856 H   0  0  0  0  0  0  0  0  0  0  0  0
   -0.5585   18.1027   -0.4856 H   0  0  0  0  0  0  0  0  0  0  0  0
    1.8332   17.0832    0.7406 H   0  0  0  0  0  0  0  0  0  0  0  0
    2.9436   17.2801   -1.8239 H   0  0  0  0  0  0  0  0  0  0  0  0
    2.3821   18.9659   -1.3910 H   0  0  0  0  0  0  0  0  0  0  0  0
    4.4646   17.2365   -0.0550 H   0  0  0  0  0  0  0  0  0  0  0  0
    4.5474   18.9592   -0.6138 H   0  0  0  0  0  0  0  0  0  0  0  0
    2.7302   17.9385    1.2912 H   0  0  0  0  0  0  0  0  0  0  0  0
    6.6107   19.1429    2.8898 H   0  0  0  0  0  0  0  0  0  0  0  0
    6.2976   18.2426    1.3672 H   0  0  0  0  0  0  0  0  0  0  0  0
    6.2853   20.0388    1.3672 H   0  0  0  0  0  0  0  0  0  0  0  0
    5.1045   19.1611    4.3227 H   0  0  0  0  0  0  0  0  0  0  0  0
    3.5481   19.9665    3.9282 H   0  0  0  0  0  0  0  0  0  0  0  0
    3.6569   18.1735    3.9282 H   0  0  0  0  0  0  0  0  0  0  0  0
   -0.0434   16.0762   -0.4536 H   0  0  0  0  0  0  0  0  0  0  0  0
   -0.2782   16.8090   -2.7433 H   0  0  0  0  0  0  0  0  0  0  0  0
    1.4353   17.2645   -2.8549 H   0  0  0  0  0  0  0  0  0  0  0  0
    0.2618   14.9193   -3.9916 H   0  0  0  0  0  0  0  0  0  0  0  0
    1.9956   15.1573   -3.7894 H   0  0  0  0  0  0  0  0  0  0  0  0
   -0.6809   13.7162   -0.8021 H   0  0  0  0  0  0  0  0  0  0  0  0
   -1.0971   14.5467   -2.3396 H   0  0  0  0  0  0  0  0  0  0  0  0
   -0.7291   12.7885   -2.3396 H   0  0  0  0  0  0  0  0  0  0  0  0
    2.8370   13.1753   -2.6808 H   0  0  0  0  0  0  0  0  0  0  0  0
    0.9352   12.6147   -4.3273 H   0  0  0  0  0  0  0  0  0  0  0  0
    2.2624   11.3945   -3.9539 H   0  0  0  0  0  0  0  0  0  0  0  0
   -0.1879   10.4416   -4.1066 H   0  0  0  0  0  0  0  0  0  0  0  0
    0.1708   11.5891   -0.2516 H   0  0  0  0  0  0  0  0  0  0  0  0
    1.9496    9.0824   -0.4741 H   0  0  0  0  0  0  0  0  0  0  0  0
    1.6762   10.1005    1.0093 H   0  0  0  0  0  0  0  0  0  0  0  0
    0.3701    8.0006    1.0613 H   0  0  0  0  0  0  0  0  0  0  0  0
   -0.6693    9.4786    1.0415 H   0  0  0  0  0  0  0  0  0  0  0  0
   -1.6151    7.8517   -0.4475 H   0  0  0  0  0  0  0  0  0  0  0  0
    1.0600    7.5220   -1.0910 H   0  0  0  0  0  0  0  0  0  0  0  0
   -2.1995   10.2471   -0.0275 H   0  0  0  0  0  0  0  0  0  0  0  0
   -2.1951   11.3464   -1.4481 H   0  0  0  0  0  0  0  0  0  0  0  0
   -3.2368    9.8830   -1.4481 H   0  0  0  0  0  0  0  0  0  0  0  0
   -2.4084    8.0213   -2.7417 H   0  0  0  0  0  0  0  0  0  0  0  0
   -2.2334    9.5741   -3.6277 H   0  0  0  0  0  0  0  0  0  0  0  0
   -0.8884    8.3835   -3.6277 H   0  0  0  0  0  0  0  0  0  0  0  0
    3.8151   10.7162   -0.4336 H   0  0  0  0  0  0  0  0  0  0  0  0
    3.0827   10.1261   -1.9639 H   0  0  0  0  0  0  0  0  0  0  0  0
    4.0837   11.6176   -1.9639 H   0  0  0  0  0  0  0  0  0  0  0  0
    2.1677   12.1164    1.0536 H   0  0  0  0  0  0  0  0  0  0  0  0
    3.4607   13.0168    0.0781 H   0  0  0  0  0  0  0  0  0  0  0  0
    0.5862   13.8527    0.5518 H   0  0  0  0  0  0  0  0  0  0  0  0
    2.1027   14.6437    1.1366 H   0  0  0  0  0  0  0  0  0  0  0  0
    3.7391   15.3607   -0.2561 H   0  0  0  0  0  0  0  0  0  0  0  0
    3.6980   14.4287   -1.7911 H   0  0  0  0  0  0  0  0  0  0  0  0
    3.2889   16.1778   -1.7911 H   0  0  0  0  0  0  0  0  0  0  0  0
  1  2  1  0
  2  3  1  0
  3  4  1  0
  4  5  1  0
  5  6  1  0
  6  7  1  0
  7  8  1  0
  7  9  1  0
  2 10  1  0
 10 11  1  0
 11 12  1  0
 12 13  1  0
 13 14  1  1
 13 15  1  0
 15 16  1  0
 16 17  1  0
 17 18  2  0
 18 19  1  0
 19 20  1  0
 20 21  1  0
 21 22  1  0
 22 23  1  0
 22 24  1  0
 24 25  1  0
 24 26  1  0
 19 27  1  0
 27 28  1  6
 27 29  1  0
 29 30  1  0
 30 31  1  0
 31 32  1  6
  7  5  1  0
 31 10  1  0
 31 13  1  0
 27 15  1  0
 24 18  1  0
  1 33  1  0
  1 34  1  0
  1 35  1  0
  2 36  1  1
  3 37  1  0
  3 38  1  0
  4 39  1  0
  4 40  1  0
  5 41  1  1
  8 42  1  0
  8 43  1  0
  8 44  1  0
  9 45  1  0
  9 46  1  0
  9 47  1  0
 10 48  1  1
 11 49  1  0
 11 50  1  0
 12 51  1  0
 12 52  1  0
 14 53  1  0
 14 54  1  0
 14 55  1  0
 15 56  1  6
 16 57  1  0
 16 58  1  0
 17 59  1  0
 19 60  1  1
 20 61  1  0
 20 62  1  0
 21 63  1  0
 21 64  1  0
 22 65  1  1
 23 66  1  0
 25 67  1  0
 25 68  1  0
 25 69  1  0
 26 70  1  0
 26 71  1  0
 26 72  1  0
 28 73  1  0
 28 74  1  0
 28 75  1  0
 29 76  1  0
 29 77  1  0
 30 78  1  0
 30 79  1  0
 32 80  1  0
 32 81  1  0
 32 82  1  0
M  END
>  <meeko>  (3) 
{"is_sidechain": [false], "intermolecular_energy": 2.731, "internal_energy": -0.839}

$$$$
EPH_relaxed_0001_pdb2pqr_Repair_15_r2_0001_out
     RDKit          3D

 82 86  0  0  0  0  0  0  0  0999 V2000
    2.3480   18.0070   -2.6350 C   0  0  0  0  0  0  0  0  0  0  0  0
    1.0280   17.6430   -1.9500 C   0  0  2  0  0  0  0  0  0  0  0  0
    1.1360   17.7010   -0.4130 C   0  0  0  0  0  0  0  0  0  0  0  0
    0.7900   19.0710    0.1760 C   0  0  0  0  0  0  0  0  0  0  0  0
   -0.6630   19.1710    0.5310 C   0  0  2  0  0  0  0  0  0  0  0  0
   -1.5170   18.2680   -0.1830 O   0  0  0  0  0  0  0  0  0  0  0  0
   -1.7270   19.6680   -0.4300 C   0  0  0  0  0  0  0  0  0  0  0  0
   -1.3820   20.0990   -1.8210 C   0  0  0  0  0  0  0  0  0  0  0  0
   -3.0100   20.1940    0.1330 C   0  0  0  0  0  0  0  0  0  0  0  0
    0.5810   16.2530   -2.3890 C   0  0  1  0  0  0  0  0  0  0  0  0
    0.6100   16.0750   -3.9300 C   0  0  0  0  0  0  0  0  0  0  0  0
    1.0220   14.6050   -4.2030 C   0  0  0  0  0  0  0  0  0  0  0  0
    0.8930   13.9030   -2.8310 C   0  0  1  0  0  0  0  0  0  0  0  0
   -0.6280   13.5820   -2.6850 C   0  0  0  0  0  0  0  0  0  0  0  0
    1.7740   12.6290   -2.6220 C   0  0  2  0  0  0  0  0  0  0  0  0
    1.4670   11.4590   -3.5740 C   0  0  0  0  0  0  0  0  0  0  0  0
    0.4440   10.4890   -3.0830 C   0  0  0  0  0  0  0  0  0  0  0  0
    0.0050   10.3900   -1.8140 C   0  0  0  0  0  0  0  0  0  0  0  0
    0.6200   11.2460   -0.6990 C   0  0  1  0  0  0  0  0  0  0  0  0
    0.9180   10.3530    0.5340 C   0  0  0  0  0  0  0  0  0  0  0  0
   -0.3080    9.5760    1.0040 C   0  0  0  0  0  0  0  0  0  0  0  0
   -0.8550    8.6930   -0.1150 C   0  0  2  0  0  0  0  0  0  0  0  0
    0.1010    7.6680   -0.4030 O   0  0  0  0  0  0  0  0  0  0  0  0
   -1.1830    9.4820   -1.4130 C   0  0  0  0  0  0  0  0  0  0  0  0
   -2.4230   10.3800   -1.1780 C   0  0  0  0  0  0  0  0  0  0  0  0
   -1.5910    8.4560   -2.5050 C   0  0  0  0  0  0  0  0  0  0  0  0
    1.8640   12.1420   -1.1190 C   0  0  1  0  0  0  0  0  0  0  0  0
    3.1810   11.3160   -0.9960 C   0  0  0  0  0  0  0  0  0  0  0  0
    1.9970   13.3420   -0.1080 C   0  0  0  0  0  0  0  0  0  0  0  0
    1.1950   14.6170   -0.4330 C   0  0  0  0  0  0  0  0  0  0  0  0
    1.4140   15.0470   -1.8870 C   0  0  2  0  0  0  0  0  0  0  0  0
    2.9320   15.3980   -2.0580 C   0  0  0  0  0  0  0  0  0  0  0  0
    3.1114   18.2175   -1.8715 H   0  0  0  0  0  0  0  0  0  0  0  0
    2.6792   17.1667   -3.2628 H   0  0  0  0  0  0  0  0  0  0  0  0
    2.2017   18.8983   -3.2628 H   0  0  0  0  0  0  0  0  0  0  0  0
    0.2794   18.3885   -2.2564 H   0  0  0  0  0  0  0  0  0  0  0  0
    0.4473   16.9561    0.0121 H   0  0  0  0  0  0  0  0  0  0  0  0
    2.1858   17.4960   -0.1561 H   0  0  0  0  0  0  0  0  0  0  0  0
    1.3905   19.2308    1.0837 H   0  0  0  0  0  0  0  0  0  0  0  0
    1.0111   19.8362   -0.5827 H   0  0  0  0  0  0  0  0  0  0  0  0
   -0.4152   19.4502    1.5657 H   0  0  0  0  0  0  0  0  0  0  0  0
   -0.6951   20.9571   -1.7792 H   0  0  0  0  0  0  0  0  0  0  0  0
   -0.8975   19.2671   -2.3531 H   0  0  0  0  0  0  0  0  0  0  0  0
   -2.2998   20.3896   -2.3531 H   0  0  0  0  0  0  0  0  0  0  0  0
   -2.9634   20.1749    1.2318 H   0  0  0  0  0  0  0  0  0  0  0  0
   -3.1641   21.2279   -0.2095 H   0  0  0  0  0  0  0  0  0  0  0  0
   -3.8455   19.5659   -0.2095 H   0  0  0  0  0  0  0  0  0  0  0  0
   -0.4224   16.2311   -1.9387 H   0  0  0  0  0  0  0  0  0  0  0  0
   -0.3857   16.2741   -4.3531 H   0  0  0  0  0  0  0  0  0  0  0  0
    1.3181   16.7765   -4.3953 H   0  0  0  0  0  0  0  0  0  0  0  0
    0.3487   14.1434   -4.9403 H   0  0  0  0  0  0  0  0  0  0  0  0
    2.0376   14.5264   -4.6181 H   0  0  0  0  0  0  0  0  0  0  0  0
   -0.8903   13.5266   -1.6182 H   0  0  0  0  0  0  0  0  0  0  0  0
   -1.2181   14.3754   -3.1670 H   0  0  0  0  0  0  0  0  0  0  0  0
   -0.8472   12.6178   -3.1670 H   0  0  0  0  0  0  0  0  0  0  0  0
    2.7755   12.9874   -2.9022 H   0  0  0  0  0  0  0  0  0  0  0  0
    1.1078   11.8797   -4.5248 H   0  0  0  0  0  0  0  0  0  0  0  0
    2.4039   10.8907   -3.6698 H   0  0  0  0  0  0  0  0  0  0  0  0
    0.0122    9.7964   -3.8205 H   0  0  0  0  0  0  0  0  0  0  0  0
   -0.1386   11.9993   -0.4398 H   0  0  0  0  0  0  0  0  0  0  0  0
    1.7087    9.6363    0.2674 H   0  0  0  0  0  0  0  0  0  0  0  0
    1.2303   11.0132    1.3566 H   0  0  0  0  0  0  0  0  0  0  0  0
   -0.0272    8.9424    1.8582 H   0  0  0  0  0  0  0  0  0  0  0  0
   -1.0877   10.2940    1.2983 H   0  0  0  0  0  0  0  0  0  0  0  0
   -1.8037    8.2628    0.2383 H   0  0  0  0  0  0  0  0  0  0  0  0
    0.9870    8.0590   -0.3130 H   0  0  0  0  0  0  0  0  0  0  0  0
   -2.5891   10.5003   -0.0973 H   0  0  0  0  0  0  0  0  0  0  0  0
   -2.2535   11.3661   -1.6349 H   0  0  0  0  0  0  0  0  0  0  0  0
   -3.3071    9.9113   -1.6349 H   0  0  0  0  0  0  0  0  0  0  0  0
   -1.9568    7.5361   -2.0255 H   0  0  0  0  0  0  0  0  0  0  0  0
   -2.3872    8.8845   -3.1315 H   0  0  0  0  0  0  0  0  0  0  0  0
   -0.7180    8.2207   -3.1315 H   0  0  0  0  0  0  0  0  0  0  0  0
    3.4214   11.1653    0.0668 H   0  0  0  0  0  0  0  0  0  0  0  0
    3.0481   10.3392   -1.4840 H   0  0  0  0  0  0  0  0  0  0  0  0
    4.0025   11.8609   -1.4840 H   0  0  0  0  0  0  0  0  0  0  0  0
    1.6673   12.9840    0.8785 H   0  0  0  0  0  0  0  0  0  0  0  0
    3.0530   13.6456   -0.1592 H   0  0  0  0  0  0  0  0  0  0  0  0
    0.1247   14.4193   -0.2736 H   0  0  0  0  0  0  0  0  0  0  0  0
    1.5398   15.4261    0.2277 H   0  0  0  0  0  0  0  0  0  0  0  0
    3.3973   15.5056   -1.0671 H   0  0  0  0  0  0  0  0  0  0  0  0
    3.4343   14.5923   -2.6135 H   0  0  0  0  0  0  0  0  0  0  0  0
    3.0297   16.3424   -2.6135 H   0  0  0  0  0  0  0  0  0  0  0  0
  1  2  1  0
  2  3  1  0
  3  4  1  0
  4  5  1  0
  5  6  1  0
  6  7  1  0
  7  8  1  0
  7  9  1  0
  2 10  1  0
 10 11  1  0
 11 12  1  0
 12 13  1  0
 13 14  1  1
 13 15  1  0
 15 16  1  0
 16 17  1  0
 17 18  2  0
 18 19  1  0
 19 20  1  0
 20 21  1  0
 21 22  1  0
 22 23  1  0
 22 24  1  0
 24 25  1  0
 24 26  1  0
 19 27  1  0
 27 28  1  6
 27 29  1  0
 29 30  1  0
 30 31  1  0
 31 32  1  1
  7  5  1  0
 31 10  1  0
 31 13  1  0
 27 15  1  0
 24 18  1  0
  1 33  1  0
  1 34  1  0
  1 35  1  0
  2 36  1  6
  3 37  1  0
  3 38  1  0
  4 39  1  0
  4 40  1  0
  5 41  1  1
  8 42  1  0
  8 43  1  0
  8 44  1  0
  9 45  1  0
  9 46  1  0
  9 47  1  0
 10 48  1  1
 11 49  1  0
 11 50  1  0
 12 51  1  0
 12 52  1  0
 14 53  1  0
 14 54  1  0
 14 55  1  0
 15 56  1  6
 16 57  1  0
 16 58  1  0
 17 59  1  0
 19 60  1  1
 20 61  1  0
 20 62  1  0
 21 63  1  0
 21 64  1  0
 22 65  1  1
 23 66  1  0
 25 67  1  0
 25 68  1  0
 25 69  1  0
 26 70  1  0
 26 71  1  0
 26 72  1  0
 28 73  1  0
 28 74  1  0
 28 75  1  0
 29 76  1  0
 29 77  1  0
 30 78  1  0
 30 79  1  0
 32 80  1  0
 32 81  1  0
 32 82  1  0
M  END
>  <meeko>  (4) 
{"is_sidechain": [false], "intermolecular_energy": 2.731, "internal_energy": -0.839}

$$$$
EPH_relaxed_0001_pdb2pqr_Repair_15_r2_0001_out
     RDKit          3D

 82 86  0  0  0  0  0  0  0  0999 V2000
   -3.5020    9.3450    0.2940 C   0  0  0  0  0  0  0  0  0  0  0  0
   -2.5870    9.6710   -0.8890 C   0  0  2  0  0  0  0  0  0  0  0  0
   -1.8910    8.4140   -1.4480 C   0  0  0  0  0  0  0  0  0  0  0  0
   -2.7870    7.5640   -2.3520 C   0  0  0  0  0  0  0  0  0  0  0  0
   -4.2260    7.6440   -1.9400 C   0  0  2  0  0  0  0  0  0  0  0  0
   -4.7740    6.4180   -1.4380 O   0  0  0  0  0  0  0  0  0  0  0  0
   -5.3450    6.9150   -2.6600 C   0  0  0  0  0  0  0  0  0  0  0  0
   -5.0730    6.0530   -3.8530 C   0  0  0  0  0  0  0  0  0  0  0  0
   -6.7440    7.4240   -2.5090 C   0  0  0  0  0  0  0  0  0  0  0  0
   -1.5460   10.7020   -0.4720 C   0  0  1  0  0  0  0  0  0  0  0  0
   -0.4790   10.1180    0.4920 C   0  0  0  0  0  0  0  0  0  0  0  0
    0.8620   10.8180    0.1530 C   0  0  0  0  0  0  0  0  0  0  0  0
    0.4630   12.0060   -0.7530 C   0  0  1  0  0  0  0  0  0  0  0  0
   -0.0140   13.1190    0.2310 C   0  0  0  0  0  0  0  0  0  0  0  0
    1.5670   12.5320   -1.7280 C   0  0  2  0  0  0  0  0  0  0  0  0
    2.8230   13.1000   -1.0460 C   0  0  0  0  0  0  0  0  0  0  0  0
    2.7830   14.5630   -0.7500 C   0  0  0  0  0  0  0  0  0  0  0  0
    1.9080   15.4420   -1.2710 C   0  0  0  0  0  0  0  0  0  0  0  0
    0.8910   15.0060   -2.3340 C   0  0  1  0  0  0  0  0  0  0  0  0
    0.8780   16.0370   -3.4930 C   0  0  0  0  0  0  0  0  0  0  0  0
    0.6370   17.4620   -3.0050 C   0  0  0  0  0  0  0  0  0  0  0  0
    1.7010   17.8800   -1.9940 C   0  0  2  0  0  0  0  0  0  0  0  0
    2.9640   17.9640   -2.6620 O   0  0  0  0  0  0  0  0  0  0  0  0
    1.8130   16.9090   -0.7850 C   0  0  0  0  0  0  0  0  0  0  0  0
    0.5560   17.0450    0.1090 C   0  0  0  0  0  0  0  0  0  0  0  0
    3.0150   17.3660    0.0850 C   0  0  0  0  0  0  0  0  0  0  0  0
    1.0270   13.5090   -2.8510 C   0  0  1  0  0  0  0  0  0  0  0  0
    2.0500   13.4430   -4.0270 C   0  0  0  0  0  0  0  0  0  0  0  0
   -0.3560   13.0400   -3.4380 C   0  0  0  0  0  0  0  0  0  0  0  0
   -1.3570   12.4190   -2.4460 C   0  0  0  0  0  0  0  0  0  0  0  0
   -0.6860   11.3380   -1.5930 C   0  0  2  0  0  0  0  0  0  0  0  0
   -0.2150   10.1940   -2.5550 C   0  0  0  0  0  0  0  0  0  0  0  0
   -2.9661    9.5359    1.2355 H   0  0  0  0  0  0  0  0  0  0  0  0
   -4.4001    9.9785    0.2483 H   0  0  0  0  0  0  0  0  0  0  0  0
   -3.7973    8.2864    0.2483 H   0  0  0  0  0  0  0  0  0  0  0  0
   -3.2168   10.0832   -1.6912 H   0  0  0  0  0  0  0  0  0  0  0  0
   -1.0136    8.7329   -2.0298 H   0  0  0  0  0  0  0  0  0  0  0  0
   -1.6185    7.7877   -0.5857 H   0  0  0  0  0  0  0  0  0  0  0  0
   -2.6922    7.9233   -3.3873 H   0  0  0  0  0  0  0  0  0  0  0  0
   -2.4639    6.5159   -2.2672 H   0  0  0  0  0  0  0  0  0  0  0  0
   -4.1051    8.6948   -1.6380 H   0  0  0  0  0  0  0  0  0  0  0  0
   -4.7576    5.0535   -3.5189 H   0  0  0  0  0  0  0  0  0  0  0  0
   -5.9873    5.9657   -4.4584 H   0  0  0  0  0  0  0  0  0  0  0  0
   -4.2742    6.5063   -4.4584 H   0  0  0  0  0  0  0  0  0  0  0  0
   -6.9885    7.5129   -1.4402 H   0  0  0  0  0  0  0  0  0  0  0  0
   -6.8289    8.4106   -2.9879 H   0  0  0  0  0  0  0  0  0  0  0  0
   -7.4431    6.7226   -2.9879 H   0  0  0  0  0  0  0  0  0  0  0  0
   -2.2065   11.4611   -0.0277 H   0  0  0  0  0  0  0  0  0  0  0  0
   -0.7595   10.3222    1.5358 H   0  0  0  0  0  0  0  0  0  0  0  0
   -0.3957    9.0275    0.3745 H   0  0  0  0  0  0  0  0  0  0  0  0
    1.3555   11.1763    1.0685 H   0  0  0  0  0  0  0  0  0  0  0  0
    1.5746   10.1392   -0.3384 H   0  0  0  0  0  0  0  0  0  0  0  0
    0.1315   12.7794    1.2671 H   0  0  0  0  0  0  0  0  0  0  0  0
    0.5706   14.0349    0.0598 H   0  0  0  0  0  0  0  0  0  0  0  0
   -1.0804   13.3273    0.0598 H   0  0  0  0  0  0  0  0  0  0  0  0
    1.8930   11.6115   -2.2344 H   0  0  0  0  0  0  0  0  0  0  0  0
    2.9648   12.5649   -0.0955 H   0  0  0  0  0  0  0  0  0  0  0  0
    3.6474   12.9570   -1.7601 H   0  0  0  0  0  0  0  0  0  0  0  0
    3.5323   14.9551   -0.0465 H   0  0  0  0  0  0  0  0  0  0  0  0
   -0.0877   14.9967   -1.8319 H   0  0  0  0  0  0  0  0  0  0  0  0
    1.8490   16.0003   -4.0086 H   0  0  0  0  0  0  0  0  0  0  0  0
    0.0512   15.7706   -4.1678 H   0  0  0  0  0  0  0  0  0  0  0  0
    0.6688   18.1471   -3.8650 H   0  0  0  0  0  0  0  0  0  0  0  0
   -0.3474   17.5037   -2.5159 H   0  0  0  0  0  0  0  0  0  0  0  0
    1.4018   18.8564   -1.5852 H   0  0  0  0  0  0  0  0  0  0  0  0
    3.4920   17.1940   -2.3910 H   0  0  0  0  0  0  0  0  0  0  0  0
    0.8536   17.0128    1.1675 H   0  0  0  0  0  0  0  0  0  0  0  0
    0.0573   18.0023   -0.1027 H   0  0  0  0  0  0  0  0  0  0  0  0
   -0.1359   16.2165   -0.1027 H   0  0  0  0  0  0  0  0  0  0  0  0
    2.7557   17.2674    1.1494 H   0  0  0  0  0  0  0  0  0  0  0  0
    3.8897   16.7377   -0.1390 H   0  0  0  0  0  0  0  0  0  0  0  0
    3.2513   18.4167   -0.1390 H   0  0  0  0  0  0  0  0  0  0  0  0
    3.0706   13.3772   -3.6219 H   0  0  0  0  0  0  0  0  0  0  0  0
    1.8425   12.5564   -4.6441 H   0  0  0  0  0  0  0  0  0  0  0  0
    1.9582   14.3489   -4.6441 H   0  0  0  0  0  0  0  0  0  0  0  0
   -0.8391   13.9173   -3.8928 H   0  0  0  0  0  0  0  0  0  0  0  0
   -0.1103   12.2318   -4.1426 H   0  0  0  0  0  0  0  0  0  0  0  0
   -1.7458   13.2083   -1.7858 H   0  0  0  0  0  0  0  0  0  0  0  0
   -2.1754   11.9566   -3.0174 H   0  0  0  0  0  0  0  0  0  0  0  0
    0.1376    9.3377   -1.9614 H   0  0  0  0  0  0  0  0  0  0  0  0
   -1.0565    9.8787   -3.1894 H   0  0  0  0  0  0  0  0  0  0  0  0
    0.6045   10.5626   -3.1894 H   0  0  0  0  0  0  0  0  0  0  0  0
  1  2  1  0
  2  3  1  0
  3  4  1  0
  4  5  1  0
  5  6  1  0
  6  7  1  0
  7  8  1  0
  7  9  1  0
  2 10  1  0
 10 11  1  0
 11 12  1  0
 12 13  1  0
 13 14  1  1
 13 15  1  0
 15 16  1  0
 16 17  1  0
 17 18  2  0
 18 19  1  0
 19 20  1  0
 20 21  1  0
 21 22  1  0
 22 23  1  0
 22 24  1  0
 24 25  1  0
 24 26  1  0
 19 27  1  0
 27 28  1  6
 27 29  1  0
 29 30  1  0
 30 31  1  0
 31 32  1  6
  7  5  1  0
 31 10  1  0
 31 13  1  0
 27 15  1  0
 24 18  1  0
  1 33  1  0
  1 34  1  0
  1 35  1  0
  2 36  1  6
  3 37  1  0
  3 38  1  0
  4 39  1  0
  4 40  1  0
  5 41  1  1
  8 42  1  0
  8 43  1  0
  8 44  1  0
  9 45  1  0
  9 46  1  0
  9 47  1  0
 10 48  1  1
 11 49  1  0
 11 50  1  0
 12 51  1  0
 12 52  1  0
 14 53  1  0
 14 54  1  0
 14 55  1  0
 15 56  1  6
 16 57  1  0
 16 58  1  0
 17 59  1  0
 19 60  1  1
 20 61  1  0
 20 62  1  0
 21 63  1  0
 21 64  1  0
 22 65  1  1
 23 66  1  0
 25 67  1  0
 25 68  1  0
 25 69  1  0
 26 70  1  0
 26 71  1  0
 26 72  1  0
 28 73  1  0
 28 74  1  0
 28 75  1  0
 29 76  1  0
 29 77  1  0
 30 78  1  0
 30 79  1  0
 32 80  1  0
 32 81  1  0
 32 82  1  0
M  END
>  <meeko>  (5) 
{"is_sidechain": [false], "intermolecular_energy": 2.731, "internal_energy": -0.839}

$$$$
EPH_relaxed_0001_pdb2pqr_Repair_15_r2_0001_out
     RDKit          3D

 82 86  0  0  0  0  0  0  0  0999 V2000
    3.7690   17.8790    0.7270 C   0  0  0  0  0  0  0  0  0  0  0  0
    2.7620   18.3040   -0.3460 C   0  0  2  0  0  0  0  0  0  0  0  0
    2.0500   19.6220    0.0160 C   0  0  0  0  0  0  0  0  0  0  0  0
    0.8840   19.4440    0.9920 C   0  0  0  0  0  0  0  0  0  0  0  0
   -0.3760   20.0670    0.4710 C   0  0  2  0  0  0  0  0  0  0  0  0
   -1.4290   20.1850    1.4360 O   0  0  0  0  0  0  0  0  0  0  0  0
   -1.6840   19.3130    0.3230 C   0  0  0  0  0  0  0  0  0  0  0  0
   -1.7980   17.8680    0.6960 C   0  0  0  0  0  0  0  0  0  0  0  0
   -2.7090   19.8390   -0.6330 C   0  0  0  0  0  0  0  0  0  0  0  0
    1.7350   17.1990   -0.5620 C   0  0  1  0  0  0  0  0  0  0  0  0
    0.5320   17.6610   -1.4270 C   0  0  0  0  0  0  0  0  0  0  0  0
    0.0990   16.4400   -2.2790 C   0  0  0  0  0  0  0  0  0  0  0  0
    0.8380   15.2390   -1.6440 C   0  0  1  0  0  0  0  0  0  0  0  0
   -0.0290   14.8430   -0.4070 C   0  0  0  0  0  0  0  0  0  0  0  0
    1.1000   14.0150   -2.5810 C   0  0  2  0  0  0  0  0  0  0  0  0
   -0.1650   13.3240   -3.1200 C   0  0  0  0  0  0  0  0  0  0  0  0
   -0.6900   12.2090   -2.2770 C   0  0  0  0  0  0  0  0  0  0  0  0
   -0.0170   11.5920   -1.2880 C   0  0  0  0  0  0  0  0  0  0  0  0
    1.4490   11.9400   -0.9970 C   0  0  1  0  0  0  0  0  0  0  0  0
    2.2680   10.6330   -0.8310 C   0  0  0  0  0  0  0  0  0  0  0  0
    1.6710    9.6970    0.2160 C   0  0  0  0  0  0  0  0  0  0  0  0
    0.2330    9.3280   -0.1390 C   0  0  2  0  0  0  0  0  0  0  0  0
    0.2420    8.5360   -1.3310 O   0  0  0  0  0  0  0  0  0  0  0  0
   -0.6850   10.5650   -0.3410 C   0  0  0  0  0  0  0  0  0  0  0  0
   -0.9370   11.2540    1.0230 C   0  0  0  0  0  0  0  0  0  0  0  0
   -2.0680   10.0580   -0.8320 C   0  0  0  0  0  0  0  0  0  0  0  0
    2.1310   12.9640   -2.0020 C   0  0  1  0  0  0  0  0  0  0  0  0
    2.7200   12.1980   -3.2250 C   0  0  0  0  0  0  0  0  0  0  0  0
    3.3490   13.6560   -1.2830 C   0  0  0  0  0  0  0  0  0  0  0  0
    3.0450   14.9290   -0.4700 C   0  0  0  0  0  0  0  0  0  0  0  0
    2.2120   15.9170   -1.2910 C   0  0  2  0  0  0  0  0  0  0  0  0
    3.0660   16.3510   -2.5300 C   0  0  0  0  0  0  0  0  0  0  0  0
    3.3407   18.0598    1.7239 H   0  0  0  0  0  0  0  0  0  0  0  0
    3.9955   16.8085    0.6138 H   0  0  0  0  0  0  0  0  0  0  0  0
    4.6940   18.4635    0.6138 H   0  0  0  0  0  0  0  0  0  0  0  0
    3.3228   18.4767   -1.2764 H   0  0  0  0  0  0  0  0  0  0  0  0
    2.7856   20.2997    0.4738 H   0  0  0  0  0  0  0  0  0  0  0  0
    1.6296   20.0267   -0.9164 H   0  0  0  0  0  0  0  0  0  0  0  0
    0.7116   18.3690    1.1489 H   0  0  0  0  0  0  0  0  0  0  0  0
    1.1481   19.9431    1.9360 H   0  0  0  0  0  0  0  0  0  0  0  0
    0.1963   20.6951   -0.2275 H   0  0  0  0  0  0  0  0  0  0  0  0
   -1.8056   17.7717    1.7917 H   0  0  0  0  0  0  0  0  0  0  0  0
   -2.7315   17.4558    0.2852 H   0  0  0  0  0  0  0  0  0  0  0  0
   -0.9407   17.3145    0.2852 H   0  0  0  0  0  0  0  0  0  0  0  0
   -3.5493   20.2702   -0.0690 H   0  0  0  0  0  0  0  0  0  0  0  0
   -2.2554   20.6157   -1.2662 H   0  0  0  0  0  0  0  0  0  0  0  0
   -3.0755   19.0176   -1.2662 H   0  0  0  0  0  0  0  0  0  0  0  0
    1.4908   16.9677    0.4853 H   0  0  0  0  0  0  0  0  0  0  0  0
   -0.2970   17.9851   -0.7807 H   0  0  0  0  0  0  0  0  0  0  0  0
    0.8093   18.5113   -2.0674 H   0  0  0  0  0  0  0  0  0  0  0  0
   -0.9904   16.2971   -2.2271 H   0  0  0  0  0  0  0  0  0  0  0  0
    0.3456   16.5658   -3.3436 H   0  0  0  0  0  0  0  0  0  0  0  0
    0.5147   15.0913    0.5164 H   0  0  0  0  0  0  0  0  0  0  0  0
   -0.9793   15.3963   -0.4331 H   0  0  0  0  0  0  0  0  0  0  0  0
   -0.2331   13.7624   -0.4331 H   0  0  0  0  0  0  0  0  0  0  0  0
    1.5792   14.4838   -3.4532 H   0  0  0  0  0  0  0  0  0  0  0  0
   -0.9554   14.0837   -3.2098 H   0  0  0  0  0  0  0  0  0  0  0  0
    0.1211   12.8710   -4.0807 H   0  0  0  0  0  0  0  0  0  0  0  0
   -1.7137   11.8624   -2.4816 H   0  0  0  0  0  0  0  0  0  0  0  0
    1.4464   12.5016   -0.0512 H   0  0  0  0  0  0  0  0  0  0  0  0
    2.2954   10.1089   -1.7977 H   0  0  0  0  0  0  0  0  0  0  0  0
    3.2769   10.9120   -0.4928 H   0  0  0  0  0  0  0  0  0  0  0  0
    2.2762    8.7798    0.2659 H   0  0  0  0  0  0  0  0  0  0  0  0
    1.6717   10.2115    1.1882 H   0  0  0  0  0  0  0  0  0  0  0  0
   -0.1824    8.7649    0.7097 H   0  0  0  0  0  0  0  0  0  0  0  0
   -0.6220    8.0960   -1.3980 H   0  0  0  0  0  0  0  0  0  0  0  0
   -0.6829   10.5593    1.8372 H   0  0  0  0  0  0  0  0  0  0  0  0
   -0.3100   12.1545    1.1003 H   0  0  0  0  0  0  0  0  0  0  0  0
   -1.9970   11.5375    1.1003 H   0  0  0  0  0  0  0  0  0  0  0  0
   -2.7025    9.8254    0.0359 H   0  0  0  0  0  0  0  0  0  0  0  0
   -2.5498   10.8380   -1.4399 H   0  0  0  0  0  0  0  0  0  0  0  0
   -1.9315    9.1514   -1.4399 H   0  0  0  0  0  0  0  0  0  0  0  0
    3.3546   11.3727   -2.8698 H   0  0  0  0  0  0  0  0  0  0  0  0
    1.8985   11.7929   -3.8342 H   0  0  0  0  0  0  0  0  0  0  0  0
    3.3225   12.8878   -3.8342 H   0  0  0  0  0  0  0  0  0  0  0  0
    3.7913   12.9200   -0.5955 H   0  0  0  0  0  0  0  0  0  0  0  0
    4.0130   13.9857   -2.0956 H   0  0  0  0  0  0  0  0  0  0  0  0
    2.4857   14.6525    0.4360 H   0  0  0  0  0  0  0  0  0  0  0  0
    3.9972   15.4103   -0.2024 H   0  0  0  0  0  0  0  0  0  0  0  0
    3.9974   16.8243   -2.1857 H   0  0  0  0  0  0  0  0  0  0  0  0
    3.3071   15.4661   -3.1373 H   0  0  0  0  0  0  0  0  0  0  0  0
    2.4933   17.0674   -3.1373 H   0  0  0  0  0  0  0  0  0  0  0  0
  1  2  1  0
  2  3  1  0
  3  4  1  0
  4  5  1  0
  5  6  1  0
  6  7  1  0
  7  8  1  0
  7  9  1  0
  2 10  1  0
 10 11  1  0
 11 12  1  0
 12 13  1  0
 13 14  1  1
 13 15  1  0
 15 16  1  0
 16 17  1  0
 17 18  2  0
 18 19  1  0
 19 20  1  0
 20 21  1  0
 21 22  1  0
 22 23  1  0
 22 24  1  0
 24 25  1  0
 24 26  1  0
 19 27  1  0
 27 28  1  6
 27 29  1  0
 29 30  1  0
 30 31  1  0
 31 32  1  6
  7  5  1  0
 31 10  1  0
 31 13  1  0
 27 15  1  0
 24 18  1  0
  1 33  1  0
  1 34  1  0
  1 35  1  0
  2 36  1  6
  3 37  1  0
  3 38  1  0
  4 39  1  0
  4 40  1  0
  5 41  1  6
  8 42  1  0
  8 43  1  0
  8 44  1  0
  9 45  1  0
  9 46  1  0
  9 47  1  0
 10 48  1  1
 11 49  1  0
 11 50  1  0
 12 51  1  0
 12 52  1  0
 14 53  1  0
 14 54  1  0
 14 55  1  0
 15 56  1  6
 16 57  1  0
 16 58  1  0
 17 59  1  0
 19 60  1  1
 20 61  1  0
 20 62  1  0
 21 63  1  0
 21 64  1  0
 22 65  1  1
 23 66  1  0
 25 67  1  0
 25 68  1  0
 25 69  1  0
 26 70  1  0
 26 71  1  0
 26 72  1  0
 28 73  1  0
 28 74  1  0
 28 75  1  0
 29 76  1  0
 29 77  1  0
 30 78  1  0
 30 79  1  0
 32 80  1  0
 32 81  1  0
 32 82  1  0
M  END
>  <meeko>  (6) 
{"is_sidechain": [false], "intermolecular_energy": 2.731, "internal_energy": -0.839}

$$$$
EPH_relaxed_0001_pdb2pqr_Repair_15_r2_0001_out
     RDKit          3D

 82 86  0  0  0  0  0  0  0  0999 V2000
   -5.1400    5.8980   -1.6520 C   0  0  0  0  0  0  0  0  0  0  0  0
   -5.4330    7.3980   -1.7480 C   0  0  2  0  0  0  0  0  0  0  0  0
   -5.2070    8.1220   -0.4060 C   0  0  0  0  0  0  0  0  0  0  0  0
   -4.1530    9.2300   -0.4730 C   0  0  0  0  0  0  0  0  0  0  0  0
   -2.8250    8.7050   -0.9310 C   0  0  2  0  0  0  0  0  0  0  0  0
   -1.7490    8.9140   -0.0070 O   0  0  0  0  0  0  0  0  0  0  0  0
   -1.6440    9.5960   -1.2670 C   0  0  0  0  0  0  0  0  0  0  0  0
   -1.7360   11.0860   -1.1620 C   0  0  0  0  0  0  0  0  0  0  0  0
   -0.5710    9.0540   -2.1590 C   0  0  0  0  0  0  0  0  0  0  0  0
   -6.8640    7.6180   -2.2240 C   0  0  1  0  0  0  0  0  0  0  0  0
   -7.1560    6.9250   -3.5820 C   0  0  0  0  0  0  0  0  0  0  0  0
   -8.6290    6.4440   -3.5310 C   0  0  0  0  0  0  0  0  0  0  0  0
   -9.2300    7.1590   -2.2990 C   0  0  1  0  0  0  0  0  0  0  0  0
   -9.5840    8.5940   -2.8010 C   0  0  0  0  0  0  0  0  0  0  0  0
  -10.4590    6.4630   -1.6280 C   0  0  2  0  0  0  0  0  0  0  0  0
  -11.7040    6.3330   -2.5220 C   0  0  0  0  0  0  0  0  0  0  0  0
  -12.6650    7.4730   -2.4470 C   0  0  0  0  0  0  0  0  0  0  0  0
  -12.6820    8.4200   -1.4900 C   0  0  0  0  0  0  0  0  0  0  0  0
  -11.7280    8.3450   -0.2910 C   0  0  1  0  0  0  0  0  0  0  0  0
  -12.5170    8.6160    1.0170 C   0  0  0  0  0  0  0  0  0  0  0  0
  -13.2930    9.9290    0.9700 C   0  0  0  0  0  0  0  0  0  0  0  0
  -14.2730    9.9420   -0.2010 C   0  0  2  0  0  0  0  0  0  0  0  0
  -15.2870    8.9610    0.0360 O   0  0  0  0  0  0  0  0  0  0  0  0
  -13.5930    9.6700   -1.5720 C   0  0  0  0  0  0  0  0  0  0  0  0
  -12.7170   10.8840   -1.9690 C   0  0  0  0  0  0  0  0  0  0  0  0
  -14.7080    9.5690   -2.6470 C   0  0  0  0  0  0  0  0  0  0  0  0
  -10.8290    7.0370   -0.2000 C   0  0  1  0  0  0  0  0  0  0  0  0
  -11.6050    5.9090    0.5460 C   0  0  0  0  0  0  0  0  0  0  0  0
   -9.5540    7.3490    0.6690 C   0  0  0  0  0  0  0  0  0  0  0  0
   -8.3320    7.9230   -0.0730 C   0  0  0  0  0  0  0  0  0  0  0  0
   -8.0040    7.0920   -1.3170 C   0  0  2  0  0  0  0  0  0  0  0  0
   -7.6230    5.6490   -0.8420 C   0  0  0  0  0  0  0  0  0  0  0  0
   -5.0823    5.6027   -0.5940 H   0  0  0  0  0  0  0  0  0  0  0  0
   -5.9451    5.3348   -2.1465 H   0  0  0  0  0  0  0  0  0  0  0  0
   -4.1821    5.6791   -2.1465 H   0  0  0  0  0  0  0  0  0  0  0  0
   -4.7284    7.8265   -2.4760 H   0  0  0  0  0  0  0  0  0  0  0  0
   -6.1605    8.5688   -0.0879 H   0  0  0  0  0  0  0  0  0  0  0  0
   -4.8369    7.3697    0.3061 H   0  0  0  0  0  0  0  0  0  0  0  0
   -4.4929   10.0033   -1.1776 H   0  0  0  0  0  0  0  0  0  0  0  0
   -4.0275    9.6456    0.5377 H   0  0  0  0  0  0  0  0  0  0  0  0
   -3.3114    7.8863   -1.4816 H   0  0  0  0  0  0  0  0  0  0  0  0
   -1.7541   11.3784   -0.1017 H   0  0  0  0  0  0  0  0  0  0  0  0
   -0.8643   11.5427   -1.6535 H   0  0  0  0  0  0  0  0  0  0  0  0
   -2.6572   11.4320   -1.6535 H   0  0  0  0  0  0  0  0  0  0  0  0
    0.2434    8.6426   -1.5446 H   0  0  0  0  0  0  0  0  0  0  0  0
   -0.9889    8.2589   -2.7939 H   0  0  0  0  0  0  0  0  0  0  0  0
   -0.1790    9.8622   -2.7939 H   0  0  0  0  0  0  0  0  0  0  0  0
   -6.8815    8.7175   -2.2513 H   0  0  0  0  0  0  0  0  0  0  0  0
   -7.0187    7.6379   -4.4084 H   0  0  0  0  0  0  0  0  0  0  0  0
   -6.4706    6.0813   -3.7503 H   0  0  0  0  0  0  0  0  0  0  0  0
   -9.1641    6.7336   -4.4474 H   0  0  0  0  0  0  0  0  0  0  0  0
   -8.7082    5.3493   -3.4579 H   0  0  0  0  0  0  0  0  0  0  0  0
   -9.7470    9.2549   -1.9369 H   0  0  0  0  0  0  0  0  0  0  0  0
   -8.7552    8.9843   -3.4099 H   0  0  0  0  0  0  0  0  0  0  0  0
  -10.4992    8.5541   -3.4099 H   0  0  0  0  0  0  0  0  0  0  0  0
  -10.0941    5.4367   -1.4745 H   0  0  0  0  0  0  0  0  0  0  0  0
  -11.3656    6.2418   -3.5647 H   0  0  0  0  0  0  0  0  0  0  0  0
  -12.2498    5.4505   -2.1570 H   0  0  0  0  0  0  0  0  0  0  0  0
  -13.4232    7.5454   -3.2406 H   0  0  0  0  0  0  0  0  0  0  0  0
  -10.9811    9.1371   -0.4480 H   0  0  0  0  0  0  0  0  0  0  0  0
  -13.2276    7.7918    1.1775 H   0  0  0  0  0  0  0  0  0  0  0  0
  -11.7885    8.6876    1.8380 H   0  0  0  0  0  0  0  0  0  0  0  0
  -13.8527   10.0502    1.9092 H   0  0  0  0  0  0  0  0  0  0  0  0
  -12.5783   10.7548    0.8389 H   0  0  0  0  0  0  0  0  0  0  0  0
  -14.7037   10.9525   -0.2597 H   0  0  0  0  0  0  0  0  0  0  0  0
  -14.9690    8.1160   -0.3230 H   0  0  0  0  0  0  0  0  0  0  0  0
  -12.3541   11.3870   -1.0605 H   0  0  0  0  0  0  0  0  0  0  0  0
  -11.8591   10.5381   -2.5642 H   0  0  0  0  0  0  0  0  0  0  0  0
  -13.3157   11.5892   -2.5642 H   0  0  0  0  0  0  0  0  0  0  0  0
  -15.6868    9.4803   -2.1529 H   0  0  0  0  0  0  0  0  0  0  0  0
  -14.6947   10.4720   -3.2750 H   0  0  0  0  0  0  0  0  0  0  0  0
  -14.5327    8.6831   -3.2750 H   0  0  0  0  0  0  0  0  0  0  0  0
  -11.5063    6.0525    1.6321 H   0  0  0  0  0  0  0  0  0  0  0  0
  -12.6681    5.9484    0.2661 H   0  0  0  0  0  0  0  0  0  0  0  0
  -11.1881    4.9303    0.2661 H   0  0  0  0  0  0  0  0  0  0  0  0
   -9.8468    8.0763    1.4406 H   0  0  0  0  0  0  0  0  0  0  0  0
   -9.2239    6.3740    1.0567 H   0  0  0  0  0  0  0  0  0  0  0  0
   -8.5499    8.9570   -0.3785 H   0  0  0  0  0  0  0  0  0  0  0  0
   -7.4661    7.8953    0.6048 H   0  0  0  0  0  0  0  0  0  0  0  0
   -7.6141    5.6153    0.2574 H   0  0  0  0  0  0  0  0  0  0  0  0
   -8.3620    4.9298   -1.2249 H   0  0  0  0  0  0  0  0  0  0  0  0
   -6.6253    5.3884   -1.2249 H   0  0  0  0  0  0  0  0  0  0  0  0
  1  2  1  0
  2  3  1  0
  3  4  1  0
  4  5  1  0
  5  6  1  0
  6  7  1  0
  7  8  1  0
  7  9  1  0
  2 10  1  0
 10 11  1  0
 11 12  1  0
 12 13  1  0
 13 14  1  6
 13 15  1  0
 15 16  1  0
 16 17  1  0
 17 18  2  0
 18 19  1  0
 19 20  1  0
 20 21  1  0
 21 22  1  0
 22 23  1  0
 22 24  1  0
 24 25  1  0
 24 26  1  0
 19 27  1  0
 27 28  1  1
 27 29  1  0
 29 30  1  0
 30 31  1  0
 31 32  1  1
  7  5  1  0
 31 10  1  0
 31 13  1  0
 27 15  1  0
 24 18  1  0
  1 33  1  0
  1 34  1  0
  1 35  1  0
  2 36  1  6
  3 37  1  0
  3 38  1  0
  4 39  1  0
  4 40  1  0
  5 41  1  6
  8 42  1  0
  8 43  1  0
  8 44  1  0
  9 45  1  0
  9 46  1  0
  9 47  1  0
 10 48  1  6
 11 49  1  0
 11 50  1  0
 12 51  1  0
 12 52  1  0
 14 53  1  0
 14 54  1  0
 14 55  1  0
 15 56  1  1
 16 57  1  0
 16 58  1  0
 17 59  1  0
 19 60  1  6
 20 61  1  0
 20 62  1  0
 21 63  1  0
 21 64  1  0
 22 65  1  6
 23 66  1  0
 25 67  1  0
 25 68  1  0
 25 69  1  0
 26 70  1  0
 26 71  1  0
 26 72  1  0
 28 73  1  0
 28 74  1  0
 28 75  1  0
 29 76  1  0
 29 77  1  0
 30 78  1  0
 30 79  1  0
 32 80  1  0
 32 81  1  0
 32 82  1  0
M  END
>  <meeko>  (7) 
{"is_sidechain": [false], "intermolecular_energy": 2.731, "internal_energy": -0.839}

$$$$
EPH_relaxed_0001_pdb2pqr_Repair_15_r2_0001_out
     RDKit          3D

 82 86  0  0  0  0  0  0  0  0999 V2000
   -0.2380   10.4160   -3.7250 C   0  0  0  0  0  0  0  0  0  0  0  0
    0.9150   10.2470   -2.7320 C   0  0  2  0  0  0  0  0  0  0  0  0
    0.7800    8.9570   -1.8990 C   0  0  0  0  0  0  0  0  0  0  0  0
    0.1280    9.1740   -0.5300 C   0  0  0  0  0  0  0  0  0  0  0  0
   -1.2960    8.7090   -0.5140 C   0  0  2  0  0  0  0  0  0  0  0  0
   -1.9750    8.8130   -1.7730 O   0  0  0  0  0  0  0  0  0  0  0  0
   -2.4820    9.6360   -0.7090 C   0  0  0  0  0  0  0  0  0  0  0  0
   -2.2960   11.1040   -0.9330 C   0  0  0  0  0  0  0  0  0  0  0  0
   -3.8200    9.2020   -0.1980 C   0  0  0  0  0  0  0  0  0  0  0  0
    0.9880   11.4580   -1.8090 C   0  0  1  0  0  0  0  0  0  0  0  0
    2.0380   11.2860   -0.6790 C   0  0  0  0  0  0  0  0  0  0  0  0
    2.6510   12.6860   -0.4220 C   0  0  0  0  0  0  0  0  0  0  0  0
    1.7140   13.6660   -1.1650 C   0  0  1  0  0  0  0  0  0  0  0  0
    0.5070   13.8780   -0.1990 C   0  0  0  0  0  0  0  0  0  0  0  0
    2.3450   15.0260   -1.6070 C   0  0  2  0  0  0  0  0  0  0  0  0
    2.8410   15.9200   -0.4570 C   0  0  0  0  0  0  0  0  0  0  0  0
    1.8350   16.8830    0.0810 C   0  0  0  0  0  0  0  0  0  0  0  0
    0.6820   17.2270   -0.5210 C   0  0  0  0  0  0  0  0  0  0  0  0
    0.3360   16.7010   -1.9200 C   0  0  1  0  0  0  0  0  0  0  0  0
   -0.1750   17.8710   -2.8010 C   0  0  0  0  0  0  0  0  0  0  0  0
   -1.3350   18.6250   -2.1580 C   0  0  0  0  0  0  0  0  0  0  0  0
   -0.9340   19.1820   -0.7940 C   0  0  2  0  0  0  0  0  0  0  0  0
    0.0590   20.1940   -0.9840 O   0  0  0  0  0  0  0  0  0  0  0  0
   -0.3940   18.0950    0.1770 C   0  0  0  0  0  0  0  0  0  0  0  0
   -1.5540   17.1700    0.6190 C   0  0  0  0  0  0  0  0  0  0  0  0
    0.1060   18.8090    1.4620 C   0  0  0  0  0  0  0  0  0  0  0  0
    1.4660   15.8450   -2.6370 C   0  0  1  0  0  0  0  0  0  0  0  0
    2.4420   16.7890   -3.4040 C   0  0  0  0  0  0  0  0  0  0  0  0
    0.7990   14.9200   -3.7230 C   0  0  0  0  0  0  0  0  0  0  0  0
    0.3030   13.5400   -3.2490 C   0  0  0  0  0  0  0  0  0  0  0  0
    1.3850   12.8140   -2.4450 C   0  0  2  0  0  0  0  0  0  0  0  0
    2.6040   12.5670   -3.3990 C   0  0  0  0  0  0  0  0  0  0  0  0
   -1.1797   10.5540   -3.1734 H   0  0  0  0  0  0  0  0  0  0  0  0
   -0.0511   11.2963   -4.3575 H   0  0  0  0  0  0  0  0  0  0  0  0
   -0.3116    9.5190   -4.3575 H   0  0  0  0  0  0  0  0  0  0  0  0
    1.8444   10.1673   -3.3150 H   0  0  0  0  0  0  0  0  0  0  0  0
    0.1677    8.2401   -2.4657 H   0  0  0  0  0  0  0  0  0  0  0  0
    1.7987    8.5850   -1.7148 H   0  0  0  0  0  0  0  0  0  0  0  0
    0.6947    8.6128    0.2276 H   0  0  0  0  0  0  0  0  0  0  0  0
    0.1389   10.2522   -0.3123 H   0  0  0  0  0  0  0  0  0  0  0  0
   -1.0658    7.9573    0.2554 H   0  0  0  0  0  0  0  0  0  0  0  0
   -2.2309   11.6177    0.0375 H   0  0  0  0  0  0  0  0  0  0  0  0
   -1.3692   11.2738   -1.5006 H   0  0  0  0  0  0  0  0  0  0  0  0
   -3.1512   11.4996   -1.5006 H   0  0  0  0  0  0  0  0  0  0  0  0
   -3.8110    9.2049    0.9020 H   0  0  0  0  0  0  0  0  0  0  0  0
   -4.5933    9.8954   -0.5602 H   0  0  0  0  0  0  0  0  0  0  0  0
   -4.0391    8.1867   -0.5602 H   0  0  0  0  0  0  0  0  0  0  0  0
   -0.0575   11.4936   -1.4688 H   0  0  0  0  0  0  0  0  0  0  0  0
    1.5534   10.9111    0.2346 H   0  0  0  0  0  0  0  0  0  0  0  0
    2.8140   10.5618   -0.9676 H   0  0  0  0  0  0  0  0  0  0  0  0
    2.6709   12.9092    0.6549 H   0  0  0  0  0  0  0  0  0  0  0  0
    3.6909   12.7564   -0.7737 H   0  0  0  0  0  0  0  0  0  0  0  0
    0.8557   13.8167    0.8425 H   0  0  0  0  0  0  0  0  0  0  0  0
    0.0626   14.8680   -0.3792 H   0  0  0  0  0  0  0  0  0  0  0  0
   -0.2482   13.0987   -0.3792 H   0  0  0  0  0  0  0  0  0  0  0  0
    3.2482   14.7020   -2.1449 H   0  0  0  0  0  0  0  0  0  0  0  0
    3.1611   15.2665    0.3679 H   0  0  0  0  0  0  0  0  0  0  0  0
    3.6542   16.5312   -0.8755 H   0  0  0  0  0  0  0  0  0  0  0  0
    2.0551   17.3509    1.0519 H   0  0  0  0  0  0  0  0  0  0  0  0
   -0.4671   15.9628   -1.7780 H   0  0  0  0  0  0  0  0  0  0  0  0
    0.6538   18.5749   -2.9676 H   0  0  0  0  0  0  0  0  0  0  0  0
   -0.5389   17.4424   -3.7465 H   0  0  0  0  0  0  0  0  0  0  0  0
   -1.6313   19.4570   -2.8137 H   0  0  0  0  0  0  0  0  0  0  0  0
   -2.1739   17.9271   -2.0196 H   0  0  0  0  0  0  0  0  0  0  0  0
   -1.8397   19.5967   -0.3273 H   0  0  0  0  0  0  0  0  0  0  0  0
    0.9020   19.8470   -0.6460 H   0  0  0  0  0  0  0  0  0  0  0  0
   -1.5972   17.1355    1.7176 H   0  0  0  0  0  0  0  0  0  0  0  0
   -2.5045   17.5608    0.2267 H   0  0  0  0  0  0  0  0  0  0  0  0
   -1.3845   16.1564    0.2267 H   0  0  0  0  0  0  0  0  0  0  0  0
   -0.2682   18.2746    2.3476 H   0  0  0  0  0  0  0  0  0  0  0  0
    1.2059   18.8139    1.4743 H   0  0  0  0  0  0  0  0  0  0  0  0
   -0.2655   19.8443    1.4743 H   0  0  0  0  0  0  0  0  0  0  0  0
    3.0381   17.3656   -2.6813 H   0  0  0  0  0  0  0  0  0  0  0  0
    3.1126   16.1881   -4.0358 H   0  0  0  0  0  0  0  0  0  0  0  0
    1.8637   17.4792   -4.0358 H   0  0  0  0  0  0  0  0  0  0  0  0
   -0.0654   15.4608   -4.1356 H   0  0  0  0  0  0  0  0  0  0  0  0
    1.5973   14.7058   -4.4489 H   0  0  0  0  0  0  0  0  0  0  0  0
   -0.5859   13.6755   -2.6153 H   0  0  0  0  0  0  0  0  0  0  0  0
    0.0574   12.9334   -4.1332 H   0  0  0  0  0  0  0  0  0  0  0  0
    3.5078   12.3839   -2.7993 H   0  0  0  0  0  0  0  0  0  0  0  0
    2.4015   11.6916   -4.0336 H   0  0  0  0  0  0  0  0  0  0  0  0
    2.7582   13.4522   -4.0336 H   0  0  0  0  0  0  0  0  0  0  0  0
  1  2  1  0
  2  3  1  0
  3  4  1  0
  4  5  1  0
  5  6  1  0
  6  7  1  0
  7  8  1  0
  7  9  1  0
  2 10  1  0
 10 11  1  0
 11 12  1  0
 12 13  1  0
 13 14  1  1
 13 15  1  0
 15 16  1  0
 16 17  1  0
 17 18  2  0
 18 19  1  0
 19 20  1  0
 20 21  1  0
 21 22  1  0
 22 23  1  0
 22 24  1  0
 24 25  1  0
 24 26  1  0
 19 27  1  0
 27 28  1  6
 27 29  1  0
 29 30  1  0
 30 31  1  0
 31 32  1  6
  7  5  1  0
 31 10  1  0
 31 13  1  0
 27 15  1  0
 24 18  1  0
  1 33  1  0
  1 34  1  0
  1 35  1  0
  2 36  1  6
  3 37  1  0
  3 38  1  0
  4 39  1  0
  4 40  1  0
  5 41  1  1
  8 42  1  0
  8 43  1  0
  8 44  1  0
  9 45  1  0
  9 46  1  0
  9 47  1  0
 10 48  1  1
 11 49  1  0
 11 50  1  0
 12 51  1  0
 12 52  1  0
 14 53  1  0
 14 54  1  0
 14 55  1  0
 15 56  1  6
 16 57  1  0
 16 58  1  0
 17 59  1  0
 19 60  1  1
 20 61  1  0
 20 62  1  0
 21 63  1  0
 21 64  1  0
 22 65  1  1
 23 66  1  0
 25 67  1  0
 25 68  1  0
 25 69  1  0
 26 70  1  0
 26 71  1  0
 26 72  1  0
 28 73  1  0
 28 74  1  0
 28 75  1  0
 29 76  1  0
 29 77  1  0
 30 78  1  0
 30 79  1  0
 32 80  1  0
 32 81  1  0
 32 82  1  0
M  END
>  <meeko>  (8) 
{"is_sidechain": [false], "intermolecular_energy": 2.731, "internal_energy": -0.839}

$$$$
EPH_relaxed_0001_pdb2pqr_Repair_15_r2_0001_out
     RDKit          3D

 82 86  0  0  0  0  0  0  0  0999 V2000
    0.4300    8.8480   -2.4980 C   0  0  0  0  0  0  0  0  0  0  0  0
    1.1870   10.0050   -3.1560 C   0  0  2  0  0  0  0  0  0  0  0  0
    2.6810   10.0140   -2.7750 C   0  0  0  0  0  0  0  0  0  0  0  0
    3.5900   10.5870   -3.8650 C   0  0  0  0  0  0  0  0  0  0  0  0
    4.9820   10.8210   -3.3590 C   0  0  2  0  0  0  0  0  0  0  0  0
    5.5880   12.0380   -3.8160 O   0  0  0  0  0  0  0  0  0  0  0  0
    6.2080   10.8180   -4.2520 C   0  0  0  0  0  0  0  0  0  0  0  0
    6.1000   10.5730   -5.7250 C   0  0  0  0  0  0  0  0  0  0  0  0
    7.5460   10.5650   -3.6300 C   0  0  0  0  0  0  0  0  0  0  0  0
    0.5430   11.3320   -2.7700 C   0  0  1  0  0  0  0  0  0  0  0  0
   -0.8370   11.1500   -2.0840 C   0  0  0  0  0  0  0  0  0  0  0  0
   -0.9590   12.2720   -1.0210 C   0  0  0  0  0  0  0  0  0  0  0  0
    0.1900   13.2520   -1.3540 C   0  0  1  0  0  0  0  0  0  0  0  0
   -0.3550   14.1280   -2.5250 C   0  0  0  0  0  0  0  0  0  0  0  0
    0.7140   14.1300   -0.1710 C   0  0  2  0  0  0  0  0  0  0  0  0
   -0.3220   15.0960    0.4330 C   0  0  0  0  0  0  0  0  0  0  0  0
   -0.3650   16.4530   -0.1870 C   0  0  0  0  0  0  0  0  0  0  0  0
    0.5800   16.9770   -0.9900 C   0  0  0  0  0  0  0  0  0  0  0  0
    1.8840   16.2190   -1.2700 C   0  0  1  0  0  0  0  0  0  0  0  0
    3.0880   17.1860   -1.1180 C   0  0  0  0  0  0  0  0  0  0  0  0
    2.9440   18.4380   -1.9780 C   0  0  0  0  0  0  0  0  0  0  0  0
    1.6660   19.1950   -1.6300 C   0  0  2  0  0  0  0  0  0  0  0  0
    1.7840   19.7130   -0.3010 O   0  0  0  0  0  0  0  0  0  0  0  0
    0.3860   18.3190   -1.7370 C   0  0  0  0  0  0  0  0  0  0  0  0
    0.0920   18.0080   -3.2260 C   0  0  0  0  0  0  0  0  0  0  0  0
   -0.8130   19.1610   -1.2240 C   0  0  0  0  0  0  0  0  0  0  0  0
    2.0850   14.8630   -0.4650 C   0  0  1  0  0  0  0  0  0  0  0  0
    2.7380   15.1590    0.9200 C   0  0  0  0  0  0  0  0  0  0  0  0
    3.0980   13.9460   -1.2470 C   0  0  0  0  0  0  0  0  0  0  0  0
    2.5050   13.0140   -2.3210 C   0  0  0  0  0  0  0  0  0  0  0  0
    1.3110   12.2300   -1.7670 C   0  0  2  0  0  0  0  0  0  0  0  0
    1.8340   11.3220   -0.6020 C   0  0  0  0  0  0  0  0  0  0  0  0
    0.4927    8.9439   -1.4040 H   0  0  0  0  0  0  0  0  0  0  0  0
   -0.6248    8.8762   -2.8087 H   0  0  0  0  0  0  0  0  0  0  0  0
    0.8783    7.8927   -2.8087 H   0  0  0  0  0  0  0  0  0  0  0  0
    1.1258    9.8638   -4.2452 H   0  0  0  0  0  0  0  0  0  0  0  0
    2.8040   10.6207   -1.8657 H   0  0  0  0  0  0  0  0  0  0  0  0
    2.9808    8.9665   -2.6240 H   0  0  0  0  0  0  0  0  0  0  0  0
    3.6304    9.8778   -4.7049 H   0  0  0  0  0  0  0  0  0  0  0  0
    3.1743   11.5537   -4.1854 H   0  0  0  0  0  0  0  0  0  0  0  0
    4.7534   10.2991   -2.4181 H   0  0  0  0  0  0  0  0  0  0  0  0
    5.6620    9.5793   -5.9003 H   0  0  0  0  0  0  0  0  0  0  0  0
    5.4575   11.3421   -6.1785 H   0  0  0  0  0  0  0  0  0  0  0  0
    7.1012   10.6176   -6.1785 H   0  0  0  0  0  0  0  0  0  0  0  0
    7.4503   10.5831   -2.5343 H   0  0  0  0  0  0  0  0  0  0  0  0
    7.9185    9.5805   -3.9493 H   0  0  0  0  0  0  0  0  0  0  0  0
    8.2523   11.3455   -3.9493 H   0  0  0  0  0  0  0  0  0  0  0  0
    0.5092   11.8144   -3.7580 H   0  0  0  0  0  0  0  0  0  0  0  0
   -1.6439   11.2416   -2.8259 H   0  0  0  0  0  0  0  0  0  0  0  0
   -0.9198   10.1559   -1.6205 H   0  0  0  0  0  0  0  0  0  0  0  0
   -1.9337   12.7759   -1.0984 H   0  0  0  0  0  0  0  0  0  0  0  0
   -0.8909   11.8830    0.0056 H   0  0  0  0  0  0  0  0  0  0  0  0
   -0.8941   14.9945   -2.1145 H   0  0  0  0  0  0  0  0  0  0  0  0
    0.4851   14.4779   -3.1429 H   0  0  0  0  0  0  0  0  0  0  0  0
   -1.0401   13.5290   -3.1429 H   0  0  0  0  0  0  0  0  0  0  0  0
    0.9143   13.3803    0.6086 H   0  0  0  0  0  0  0  0  0  0  0  0
   -1.3169   14.6400    0.3225 H   0  0  0  0  0  0  0  0  0  0  0  0
   -0.0216   15.2489    1.4801 H   0  0  0  0  0  0  0  0  0  0  0  0
   -1.2435   17.0781    0.0307 H   0  0  0  0  0  0  0  0  0  0  0  0
    1.8148   15.8694   -2.3107 H   0  0  0  0  0  0  0  0  0  0  0  0
    3.1659   17.4894   -0.0635 H   0  0  0  0  0  0  0  0  0  0  0  0
    3.9897   16.6523   -1.4529 H   0  0  0  0  0  0  0  0  0  0  0  0
    3.8095   19.0946   -1.8056 H   0  0  0  0  0  0  0  0  0  0  0  0
    2.8955   18.1345   -3.0342 H   0  0  0  0  0  0  0  0  0  0  0  0
    1.5534   20.0062   -2.3644 H   0  0  0  0  0  0  0  0  0  0  0  0
    2.3860   19.1280    0.1900 H   0  0  0  0  0  0  0  0  0  0  0  0
   -0.6623   17.2101   -3.2919 H   0  0  0  0  0  0  0  0  0  0  0  0
   -0.2879   18.9135   -3.7216 H   0  0  0  0  0  0  0  0  0  0  0  0
    1.0175   17.6796   -3.7216 H   0  0  0  0  0  0  0  0  0  0  0  0
   -0.8157   19.1629   -0.1240 H   0  0  0  0  0  0  0  0  0  0  0  0
   -0.7203   20.1934   -1.5922 H   0  0  0  0  0  0  0  0  0  0  0  0
   -1.7526   18.7234   -1.5922 H   0  0  0  0  0  0  0  0  0  0  0  0
    2.0527   14.8483    1.7224 H   0  0  0  0  0  0  0  0  0  0  0  0
    3.6818   14.6007    1.0072 H   0  0  0  0  0  0  0  0  0  0  0  0
    2.9401   16.2367    1.0072 H   0  0  0  0  0  0  0  0  0  0  0  0
    3.8274   14.6033   -1.7428 H   0  0  0  0  0  0  0  0  0  0  0  0
    3.5243   13.2747   -0.4870 H   0  0  0  0  0  0  0  0  0  0  0  0
    2.1726   13.6181   -3.1781 H   0  0  0  0  0  0  0  0  0  0  0  0
    3.2806   12.2988   -2.6322 H   0  0  0  0  0  0  0  0  0  0  0  0
    1.5715   11.7777    0.3642 H   0  0  0  0  0  0  0  0  0  0  0  0
    1.3705   10.3272   -0.6762 H   0  0  0  0  0  0  0  0  0  0  0  0
    2.9271   11.2237   -0.6762 H   0  0  0  0  0  0  0  0  0  0  0  0
  1  2  1  0
  2  3  1  0
  3  4  1  0
  4  5  1  0
  5  6  1  0
  6  7  1  0
  7  8  1  0
  7  9  1  0
  2 10  1  0
 10 11  1  0
 11 12  1  0
 12 13  1  0
 13 14  1  6
 13 15  1  0
 15 16  1  0
 16 17  1  0
 17 18  2  0
 18 19  1  0
 19 20  1  0
 20 21  1  0
 21 22  1  0
 22 23  1  0
 22 24  1  0
 24 25  1  0
 24 26  1  0
 19 27  1  0
 27 28  1  1
 27 29  1  0
 29 30  1  0
 30 31  1  0
 31 32  1  1
  7  5  1  0
 31 10  1  0
 31 13  1  0
 27 15  1  0
 24 18  1  0
  1 33  1  0
  1 34  1  0
  1 35  1  0
  2 36  1  6
  3 37  1  0
  3 38  1  0
  4 39  1  0
  4 40  1  0
  5 41  1  1
  8 42  1  0
  8 43  1  0
  8 44  1  0
  9 45  1  0
  9 46  1  0
  9 47  1  0
 10 48  1  6
 11 49  1  0
 11 50  1  0
 12 51  1  0
 12 52  1  0
 14 53  1  0
 14 54  1  0
 14 55  1  0
 15 56  1  1
 16 57  1  0
 16 58  1  0
 17 59  1  0
 19 60  1  6
 20 61  1  0
 20 62  1  0
 21 63  1  0
 21 64  1  0
 22 65  1  6
 23 66  1  0
 25 67  1  0
 25 68  1  0
 25 69  1  0
 26 70  1  0
 26 71  1  0
 26 72  1  0
 28 73  1  0
 28 74  1  0
 28 75  1  0
 29 76  1  0
 29 77  1  0
 30 78  1  0
 30 79  1  0
 32 80  1  0
 32 81  1  0
 32 82  1  0
M  END
>  <meeko>  (9) 
{"is_sidechain": [false], "intermolecular_energy": 2.731, "internal_energy": -0.839}

$$$$
EPH_relaxed_0001_pdb2pqr_Repair_15_r2_0001_out
     RDKit          3D

 82 86  0  0  0  0  0  0  0  0999 V2000
    2.9320   18.8530   -1.0700 C   0  0  0  0  0  0  0  0  0  0  0  0
    2.6560   17.8180   -2.1640 C   0  0  2  0  0  0  0  0  0  0  0  0
    1.2810   18.0270   -2.8290 C   0  0  0  0  0  0  0  0  0  0  0  0
    0.5750   19.3130   -2.3900 C   0  0  0  0  0  0  0  0  0  0  0  0
   -0.7590   19.0280   -1.7680 C   0  0  2  0  0  0  0  0  0  0  0  0
   -1.5590   20.1890   -1.5090 O   0  0  0  0  0  0  0  0  0  0  0  0
   -1.1300   19.4450   -0.3570 C   0  0  0  0  0  0  0  0  0  0  0  0
   -0.1650   20.1810    0.5180 C   0  0  0  0  0  0  0  0  0  0  0  0
   -2.2380   18.7160    0.3360 C   0  0  0  0  0  0  0  0  0  0  0  0
    2.7450   16.4120   -1.5820 C   0  0  1  0  0  0  0  0  0  0  0  0
    3.3740   16.3900   -0.1630 C   0  0  0  0  0  0  0  0  0  0  0  0
    2.6580   15.2650    0.6270 C   0  0  0  0  0  0  0  0  0  0  0  0
    1.8850   14.4650   -0.4470 C   0  0  1  0  0  0  0  0  0  0  0  0
    2.9480   13.5150   -1.0820 C   0  0  0  0  0  0  0  0  0  0  0  0
    0.6290   13.6770    0.0480 C   0  0  2  0  0  0  0  0  0  0  0  0
    0.9180   12.5710    1.0790 C   0  0  0  0  0  0  0  0  0  0  0  0
    1.1910   11.2200    0.5050 C   0  0  0  0  0  0  0  0  0  0  0  0
    0.9270   10.8390   -0.7590 C   0  0  0  0  0  0  0  0  0  0  0  0
    0.2040   11.7800   -1.7300 C   0  0  1  0  0  0  0  0  0  0  0  0
   -0.9190   11.0020   -2.4660 C   0  0  0  0  0  0  0  0  0  0  0  0
   -0.4030    9.7400   -3.1510 C   0  0  0  0  0  0  0  0  0  0  0  0
    0.2580    8.8040   -2.1430 C   0  0  2  0  0  0  0  0  0  0  0  0
   -0.7430    8.3130   -1.2450 O   0  0  0  0  0  0  0  0  0  0  0  0
    1.3990    9.4810   -1.3340 C   0  0  0  0  0  0  0  0  0  0  0  0
    2.6110    9.7410   -2.2620 C   0  0  0  0  0  0  0  0  0  0  0  0
    1.8840    8.4730   -0.2570 C   0  0  0  0  0  0  0  0  0  0  0  0
   -0.3080   13.1530   -1.1140 C   0  0  1  0  0  0  0  0  0  0  0  0
   -1.7250   12.9610   -0.4920 C   0  0  0  0  0  0  0  0  0  0  0  0
   -0.4710   14.2070   -2.2720 C   0  0  0  0  0  0  0  0  0  0  0  0
    0.7740   15.0390   -2.6350 C   0  0  0  0  0  0  0  0  0  0  0  0
    1.4160   15.6400   -1.3810 C   0  0  2  0  0  0  0  0  0  0  0  0
    0.3780   16.6180   -0.7330 C   0  0  0  0  0  0  0  0  0  0  0  0
    2.8072   18.3849   -0.0825 H   0  0  0  0  0  0  0  0  0  0  0  0
    3.9614   19.2274   -1.1708 H   0  0  0  0  0  0  0  0  0  0  0  0
    2.2257   19.6903   -1.1708 H   0  0  0  0  0  0  0  0  0  0  0  0
    3.4215   17.9479   -2.9432 H   0  0  0  0  0  0  0  0  0  0  0  0
    1.4242   18.0640   -3.9190 H   0  0  0  0  0  0  0  0  0  0  0  0
    0.6423   17.1870   -2.5184 H   0  0  0  0  0  0  0  0  0  0  0  0
    1.2069   19.8338   -1.6555 H   0  0  0  0  0  0  0  0  0  0  0  0
    0.4118   19.9363   -3.2815 H   0  0  0  0  0  0  0  0  0  0  0  0
   -0.8250   18.0642   -2.2940 H   0  0  0  0  0  0  0  0  0  0  0  0
   -0.4108   19.9936    1.5737 H   0  0  0  0  0  0  0  0  0  0  0  0
    0.8573   19.8311    0.3118 H   0  0  0  0  0  0  0  0  0  0  0  0
   -0.2320   21.2594    0.3118 H   0  0  0  0  0  0  0  0  0  0  0  0
   -2.1083   18.8014    1.4250 H   0  0  0  0  0  0  0  0  0  0  0  0
   -3.2038   19.1557    0.0462 H   0  0  0  0  0  0  0  0  0  0  0  0
   -2.2164   17.6551    0.0462 H   0  0  0  0  0  0  0  0  0  0  0  0
    3.3481   15.9275   -2.3640 H   0  0  0  0  0  0  0  0  0  0  0  0
    4.4515   16.1791   -0.2297 H   0  0  0  0  0  0  0  0  0  0  0  0
    3.2530   17.3621    0.3374 H   0  0  0  0  0  0  0  0  0  0  0  0
    3.3904   14.6224    1.1375 H   0  0  0  0  0  0  0  0  0  0  0  0
    1.9944   15.6621    1.4093 H   0  0  0  0  0  0  0  0  0  0  0  0
    3.5124   13.0106   -0.2838 H   0  0  0  0  0  0  0  0  0  0  0  0
    2.4419   12.7627   -1.7049 H   0  0  0  0  0  0  0  0  0  0  0  0
    3.6389   14.1021   -1.7049 H   0  0  0  0  0  0  0  0  0  0  0  0
    0.0635   14.4503    0.5886 H   0  0  0  0  0  0  0  0  0  0  0  0
    1.7972   12.8749    1.6661 H   0  0  0  0  0  0  0  0  0  0  0  0
    0.0020   12.4674    1.6791 H   0  0  0  0  0  0  0  0  0  0  0  0
    1.6464   10.4726    1.1713 H   0  0  0  0  0  0  0  0  0  0  0  0
    0.9636   12.1124   -2.4529 H   0  0  0  0  0  0  0  0  0  0  0  0
   -1.6886   10.7164   -1.7337 H   0  0  0  0  0  0  0  0  0  0  0  0
   -1.3275   11.6621   -3.2453 H   0  0  0  0  0  0  0  0  0  0  0  0
   -1.2463    9.2185   -3.6274 H   0  0  0  0  0  0  0  0  0  0  0  0
    0.3447   10.0298   -3.9039 H   0  0  0  0  0  0  0  0  0  0  0  0
    0.7210    7.9828   -2.7099 H   0  0  0  0  0  0  0  0  0  0  0  0
   -1.5620    8.1920   -1.7550 H   0  0  0  0  0  0  0  0  0  0  0  0
    3.5057    9.9329   -1.6515 H   0  0  0  0  0  0  0  0  0  0  0  0
    2.7825    8.8592   -2.8969 H   0  0  0  0  0  0  0  0  0  0  0  0
    2.4058   10.6155   -2.8969 H   0  0  0  0  0  0  0  0  0  0  0  0
    1.6866    8.8832    0.7444 H   0  0  0  0  0  0  0  0  0  0  0  0
    1.3451    7.5215   -0.3762 H   0  0  0  0  0  0  0  0  0  0  0  0
    2.9638    8.3003   -0.3762 H   0  0  0  0  0  0  0  0  0  0  0  0
   -1.6483   12.9714    0.6053 H   0  0  0  0  0  0  0  0  0  0  0  0
   -2.3837   13.7781   -0.8213 H   0  0  0  0  0  0  0  0  0  0  0  0
   -2.1426   11.9981   -0.8213 H   0  0  0  0  0  0  0  0  0  0  0  0
   -0.7826   13.6628   -3.1758 H   0  0  0  0  0  0  0  0  0  0  0  0
   -1.2045   14.9357   -1.8965 H   0  0  0  0  0  0  0  0  0  0  0  0
    1.5060   14.3904   -3.1385 H   0  0  0  0  0  0  0  0  0  0  0  0
    0.4660   15.8599   -3.2993 H   0  0  0  0  0  0  0  0  0  0  0  0
    0.4473   16.5527    0.3629 H   0  0  0  0  0  0  0  0  0  0  0  0
    0.5948   17.6477   -1.0534 H   0  0  0  0  0  0  0  0  0  0  0  0
   -0.6370   16.3403   -1.0534 H   0  0  0  0  0  0  0  0  0  0  0  0
  1  2  1  0
  2  3  1  0
  3  4  1  0
  4  5  1  0
  5  6  1  0
  6  7  1  0
  7  8  1  0
  7  9  1  0
  2 10  1  0
 10 11  1  0
 11 12  1  0
 12 13  1  0
 13 14  1  6
 13 15  1  0
 15 16  1  0
 16 17  1  0
 17 18  2  0
 18 19  1  0
 19 20  1  0
 20 21  1  0
 21 22  1  0
 22 23  1  0
 22 24  1  0
 24 25  1  0
 24 26  1  0
 19 27  1  0
 27 28  1  1
 27 29  1  0
 29 30  1  0
 30 31  1  0
 31 32  1  1
  7  5  1  0
 31 10  1  0
 31 13  1  0
 27 15  1  0
 24 18  1  0
  1 33  1  0
  1 34  1  0
  1 35  1  0
  2 36  1  6
  3 37  1  0
  3 38  1  0
  4 39  1  0
  4 40  1  0
  5 41  1  6
  8 42  1  0
  8 43  1  0
  8 44  1  0
  9 45  1  0
  9 46  1  0
  9 47  1  0
 10 48  1  6
 11 49  1  0
 11 50  1  0
 12 51  1  0
 12 52  1  0
 14 53  1  0
 14 54  1  0
 14 55  1  0
 15 56  1  1
 16 57  1  0
 16 58  1  0
 17 59  1  0
 19 60  1  6
 20 61  1  0
 20 62  1  0
 21 63  1  0
 21 64  1  0
 22 65  1  6
 23 66  1  0
 25 67  1  0
 25 68  1  0
 25 69  1  0
 26 70  1  0
 26 71  1  0
 26 72  1  0
 28 73  1  0
 28 74  1  0
 28 75  1  0
 29 76  1  0
 29 77  1  0
 30 78  1  0
 30 79  1  0
 32 80  1  0
 32 81  1  0
 32 82  1  0
M  END
>  <meeko>  (10) 
{"is_sidechain": [false], "intermolecular_energy": 2.731, "internal_energy": -0.839}

$$$$
EPH_relaxed_0001_pdb2pqr_Repair_15_r2_0001_out
     RDKit          3D

 82 86  0  0  0  0  0  0  0  0999 V2000
   -0.9330   16.3950   -5.8620 C   0  0  0  0  0  0  0  0  0  0  0  0
    0.1680   15.6980   -6.6670 C   0  0  2  0  0  0  0  0  0  0  0  0
   -0.2290   15.5020   -8.1440 C   0  0  0  0  0  0  0  0  0  0  0  0
    0.4250   16.5080   -9.0960 C   0  0  0  0  0  0  0  0  0  0  0  0
    1.8360   16.1230   -9.4250 C   0  0  2  0  0  0  0  0  0  0  0  0
    2.3450   16.6940  -10.6370 O   0  0  0  0  0  0  0  0  0  0  0  0
    2.2120   15.2630  -10.6170 C   0  0  0  0  0  0  0  0  0  0  0  0
    1.1740   14.7350  -11.5570 C   0  0  0  0  0  0  0  0  0  0  0  0
    3.5200   14.5370  -10.5910 C   0  0  0  0  0  0  0  0  0  0  0  0
    0.5010   14.3520   -6.0350 C   0  0  1  0  0  0  0  0  0  0  0  0
    1.7110   13.6570   -6.7130 C   0  0  0  0  0  0  0  0  0  0  0  0
    2.4770   12.9020   -5.5960 C   0  0  0  0  0  0  0  0  0  0  0  0
    1.5120   12.9100   -4.3880 C   0  0  1  0  0  0  0  0  0  0  0  0
    0.5120   11.7440   -4.6640 C   0  0  0  0  0  0  0  0  0  0  0  0
    2.1720   12.7820   -2.9760 C   0  0  2  0  0  0  0  0  0  0  0  0
    2.9330   11.4670   -2.7280 C   0  0  0  0  0  0  0  0  0  0  0  0
    2.1210   10.3620   -2.1390 C   0  0  0  0  0  0  0  0  0  0  0  0
    0.9140   10.5010   -1.5590 C   0  0  0  0  0  0  0  0  0  0  0  0
    0.2890   11.8880   -1.3640 C   0  0  1  0  0  0  0  0  0  0  0  0
   -0.2640   12.0090    0.0800 C   0  0  0  0  0  0  0  0  0  0  0  0
   -1.2280   10.8800    0.4330 C   0  0  0  0  0  0  0  0  0  0  0  0
   -0.5520    9.5190    0.2830 C   0  0  2  0  0  0  0  0  0  0  0  0
    0.4760    9.4040    1.2720 O   0  0  0  0  0  0  0  0  0  0  0  0
    0.0530    9.2880   -1.1300 C   0  0  0  0  0  0  0  0  0  0  0  0
   -1.0890    9.1120   -2.1620 C   0  0  0  0  0  0  0  0  0  0  0  0
    0.8250    7.9410   -1.1040 C   0  0  0  0  0  0  0  0  0  0  0  0
    1.2020   13.1230   -1.7740 C   0  0  1  0  0  0  0  0  0  0  0  0
    2.1080   13.5360   -0.5740 C   0  0  0  0  0  0  0  0  0  0  0  0
    0.2810   14.3630   -2.0810 C   0  0  0  0  0  0  0  0  0  0  0  0
   -0.2420   14.4990   -3.5240 C   0  0  0  0  0  0  0  0  0  0  0  0
    0.8970   14.3490   -4.5370 C   0  0  2  0  0  0  0  0  0  0  0  0
    1.9080   15.5220   -4.2970 C   0  0  0  0  0  0  0  0  0  0  0  0
   -0.7360   16.2703   -4.7870 H   0  0  0  0  0  0  0  0  0  0  0  0
   -0.9464   17.4665   -6.1104 H   0  0  0  0  0  0  0  0  0  0  0  0
   -1.9072   15.9488   -6.1104 H   0  0  0  0  0  0  0  0  0  0  0  0
    1.0551   16.3481   -6.6464 H   0  0  0  0  0  0  0  0  0  0  0  0
    0.0681   14.4887   -8.4519 H   0  0  0  0  0  0  0  0  0  0  0  0
   -1.3159   15.6584   -8.2082 H   0  0  0  0  0  0  0  0  0  0  0  0
   -0.1595   16.5499  -10.0269 H   0  0  0  0  0  0  0  0  0  0  0  0
    0.4442   17.4888   -8.5984 H   0  0  0  0  0  0  0  0  0  0  0  0
    2.0918   16.0562   -8.3572 H   0  0  0  0  0  0  0  0  0  0  0  0
    0.3391   14.3103  -10.9803 H   0  0  0  0  0  0  0  0  0  0  0  0
    0.8028   15.5538  -12.1908 H   0  0  0  0  0  0  0  0  0  0  0  0
    1.6172   13.9528  -12.1908 H   0  0  0  0  0  0  0  0  0  0  0  0
    3.8248   14.3678   -9.5477 H   0  0  0  0  0  0  0  0  0  0  0  0
    3.4126   13.5694  -11.1031 H   0  0  0  0  0  0  0  0  0  0  0  0
    4.2843   15.1400  -11.1031 H   0  0  0  0  0  0  0  0  0  0  0  0
   -0.4633   13.8405   -6.1708 H   0  0  0  0  0  0  0  0  0  0  0  0
    1.3609   12.9482   -7.4779 H   0  0  0  0  0  0  0  0  0  0  0  0
    2.3610   14.3921   -7.2101 H   0  0  0  0  0  0  0  0  0  0  0  0
    2.7010   11.8710   -5.9073 H   0  0  0  0  0  0  0  0  0  0  0  0
    3.4433   13.3724   -5.3614 H   0  0  0  0  0  0  0  0  0  0  0  0
    0.1577   11.3308   -3.7081 H   0  0  0  0  0  0  0  0  0  0  0  0
   -0.3450   12.1244   -5.2392 H   0  0  0  0  0  0  0  0  0  0  0  0
    1.0185   10.9550   -5.2392 H   0  0  0  0  0  0  0  0  0  0  0  0
    2.9383   13.5708   -3.0017 H   0  0  0  0  0  0  0  0  0  0  0  0
    3.3327   11.1186   -3.6918 H   0  0  0  0  0  0  0  0  0  0  0  0
    3.7115   11.7010   -1.9869 H   0  0  0  0  0  0  0  0  0  0  0  0
    2.5447    9.3478   -2.1824 H   0  0  0  0  0  0  0  0  0  0  0  0
   -0.5381   11.9533   -2.0862 H   0  0  0  0  0  0  0  0  0  0  0  0
    0.5806   11.9849    0.7844 H   0  0  0  0  0  0  0  0  0  0  0  0
   -0.8195   12.9561    0.1469 H   0  0  0  0  0  0  0  0  0  0  0  0
   -1.5616   11.0036    1.4739 H   0  0  0  0  0  0  0  0  0  0  0  0
   -2.0864   10.9235   -0.2535 H   0  0  0  0  0  0  0  0  0  0  0  0
   -1.3250    8.7489    0.4223 H   0  0  0  0  0  0  0  0  0  0  0  0
    0.1770    8.7570    1.9330 H   0  0  0  0  0  0  0  0  0  0  0  0
   -2.0421    8.9651   -1.6327 H   0  0  0  0  0  0  0  0  0  0  0  0
   -1.1547   10.0106   -2.7930 H   0  0  0  0  0  0  0  0  0  0  0  0
   -0.8811    8.2353   -2.7930 H   0  0  0  0  0  0  0  0  0  0  0  0
    0.9987    7.6380   -0.0609 H   0  0  0  0  0  0  0  0  0  0  0  0
    0.2324    7.1688   -1.6163 H   0  0  0  0  0  0  0  0  0  0  0  0
    1.7909    8.0620   -1.6163 H   0  0  0  0  0  0  0  0  0  0  0  0
    1.5948   13.3021    0.3704 H   0  0  0  0  0  0  0  0  0  0  0  0
    3.0567   12.9814   -0.6229 H   0  0  0  0  0  0  0  0  0  0  0  0
    2.3116   14.6159   -0.6229 H   0  0  0  0  0  0  0  0  0  0  0  0
   -0.5922   14.3021   -1.4148 H   0  0  0  0  0  0  0  0  0  0  0  0
    0.9210   15.2435   -1.9224 H   0  0  0  0  0  0  0  0  0  0  0  0
   -0.9936   13.7175   -3.7094 H   0  0  0  0  0  0  0  0  0  0  0  0
   -0.6874   15.4978   -3.6427 H   0  0  0  0  0  0  0  0  0  0  0  0
    2.0409   15.6761   -3.2160 H   0  0  0  0  0  0  0  0  0  0  0  0
    2.8767   15.2703   -4.7533 H   0  0  0  0  0  0  0  0  0  0  0  0
    1.5161   16.4430   -4.7533 H   0  0  0  0  0  0  0  0  0  0  0  0
  1  2  1  0
  2  3  1  0
  3  4  1  0
  4  5  1  0
  5  6  1  0
  6  7  1  0
  7  8  1  0
  7  9  1  0
  2 10  1  0
 10 11  1  0
 11 12  1  0
 12 13  1  0
 13 14  1  6
 13 15  1  0
 15 16  1  0
 16 17  1  0
 17 18  2  0
 18 19  1  0
 19 20  1  0
 20 21  1  0
 21 22  1  0
 22 23  1  0
 22 24  1  0
 24 25  1  0
 24 26  1  0
 19 27  1  0
 27 28  1  1
 27 29  1  0
 29 30  1  0
 30 31  1  0
 31 32  1  6
  7  5  1  0
 31 10  1  0
 31 13  1  0
 27 15  1  0
 24 18  1  0
  1 33  1  0
  1 34  1  0
  1 35  1  0
  2 36  1  6
  3 37  1  0
  3 38  1  0
  4 39  1  0
  4 40  1  0
  5 41  1  1
  8 42  1  0
  8 43  1  0
  8 44  1  0
  9 45  1  0
  9 46  1  0
  9 47  1  0
 10 48  1  1
 11 49  1  0
 11 50  1  0
 12 51  1  0
 12 52  1  0
 14 53  1  0
 14 54  1  0
 14 55  1  0
 15 56  1  6
 16 57  1  0
 16 58  1  0
 17 59  1  0
 19 60  1  6
 20 61  1  0
 20 62  1  0
 21 63  1  0
 21 64  1  0
 22 65  1  1
 23 66  1  0
 25 67  1  0
 25 68  1  0
 25 69  1  0
 26 70  1  0
 26 71  1  0
 26 72  1  0
 28 73  1  0
 28 74  1  0
 28 75  1  0
 29 76  1  0
 29 77  1  0
 30 78  1  0
 30 79  1  0
 32 80  1  0
 32 81  1  0
 32 82  1  0
M  END
>  <meeko>  (11) 
{"is_sidechain": [false], "intermolecular_energy": 2.731, "internal_energy": -0.839}

$$$$
EPH_relaxed_0001_pdb2pqr_Repair_15_r2_0001_out
     RDKit          3D

 82 86  0  0  0  0  0  0  0  0999 V2000
   -0.2010    9.4060   -2.5030 C   0  0  0  0  0  0  0  0  0  0  0  0
    0.9340   10.3520   -2.9040 C   0  0  2  0  0  0  0  0  0  0  0  0
    2.2980    9.6340   -2.9510 C   0  0  0  0  0  0  0  0  0  0  0  0
    3.2920   10.2650   -3.9300 C   0  0  0  0  0  0  0  0  0  0  0  0
    4.6730   10.3320   -3.3520 C   0  0  2  0  0  0  0  0  0  0  0  0
    5.1730   11.6610   -3.1490 O   0  0  0  0  0  0  0  0  0  0  0  0
    5.8740   10.8600   -4.1140 C   0  0  0  0  0  0  0  0  0  0  0  0
    5.7500   11.3540   -5.5210 C   0  0  0  0  0  0  0  0  0  0  0  0
    7.2420   10.4420   -3.6720 C   0  0  0  0  0  0  0  0  0  0  0  0
    0.9970   11.5270   -1.9360 C   0  0  1  0  0  0  0  0  0  0  0  0
    2.0800   11.3420   -0.8400 C   0  0  0  0  0  0  0  0  0  0  0  0
    2.6610   12.7480   -0.5420 C   0  0  0  0  0  0  0  0  0  0  0  0
    1.6780   13.7280   -1.2230 C   0  0  1  0  0  0  0  0  0  0  0  0
    0.4910   13.8680   -0.2190 C   0  0  0  0  0  0  0  0  0  0  0  0
    2.2600   15.1220   -1.6260 C   0  0  2  0  0  0  0  0  0  0  0  0
    2.7600   15.9840   -0.4540 C   0  0  0  0  0  0  0  0  0  0  0  0
    1.7420   16.8960    0.1470 C   0  0  0  0  0  0  0  0  0  0  0  0
    0.5640   17.2300   -0.4120 C   0  0  0  0  0  0  0  0  0  0  0  0
    0.1970   16.7500   -1.8220 C   0  0  1  0  0  0  0  0  0  0  0  0
   -0.3680   17.9380   -2.6430 C   0  0  0  0  0  0  0  0  0  0  0  0
   -1.5320   18.6320   -1.9420 C   0  0  0  0  0  0  0  0  0  0  0  0
   -1.1120   19.1470   -0.5670 C   0  0  2  0  0  0  0  0  0  0  0  0
   -0.1520   20.1940   -0.7410 O   0  0  0  0  0  0  0  0  0  0  0  0
   -0.5170   18.0390    0.3460 C   0  0  0  0  0  0  0  0  0  0  0  0
   -1.6390   17.0640    0.7800 C   0  0  0  0  0  0  0  0  0  0  0  0
   -0.0040   18.7170    1.6460 C   0  0  0  0  0  0  0  0  0  0  0  0
    1.3320   15.9550   -2.6010 C   0  0  1  0  0  0  0  0  0  0  0  0
    2.2610   16.9560   -3.3530 C   0  0  0  0  0  0  0  0  0  0  0  0
    0.6630   15.0540   -3.7050 C   0  0  0  0  0  0  0  0  0  0  0  0
    0.2170   13.6430   -3.2740 C   0  0  0  0  0  0  0  0  0  0  0  0
    1.3400   12.9180   -2.5270 C   0  0  2  0  0  0  0  0  0  0  0  0
    2.5400   12.7430   -3.5190 C   0  0  0  0  0  0  0  0  0  0  0  0
   -0.2642    9.3534   -1.4061 H   0  0  0  0  0  0  0  0  0  0  0  0
   -1.1522    9.7824   -2.9074 H   0  0  0  0  0  0  0  0  0  0  0  0
   -0.0021    8.4026   -2.9074 H   0  0  0  0  0  0  0  0  0  0  0  0
    0.7180   10.7176   -3.9187 H   0  0  0  0  0  0  0  0  0  0  0  0
    2.7389    9.6596   -1.9436 H   0  0  0  0  0  0  0  0  0  0  0  0
    2.1096    8.6082   -3.3005 H   0  0  0  0  0  0  0  0  0  0  0  0
    3.3192    9.6612   -4.8491 H   0  0  0  0  0  0  0  0  0  0  0  0
    2.9591   11.2917   -4.1424 H   0  0  0  0  0  0  0  0  0  0  0  0
    4.5077    9.4023   -2.7878 H   0  0  0  0  0  0  0  0  0  0  0  0
    5.4822   12.4209   -5.5128 H   0  0  0  0  0  0  0  0  0  0  0  0
    6.7094   11.2208   -6.0423 H   0  0  0  0  0  0  0  0  0  0  0  0
    4.9672   10.7835   -6.0423 H   0  0  0  0  0  0  0  0  0  0  0  0
    7.2842   10.4291   -2.5729 H   0  0  0  0  0  0  0  0  0  0  0  0
    7.4610    9.4360   -4.0592 H   0  0  0  0  0  0  0  0  0  0  0  0
    7.9859   11.1538   -4.0592 H   0  0  0  0  0  0  0  0  0  0  0  0
   -0.0400   11.5185   -1.5693 H   0  0  0  0  0  0  0  0  0  0  0  0
    1.6296   10.9179    0.0695 H   0  0  0  0  0  0  0  0  0  0  0  0
    2.8683   10.6526   -1.1767 H   0  0  0  0  0  0  0  0  0  0  0  0
    2.7019   12.9296    0.5421 H   0  0  0  0  0  0  0  0  0  0  0  0
    3.6896   12.8622   -0.9149 H   0  0  0  0  0  0  0  0  0  0  0  0
    0.8746   13.8228    0.8109 H   0  0  0  0  0  0  0  0  0  0  0  0
   -0.0139   14.8319   -0.3802 H   0  0  0  0  0  0  0  0  0  0  0  0
   -0.2243   13.0480   -0.3802 H   0  0  0  0  0  0  0  0  0  0  0  0
    3.1579   14.8457   -2.1982 H   0  0  0  0  0  0  0  0  0  0  0  0
    3.1193   15.3081    0.3360 H   0  0  0  0  0  0  0  0  0  0  0  0
    3.5446   16.6345   -0.8679 H   0  0  0  0  0  0  0  0  0  0  0  0
    1.9744   17.3319    1.1299 H   0  0  0  0  0  0  0  0  0  0  0  0
   -0.5817   15.9845   -1.6893 H   0  0  0  0  0  0  0  0  0  0  0  0
    0.4363   18.6715   -2.8013 H   0  0  0  0  0  0  0  0  0  0  0  0
   -0.7432   17.5370   -3.5961 H   0  0  0  0  0  0  0  0  0  0  0  0
   -1.8686   19.4799   -2.5567 H   0  0  0  0  0  0  0  0  0  0  0  0
   -2.3469   17.9048   -1.8108 H   0  0  0  0  0  0  0  0  0  0  0  0
   -2.0166   19.5171   -0.0623 H   0  0  0  0  0  0  0  0  0  0  0  0
    0.5610   20.0500   -0.0960 H   0  0  0  0  0  0  0  0  0  0  0  0
   -1.6853   17.0238    1.8783 H   0  0  0  0  0  0  0  0  0  0  0  0
   -2.6035   17.4157    0.3850 H   0  0  0  0  0  0  0  0  0  0  0  0
   -1.4253   16.0599    0.3850 H   0  0  0  0  0  0  0  0  0  0  0  0
   -0.4066   18.1849    2.5205 H   0  0  0  0  0  0  0  0  0  0  0  0
    1.0952   18.6812    1.6690 H   0  0  0  0  0  0  0  0  0  0  0  0
   -0.3373   19.7650    1.6690 H   0  0  0  0  0  0  0  0  0  0  0  0
    2.8198   17.5581   -2.6214 H   0  0  0  0  0  0  0  0  0  0  0  0
    2.9677   16.3971   -3.9841 H   0  0  0  0  0  0  0  0  0  0  0  0
    1.6510   17.6191   -3.9841 H   0  0  0  0  0  0  0  0  0  0  0  0
   -0.2262   15.5857   -4.0746 H   0  0  0  0  0  0  0  0  0  0  0  0
    1.4482   14.8903   -4.4577 H   0  0  0  0  0  0  0  0  0  0  0  0
   -0.6582   13.7283   -2.6132 H   0  0  0  0  0  0  0  0  0  0  0  0
   -0.0359   13.0644   -4.1747 H   0  0  0  0  0  0  0  0  0  0  0  0
    3.4706   12.6073   -2.9484 H   0  0  0  0  0  0  0  0  0  0  0  0
    2.3663   11.8607   -4.1525 H   0  0  0  0  0  0  0  0  0  0  0  0
    2.6256   13.6382   -4.1525 H   0  0  0  0  0  0  0  0  0  0  0  0
  1  2  1  0
  2  3  1  0
  3  4  1  0
  4  5  1  0
  5  6  1  0
  6  7  1  0
  7  8  1  0
  7  9  1  0
  2 10  1  0
 10 11  1  0
 11 12  1  0
 12 13  1  0
 13 14  1  1
 13 15  1  0
 15 16  1  0
 16 17  1  0
 17 18  2  0
 18 19  1  0
 19 20  1  0
 20 21  1  0
 21 22  1  0
 22 23  1  0
 22 24  1  0
 24 25  1  0
 24 26  1  0
 19 27  1  0
 27 28  1  6
 27 29  1  0
 29 30  1  0
 30 31  1  0
 31 32  1  6
  7  5  1  0
 31 10  1  0
 31 13  1  0
 27 15  1  0
 24 18  1  0
  1 33  1  0
  1 34  1  0
  1 35  1  0
  2 36  1  6
  3 37  1  0
  3 38  1  0
  4 39  1  0
  4 40  1  0
  5 41  1  1
  8 42  1  0
  8 43  1  0
  8 44  1  0
  9 45  1  0
  9 46  1  0
  9 47  1  0
 10 48  1  1
 11 49  1  0
 11 50  1  0
 12 51  1  0
 12 52  1  0
 14 53  1  0
 14 54  1  0
 14 55  1  0
 15 56  1  6
 16 57  1  0
 16 58  1  0
 17 59  1  0
 19 60  1  1
 20 61  1  0
 20 62  1  0
 21 63  1  0
 21 64  1  0
 22 65  1  1
 23 66  1  0
 25 67  1  0
 25 68  1  0
 25 69  1  0
 26 70  1  0
 26 71  1  0
 26 72  1  0
 28 73  1  0
 28 74  1  0
 28 75  1  0
 29 76  1  0
 29 77  1  0
 30 78  1  0
 30 79  1  0
 32 80  1  0
 32 81  1  0
 32 82  1  0
M  END
>  <meeko>  (12) 
{"is_sidechain": [false], "intermolecular_energy": 2.731, "internal_energy": -0.839}

$$$$
EPH_relaxed_0001_pdb2pqr_Repair_15_r2_0001_out
     RDKit          3D

 82 86  0  0  0  0  0  0  0  0999 V2000
    1.0050   19.3980   -2.3650 C   0  0  0  0  0  0  0  0  0  0  0  0
    0.3960   18.3640   -1.4130 C   0  0  2  0  0  0  0  0  0  0  0  0
    0.6610   18.7090    0.0660 C   0  0  0  0  0  0  0  0  0  0  0  0
    1.3890   20.0410    0.2660 C   0  0  0  0  0  0  0  0  0  0  0  0
    2.8520   19.8400    0.5230 C   0  0  2  0  0  0  0  0  0  0  0  0
    3.1730   18.6560    1.2650 O   0  0  0  0  0  0  0  0  0  0  0  0
    3.4760   19.9060    1.9050 C   0  0  0  0  0  0  0  0  0  0  0  0
    2.6490   20.1830    3.1210 C   0  0  0  0  0  0  0  0  0  0  0  0
    4.9420   20.1870    2.0160 C   0  0  0  0  0  0  0  0  0  0  0  0
    0.9440   16.9780   -1.7310 C   0  0  1  0  0  0  0  0  0  0  0  0
    2.4810   16.9770   -1.9410 C   0  0  0  0  0  0  0  0  0  0  0  0
    3.0080   15.6300   -1.3830 C   0  0  0  0  0  0  0  0  0  0  0  0
    1.7390   14.7700   -1.1780 C   0  0  1  0  0  0  0  0  0  0  0  0
    1.4090   14.1990   -2.5920 C   0  0  0  0  0  0  0  0  0  0  0  0
    1.8390   13.6360   -0.1060 C   0  0  2  0  0  0  0  0  0  0  0  0
    2.8820   12.5450   -0.4060 C   0  0  0  0  0  0  0  0  0  0  0  0
    2.3760   11.3770   -1.1870 C   0  0  0  0  0  0  0  0  0  0  0  0
    1.0800   11.0710   -1.3850 C   0  0  0  0  0  0  0  0  0  0  0  0
   -0.0330   11.8850   -0.7140 C   0  0  1  0  0  0  0  0  0  0  0  0
   -1.0760   10.9210   -0.0900 C   0  0  0  0  0  0  0  0  0  0  0  0
   -1.6170    9.9130   -1.0990 C   0  0  0  0  0  0  0  0  0  0  0  0
   -0.4870    9.0830   -1.7010 C   0  0  2  0  0  0  0  0  0  0  0  0
    0.0780    8.2600   -0.6760 O   0  0  0  0  0  0  0  0  0  0  0  0
    0.6290    9.9480   -2.3510 C   0  0  0  0  0  0  0  0  0  0  0  0
    0.0900   10.6070   -3.6450 C   0  0  0  0  0  0  0  0  0  0  0  0
    1.7740    8.9970   -2.7930 C   0  0  0  0  0  0  0  0  0  0  0  0
    0.4460   13.0070    0.3040 C   0  0  1  0  0  0  0  0  0  0  0  0
    0.6370   12.3910    1.7240 C   0  0  0  0  0  0  0  0  0  0  0  0
   -0.6840   14.0950    0.4400 C   0  0  0  0  0  0  0  0  0  0  0  0
   -0.6580   15.2540   -0.5740 C   0  0  0  0  0  0  0  0  0  0  0  0
    0.7410   15.8710   -0.6670 C   0  0  2  0  0  0  0  0  0  0  0  0
    1.0910   16.4740    0.7360 C   0  0  0  0  0  0  0  0  0  0  0  0
    1.4779   20.2009   -1.7804 H   0  0  0  0  0  0  0  0  0  0  0  0
    1.7611   18.9120   -2.9991 H   0  0  0  0  0  0  0  0  0  0  0  0
    0.2133   19.8236   -2.9991 H   0  0  0  0  0  0  0  0  0  0  0  0
   -0.6934   18.3765   -1.5645 H   0  0  0  0  0  0  0  0  0  0  0  0
   -0.3052   18.7592    0.5895 H   0  0  0  0  0  0  0  0  0  0  0  0
    1.3154   17.9213    0.4677 H   0  0  0  0  0  0  0  0  0  0  0  0
    1.2670   20.6534   -0.6396 H   0  0  0  0  0  0  0  0  0  0  0  0
    0.9525   20.5421    1.1426 H   0  0  0  0  0  0  0  0  0  0  0  0
    3.1099   20.3303   -0.4273 H   0  0  0  0  0  0  0  0  0  0  0  0
    3.2455   19.9832    4.0234 H   0  0  0  0  0  0  0  0  0  0  0  0
    2.3321   21.2363    3.1167 H   0  0  0  0  0  0  0  0  0  0  0  0
    1.7616   19.5331    3.1167 H   0  0  0  0  0  0  0  0  0  0  0  0
    5.2256   20.2414    3.0774 H   0  0  0  0  0  0  0  0  0  0  0  0
    5.5080   19.3810    1.5261 H   0  0  0  0  0  0  0  0  0  0  0  0
    5.1698   21.1452    1.5261 H   0  0  0  0  0  0  0  0  0  0  0  0
    0.3528   16.7486   -2.6298 H   0  0  0  0  0  0  0  0  0  0  0  0
    2.7170   17.0616   -3.0121 H   0  0  0  0  0  0  0  0  0  0  0  0
    2.9504   17.8283   -1.4263 H   0  0  0  0  0  0  0  0  0  0  0  0
    3.6894   15.1517   -2.1020 H   0  0  0  0  0  0  0  0  0  0  0  0
    3.5796   15.7589   -0.4521 H   0  0  0  0  0  0  0  0  0  0  0  0
    0.8611   13.2511   -2.4859 H   0  0  0  0  0  0  0  0  0  0  0  0
    0.7890   14.9211   -3.1435 H   0  0  0  0  0  0  0  0  0  0  0  0
    2.3442   14.0223   -3.1435 H   0  0  0  0  0  0  0  0  0  0  0  0
    2.2166   14.1763    0.7746 H   0  0  0  0  0  0  0  0  0  0  0  0
    3.7018   13.0060   -0.9765 H   0  0  0  0  0  0  0  0  0  0  0  0
    3.1949   12.1461    0.5702 H   0  0  0  0  0  0  0  0  0  0  0  0
    3.1255   10.7104   -1.6386 H   0  0  0  0  0  0  0  0  0  0  0  0
   -0.5025   12.4751   -1.5148 H   0  0  0  0  0  0  0  0  0  0  0  0
   -0.5995   10.3724    0.7358 H   0  0  0  0  0  0  0  0  0  0  0  0
   -1.9228   11.5279    0.2630 H   0  0  0  0  0  0  0  0  0  0  0  0
   -2.3261    9.2418   -0.5923 H   0  0  0  0  0  0  0  0  0  0  0  0
   -2.1188   10.4624   -1.9092 H   0  0  0  0  0  0  0  0  0  0  0  0
   -0.9200    8.4721   -2.5068 H   0  0  0  0  0  0  0  0  0  0  0  0
    0.0220    7.3370   -0.9750 H   0  0  0  0  0  0  0  0  0  0  0  0
   -0.5861   11.4336   -3.3813 H   0  0  0  0  0  0  0  0  0  0  0  0
    0.9319   10.9963   -4.2363 H   0  0  0  0  0  0  0  0  0  0  0  0
   -0.4586    9.8591   -4.2363 H   0  0  0  0  0  0  0  0  0  0  0  0
    2.2715    8.5838   -1.9032 H   0  0  0  0  0  0  0  0  0  0  0  0
    1.3570    8.1758   -3.3945 H   0  0  0  0  0  0  0  0  0  0  0  0
    2.5047    9.5576   -3.3945 H   0  0  0  0  0  0  0  0  0  0  0  0
    0.4023   13.1481    2.4867 H   0  0  0  0  0  0  0  0  0  0  0  0
   -0.0361   11.5292    1.8434 H   0  0  0  0  0  0  0  0  0  0  0  0
    1.6796   12.0612    1.8434 H   0  0  0  0  0  0  0  0  0  0  0  0
   -1.6524   13.5837    0.3362 H   0  0  0  0  0  0  0  0  0  0  0  0
   -0.5138   14.5658    1.4195 H   0  0  0  0  0  0  0  0  0  0  0  0
   -0.9494   14.8726   -1.5637 H   0  0  0  0  0  0  0  0  0  0  0  0
   -1.3614   16.0298   -0.2375 H   0  0  0  0  0  0  0  0  0  0  0  0
    0.7067   15.8119    1.5259 H   0  0  0  0  0  0  0  0  0  0  0  0
    2.1828   16.5659    0.8336 H   0  0  0  0  0  0  0  0  0  0  0  0
    0.6292   17.4676    0.8336 H   0  0  0  0  0  0  0  0  0  0  0  0
  1  2  1  0
  2  3  1  0
  3  4  1  0
  4  5  1  0
  5  6  1  0
  6  7  1  0
  7  8  1  0
  7  9  1  0
  2 10  1  0
 10 11  1  0
 11 12  1  0
 12 13  1  0
 13 14  1  6
 13 15  1  0
 15 16  1  0
 16 17  1  0
 17 18  2  0
 18 19  1  0
 19 20  1  0
 20 21  1  0
 21 22  1  0
 22 23  1  0
 22 24  1  0
 24 25  1  0
 24 26  1  0
 19 27  1  0
 27 28  1  1
 27 29  1  0
 29 30  1  0
 30 31  1  0
 31 32  1  1
  7  5  1  0
 31 10  1  0
 31 13  1  0
 27 15  1  0
 24 18  1  0
  1 33  1  0
  1 34  1  0
  1 35  1  0
  2 36  1  1
  3 37  1  0
  3 38  1  0
  4 39  1  0
  4 40  1  0
  5 41  1  6
  8 42  1  0
  8 43  1  0
  8 44  1  0
  9 45  1  0
  9 46  1  0
  9 47  1  0
 10 48  1  6
 11 49  1  0
 11 50  1  0
 12 51  1  0
 12 52  1  0
 14 53  1  0
 14 54  1  0
 14 55  1  0
 15 56  1  1
 16 57  1  0
 16 58  1  0
 17 59  1  0
 19 60  1  6
 20 61  1  0
 20 62  1  0
 21 63  1  0
 21 64  1  0
 22 65  1  6
 23 66  1  0
 25 67  1  0
 25 68  1  0
 25 69  1  0
 26 70  1  0
 26 71  1  0
 26 72  1  0
 28 73  1  0
 28 74  1  0
 28 75  1  0
 29 76  1  0
 29 77  1  0
 30 78  1  0
 30 79  1  0
 32 80  1  0
 32 81  1  0
 32 82  1  0
M  END
>  <meeko>  (13) 
{"is_sidechain": [false], "intermolecular_energy": 2.731, "internal_energy": -0.839}

$$$$
EPH_relaxed_0001_pdb2pqr_Repair_15_r2_0001_out
     RDKit          3D

 82 86  0  0  0  0  0  0  0  0999 V2000
   -2.2610    7.7730   -2.4060 C   0  0  0  0  0  0  0  0  0  0  0  0
   -2.2920    8.3760   -0.9990 C   0  0  2  0  0  0  0  0  0  0  0  0
   -3.7070    8.3480   -0.3870 C   0  0  0  0  0  0  0  0  0  0  0  0
   -4.8020    7.9620   -1.3840 C   0  0  0  0  0  0  0  0  0  0  0  0
   -5.9190    7.2150   -0.7200 C   0  0  2  0  0  0  0  0  0  0  0  0
   -6.3920    6.0740   -1.4470 O   0  0  0  0  0  0  0  0  0  0  0  0
   -7.3290    7.1500   -1.2760 C   0  0  0  0  0  0  0  0  0  0  0  0
   -7.6980    7.8430   -2.5500 C   0  0  0  0  0  0  0  0  0  0  0  0
   -8.4530    6.8280   -0.3420 C   0  0  0  0  0  0  0  0  0  0  0  0
   -1.7680    9.8060   -1.0350 C   0  0  1  0  0  0  0  0  0  0  0  0
   -1.3620   10.3300    0.3690 C   0  0  0  0  0  0  0  0  0  0  0  0
   -0.1380   11.2580    0.1640 C   0  0  0  0  0  0  0  0  0  0  0  0
   -0.0850   11.5030   -1.3630 C   0  0  1  0  0  0  0  0  0  0  0  0
   -1.1380   12.6240   -1.6260 C   0  0  0  0  0  0  0  0  0  0  0  0
    1.3140   11.8740   -1.9550 C   0  0  2  0  0  0  0  0  0  0  0  0
    1.9150   13.1900   -1.4320 C   0  0  0  0  0  0  0  0  0  0  0  0
    1.5700   14.4080   -2.2230 C   0  0  0  0  0  0  0  0  0  0  0  0
    1.0470   14.4130   -3.4630 C   0  0  0  0  0  0  0  0  0  0  0  0
    0.8410   13.1040   -4.2360 C   0  0  1  0  0  0  0  0  0  0  0  0
    1.3690   13.2700   -5.6850 C   0  0  0  0  0  0  0  0  0  0  0  0
    0.7550   14.4710   -6.3980 C   0  0  0  0  0  0  0  0  0  0  0  0
    1.0300   15.7610   -5.6290 C   0  0  2  0  0  0  0  0  0  0  0  0
    2.4350   16.0300   -5.6690 O   0  0  0  0  0  0  0  0  0  0  0  0
    0.5500   15.7080   -4.1510 C   0  0  0  0  0  0  0  0  0  0  0  0
   -0.9980   15.7190   -4.1060 C   0  0  0  0  0  0  0  0  0  0  0  0
    1.0140   17.0140   -3.4510 C   0  0  0  0  0  0  0  0  0  0  0  0
    1.3920   11.7890   -3.5330 C   0  0  1  0  0  0  0  0  0  0  0  0
    2.8950   11.5830   -3.8930 C   0  0  0  0  0  0  0  0  0  0  0  0
    0.6230   10.5400   -4.1040 C   0  0  0  0  0  0  0  0  0  0  0  0
   -0.6910   10.1510   -3.4010 C   0  0  0  0  0  0  0  0  0  0  0  0
   -0.5000   10.0780   -1.8830 C   0  0  2  0  0  0  0  0  0  0  0  0
    0.5380    8.9430   -1.5860 C   0  0  0  0  0  0  0  0  0  0  0  0
   -2.2046    6.6768   -2.3340 H   0  0  0  0  0  0  0  0  0  0  0  0
   -3.1750    8.0584   -2.9474 H   0  0  0  0  0  0  0  0  0  0  0  0
   -1.3811    8.1506   -2.9474 H   0  0  0  0  0  0  0  0  0  0  0  0
   -1.6436    7.7589   -0.3597 H   0  0  0  0  0  0  0  0  0  0  0  0
   -3.7146    7.6188    0.4365 H   0  0  0  0  0  0  0  0  0  0  0  0
   -3.9294    9.3697   -0.0456 H   0  0  0  0  0  0  0  0  0  0  0  0
   -5.2071    8.8772   -1.8403 H   0  0  0  0  0  0  0  0  0  0  0  0
   -4.3560    7.3055   -2.1456 H   0  0  0  0  0  0  0  0  0  0  0  0
   -5.5300    7.4726    0.2761 H   0  0  0  0  0  0  0  0  0  0  0  0
   -8.2034    8.7921   -2.3181 H   0  0  0  0  0  0  0  0  0  0  0  0
   -6.7882    8.0453   -3.1342 H   0  0  0  0  0  0  0  0  0  0  0  0
   -8.3737    7.2010   -3.1342 H   0  0  0  0  0  0  0  0  0  0  0  0
   -8.1061    6.9274    0.6971 H   0  0  0  0  0  0  0  0  0  0  0  0
   -9.2869    7.5234   -0.5183 H   0  0  0  0  0  0  0  0  0  0  0  0
   -8.7922    5.7966   -0.5183 H   0  0  0  0  0  0  0  0  0  0  0  0
   -2.6370   10.3087   -1.4845 H   0  0  0  0  0  0  0  0  0  0  0  0
   -2.1933   10.8934    0.8179 H   0  0  0  0  0  0  0  0  0  0  0  0
   -1.1173    9.4977    1.0453 H   0  0  0  0  0  0  0  0  0  0  0  0
   -0.2746   12.2061    0.7049 H   0  0  0  0  0  0  0  0  0  0  0  0
    0.7919   10.8127    0.5475 H   0  0  0  0  0  0  0  0  0  0  0  0
   -1.5051   13.0148   -0.6655 H   0  0  0  0  0  0  0  0  0  0  0  0
   -0.6710   13.4386   -2.1989 H   0  0  0  0  0  0  0  0  0  0  0  0
   -1.9802   12.2088   -2.1989 H   0  0  0  0  0  0  0  0  0  0  0  0
    1.9580   11.0744   -1.5601 H   0  0  0  0  0  0  0  0  0  0  0  0
    1.5581   13.3411   -0.4025 H   0  0  0  0  0  0  0  0  0  0  0  0
    3.0065   13.0771   -1.5081 H   0  0  0  0  0  0  0  0  0  0  0  0
    1.7593   15.3841   -1.7525 H   0  0  0  0  0  0  0  0  0  0  0  0
   -0.2447   12.9281   -4.2518 H   0  0  0  0  0  0  0  0  0  0  0  0
    2.4606   13.4013   -5.6496 H   0  0  0  0  0  0  0  0  0  0  0  0
    1.0875   12.3679   -6.2481 H   0  0  0  0  0  0  0  0  0  0  0  0
    1.1896   14.5526   -7.4052 H   0  0  0  0  0  0  0  0  0  0  0  0
   -0.3334   14.3241   -6.4596 H   0  0  0  0  0  0  0  0  0  0  0  0
    0.4571   16.5640   -6.1158 H   0  0  0  0  0  0  0  0  0  0  0  0
    2.5520   16.9310   -6.0160 H   0  0  0  0  0  0  0  0  0  0  0  0
   -1.3344   15.7214   -3.0587 H   0  0  0  0  0  0  0  0  0  0  0  0
   -1.3732   16.6198   -4.6137 H   0  0  0  0  0  0  0  0  0  0  0  0
   -1.3860   14.8236   -4.6137 H   0  0  0  0  0  0  0  0  0  0  0  0
    0.9670   16.8818   -2.3600 H   0  0  0  0  0  0  0  0  0  0  0  0
    2.0482   17.2420   -3.7486 H   0  0  0  0  0  0  0  0  0  0  0  0
    0.3555   17.8434   -3.7486 H   0  0  0  0  0  0  0  0  0  0  0  0
    3.4857   11.5020   -2.9686 H   0  0  0  0  0  0  0  0  0  0  0  0
    3.0079   10.6610   -4.4822 H   0  0  0  0  0  0  0  0  0  0  0  0
    3.2518   12.4406   -4.4822 H   0  0  0  0  0  0  0  0  0  0  0  0
    0.3872   10.7480   -5.1581 H   0  0  0  0  0  0  0  0  0  0  0  0
    1.2990    9.6875   -3.9416 H   0  0  0  0  0  0  0  0  0  0  0  0
   -1.4589   10.9042   -3.6312 H   0  0  0  0  0  0  0  0  0  0  0  0
   -1.0026    9.1602   -3.7633 H   0  0  0  0  0  0  0  0  0  0  0  0
    0.6483    8.8224   -0.4982 H   0  0  0  0  0  0  0  0  0  0  0  0
    0.1845    7.9986   -2.0256 H   0  0  0  0  0  0  0  0  0  0  0  0
    1.5101    9.2109   -2.0256 H   0  0  0  0  0  0  0  0  0  0  0  0
  1  2  1  0
  2  3  1  0
  3  4  1  0
  4  5  1  0
  5  6  1  0
  6  7  1  0
  7  8  1  0
  7  9  1  0
  2 10  1  0
 10 11  1  0
 11 12  1  0
 12 13  1  0
 13 14  1  1
 13 15  1  0
 15 16  1  0
 16 17  1  0
 17 18  2  0
 18 19  1  0
 19 20  1  0
 20 21  1  0
 21 22  1  0
 22 23  1  0
 22 24  1  0
 24 25  1  0
 24 26  1  0
 19 27  1  0
 27 28  1  1
 27 29  1  0
 29 30  1  0
 30 31  1  0
 31 32  1  6
  7  5  1  0
 31 10  1  0
 31 13  1  0
 27 15  1  0
 24 18  1  0
  1 33  1  0
  1 34  1  0
  1 35  1  0
  2 36  1  1
  3 37  1  0
  3 38  1  0
  4 39  1  0
  4 40  1  0
  5 41  1  1
  8 42  1  0
  8 43  1  0
  8 44  1  0
  9 45  1  0
  9 46  1  0
  9 47  1  0
 10 48  1  6
 11 49  1  0
 11 50  1  0
 12 51  1  0
 12 52  1  0
 14 53  1  0
 14 54  1  0
 14 55  1  0
 15 56  1  1
 16 57  1  0
 16 58  1  0
 17 59  1  0
 19 60  1  6
 20 61  1  0
 20 62  1  0
 21 63  1  0
 21 64  1  0
 22 65  1  6
 23 66  1  0
 25 67  1  0
 25 68  1  0
 25 69  1  0
 26 70  1  0
 26 71  1  0
 26 72  1  0
 28 73  1  0
 28 74  1  0
 28 75  1  0
 29 76  1  0
 29 77  1  0
 30 78  1  0
 30 79  1  0
 32 80  1  0
 32 81  1  0
 32 82  1  0
M  END
>  <meeko>  (14) 
{"is_sidechain": [false], "intermolecular_energy": 2.731, "internal_energy": -0.839}

$$$$
EPH_relaxed_0001_pdb2pqr_Repair_15_r2_0001_out
     RDKit          3D

 82 86  0  0  0  0  0  0  0  0999 V2000
   -4.1680    7.3440   -3.6550 C   0  0  0  0  0  0  0  0  0  0  0  0
   -3.7750    7.2380   -2.1780 C   0  0  2  0  0  0  0  0  0  0  0  0
   -4.9500    6.7680   -1.2970 C   0  0  0  0  0  0  0  0  0  0  0  0
   -6.2030    6.3900   -2.0920 C   0  0  0  0  0  0  0  0  0  0  0  0
   -7.4020    6.2500   -1.2040 C   0  0  2  0  0  0  0  0  0  0  0  0
   -8.5190    5.5830   -1.8060 O   0  0  0  0  0  0  0  0  0  0  0  0
   -8.7180    6.9620   -1.4550 C   0  0  0  0  0  0  0  0  0  0  0  0
   -8.9020    7.8700   -2.6310 C   0  0  0  0  0  0  0  0  0  0  0  0
   -9.6540    7.1620   -0.3040 C   0  0  0  0  0  0  0  0  0  0  0  0
   -3.2570    8.5830   -1.6810 C   0  0  1  0  0  0  0  0  0  0  0  0
   -3.9500    9.0420   -0.3700 C   0  0  0  0  0  0  0  0  0  0  0  0
   -2.8790    9.7930    0.4620 C   0  0  0  0  0  0  0  0  0  0  0  0
   -1.7130   10.0300   -0.5250 C   0  0  1  0  0  0  0  0  0  0  0  0
   -2.1340   11.2860   -1.3490 C   0  0  0  0  0  0  0  0  0  0  0  0
   -0.2950   10.2040    0.1100 C   0  0  2  0  0  0  0  0  0  0  0  0
   -0.1400   11.4230    1.0360 C   0  0  0  0  0  0  0  0  0  0  0  0
    0.3130   12.6790    0.3670 C   0  0  0  0  0  0  0  0  0  0  0  0
    0.8570   12.7580   -0.8620 C   0  0  0  0  0  0  0  0  0  0  0  0
    1.1540   11.4920   -1.6750 C   0  0  1  0  0  0  0  0  0  0  0  0
    2.5810   11.5860   -2.2760 C   0  0  0  0  0  0  0  0  0  0  0  0
    2.7920   12.8620   -3.0850 C   0  0  0  0  0  0  0  0  0  0  0  0
    2.5430   14.1000   -2.2270 C   0  0  2  0  0  0  0  0  0  0  0  0
    3.5550   14.1720   -1.2180 O   0  0  0  0  0  0  0  0  0  0  0  0
    1.1390   14.1110   -1.5610 C   0  0  0  0  0  0  0  0  0  0  0  0
    0.0520   14.3370   -2.6410 C   0  0  0  0  0  0  0  0  0  0  0  0
    1.0710   15.3390   -0.6130 C   0  0  0  0  0  0  0  0  0  0  0  0
    0.8960   10.1130   -0.9290 C   0  0  1  0  0  0  0  0  0  0  0  0
    2.1630    9.7010   -0.1180 C   0  0  0  0  0  0  0  0  0  0  0  0
    0.6690    8.9830   -2.0010 C   0  0  0  0  0  0  0  0  0  0  0  0
   -0.7740    8.7790   -2.5010 C   0  0  0  0  0  0  0  0  0  0  0  0
   -1.7520    8.6780   -1.3260 C   0  0  2  0  0  0  0  0  0  0  0  0
   -1.3670    7.4090   -0.4910 C   0  0  0  0  0  0  0  0  0  0  0  0
   -5.2274    7.6297   -3.7329 H   0  0  0  0  0  0  0  0  0  0  0  0
   -3.5455    8.1063   -4.1463 H   0  0  0  0  0  0  0  0  0  0  0  0
   -4.0133    6.3720   -4.1463 H   0  0  0  0  0  0  0  0  0  0  0  0
   -2.9805    6.4812   -2.0999 H   0  0  0  0  0  0  0  0  0  0  0  0
   -4.6238    5.8877   -0.7238 H   0  0  0  0  0  0  0  0  0  0  0  0
   -5.2237    7.6134   -0.6486 H   0  0  0  0  0  0  0  0  0  0  0  0
   -6.4016    7.1735   -2.8381 H   0  0  0  0  0  0  0  0  0  0  0  0
   -6.0211    5.4200   -2.5777 H   0  0  0  0  0  0  0  0  0  0  0  0
   -6.7615    6.1763   -0.3127 H   0  0  0  0  0  0  0  0  0  0  0  0
   -9.1089    8.8908   -2.2772 H   0  0  0  0  0  0  0  0  0  0  0  0
   -7.9859    7.8716   -3.2399 H   0  0  0  0  0  0  0  0  0  0  0  0
   -9.7464    7.5148   -3.2399 H   0  0  0  0  0  0  0  0  0  0  0  0
   -9.1035    7.0444    0.6410 H   0  0  0  0  0  0  0  0  0  0  0  0
  -10.0855    8.1726   -0.3536 H   0  0  0  0  0  0  0  0  0  0  0  0
  -10.4608    6.4160   -0.3536 H   0  0  0  0  0  0  0  0  0  0  0  0
   -3.4756    9.2027   -2.5632 H   0  0  0  0  0  0  0  0  0  0  0  0
   -4.7902    9.7135   -0.6006 H   0  0  0  0  0  0  0  0  0  0  0  0
   -4.3517    8.1824    0.1866 H   0  0  0  0  0  0  0  0  0  0  0  0
   -3.2754   10.7502    0.8316 H   0  0  0  0  0  0  0  0  0  0  0  0
   -2.5651    9.2232    1.3490 H   0  0  0  0  0  0  0  0  0  0  0  0
   -2.4070   12.1006   -0.6620 H   0  0  0  0  0  0  0  0  0  0  0  0
   -1.2943   11.6070   -1.9830 H   0  0  0  0  0  0  0  0  0  0  0  0
   -2.9975   11.0361   -1.9830 H   0  0  0  0  0  0  0  0  0  0  0  0
   -0.2186    9.3214    0.7621 H   0  0  0  0  0  0  0  0  0  0  0  0
   -1.1156   11.6202    1.5044 H   0  0  0  0  0  0  0  0  0  0  0  0
    0.6492   11.1600    1.7557 H   0  0  0  0  0  0  0  0  0  0  0  0
    0.1920   13.6189    0.9255 H   0  0  0  0  0  0  0  0  0  0  0  0
    0.4089   11.4679   -2.4839 H   0  0  0  0  0  0  0  0  0  0  0  0
    3.3119   11.5646   -1.4542 H   0  0  0  0  0  0  0  0  0  0  0  0
    2.7132   10.7328   -2.9576 H   0  0  0  0  0  0  0  0  0  0  0  0
    3.8266   12.8847   -3.4580 H   0  0  0  0  0  0  0  0  0  0  0  0
    2.0803   12.8674   -3.9237 H   0  0  0  0  0  0  0  0  0  0  0  0
    2.5815   14.9758   -2.8915 H   0  0  0  0  0  0  0  0  0  0  0  0
    4.2170   14.8210   -1.5120 H   0  0  0  0  0  0  0  0  0  0  0  0
   -0.9133   14.5377   -2.1533 H   0  0  0  0  0  0  0  0  0  0  0  0
    0.3315   15.1962   -3.2684 H   0  0  0  0  0  0  0  0  0  0  0  0
   -0.0342   13.4376   -3.2684 H   0  0  0  0  0  0  0  0  0  0  0  0
    1.0899   14.9968    0.4322 H   0  0  0  0  0  0  0  0  0  0  0  0
    1.9342   15.9947   -0.7998 H   0  0  0  0  0  0  0  0  0  0  0  0
    0.1407   15.8954   -0.7998 H   0  0  0  0  0  0  0  0  0  0  0  0
    1.9480    9.7709    0.9585 H   0  0  0  0  0  0  0  0  0  0  0  0
    2.4395    8.6666   -0.3703 H   0  0  0  0  0  0  0  0  0  0  0  0
    2.9950   10.3749   -0.3703 H   0  0  0  0  0  0  0  0  0  0  0  0
    1.2930    9.2229   -2.8745 H   0  0  0  0  0  0  0  0  0  0  0  0
    0.9318    8.0449   -1.4902 H   0  0  0  0  0  0  0  0  0  0  0  0
   -1.0593    9.6318   -3.1345 H   0  0  0  0  0  0  0  0  0  0  0  0
   -0.8172    7.8417   -3.0751 H   0  0  0  0  0  0  0  0  0  0  0  0
   -1.4373    7.6409    0.5820 H   0  0  0  0  0  0  0  0  0  0  0  0
   -2.0562    6.5869   -0.7344 H   0  0  0  0  0  0  0  0  0  0  0  0
   -0.3372    7.1084   -0.7344 H   0  0  0  0  0  0  0  0  0  0  0  0
  1  2  1  0
  2  3  1  0
  3  4  1  0
  4  5  1  0
  5  6  1  0
  6  7  1  0
  7  8  1  0
  7  9  1  0
  2 10  1  0
 10 11  1  0
 11 12  1  0
 12 13  1  0
 13 14  1  6
 13 15  1  0
 15 16  1  0
 16 17  1  0
 17 18  2  0
 18 19  1  0
 19 20  1  0
 20 21  1  0
 21 22  1  0
 22 23  1  0
 22 24  1  0
 24 25  1  0
 24 26  1  0
 19 27  1  0
 27 28  1  1
 27 29  1  0
 29 30  1  0
 30 31  1  0
 31 32  1  1
  7  5  1  0
 31 10  1  0
 31 13  1  0
 27 15  1  0
 24 18  1  0
  1 33  1  0
  1 34  1  0
  1 35  1  0
  2 36  1  6
  3 37  1  0
  3 38  1  0
  4 39  1  0
  4 40  1  0
  5 41  1  1
  8 42  1  0
  8 43  1  0
  8 44  1  0
  9 45  1  0
  9 46  1  0
  9 47  1  0
 10 48  1  6
 11 49  1  0
 11 50  1  0
 12 51  1  0
 12 52  1  0
 14 53  1  0
 14 54  1  0
 14 55  1  0
 15 56  1  1
 16 57  1  0
 16 58  1  0
 17 59  1  0
 19 60  1  6
 20 61  1  0
 20 62  1  0
 21 63  1  0
 21 64  1  0
 22 65  1  6
 23 66  1  0
 25 67  1  0
 25 68  1  0
 25 69  1  0
 26 70  1  0
 26 71  1  0
 26 72  1  0
 28 73  1  0
 28 74  1  0
 28 75  1  0
 29 76  1  0
 29 77  1  0
 30 78  1  0
 30 79  1  0
 32 80  1  0
 32 81  1  0
 32 82  1  0
M  END
>  <meeko>  (15) 
{"is_sidechain": [false], "intermolecular_energy": 2.731, "internal_energy": -0.839}

$$$$
EPH_relaxed_0001_pdb2pqr_Repair_15_r2_0001_out
     RDKit          3D

 82 86  0  0  0  0  0  0  0  0999 V2000
   -1.7330   14.8140    0.5180 C   0  0  0  0  0  0  0  0  0  0  0  0
   -0.3920   15.5160    0.2850 C   0  0  2  0  0  0  0  0  0  0  0  0
   -0.4580   16.5210   -0.8830 C   0  0  0  0  0  0  0  0  0  0  0  0
   -0.0500   17.9440   -0.4930 C   0  0  0  0  0  0  0  0  0  0  0  0
    1.3780   18.0080   -0.0420 C   0  0  2  0  0  0  0  0  0  0  0  0
    2.0530   19.2310   -0.3630 O   0  0  0  0  0  0  0  0  0  0  0  0
    2.5560   18.0440   -0.9980 C   0  0  0  0  0  0  0  0  0  0  0  0
    2.3590   18.0170   -2.4810 C   0  0  0  0  0  0  0  0  0  0  0  0
    3.8990   17.6140   -0.4950 C   0  0  0  0  0  0  0  0  0  0  0  0
    0.6960   14.4820    0.0210 C   0  0  1  0  0  0  0  0  0  0  0  0
    0.8210   13.4400    1.1640 C   0  0  0  0  0  0  0  0  0  0  0  0
    1.1950   12.0900    0.5000 C   0  0  0  0  0  0  0  0  0  0  0  0
    1.5970   12.4640   -0.9450 C   0  0  1  0  0  0  0  0  0  0  0  0
    3.0720   12.9630   -0.8350 C   0  0  0  0  0  0  0  0  0  0  0  0
    1.4470   11.3360   -2.0180 C   0  0  2  0  0  0  0  0  0  0  0  0
    2.3260   10.0950   -1.7870 C   0  0  0  0  0  0  0  0  0  0  0  0
    3.6730   10.1390   -2.4290 C   0  0  0  0  0  0  0  0  0  0  0  0
    4.0530   11.0000   -3.3920 C   0  0  0  0  0  0  0  0  0  0  0  0
    3.0530   11.9920   -4.0010 C   0  0  1  0  0  0  0  0  0  0  0  0
    3.1830   11.9750   -5.5460 C   0  0  0  0  0  0  0  0  0  0  0  0
    4.6130   12.2250   -6.0160 C   0  0  0  0  0  0  0  0  0  0  0  0
    5.5670   11.1840   -5.4360 C   0  0  2  0  0  0  0  0  0  0  0  0
    5.2500    9.9060   -5.9950 O   0  0  0  0  0  0  0  0  0  0  0  0
    5.5170   11.1040   -3.8850 C   0  0  0  0  0  0  0  0  0  0  0  0
    6.1460   12.3820   -3.2770 C   0  0  0  0  0  0  0  0  0  0  0  0
    6.4190    9.9220   -3.4390 C   0  0  0  0  0  0  0  0  0  0  0  0
    1.5480   11.8460   -3.5130 C   0  0  1  0  0  0  0  0  0  0  0  0
    0.8030   10.7960   -4.3930 C   0  0  0  0  0  0  0  0  0  0  0  0
    0.8020   13.2160   -3.7290 C   0  0  0  0  0  0  0  0  0  0  0  0
    0.8880   14.2430   -2.5840 C   0  0  0  0  0  0  0  0  0  0  0  0
    0.5440   13.5940   -1.2400 C   0  0  2  0  0  0  0  0  0  0  0  0
   -0.9420   13.1020   -1.3120 C   0  0  0  0  0  0  0  0  0  0  0  0
   -1.9143   14.7191    1.5988 H   0  0  0  0  0  0  0  0  0  0  0  0
   -2.5405   15.4050    0.0613 H   0  0  0  0  0  0  0  0  0  0  0  0
   -1.7074   13.8136    0.0613 H   0  0  0  0  0  0  0  0  0  0  0  0
   -0.1526   16.0839    1.1961 H   0  0  0  0  0  0  0  0  0  0  0  0
    0.2156   16.1725   -1.6798 H   0  0  0  0  0  0  0  0  0  0  0  0
   -1.5072   16.5653   -1.2106 H   0  0  0  0  0  0  0  0  0  0  0  0
   -0.1784   18.6030   -1.3643 H   0  0  0  0  0  0  0  0  0  0  0  0
   -0.6881   18.2665    0.3430 H   0  0  0  0  0  0  0  0  0  0  0  0
    1.1553   17.3772    0.8312 H   0  0  0  0  0  0  0  0  0  0  0  0
    1.2924   17.8708   -2.7066 H   0  0  0  0  0  0  0  0  0  0  0  0
    2.6980   18.9700   -2.9133 H   0  0  0  0  0  0  0  0  0  0  0  0
    2.9419   17.1903   -2.9133 H   0  0  0  0  0  0  0  0  0  0  0  0
    3.8961   17.6149    0.6050 H   0  0  0  0  0  0  0  0  0  0  0  0
    4.1200   16.6002   -0.8602 H   0  0  0  0  0  0  0  0  0  0  0  0
    4.6677   18.3109   -0.8602 H   0  0  0  0  0  0  0  0  0  0  0  0
    1.5613   15.1516   -0.0928 H   0  0  0  0  0  0  0  0  0  0  0  0
    1.6070   13.7452    1.8704 H   0  0  0  0  0  0  0  0  0  0  0  0
   -0.1206   13.3559    1.7264 H   0  0  0  0  0  0  0  0  0  0  0  0
    2.0370   11.6180    1.0274 H   0  0  0  0  0  0  0  0  0  0  0  0
    0.3661   11.3674    0.5285 H   0  0  0  0  0  0  0  0  0  0  0  0
    3.3492   13.0568    0.2254 H   0  0  0  0  0  0  0  0  0  0  0  0
    3.7409   12.2411   -1.3264 H   0  0  0  0  0  0  0  0  0  0  0  0
    3.1653   13.9427   -1.3264 H   0  0  0  0  0  0  0  0  0  0  0  0
    0.4107   11.0006   -1.8645 H   0  0  0  0  0  0  0  0  0  0  0  0
    2.4699    9.9775   -0.7028 H   0  0  0  0  0  0  0  0  0  0  0  0
    1.7935    9.2537   -2.2546 H   0  0  0  0  0  0  0  0  0  0  0  0
    4.4182    9.4060   -2.0864 H   0  0  0  0  0  0  0  0  0  0  0  0
    3.3330   12.9830   -3.6142 H   0  0  0  0  0  0  0  0  0  0  0  0
    2.8569   10.9919   -5.9164 H   0  0  0  0  0  0  0  0  0  0  0  0
    2.5547   12.7861   -5.9427 H   0  0  0  0  0  0  0  0  0  0  0  0
    4.6457   12.1712   -7.1142 H   0  0  0  0  0  0  0  0  0  0  0  0
    4.9274   13.2209   -5.6705 H   0  0  0  0  0  0  0  0  0  0  0  0
    6.5899   11.4901   -5.7007 H   0  0  0  0  0  0  0  0  0  0  0  0
    4.3760    9.9770   -6.4150 H   0  0  0  0  0  0  0  0  0  0  0  0
    6.1151   12.3193   -2.1792 H   0  0  0  0  0  0  0  0  0  0  0  0
    7.1906   12.4706   -3.6100 H   0  0  0  0  0  0  0  0  0  0  0  0
    5.5790   13.2638   -3.6100 H   0  0  0  0  0  0  0  0  0  0  0  0
    6.4513    9.8797   -2.3403 H   0  0  0  0  0  0  0  0  0  0  0  0
    6.0084    8.9795   -3.8303 H   0  0  0  0  0  0  0  0  0  0  0  0
    7.4364   10.0692   -3.8303 H   0  0  0  0  0  0  0  0  0  0  0  0
    0.2892   10.0718   -3.7437 H   0  0  0  0  0  0  0  0  0  0  0  0
    0.0647   11.3075   -5.0280 H   0  0  0  0  0  0  0  0  0  0  0  0
    1.5297   10.2680   -5.0280 H   0  0  0  0  0  0  0  0  0  0  0  0
    1.2238   13.6860   -4.6297 H   0  0  0  0  0  0  0  0  0  0  0  0
   -0.2640   12.9545   -3.8010 H   0  0  0  0  0  0  0  0  0  0  0  0
    1.9104   14.6461   -2.5380 H   0  0  0  0  0  0  0  0  0  0  0  0
    0.1654   15.0489   -2.7800 H   0  0  0  0  0  0  0  0  0  0  0  0
   -1.3350   12.9719   -0.2929 H   0  0  0  0  0  0  0  0  0  0  0  0
   -1.5494   13.8470   -1.8468 H   0  0  0  0  0  0  0  0  0  0  0  0
   -0.9848   12.1417   -1.8468 H   0  0  0  0  0  0  0  0  0  0  0  0
  1  2  1  0
  2  3  1  0
  3  4  1  0
  4  5  1  0
  5  6  1  0
  6  7  1  0
  7  8  1  0
  7  9  1  0
  2 10  1  0
 10 11  1  0
 11 12  1  0
 12 13  1  0
 13 14  1  1
 13 15  1  0
 15 16  1  0
 16 17  1  0
 17 18  2  0
 18 19  1  0
 19 20  1  0
 20 21  1  0
 21 22  1  0
 22 23  1  0
 22 24  1  0
 24 25  1  0
 24 26  1  0
 19 27  1  0
 27 28  1  6
 27 29  1  0
 29 30  1  0
 30 31  1  0
 31 32  1  6
  7  5  1  0
 31 10  1  0
 31 13  1  0
 27 15  1  0
 24 18  1  0
  1 33  1  0
  1 34  1  0
  1 35  1  0
  2 36  1  1
  3 37  1  0
  3 38  1  0
  4 39  1  0
  4 40  1  0
  5 41  1  1
  8 42  1  0
  8 43  1  0
  8 44  1  0
  9 45  1  0
  9 46  1  0
  9 47  1  0
 10 48  1  6
 11 49  1  0
 11 50  1  0
 12 51  1  0
 12 52  1  0
 14 53  1  0
 14 54  1  0
 14 55  1  0
 15 56  1  6
 16 57  1  0
 16 58  1  0
 17 59  1  0
 19 60  1  1
 20 61  1  0
 20 62  1  0
 21 63  1  0
 21 64  1  0
 22 65  1  1
 23 66  1  0
 25 67  1  0
 25 68  1  0
 25 69  1  0
 26 70  1  0
 26 71  1  0
 26 72  1  0
 28 73  1  0
 28 74  1  0
 28 75  1  0
 29 76  1  0
 29 77  1  0
 30 78  1  0
 30 79  1  0
 32 80  1  0
 32 81  1  0
 32 82  1  0
M  END
>  <meeko>  (16) 
{"is_sidechain": [false], "intermolecular_energy": 2.731, "internal_energy": -0.839}

$$$$
EPH_relaxed_0001_pdb2pqr_Repair_15_r2_0001_out
     RDKit          3D

 82 86  0  0  0  0  0  0  0  0999 V2000
    0.2570    9.8870   -4.6310 C   0  0  0  0  0  0  0  0  0  0  0  0
    1.3390   10.6230   -3.8360 C   0  0  2  0  0  0  0  0  0  0  0  0
    1.8190    9.8100   -2.6160 C   0  0  0  0  0  0  0  0  0  0  0  0
    0.8300    8.7300   -2.1700 C   0  0  0  0  0  0  0  0  0  0  0  0
   -0.0820    9.2250   -1.0890 C   0  0  2  0  0  0  0  0  0  0  0  0
   -0.6440    8.1980   -0.2620 O   0  0  0  0  0  0  0  0  0  0  0  0
   -1.5740    8.9480   -1.0610 C   0  0  0  0  0  0  0  0  0  0  0  0
   -2.2390    8.1460   -2.1350 C   0  0  0  0  0  0  0  0  0  0  0  0
   -2.4560    9.8580   -0.2640 C   0  0  0  0  0  0  0  0  0  0  0  0
    0.8180   11.9820   -3.3840 C   0  0  1  0  0  0  0  0  0  0  0  0
   -0.6950   11.9590   -3.0430 C   0  0  0  0  0  0  0  0  0  0  0  0
   -0.9040   12.9410   -1.8620 C   0  0  0  0  0  0  0  0  0  0  0  0
    0.4190   13.7390   -1.7810 C   0  0  1  0  0  0  0  0  0  0  0  0
    0.2930   14.8380   -2.8820 C   0  0  0  0  0  0  0  0  0  0  0  0
    0.7700   14.3560   -0.3870 C   0  0  2  0  0  0  0  0  0  0  0  0
   -0.2310   15.4030    0.1330 C   0  0  0  0  0  0  0  0  0  0  0  0
    0.0650   16.8150   -0.2520 C   0  0  0  0  0  0  0  0  0  0  0  0
    1.2360   17.2630   -0.7420 C   0  0  0  0  0  0  0  0  0  0  0  0
    2.4490   16.3300   -0.8610 C   0  0  1  0  0  0  0  0  0  0  0  0
    3.7080   17.0450   -0.3040 C   0  0  0  0  0  0  0  0  0  0  0  0
    3.9490   18.4010   -0.9590 C   0  0  0  0  0  0  0  0  0  0  0  0
    2.7450   19.3200   -0.7700 C   0  0  2  0  0  0  0  0  0  0  0  0
    2.6210   19.6370    0.6200 O   0  0  0  0  0  0  0  0  0  0  0  0
    1.4150   18.7020   -1.2850 C   0  0  0  0  0  0  0  0  0  0  0  0
    1.4360   18.6380   -2.8330 C   0  0  0  0  0  0  0  0  0  0  0  0
    0.2610   19.6680   -0.9070 C   0  0  0  0  0  0  0  0  0  0  0  0
    2.2610   14.8700   -0.2630 C   0  0  1  0  0  0  0  0  0  0  0  0
    2.6070   14.8690    1.2580 C   0  0  0  0  0  0  0  0  0  0  0  0
    3.2890   13.8960   -0.9520 C   0  0  0  0  0  0  0  0  0  0  0  0
    2.8380   13.2250   -2.2640 C   0  0  0  0  0  0  0  0  0  0  0  0
    1.4490   12.5980   -2.1090 C   0  0  2  0  0  0  0  0  0  0  0  0
    1.5500   11.4730   -1.0230 C   0  0  0  0  0  0  0  0  0  0  0  0
   -0.4473    9.4079   -3.9350 H   0  0  0  0  0  0  0  0  0  0  0  0
   -0.2846   10.6048   -5.2646 H   0  0  0  0  0  0  0  0  0  0  0  0
    0.7257    9.1196   -5.2646 H   0  0  0  0  0  0  0  0  0  0  0  0
    2.2036   10.7590   -4.5023 H   0  0  0  0  0  0  0  0  0  0  0  0
    2.7710    9.3237   -2.8752 H   0  0  0  0  0  0  0  0  0  0  0  0
    1.9234   10.5163   -1.7792 H   0  0  0  0  0  0  0  0  0  0  0  0
    0.2237    8.4230   -3.0349 H   0  0  0  0  0  0  0  0  0  0  0  0
    1.4058    7.8820   -1.7708 H   0  0  0  0  0  0  0  0  0  0  0  0
    0.4978   10.1549   -0.9937 H   0  0  0  0  0  0  0  0  0  0  0  0
   -2.8771    7.3764   -1.6761 H   0  0  0  0  0  0  0  0  0  0  0  0
   -2.8558    8.8093   -2.7592 H   0  0  0  0  0  0  0  0  0  0  0  0
   -1.4730    7.6627   -2.7592 H   0  0  0  0  0  0  0  0  0  0  0  0
   -2.2878    9.6844    0.8091 H   0  0  0  0  0  0  0  0  0  0  0  0
   -2.2192   10.9042   -0.5078 H   0  0  0  0  0  0  0  0  0  0  0  0
   -3.5091    9.6540   -0.5078 H   0  0  0  0  0  0  0  0  0  0  0  0
    1.0857   12.5837   -4.2651 H   0  0  0  0  0  0  0  0  0  0  0  0
   -1.2842   12.2831   -3.9135 H   0  0  0  0  0  0  0  0  0  0  0  0
   -1.0233   10.9440   -2.7746 H   0  0  0  0  0  0  0  0  0  0  0  0
   -1.7517   13.6132   -2.0610 H   0  0  0  0  0  0  0  0  0  0  0  0
   -1.1357   12.4198   -0.9214 H   0  0  0  0  0  0  0  0  0  0  0  0
    0.1801   15.8230   -2.4056 H   0  0  0  0  0  0  0  0  0  0  0  0
    1.1974   14.8351   -3.5082 H   0  0  0  0  0  0  0  0  0  0  0  0
   -0.5872   14.6305   -3.5082 H   0  0  0  0  0  0  0  0  0  0  0  0
    0.6741   13.4909    0.2856 H   0  0  0  0  0  0  0  0  0  0  0  0
   -1.2262   15.1455   -0.2585 H   0  0  0  0  0  0  0  0  0  0  0  0
   -0.1663   15.3670    1.2305 H   0  0  0  0  0  0  0  0  0  0  0  0
   -0.7421   17.5514   -0.1244 H   0  0  0  0  0  0  0  0  0  0  0  0
    2.5772   16.1319   -1.9354 H   0  0  0  0  0  0  0  0  0  0  0  0
    3.5788   17.1942    0.7782 H   0  0  0  0  0  0  0  0  0  0  0  0
    4.5779   16.4088   -0.5243 H   0  0  0  0  0  0  0  0  0  0  0  0
    4.8340   18.8688   -0.5030 H   0  0  0  0  0  0  0  0  0  0  0  0
    4.1074   18.2471   -2.0366 H   0  0  0  0  0  0  0  0  0  0  0  0
    2.9235   20.2245   -1.3700 H   0  0  0  0  0  0  0  0  0  0  0  0
    3.4830   19.9670    0.9250 H   0  0  0  0  0  0  0  0  0  0  0  0
    1.7640   17.6384   -3.1542 H   0  0  0  0  0  0  0  0  0  0  0  0
    0.4261   18.8351   -3.2219 H   0  0  0  0  0  0  0  0  0  0  0  0
    2.1328   19.3951   -3.2219 H   0  0  0  0  0  0  0  0  0  0  0  0
    0.1820   19.7341    0.1882 H   0  0  0  0  0  0  0  0  0  0  0  0
    0.4679   20.6661   -1.3206 H   0  0  0  0  0  0  0  0  0  0  0  0
   -0.6851   19.2886   -1.3206 H   0  0  0  0  0  0  0  0  0  0  0  0
    1.6771   14.8717    1.8456 H   0  0  0  0  0  0  0  0  0  0  0  0
    3.1914   13.9692    1.5005 H   0  0  0  0  0  0  0  0  0  0  0  0
    3.1966   15.7654    1.5005 H   0  0  0  0  0  0  0  0  0  0  0  0
    4.1999   14.4730   -1.1693 H   0  0  0  0  0  0  0  0  0  0  0  0
    3.4259   13.0701   -0.2384 H   0  0  0  0  0  0  0  0  0  0  0  0
    2.8046   13.9812   -3.0621 H   0  0  0  0  0  0  0  0  0  0  0  0
    3.5556   12.4305   -2.5167 H   0  0  0  0  0  0  0  0  0  0  0  0
    1.5094   11.9257   -0.0213 H   0  0  0  0  0  0  0  0  0  0  0  0
    0.7112   10.7715   -1.1427 H   0  0  0  0  0  0  0  0  0  0  0  0
    2.5003   10.9321   -1.1427 H   0  0  0  0  0  0  0  0  0  0  0  0
  1  2  1  0
  2  3  1  0
  3  4  1  0
  4  5  1  0
  5  6  1  0
  6  7  1  0
  7  8  1  0
  7  9  1  0
  2 10  1  0
 10 11  1  0
 11 12  1  0
 12 13  1  0
 13 14  1  6
 13 15  1  0
 15 16  1  0
 16 17  1  0
 17 18  2  0
 18 19  1  0
 19 20  1  0
 20 21  1  0
 21 22  1  0
 22 23  1  0
 22 24  1  0
 24 25  1  0
 24 26  1  0
 19 27  1  0
 27 28  1  1
 27 29  1  0
 29 30  1  0
 30 31  1  0
 31 32  1  1
  7  5  1  0
 31 10  1  0
 31 13  1  0
 27 15  1  0
 24 18  1  0
  1 33  1  0
  1 34  1  0
  1 35  1  0
  2 36  1  6
  3 37  1  0
  3 38  1  0
  4 39  1  0
  4 40  1  0
  5 41  1  1
  8 42  1  0
  8 43  1  0
  8 44  1  0
  9 45  1  0
  9 46  1  0
  9 47  1  0
 10 48  1  6
 11 49  1  0
 11 50  1  0
 12 51  1  0
 12 52  1  0
 14 53  1  0
 14 54  1  0
 14 55  1  0
 15 56  1  1
 16 57  1  0
 16 58  1  0
 17 59  1  0
 19 60  1  6
 20 61  1  0
 20 62  1  0
 21 63  1  0
 21 64  1  0
 22 65  1  6
 23 66  1  0
 25 67  1  0
 25 68  1  0
 25 69  1  0
 26 70  1  0
 26 71  1  0
 26 72  1  0
 28 73  1  0
 28 74  1  0
 28 75  1  0
 29 76  1  0
 29 77  1  0
 30 78  1  0
 30 79  1  0
 32 80  1  0
 32 81  1  0
 32 82  1  0
M  END
>  <meeko>  (17) 
{"is_sidechain": [false], "intermolecular_energy": 2.731, "internal_energy": -0.839}

$$$$
EPH_relaxed_0001_pdb2pqr_Repair_15_r2_0001_out
     RDKit          3D

 82 86  0  0  0  0  0  0  0  0999 V2000
   -0.0330    9.3100   -4.1620 C   0  0  0  0  0  0  0  0  0  0  0  0
    0.0780    9.5050   -2.6470 C   0  0  2  0  0  0  0  0  0  0  0  0
   -0.7600    8.4730   -1.8660 C   0  0  0  0  0  0  0  0  0  0  0  0
   -2.2640    8.5720   -2.1330 C   0  0  0  0  0  0  0  0  0  0  0  0
   -2.8100    7.2990   -2.7060 C   0  0  2  0  0  0  0  0  0  0  0  0
   -3.9000    7.4740   -3.6210 O   0  0  0  0  0  0  0  0  0  0  0  0
   -4.2000    6.7740   -2.4030 C   0  0  0  0  0  0  0  0  0  0  0  0
   -5.1310    7.5110   -1.4910 C   0  0  0  0  0  0  0  0  0  0  0  0
   -4.4720    5.3150   -2.5970 C   0  0  0  0  0  0  0  0  0  0  0  0
   -0.3540   10.9180   -2.2730 C   0  0  1  0  0  0  0  0  0  0  0  0
   -1.5630   10.9350   -1.3000 C   0  0  0  0  0  0  0  0  0  0  0  0
   -1.3590   12.1460   -0.3540 C   0  0  0  0  0  0  0  0  0  0  0  0
   -0.2320   12.9720   -1.0160 C   0  0  1  0  0  0  0  0  0  0  0  0
   -0.9430   13.8020   -2.1310 C   0  0  0  0  0  0  0  0  0  0  0  0
    0.6060   13.8860   -0.0630 C   0  0  2  0  0  0  0  0  0  0  0  0
   -0.1900   14.9980    0.6420 C   0  0  0  0  0  0  0  0  0  0  0  0
   -0.2540   16.2980   -0.0900 C   0  0  0  0  0  0  0  0  0  0  0  0
    0.5350   16.6550   -1.1200 C   0  0  0  0  0  0  0  0  0  0  0  0
    1.6800   15.7470   -1.5870 C   0  0  1  0  0  0  0  0  0  0  0  0
    2.9640   16.5940   -1.7870 C   0  0  0  0  0  0  0  0  0  0  0  0
    2.7430   17.7800   -2.7210 C   0  0  0  0  0  0  0  0  0  0  0  0
    1.6370   18.6910   -2.1930 C   0  0  2  0  0  0  0  0  0  0  0  0
    2.0830   19.3000   -0.9770 O   0  0  0  0  0  0  0  0  0  0  0  0
    0.2970   17.9450   -1.9430 C   0  0  0  0  0  0  0  0  0  0  0  0
   -0.3380   17.5460   -3.2990 C   0  0  0  0  0  0  0  0  0  0  0  0
   -0.6890   18.9440   -1.2800 C   0  0  0  0  0  0  0  0  0  0  0  0
    1.9370   14.4480   -0.7080 C   0  0  1  0  0  0  0  0  0  0  0  0
    2.8970   14.7860    0.4740 C   0  0  0  0  0  0  0  0  0  0  0  0
    2.6770   13.3710   -1.5860 C   0  0  0  0  0  0  0  0  0  0  0  0
    1.7910   12.4200   -2.4130 C   0  0  0  0  0  0  0  0  0  0  0  0
    0.6840   11.8110   -1.5470 C   0  0  2  0  0  0  0  0  0  0  0  0
    1.3690   10.9520   -0.4300 C   0  0  0  0  0  0  0  0  0  0  0  0
   -0.5671    8.3717   -4.3728 H   0  0  0  0  0  0  0  0  0  0  0  0
   -0.5864   10.1534   -4.6007 H   0  0  0  0  0  0  0  0  0  0  0  0
    0.9747    9.2648   -4.6007 H   0  0  0  0  0  0  0  0  0  0  0  0
    1.1313    9.3523   -2.3691 H   0  0  0  0  0  0  0  0  0  0  0  0
   -0.4226    7.4653   -2.1501 H   0  0  0  0  0  0  0  0  0  0  0  0
   -0.6094    8.6804   -0.7963 H   0  0  0  0  0  0  0  0  0  0  0  0
   -2.7808    8.7873   -1.1861 H   0  0  0  0  0  0  0  0  0  0  0  0
   -2.4303    9.3765   -2.8645 H   0  0  0  0  0  0  0  0  0  0  0  0
   -1.8176    6.8264   -2.6636 H   0  0  0  0  0  0  0  0  0  0  0  0
   -4.8637    7.2994   -0.4452 H   0  0  0  0  0  0  0  0  0  0  0  0
   -5.0492    8.5917   -1.6789 H   0  0  0  0  0  0  0  0  0  0  0  0
   -6.1641    7.1833   -1.6789 H   0  0  0  0  0  0  0  0  0  0  0  0
   -4.5633    4.8254   -1.6162 H   0  0  0  0  0  0  0  0  0  0  0  0
   -5.4092    5.1883   -3.1587 H   0  0  0  0  0  0  0  0  0  0  0  0
   -3.6434    4.8590   -3.1587 H   0  0  0  0  0  0  0  0  0  0  0  0
   -0.5596   11.3193   -3.2764 H   0  0  0  0  0  0  0  0  0  0  0  0
   -2.5010   11.0482   -1.8633 H   0  0  0  0  0  0  0  0  0  0  0  0
   -1.6253    9.9956   -0.7311 H   0  0  0  0  0  0  0  0  0  0  0  0
   -2.2821   12.7394   -0.2780 H   0  0  0  0  0  0  0  0  0  0  0  0
   -1.1034   11.8370    0.6703 H   0  0  0  0  0  0  0  0  0  0  0  0
   -1.5918   14.5594   -1.6669 H   0  0  0  0  0  0  0  0  0  0  0  0
   -0.1870   14.3000   -2.7558 H   0  0  0  0  0  0  0  0  0  0  0  0
   -1.5512   13.1314   -2.7558 H   0  0  0  0  0  0  0  0  0  0  0  0
    0.9068   13.1856    0.7301 H   0  0  0  0  0  0  0  0  0  0  0  0
   -1.2195   14.6390    0.7880 H   0  0  0  0  0  0  0  0  0  0  0  0
    0.3420   15.2039    1.5825 H   0  0  0  0  0  0  0  0  0  0  0  0
   -1.0101   17.0253    0.2407 H   0  0  0  0  0  0  0  0  0  0  0  0
    1.3587   15.3232   -2.5499 H   0  0  0  0  0  0  0  0  0  0  0  0
    3.2927   16.9727   -0.8079 H   0  0  0  0  0  0  0  0  0  0  0  0
    3.7241   15.9447   -2.2459 H   0  0  0  0  0  0  0  0  0  0  0  0
    3.6771   18.3557   -2.7992 H   0  0  0  0  0  0  0  0  0  0  0  0
    2.4428   17.3987   -3.7081 H   0  0  0  0  0  0  0  0  0  0  0  0
    1.4353   19.4477   -2.9655 H   0  0  0  0  0  0  0  0  0  0  0  0
    2.9660   18.9470   -0.7780 H   0  0  0  0  0  0  0  0  0  0  0  0
   -1.2567   16.9687   -3.1179 H   0  0  0  0  0  0  0  0  0  0  0  0
   -0.5819   18.4535   -3.8708 H   0  0  0  0  0  0  0  0  0  0  0  0
    0.3738   16.9325   -3.8708 H   0  0  0  0  0  0  0  0  0  0  0  0
   -0.6107   18.8647   -0.1857 H   0  0  0  0  0  0  0  0  0  0  0  0
   -0.4382   19.9685   -1.5923 H   0  0  0  0  0  0  0  0  0  0  0  0
   -1.7167   18.7067   -1.5923 H   0  0  0  0  0  0  0  0  0  0  0  0
    2.3814   14.6045    1.4286 H   0  0  0  0  0  0  0  0  0  0  0  0
    3.7916   14.1488    0.4135 H   0  0  0  0  0  0  0  0  0  0  0  0
    3.1950   15.8431    0.4135 H   0  0  0  0  0  0  0  0  0  0  0  0
    3.3338   13.9073   -2.2867 H   0  0  0  0  0  0  0  0  0  0  0  0
    3.2001   12.7238   -0.8667 H   0  0  0  0  0  0  0  0  0  0  0  0
    1.3328   12.9827   -3.2397 H   0  0  0  0  0  0  0  0  0  0  0  0
    2.4191   11.6058   -2.8034 H   0  0  0  0  0  0  0  0  0  0  0  0
    1.0683   11.3290    0.5587 H   0  0  0  0  0  0  0  0  0  0  0  0
    1.0576    9.9020   -0.5322 H   0  0  0  0  0  0  0  0  0  0  0  0
    2.4620   11.0219   -0.5322 H   0  0  0  0  0  0  0  0  0  0  0  0
  1  2  1  0
  2  3  1  0
  3  4  1  0
  4  5  1  0
  5  6  1  0
  6  7  1  0
  7  8  1  0
  7  9  1  0
  2 10  1  0
 10 11  1  0
 11 12  1  0
 12 13  1  0
 13 14  1  6
 13 15  1  0
 15 16  1  0
 16 17  1  0
 17 18  2  0
 18 19  1  0
 19 20  1  0
 20 21  1  0
 21 22  1  0
 22 23  1  0
 22 24  1  0
 24 25  1  0
 24 26  1  0
 19 27  1  0
 27 28  1  1
 27 29  1  0
 29 30  1  0
 30 31  1  0
 31 32  1  1
  7  5  1  0
 31 10  1  0
 31 13  1  0
 27 15  1  0
 24 18  1  0
  1 33  1  0
  1 34  1  0
  1 35  1  0
  2 36  1  1
  3 37  1  0
  3 38  1  0
  4 39  1  0
  4 40  1  0
  5 41  1  6
  8 42  1  0
  8 43  1  0
  8 44  1  0
  9 45  1  0
  9 46  1  0
  9 47  1  0
 10 48  1  6
 11 49  1  0
 11 50  1  0
 12 51  1  0
 12 52  1  0
 14 53  1  0
 14 54  1  0
 14 55  1  0
 15 56  1  1
 16 57  1  0
 16 58  1  0
 17 59  1  0
 19 60  1  6
 20 61  1  0
 20 62  1  0
 21 63  1  0
 21 64  1  0
 22 65  1  6
 23 66  1  0
 25 67  1  0
 25 68  1  0
 25 69  1  0
 26 70  1  0
 26 71  1  0
 26 72  1  0
 28 73  1  0
 28 74  1  0
 28 75  1  0
 29 76  1  0
 29 77  1  0
 30 78  1  0
 30 79  1  0
 32 80  1  0
 32 81  1  0
 32 82  1  0
M  END
>  <meeko>  (18) 
{"is_sidechain": [false], "intermolecular_energy": 2.731, "internal_energy": -0.839}

$$$$
EPH_relaxed_0001_pdb2pqr_Repair_15_r2_0001_out
     RDKit          3D

 82 86  0  0  0  0  0  0  0  0999 V2000
    0.9870   14.9550   -2.7410 C   0  0  0  0  0  0  0  0  0  0  0  0
    1.2050   14.2800   -4.0980 C   0  0  2  0  0  0  0  0  0  0  0  0
    0.4580   15.0050   -5.2350 C   0  0  0  0  0  0  0  0  0  0  0  0
    0.9400   14.6160   -6.6350 C   0  0  0  0  0  0  0  0  0  0  0  0
    0.7250   15.7230   -7.6220 C   0  0  2  0  0  0  0  0  0  0  0  0
    0.3930   15.2870   -8.9470 O   0  0  0  0  0  0  0  0  0  0  0  0
    1.6420   15.9810   -8.8030 C   0  0  0  0  0  0  0  0  0  0  0  0
    2.8450   15.1280   -9.0570 C   0  0  0  0  0  0  0  0  0  0  0  0
    1.6490   17.3450   -9.4190 C   0  0  0  0  0  0  0  0  0  0  0  0
    0.7630   12.8230   -4.0310 C   0  0  1  0  0  0  0  0  0  0  0  0
    1.8940   11.8360   -4.4260 C   0  0  0  0  0  0  0  0  0  0  0  0
    1.7140   10.5730   -3.5440 C   0  0  0  0  0  0  0  0  0  0  0  0
    0.3100   10.7330   -2.9160 C   0  0  1  0  0  0  0  0  0  0  0  0
   -0.6810   10.2540   -4.0230 C   0  0  0  0  0  0  0  0  0  0  0  0
    0.0690    9.9860   -1.5640 C   0  0  2  0  0  0  0  0  0  0  0  0
    0.1800    8.4530   -1.6360 C   0  0  0  0  0  0  0  0  0  0  0  0
   -1.0930    7.7350   -1.9360 C   0  0  0  0  0  0  0  0  0  0  0  0
   -2.3280    8.2660   -1.8580 C   0  0  0  0  0  0  0  0  0  0  0  0
   -2.5390    9.6950   -1.3410 C   0  0  1  0  0  0  0  0  0  0  0  0
   -3.7030    9.7060   -0.3150 C   0  0  0  0  0  0  0  0  0  0  0  0
   -4.9830    9.0930   -0.8750 C   0  0  0  0  0  0  0  0  0  0  0  0
   -4.7460    7.6540   -1.3260 C   0  0  2  0  0  0  0  0  0  0  0  0
   -4.4660    6.8510   -0.1750 O   0  0  0  0  0  0  0  0  0  0  0  0
   -3.5890    7.5160   -2.3540 C   0  0  0  0  0  0  0  0  0  0  0  0
   -4.0200    8.1310   -3.7080 C   0  0  0  0  0  0  0  0  0  0  0  0
   -3.3620    6.0030   -2.6170 C   0  0  0  0  0  0  0  0  0  0  0  0
   -1.2420   10.4350   -0.7990 C   0  0  1  0  0  0  0  0  0  0  0  0
   -1.0200   10.0900    0.7050 C   0  0  0  0  0  0  0  0  0  0  0  0
   -1.4710   11.9910   -0.8690 C   0  0  0  0  0  0  0  0  0  0  0  0
   -1.1020   12.6900   -2.1920 C   0  0  0  0  0  0  0  0  0  0  0  0
    0.3000   12.2830   -2.6540 C   0  0  2  0  0  0  0  0  0  0  0  0
    1.3210   12.7710   -1.5710 C   0  0  0  0  0  0  0  0  0  0  0  0
    1.2173   14.2420   -1.9356 H   0  0  0  0  0  0  0  0  0  0  0  0
    1.6482   15.8300   -2.6563 H   0  0  0  0  0  0  0  0  0  0  0  0
   -0.0611   15.2779   -2.6563 H   0  0  0  0  0  0  0  0  0  0  0  0
    2.2803   14.3326   -4.3239 H   0  0  0  0  0  0  0  0  0  0  0  0
   -0.6122   14.7632   -5.1567 H   0  0  0  0  0  0  0  0  0  0  0  0
    0.6556   16.0804   -5.1146 H   0  0  0  0  0  0  0  0  0  0  0  0
    2.0138   14.3818   -6.5902 H   0  0  0  0  0  0  0  0  0  0  0  0
    0.3599   13.7425   -6.9673 H   0  0  0  0  0  0  0  0  0  0  0  0
    0.3348   16.3827   -6.8330 H   0  0  0  0  0  0  0  0  0  0  0  0
    3.2834   14.8172   -8.0972 H   0  0  0  0  0  0  0  0  0  0  0  0
    2.5485   14.2372   -9.6303 H   0  0  0  0  0  0  0  0  0  0  0  0
    3.5875   15.7026   -9.6303 H   0  0  0  0  0  0  0  0  0  0  0  0
    1.6529   18.1060   -8.6247 H   0  0  0  0  0  0  0  0  0  0  0  0
    2.5478   17.4611  -10.0425 H   0  0  0  0  0  0  0  0  0  0  0  0
    0.7515   17.4704  -10.0425 H   0  0  0  0  0  0  0  0  0  0  0  0
   -0.0874   12.8564   -4.7279 H   0  0  0  0  0  0  0  0  0  0  0  0
    1.8101   11.5700   -5.4901 H   0  0  0  0  0  0  0  0  0  0  0  0
    2.8847   12.2881   -4.2709 H   0  0  0  0  0  0  0  0  0  0  0  0
    1.7636    9.6610   -4.1570 H   0  0  0  0  0  0  0  0  0  0  0  0
    2.5031   10.4793   -2.7834 H   0  0  0  0  0  0  0  0  0  0  0  0
   -1.5759    9.8214   -3.5518 H   0  0  0  0  0  0  0  0  0  0  0  0
   -0.9736   11.1102   -4.6486 H   0  0  0  0  0  0  0  0  0  0  0  0
   -0.1918    9.4929   -4.6486 H   0  0  0  0  0  0  0  0  0  0  0  0
    0.9231   10.3192   -0.9562 H   0  0  0  0  0  0  0  0  0  0  0  0
    0.9058    8.2014   -2.4234 H   0  0  0  0  0  0  0  0  0  0  0  0
    0.4863    8.1227   -0.6325 H   0  0  0  0  0  0  0  0  0  0  0  0
   -1.0162    6.6828   -2.2473 H   0  0  0  0  0  0  0  0  0  0  0  0
   -2.8080   10.3002   -2.2193 H   0  0  0  0  0  0  0  0  0  0  0  0
   -3.3963    9.1325    0.5722 H   0  0  0  0  0  0  0  0  0  0  0  0
   -3.9174   10.7555   -0.0648 H   0  0  0  0  0  0  0  0  0  0  0  0
   -5.7583    9.1028   -0.0947 H   0  0  0  0  0  0  0  0  0  0  0  0
   -5.3051    9.6851   -1.7443 H   0  0  0  0  0  0  0  0  0  0  0  0
   -5.6593    7.3134   -1.8358 H   0  0  0  0  0  0  0  0  0  0  0  0
   -3.8670    7.3580    0.3990 H   0  0  0  0  0  0  0  0  0  0  0  0
   -4.6426    9.0193   -3.5256 H   0  0  0  0  0  0  0  0  0  0  0  0
   -3.1263    8.4207   -4.2802 H   0  0  0  0  0  0  0  0  0  0  0  0
   -4.5973    7.3898   -4.2802 H   0  0  0  0  0  0  0  0  0  0  0  0
   -3.2823    5.4719   -1.6570 H   0  0  0  0  0  0  0  0  0  0  0  0
   -4.2096    5.5992   -3.1902 H   0  0  0  0  0  0  0  0  0  0  0  0
   -2.4332    5.8658   -3.1902 H   0  0  0  0  0  0  0  0  0  0  0  0
   -1.5092   10.8502    1.3317 H   0  0  0  0  0  0  0  0  0  0  0  0
   -1.4524    9.1021    0.9223 H   0  0  0  0  0  0  0  0  0  0  0  0
    0.0582   10.0742    0.9223 H   0  0  0  0  0  0  0  0  0  0  0  0
   -2.5382   12.1789   -0.6800 H   0  0  0  0  0  0  0  0  0  0  0  0
   -0.7876   12.4160   -0.1192 H   0  0  0  0  0  0  0  0  0  0  0  0
   -1.8319   12.4066   -2.9646 H   0  0  0  0  0  0  0  0  0  0  0  0
   -1.1160   13.7779   -2.0299 H   0  0  0  0  0  0  0  0  0  0  0  0
    0.9130   12.5760   -0.5682 H   0  0  0  0  0  0  0  0  0  0  0  0
    2.2708   12.2295   -1.6921 H   0  0  0  0  0  0  0  0  0  0  0  0
    1.4962   13.8502   -1.6921 H   0  0  0  0  0  0  0  0  0  0  0  0
  1  2  1  0
  2  3  1  0
  3  4  1  0
  4  5  1  0
  5  6  1  0
  6  7  1  0
  7  8  1  0
  7  9  1  0
  2 10  1  0
 10 11  1  0
 11 12  1  0
 12 13  1  0
 13 14  1  6
 13 15  1  0
 15 16  1  0
 16 17  1  0
 17 18  2  0
 18 19  1  0
 19 20  1  0
 20 21  1  0
 21 22  1  0
 22 23  1  0
 22 24  1  0
 24 25  1  0
 24 26  1  0
 19 27  1  0
 27 28  1  1
 27 29  1  0
 29 30  1  0
 30 31  1  0
 31 32  1  1
  7  5  1  0
 31 10  1  0
 31 13  1  0
 27 15  1  0
 24 18  1  0
  1 33  1  0
  1 34  1  0
  1 35  1  0
  2 36  1  6
  3 37  1  0
  3 38  1  0
  4 39  1  0
  4 40  1  0
  5 41  1  1
  8 42  1  0
  8 43  1  0
  8 44  1  0
  9 45  1  0
  9 46  1  0
  9 47  1  0
 10 48  1  6
 11 49  1  0
 11 50  1  0
 12 51  1  0
 12 52  1  0
 14 53  1  0
 14 54  1  0
 14 55  1  0
 15 56  1  1
 16 57  1  0
 16 58  1  0
 17 59  1  0
 19 60  1  6
 20 61  1  0
 20 62  1  0
 21 63  1  0
 21 64  1  0
 22 65  1  6
 23 66  1  0
 25 67  1  0
 25 68  1  0
 25 69  1  0
 26 70  1  0
 26 71  1  0
 26 72  1  0
 28 73  1  0
 28 74  1  0
 28 75  1  0
 29 76  1  0
 29 77  1  0
 30 78  1  0
 30 79  1  0
 32 80  1  0
 32 81  1  0
 32 82  1  0
M  END
>  <meeko>  (19) 
{"is_sidechain": [false], "intermolecular_energy": 2.731, "internal_energy": -0.839}

$$$$
EPH_relaxed_0001_pdb2pqr_Repair_15_r2_0001_out
     RDKit          3D

 82 86  0  0  0  0  0  0  0  0999 V2000
  -14.4360    5.4740    0.4040 C   0  0  0  0  0  0  0  0  0  0  0  0
  -13.8700    6.8890    0.2600 C   0  0  2  0  0  0  0  0  0  0  0  0
  -14.9670    7.9240   -0.0600 C   0  0  0  0  0  0  0  0  0  0  0  0
  -14.5150    9.3760    0.1240 C   0  0  0  0  0  0  0  0  0  0  0  0
  -15.2480   10.3050   -0.7960 C   0  0  2  0  0  0  0  0  0  0  0  0
  -15.1540    9.9670   -2.1870 O   0  0  0  0  0  0  0  0  0  0  0  0
  -14.5540   11.2120   -1.7950 C   0  0  0  0  0  0  0  0  0  0  0  0
  -13.0630   11.2360   -1.9230 C   0  0  0  0  0  0  0  0  0  0  0  0
  -15.2860   12.4180   -2.2950 C   0  0  0  0  0  0  0  0  0  0  0  0
  -12.7990    6.9120   -0.8250 C   0  0  1  0  0  0  0  0  0  0  0  0
  -13.1620    7.8560   -2.0020 C   0  0  0  0  0  0  0  0  0  0  0  0
  -11.8340    8.4800   -2.5020 C   0  0  0  0  0  0  0  0  0  0  0  0
  -10.7280    7.6340   -1.8280 C   0  0  1  0  0  0  0  0  0  0  0  0
  -10.6070    6.3540   -2.7130 C   0  0  0  0  0  0  0  0  0  0  0  0
   -9.3440    8.3350   -1.6330 C   0  0  2  0  0  0  0  0  0  0  0  0
   -8.6350    8.7520   -2.9330 C   0  0  0  0  0  0  0  0  0  0  0  0
   -7.7190    7.7280   -3.5160 C   0  0  0  0  0  0  0  0  0  0  0  0
   -7.2540    6.6390   -2.8760 C   0  0  0  0  0  0  0  0  0  0  0  0
   -7.5710    6.4010   -1.3940 C   0  0  1  0  0  0  0  0  0  0  0  0
   -6.2730    5.9970   -0.6460 C   0  0  0  0  0  0  0  0  0  0  0  0
   -5.5730    4.8050   -1.2910 C   0  0  0  0  0  0  0  0  0  0  0  0
   -5.2220    5.1010   -2.7470 C   0  0  2  0  0  0  0  0  0  0  0  0
   -4.2300    6.1320   -2.7820 O   0  0  0  0  0  0  0  0  0  0  0  0
   -6.4510    5.5290   -3.5980 C   0  0  0  0  0  0  0  0  0  0  0  0
   -7.3850    4.3130   -3.8110 C   0  0  0  0  0  0  0  0  0  0  0  0
   -5.9380    5.9340   -5.0060 C   0  0  0  0  0  0  0  0  0  0  0  0
   -8.3610    7.5680   -0.6580 C   0  0  1  0  0  0  0  0  0  0  0  0
   -7.3570    8.6290   -0.1130 C   0  0  0  0  0  0  0  0  0  0  0  0
   -9.1050    6.9730    0.5960 C   0  0  0  0  0  0  0  0  0  0  0  0
  -10.5170    6.4040    0.3610 C   0  0  0  0  0  0  0  0  0  0  0  0
  -11.3850    7.3960   -0.4190 C   0  0  2  0  0  0  0  0  0  0  0  0
  -11.5430    8.6850    0.4570 C   0  0  0  0  0  0  0  0  0  0  0  0
  -14.5353    5.2257    1.4710 H   0  0  0  0  0  0  0  0  0  0  0  0
  -15.4236    5.4233   -0.0778 H   0  0  0  0  0  0  0  0  0  0  0  0
  -13.7558    4.7562   -0.0778 H   0  0  0  0  0  0  0  0  0  0  0  0
  -13.4260    7.1679    1.2270 H   0  0  0  0  0  0  0  0  0  0  0  0
  -15.2793    7.7872   -1.1058 H   0  0  0  0  0  0  0  0  0  0  0  0
  -15.7897    7.7507    0.6493 H   0  0  0  0  0  0  0  0  0  0  0  0
  -14.7058    9.6798    1.1638 H   0  0  0  0  0  0  0  0  0  0  0  0
  -13.4424    9.4341   -0.1128 H   0  0  0  0  0  0  0  0  0  0  0  0
  -16.0127   10.4997   -0.0296 H   0  0  0  0  0  0  0  0  0  0  0  0
  -12.6090   11.2433   -0.9211 H   0  0  0  0  0  0  0  0  0  0  0  0
  -12.7276   10.3431   -2.4710 H   0  0  0  0  0  0  0  0  0  0  0  0
  -12.7565   12.1392   -2.4710 H   0  0  0  0  0  0  0  0  0  0  0  0
  -15.6451   13.0096   -1.4400 H   0  0  0  0  0  0  0  0  0  0  0  0
  -14.6077   13.0314   -2.9062 H   0  0  0  0  0  0  0  0  0  0  0  0
  -16.1432   12.0993   -2.9062 H   0  0  0  0  0  0  0  0  0  0  0  0
  -12.7715    5.8422   -1.0793 H   0  0  0  0  0  0  0  0  0  0  0  0
  -13.6405    7.2852   -2.8114 H   0  0  0  0  0  0  0  0  0  0  0  0
  -13.8675    8.6358   -1.6792 H   0  0  0  0  0  0  0  0  0  0  0  0
  -11.7613    8.4125   -3.5975 H   0  0  0  0  0  0  0  0  0  0  0  0
  -11.7540    9.5480   -2.2509 H   0  0  0  0  0  0  0  0  0  0  0  0
  -10.5232    5.4679   -2.0666 H   0  0  0  0  0  0  0  0  0  0  0  0
  -11.5004    6.2615   -3.3480 H   0  0  0  0  0  0  0  0  0  0  0  0
   -9.7121    6.4305   -3.3480 H   0  0  0  0  0  0  0  0  0  0  0  0
   -9.6230    9.2734   -1.1314 H   0  0  0  0  0  0  0  0  0  0  0  0
   -9.4067    8.9835   -3.6819 H   0  0  0  0  0  0  0  0  0  0  0  0
   -8.0022    9.6131   -2.6719 H   0  0  0  0  0  0  0  0  0  0  0  0
   -7.3965    7.8758   -4.5572 H   0  0  0  0  0  0  0  0  0  0  0  0
   -8.2922    5.5709   -1.3662 H   0  0  0  0  0  0  0  0  0  0  0  0
   -5.5836    6.8541   -0.6480 H   0  0  0  0  0  0  0  0  0  0  0  0
   -6.5540    5.7058    0.3768 H   0  0  0  0  0  0  0  0  0  0  0  0
   -4.6493    4.5860   -0.7353 H   0  0  0  0  0  0  0  0  0  0  0  0
   -6.2530    3.9408   -1.2624 H   0  0  0  0  0  0  0  0  0  0  0  0
   -4.8418    4.1692   -3.1909 H   0  0  0  0  0  0  0  0  0  0  0  0
   -3.6160    5.9740   -2.0450 H   0  0  0  0  0  0  0  0  0  0  0  0
   -7.6931    3.9118   -2.8342 H   0  0  0  0  0  0  0  0  0  0  0  0
   -8.2751    4.6287   -4.3751 H   0  0  0  0  0  0  0  0  0  0  0  0
   -6.8505    3.5345   -4.3751 H   0  0  0  0  0  0  0  0  0  0  0  0
   -5.0785    6.6126   -4.9019 H   0  0  0  0  0  0  0  0  0  0  0  0
   -5.6295    5.0333   -5.5569 H   0  0  0  0  0  0  0  0  0  0  0  0
   -6.7425    6.4432   -5.5569 H   0  0  0  0  0  0  0  0  0  0  0  0
   -7.3701    8.6152    0.9868 H   0  0  0  0  0  0  0  0  0  0  0  0
   -6.3439    8.3929   -0.4707 H   0  0  0  0  0  0  0  0  0  0  0  0
   -7.6487    9.6275   -0.4707 H   0  0  0  0  0  0  0  0  0  0  0  0
   -8.4817    6.1608    0.9982 H   0  0  0  0  0  0  0  0  0  0  0  0
   -9.2479    7.8251    1.2768 H   0  0  0  0  0  0  0  0  0  0  0  0
  -10.4371    5.4681   -0.2115 H   0  0  0  0  0  0  0  0  0  0  0  0
  -10.9876    6.2188    1.3379 H   0  0  0  0  0  0  0  0  0  0  0  0
  -11.5094    8.4111    1.5218 H   0  0  0  0  0  0  0  0  0  0  0  0
  -10.7238    9.3838    0.2322 H   0  0  0  0  0  0  0  0  0  0  0  0
  -12.5067    9.1653    0.2322 H   0  0  0  0  0  0  0  0  0  0  0  0
  1  2  1  0
  2  3  1  0
  3  4  1  0
  4  5  1  0
  5  6  1  0
  6  7  1  0
  7  8  1  0
  7  9  1  0
  2 10  1  0
 10 11  1  0
 11 12  1  0
 12 13  1  0
 13 14  1  6
 13 15  1  0
 15 16  1  0
 16 17  1  0
 17 18  2  0
 18 19  1  0
 19 20  1  0
 20 21  1  0
 21 22  1  0
 22 23  1  0
 22 24  1  0
 24 25  1  0
 24 26  1  0
 19 27  1  0
 27 28  1  1
 27 29  1  0
 29 30  1  0
 30 31  1  0
 31 32  1  1
  7  5  1  0
 31 10  1  0
 31 13  1  0
 27 15  1  0
 24 18  1  0
  1 33  1  0
  1 34  1  0
  1 35  1  0
  2 36  1  1
  3 37  1  0
  3 38  1  0
  4 39  1  0
  4 40  1  0
  5 41  1  1
  8 42  1  0
  8 43  1  0
  8 44  1  0
  9 45  1  0
  9 46  1  0
  9 47  1  0
 10 48  1  6
 11 49  1  0
 11 50  1  0
 12 51  1  0
 12 52  1  0
 14 53  1  0
 14 54  1  0
 14 55  1  0
 15 56  1  1
 16 57  1  0
 16 58  1  0
 17 59  1  0
 19 60  1  6
 20 61  1  0
 20 62  1  0
 21 63  1  0
 21 64  1  0
 22 65  1  6
 23 66  1  0
 25 67  1  0
 25 68  1  0
 25 69  1  0
 26 70  1  0
 26 71  1  0
 26 72  1  0
 28 73  1  0
 28 74  1  0
 28 75  1  0
 29 76  1  0
 29 77  1  0
 30 78  1  0
 30 79  1  0
 32 80  1  0
 32 81  1  0
 32 82  1  0
M  END
>  <meeko>  (20) 
{"is_sidechain": [false], "intermolecular_energy": 2.731, "internal_energy": -0.839}

$$$$
