EPH_relaxed_0001_pdb2pqr_Repair_62_r2_0001_out
     RDKit          3D

 82 86  0  0  0  0  0  0  0  0999 V2000
    2.0910   19.8440   -0.7720 C   0  0  0  0  0  0  0  0  0  0  0  0
    2.0410   18.7910    0.3380 C   0  0  2  0  0  0  0  0  0  0  0  0
    3.4480   18.3220    0.7590 C   0  0  0  0  0  0  0  0  0  0  0  0
    4.1500   19.2770    1.7280 C   0  0  0  0  0  0  0  0  0  0  0  0
    4.7630   18.5430    2.8830 C   0  0  2  0  0  0  0  0  0  0  0  0
    4.7530   19.2620    4.1230 O   0  0  0  0  0  0  0  0  0  0  0  0
    6.0460   18.9790    3.5650 C   0  0  0  0  0  0  0  0  0  0  0  0
    6.7950   20.1940    3.1150 C   0  0  0  0  0  0  0  0  0  0  0  0
    6.8270   17.9620    4.3380 C   0  0  0  0  0  0  0  0  0  0  0  0
    1.2080   17.5970   -0.1160 C   0  0  1  0  0  0  0  0  0  0  0  0
    0.0810   17.9960   -1.1050 C   0  0  0  0  0  0  0  0  0  0  0  0
   -0.0680   16.8250   -2.1100 C   0  0  0  0  0  0  0  0  0  0  0  0
    0.7330   15.6630   -1.4760 C   0  0  1  0  0  0  0  0  0  0  0  0
   -0.2300   15.0430   -0.4160 C   0  0  0  0  0  0  0  0  0  0  0  0
    1.2790   14.5810   -2.4630 C   0  0  2  0  0  0  0  0  0  0  0  0
    0.2020   13.8000   -3.2360 C   0  0  0  0  0  0  0  0  0  0  0  0
   -0.2780   12.5510   -2.5740 C   0  0  0  0  0  0  0  0  0  0  0  0
    0.3330   11.9230   -1.5520 C   0  0  0  0  0  0  0  0  0  0  0  0
    1.6870   12.4130   -1.0230 C   0  0  1  0  0  0  0  0  0  0  0  0
    2.6440   11.2050   -0.8480 C   0  0  0  0  0  0  0  0  0  0  0  0
    2.0420   10.1030    0.0190 C   0  0  0  0  0  0  0  0  0  0  0  0
    0.7270    9.6010   -0.5710 C   0  0  2  0  0  0  0  0  0  0  0  0
    1.0010    8.9400   -1.8110 O   0  0  0  0  0  0  0  0  0  0  0  0
   -0.3130   10.7330   -0.8010 C   0  0  0  0  0  0  0  0  0  0  0  0
   -0.8350   11.2450    0.5640 C   0  0  0  0  0  0  0  0  0  0  0  0
   -1.5370   10.1150   -1.5300 C   0  0  0  0  0  0  0  0  0  0  0  0
    2.3550   13.6090   -1.8290 C   0  0  1  0  0  0  0  0  0  0  0  0
    3.1990   13.0460   -3.0130 C   0  0  0  0  0  0  0  0  0  0  0  0
    3.3630   14.3660   -0.8850 C   0  0  0  0  0  0  0  0  0  0  0  0
    2.7860   15.5040   -0.0230 C   0  0  0  0  0  0  0  0  0  0  0  0
    1.9450   16.4630   -0.8710 C   0  0  2  0  0  0  0  0  0  0  0  0
    2.8920   17.1190   -1.9320 C   0  0  0  0  0  0  0  0  0  0  0  0
    2.1386   20.8474   -0.3237 H   0  0  0  0  0  0  0  0  0  0  0  0
    2.9823   19.6780   -1.3950 H   0  0  0  0  0  0  0  0  0  0  0  0
    1.1880   19.7632   -1.3950 H   0  0  0  0  0  0  0  0  0  0  0  0
    1.5733   19.2590    1.2167 H   0  0  0  0  0  0  0  0  0  0  0  0
    3.3557   17.3396    1.2452 H   0  0  0  0  0  0  0  0  0  0  0  0
    4.0605   18.2822   -0.1539 H   0  0  0  0  0  0  0  0  0  0  0  0
    4.9420   19.8154    1.1869 H   0  0  0  0  0  0  0  0  0  0  0  0
    3.3991   19.9758    2.1252 H   0  0  0  0  0  0  0  0  0  0  0  0
    4.4378   17.5762    2.4713 H   0  0  0  0  0  0  0  0  0  0  0  0
    7.1421   20.7571    3.9938 H   0  0  0  0  0  0  0  0  0  0  0  0
    7.6612   19.8876    2.5102 H   0  0  0  0  0  0  0  0  0  0  0  0
    6.1321   20.8303    2.5102 H   0  0  0  0  0  0  0  0  0  0  0  0
    6.6921   18.1376    5.4155 H   0  0  0  0  0  0  0  0  0  0  0  0
    6.4690   16.9536    4.0832 H   0  0  0  0  0  0  0  0  0  0  0  0
    7.8937   18.0476    4.0832 H   0  0  0  0  0  0  0  0  0  0  0  0
    0.8586   17.2330    0.8615 H   0  0  0  0  0  0  0  0  0  0  0  0
   -0.8626   18.1509   -0.5614 H   0  0  0  0  0  0  0  0  0  0  0  0
    0.3259   18.9338   -1.6251 H   0  0  0  0  0  0  0  0  0  0  0  0
   -1.1258   16.5479   -2.2294 H   0  0  0  0  0  0  0  0  0  0  0  0
    0.2995   17.0867   -3.1132 H   0  0  0  0  0  0  0  0  0  0  0  0
    0.1360   15.2787    0.5942 H   0  0  0  0  0  0  0  0  0  0  0  0
   -1.2386   15.4618   -0.5475 H   0  0  0  0  0  0  0  0  0  0  0  0
   -0.2662   13.9515   -0.5475 H   0  0  0  0  0  0  0  0  0  0  0  0
    1.8029   15.1902   -3.2143 H   0  0  0  0  0  0  0  0  0  0  0  0
   -0.6635   14.4639   -3.3775 H   0  0  0  0  0  0  0  0  0  0  0  0
    0.6730   13.4834   -4.1783 H   0  0  0  0  0  0  0  0  0  0  0  0
   -1.2098   12.1062   -2.9534 H   0  0  0  0  0  0  0  0  0  0  0  0
    1.4822   12.8710   -0.0441 H   0  0  0  0  0  0  0  0  0  0  0  0
    2.8713   10.7885   -1.8404 H   0  0  0  0  0  0  0  0  0  0  0  0
    3.5518   11.5682   -0.3440 H   0  0  0  0  0  0  0  0  0  0  0  0
    2.7520    9.2651    0.0804 H   0  0  0  0  0  0  0  0  0  0  0  0
    1.8434   10.5133    1.0201 H   0  0  0  0  0  0  0  0  0  0  0  0
    0.2808    8.9089    0.1583 H   0  0  0  0  0  0  0  0  0  0  0  0
    0.9670    7.9820   -1.6470 H   0  0  0  0  0  0  0  0  0  0  0  0
   -0.3059   10.7261    1.3769 H   0  0  0  0  0  0  0  0  0  0  0  0
   -0.6560   12.3275    0.6424 H   0  0  0  0  0  0  0  0  0  0  0  0
   -1.9138   11.0451    0.6424 H   0  0  0  0  0  0  0  0  0  0  0  0
   -2.2606    9.7497   -0.7864 H   0  0  0  0  0  0  0  0  0  0  0  0
   -2.0135   10.8805   -2.1600 H   0  0  0  0  0  0  0  0  0  0  0  0
   -1.2039    9.2770   -2.1600 H   0  0  0  0  0  0  0  0  0  0  0  0
    4.0526   12.4766   -2.6166 H   0  0  0  0  0  0  0  0  0  0  0  0
    2.5715   12.3849   -3.6288 H   0  0  0  0  0  0  0  0  0  0  0  0
    3.5683   13.8793   -3.6288 H   0  0  0  0  0  0  0  0  0  0  0  0
    3.8030   13.6228   -0.2038 H   0  0  0  0  0  0  0  0  0  0  0  0
    4.0806   14.8530   -1.5617 H   0  0  0  0  0  0  0  0  0  0  0  0
    2.1529   15.0720    0.7660 H   0  0  0  0  0  0  0  0  0  0  0  0
    3.6214   16.0673    0.4183 H   0  0  0  0  0  0  0  0  0  0  0  0
    3.6913   17.6727   -1.4175 H   0  0  0  0  0  0  0  0  0  0  0  0
    3.3364   16.3342   -2.5618 H   0  0  0  0  0  0  0  0  0  0  0  0
    2.3135   17.8109   -2.5618 H   0  0  0  0  0  0  0  0  0  0  0  0
  1  2  1  0
  2  3  1  0
  3  4  1  0
  4  5  1  0
  5  6  1  0
  6  7  1  0
  7  8  1  0
  7  9  1  0
  2 10  1  0
 10 11  1  0
 11 12  1  0
 12 13  1  0
 13 14  1  1
 13 15  1  0
 15 16  1  0
 16 17  1  0
 17 18  2  0
 18 19  1  0
 19 20  1  0
 20 21  1  0
 21 22  1  0
 22 23  1  0
 22 24  1  0
 24 25  1  0
 24 26  1  0
 19 27  1  0
 27 28  1  6
 27 29  1  0
 29 30  1  0
 30 31  1  0
 31 32  1  6
  7  5  1  0
 31 10  1  0
 31 13  1  0
 27 15  1  0
 24 18  1  0
  1 33  1  0
  1 34  1  0
  1 35  1  0
  2 36  1  1
  3 37  1  0
  3 38  1  0
  4 39  1  0
  4 40  1  0
  5 41  1  1
  8 42  1  0
  8 43  1  0
  8 44  1  0
  9 45  1  0
  9 46  1  0
  9 47  1  0
 10 48  1  1
 11 49  1  0
 11 50  1  0
 12 51  1  0
 12 52  1  0
 14 53  1  0
 14 54  1  0
 14 55  1  0
 15 56  1  6
 16 57  1  0
 16 58  1  0
 17 59  1  0
 19 60  1  1
 20 61  1  0
 20 62  1  0
 21 63  1  0
 21 64  1  0
 22 65  1  1
 23 66  1  0
 25 67  1  0
 25 68  1  0
 25 69  1  0
 26 70  1  0
 26 71  1  0
 26 72  1  0
 28 73  1  0
 28 74  1  0
 28 75  1  0
 29 76  1  0
 29 77  1  0
 30 78  1  0
 30 79  1  0
 32 80  1  0
 32 81  1  0
 32 82  1  0
M  END
>  <meeko>  (1) 
{"is_sidechain": [false], "intermolecular_energy": 2.731, "internal_energy": -0.839}

$$$$
EPH_relaxed_0001_pdb2pqr_Repair_62_r2_0001_out
     RDKit          3D

 82 86  0  0  0  0  0  0  0  0999 V2000
   -1.3820    8.6320   -1.9590 C   0  0  0  0  0  0  0  0  0  0  0  0
   -1.8870    9.2600   -0.6570 C   0  0  2  0  0  0  0  0  0  0  0  0
   -3.3700    9.6740   -0.7480 C   0  0  0  0  0  0  0  0  0  0  0  0
   -4.3470    8.5150   -0.5370 C   0  0  0  0  0  0  0  0  0  0  0  0
   -5.6380    8.7380   -1.2660 C   0  0  2  0  0  0  0  0  0  0  0  0
   -6.8140    8.4080   -0.5160 O   0  0  0  0  0  0  0  0  0  0  0  0
   -6.5660    7.6140   -1.6870 C   0  0  0  0  0  0  0  0  0  0  0  0
   -6.2410    6.1830   -1.3940 C   0  0  0  0  0  0  0  0  0  0  0  0
   -7.5340    7.8650   -2.8010 C   0  0  0  0  0  0  0  0  0  0  0  0
   -1.0300   10.4670   -0.2950 C   0  0  1  0  0  0  0  0  0  0  0  0
    0.0700   10.1290    0.7450 C   0  0  0  0  0  0  0  0  0  0  0  0
    1.3040   10.9970    0.3900 C   0  0  0  0  0  0  0  0  0  0  0  0
    0.7710   12.0370   -0.6230 C   0  0  1  0  0  0  0  0  0  0  0  0
    0.0910   13.1370    0.2510 C   0  0  0  0  0  0  0  0  0  0  0  0
    1.8230   12.6480   -1.6050 C   0  0  2  0  0  0  0  0  0  0  0  0
    2.9510   13.4520   -0.9350 C   0  0  0  0  0  0  0  0  0  0  0  0
    2.6800   14.9100   -0.7630 C   0  0  0  0  0  0  0  0  0  0  0  0
    1.7050   15.6020   -1.3810 C   0  0  0  0  0  0  0  0  0  0  0  0
    0.8110   14.9350   -2.4340 C   0  0  1  0  0  0  0  0  0  0  0  0
    0.6930   15.8590   -3.6740 C   0  0  0  0  0  0  0  0  0  0  0  0
    0.2200   17.2640   -3.3140 C   0  0  0  0  0  0  0  0  0  0  0  0
    1.1670   17.9170   -2.3090 C   0  0  2  0  0  0  0  0  0  0  0  0
    2.4290   18.1410   -2.9440 O   0  0  0  0  0  0  0  0  0  0  0  0
    1.3710   17.0710   -1.0210 C   0  0  0  0  0  0  0  0  0  0  0  0
    0.0710   17.0820   -0.1800 C   0  0  0  0  0  0  0  0  0  0  0  0
    2.4540   17.7720   -0.1570 C   0  0  0  0  0  0  0  0  0  0  0  0
    1.1920   13.4410   -2.8200 C   0  0  1  0  0  0  0  0  0  0  0  0
    2.2610   13.4410   -3.9550 C   0  0  0  0  0  0  0  0  0  0  0  0
   -0.0800   12.7220   -3.4080 C   0  0  0  0  0  0  0  0  0  0  0  0
   -1.0180   12.0340   -2.3980 C   0  0  0  0  0  0  0  0  0  0  0  0
   -0.2290   11.1380   -1.4390 C   0  0  2  0  0  0  0  0  0  0  0  0
    0.4490   10.0080   -2.2880 C   0  0  0  0  0  0  0  0  0  0  0  0
   -0.7085    7.7944   -1.7250 H   0  0  0  0  0  0  0  0  0  0  0  0
   -2.2373    8.2624   -2.5437 H   0  0  0  0  0  0  0  0  0  0  0  0
   -0.8375    9.3881   -2.5437 H   0  0  0  0  0  0  0  0  0  0  0  0
   -1.8057    8.4970    0.1312 H   0  0  0  0  0  0  0  0  0  0  0  0
   -3.5652   10.4368    0.0201 H   0  0  0  0  0  0  0  0  0  0  0  0
   -3.5359   10.0524   -1.7675 H   0  0  0  0  0  0  0  0  0  0  0  0
   -3.8848    7.5875   -0.9061 H   0  0  0  0  0  0  0  0  0  0  0  0
   -4.5682    8.4445    0.5382 H   0  0  0  0  0  0  0  0  0  0  0  0
   -5.2062    9.5848   -1.8195 H   0  0  0  0  0  0  0  0  0  0  0  0
   -6.2063    6.0304   -0.3052 H   0  0  0  0  0  0  0  0  0  0  0  0
   -7.0147    5.5344   -1.8307 H   0  0  0  0  0  0  0  0  0  0  0  0
   -5.2630    5.9323   -1.8307 H   0  0  0  0  0  0  0  0  0  0  0  0
   -8.5181    8.1202   -2.3811 H   0  0  0  0  0  0  0  0  0  0  0  0
   -7.1721    8.6990   -3.4203 H   0  0  0  0  0  0  0  0  0  0  0  0
   -7.6230    6.9602   -3.4203 H   0  0  0  0  0  0  0  0  0  0  0  0
   -1.8143   11.1486    0.0659 H   0  0  0  0  0  0  0  0  0  0  0  0
   -0.2818   10.3679    1.7595 H   0  0  0  0  0  0  0  0  0  0  0  0
    0.3205    9.0582    0.7206 H   0  0  0  0  0  0  0  0  0  0  0  0
    1.6989   11.4959    1.2873 H   0  0  0  0  0  0  0  0  0  0  0  0
    2.1302   10.3989   -0.0219 H   0  0  0  0  0  0  0  0  0  0  0  0
    0.2366   12.9014    1.3156 H   0  0  0  0  0  0  0  0  0  0  0  0
    0.5425   14.1146    0.0267 H   0  0  0  0  0  0  0  0  0  0  0  0
   -0.9854   13.1701    0.0267 H   0  0  0  0  0  0  0  0  0  0  0  0
    2.3028   11.7512   -2.0238 H   0  0  0  0  0  0  0  0  0  0  0  0
    3.1311   13.0201    0.0605 H   0  0  0  0  0  0  0  0  0  0  0  0
    3.8170   13.3811   -1.6095 H   0  0  0  0  0  0  0  0  0  0  0  0
    3.3322   15.4655   -0.0730 H   0  0  0  0  0  0  0  0  0  0  0  0
   -0.1760   14.8152   -1.9634 H   0  0  0  0  0  0  0  0  0  0  0  0
    1.6797   15.9315   -4.1548 H   0  0  0  0  0  0  0  0  0  0  0  0
   -0.0550   15.4177   -4.3491 H   0  0  0  0  0  0  0  0  0  0  0  0
    0.1848   17.8771   -4.2266 H   0  0  0  0  0  0  0  0  0  0  0  0
   -0.7795   17.1929   -2.8602 H   0  0  0  0  0  0  0  0  0  0  0  0
    0.7092   18.8653   -1.9911 H   0  0  0  0  0  0  0  0  0  0  0  0
    2.3320   17.9100   -3.8830 H   0  0  0  0  0  0  0  0  0  0  0  0
    0.3264   17.0798    0.8899 H   0  0  0  0  0  0  0  0  0  0  0  0
   -0.5109   17.9851   -0.4162 H   0  0  0  0  0  0  0  0  0  0  0  0
   -0.5261   16.1889   -0.4162 H   0  0  0  0  0  0  0  0  0  0  0  0
    2.2253   17.6240    0.9087 H   0  0  0  0  0  0  0  0  0  0  0  0
    3.4400   17.3404   -0.3838 H   0  0  0  0  0  0  0  0  0  0  0  0
    2.4640   18.8483   -0.3838 H   0  0  0  0  0  0  0  0  0  0  0  0
    2.5124   12.4039   -4.2219 H   0  0  0  0  0  0  0  0  0  0  0  0
    1.8586   13.9595   -4.8377 H   0  0  0  0  0  0  0  0  0  0  0  0
    3.1662   13.9595   -3.6061 H   0  0  0  0  0  0  0  0  0  0  0  0
   -0.6693   13.4775   -3.9483 H   0  0  0  0  0  0  0  0  0  0  0  0
    0.3134   11.9088   -4.0357 H   0  0  0  0  0  0  0  0  0  0  0  0
   -1.5481   12.8034   -1.8175 H   0  0  0  0  0  0  0  0  0  0  0  0
   -1.7332   11.4092   -2.9531 H   0  0  0  0  0  0  0  0  0  0  0  0
    0.8966    9.2621   -1.6148 H   0  0  0  0  0  0  0  0  0  0  0  0
   -0.3071    9.5224   -2.9225 H   0  0  0  0  0  0  0  0  0  0  0  0
    1.2332   10.4466   -2.9225 H   0  0  0  0  0  0  0  0  0  0  0  0
  1  2  1  0
  2  3  1  0
  3  4  1  0
  4  5  1  0
  5  6  1  0
  6  7  1  0
  7  8  1  0
  7  9  1  0
  2 10  1  0
 10 11  1  0
 11 12  1  0
 12 13  1  0
 13 14  1  1
 13 15  1  0
 15 16  1  0
 16 17  1  0
 17 18  2  0
 18 19  1  0
 19 20  1  0
 20 21  1  0
 21 22  1  0
 22 23  1  0
 22 24  1  0
 24 25  1  0
 24 26  1  0
 19 27  1  0
 27 28  1  6
 27 29  1  0
 29 30  1  0
 30 31  1  0
 31 32  1  6
  7  5  1  0
 31 10  1  0
 31 13  1  0
 27 15  1  0
 24 18  1  0
  1 33  1  0
  1 34  1  0
  1 35  1  0
  2 36  1  1
  3 37  1  0
  3 38  1  0
  4 39  1  0
  4 40  1  0
  5 41  1  6
  8 42  1  0
  8 43  1  0
  8 44  1  0
  9 45  1  0
  9 46  1  0
  9 47  1  0
 10 48  1  1
 11 49  1  0
 11 50  1  0
 12 51  1  0
 12 52  1  0
 14 53  1  0
 14 54  1  0
 14 55  1  0
 15 56  1  6
 16 57  1  0
 16 58  1  0
 17 59  1  0
 19 60  1  1
 20 61  1  0
 20 62  1  0
 21 63  1  0
 21 64  1  0
 22 65  1  1
 23 66  1  0
 25 67  1  0
 25 68  1  0
 25 69  1  0
 26 70  1  0
 26 71  1  0
 26 72  1  0
 28 73  1  0
 28 74  1  0
 28 75  1  0
 29 76  1  0
 29 77  1  0
 30 78  1  0
 30 79  1  0
 32 80  1  0
 32 81  1  0
 32 82  1  0
M  END
>  <meeko>  (2) 
{"is_sidechain": [false], "intermolecular_energy": 2.731, "internal_energy": -0.839}

$$$$
EPH_relaxed_0001_pdb2pqr_Repair_62_r2_0001_out
     RDKit          3D

 82 86  0  0  0  0  0  0  0  0999 V2000
   -0.1550   19.0000    0.6130 C   0  0  0  0  0  0  0  0  0  0  0  0
    1.0310   18.1670    0.1170 C   0  0  2  0  0  0  0  0  0  0  0  0
    2.0080   18.9990   -0.7370 C   0  0  0  0  0  0  0  0  0  0  0  0
    2.8400   19.9960    0.0740 C   0  0  0  0  0  0  0  0  0  0  0  0
    4.0720   19.3570    0.6410 C   0  0  2  0  0  0  0  0  0  0  0  0
    3.8230   18.2810    1.5540 O   0  0  0  0  0  0  0  0  0  0  0  0
    4.4620   19.4440    2.1040 C   0  0  0  0  0  0  0  0  0  0  0  0
    3.6220   20.1900    3.0930 C   0  0  0  0  0  0  0  0  0  0  0  0
    5.8950   19.2250    2.4780 C   0  0  0  0  0  0  0  0  0  0  0  0
    0.5270   16.9720   -0.6830 C   0  0  1  0  0  0  0  0  0  0  0  0
    0.0030   17.3710   -2.0890 C   0  0  0  0  0  0  0  0  0  0  0  0
    0.3620   16.2070   -3.0470 C   0  0  0  0  0  0  0  0  0  0  0  0
    0.7760   15.0460   -2.1130 C   0  0  1  0  0  0  0  0  0  0  0  0
   -0.5690   14.4100   -1.6430 C   0  0  0  0  0  0  0  0  0  0  0  0
    1.7380   13.9760   -2.7260 C   0  0  2  0  0  0  0  0  0  0  0  0
    1.1660   13.1940   -3.9210 C   0  0  0  0  0  0  0  0  0  0  0  0
    0.4420   11.9350   -3.5730 C   0  0  0  0  0  0  0  0  0  0  0  0
    0.4990   11.3030   -2.3860 C   0  0  0  0  0  0  0  0  0  0  0  0
    1.4320   11.7990   -1.2730 C   0  0  1  0  0  0  0  0  0  0  0  0
    2.2020   10.5960   -0.6690 C   0  0  0  0  0  0  0  0  0  0  0  0
    1.2710    9.4830   -0.1970 C   0  0  0  0  0  0  0  0  0  0  0  0
    0.4010    8.9760   -1.3450 C   0  0  2  0  0  0  0  0  0  0  0  0
    1.2390    8.3270   -2.3070 O   0  0  0  0  0  0  0  0  0  0  0  0
   -0.4150   10.1030   -2.0380 C   0  0  0  0  0  0  0  0  0  0  0  0
   -1.5290   10.6000   -1.0840 C   0  0  0  0  0  0  0  0  0  0  0  0
   -1.1390    9.4830   -3.2640 C   0  0  0  0  0  0  0  0  0  0  0  0
    2.3910   13.0060   -1.6590 C   0  0  1  0  0  0  0  0  0  0  0  0
    3.7030   12.4590   -2.3010 C   0  0  0  0  0  0  0  0  0  0  0  0
    2.8200   13.7620   -0.3470 C   0  0  0  0  0  0  0  0  0  0  0  0
    1.8900   14.8890    0.1410 C   0  0  0  0  0  0  0  0  0  0  0  0
    1.5460   15.8490   -1.0020 C   0  0  2  0  0  0  0  0  0  0  0  0
    2.8780   16.5200   -1.4810 C   0  0  0  0  0  0  0  0  0  0  0  0
   -0.1641   19.0064    1.7129 H   0  0  0  0  0  0  0  0  0  0  0  0
   -0.0601   20.0309    0.2411 H   0  0  0  0  0  0  0  0  0  0  0  0
   -1.0925   18.5609    0.2411 H   0  0  0  0  0  0  0  0  0  0  0  0
    1.5829   17.8164    1.0016 H   0  0  0  0  0  0  0  0  0  0  0  0
    2.6950   18.3095   -1.2494 H   0  0  0  0  0  0  0  0  0  0  0  0
    1.3996   19.5860   -1.4408 H   0  0  0  0  0  0  0  0  0  0  0  0
    3.1389   20.8274   -0.5814 H   0  0  0  0  0  0  0  0  0  0  0  0
    2.2239   20.3563    0.9111 H   0  0  0  0  0  0  0  0  0  0  0  0
    4.6306   19.5592   -0.2848 H   0  0  0  0  0  0  0  0  0  0  0  0
    3.9286   19.9177    4.1137 H   0  0  0  0  0  0  0  0  0  0  0  0
    3.7564   21.2718    2.9461 H   0  0  0  0  0  0  0  0  0  0  0  0
    2.5636   19.9287    2.9461 H   0  0  0  0  0  0  0  0  0  0  0  0
    5.9899   19.2105    3.5738 H   0  0  0  0  0  0  0  0  0  0  0  0
    6.2383   18.2640    2.0675 H   0  0  0  0  0  0  0  0  0  0  0  0
    6.5097   20.0396    2.0675 H   0  0  0  0  0  0  0  0  0  0  0  0
   -0.2416   16.5983    0.0095 H   0  0  0  0  0  0  0  0  0  0  0  0
   -1.0871   17.5152   -2.0601 H   0  0  0  0  0  0  0  0  0  0  0  0
    0.4568   18.3145   -2.4265 H   0  0  0  0  0  0  0  0  0  0  0  0
   -0.5086   15.9233   -3.6566 H   0  0  0  0  0  0  0  0  0  0  0  0
    1.1604   16.4792   -3.7530 H   0  0  0  0  0  0  0  0  0  0  0  0
   -0.6027   14.3941   -0.5436 H   0  0  0  0  0  0  0  0  0  0  0  0
   -1.4102   15.0057   -2.0270 H   0  0  0  0  0  0  0  0  0  0  0  0
   -0.6424   13.3818   -2.0270 H   0  0  0  0  0  0  0  0  0  0  0  0
    2.5506   14.5942   -3.1352 H   0  0  0  0  0  0  0  0  0  0  0  0
    0.4647   13.8530   -4.4539 H   0  0  0  0  0  0  0  0  0  0  0  0
    2.0318   12.8890   -4.5271 H   0  0  0  0  0  0  0  0  0  0  0  0
   -0.1913   11.4863   -4.3525 H   0  0  0  0  0  0  0  0  0  0  0  0
    0.7814   12.2478   -0.5079 H   0  0  0  0  0  0  0  0  0  0  0  0
    2.8778   10.1891   -1.4356 H   0  0  0  0  0  0  0  0  0  0  0  0
    2.7573   10.9610    0.2076 H   0  0  0  0  0  0  0  0  0  0  0  0
    1.8744    8.6499    0.1926 H   0  0  0  0  0  0  0  0  0  0  0  0
    0.6153    9.8838    0.5900 H   0  0  0  0  0  0  0  0  0  0  0  0
   -0.3315    8.2744   -0.9194 H   0  0  0  0  0  0  0  0  0  0  0  0
    0.6620    7.8260   -2.9080 H   0  0  0  0  0  0  0  0  0  0  0  0
   -1.2093   10.4574   -0.0412 H   0  0  0  0  0  0  0  0  0  0  0  0
   -1.7186   11.6680   -1.2666 H   0  0  0  0  0  0  0  0  0  0  0  0
   -2.4504   10.0276   -1.2666 H   0  0  0  0  0  0  0  0  0  0  0  0
   -1.9318    8.8041   -2.9169 H   0  0  0  0  0  0  0  0  0  0  0  0
   -1.5832   10.2851   -3.8718 H   0  0  0  0  0  0  0  0  0  0  0  0
   -0.4148    8.9207   -3.8718 H   0  0  0  0  0  0  0  0  0  0  0  0
    4.4054   12.1661   -1.5068 H   0  0  0  0  0  0  0  0  0  0  0  0
    3.4688   11.5836   -2.9245 H   0  0  0  0  0  0  0  0  0  0  0  0
    4.1600   13.2415   -2.9245 H   0  0  0  0  0  0  0  0  0  0  0  0
    2.8905   13.0164    0.4587 H   0  0  0  0  0  0  0  0  0  0  0  0
    3.7680   14.2599   -0.5987 H   0  0  0  0  0  0  0  0  0  0  0  0
    0.9616   14.4461    0.5307 H   0  0  0  0  0  0  0  0  0  0  0  0
    2.4077   15.4541    0.9301 H   0  0  0  0  0  0  0  0  0  0  0  0
    3.4730   16.8197   -0.6057 H   0  0  0  0  0  0  0  0  0  0  0  0
    3.4522   15.8036   -2.0868 H   0  0  0  0  0  0  0  0  0  0  0  0
    2.6441   17.4078   -2.0868 H   0  0  0  0  0  0  0  0  0  0  0  0
  1  2  1  0
  2  3  1  0
  3  4  1  0
  4  5  1  0
  5  6  1  0
  6  7  1  0
  7  8  1  0
  7  9  1  0
  2 10  1  0
 10 11  1  0
 11 12  1  0
 12 13  1  0
 13 14  1  1
 13 15  1  0
 15 16  1  0
 16 17  1  0
 17 18  2  0
 18 19  1  0
 19 20  1  0
 20 21  1  0
 21 22  1  0
 22 23  1  0
 22 24  1  0
 24 25  1  0
 24 26  1  0
 19 27  1  0
 27 28  1  6
 27 29  1  0
 29 30  1  0
 30 31  1  0
 31 32  1  6
  7  5  1  0
 31 10  1  0
 31 13  1  0
 27 15  1  0
 24 18  1  0
  1 33  1  0
  1 34  1  0
  1 35  1  0
  2 36  1  1
  3 37  1  0
  3 38  1  0
  4 39  1  0
  4 40  1  0
  5 41  1  6
  8 42  1  0
  8 43  1  0
  8 44  1  0
  9 45  1  0
  9 46  1  0
  9 47  1  0
 10 48  1  1
 11 49  1  0
 11 50  1  0
 12 51  1  0
 12 52  1  0
 14 53  1  0
 14 54  1  0
 14 55  1  0
 15 56  1  6
 16 57  1  0
 16 58  1  0
 17 59  1  0
 19 60  1  1
 20 61  1  0
 20 62  1  0
 21 63  1  0
 21 64  1  0
 22 65  1  1
 23 66  1  0
 25 67  1  0
 25 68  1  0
 25 69  1  0
 26 70  1  0
 26 71  1  0
 26 72  1  0
 28 73  1  0
 28 74  1  0
 28 75  1  0
 29 76  1  0
 29 77  1  0
 30 78  1  0
 30 79  1  0
 32 80  1  0
 32 81  1  0
 32 82  1  0
M  END
>  <meeko>  (3) 
{"is_sidechain": [false], "intermolecular_energy": 2.731, "internal_energy": -0.839}

$$$$
EPH_relaxed_0001_pdb2pqr_Repair_62_r2_0001_out
     RDKit          3D

 82 86  0  0  0  0  0  0  0  0999 V2000
    0.3930    8.7900   -2.3530 C   0  0  0  0  0  0  0  0  0  0  0  0
    1.1310    9.9290   -3.0620 C   0  0  2  0  0  0  0  0  0  0  0  0
    2.6350    9.9450   -2.7250 C   0  0  0  0  0  0  0  0  0  0  0  0
    3.5040   10.5740   -3.8170 C   0  0  0  0  0  0  0  0  0  0  0  0
    4.9040   10.8170   -3.3400 C   0  0  2  0  0  0  0  0  0  0  0  0
    5.5050   12.0210   -3.8350 O   0  0  0  0  0  0  0  0  0  0  0  0
    6.1160   10.7900   -4.2530 C   0  0  0  0  0  0  0  0  0  0  0  0
    5.9830   10.5110   -5.7170 C   0  0  0  0  0  0  0  0  0  0  0  0
    7.4630   10.5500   -3.6460 C   0  0  0  0  0  0  0  0  0  0  0  0
    0.5000   11.2660   -2.6930 C   0  0  1  0  0  0  0  0  0  0  0  0
   -0.8800   11.1050   -2.0010 C   0  0  0  0  0  0  0  0  0  0  0  0
   -0.9900   12.2430   -0.9540 C   0  0  0  0  0  0  0  0  0  0  0  0
    0.1670   13.2080   -1.3030 C   0  0  1  0  0  0  0  0  0  0  0  0
   -0.3740   14.0730   -2.4850 C   0  0  0  0  0  0  0  0  0  0  0  0
    0.7010   14.0990   -0.1340 C   0  0  2  0  0  0  0  0  0  0  0  0
   -0.3250   15.0810    0.4590 C   0  0  0  0  0  0  0  0  0  0  0  0
   -0.3580   16.4300   -0.1790 C   0  0  0  0  0  0  0  0  0  0  0  0
    0.5890   16.9350   -0.9920 C   0  0  0  0  0  0  0  0  0  0  0  0
    1.8860   16.1620   -1.2650 C   0  0  1  0  0  0  0  0  0  0  0  0
    3.0980   17.1200   -1.1300 C   0  0  0  0  0  0  0  0  0  0  0  0
    2.9630   18.3620   -2.0070 C   0  0  0  0  0  0  0  0  0  0  0  0
    1.6910   19.1340   -1.6650 C   0  0  2  0  0  0  0  0  0  0  0  0
    1.8180   19.6700   -0.3440 O   0  0  0  0  0  0  0  0  0  0  0  0
    0.4040   18.2680   -1.7580 C   0  0  0  0  0  0  0  0  0  0  0  0
    0.1030   17.9390   -3.2410 C   0  0  0  0  0  0  0  0  0  0  0  0
   -0.7870   19.1270   -1.2530 C   0  0  0  0  0  0  0  0  0  0  0  0
    2.0770   14.8160   -0.4420 C   0  0  1  0  0  0  0  0  0  0  0  0
    2.7360   15.1250    0.9370 C   0  0  0  0  0  0  0  0  0  0  0  0
    3.0800   13.8790   -1.2130 C   0  0  0  0  0  0  0  0  0  0  0  0
    2.4770   12.9370   -2.2730 C   0  0  0  0  0  0  0  0  0  0  0  0
    1.2780   12.1710   -1.7050 C   0  0  2  0  0  0  0  0  0  0  0  0
    1.7960   11.2760   -0.5290 C   0  0  0  0  0  0  0  0  0  0  0  0
    0.4774    8.9203   -1.2640 H   0  0  0  0  0  0  0  0  0  0  0  0
   -0.6680    8.8041   -2.6428 H   0  0  0  0  0  0  0  0  0  0  0  0
    0.8395    7.8274   -2.6428 H   0  0  0  0  0  0  0  0  0  0  0  0
    1.0376    9.7602   -4.1450 H   0  0  0  0  0  0  0  0  0  0  0  0
    2.7766   10.5170   -1.7961 H   0  0  0  0  0  0  0  0  0  0  0  0
    2.9531    8.8967   -2.6253 H   0  0  0  0  0  0  0  0  0  0  0  0
    3.5350    9.8960   -4.6826 H   0  0  0  0  0  0  0  0  0  0  0  0
    3.0620   11.5433   -4.0911 H   0  0  0  0  0  0  0  0  0  0  0  0
    4.6895   10.3181   -2.3834 H   0  0  0  0  0  0  0  0  0  0  0  0
    5.5138    9.5267   -5.8615 H   0  0  0  0  0  0  0  0  0  0  0  0
    5.3580   11.2871   -6.1829 H   0  0  0  0  0  0  0  0  0  0  0  0
    6.9795   10.5141   -6.1829 H   0  0  0  0  0  0  0  0  0  0  0  0
    7.3789   10.5650   -2.5493 H   0  0  0  0  0  0  0  0  0  0  0  0
    7.8424    9.5701   -3.9713 H   0  0  0  0  0  0  0  0  0  0  0  0
    8.1575   11.3385   -3.9713 H   0  0  0  0  0  0  0  0  0  0  0  0
    0.4679   11.7352   -3.6874 H   0  0  0  0  0  0  0  0  0  0  0  0
   -1.6881   11.1926   -2.7422 H   0  0  0  0  0  0  0  0  0  0  0  0
   -0.9698   10.1183   -1.5232 H   0  0  0  0  0  0  0  0  0  0  0  0
   -1.9604   12.7543   -1.0368 H   0  0  0  0  0  0  0  0  0  0  0  0
   -0.9233   11.8680    0.0780 H   0  0  0  0  0  0  0  0  0  0  0  0
   -0.9173   14.9417   -2.0849 H   0  0  0  0  0  0  0  0  0  0  0  0
    0.4686   14.4196   -3.1014 H   0  0  0  0  0  0  0  0  0  0  0  0
   -1.0544   13.4671   -3.1014 H   0  0  0  0  0  0  0  0  0  0  0  0
    0.8971   13.3591    0.6560 H   0  0  0  0  0  0  0  0  0  0  0  0
   -1.3239   14.6320    0.3567 H   0  0  0  0  0  0  0  0  0  0  0  0
   -0.0211   15.2453    1.5033 H   0  0  0  0  0  0  0  0  0  0  0  0
   -1.2303   17.0657    0.0331 H   0  0  0  0  0  0  0  0  0  0  0  0
    1.8114   15.7988   -2.3006 H   0  0  0  0  0  0  0  0  0  0  0  0
    3.1815   17.4371   -0.0800 H   0  0  0  0  0  0  0  0  0  0  0  0
    3.9938   16.5737   -1.4604 H   0  0  0  0  0  0  0  0  0  0  0  0
    3.8344   19.0136   -1.8453 H   0  0  0  0  0  0  0  0  0  0  0  0
    2.9102   18.0456   -3.0592 H   0  0  0  0  0  0  0  0  0  0  0  0
    1.5818   19.9362   -2.4097 H   0  0  0  0  0  0  0  0  0  0  0  0
    1.2160   20.4310   -0.2760 H   0  0  0  0  0  0  0  0  0  0  0  0
   -0.6387   17.1283   -3.2935 H   0  0  0  0  0  0  0  0  0  0  0  0
   -0.2957   18.8337   -3.7415 H   0  0  0  0  0  0  0  0  0  0  0  0
    1.0296   17.6212   -3.7415 H   0  0  0  0  0  0  0  0  0  0  0  0
   -0.7947   19.1325   -0.1530 H   0  0  0  0  0  0  0  0  0  0  0  0
   -0.6796   20.1569   -1.6241 H   0  0  0  0  0  0  0  0  0  0  0  0
   -1.7304   18.7000   -1.6241 H   0  0  0  0  0  0  0  0  0  0  0  0
    2.0605   14.8083    1.7454 H   0  0  0  0  0  0  0  0  0  0  0  0
    3.6875   14.5792    1.0192 H   0  0  0  0  0  0  0  0  0  0  0  0
    2.9249   16.2055    1.0192 H   0  0  0  0  0  0  0  0  0  0  0  0
    3.8143   14.5228   -1.7193 H   0  0  0  0  0  0  0  0  0  0  0  0
    3.5013   13.2145   -0.4443 H   0  0  0  0  0  0  0  0  0  0  0  0
    2.1475   13.5318   -3.1377 H   0  0  0  0  0  0  0  0  0  0  0  0
    3.2459   12.2113   -2.5764 H   0  0  0  0  0  0  0  0  0  0  0  0
    1.5272   11.7405    0.4312 H   0  0  0  0  0  0  0  0  0  0  0  0
    1.3350   10.2795   -0.5961 H   0  0  0  0  0  0  0  0  0  0  0  0
    2.8897   11.1793   -0.5961 H   0  0  0  0  0  0  0  0  0  0  0  0
  1  2  1  0
  2  3  1  0
  3  4  1  0
  4  5  1  0
  5  6  1  0
  6  7  1  0
  7  8  1  0
  7  9  1  0
  2 10  1  0
 10 11  1  0
 11 12  1  0
 12 13  1  0
 13 14  1  6
 13 15  1  0
 15 16  1  0
 16 17  1  0
 17 18  2  0
 18 19  1  0
 19 20  1  0
 20 21  1  0
 21 22  1  0
 22 23  1  0
 22 24  1  0
 24 25  1  0
 24 26  1  0
 19 27  1  0
 27 28  1  1
 27 29  1  0
 29 30  1  0
 30 31  1  0
 31 32  1  1
  7  5  1  0
 31 10  1  0
 31 13  1  0
 27 15  1  0
 24 18  1  0
  1 33  1  0
  1 34  1  0
  1 35  1  0
  2 36  1  6
  3 37  1  0
  3 38  1  0
  4 39  1  0
  4 40  1  0
  5 41  1  1
  8 42  1  0
  8 43  1  0
  8 44  1  0
  9 45  1  0
  9 46  1  0
  9 47  1  0
 10 48  1  6
 11 49  1  0
 11 50  1  0
 12 51  1  0
 12 52  1  0
 14 53  1  0
 14 54  1  0
 14 55  1  0
 15 56  1  1
 16 57  1  0
 16 58  1  0
 17 59  1  0
 19 60  1  6
 20 61  1  0
 20 62  1  0
 21 63  1  0
 21 64  1  0
 22 65  1  6
 23 66  1  0
 25 67  1  0
 25 68  1  0
 25 69  1  0
 26 70  1  0
 26 71  1  0
 26 72  1  0
 28 73  1  0
 28 74  1  0
 28 75  1  0
 29 76  1  0
 29 77  1  0
 30 78  1  0
 30 79  1  0
 32 80  1  0
 32 81  1  0
 32 82  1  0
M  END
>  <meeko>  (4) 
{"is_sidechain": [false], "intermolecular_energy": 2.731, "internal_energy": -0.839}

$$$$
EPH_relaxed_0001_pdb2pqr_Repair_62_r2_0001_out
     RDKit          3D

 82 86  0  0  0  0  0  0  0  0999 V2000
    2.1920   19.3480   -2.1280 C   0  0  0  0  0  0  0  0  0  0  0  0
    1.6760   19.2440   -0.6900 C   0  0  2  0  0  0  0  0  0  0  0  0
    2.7070   19.7570    0.3360 C   0  0  0  0  0  0  0  0  0  0  0  0
    3.5940   18.6550    0.9210 C   0  0  0  0  0  0  0  0  0  0  0  0
    3.8810   18.8870    2.3740 C   0  0  2  0  0  0  0  0  0  0  0  0
    4.3810   20.1940    2.6840 O   0  0  0  0  0  0  0  0  0  0  0  0
    5.2770   19.0980    2.9280 C   0  0  0  0  0  0  0  0  0  0  0  0
    6.4800   19.0860    2.0380 C   0  0  0  0  0  0  0  0  0  0  0  0
    5.5190   18.8280    4.3810 C   0  0  0  0  0  0  0  0  0  0  0  0
    1.3030   17.8000   -0.3750 C   0  0  1  0  0  0  0  0  0  0  0  0
    0.0110   17.6890    0.4770 C   0  0  0  0  0  0  0  0  0  0  0  0
   -0.7250   16.4070    0.0090 C   0  0  0  0  0  0  0  0  0  0  0  0
    0.3160   15.6520   -0.8500 C   0  0  1  0  0  0  0  0  0  0  0  0
    1.2220   14.9070    0.1800 C   0  0  0  0  0  0  0  0  0  0  0  0
   -0.2570   14.6750   -1.9280 C   0  0  2  0  0  0  0  0  0  0  0  0
   -1.0790   13.4990   -1.3720 C   0  0  0  0  0  0  0  0  0  0  0  0
   -0.2990   12.2620   -1.0700 C   0  0  0  0  0  0  0  0  0  0  0  0
    0.9490   12.0000   -1.5000 C   0  0  0  0  0  0  0  0  0  0  0  0
    1.6690   12.9570   -2.4580 C   0  0  1  0  0  0  0  0  0  0  0  0
    2.3220   12.1450   -3.6070 C   0  0  0  0  0  0  0  0  0  0  0  0
    3.2360   11.0360   -3.0950 C   0  0  0  0  0  0  0  0  0  0  0  0
    2.4700   10.0720   -2.1920 C   0  0  2  0  0  0  0  0  0  0  0  0
    1.5030    9.3720   -2.9820 O   0  0  0  0  0  0  0  0  0  0  0  0
    1.7610   10.7780   -1.0030 C   0  0  0  0  0  0  0  0  0  0  0  0
    2.8190   11.2780    0.0110 C   0  0  0  0  0  0  0  0  0  0  0  0
    0.9110    9.7160   -0.2550 C   0  0  0  0  0  0  0  0  0  0  0  0
    0.8090   14.1840   -2.9890 C   0  0  1  0  0  0  0  0  0  0  0  0
    0.0100   13.7620   -4.2600 C   0  0  0  0  0  0  0  0  0  0  0  0
    1.7820   15.3370   -3.4380 C   0  0  0  0  0  0  0  0  0  0  0  0
    2.2170   16.3410   -2.3530 C   0  0  0  0  0  0  0  0  0  0  0  0
    1.0060   16.8640   -1.5740 C   0  0  2  0  0  0  0  0  0  0  0  0
    0.0870   17.6380   -2.5800 C   0  0  0  0  0  0  0  0  0  0  0  0
    3.2702   19.5653   -2.1158 H   0  0  0  0  0  0  0  0  0  0  0  0
    2.0157   18.3963   -2.6506 H   0  0  0  0  0  0  0  0  0  0  0  0
    1.6608   20.1571   -2.6506 H   0  0  0  0  0  0  0  0  0  0  0  0
    0.7851   19.8844   -0.6113 H   0  0  0  0  0  0  0  0  0  0  0  0
    3.3531   20.4958   -0.1607 H   0  0  0  0  0  0  0  0  0  0  0  0
    2.1395   20.1907    1.1725 H   0  0  0  0  0  0  0  0  0  0  0  0
    3.0818   17.6880    0.8088 H   0  0  0  0  0  0  0  0  0  0  0  0
    4.5504   18.6600    0.3775 H   0  0  0  0  0  0  0  0  0  0  0  0
    3.0658   18.2091    2.6672 H   0  0  0  0  0  0  0  0  0  0  0  0
    7.3915   19.0769    2.6537 H   0  0  0  0  0  0  0  0  0  0  0  0
    6.4574   18.1880    1.4031 H   0  0  0  0  0  0  0  0  0  0  0  0
    6.4753   19.9842    1.4031 H   0  0  0  0  0  0  0  0  0  0  0  0
    4.9067   19.5112    4.9878 H   0  0  0  0  0  0  0  0  0  0  0  0
    5.2452   17.7878    4.6112 H   0  0  0  0  0  0  0  0  0  0  0  0
    6.5829   18.9867    4.6112 H   0  0  0  0  0  0  0  0  0  0  0  0
    2.2237   17.4790    0.1342 H   0  0  0  0  0  0  0  0  0  0  0  0
    0.2665   17.6109    1.5441 H   0  0  0  0  0  0  0  0  0  0  0  0
   -0.6241   18.5780    0.3488 H   0  0  0  0  0  0  0  0  0  0  0  0
   -1.0314   15.7980    0.8722 H   0  0  0  0  0  0  0  0  0  0  0  0
   -1.6434   16.6342   -0.5522 H   0  0  0  0  0  0  0  0  0  0  0  0
    0.9063   15.1666    1.2012 H   0  0  0  0  0  0  0  0  0  0  0  0
    1.1286   13.8210    0.0323 H   0  0  0  0  0  0  0  0  0  0  0  0
    2.2695   15.2084    0.0323 H   0  0  0  0  0  0  0  0  0  0  0  0
   -0.9739   15.3122   -2.4665 H   0  0  0  0  0  0  0  0  0  0  0  0
   -1.5621   13.8319   -0.4415 H   0  0  0  0  0  0  0  0  0  0  0  0
   -1.7910   13.2240   -2.1641 H   0  0  0  0  0  0  0  0  0  0  0  0
   -0.7857   11.5005   -0.4430 H   0  0  0  0  0  0  0  0  0  0  0  0
    2.4489   13.4540   -1.8624 H   0  0  0  0  0  0  0  0  0  0  0  0
    1.5253   11.6923   -4.2156 H   0  0  0  0  0  0  0  0  0  0  0  0
    2.9383   12.8390   -4.1973 H   0  0  0  0  0  0  0  0  0  0  0  0
    3.6428   10.4799   -3.9525 H   0  0  0  0  0  0  0  0  0  0  0  0
    4.0496   11.4923   -2.5120 H   0  0  0  0  0  0  0  0  0  0  0  0
    3.2022    9.3786   -1.7526 H   0  0  0  0  0  0  0  0  0  0  0  0
    1.9850    8.8700   -3.6600 H   0  0  0  0  0  0  0  0  0  0  0  0
    2.4555   11.1062    1.0349 H   0  0  0  0  0  0  0  0  0  0  0  0
    3.7603   10.7295   -0.1408 H   0  0  0  0  0  0  0  0  0  0  0  0
    2.9928   12.3535   -0.1408 H   0  0  0  0  0  0  0  0  0  0  0  0
    1.0225    9.8553    0.8304 H   0  0  0  0  0  0  0  0  0  0  0  0
   -0.1471    9.8313   -0.5327 H   0  0  0  0  0  0  0  0  0  0  0  0
    1.2553    8.7089   -0.5327 H   0  0  0  0  0  0  0  0  0  0  0  0
   -0.9253   13.2680   -3.9579 H   0  0  0  0  0  0  0  0  0  0  0  0
   -0.2236   14.6543   -4.8593 H   0  0  0  0  0  0  0  0  0  0  0  0
    0.6153   13.0660   -4.8593 H   0  0  0  0  0  0  0  0  0  0  0  0
    2.6915   14.8671   -3.8404 H   0  0  0  0  0  0  0  0  0  0  0  0
    1.2089   15.9301   -4.1658 H   0  0  0  0  0  0  0  0  0  0  0  0
    2.9054   15.8415   -1.6555 H   0  0  0  0  0  0  0  0  0  0  0  0
    2.7146   17.1919   -2.8412 H   0  0  0  0  0  0  0  0  0  0  0  0
   -0.6373   18.2480   -2.0202 H   0  0  0  0  0  0  0  0  0  0  0  0
    0.7052   18.2916   -3.2130 H   0  0  0  0  0  0  0  0  0  0  0  0
   -0.4520   16.9177   -3.2130 H   0  0  0  0  0  0  0  0  0  0  0  0
  1  2  1  0
  2  3  1  0
  3  4  1  0
  4  5  1  0
  5  6  1  0
  6  7  1  0
  7  8  1  0
  7  9  1  0
  2 10  1  0
 10 11  1  0
 11 12  1  0
 12 13  1  0
 13 14  1  1
 13 15  1  0
 15 16  1  0
 16 17  1  0
 17 18  2  0
 18 19  1  0
 19 20  1  0
 20 21  1  0
 21 22  1  0
 22 23  1  0
 22 24  1  0
 24 25  1  0
 24 26  1  0
 19 27  1  0
 27 28  1  6
 27 29  1  0
 29 30  1  0
 30 31  1  0
 31 32  1  6
  7  5  1  0
 31 10  1  0
 31 13  1  0
 27 15  1  0
 24 18  1  0
  1 33  1  0
  1 34  1  0
  1 35  1  0
  2 36  1  6
  3 37  1  0
  3 38  1  0
  4 39  1  0
  4 40  1  0
  5 41  1  1
  8 42  1  0
  8 43  1  0
  8 44  1  0
  9 45  1  0
  9 46  1  0
  9 47  1  0
 10 48  1  1
 11 49  1  0
 11 50  1  0
 12 51  1  0
 12 52  1  0
 14 53  1  0
 14 54  1  0
 14 55  1  0
 15 56  1  6
 16 57  1  0
 16 58  1  0
 17 59  1  0
 19 60  1  1
 20 61  1  0
 20 62  1  0
 21 63  1  0
 21 64  1  0
 22 65  1  1
 23 66  1  0
 25 67  1  0
 25 68  1  0
 25 69  1  0
 26 70  1  0
 26 71  1  0
 26 72  1  0
 28 73  1  0
 28 74  1  0
 28 75  1  0
 29 76  1  0
 29 77  1  0
 30 78  1  0
 30 79  1  0
 32 80  1  0
 32 81  1  0
 32 82  1  0
M  END
>  <meeko>  (5) 
{"is_sidechain": [false], "intermolecular_energy": 2.731, "internal_energy": -0.839}

$$$$
EPH_relaxed_0001_pdb2pqr_Repair_62_r2_0001_out
     RDKit          3D

 82 86  0  0  0  0  0  0  0  0999 V2000
    2.6740   19.1190   -0.9790 C   0  0  0  0  0  0  0  0  0  0  0  0
    2.4720   18.1140   -2.1160 C   0  0  2  0  0  0  0  0  0  0  0  0
    1.0730   18.2300   -2.7520 C   0  0  0  0  0  0  0  0  0  0  0  0
    0.2890   19.4630   -2.2950 C   0  0  0  0  0  0  0  0  0  0  0  0
   -1.0190   19.0870   -1.6680 C   0  0  2  0  0  0  0  0  0  0  0  0
   -1.8760   20.1940   -1.3600 O   0  0  0  0  0  0  0  0  0  0  0  0
   -1.3930   19.4360   -0.2390 C   0  0  0  0  0  0  0  0  0  0  0  0
   -0.4570   20.1930    0.6490 C   0  0  0  0  0  0  0  0  0  0  0  0
   -2.4520   18.6260    0.4420 C   0  0  0  0  0  0  0  0  0  0  0  0
    2.6950   16.6960   -1.6020 C   0  0  1  0  0  0  0  0  0  0  0  0
    3.4630   16.6630   -0.2540 C   0  0  0  0  0  0  0  0  0  0  0  0
    2.8920   15.4720    0.5570 C   0  0  0  0  0  0  0  0  0  0  0  0
    2.0610   14.6650   -0.4680 C   0  0  1  0  0  0  0  0  0  0  0  0
    3.1060   13.8010   -1.2400 C   0  0  0  0  0  0  0  0  0  0  0  0
    0.9060   13.7880    0.1160 C   0  0  2  0  0  0  0  0  0  0  0  0
    1.3560   12.6670    1.0690 C   0  0  0  0  0  0  0  0  0  0  0  0
    1.6440   11.3550    0.4180 C   0  0  0  0  0  0  0  0  0  0  0  0
    1.2770   11.0020   -0.8280 C   0  0  0  0  0  0  0  0  0  0  0  0
    0.4100   11.9320   -1.6860 C   0  0  1  0  0  0  0  0  0  0  0  0
   -0.7350   11.1150   -2.3400 C   0  0  0  0  0  0  0  0  0  0  0  0
   -0.2220    9.9100   -3.1210 C   0  0  0  0  0  0  0  0  0  0  0  0
    0.5860    8.9790   -2.2200 C   0  0  2  0  0  0  0  0  0  0  0  0
   -0.2920    8.4000   -1.2500 O   0  0  0  0  0  0  0  0  0  0  0  0
    1.7630    9.6940   -1.5000 C   0  0  0  0  0  0  0  0  0  0  0  0
    2.8610   10.0560   -2.5300 C   0  0  0  0  0  0  0  0  0  0  0  0
    2.4080    8.6800   -0.5170 C   0  0  0  0  0  0  0  0  0  0  0  0
   -0.1120   13.2510   -0.9690 C   0  0  1  0  0  0  0  0  0  0  0  0
   -1.4470   12.9550   -0.2200 C   0  0  0  0  0  0  0  0  0  0  0  0
   -0.4470   14.3330   -2.0630 C   0  0  0  0  0  0  0  0  0  0  0  0
    0.7080   15.2470   -2.5120 C   0  0  0  0  0  0  0  0  0  0  0  0
    1.4380   15.8420   -1.3040 C   0  0  2  0  0  0  0  0  0  0  0  0
    0.4170   16.7340   -0.5190 C   0  0  0  0  0  0  0  0  0  0  0  0
    2.5706   18.6046   -0.0122 H   0  0  0  0  0  0  0  0  0  0  0  0
    3.6788   19.5603   -1.0539 H   0  0  0  0  0  0  0  0  0  0  0  0
    1.9177   19.9143   -1.0539 H   0  0  0  0  0  0  0  0  0  0  0  0
    3.2099   18.3464   -2.8980 H   0  0  0  0  0  0  0  0  0  0  0  0
    1.1913   18.2791   -3.8445 H   0  0  0  0  0  0  0  0  0  0  0  0
    0.4999   17.3477   -2.4308 H   0  0  0  0  0  0  0  0  0  0  0  0
    0.8913   20.0158   -1.5590 H   0  0  0  0  0  0  0  0  0  0  0  0
    0.0798   20.0834   -3.1789 H   0  0  0  0  0  0  0  0  0  0  0  0
   -1.0407   18.1393   -2.2261 H   0  0  0  0  0  0  0  0  0  0  0  0
   -0.7063   19.9914    1.7013 H   0  0  0  0  0  0  0  0  0  0  0  0
    0.5766   19.8738    0.4494 H   0  0  0  0  0  0  0  0  0  0  0  0
   -0.5530   21.2705    0.4494 H   0  0  0  0  0  0  0  0  0  0  0  0
   -2.3367   18.7142    1.5324 H   0  0  0  0  0  0  0  0  0  0  0  0
   -3.4444   18.9977    0.1470 H   0  0  0  0  0  0  0  0  0  0  0  0
   -2.3531   17.5709    0.1470 H   0  0  0  0  0  0  0  0  0  0  0  0
    3.2423   16.2737   -2.4577 H   0  0  0  0  0  0  0  0  0  0  0  0
    4.5384   16.5177   -0.4342 H   0  0  0  0  0  0  0  0  0  0  0  0
    3.3401   17.6089    0.2938 H   0  0  0  0  0  0  0  0  0  0  0  0
    3.7057   14.8564    0.9681 H   0  0  0  0  0  0  0  0  0  0  0  0
    2.2888   15.8027    1.4153 H   0  0  0  0  0  0  0  0  0  0  0  0
    3.7470   13.2710   -0.5202 H   0  0  0  0  0  0  0  0  0  0  0  0
    2.5815   13.0692   -1.8720 H   0  0  0  0  0  0  0  0  0  0  0  0
    3.7261   14.4536   -1.8720 H   0  0  0  0  0  0  0  0  0  0  0  0
    0.3560   14.5075    0.7404 H   0  0  0  0  0  0  0  0  0  0  0  0
    2.2712   13.0015    1.5793 H   0  0  0  0  0  0  0  0  0  0  0  0
    0.5114   12.4897    1.7511 H   0  0  0  0  0  0  0  0  0  0  0  0
    2.2039   10.6134    1.0067 H   0  0  0  0  0  0  0  0  0  0  0  0
    1.0739   12.3335   -2.4658 H   0  0  0  0  0  0  0  0  0  0  0  0
   -1.4114   10.7601   -1.5485 H   0  0  0  0  0  0  0  0  0  0  0  0
   -1.2536   11.7764   -3.0497 H   0  0  0  0  0  0  0  0  0  0  0  0
   -1.0788    9.3573   -3.5337 H   0  0  0  0  0  0  0  0  0  0  0  0
    0.4307   10.2685   -3.9306 H   0  0  0  0  0  0  0  0  0  0  0  0
    1.0342    8.2055   -2.8610 H   0  0  0  0  0  0  0  0  0  0  0  0
    0.1460    7.6100   -0.8910 H   0  0  0  0  0  0  0  0  0  0  0  0
    3.7762   10.3577   -1.9995 H   0  0  0  0  0  0  0  0  0  0  0  0
    3.0746    9.1807   -3.1611 H   0  0  0  0  0  0  0  0  0  0  0  0
    2.5122   10.8867   -3.1611 H   0  0  0  0  0  0  0  0  0  0  0  0
    2.2079    8.9946    0.5179 H   0  0  0  0  0  0  0  0  0  0  0  0
    1.9787    7.6815   -0.6862 H   0  0  0  0  0  0  0  0  0  0  0  0
    3.4944    8.6456   -0.6862 H   0  0  0  0  0  0  0  0  0  0  0  0
   -1.2746   12.9932    0.8657 H   0  0  0  0  0  0  0  0  0  0  0  0
   -2.1986   13.7083   -0.4986 H   0  0  0  0  0  0  0  0  0  0  0  0
   -1.8097   11.9546   -0.4986 H   0  0  0  0  0  0  0  0  0  0  0  0
   -0.8171   13.8029   -2.9529 H   0  0  0  0  0  0  0  0  0  0  0  0
   -1.1781   15.0046   -1.5892 H   0  0  0  0  0  0  0  0  0  0  0  0
    1.4206   14.6593   -3.1093 H   0  0  0  0  0  0  0  0  0  0  0  0
    0.2911   16.0706   -3.1103 H   0  0  0  0  0  0  0  0  0  0  0  0
    0.5694   16.6009    0.5622 H   0  0  0  0  0  0  0  0  0  0  0  0
    0.5733   17.7901   -0.7840 H   0  0  0  0  0  0  0  0  0  0  0  0
   -0.6086   16.4373   -0.7840 H   0  0  0  0  0  0  0  0  0  0  0  0
  1  2  1  0
  2  3  1  0
  3  4  1  0
  4  5  1  0
  5  6  1  0
  6  7  1  0
  7  8  1  0
  7  9  1  0
  2 10  1  0
 10 11  1  0
 11 12  1  0
 12 13  1  0
 13 14  1  6
 13 15  1  0
 15 16  1  0
 16 17  1  0
 17 18  2  0
 18 19  1  0
 19 20  1  0
 20 21  1  0
 21 22  1  0
 22 23  1  0
 22 24  1  0
 24 25  1  0
 24 26  1  0
 19 27  1  0
 27 28  1  1
 27 29  1  0
 29 30  1  0
 30 31  1  0
 31 32  1  1
  7  5  1  0
 31 10  1  0
 31 13  1  0
 27 15  1  0
 24 18  1  0
  1 33  1  0
  1 34  1  0
  1 35  1  0
  2 36  1  6
  3 37  1  0
  3 38  1  0
  4 39  1  0
  4 40  1  0
  5 41  1  6
  8 42  1  0
  8 43  1  0
  8 44  1  0
  9 45  1  0
  9 46  1  0
  9 47  1  0
 10 48  1  6
 11 49  1  0
 11 50  1  0
 12 51  1  0
 12 52  1  0
 14 53  1  0
 14 54  1  0
 14 55  1  0
 15 56  1  1
 16 57  1  0
 16 58  1  0
 17 59  1  0
 19 60  1  6
 20 61  1  0
 20 62  1  0
 21 63  1  0
 21 64  1  0
 22 65  1  6
 23 66  1  0
 25 67  1  0
 25 68  1  0
 25 69  1  0
 26 70  1  0
 26 71  1  0
 26 72  1  0
 28 73  1  0
 28 74  1  0
 28 75  1  0
 29 76  1  0
 29 77  1  0
 30 78  1  0
 30 79  1  0
 32 80  1  0
 32 81  1  0
 32 82  1  0
M  END
>  <meeko>  (6) 
{"is_sidechain": [false], "intermolecular_energy": 2.731, "internal_energy": -0.839}

$$$$
EPH_relaxed_0001_pdb2pqr_Repair_62_r2_0001_out
     RDKit          3D

 82 86  0  0  0  0  0  0  0  0999 V2000
    0.0220   10.6870   -4.2220 C   0  0  0  0  0  0  0  0  0  0  0  0
    0.9380   10.3360   -3.0450 C   0  0  2  0  0  0  0  0  0  0  0  0
    0.4790    9.0590   -2.3140 C   0  0  0  0  0  0  0  0  0  0  0  0
   -1.0290    8.8080   -2.4000 C   0  0  0  0  0  0  0  0  0  0  0  0
   -1.6660    8.7900   -1.0430 C   0  0  2  0  0  0  0  0  0  0  0  0
   -3.0720    9.0700   -1.0390 O   0  0  0  0  0  0  0  0  0  0  0  0
   -2.2330   10.0250   -0.3690 C   0  0  0  0  0  0  0  0  0  0  0  0
   -2.1890   11.3660   -1.0320 C   0  0  0  0  0  0  0  0  0  0  0  0
   -2.3850   10.0210    1.1200 C   0  0  0  0  0  0  0  0  0  0  0  0
    0.9970   11.5040   -2.0670 C   0  0  1  0  0  0  0  0  0  0  0  0
    2.0340   11.2810   -0.9340 C   0  0  0  0  0  0  0  0  0  0  0  0
    2.6420   12.6690   -0.6050 C   0  0  0  0  0  0  0  0  0  0  0  0
    1.7120   13.6800   -1.3140 C   0  0  1  0  0  0  0  0  0  0  0  0
    0.4930   13.8470   -0.3530 C   0  0  0  0  0  0  0  0  0  0  0  0
    2.3460   15.0600   -1.6850 C   0  0  2  0  0  0  0  0  0  0  0  0
    2.8270   15.9000   -0.4890 C   0  0  0  0  0  0  0  0  0  0  0  0
    1.8130   16.8370    0.0810 C   0  0  0  0  0  0  0  0  0  0  0  0
    0.6660   17.2070   -0.5180 C   0  0  0  0  0  0  0  0  0  0  0  0
    0.3380   16.7460   -1.9440 C   0  0  1  0  0  0  0  0  0  0  0  0
   -0.1640   17.9540   -2.7760 C   0  0  0  0  0  0  0  0  0  0  0  0
   -1.3330   18.6760   -2.1130 C   0  0  0  0  0  0  0  0  0  0  0  0
   -0.9490   19.1710   -0.7210 C   0  0  2  0  0  0  0  0  0  0  0  0
    0.0440   20.1920   -0.8520 O   0  0  0  0  0  0  0  0  0  0  0  0
   -0.4190   18.0410    0.2060 C   0  0  0  0  0  0  0  0  0  0  0  0
   -1.5830   17.0950    0.5910 C   0  0  0  0  0  0  0  0  0  0  0  0
    0.0640   18.6960    1.5280 C   0  0  0  0  0  0  0  0  0  0  0  0
    1.4780   15.9250   -2.6870 C   0  0  1  0  0  0  0  0  0  0  0  0
    2.4620   16.9040   -3.3980 C   0  0  0  0  0  0  0  0  0  0  0  0
    0.8250   15.0490   -3.8210 C   0  0  0  0  0  0  0  0  0  0  0  0
    0.3260   13.6490   -3.4180 C   0  0  0  0  0  0  0  0  0  0  0  0
    1.4000   12.8880   -2.6350 C   0  0  2  0  0  0  0  0  0  0  0  0
    2.6300   12.6860   -3.5840 C   0  0  0  0  0  0  0  0  0  0  0  0
   -0.9411   11.0561   -3.8397 H   0  0  0  0  0  0  0  0  0  0  0  0
    0.4961   11.4671   -4.8357 H   0  0  0  0  0  0  0  0  0  0  0  0
   -0.1466    9.7898   -4.8357 H   0  0  0  0  0  0  0  0  0  0  0  0
    1.9412   10.1408   -3.4519 H   0  0  0  0  0  0  0  0  0  0  0  0
    1.0001    8.1983   -2.7585 H   0  0  0  0  0  0  0  0  0  0  0  0
    0.7220    9.1933   -1.2496 H   0  0  0  0  0  0  0  0  0  0  0  0
   -1.4898    9.6068   -2.9996 H   0  0  0  0  0  0  0  0  0  0  0  0
   -1.1870    7.8243   -2.8663 H   0  0  0  0  0  0  0  0  0  0  0  0
   -0.9633    8.0178   -0.6967 H   0  0  0  0  0  0  0  0  0  0  0  0
   -2.1632   12.1537   -0.2647 H   0  0  0  0  0  0  0  0  0  0  0  0
   -1.2881   11.4355   -1.6593 H   0  0  0  0  0  0  0  0  0  0  0  0
   -3.0834   11.4944   -1.6593 H   0  0  0  0  0  0  0  0  0  0  0  0
   -1.3909   10.0472    1.5901 H   0  0  0  0  0  0  0  0  0  0  0  0
   -2.9615   10.9043    1.4321 H   0  0  0  0  0  0  0  0  0  0  0  0
   -2.9143    9.1086    1.4321 H   0  0  0  0  0  0  0  0  0  0  0  0
   -0.0527   11.5235   -1.7388 H   0  0  0  0  0  0  0  0  0  0  0  0
    1.5394   10.8636   -0.0445 H   0  0  0  0  0  0  0  0  0  0  0  0
    2.8145   10.5718   -1.2468 H   0  0  0  0  0  0  0  0  0  0  0  0
    2.6482   12.8427    0.4812 H   0  0  0  0  0  0  0  0  0  0  0  0
    3.6862   12.7570   -0.9396 H   0  0  0  0  0  0  0  0  0  0  0  0
    0.8392   13.7996    0.6900 H   0  0  0  0  0  0  0  0  0  0  0  0
    0.0124   14.8194   -0.5360 H   0  0  0  0  0  0  0  0  0  0  0  0
   -0.2314   13.0397   -0.5360 H   0  0  0  0  0  0  0  0  0  0  0  0
    3.2560   14.7625   -2.2266 H   0  0  0  0  0  0  0  0  0  0  0  0
    3.1378   15.2092    0.3086 H   0  0  0  0  0  0  0  0  0  0  0  0
    3.6445   16.5304   -0.8688 H   0  0  0  0  0  0  0  0  0  0  0  0
    2.0214   17.2605    1.0746 H   0  0  0  0  0  0  0  0  0  0  0  0
   -0.4654   16.0011   -1.8452 H   0  0  0  0  0  0  0  0  0  0  0  0
    0.6654   18.6658   -2.8999 H   0  0  0  0  0  0  0  0  0  0  0  0
   -0.5155   17.5691   -3.7447 H   0  0  0  0  0  0  0  0  0  0  0  0
   -1.6236   19.5364   -2.7337 H   0  0  0  0  0  0  0  0  0  0  0  0
   -2.1719   17.9712   -2.0162 H   0  0  0  0  0  0  0  0  0  0  0  0
   -1.8608   19.5634   -0.2471 H   0  0  0  0  0  0  0  0  0  0  0  0
    0.3450   20.1930   -1.7760 H   0  0  0  0  0  0  0  0  0  0  0  0
   -1.6585   17.0336    1.6867 H   0  0  0  0  0  0  0  0  0  0  0  0
   -2.5251   17.4867    0.1799 H   0  0  0  0  0  0  0  0  0  0  0  0
   -1.3922   16.0927    0.1799 H   0  0  0  0  0  0  0  0  0  0  0  0
   -0.3461   18.1399    2.3839 H   0  0  0  0  0  0  0  0  0  0  0  0
    1.1630   18.6731    1.5684 H   0  0  0  0  0  0  0  0  0  0  0  0
   -0.2827   19.7391    1.5684 H   0  0  0  0  0  0  0  0  0  0  0  0
    3.0285   17.4676   -2.6421 H   0  0  0  0  0  0  0  0  0  0  0  0
    3.1592   16.3307   -4.0267 H   0  0  0  0  0  0  0  0  0  0  0  0
    1.8923   17.6041   -4.0267 H   0  0  0  0  0  0  0  0  0  0  0  0
   -0.0356   15.6071   -4.2184 H   0  0  0  0  0  0  0  0  0  0  0  0
    1.6327   14.8685   -4.5456 H   0  0  0  0  0  0  0  0  0  0  0  0
   -0.5708   13.7538   -2.7897 H   0  0  0  0  0  0  0  0  0  0  0  0
    0.0921   13.0837   -4.3322 H   0  0  0  0  0  0  0  0  0  0  0  0
    3.5378   12.5369   -2.9810 H   0  0  0  0  0  0  0  0  0  0  0  0
    2.4624   11.8034   -4.2187 H   0  0  0  0  0  0  0  0  0  0  0  0
    2.7535   13.5759   -4.2187 H   0  0  0  0  0  0  0  0  0  0  0  0
  1  2  1  0
  2  3  1  0
  3  4  1  0
  4  5  1  0
  5  6  1  0
  6  7  1  0
  7  8  1  0
  7  9  1  0
  2 10  1  0
 10 11  1  0
 11 12  1  0
 12 13  1  0
 13 14  1  1
 13 15  1  0
 15 16  1  0
 16 17  1  0
 17 18  2  0
 18 19  1  0
 19 20  1  0
 20 21  1  0
 21 22  1  0
 22 23  1  0
 22 24  1  0
 24 25  1  0
 24 26  1  0
 19 27  1  0
 27 28  1  6
 27 29  1  0
 29 30  1  0
 30 31  1  0
 31 32  1  6
  7  5  1  0
 31 10  1  0
 31 13  1  0
 27 15  1  0
 24 18  1  0
  1 33  1  0
  1 34  1  0
  1 35  1  0
  2 36  1  6
  3 37  1  0
  3 38  1  0
  4 39  1  0
  4 40  1  0
  5 41  1  1
  8 42  1  0
  8 43  1  0
  8 44  1  0
  9 45  1  0
  9 46  1  0
  9 47  1  0
 10 48  1  1
 11 49  1  0
 11 50  1  0
 12 51  1  0
 12 52  1  0
 14 53  1  0
 14 54  1  0
 14 55  1  0
 15 56  1  6
 16 57  1  0
 16 58  1  0
 17 59  1  0
 19 60  1  1
 20 61  1  0
 20 62  1  0
 21 63  1  0
 21 64  1  0
 22 65  1  1
 23 66  1  0
 25 67  1  0
 25 68  1  0
 25 69  1  0
 26 70  1  0
 26 71  1  0
 26 72  1  0
 28 73  1  0
 28 74  1  0
 28 75  1  0
 29 76  1  0
 29 77  1  0
 30 78  1  0
 30 79  1  0
 32 80  1  0
 32 81  1  0
 32 82  1  0
M  END
>  <meeko>  (7) 
{"is_sidechain": [false], "intermolecular_energy": 2.731, "internal_energy": -0.839}

$$$$
EPH_relaxed_0001_pdb2pqr_Repair_62_r2_0001_out
     RDKit          3D

 82 86  0  0  0  0  0  0  0  0999 V2000
   -0.7860   20.1940   -1.9380 C   0  0  0  0  0  0  0  0  0  0  0  0
   -0.4150   19.1720   -0.8590 C   0  0  2  0  0  0  0  0  0  0  0  0
    0.4340   19.7970    0.2650 C   0  0  0  0  0  0  0  0  0  0  0  0
    1.9270   19.8840   -0.0670 C   0  0  0  0  0  0  0  0  0  0  0  0
    2.7610   20.0360    1.1690 C   0  0  2  0  0  0  0  0  0  0  0  0
    4.1660   20.1880    0.9270 O   0  0  0  0  0  0  0  0  0  0  0  0
    3.7690   19.0000    1.6310 C   0  0  0  0  0  0  0  0  0  0  0  0
    3.9940   17.7340    0.8640 C   0  0  0  0  0  0  0  0  0  0  0  0
    4.1740   18.9890    3.0720 C   0  0  0  0  0  0  0  0  0  0  0  0
    0.3310   18.0010   -1.4870 C   0  0  1  0  0  0  0  0  0  0  0  0
    1.8050   18.3470   -1.8300 C   0  0  0  0  0  0  0  0  0  0  0  0
    2.6340   17.0590   -1.5920 C   0  0  0  0  0  0  0  0  0  0  0  0
    1.5780   15.9380   -1.4450 C   0  0  1  0  0  0  0  0  0  0  0  0
    1.1830   15.5640   -2.9080 C   0  0  0  0  0  0  0  0  0  0  0  0
    2.0160   14.6800   -0.6260 C   0  0  2  0  0  0  0  0  0  0  0  0
    3.1940   13.8900   -1.2230 C   0  0  0  0  0  0  0  0  0  0  0  0
    2.8150   12.7970   -2.1670 C   0  0  0  0  0  0  0  0  0  0  0  0
    1.5820   12.2740   -2.3040 C   0  0  0  0  0  0  0  0  0  0  0  0
    0.4320   12.7190   -1.3910 C   0  0  1  0  0  0  0  0  0  0  0  0
   -0.3310   11.4710   -0.8750 C   0  0  0  0  0  0  0  0  0  0  0  0
   -0.8020   10.5630   -2.0070 C   0  0  0  0  0  0  0  0  0  0  0  0
    0.3760   10.0960   -2.8570 C   0  0  2  0  0  0  0  0  0  0  0  0
    1.2050    9.2400   -2.0650 O   0  0  0  0  0  0  0  0  0  0  0  0
    1.2260   11.2670   -3.4250 C   0  0  0  0  0  0  0  0  0  0  0  0
    0.4180   12.0160   -4.5130 C   0  0  0  0  0  0  0  0  0  0  0  0
    2.4600   10.6570   -4.1430 C   0  0  0  0  0  0  0  0  0  0  0  0
    0.8230   13.7220   -0.2220 C   0  0  1  0  0  0  0  0  0  0  0  0
    1.2990   12.9220    1.0290 C   0  0  0  0  0  0  0  0  0  0  0  0
   -0.4600   14.5190    0.2220 C   0  0  0  0  0  0  0  0  0  0  0  0
   -0.7730   15.8170   -0.5470 C   0  0  0  0  0  0  0  0  0  0  0  0
    0.4680   16.7100   -0.6430 C   0  0  2  0  0  0  0  0  0  0  0  0
    0.8760   17.1200    0.8130 C   0  0  0  0  0  0  0  0  0  0  0  0
   -1.1241   21.1253   -1.4602 H   0  0  0  0  0  0  0  0  0  0  0  0
    0.0941   20.4018   -2.5643 H   0  0  0  0  0  0  0  0  0  0  0  0
   -1.5944   19.7888   -2.5643 H   0  0  0  0  0  0  0  0  0  0  0  0
   -1.3512   18.8151   -0.4050 H   0  0  0  0  0  0  0  0  0  0  0  0
    0.0612   20.8139    0.4574 H   0  0  0  0  0  0  0  0  0  0  0  0
    0.3375   19.1416    1.1431 H   0  0  0  0  0  0  0  0  0  0  0  0
    2.2300   18.9654   -0.5909 H   0  0  0  0  0  0  0  0  0  0  0  0
    2.0869   20.7693   -0.7000 H   0  0  0  0  0  0  0  0  0  0  0  0
    1.9388   20.5486    1.6898 H   0  0  0  0  0  0  0  0  0  0  0  0
    4.1421   16.9009    1.5668 H   0  0  0  0  0  0  0  0  0  0  0  0
    3.1183   17.5283    0.2308 H   0  0  0  0  0  0  0  0  0  0  0  0
    4.8869   17.8427    0.2308 H   0  0  0  0  0  0  0  0  0  0  0  0
    3.2752   19.0134    3.7057 H   0  0  0  0  0  0  0  0  0  0  0  0
    4.7478   18.0749    3.2846 H   0  0  0  0  0  0  0  0  0  0  0  0
    4.7966   19.8706    3.2846 H   0  0  0  0  0  0  0  0  0  0  0  0
   -0.3166   17.8149   -2.3564 H   0  0  0  0  0  0  0  0  0  0  0  0
    1.8857   18.6605   -2.8813 H   0  0  0  0  0  0  0  0  0  0  0  0
    2.1722   19.1741   -1.2047 H   0  0  0  0  0  0  0  0  0  0  0  0
    3.2959   16.8594   -2.4476 H   0  0  0  0  0  0  0  0  0  0  0  0
    3.2844   17.1384   -0.7084 H   0  0  0  0  0  0  0  0  0  0  0  0
    0.3843   14.8078   -2.8902 H   0  0  0  0  0  0  0  0  0  0  0  0
    0.8256   16.4625   -3.4324 H   0  0  0  0  0  0  0  0  0  0  0  0
    2.0607   15.1581   -3.4324 H   0  0  0  0  0  0  0  0  0  0  0  0
    2.3968   15.1256    0.3048 H   0  0  0  0  0  0  0  0  0  0  0  0
    3.8389   14.5981   -1.7640 H   0  0  0  0  0  0  0  0  0  0  0  0
    3.6933   13.3999   -0.3742 H   0  0  0  0  0  0  0  0  0  0  0  0
    3.6106   12.3841   -2.8046 H   0  0  0  0  0  0  0  0  0  0  0  0
   -0.2338   13.3317   -2.0166 H   0  0  0  0  0  0  0  0  0  0  0  0
    0.3374   10.8963   -0.2170 H   0  0  0  0  0  0  0  0  0  0  0  0
   -1.2233   11.8242   -0.3374 H   0  0  0  0  0  0  0  0  0  0  0  0
   -1.3069    9.6849   -1.5779 H   0  0  0  0  0  0  0  0  0  0  0  0
   -1.4941   11.1298   -2.6471 H   0  0  0  0  0  0  0  0  0  0  0  0
   -0.0362    9.5594   -3.7242 H   0  0  0  0  0  0  0  0  0  0  0  0
    1.6460    9.7920   -1.3980 H   0  0  0  0  0  0  0  0  0  0  0  0
   -0.3078   12.6888   -4.0327 H   0  0  0  0  0  0  0  0  0  0  0  0
    1.1045   12.6043   -5.1396 H   0  0  0  0  0  0  0  0  0  0  0  0
   -0.1167   11.2870   -5.1396 H   0  0  0  0  0  0  0  0  0  0  0  0
    3.1814   10.3004   -3.3930 H   0  0  0  0  0  0  0  0  0  0  0  0
    2.1385    9.8141   -4.7723 H   0  0  0  0  0  0  0  0  0  0  0  0
    2.9345   11.4243   -4.7723 H   0  0  0  0  0  0  0  0  0  0  0  0
    0.9855   13.4489    1.9423 H   0  0  0  0  0  0  0  0  0  0  0  0
    0.8518   11.9171    1.0136 H   0  0  0  0  0  0  0  0  0  0  0  0
    2.3955   12.8356    1.0136 H   0  0  0  0  0  0  0  0  0  0  0  0
   -1.3243   13.8482    0.1081 H   0  0  0  0  0  0  0  0  0  0  0  0
   -0.2570   14.8385    1.2548 H   0  0  0  0  0  0  0  0  0  0  0  0
   -1.1117   15.5613   -1.5618 H   0  0  0  0  0  0  0  0  0  0  0  0
   -1.5584   16.3648   -0.0056 H   0  0  0  0  0  0  0  0  0  0  0  0
    0.2916   16.5328    1.5366 H   0  0  0  0  0  0  0  0  0  0  0  0
    1.9481   16.9240    0.9623 H   0  0  0  0  0  0  0  0  0  0  0  0
    0.6748   18.1911    0.9623 H   0  0  0  0  0  0  0  0  0  0  0  0
  1  2  1  0
  2  3  1  0
  3  4  1  0
  4  5  1  0
  5  6  1  0
  6  7  1  0
  7  8  1  0
  7  9  1  0
  2 10  1  0
 10 11  1  0
 11 12  1  0
 12 13  1  0
 13 14  1  6
 13 15  1  0
 15 16  1  0
 16 17  1  0
 17 18  2  0
 18 19  1  0
 19 20  1  0
 20 21  1  0
 21 22  1  0
 22 23  1  0
 22 24  1  0
 24 25  1  0
 24 26  1  0
 19 27  1  0
 27 28  1  1
 27 29  1  0
 29 30  1  0
 30 31  1  0
 31 32  1  1
  7  5  1  0
 31 10  1  0
 31 13  1  0
 27 15  1  0
 24 18  1  0
  1 33  1  0
  1 34  1  0
  1 35  1  0
  2 36  1  1
  3 37  1  0
  3 38  1  0
  4 39  1  0
  4 40  1  0
  5 41  1  1
  8 42  1  0
  8 43  1  0
  8 44  1  0
  9 45  1  0
  9 46  1  0
  9 47  1  0
 10 48  1  6
 11 49  1  0
 11 50  1  0
 12 51  1  0
 12 52  1  0
 14 53  1  0
 14 54  1  0
 14 55  1  0
 15 56  1  1
 16 57  1  0
 16 58  1  0
 17 59  1  0
 19 60  1  6
 20 61  1  0
 20 62  1  0
 21 63  1  0
 21 64  1  0
 22 65  1  6
 23 66  1  0
 25 67  1  0
 25 68  1  0
 25 69  1  0
 26 70  1  0
 26 71  1  0
 26 72  1  0
 28 73  1  0
 28 74  1  0
 28 75  1  0
 29 76  1  0
 29 77  1  0
 30 78  1  0
 30 79  1  0
 32 80  1  0
 32 81  1  0
 32 82  1  0
M  END
>  <meeko>  (8) 
{"is_sidechain": [false], "intermolecular_energy": 2.731, "internal_energy": -0.839}

$$$$
EPH_relaxed_0001_pdb2pqr_Repair_62_r2_0001_out
     RDKit          3D

 82 86  0  0  0  0  0  0  0  0999 V2000
   -5.1230    5.9990   -1.9790 C   0  0  0  0  0  0  0  0  0  0  0  0
   -5.4740    7.4880   -2.0480 C   0  0  2  0  0  0  0  0  0  0  0  0
   -5.2310    8.2040   -0.7040 C   0  0  0  0  0  0  0  0  0  0  0  0
   -4.2260    9.3560   -0.7930 C   0  0  0  0  0  0  0  0  0  0  0  0
   -2.8120    8.8640   -0.7260 C   0  0  2  0  0  0  0  0  0  0  0  0
   -2.0350    9.4220    0.3420 O   0  0  0  0  0  0  0  0  0  0  0  0
   -1.6060    9.7460   -0.9910 C   0  0  0  0  0  0  0  0  0  0  0  0
   -1.7590   11.1920   -1.3450 C   0  0  0  0  0  0  0  0  0  0  0  0
   -0.3170    9.0950   -1.3840 C   0  0  0  0  0  0  0  0  0  0  0  0
   -6.9270    7.6600   -2.4750 C   0  0  1  0  0  0  0  0  0  0  0  0
   -7.2540    6.9140   -3.7960 C   0  0  0  0  0  0  0  0  0  0  0  0
   -8.7120    6.4030   -3.6720 C   0  0  0  0  0  0  0  0  0  0  0  0
   -9.2830    7.1470   -2.4420 C   0  0  1  0  0  0  0  0  0  0  0  0
   -9.6890    8.5560   -2.9770 C   0  0  0  0  0  0  0  0  0  0  0  0
  -10.4690    6.4480   -1.7000 C   0  0  2  0  0  0  0  0  0  0  0  0
  -11.7440    6.2600   -2.5410 C   0  0  0  0  0  0  0  0  0  0  0  0
  -12.7270    7.3810   -2.4660 C   0  0  0  0  0  0  0  0  0  0  0  0
  -12.7300    8.3590   -1.5410 C   0  0  0  0  0  0  0  0  0  0  0  0
  -11.7290    8.3460   -0.3780 C   0  0  1  0  0  0  0  0  0  0  0  0
  -12.4740    8.6450    0.9490 C   0  0  0  0  0  0  0  0  0  0  0  0
  -13.2810    9.9390    0.8880 C   0  0  0  0  0  0  0  0  0  0  0  0
  -14.3050    9.8900   -0.2440 C   0  0  2  0  0  0  0  0  0  0  0  0
  -15.2870    8.8960    0.0660 O   0  0  0  0  0  0  0  0  0  0  0  0
  -13.6710    9.5850   -1.6300 C   0  0  0  0  0  0  0  0  0  0  0  0
  -12.8390   10.8040   -2.1010 C   0  0  0  0  0  0  0  0  0  0  0  0
  -14.8240    9.4240   -2.6570 C   0  0  0  0  0  0  0  0  0  0  0  0
  -10.7980    7.0620   -0.2800 C   0  0  1  0  0  0  0  0  0  0  0  0
  -11.5180    5.9440    0.5340 C   0  0  0  0  0  0  0  0  0  0  0  0
   -9.4970    7.4310    0.5280 C   0  0  0  0  0  0  0  0  0  0  0  0
   -8.3180    8.0070   -0.2790 C   0  0  0  0  0  0  0  0  0  0  0  0
   -8.0190    7.1410   -1.5060 C   0  0  2  0  0  0  0  0  0  0  0  0
   -7.5860    5.7230   -0.9980 C   0  0  0  0  0  0  0  0  0  0  0  0
   -5.0497    5.6880   -0.9264 H   0  0  0  0  0  0  0  0  0  0  0  0
   -5.9078    5.4137   -2.4805 H   0  0  0  0  0  0  0  0  0  0  0  0
   -4.1594    5.8258   -2.4805 H   0  0  0  0  0  0  0  0  0  0  0  0
   -4.8105    7.9508   -2.7934 H   0  0  0  0  0  0  0  0  0  0  0  0
   -6.1902    8.6068   -0.3467 H   0  0  0  0  0  0  0  0  0  0  0  0
   -4.8059    7.4591   -0.0152 H   0  0  0  0  0  0  0  0  0  0  0  0
   -4.3744    9.8858   -1.7455 H   0  0  0  0  0  0  0  0  0  0  0  0
   -4.3966   10.0269    0.0618 H   0  0  0  0  0  0  0  0  0  0  0  0
   -3.1092    7.8822   -1.1233 H   0  0  0  0  0  0  0  0  0  0  0  0
   -1.8223   11.7902   -0.4241 H   0  0  0  0  0  0  0  0  0  0  0  0
   -0.8904   11.5188   -1.9356 H   0  0  0  0  0  0  0  0  0  0  0  0
   -2.6767   11.3298   -1.9356 H   0  0  0  0  0  0  0  0  0  0  0  0
    0.2419    8.8127   -0.4796 H   0  0  0  0  0  0  0  0  0  0  0  0
   -0.5276    8.1952   -1.9806 H   0  0  0  0  0  0  0  0  0  0  0  0
    0.2822    9.7986   -1.9806 H   0  0  0  0  0  0  0  0  0  0  0  0
   -6.9717    8.7572   -2.5392 H   0  0  0  0  0  0  0  0  0  0  0  0
   -7.1647    7.6005   -4.6508 H   0  0  0  0  0  0  0  0  0  0  0  0
   -6.5560    6.0801   -3.9618 H   0  0  0  0  0  0  0  0  0  0  0  0
   -9.2879    6.6489   -4.5764 H   0  0  0  0  0  0  0  0  0  0  0  0
   -8.7627    5.3100   -3.5590 H   0  0  0  0  0  0  0  0  0  0  0  0
   -9.8828    9.2286   -2.1284 H   0  0  0  0  0  0  0  0  0  0  0  0
   -8.8721    8.9649   -3.5898 H   0  0  0  0  0  0  0  0  0  0  0  0
  -10.5982    8.4675   -3.5898 H   0  0  0  0  0  0  0  0  0  0  0  0
  -10.0743    5.4362   -1.5252 H   0  0  0  0  0  0  0  0  0  0  0  0
  -11.4434    6.1410   -3.5924 H   0  0  0  0  0  0  0  0  0  0  0  0
  -12.2550    5.3782   -2.1270 H   0  0  0  0  0  0  0  0  0  0  0  0
  -13.5161    7.4103   -3.2318 H   0  0  0  0  0  0  0  0  0  0  0  0
  -11.0063    9.1480   -0.5887 H   0  0  0  0  0  0  0  0  0  0  0  0
  -13.1592    7.8118    1.1642 H   0  0  0  0  0  0  0  0  0  0  0  0
  -11.7168    8.7605    1.7385 H   0  0  0  0  0  0  0  0  0  0  0  0
  -13.8071   10.0807    1.8436 H   0  0  0  0  0  0  0  0  0  0  0  0
  -12.5909   10.7750    0.7016 H   0  0  0  0  0  0  0  0  0  0  0  0
  -14.7610   10.8881   -0.3209 H   0  0  0  0  0  0  0  0  0  0  0  0
  -15.3200    8.2730   -0.6800 H   0  0  0  0  0  0  0  0  0  0  0  0
  -12.4643   11.3529   -1.2245 H   0  0  0  0  0  0  0  0  0  0  0  0
  -11.9891   10.4560   -2.7065 H   0  0  0  0  0  0  0  0  0  0  0  0
  -13.4728   11.4686   -2.7065 H   0  0  0  0  0  0  0  0  0  0  0  0
  -15.7758    9.2911   -2.1218 H   0  0  0  0  0  0  0  0  0  0  0  0
  -14.8808   10.3229   -3.2884 H   0  0  0  0  0  0  0  0  0  0  0  0
  -14.6324    8.5439   -3.2884 H   0  0  0  0  0  0  0  0  0  0  0  0
  -11.3942    6.1363    1.6100 H   0  0  0  0  0  0  0  0  0  0  0  0
  -12.5890    5.9398    0.2832 H   0  0  0  0  0  0  0  0  0  0  0  0
  -11.0788    4.9672    0.2832 H   0  0  0  0  0  0  0  0  0  0  0  0
   -9.7768    8.1767    1.2867 H   0  0  0  0  0  0  0  0  0  0  0  0
   -9.1295    6.4766    0.9331 H   0  0  0  0  0  0  0  0  0  0  0  0
   -8.5717    9.0249   -0.6101 H   0  0  0  0  0  0  0  0  0  0  0  0
   -7.4264    8.0227    0.3651 H   0  0  0  0  0  0  0  0  0  0  0  0
   -7.5829    5.7128    0.1019 H   0  0  0  0  0  0  0  0  0  0  0  0
   -8.2946    4.9682   -1.3697 H   0  0  0  0  0  0  0  0  0  0  0  0
   -6.5766    5.4928   -1.3697 H   0  0  0  0  0  0  0  0  0  0  0  0
  1  2  1  0
  2  3  1  0
  3  4  1  0
  4  5  1  0
  5  6  1  0
  6  7  1  0
  7  8  1  0
  7  9  1  0
  2 10  1  0
 10 11  1  0
 11 12  1  0
 12 13  1  0
 13 14  1  6
 13 15  1  0
 15 16  1  0
 16 17  1  0
 17 18  2  0
 18 19  1  0
 19 20  1  0
 20 21  1  0
 21 22  1  0
 22 23  1  0
 22 24  1  0
 24 25  1  0
 24 26  1  0
 19 27  1  0
 27 28  1  1
 27 29  1  0
 29 30  1  0
 30 31  1  0
 31 32  1  1
  7  5  1  0
 31 10  1  0
 31 13  1  0
 27 15  1  0
 24 18  1  0
  1 33  1  0
  1 34  1  0
  1 35  1  0
  2 36  1  6
  3 37  1  0
  3 38  1  0
  4 39  1  0
  4 40  1  0
  5 41  1  6
  8 42  1  0
  8 43  1  0
  8 44  1  0
  9 45  1  0
  9 46  1  0
  9 47  1  0
 10 48  1  6
 11 49  1  0
 11 50  1  0
 12 51  1  0
 12 52  1  0
 14 53  1  0
 14 54  1  0
 14 55  1  0
 15 56  1  1
 16 57  1  0
 16 58  1  0
 17 59  1  0
 19 60  1  6
 20 61  1  0
 20 62  1  0
 21 63  1  0
 21 64  1  0
 22 65  1  6
 23 66  1  0
 25 67  1  0
 25 68  1  0
 25 69  1  0
 26 70  1  0
 26 71  1  0
 26 72  1  0
 28 73  1  0
 28 74  1  0
 28 75  1  0
 29 76  1  0
 29 77  1  0
 30 78  1  0
 30 79  1  0
 32 80  1  0
 32 81  1  0
 32 82  1  0
M  END
>  <meeko>  (9) 
{"is_sidechain": [false], "intermolecular_energy": 2.731, "internal_energy": -0.839}

$$$$
EPH_relaxed_0001_pdb2pqr_Repair_62_r2_0001_out
     RDKit          3D

 82 86  0  0  0  0  0  0  0  0999 V2000
   -2.5220    9.8110   -0.0700 C   0  0  0  0  0  0  0  0  0  0  0  0
   -1.6010   10.3430   -1.1720 C   0  0  2  0  0  0  0  0  0  0  0  0
   -0.6470    9.2560   -1.7060 C   0  0  0  0  0  0  0  0  0  0  0  0
   -1.1270    7.8280   -1.4340 C   0  0  0  0  0  0  0  0  0  0  0  0
   -1.9470    7.2920   -2.5680 C   0  0  2  0  0  0  0  0  0  0  0  0
   -2.7580    8.2700   -3.2340 O   0  0  0  0  0  0  0  0  0  0  0  0
   -3.4630    7.2240   -2.5450 C   0  0  0  0  0  0  0  0  0  0  0  0
   -4.2480    7.6960   -1.3620 C   0  0  0  0  0  0  0  0  0  0  0  0
   -4.1490    6.2570   -3.4590 C   0  0  0  0  0  0  0  0  0  0  0  0
   -0.7980   11.5290   -0.6500 C   0  0  1  0  0  0  0  0  0  0  0  0
    0.4200   11.0960    0.2080 C   0  0  0  0  0  0  0  0  0  0  0  0
    1.5500   12.1210   -0.0690 C   0  0  0  0  0  0  0  0  0  0  0  0
    0.8480   13.2840   -0.8080 C   0  0  1  0  0  0  0  0  0  0  0  0
    0.1830   14.1330    0.3200 C   0  0  0  0  0  0  0  0  0  0  0  0
    1.7540   14.1610   -1.7330 C   0  0  2  0  0  0  0  0  0  0  0  0
    2.8830   14.9170   -1.0120 C   0  0  0  0  0  0  0  0  0  0  0  0
    2.5300   16.2860   -0.5330 C   0  0  0  0  0  0  0  0  0  0  0  0
    1.4530   16.9960   -0.9190 C   0  0  0  0  0  0  0  0  0  0  0  0
    0.5090   16.4670   -2.0060 C   0  0  1  0  0  0  0  0  0  0  0  0
    0.2060   17.5970   -3.0240 C   0  0  0  0  0  0  0  0  0  0  0  0
   -0.3260   18.8610   -2.3550 C   0  0  0  0  0  0  0  0  0  0  0  0
    0.6670   19.3890   -1.3220 C   0  0  2  0  0  0  0  0  0  0  0  0
    1.8430   19.8400   -2.0020 O   0  0  0  0  0  0  0  0  0  0  0  0
    1.0550   18.3340   -0.2490 C   0  0  0  0  0  0  0  0  0  0  0  0
   -0.1540   18.0710    0.6830 C   0  0  0  0  0  0  0  0  0  0  0  0
    2.1660   18.9490    0.6450 C   0  0  0  0  0  0  0  0  0  0  0  0
    0.9530   15.1130   -2.7110 C   0  0  1  0  0  0  0  0  0  0  0  0
    1.9030   15.4230   -3.9080 C   0  0  0  0  0  0  0  0  0  0  0  0
   -0.3170   14.4110   -3.3220 C   0  0  0  0  0  0  0  0  0  0  0  0
   -1.1010   13.4640   -2.3940 C   0  0  0  0  0  0  0  0  0  0  0  0
   -0.1610   12.4740   -1.7010 C   0  0  2  0  0  0  0  0  0  0  0  0
    0.5060   11.5900   -2.8090 C   0  0  0  0  0  0  0  0  0  0  0  0
   -2.0963   10.0569    0.9140 H   0  0  0  0  0  0  0  0  0  0  0  0
   -3.5148   10.2747   -0.1663 H   0  0  0  0  0  0  0  0  0  0  0  0
   -2.6163    8.7193   -0.1663 H   0  0  0  0  0  0  0  0  0  0  0  0
   -2.2379   10.6642   -2.0094 H   0  0  0  0  0  0  0  0  0  0  0  0
   -0.5453    9.3869   -2.7934 H   0  0  0  0  0  0  0  0  0  0  0  0
    0.3095    9.3798   -1.1770 H   0  0  0  0  0  0  0  0  0  0  0  0
   -0.2506    7.1789   -1.2902 H   0  0  0  0  0  0  0  0  0  0  0  0
   -1.7581    7.8447   -0.5332 H   0  0  0  0  0  0  0  0  0  0  0  0
   -1.1783    6.5403   -2.8005 H   0  0  0  0  0  0  0  0  0  0  0  0
   -3.7376    7.3891   -0.4372 H   0  0  0  0  0  0  0  0  0  0  0  0
   -4.3290    8.7927   -1.3895 H   0  0  0  0  0  0  0  0  0  0  0  0
   -5.2546    7.2532   -1.3895 H   0  0  0  0  0  0  0  0  0  0  0  0
   -4.6834    5.5037   -2.8615 H   0  0  0  0  0  0  0  0  0  0  0  0
   -4.8664    6.7980   -4.0935 H   0  0  0  0  0  0  0  0  0  0  0  0
   -3.4013    5.7587   -4.0935 H   0  0  0  0  0  0  0  0  0  0  0  0
   -1.5888   12.0578   -0.0977 H   0  0  0  0  0  0  0  0  0  0  0  0
    0.1538   11.1050    1.2753 H   0  0  0  0  0  0  0  0  0  0  0  0
    0.7409   10.0757   -0.0487 H   0  0  0  0  0  0  0  0  0  0  0  0
    1.9955   12.4722    0.8734 H   0  0  0  0  0  0  0  0  0  0  0  0
    2.3717   11.6875   -0.6580 H   0  0  0  0  0  0  0  0  0  0  0  0
    0.4890   13.7423    1.3017 H   0  0  0  0  0  0  0  0  0  0  0  0
    0.5027   15.1814    0.2267 H   0  0  0  0  0  0  0  0  0  0  0  0
   -0.9114   14.0737    0.2267 H   0  0  0  0  0  0  0  0  0  0  0  0
    2.2522   13.4067   -2.3597 H   0  0  0  0  0  0  0  0  0  0  0  0
    3.1886   14.3202   -0.1400 H   0  0  0  0  0  0  0  0  0  0  0  0
    3.6820   15.0518   -1.7559 H   0  0  0  0  0  0  0  0  0  0  0  0
    3.2068   16.7543    0.1969 H   0  0  0  0  0  0  0  0  0  0  0  0
   -0.4162   16.1735   -1.4885 H   0  0  0  0  0  0  0  0  0  0  0  0
    1.1334   17.8459   -3.5607 H   0  0  0  0  0  0  0  0  0  0  0  0
   -0.5723   17.2292   -3.7088 H   0  0  0  0  0  0  0  0  0  0  0  0
   -0.4922   19.6319   -3.1219 H   0  0  0  0  0  0  0  0  0  0  0  0
   -1.2694   18.6182   -1.8441 H   0  0  0  0  0  0  0  0  0  0  0  0
    0.1770   20.2148   -0.7854 H   0  0  0  0  0  0  0  0  0  0  0  0
    2.3420   20.4020   -1.3850 H   0  0  0  0  0  0  0  0  0  0  0  0
    0.1695   18.1414    1.7320 H   0  0  0  0  0  0  0  0  0  0  0  0
   -0.9360   18.8200    0.4894 H   0  0  0  0  0  0  0  0  0  0  0  0
   -0.5541   17.0648    0.4894 H   0  0  0  0  0  0  0  0  0  0  0  0
    1.9060   18.8051    1.7041 H   0  0  0  0  0  0  0  0  0  0  0  0
    3.1245   18.4530    0.4321 H   0  0  0  0  0  0  0  0  0  0  0  0
    2.2545   20.0246    0.4321 H   0  0  0  0  0  0  0  0  0  0  0  0
    2.8832   15.7429   -3.5248 H   0  0  0  0  0  0  0  0  0  0  0  0
    2.0266   14.5186   -4.5218 H   0  0  0  0  0  0  0  0  0  0  0  0
    1.4693   16.2262   -4.5218 H   0  0  0  0  0  0  0  0  0  0  0  0
   -1.0077   15.2011   -3.6516 H   0  0  0  0  0  0  0  0  0  0  0  0
    0.0685   13.7698   -4.1284 H   0  0  0  0  0  0  0  0  0  0  0  0
   -1.6232   14.0592   -1.6304 H   0  0  0  0  0  0  0  0  0  0  0  0
   -1.8228   12.8969   -3.0001 H   0  0  0  0  0  0  0  0  0  0  0  0
    1.1039   10.7975   -2.3352 H   0  0  0  0  0  0  0  0  0  0  0  0
   -0.2757   11.1349   -3.4349 H   0  0  0  0  0  0  0  0  0  0  0  0
    1.1582   12.2168   -3.4349 H   0  0  0  0  0  0  0  0  0  0  0  0
  1  2  1  0
  2  3  1  0
  3  4  1  0
  4  5  1  0
  5  6  1  0
  6  7  1  0
  7  8  1  0
  7  9  1  0
  2 10  1  0
 10 11  1  0
 11 12  1  0
 12 13  1  0
 13 14  1  1
 13 15  1  0
 15 16  1  0
 16 17  1  0
 17 18  2  0
 18 19  1  0
 19 20  1  0
 20 21  1  0
 21 22  1  0
 22 23  1  0
 22 24  1  0
 24 25  1  0
 24 26  1  0
 19 27  1  0
 27 28  1  6
 27 29  1  0
 29 30  1  0
 30 31  1  0
 31 32  1  6
  7  5  1  0
 31 10  1  0
 31 13  1  0
 27 15  1  0
 24 18  1  0
  1 33  1  0
  1 34  1  0
  1 35  1  0
  2 36  1  6
  3 37  1  0
  3 38  1  0
  4 39  1  0
  4 40  1  0
  5 41  1  6
  8 42  1  0
  8 43  1  0
  8 44  1  0
  9 45  1  0
  9 46  1  0
  9 47  1  0
 10 48  1  1
 11 49  1  0
 11 50  1  0
 12 51  1  0
 12 52  1  0
 14 53  1  0
 14 54  1  0
 14 55  1  0
 15 56  1  6
 16 57  1  0
 16 58  1  0
 17 59  1  0
 19 60  1  1
 20 61  1  0
 20 62  1  0
 21 63  1  0
 21 64  1  0
 22 65  1  1
 23 66  1  0
 25 67  1  0
 25 68  1  0
 25 69  1  0
 26 70  1  0
 26 71  1  0
 26 72  1  0
 28 73  1  0
 28 74  1  0
 28 75  1  0
 29 76  1  0
 29 77  1  0
 30 78  1  0
 30 79  1  0
 32 80  1  0
 32 81  1  0
 32 82  1  0
M  END
>  <meeko>  (10) 
{"is_sidechain": [false], "intermolecular_energy": 2.731, "internal_energy": -0.839}

$$$$
EPH_relaxed_0001_pdb2pqr_Repair_62_r2_0001_out
     RDKit          3D

 82 86  0  0  0  0  0  0  0  0999 V2000
    1.0220   18.8800   -1.3350 C   0  0  0  0  0  0  0  0  0  0  0  0
    0.2910   18.7400   -2.6730 C   0  0  2  0  0  0  0  0  0  0  0  0
   -1.0340   19.5290   -2.6960 C   0  0  0  0  0  0  0  0  0  0  0  0
   -1.4030   20.1510   -1.3470 C   0  0  0  0  0  0  0  0  0  0  0  0
   -2.1310   19.1780   -0.4690 C   0  0  2  0  0  0  0  0  0  0  0  0
   -2.4200   19.6630    0.8490 O   0  0  0  0  0  0  0  0  0  0  0  0
   -1.5180   18.5470    0.7670 C   0  0  0  0  0  0  0  0  0  0  0  0
   -0.1190   18.8640    1.1930 C   0  0  0  0  0  0  0  0  0  0  0  0
   -2.0970   17.2650    1.2780 C   0  0  0  0  0  0  0  0  0  0  0  0
    0.0260   17.2680   -2.9680 C   0  0  1  0  0  0  0  0  0  0  0  0
   -0.1020   16.9770   -4.4880 C   0  0  0  0  0  0  0  0  0  0  0  0
    0.5070   15.5720   -4.7270 C   0  0  0  0  0  0  0  0  0  0  0  0
    0.6590   14.9670   -3.3120 C   0  0  1  0  0  0  0  0  0  0  0  0
   -0.7610   14.4290   -2.9500 C   0  0  0  0  0  0  0  0  0  0  0  0
    1.7540   13.8630   -3.1460 C   0  0  2  0  0  0  0  0  0  0  0  0
    1.5290   12.5900   -3.9810 C   0  0  0  0  0  0  0  0  0  0  0  0
    0.7430   11.5160   -3.3050 C   0  0  0  0  0  0  0  0  0  0  0  0
    0.4810   11.4490   -1.9870 C   0  0  0  0  0  0  0  0  0  0  0  0
    1.0780   12.4730   -1.0130 C   0  0  1  0  0  0  0  0  0  0  0  0
    1.6630   11.7350    0.2200 C   0  0  0  0  0  0  0  0  0  0  0  0
    0.6440   10.8180    0.8900 C   0  0  0  0  0  0  0  0  0  0  0  0
    0.1170    9.7770   -0.0950 C   0  0  2  0  0  0  0  0  0  0  0  0
    1.1850    8.8920   -0.4460 O   0  0  0  0  0  0  0  0  0  0  0  0
   -0.4880   10.4030   -1.3820 C   0  0  0  0  0  0  0  0  0  0  0  0
   -1.8190   11.1160   -1.0390 C   0  0  0  0  0  0  0  0  0  0  0  0
   -0.8520    9.2450   -2.3500 C   0  0  0  0  0  0  0  0  0  0  0  0
    2.1010   13.5140   -1.6420 C   0  0  1  0  0  0  0  0  0  0  0  0
    3.5390   12.9120   -1.6450 C   0  0  0  0  0  0  0  0  0  0  0  0
    2.1580   14.7950   -0.7290 C   0  0  0  0  0  0  0  0  0  0  0  0
    1.1260   15.9020   -1.0190 C   0  0  0  0  0  0  0  0  0  0  0  0
    1.0980   16.2470   -2.5110 C   0  0  2  0  0  0  0  0  0  0  0  0
    2.5070   16.8120   -2.8990 C   0  0  0  0  0  0  0  0  0  0  0  0
    0.3069   18.7431   -0.5104 H   0  0  0  0  0  0  0  0  0  0  0  0
    1.8111   18.1167   -1.2666 H   0  0  0  0  0  0  0  0  0  0  0  0
    1.4732   19.8809   -1.2666 H   0  0  0  0  0  0  0  0  0  0  0  0
    0.9413   19.1644   -3.4521 H   0  0  0  0  0  0  0  0  0  0  0  0
   -0.9447   20.3363   -3.4379 H   0  0  0  0  0  0  0  0  0  0  0  0
   -1.8301   18.8132   -2.9486 H   0  0  0  0  0  0  0  0  0  0  0  0
   -0.4818   20.4707   -0.8378 H   0  0  0  0  0  0  0  0  0  0  0  0
   -2.0671   21.0076   -1.5343 H   0  0  0  0  0  0  0  0  0  0  0  0
   -2.6510   18.7462   -1.3368 H   0  0  0  0  0  0  0  0  0  0  0  0
   -0.0641   18.8764    2.2916 H   0  0  0  0  0  0  0  0  0  0  0  0
    0.5663   18.0984    0.8003 H   0  0  0  0  0  0  0  0  0  0  0  0
    0.1693   19.8502    0.8003 H   0  0  0  0  0  0  0  0  0  0  0  0
   -2.0931   17.2736    2.3780 H   0  0  0  0  0  0  0  0  0  0  0  0
   -3.1303   17.1592    0.9158 H   0  0  0  0  0  0  0  0  0  0  0  0
   -1.4932   16.4199    0.9158 H   0  0  0  0  0  0  0  0  0  0  0  0
   -0.8987   17.1273   -2.3891 H   0  0  0  0  0  0  0  0  0  0  0  0
   -1.1603   16.9871   -4.7878 H   0  0  0  0  0  0  0  0  0  0  0  0
    0.4216   17.7407   -5.0818 H   0  0  0  0  0  0  0  0  0  0  0  0
   -0.1659   14.9566   -5.3422 H   0  0  0  0  0  0  0  0  0  0  0  0
    1.4648   15.6186   -5.2659 H   0  0  0  0  0  0  0  0  0  0  0  0
   -0.8696   14.3878   -1.8562 H   0  0  0  0  0  0  0  0  0  0  0  0
   -1.5252   15.0999   -3.3694 H   0  0  0  0  0  0  0  0  0  0  0  0
   -0.8888   13.4201   -3.3694 H   0  0  0  0  0  0  0  0  0  0  0  0
    2.6438   14.3479   -3.5740 H   0  0  0  0  0  0  0  0  0  0  0  0
    0.9949   12.8756   -4.8993 H   0  0  0  0  0  0  0  0  0  0  0  0
    2.5272   12.1666   -4.1662 H   0  0  0  0  0  0  0  0  0  0  0  0
    0.3438   10.7103   -3.9387 H   0  0  0  0  0  0  0  0  0  0  0  0
    0.2433   13.1181   -0.7012 H   0  0  0  0  0  0  0  0  0  0  0  0
    2.5217   11.1296   -0.1059 H   0  0  0  0  0  0  0  0  0  0  0  0
    1.9610   12.4970    0.9552 H   0  0  0  0  0  0  0  0  0  0  0  0
    1.1239   10.3033    1.7355 H   0  0  0  0  0  0  0  0  0  0  0  0
   -0.2008   11.4287    1.2413 H   0  0  0  0  0  0  0  0  0  0  0  0
   -0.7000    9.2348    0.4036 H   0  0  0  0  0  0  0  0  0  0  0  0
    0.8290    8.2330   -1.0650 H   0  0  0  0  0  0  0  0  0  0  0  0
   -1.9317   11.1764    0.0535 H   0  0  0  0  0  0  0  0  0  0  0  0
   -1.8113   12.1308   -1.4634 H   0  0  0  0  0  0  0  0  0  0  0  0
   -2.6595   10.5474   -1.4634 H   0  0  0  0  0  0  0  0  0  0  0  0
   -1.1319    8.3547   -1.7678 H   0  0  0  0  0  0  0  0  0  0  0  0
   -1.6978    9.5493   -2.9840 H   0  0  0  0  0  0  0  0  0  0  0  0
    0.0158    9.0106   -2.9840 H   0  0  0  0  0  0  0  0  0  0  0  0
    3.8791   12.7696   -0.6086 H   0  0  0  0  0  0  0  0  0  0  0  0
    3.5295   11.9423   -2.1643 H   0  0  0  0  0  0  0  0  0  0  0  0
    4.2231   13.5993   -2.1643 H   0  0  0  0  0  0  0  0  0  0  0  0
    2.0124   14.4688    0.3114 H   0  0  0  0  0  0  0  0  0  0  0  0
    3.1366   15.2526   -0.9363 H   0  0  0  0  0  0  0  0  0  0  0  0
    0.1289   15.5542   -0.7112 H   0  0  0  0  0  0  0  0  0  0  0  0
    1.4100   16.8031   -0.4556 H   0  0  0  0  0  0  0  0  0  0  0  0
    3.0751   17.0398   -1.9850 H   0  0  0  0  0  0  0  0  0  0  0  0
    3.0518   16.0628   -3.4922 H   0  0  0  0  0  0  0  0  0  0  0  0
    2.3833   17.7300   -3.4922 H   0  0  0  0  0  0  0  0  0  0  0  0
  1  2  1  0
  2  3  1  0
  3  4  1  0
  4  5  1  0
  5  6  1  0
  6  7  1  0
  7  8  1  0
  7  9  1  0
  2 10  1  0
 10 11  1  0
 11 12  1  0
 12 13  1  0
 13 14  1  1
 13 15  1  0
 15 16  1  0
 16 17  1  0
 17 18  2  0
 18 19  1  0
 19 20  1  0
 20 21  1  0
 21 22  1  0
 22 23  1  0
 22 24  1  0
 24 25  1  0
 24 26  1  0
 19 27  1  0
 27 28  1  6
 27 29  1  0
 29 30  1  0
 30 31  1  0
 31 32  1  6
  7  5  1  0
 31 10  1  0
 31 13  1  0
 27 15  1  0
 24 18  1  0
  1 33  1  0
  1 34  1  0
  1 35  1  0
  2 36  1  6
  3 37  1  0
  3 38  1  0
  4 39  1  0
  4 40  1  0
  5 41  1  6
  8 42  1  0
  8 43  1  0
  8 44  1  0
  9 45  1  0
  9 46  1  0
  9 47  1  0
 10 48  1  1
 11 49  1  0
 11 50  1  0
 12 51  1  0
 12 52  1  0
 14 53  1  0
 14 54  1  0
 14 55  1  0
 15 56  1  6
 16 57  1  0
 16 58  1  0
 17 59  1  0
 19 60  1  1
 20 61  1  0
 20 62  1  0
 21 63  1  0
 21 64  1  0
 22 65  1  1
 23 66  1  0
 25 67  1  0
 25 68  1  0
 25 69  1  0
 26 70  1  0
 26 71  1  0
 26 72  1  0
 28 73  1  0
 28 74  1  0
 28 75  1  0
 29 76  1  0
 29 77  1  0
 30 78  1  0
 30 79  1  0
 32 80  1  0
 32 81  1  0
 32 82  1  0
M  END
>  <meeko>  (11) 
{"is_sidechain": [false], "intermolecular_energy": 2.731, "internal_energy": -0.839}

$$$$
EPH_relaxed_0001_pdb2pqr_Repair_62_r2_0001_out
     RDKit          3D

 82 86  0  0  0  0  0  0  0  0999 V2000
    0.0570   17.5850   -2.5910 C   0  0  0  0  0  0  0  0  0  0  0  0
   -0.1040   16.8080   -1.2810 C   0  0  2  0  0  0  0  0  0  0  0  0
   -0.0170   17.7260   -0.0460 C   0  0  0  0  0  0  0  0  0  0  0  0
    0.5900   19.1000   -0.3420 C   0  0  0  0  0  0  0  0  0  0  0  0
    1.6350   19.4730    0.6650 C   0  0  2  0  0  0  0  0  0  0  0  0
    2.7540   20.1910    0.1290 O   0  0  0  0  0  0  0  0  0  0  0  0
    3.0370   18.8910    0.6710 C   0  0  0  0  0  0  0  0  0  0  0  0
    3.4690   17.8870   -0.3510 C   0  0  0  0  0  0  0  0  0  0  0  0
    3.8210   18.9260    1.9460 C   0  0  0  0  0  0  0  0  0  0  0  0
    0.9550   15.7150   -1.1930 C   0  0  1  0  0  0  0  0  0  0  0  0
    1.0700   15.1080    0.2310 C   0  0  0  0  0  0  0  0  0  0  0  0
    1.4010   13.6040    0.0510 C   0  0  0  0  0  0  0  0  0  0  0  0
    1.7910   13.4660   -1.4390 C   0  0  1  0  0  0  0  0  0  0  0  0
    3.2790   13.9310   -1.5090 C   0  0  0  0  0  0  0  0  0  0  0  0
    1.5980   12.0510   -2.0750 C   0  0  2  0  0  0  0  0  0  0  0  0
    2.4500   10.9330   -1.4500 C   0  0  0  0  0  0  0  0  0  0  0  0
    3.7880   10.7240   -2.0770 C   0  0  0  0  0  0  0  0  0  0  0  0
    4.1750   11.2050   -3.2730 C   0  0  0  0  0  0  0  0  0  0  0  0
    3.1910   11.9660   -4.1720 C   0  0  1  0  0  0  0  0  0  0  0  0
    3.2980   11.4330   -5.6250 C   0  0  0  0  0  0  0  0  0  0  0  0
    4.7270   11.4730   -6.1580 C   0  0  0  0  0  0  0  0  0  0  0  0
    5.6640   10.6570   -5.2710 C   0  0  2  0  0  0  0  0  0  0  0  0
    5.3070    9.2750   -5.3720 O   0  0  0  0  0  0  0  0  0  0  0  0
    5.6340   11.0980   -3.7810 C   0  0  0  0  0  0  0  0  0  0  0  0
    6.3030   12.4870   -3.6350 C   0  0  0  0  0  0  0  0  0  0  0  0
    6.5130   10.1060   -2.9720 C   0  0  0  0  0  0  0  0  0  0  0  0
    1.6900   12.0330   -3.6550 C   0  0  1  0  0  0  0  0  0  0  0  0
    0.9060   10.7720   -4.1320 C   0  0  0  0  0  0  0  0  0  0  0  0
    0.9760   13.2740   -4.3100 C   0  0  0  0  0  0  0  0  0  0  0  0
    1.1030   14.6200   -3.5710 C   0  0  0  0  0  0  0  0  0  0  0  0
    0.7620   14.4640   -2.0860 C   0  0  2  0  0  0  0  0  0  0  0  0
   -0.7360   14.0180   -1.9830 C   0  0  0  0  0  0  0  0  0  0  0  0
    0.2755   18.6396   -2.3673 H   0  0  0  0  0  0  0  0  0  0  0  0
    0.8850   17.1545   -3.1733 H   0  0  0  0  0  0  0  0  0  0  0  0
   -0.8739   17.5189   -3.1733 H   0  0  0  0  0  0  0  0  0  0  0  0
   -1.1068   16.3560   -1.2853 H   0  0  0  0  0  0  0  0  0  0  0  0
   -1.0328   17.8730    0.3497 H   0  0  0  0  0  0  0  0  0  0  0  0
    0.6473   17.2301    0.6770 H   0  0  0  0  0  0  0  0  0  0  0  0
    1.0493   19.0790   -1.3413 H   0  0  0  0  0  0  0  0  0  0  0  0
   -0.2151   19.8480   -0.2938 H   0  0  0  0  0  0  0  0  0  0  0  0
    0.8738   19.5724    1.4528 H   0  0  0  0  0  0  0  0  0  0  0  0
    3.8548   16.9903    0.1561 H   0  0  0  0  0  0  0  0  0  0  0  0
    2.6099   17.6113   -0.9802 H   0  0  0  0  0  0  0  0  0  0  0  0
    4.2599   18.3213   -0.9802 H   0  0  0  0  0  0  0  0  0  0  0  0
    3.1307   18.8952    2.8019 H   0  0  0  0  0  0  0  0  0  0  0  0
    4.4942   18.0570    1.9864 H   0  0  0  0  0  0  0  0  0  0  0  0
    4.4141   19.8515    1.9864 H   0  0  0  0  0  0  0  0  0  0  0  0
    1.8351   16.2838   -1.5275 H   0  0  0  0  0  0  0  0  0  0  0  0
    1.8731   15.6081    0.7922 H   0  0  0  0  0  0  0  0  0  0  0  0
    0.1345   15.2418    0.7940 H   0  0  0  0  0  0  0  0  0  0  0  0
    2.2388   13.3103    0.7005 H   0  0  0  0  0  0  0  0  0  0  0  0
    0.5552   12.9553    0.3226 H   0  0  0  0  0  0  0  0  0  0  0  0
    3.6730   14.0541   -0.4894 H   0  0  0  0  0  0  0  0  0  0  0  0
    3.8743   13.1761   -2.0435 H   0  0  0  0  0  0  0  0  0  0  0  0
    3.3385   14.8906   -2.0435 H   0  0  0  0  0  0  0  0  0  0  0  0
    0.5562   11.8145   -1.8128 H   0  0  0  0  0  0  0  0  0  0  0  0
    2.6065   11.1779   -0.3891 H   0  0  0  0  0  0  0  0  0  0  0  0
    1.8905    9.9994   -1.6092 H   0  0  0  0  0  0  0  0  0  0  0  0
    4.5199   10.1262   -1.5140 H   0  0  0  0  0  0  0  0  0  0  0  0
    3.5013   13.0208   -4.1383 H   0  0  0  0  0  0  0  0  0  0  0  0
    2.9426   10.3922   -5.6461 H   0  0  0  0  0  0  0  0  0  0  0  0
    2.6839   12.0830   -6.2656 H   0  0  0  0  0  0  0  0  0  0  0  0
    4.7430   11.0576   -7.1764 H   0  0  0  0  0  0  0  0  0  0  0  0
    5.0704   12.5180   -6.1631 H   0  0  0  0  0  0  0  0  0  0  0  0
    6.6902   10.8286   -5.6281 H   0  0  0  0  0  0  0  0  0  0  0  0
    4.8110    9.1590   -6.2000 H   0  0  0  0  0  0  0  0  0  0  0  0
    6.4190   12.7278   -2.5680 H   0  0  0  0  0  0  0  0  0  0  0  0
    7.2918   12.4702   -4.1167 H   0  0  0  0  0  0  0  0  0  0  0  0
    5.6734   13.2497   -4.1167 H   0  0  0  0  0  0  0  0  0  0  0  0
    6.3622   10.2762   -1.8958 H   0  0  0  0  0  0  0  0  0  0  0  0
    6.2275    9.0739   -3.2236 H   0  0  0  0  0  0  0  0  0  0  0  0
    7.5719   10.2652   -3.2236 H   0  0  0  0  0  0  0  0  0  0  0  0
    0.5542   10.2062   -3.2568 H   0  0  0  0  0  0  0  0  0  0  0  0
    0.0427   11.0844   -4.7378 H   0  0  0  0  0  0  0  0  0  0  0  0
    1.5682   10.1360   -4.7378 H   0  0  0  0  0  0  0  0  0  0  0  0
    1.3974   13.4067   -5.3174 H   0  0  0  0  0  0  0  0  0  0  0  0
   -0.0971   13.0335   -4.2865 H   0  0  0  0  0  0  0  0  0  0  0  0
    2.1356   14.9870   -3.6665 H   0  0  0  0  0  0  0  0  0  0  0  0
    0.3974   15.3347   -4.0198 H   0  0  0  0  0  0  0  0  0  0  0  0
   -1.0213   13.9331   -0.9240 H   0  0  0  0  0  0  0  0  0  0  0  0
   -1.3756   14.7647   -2.4763 H   0  0  0  0  0  0  0  0  0  0  0  0
   -0.8631   13.0431   -2.4763 H   0  0  0  0  0  0  0  0  0  0  0  0
  1  2  1  0
  2  3  1  0
  3  4  1  0
  4  5  1  0
  5  6  1  0
  6  7  1  0
  7  8  1  0
  7  9  1  0
  2 10  1  0
 10 11  1  0
 11 12  1  0
 12 13  1  0
 13 14  1  1
 13 15  1  0
 15 16  1  0
 16 17  1  0
 17 18  2  0
 18 19  1  0
 19 20  1  0
 20 21  1  0
 21 22  1  0
 22 23  1  0
 22 24  1  0
 24 25  1  0
 24 26  1  0
 19 27  1  0
 27 28  1  6
 27 29  1  0
 29 30  1  0
 30 31  1  0
 31 32  1  6
  7  5  1  0
 31 10  1  0
 31 13  1  0
 27 15  1  0
 24 18  1  0
  1 33  1  0
  1 34  1  0
  1 35  1  0
  2 36  1  6
  3 37  1  0
  3 38  1  0
  4 39  1  0
  4 40  1  0
  5 41  1  1
  8 42  1  0
  8 43  1  0
  8 44  1  0
  9 45  1  0
  9 46  1  0
  9 47  1  0
 10 48  1  6
 11 49  1  0
 11 50  1  0
 12 51  1  0
 12 52  1  0
 14 53  1  0
 14 54  1  0
 14 55  1  0
 15 56  1  6
 16 57  1  0
 16 58  1  0
 17 59  1  0
 19 60  1  6
 20 61  1  0
 20 62  1  0
 21 63  1  0
 21 64  1  0
 22 65  1  6
 23 66  1  0
 25 67  1  0
 25 68  1  0
 25 69  1  0
 26 70  1  0
 26 71  1  0
 26 72  1  0
 28 73  1  0
 28 74  1  0
 28 75  1  0
 29 76  1  0
 29 77  1  0
 30 78  1  0
 30 79  1  0
 32 80  1  0
 32 81  1  0
 32 82  1  0
M  END
>  <meeko>  (12) 
{"is_sidechain": [false], "intermolecular_energy": 2.731, "internal_energy": -0.839}

$$$$
EPH_relaxed_0001_pdb2pqr_Repair_62_r2_0001_out
     RDKit          3D

 82 86  0  0  0  0  0  0  0  0999 V2000
    2.4550   16.8600   -0.1110 C   0  0  0  0  0  0  0  0  0  0  0  0
    1.9440   17.1040   -1.5340 C   0  0  2  0  0  0  0  0  0  0  0  0
    1.0790   18.3770   -1.6300 C   0  0  0  0  0  0  0  0  0  0  0  0
    0.8730   19.0840   -0.2870 C   0  0  0  0  0  0  0  0  0  0  0  0
   -0.3720   19.9170   -0.2850 C   0  0  2  0  0  0  0  0  0  0  0  0
   -0.9050   20.1940    1.0170 O   0  0  0  0  0  0  0  0  0  0  0  0
   -1.7280   19.3940    0.1520 C   0  0  0  0  0  0  0  0  0  0  0  0
   -1.9080   17.9830    0.6160 C   0  0  0  0  0  0  0  0  0  0  0  0
   -2.9570   20.0990   -0.3330 C   0  0  0  0  0  0  0  0  0  0  0  0
    1.1490   15.8960   -2.0150 C   0  0  1  0  0  0  0  0  0  0  0  0
    0.6330   16.0620   -3.4700 C   0  0  0  0  0  0  0  0  0  0  0  0
    0.6760   14.6560   -4.1220 C   0  0  0  0  0  0  0  0  0  0  0  0
    0.8940   13.6840   -2.9390 C   0  0  1  0  0  0  0  0  0  0  0  0
   -0.5240   13.4890   -2.3140 C   0  0  0  0  0  0  0  0  0  0  0  0
    1.5650   12.3150   -3.2850 C   0  0  2  0  0  0  0  0  0  0  0  0
    0.7660   11.4210   -4.2490 C   0  0  0  0  0  0  0  0  0  0  0  0
   -0.1840   10.4710   -3.5990 C   0  0  0  0  0  0  0  0  0  0  0  0
   -0.1870   10.1370   -2.2950 C   0  0  0  0  0  0  0  0  0  0  0  0
    0.8990   10.6600   -1.3460 C   0  0  1  0  0  0  0  0  0  0  0  0
    1.4330    9.4920   -0.4760 C   0  0  0  0  0  0  0  0  0  0  0  0
    0.3200    8.7540    0.2610 C   0  0  0  0  0  0  0  0  0  0  0  0
   -0.7090    8.1990   -0.7200 C   0  0  2  0  0  0  0  0  0  0  0  0
   -0.0910    7.1740   -1.5060 O   0  0  0  0  0  0  0  0  0  0  0  0
   -1.3110    9.2840   -1.6570 C   0  0  0  0  0  0  0  0  0  0  0  0
   -2.2310   10.2240   -0.8390 C   0  0  0  0  0  0  0  0  0  0  0  0
   -2.2260    8.5700   -2.6880 C   0  0  0  0  0  0  0  0  0  0  0  0
    2.0650   11.5010   -2.0230 C   0  0  1  0  0  0  0  0  0  0  0  0
    3.1880   10.5430   -2.5270 C   0  0  0  0  0  0  0  0  0  0  0  0
    2.7270   12.4290   -0.9370 C   0  0  0  0  0  0  0  0  0  0  0  0
    2.0900   13.8160   -0.7260 C   0  0  0  0  0  0  0  0  0  0  0  0
    1.8840   14.5340   -2.0630 C   0  0  2  0  0  0  0  0  0  0  0  0
    3.2950   14.7630   -2.7050 C   0  0  0  0  0  0  0  0  0  0  0  0
    1.7078   17.2168    0.6131 H   0  0  0  0  0  0  0  0  0  0  0  0
    2.6251   15.7835    0.0380 H   0  0  0  0  0  0  0  0  0  0  0  0
    3.3991   17.4045    0.0380 H   0  0  0  0  0  0  0  0  0  0  0  0
    2.8218   17.2522   -2.1801 H   0  0  0  0  0  0  0  0  0  0  0  0
    1.5695   19.0790   -2.3204 H   0  0  0  0  0  0  0  0  0  0  0  0
    0.0857   18.0648   -1.9847 H   0  0  0  0  0  0  0  0  0  0  0  0
    0.7963   18.3263    0.5067 H   0  0  0  0  0  0  0  0  0  0  0  0
    1.7315   19.7498   -0.1146 H   0  0  0  0  0  0  0  0  0  0  0  0
   -0.0438   20.4520   -1.1883 H   0  0  0  0  0  0  0  0  0  0  0  0
   -1.9114   17.9563    1.7157 H   0  0  0  0  0  0  0  0  0  0  0  0
   -2.8634   17.5913    0.2367 H   0  0  0  0  0  0  0  0  0  0  0  0
   -1.0815   17.3640    0.2367 H   0  0  0  0  0  0  0  0  0  0  0  0
   -3.5492   20.4387    0.5295 H   0  0  0  0  0  0  0  0  0  0  0  0
   -2.6653   20.9671   -0.9423 H   0  0  0  0  0  0  0  0  0  0  0  0
   -3.5591   19.4090   -0.9423 H   0  0  0  0  0  0  0  0  0  0  0  0
    0.3646   15.8724   -1.2442 H   0  0  0  0  0  0  0  0  0  0  0  0
   -0.3978   16.4461   -3.4650 H   0  0  0  0  0  0  0  0  0  0  0  0
    1.2535   16.7768   -4.0304 H   0  0  0  0  0  0  0  0  0  0  0  0
   -0.2719   14.4367   -4.6352 H   0  0  0  0  0  0  0  0  0  0  0  0
    1.4670   14.5725   -4.8818 H   0  0  0  0  0  0  0  0  0  0  0  0
   -0.4458   13.4998   -1.2168 H   0  0  0  0  0  0  0  0  0  0  0  0
   -1.1848   14.3047   -2.6425 H   0  0  0  0  0  0  0  0  0  0  0  0
   -0.9401   12.5252   -2.6425 H   0  0  0  0  0  0  0  0  0  0  0  0
    2.4618   12.6264   -3.8407 H   0  0  0  0  0  0  0  0  0  0  0  0
    0.1878   12.0749   -4.9185 H   0  0  0  0  0  0  0  0  0  0  0  0
    1.5075   10.7992   -4.7721 H   0  0  0  0  0  0  0  0  0  0  0  0
   -0.9464   10.0041   -4.2399 H   0  0  0  0  0  0  0  0  0  0  0  0
    0.4088   11.4078   -0.7053 H   0  0  0  0  0  0  0  0  0  0  0  0
    1.9576    8.7781   -1.1280 H   0  0  0  0  0  0  0  0  0  0  0  0
    2.1067    9.9207    0.2805 H   0  0  0  0  0  0  0  0  0  0  0  0
    0.7570    7.9224    0.8332 H   0  0  0  0  0  0  0  0  0  0  0  0
   -0.1840    9.4619    0.9354 H   0  0  0  0  0  0  0  0  0  0  0  0
   -1.5447    7.7971   -0.1284 H   0  0  0  0  0  0  0  0  0  0  0  0
    0.8360    7.1040   -1.2210 H   0  0  0  0  0  0  0  0  0  0  0  0
   -2.0657   10.0551    0.2353 H   0  0  0  0  0  0  0  0  0  0  0  0
   -1.9985   11.2705   -1.0857 H   0  0  0  0  0  0  0  0  0  0  0  0
   -3.2822   10.0140   -1.0857 H   0  0  0  0  0  0  0  0  0  0  0  0
   -2.9851    7.9776   -2.1562 H   0  0  0  0  0  0  0  0  0  0  0  0
   -2.7231    9.3213   -3.3192 H   0  0  0  0  0  0  0  0  0  0  0  0
   -1.6181    7.9051   -3.3192 H   0  0  0  0  0  0  0  0  0  0  0  0
    3.7069   10.1003   -1.6640 H   0  0  0  0  0  0  0  0  0  0  0  0
    2.7416    9.7432   -3.1362 H   0  0  0  0  0  0  0  0  0  0  0  0
    3.9074   11.1098   -3.1362 H   0  0  0  0  0  0  0  0  0  0  0  0
    2.6888   11.8957    0.0243 H   0  0  0  0  0  0  0  0  0  0  0  0
    3.7410   12.6322   -1.3118 H   0  0  0  0  0  0  0  0  0  0  0  0
    1.1160   13.6929   -0.2299 H   0  0  0  0  0  0  0  0  0  0  0  0
    2.7656   14.4211   -0.1035 H   0  0  0  0  0  0  0  0  0  0  0  0
    4.0446   14.8847   -1.9092 H   0  0  0  0  0  0  0  0  0  0  0  0
    3.5593   13.8960   -3.3283 H   0  0  0  0  0  0  0  0  0  0  0  0
    3.2716   15.6691   -3.3283 H   0  0  0  0  0  0  0  0  0  0  0  0
  1  2  1  0
  2  3  1  0
  3  4  1  0
  4  5  1  0
  5  6  1  0
  6  7  1  0
  7  8  1  0
  7  9  1  0
  2 10  1  0
 10 11  1  0
 11 12  1  0
 12 13  1  0
 13 14  1  1
 13 15  1  0
 15 16  1  0
 16 17  1  0
 17 18  2  0
 18 19  1  0
 19 20  1  0
 20 21  1  0
 21 22  1  0
 22 23  1  0
 22 24  1  0
 24 25  1  0
 24 26  1  0
 19 27  1  0
 27 28  1  6
 27 29  1  0
 29 30  1  0
 30 31  1  0
 31 32  1  6
  7  5  1  0
 31 10  1  0
 31 13  1  0
 27 15  1  0
 24 18  1  0
  1 33  1  0
  1 34  1  0
  1 35  1  0
  2 36  1  6
  3 37  1  0
  3 38  1  0
  4 39  1  0
  4 40  1  0
  5 41  1  6
  8 42  1  0
  8 43  1  0
  8 44  1  0
  9 45  1  0
  9 46  1  0
  9 47  1  0
 10 48  1  1
 11 49  1  0
 11 50  1  0
 12 51  1  0
 12 52  1  0
 14 53  1  0
 14 54  1  0
 14 55  1  0
 15 56  1  6
 16 57  1  0
 16 58  1  0
 17 59  1  0
 19 60  1  1
 20 61  1  0
 20 62  1  0
 21 63  1  0
 21 64  1  0
 22 65  1  1
 23 66  1  0
 25 67  1  0
 25 68  1  0
 25 69  1  0
 26 70  1  0
 26 71  1  0
 26 72  1  0
 28 73  1  0
 28 74  1  0
 28 75  1  0
 29 76  1  0
 29 77  1  0
 30 78  1  0
 30 79  1  0
 32 80  1  0
 32 81  1  0
 32 82  1  0
M  END
>  <meeko>  (13) 
{"is_sidechain": [false], "intermolecular_energy": 2.731, "internal_energy": -0.839}

$$$$
EPH_relaxed_0001_pdb2pqr_Repair_62_r2_0001_out
     RDKit          3D

 82 86  0  0  0  0  0  0  0  0999 V2000
   -0.2680   15.2790   -7.1580 C   0  0  0  0  0  0  0  0  0  0  0  0
    1.1640   15.0550   -6.6630 C   0  0  2  0  0  0  0  0  0  0  0  0
    2.1870   15.0760   -7.8160 C   0  0  0  0  0  0  0  0  0  0  0  0
    2.2060   16.3920   -8.5980 C   0  0  0  0  0  0  0  0  0  0  0  0
    1.7520   16.2020  -10.0140 C   0  0  2  0  0  0  0  0  0  0  0  0
    1.1360   14.9360  -10.2800 O   0  0  0  0  0  0  0  0  0  0  0  0
    2.3730   15.1950  -10.9630 C   0  0  0  0  0  0  0  0  0  0  0  0
    3.5020   14.3110  -10.5340 C   0  0  0  0  0  0  0  0  0  0  0  0
    2.2150   15.4080  -12.4370 C   0  0  0  0  0  0  0  0  0  0  0  0
    1.2530   13.7320   -5.9120 C   0  0  1  0  0  0  0  0  0  0  0  0
    2.6690   13.1010   -5.9780 C   0  0  0  0  0  0  0  0  0  0  0  0
    2.9080   12.3940   -4.6190 C   0  0  0  0  0  0  0  0  0  0  0  0
    1.5140   12.3530   -3.9500 C   0  0  1  0  0  0  0  0  0  0  0  0
    0.7910   11.1330   -4.6020 C   0  0  0  0  0  0  0  0  0  0  0  0
    1.4980   12.2670   -2.3890 C   0  0  2  0  0  0  0  0  0  0  0  0
    2.1370   10.9970   -1.8000 C   0  0  0  0  0  0  0  0  0  0  0  0
    1.2040    9.8510   -1.5920 C   0  0  0  0  0  0  0  0  0  0  0  0
   -0.1400    9.9250   -1.5990 C   0  0  0  0  0  0  0  0  0  0  0  0
   -0.8530   11.2770   -1.7330 C   0  0  1  0  0  0  0  0  0  0  0  0
   -1.9850   11.3720   -0.6760 C   0  0  0  0  0  0  0  0  0  0  0  0
   -2.9510   10.1930   -0.7460 C   0  0  0  0  0  0  0  0  0  0  0  0
   -2.2130    8.8710   -0.5500 C   0  0  2  0  0  0  0  0  0  0  0  0
   -1.7140    8.8160    0.7890 O   0  0  0  0  0  0  0  0  0  0  0  0
   -1.0430    8.6680   -1.5530 C   0  0  0  0  0  0  0  0  0  0  0  0
   -1.6110    8.4260   -2.9740 C   0  0  0  0  0  0  0  0  0  0  0  0
   -0.2960    7.3660   -1.1570 C   0  0  0  0  0  0  0  0  0  0  0  0
    0.0860   12.5590   -1.7380 C   0  0  1  0  0  0  0  0  0  0  0  0
    0.3580   13.0250   -0.2750 C   0  0  0  0  0  0  0  0  0  0  0  0
   -0.6670   13.7450   -2.4490 C   0  0  0  0  0  0  0  0  0  0  0  0
   -0.5160   13.8460   -3.9790 C   0  0  0  0  0  0  0  0  0  0  0  0
    0.9570   13.7560   -4.3910 C   0  0  2  0  0  0  0  0  0  0  0  0
    1.7050   14.9830   -3.7680 C   0  0  0  0  0  0  0  0  0  0  0  0
   -0.9420   15.3844   -6.2951 H   0  0  0  0  0  0  0  0  0  0  0  0
   -0.3064   16.1941   -7.7672 H   0  0  0  0  0  0  0  0  0  0  0  0
   -0.5841   14.4194   -7.7672 H   0  0  0  0  0  0  0  0  0  0  0  0
    1.4135   15.8849   -5.9854 H   0  0  0  0  0  0  0  0  0  0  0  0
    3.1890   14.9081   -7.3943 H   0  0  0  0  0  0  0  0  0  0  0  0
    1.8913   14.2865   -8.5225 H   0  0  0  0  0  0  0  0  0  0  0  0
    1.5369   17.1108   -8.1025 H   0  0  0  0  0  0  0  0  0  0  0  0
    3.2407   16.7649   -8.6167 H   0  0  0  0  0  0  0  0  0  0  0  0
    1.5385   17.2764  -10.1147 H   0  0  0  0  0  0  0  0  0  0  0  0
    3.5445   14.2777   -9.4353 H   0  0  0  0  0  0  0  0  0  0  0  0
    3.3419   13.2956  -10.9257 H   0  0  0  0  0  0  0  0  0  0  0  0
    4.4493   14.7100  -10.9257 H   0  0  0  0  0  0  0  0  0  0  0  0
    1.5682   16.2799  -12.6142 H   0  0  0  0  0  0  0  0  0  0  0  0
    3.2017   15.5853  -12.8897 H   0  0  0  0  0  0  0  0  0  0  0  0
    1.7590   14.5152  -12.8897 H   0  0  0  0  0  0  0  0  0  0  0  0
    0.4692   13.1683   -6.4392 H   0  0  0  0  0  0  0  0  0  0  0  0
    2.7203   12.3707   -6.7990 H   0  0  0  0  0  0  0  0  0  0  0  0
    3.4349   13.8684   -6.1638 H   0  0  0  0  0  0  0  0  0  0  0  0
    3.2946   11.3759   -4.7736 H   0  0  0  0  0  0  0  0  0  0  0  0
    3.6519   12.9183   -4.0012 H   0  0  0  0  0  0  0  0  0  0  0  0
    0.4003   10.4737   -3.8129 H   0  0  0  0  0  0  0  0  0  0  0  0
   -0.0411   11.4906   -5.2263 H   0  0  0  0  0  0  0  0  0  0  0  0
    1.5042   10.5749   -5.2263 H   0  0  0  0  0  0  0  0  0  0  0  0
    2.1597   13.0968   -2.0997 H   0  0  0  0  0  0  0  0  0  0  0  0
    2.9322   10.6677   -2.4850 H   0  0  0  0  0  0  0  0  0  0  0  0
    2.5032   11.2761   -0.8010 H   0  0  0  0  0  0  0  0  0  0  0  0
    1.6527    8.8618   -1.4182 H   0  0  0  0  0  0  0  0  0  0  0  0
   -1.2841   11.2944   -2.7449 H   0  0  0  0  0  0  0  0  0  0  0  0
   -1.5310   11.3970    0.3256 H   0  0  0  0  0  0  0  0  0  0  0  0
   -2.5593   12.2871   -0.8830 H   0  0  0  0  0  0  0  0  0  0  0  0
   -3.7100   10.3020    0.0427 H   0  0  0  0  0  0  0  0  0  0  0  0
   -3.4258   10.1864   -1.7382 H   0  0  0  0  0  0  0  0  0  0  0  0
   -2.9321    8.0604   -0.7392 H   0  0  0  0  0  0  0  0  0  0  0  0
   -2.1120    9.5530    1.2820 H   0  0  0  0  0  0  0  0  0  0  0  0
   -2.6205    7.9959   -2.8970 H   0  0  0  0  0  0  0  0  0  0  0  0
   -1.6599    9.3814   -3.5169 H   0  0  0  0  0  0  0  0  0  0  0  0
   -0.9558    7.7289   -3.5169 H   0  0  0  0  0  0  0  0  0  0  0  0
   -0.2512    7.2879   -0.0607 H   0  0  0  0  0  0  0  0  0  0  0  0
   -0.8328    6.4968   -1.5649 H   0  0  0  0  0  0  0  0  0  0  0  0
    0.7253    7.3907   -1.5649 H   0  0  0  0  0  0  0  0  0  0  0  0
   -0.0685   12.2942    0.4279 H   0  0  0  0  0  0  0  0  0  0  0  0
    1.4429   13.1020   -0.1104 H   0  0  0  0  0  0  0  0  0  0  0  0
   -0.1085   14.0075   -0.1104 H   0  0  0  0  0  0  0  0  0  0  0  0
   -1.7391   13.6394   -2.2267 H   0  0  0  0  0  0  0  0  0  0  0  0
   -0.2020   14.6598   -2.0529 H   0  0  0  0  0  0  0  0  0  0  0  0
   -1.0727   13.0229   -4.4508 H   0  0  0  0  0  0  0  0  0  0  0  0
   -0.9138   14.8175   -4.3077 H   0  0  0  0  0  0  0  0  0  0  0  0
    1.6654   14.9180   -2.6706 H   0  0  0  0  0  0  0  0  0  0  0  0
    2.7544   14.9789   -4.0979 H   0  0  0  0  0  0  0  0  0  0  0  0
    1.2206   15.9139   -4.0979 H   0  0  0  0  0  0  0  0  0  0  0  0
  1  2  1  0
  2  3  1  0
  3  4  1  0
  4  5  1  0
  5  6  1  0
  6  7  1  0
  7  8  1  0
  7  9  1  0
  2 10  1  0
 10 11  1  0
 11 12  1  0
 12 13  1  0
 13 14  1  6
 13 15  1  0
 15 16  1  0
 16 17  1  0
 17 18  2  0
 18 19  1  0
 19 20  1  0
 20 21  1  0
 21 22  1  0
 22 23  1  0
 22 24  1  0
 24 25  1  0
 24 26  1  0
 19 27  1  0
 27 28  1  1
 27 29  1  0
 29 30  1  0
 30 31  1  0
 31 32  1  1
  7  5  1  0
 31 10  1  0
 31 13  1  0
 27 15  1  0
 24 18  1  0
  1 33  1  0
  1 34  1  0
  1 35  1  0
  2 36  1  1
  3 37  1  0
  3 38  1  0
  4 39  1  0
  4 40  1  0
  5 41  1  6
  8 42  1  0
  8 43  1  0
  8 44  1  0
  9 45  1  0
  9 46  1  0
  9 47  1  0
 10 48  1  6
 11 49  1  0
 11 50  1  0
 12 51  1  0
 12 52  1  0
 14 53  1  0
 14 54  1  0
 14 55  1  0
 15 56  1  1
 16 57  1  0
 16 58  1  0
 17 59  1  0
 19 60  1  6
 20 61  1  0
 20 62  1  0
 21 63  1  0
 21 64  1  0
 22 65  1  1
 23 66  1  0
 25 67  1  0
 25 68  1  0
 25 69  1  0
 26 70  1  0
 26 71  1  0
 26 72  1  0
 28 73  1  0
 28 74  1  0
 28 75  1  0
 29 76  1  0
 29 77  1  0
 30 78  1  0
 30 79  1  0
 32 80  1  0
 32 81  1  0
 32 82  1  0
M  END
>  <meeko>  (14) 
{"is_sidechain": [false], "intermolecular_energy": 2.731, "internal_energy": -0.839}

$$$$
EPH_relaxed_0001_pdb2pqr_Repair_62_r2_0001_out
     RDKit          3D

 82 86  0  0  0  0  0  0  0  0999 V2000
    2.7240   18.1010   -3.7280 C   0  0  0  0  0  0  0  0  0  0  0  0
    2.0560   17.9460   -2.3580 C   0  0  2  0  0  0  0  0  0  0  0  0
    2.5280   19.0200   -1.3570 C   0  0  0  0  0  0  0  0  0  0  0  0
    1.8400   18.9330    0.0080 C   0  0  0  0  0  0  0  0  0  0  0  0
    2.4810   19.8450    1.0100 C   0  0  2  0  0  0  0  0  0  0  0  0
    3.8400   20.1940    0.7190 O   0  0  0  0  0  0  0  0  0  0  0  0
    3.6260   19.4240    1.9130 C   0  0  0  0  0  0  0  0  0  0  0  0
    4.1960   18.0420    1.8550 C   0  0  0  0  0  0  0  0  0  0  0  0
    3.8600   20.1920    3.1760 C   0  0  0  0  0  0  0  0  0  0  0  0
    2.3330   16.5560   -1.8000 C   0  0  1  0  0  0  0  0  0  0  0  0
    3.0770   16.5960   -0.4380 C   0  0  0  0  0  0  0  0  0  0  0  0
    2.5450   15.4040    0.3980 C   0  0  0  0  0  0  0  0  0  0  0  0
    1.7690   14.5310   -0.6170 C   0  0  1  0  0  0  0  0  0  0  0  0
    2.8660   13.6930   -1.3460 C   0  0  0  0  0  0  0  0  0  0  0  0
    0.6440   13.6200   -0.0270 C   0  0  2  0  0  0  0  0  0  0  0  0
    1.1260   12.5480    0.9660 C   0  0  0  0  0  0  0  0  0  0  0  0
    1.4850   11.2320    0.3590 C   0  0  0  0  0  0  0  0  0  0  0  0
    1.1560   10.8280   -0.8830 C   0  0  0  0  0  0  0  0  0  0  0  0
    0.2640   11.6930   -1.7820 C   0  0  1  0  0  0  0  0  0  0  0  0
   -0.8320   10.8070   -2.4300 C   0  0  0  0  0  0  0  0  0  0  0  0
   -0.2510    9.6040   -3.1680 C   0  0  0  0  0  0  0  0  0  0  0  0
    0.5810    8.7370   -2.2260 C   0  0  2  0  0  0  0  0  0  0  0  0
   -0.2870    8.1470   -1.2540 O   0  0  0  0  0  0  0  0  0  0  0  0
    1.7120    9.5250   -1.5080 C   0  0  0  0  0  0  0  0  0  0  0  0
    2.8110    9.9060   -2.5300 C   0  0  0  0  0  0  0  0  0  0  0  0
    2.3830    8.5690   -0.4840 C   0  0  0  0  0  0  0  0  0  0  0  0
   -0.3290   13.0060   -1.1130 C   0  0  1  0  0  0  0  0  0  0  0  0
   -1.6630   12.6720   -0.3780 C   0  0  0  0  0  0  0  0  0  0  0  0
   -0.6920   14.0400   -2.2440 C   0  0  0  0  0  0  0  0  0  0  0  0
    0.4290   14.9930   -2.7000 C   0  0  0  0  0  0  0  0  0  0  0  0
    1.1100   15.6540   -1.4970 C   0  0  2  0  0  0  0  0  0  0  0  0
    0.0360   16.5220   -0.7570 C   0  0  0  0  0  0  0  0  0  0  0  0
    3.7873   18.3477   -3.5917 H   0  0  0  0  0  0  0  0  0  0  0  0
    2.6352   17.1584   -4.2880 H   0  0  0  0  0  0  0  0  0  0  0  0
    2.2292   18.9082   -4.2880 H   0  0  0  0  0  0  0  0  0  0  0  0
    0.9735   18.0807   -2.5000 H   0  0  0  0  0  0  0  0  0  0  0  0
    3.6116   18.9036   -1.2079 H   0  0  0  0  0  0  0  0  0  0  0  0
    2.2665   19.9980   -1.7873 H   0  0  0  0  0  0  0  0  0  0  0  0
    0.7831   19.2156   -0.1066 H   0  0  0  0  0  0  0  0  0  0  0  0
    1.9338   17.9001    0.3745 H   0  0  0  0  0  0  0  0  0  0  0  0
    1.5165   20.3308    1.2192 H   0  0  0  0  0  0  0  0  0  0  0  0
    4.3510   17.6661    2.8771 H   0  0  0  0  0  0  0  0  0  0  0  0
    3.4977   17.3794    1.3226 H   0  0  0  0  0  0  0  0  0  0  0  0
    5.1583   18.0643    1.3226 H   0  0  0  0  0  0  0  0  0  0  0  0
    3.6622   19.5429    4.0418 H   0  0  0  0  0  0  0  0  0  0  0  0
    4.9040   20.5370    3.2073 H   0  0  0  0  0  0  0  0  0  0  0  0
    3.1857   21.0605    3.2073 H   0  0  0  0  0  0  0  0  0  0  0  0
    2.9137   16.1354   -2.6342 H   0  0  0  0  0  0  0  0  0  0  0  0
    4.1609   16.4943   -0.5954 H   0  0  0  0  0  0  0  0  0  0  0  0
    2.9017   17.5506    0.0797 H   0  0  0  0  0  0  0  0  0  0  0  0
    3.3777   14.8377    0.8405 H   0  0  0  0  0  0  0  0  0  0  0  0
    1.9122   15.7316    1.2360 H   0  0  0  0  0  0  0  0  0  0  0  0
    3.5085   13.2022   -0.6002 H   0  0  0  0  0  0  0  0  0  0  0  0
    2.3860   12.9294   -1.9758 H   0  0  0  0  0  0  0  0  0  0  0  0
    3.4764   14.3569   -1.9758 H   0  0  0  0  0  0  0  0  0  0  0  0
    0.0514   14.3318    0.5664 H   0  0  0  0  0  0  0  0  0  0  0  0
    2.0155   12.9382    1.4822 H   0  0  0  0  0  0  0  0  0  0  0  0
    0.2774   12.3519    1.6379 H   0  0  0  0  0  0  0  0  0  0  0  0
    2.0671   10.5337    0.9782 H   0  0  0  0  0  0  0  0  0  0  0  0
    0.9233   12.1013   -2.5621 H   0  0  0  0  0  0  0  0  0  0  0  0
   -1.5053   10.4442   -1.6394 H   0  0  0  0  0  0  0  0  0  0  0  0
   -1.3679   11.4238   -3.1665 H   0  0  0  0  0  0  0  0  0  0  0  0
   -1.0744    9.0015   -3.5791 H   0  0  0  0  0  0  0  0  0  0  0  0
    0.3993    9.9683   -3.9769 H   0  0  0  0  0  0  0  0  0  0  0  0
    1.0744    7.9662   -2.8363 H   0  0  0  0  0  0  0  0  0  0  0  0
   -0.0190    8.4780   -0.3800 H   0  0  0  0  0  0  0  0  0  0  0  0
    3.7180   10.2204   -1.9929 H   0  0  0  0  0  0  0  0  0  0  0  0
    3.0421    9.0355   -3.1616 H   0  0  0  0  0  0  0  0  0  0  0  0
    2.4537   10.7327   -3.1616 H   0  0  0  0  0  0  0  0  0  0  0  0
    2.1486    8.9029    0.5375 H   0  0  0  0  0  0  0  0  0  0  0  0
    2.0026    7.5475   -0.6322 H   0  0  0  0  0  0  0  0  0  0  0  0
    3.4729    8.5795   -0.6322 H   0  0  0  0  0  0  0  0  0  0  0  0
   -1.5025   12.7122    0.7095 H   0  0  0  0  0  0  0  0  0  0  0  0
   -2.4319   13.4053   -0.6625 H   0  0  0  0  0  0  0  0  0  0  0  0
   -1.9957   11.6628   -0.6625 H   0  0  0  0  0  0  0  0  0  0  0  0
   -1.0213   13.4684   -3.1242 H   0  0  0  0  0  0  0  0  0  0  0  0
   -1.4611   14.6909   -1.8027 H   0  0  0  0  0  0  0  0  0  0  0  0
    1.1778   14.4219   -3.2684 H   0  0  0  0  0  0  0  0  0  0  0  0
   -0.0136   15.7798   -3.3285 H   0  0  0  0  0  0  0  0  0  0  0  0
    0.1656   16.4172    0.3303 H   0  0  0  0  0  0  0  0  0  0  0  0
    0.1587   17.5776   -1.0409 H   0  0  0  0  0  0  0  0  0  0  0  0
   -0.9704   16.1806   -1.0409 H   0  0  0  0  0  0  0  0  0  0  0  0
  1  2  1  0
  2  3  1  0
  3  4  1  0
  4  5  1  0
  5  6  1  0
  6  7  1  0
  7  8  1  0
  7  9  1  0
  2 10  1  0
 10 11  1  0
 11 12  1  0
 12 13  1  0
 13 14  1  6
 13 15  1  0
 15 16  1  0
 16 17  1  0
 17 18  2  0
 18 19  1  0
 19 20  1  0
 20 21  1  0
 21 22  1  0
 22 23  1  0
 22 24  1  0
 24 25  1  0
 24 26  1  0
 19 27  1  0
 27 28  1  1
 27 29  1  0
 29 30  1  0
 30 31  1  0
 31 32  1  1
  7  5  1  0
 31 10  1  0
 31 13  1  0
 27 15  1  0
 24 18  1  0
  1 33  1  0
  1 34  1  0
  1 35  1  0
  2 36  1  6
  3 37  1  0
  3 38  1  0
  4 39  1  0
  4 40  1  0
  5 41  1  1
  8 42  1  0
  8 43  1  0
  8 44  1  0
  9 45  1  0
  9 46  1  0
  9 47  1  0
 10 48  1  6
 11 49  1  0
 11 50  1  0
 12 51  1  0
 12 52  1  0
 14 53  1  0
 14 54  1  0
 14 55  1  0
 15 56  1  1
 16 57  1  0
 16 58  1  0
 17 59  1  0
 19 60  1  6
 20 61  1  0
 20 62  1  0
 21 63  1  0
 21 64  1  0
 22 65  1  6
 23 66  1  0
 25 67  1  0
 25 68  1  0
 25 69  1  0
 26 70  1  0
 26 71  1  0
 26 72  1  0
 28 73  1  0
 28 74  1  0
 28 75  1  0
 29 76  1  0
 29 77  1  0
 30 78  1  0
 30 79  1  0
 32 80  1  0
 32 81  1  0
 32 82  1  0
M  END
>  <meeko>  (15) 
{"is_sidechain": [false], "intermolecular_energy": 2.731, "internal_energy": -0.839}

$$$$
EPH_relaxed_0001_pdb2pqr_Repair_62_r2_0001_out
     RDKit          3D

 82 86  0  0  0  0  0  0  0  0999 V2000
   -3.8000    7.0860   -3.5270 C   0  0  0  0  0  0  0  0  0  0  0  0
   -3.8640    7.2540   -2.0060 C   0  0  2  0  0  0  0  0  0  0  0  0
   -5.2950    7.0740   -1.4620 C   0  0  0  0  0  0  0  0  0  0  0  0
   -6.3850    7.5320   -2.4350 C   0  0  0  0  0  0  0  0  0  0  0  0
   -7.7070    7.7000   -1.7470 C   0  0  2  0  0  0  0  0  0  0  0  0
   -8.1970    6.5210   -1.0960 O   0  0  0  0  0  0  0  0  0  0  0  0
   -8.9790    7.0070   -2.1990 C   0  0  0  0  0  0  0  0  0  0  0  0
   -8.9910    6.0950   -3.3850 C   0  0  0  0  0  0  0  0  0  0  0  0
  -10.2950    7.5930   -1.7930 C   0  0  0  0  0  0  0  0  0  0  0  0
   -3.3240    8.6230   -1.6110 C   0  0  1  0  0  0  0  0  0  0  0  0
   -4.0060    9.1890   -0.3370 C   0  0  0  0  0  0  0  0  0  0  0  0
   -2.9210    9.9830    0.4360 C   0  0  0  0  0  0  0  0  0  0  0  0
   -1.7540   10.1290   -0.5690 C   0  0  1  0  0  0  0  0  0  0  0  0
   -2.1590   11.3270   -1.4840 C   0  0  0  0  0  0  0  0  0  0  0  0
   -0.3320   10.3290    0.0480 C   0  0  2  0  0  0  0  0  0  0  0  0
   -0.1560   11.6110    0.8810 C   0  0  0  0  0  0  0  0  0  0  0  0
    0.3130   12.8060    0.1190 C   0  0  0  0  0  0  0  0  0  0  0  0
    0.8540   12.7860   -1.1130 C   0  0  0  0  0  0  0  0  0  0  0  0
    1.1300   11.4580   -1.8300 C   0  0  1  0  0  0  0  0  0  0  0  0
    2.5570   11.4860   -2.4400 C   0  0  0  0  0  0  0  0  0  0  0  0
    2.7840   12.6950   -3.3420 C   0  0  0  0  0  0  0  0  0  0  0  0
    2.5560   13.9960   -2.5780 C   0  0  2  0  0  0  0  0  0  0  0  0
    3.5730   14.1280   -1.5790 O   0  0  0  0  0  0  0  0  0  0  0  0
    1.1550   14.0780   -1.9110 C   0  0  0  0  0  0  0  0  0  0  0  0
    0.0680   14.2400   -3.0030 C   0  0  0  0  0  0  0  0  0  0  0  0
    1.1070   15.3740   -1.0570 C   0  0  0  0  0  0  0  0  0  0  0  0
    0.8540   10.1420   -0.9830 C   0  0  1  0  0  0  0  0  0  0  0  0
    2.1170    9.7730   -0.1460 C   0  0  0  0  0  0  0  0  0  0  0  0
    0.6070    8.9390   -1.9680 C   0  0  0  0  0  0  0  0  0  0  0  0
   -0.8410    8.7210   -2.4490 C   0  0  0  0  0  0  0  0  0  0  0  0
   -1.8160    8.7220   -1.2680 C   0  0  2  0  0  0  0  0  0  0  0  0
   -1.4470    7.5130   -0.3410 C   0  0  0  0  0  0  0  0  0  0  0  0
   -3.4180    6.0833   -3.7694 H   0  0  0  0  0  0  0  0  0  0  0  0
   -4.8073    7.2073   -3.9520 H   0  0  0  0  0  0  0  0  0  0  0  0
   -3.1287    7.8467   -3.9520 H   0  0  0  0  0  0  0  0  0  0  0  0
   -3.2399    6.4660   -1.5593 H   0  0  0  0  0  0  0  0  0  0  0  0
   -5.4514    6.0076   -1.2421 H   0  0  0  0  0  0  0  0  0  0  0  0
   -5.3796    7.7042   -0.5644 H   0  0  0  0  0  0  0  0  0  0  0  0
   -6.0876    8.4948   -2.8761 H   0  0  0  0  0  0  0  0  0  0  0  0
   -6.4978    6.7611   -3.2115 H   0  0  0  0  0  0  0  0  0  0  0  0
   -7.4812    8.7520   -1.5184 H   0  0  0  0  0  0  0  0  0  0  0  0
   -9.0048    5.0495   -3.0434 H   0  0  0  0  0  0  0  0  0  0  0  0
   -9.8866    6.2943   -3.9918 H   0  0  0  0  0  0  0  0  0  0  0  0
   -8.0905    6.2707   -3.9918 H   0  0  0  0  0  0  0  0  0  0  0  0
  -10.3604    7.6221   -0.6953 H   0  0  0  0  0  0  0  0  0  0  0  0
  -10.3806    8.6143   -2.1926 H   0  0  0  0  0  0  0  0  0  0  0  0
  -11.1113    6.9733   -2.1926 H   0  0  0  0  0  0  0  0  0  0  0  0
   -3.5359    9.1784   -2.5365 H   0  0  0  0  0  0  0  0  0  0  0  0
   -4.8361    9.8548   -0.6157 H   0  0  0  0  0  0  0  0  0  0  0  0
   -4.4195    8.3795    0.2824 H   0  0  0  0  0  0  0  0  0  0  0  0
   -3.3018   10.9707    0.7350 H   0  0  0  0  0  0  0  0  0  0  0  0
   -2.6130    9.4754    1.3620 H   0  0  0  0  0  0  0  0  0  0  0  0
   -2.4488   12.1843   -0.8587 H   0  0  0  0  0  0  0  0  0  0  0  0
   -1.3059   11.6081   -2.1190 H   0  0  0  0  0  0  0  0  0  0  0  0
   -3.0076   11.0328   -2.1190 H   0  0  0  0  0  0  0  0  0  0  0  0
   -0.2667    9.4966    0.7642 H   0  0  0  0  0  0  0  0  0  0  0  0
   -1.1269   11.8571    1.3357 H   0  0  0  0  0  0  0  0  0  0  0  0
    0.6313   11.3906    1.6170 H   0  0  0  0  0  0  0  0  0  0  0  0
    0.2073   13.7866    0.6062 H   0  0  0  0  0  0  0  0  0  0  0  0
    0.3819   11.3846   -2.6331 H   0  0  0  0  0  0  0  0  0  0  0  0
    3.2903   11.5148   -1.6205 H   0  0  0  0  0  0  0  0  0  0  0  0
    2.6743   10.5827   -3.0567 H   0  0  0  0  0  0  0  0  0  0  0  0
    3.8176   12.6747   -3.7179 H   0  0  0  0  0  0  0  0  0  0  0  0
    2.0699   12.6487   -4.1774 H   0  0  0  0  0  0  0  0  0  0  0  0
    2.6047   14.8189   -3.3063 H   0  0  0  0  0  0  0  0  0  0  0  0
    3.7980   15.0710   -1.5110 H   0  0  0  0  0  0  0  0  0  0  0  0
   -0.9123   14.3861   -2.5258 H   0  0  0  0  0  0  0  0  0  0  0  0
    0.3046   15.1128   -3.6293 H   0  0  0  0  0  0  0  0  0  0  0  0
    0.0398   13.3361   -3.6293 H   0  0  0  0  0  0  0  0  0  0  0  0
    1.1168   15.1100    0.0108 H   0  0  0  0  0  0  0  0  0  0  0  0
    1.9826   15.9983   -1.2884 H   0  0  0  0  0  0  0  0  0  0  0  0
    0.1876   15.9318   -1.2884 H   0  0  0  0  0  0  0  0  0  0  0  0
    1.8797    9.8423    0.9259 H   0  0  0  0  0  0  0  0  0  0  0  0
    2.4292    8.7461   -0.3867 H   0  0  0  0  0  0  0  0  0  0  0  0
    2.9330   10.4703   -0.3867 H   0  0  0  0  0  0  0  0  0  0  0  0
    1.2321    9.1038   -2.8580 H   0  0  0  0  0  0  0  0  0  0  0  0
    0.8571    8.0373   -1.3897 H   0  0  0  0  0  0  0  0  0  0  0  0
   -1.1153    9.5292   -3.1430 H   0  0  0  0  0  0  0  0  0  0  0  0
   -0.9005    7.7449   -2.9526 H   0  0  0  0  0  0  0  0  0  0  0  0
   -1.5397    7.8168    0.7121 H   0  0  0  0  0  0  0  0  0  0  0  0
   -2.1302    6.6747   -0.5423 H   0  0  0  0  0  0  0  0  0  0  0  0
   -0.4121    7.1991   -0.5423 H   0  0  0  0  0  0  0  0  0  0  0  0
  1  2  1  0
  2  3  1  0
  3  4  1  0
  4  5  1  0
  5  6  1  0
  6  7  1  0
  7  8  1  0
  7  9  1  0
  2 10  1  0
 10 11  1  0
 11 12  1  0
 12 13  1  0
 13 14  1  6
 13 15  1  0
 15 16  1  0
 16 17  1  0
 17 18  2  0
 18 19  1  0
 19 20  1  0
 20 21  1  0
 21 22  1  0
 22 23  1  0
 22 24  1  0
 24 25  1  0
 24 26  1  0
 19 27  1  0
 27 28  1  1
 27 29  1  0
 29 30  1  0
 30 31  1  0
 31 32  1  1
  7  5  1  0
 31 10  1  0
 31 13  1  0
 27 15  1  0
 24 18  1  0
  1 33  1  0
  1 34  1  0
  1 35  1  0
  2 36  1  1
  3 37  1  0
  3 38  1  0
  4 39  1  0
  4 40  1  0
  5 41  1  1
  8 42  1  0
  8 43  1  0
  8 44  1  0
  9 45  1  0
  9 46  1  0
  9 47  1  0
 10 48  1  6
 11 49  1  0
 11 50  1  0
 12 51  1  0
 12 52  1  0
 14 53  1  0
 14 54  1  0
 14 55  1  0
 15 56  1  1
 16 57  1  0
 16 58  1  0
 17 59  1  0
 19 60  1  6
 20 61  1  0
 20 62  1  0
 21 63  1  0
 21 64  1  0
 22 65  1  6
 23 66  1  0
 25 67  1  0
 25 68  1  0
 25 69  1  0
 26 70  1  0
 26 71  1  0
 26 72  1  0
 28 73  1  0
 28 74  1  0
 28 75  1  0
 29 76  1  0
 29 77  1  0
 30 78  1  0
 30 79  1  0
 32 80  1  0
 32 81  1  0
 32 82  1  0
M  END
>  <meeko>  (16) 
{"is_sidechain": [false], "intermolecular_energy": 2.731, "internal_energy": -0.839}

$$$$
EPH_relaxed_0001_pdb2pqr_Repair_62_r2_0001_out
     RDKit          3D

 82 86  0  0  0  0  0  0  0  0999 V2000
    3.6000   18.0150    0.8630 C   0  0  0  0  0  0  0  0  0  0  0  0
    2.6710   18.4200   -0.2850 C   0  0  2  0  0  0  0  0  0  0  0  0
    1.9230   19.7350    0.0100 C   0  0  0  0  0  0  0  0  0  0  0  0
    0.7950   19.5850    1.0340 C   0  0  0  0  0  0  0  0  0  0  0  0
   -0.4860   20.1890    0.5410 C   0  0  2  0  0  0  0  0  0  0  0  0
   -1.5530   20.1950    1.4980 O   0  0  0  0  0  0  0  0  0  0  0  0
   -1.7580   19.3900    0.3250 C   0  0  0  0  0  0  0  0  0  0  0  0
   -1.8120   17.9200    0.5970 C   0  0  0  0  0  0  0  0  0  0  0  0
   -2.7960   19.9360   -0.6050 C   0  0  0  0  0  0  0  0  0  0  0  0
    1.6720   17.3030   -0.5630 C   0  0  1  0  0  0  0  0  0  0  0  0
    0.4610   17.7820   -1.4080 C   0  0  0  0  0  0  0  0  0  0  0  0
    0.0600   16.5980   -2.3260 C   0  0  0  0  0  0  0  0  0  0  0  0
    0.8260   15.3830   -1.7520 C   0  0  1  0  0  0  0  0  0  0  0  0
   -0.0350   14.9010   -0.5420 C   0  0  0  0  0  0  0  0  0  0  0  0
    1.1200   14.2170   -2.7510 C   0  0  2  0  0  0  0  0  0  0  0  0
   -0.1250   13.5250   -3.3320 C   0  0  0  0  0  0  0  0  0  0  0  0
   -0.6260   12.3540   -2.5520 C   0  0  0  0  0  0  0  0  0  0  0  0
    0.0580   11.7020   -1.5940 C   0  0  0  0  0  0  0  0  0  0  0  0
    1.5140   12.0690   -1.2770 C   0  0  1  0  0  0  0  0  0  0  0  0
    2.3640   10.7760   -1.1770 C   0  0  0  0  0  0  0  0  0  0  0  0
    1.7870    9.7720   -0.1840 C   0  0  0  0  0  0  0  0  0  0  0  0
    0.3590    9.3870   -0.5650 C   0  0  2  0  0  0  0  0  0  0  0  0
    0.3910    8.6600   -1.7970 O   0  0  0  0  0  0  0  0  0  0  0  0
   -0.5880   10.6110   -0.7050 C   0  0  0  0  0  0  0  0  0  0  0  0
   -0.8610   11.2210    0.6920 C   0  0  0  0  0  0  0  0  0  0  0  0
   -1.9570   10.0980   -1.2290 C   0  0  0  0  0  0  0  0  0  0  0  0
    2.1750   13.1620   -2.2230 C   0  0  1  0  0  0  0  0  0  0  0  0
    2.7860   12.4750   -3.4830 C   0  0  0  0  0  0  0  0  0  0  0  0
    3.3740   13.8430   -1.4630 C   0  0  0  0  0  0  0  0  0  0  0  0
    3.0360   15.0640   -0.5860 C   0  0  0  0  0  0  0  0  0  0  0  0
    2.1810   16.0740   -1.3570 C   0  0  2  0  0  0  0  0  0  0  0  0
    3.0300   16.5930   -2.5680 C   0  0  0  0  0  0  0  0  0  0  0  0
    3.1097   18.2287    1.8242 H   0  0  0  0  0  0  0  0  0  0  0  0
    3.8199   16.9394    0.7947 H   0  0  0  0  0  0  0  0  0  0  0  0
    4.5377   18.5860    0.7947 H   0  0  0  0  0  0  0  0  0  0  0  0
    3.2967   18.5889   -1.1738 H   0  0  0  0  0  0  0  0  0  0  0  0
    2.6473   20.4674    0.3960 H   0  0  0  0  0  0  0  0  0  0  0  0
    1.4597   20.0599   -0.9333 H   0  0  0  0  0  0  0  0  0  0  0  0
    0.6321   18.5151    1.2306 H   0  0  0  0  0  0  0  0  0  0  0  0
    1.0925   20.1138    1.9516 H   0  0  0  0  0  0  0  0  0  0  0  0
    0.0648   20.8886   -0.1049 H   0  0  0  0  0  0  0  0  0  0  0  0
   -1.8183   17.7481    1.6835 H   0  0  0  0  0  0  0  0  0  0  0  0
   -2.7262   17.4984    0.1538 H   0  0  0  0  0  0  0  0  0  0  0  0
   -0.9312   17.4325    0.1538 H   0  0  0  0  0  0  0  0  0  0  0  0
   -3.6206   20.3697   -0.0202 H   0  0  0  0  0  0  0  0  0  0  0  0
   -2.3470   20.7146   -1.2391 H   0  0  0  0  0  0  0  0  0  0  0  0
   -3.1833   19.1249   -1.2391 H   0  0  0  0  0  0  0  0  0  0  0  0
    1.4312   17.0100    0.4696 H   0  0  0  0  0  0  0  0  0  0  0  0
   -0.3777   18.0515   -0.7493 H   0  0  0  0  0  0  0  0  0  0  0  0
    0.7202   18.6715   -2.0010 H   0  0  0  0  0  0  0  0  0  0  0  0
   -1.0258   16.4265   -2.2866 H   0  0  0  0  0  0  0  0  0  0  0  0
    0.3066   16.7861   -3.3814 H   0  0  0  0  0  0  0  0  0  0  0  0
    0.4641   15.1804    0.3976 H   0  0  0  0  0  0  0  0  0  0  0  0
   -1.0266   15.3752   -0.5856 H   0  0  0  0  0  0  0  0  0  0  0  0
   -0.1491   13.8078   -0.5856 H   0  0  0  0  0  0  0  0  0  0  0  0
    1.5895   14.7430   -3.5954 H   0  0  0  0  0  0  0  0  0  0  0  0
   -0.9336   14.2689   -3.3855 H   0  0  0  0  0  0  0  0  0  0  0  0
    0.1762   13.1306   -4.3137 H   0  0  0  0  0  0  0  0  0  0  0  0
   -1.6401   11.9940   -2.7800 H   0  0  0  0  0  0  0  0  0  0  0  0
    1.4938   12.5785   -0.3023 H   0  0  0  0  0  0  0  0  0  0  0  0
    2.4072   10.3048   -2.1700 H   0  0  0  0  0  0  0  0  0  0  0  0
    3.3647   11.0611   -0.8202 H   0  0  0  0  0  0  0  0  0  0  0  0
    2.4145    8.8686   -0.1797 H   0  0  0  0  0  0  0  0  0  0  0  0
    1.7717   10.2342    0.8140 H   0  0  0  0  0  0  0  0  0  0  0  0
   -0.0453    8.7691    0.2503 H   0  0  0  0  0  0  0  0  0  0  0  0
    0.4540    9.3070   -2.5190 H   0  0  0  0  0  0  0  0  0  0  0  0
   -0.5435   10.5115    1.4703 H   0  0  0  0  0  0  0  0  0  0  0  0
   -0.2969   12.1593    0.7990 H   0  0  0  0  0  0  0  0  0  0  0  0
   -1.9365   11.4255    0.7990 H   0  0  0  0  0  0  0  0  0  0  0  0
   -2.6079    9.8541   -0.3764 H   0  0  0  0  0  0  0  0  0  0  0  0
   -2.4315   10.8793   -1.8409 H   0  0  0  0  0  0  0  0  0  0  0  0
   -1.8012    9.1972   -1.8409 H   0  0  0  0  0  0  0  0  0  0  0  0
    3.4864   11.6875   -3.1679 H   0  0  0  0  0  0  0  0  0  0  0  0
    1.9801   12.0296   -4.0849 H   0  0  0  0  0  0  0  0  0  0  0  0
    3.3224   13.2234   -4.0849 H   0  0  0  0  0  0  0  0  0  0  0  0
    3.8311   13.0824   -0.8129 H   0  0  0  0  0  0  0  0  0  0  0  0
    4.0338   14.2299   -2.2536 H   0  0  0  0  0  0  0  0  0  0  0  0
    2.4811   14.7266    0.3018 H   0  0  0  0  0  0  0  0  0  0  0  0
    3.9755   15.5538   -0.2903 H   0  0  0  0  0  0  0  0  0  0  0  0
    3.9123   17.1323   -2.1929 H   0  0  0  0  0  0  0  0  0  0  0  0
    3.3552   15.7391   -3.1805 H   0  0  0  0  0  0  0  0  0  0  0  0
    2.4183   17.2718   -3.1805 H   0  0  0  0  0  0  0  0  0  0  0  0
  1  2  1  0
  2  3  1  0
  3  4  1  0
  4  5  1  0
  5  6  1  0
  6  7  1  0
  7  8  1  0
  7  9  1  0
  2 10  1  0
 10 11  1  0
 11 12  1  0
 12 13  1  0
 13 14  1  1
 13 15  1  0
 15 16  1  0
 16 17  1  0
 17 18  2  0
 18 19  1  0
 19 20  1  0
 20 21  1  0
 21 22  1  0
 22 23  1  0
 22 24  1  0
 24 25  1  0
 24 26  1  0
 19 27  1  0
 27 28  1  6
 27 29  1  0
 29 30  1  0
 30 31  1  0
 31 32  1  6
  7  5  1  0
 31 10  1  0
 31 13  1  0
 27 15  1  0
 24 18  1  0
  1 33  1  0
  1 34  1  0
  1 35  1  0
  2 36  1  6
  3 37  1  0
  3 38  1  0
  4 39  1  0
  4 40  1  0
  5 41  1  6
  8 42  1  0
  8 43  1  0
  8 44  1  0
  9 45  1  0
  9 46  1  0
  9 47  1  0
 10 48  1  1
 11 49  1  0
 11 50  1  0
 12 51  1  0
 12 52  1  0
 14 53  1  0
 14 54  1  0
 14 55  1  0
 15 56  1  6
 16 57  1  0
 16 58  1  0
 17 59  1  0
 19 60  1  1
 20 61  1  0
 20 62  1  0
 21 63  1  0
 21 64  1  0
 22 65  1  1
 23 66  1  0
 25 67  1  0
 25 68  1  0
 25 69  1  0
 26 70  1  0
 26 71  1  0
 26 72  1  0
 28 73  1  0
 28 74  1  0
 28 75  1  0
 29 76  1  0
 29 77  1  0
 30 78  1  0
 30 79  1  0
 32 80  1  0
 32 81  1  0
 32 82  1  0
M  END
>  <meeko>  (17) 
{"is_sidechain": [false], "intermolecular_energy": 2.731, "internal_energy": -0.839}

$$$$
