EPH_relaxed_0001_pdb2pqr_Repair_229_r2_0001_out
     RDKit          3D

 82 86  0  0  0  0  0  0  0  0999 V2000
   -1.7170    8.5840   -1.8740 C   0  0  0  0  0  0  0  0  0  0  0  0
   -2.0960    9.1040   -0.4840 C   0  0  2  0  0  0  0  0  0  0  0  0
   -3.5910    9.4710   -0.3890 C   0  0  0  0  0  0  0  0  0  0  0  0
   -4.5120    8.2600   -0.2250 C   0  0  0  0  0  0  0  0  0  0  0  0
   -5.2150    7.9200   -1.5050 C   0  0  2  0  0  0  0  0  0  0  0  0
   -6.3530    8.7400   -1.7990 O   0  0  0  0  0  0  0  0  0  0  0  0
   -6.6190    7.3490   -1.5620 C   0  0  0  0  0  0  0  0  0  0  0  0
   -7.4050    7.0830   -0.3170 C   0  0  0  0  0  0  0  0  0  0  0  0
   -7.0360    6.5970   -2.7880 C   0  0  0  0  0  0  0  0  0  0  0  0
   -1.2390   10.3140   -0.1310 C   0  0  1  0  0  0  0  0  0  0  0  0
   -0.2150   10.0120    0.9950 C   0  0  0  0  0  0  0  0  0  0  0  0
    1.0570   10.8400    0.6760 C   0  0  0  0  0  0  0  0  0  0  0  0
    0.6110   11.8330   -0.4220 C   0  0  1  0  0  0  0  0  0  0  0  0
   -0.1010   12.9890    0.3490 C   0  0  0  0  0  0  0  0  0  0  0  0
    1.7360   12.3740   -1.3630 C   0  0  2  0  0  0  0  0  0  0  0  0
    2.8350   13.1930   -0.6630 C   0  0  0  0  0  0  0  0  0  0  0  0
    2.5830   14.6620   -0.5840 C   0  0  0  0  0  0  0  0  0  0  0  0
    1.6640   15.3380   -1.2990 C   0  0  0  0  0  0  0  0  0  0  0  0
    0.8260   14.6310   -2.3720 C   0  0  1  0  0  0  0  0  0  0  0  0
    0.8070   15.4910   -3.6640 C   0  0  0  0  0  0  0  0  0  0  0  0
    0.3410   16.9210   -3.4070 C   0  0  0  0  0  0  0  0  0  0  0  0
    1.2340   17.6090   -2.3780 C   0  0  2  0  0  0  0  0  0  0  0  0
    2.5390   17.7770   -2.9400 O   0  0  0  0  0  0  0  0  0  0  0  0
    1.3380   16.8290   -1.0380 C   0  0  0  0  0  0  0  0  0  0  0  0
   -0.0120   16.9060   -0.2840 C   0  0  0  0  0  0  0  0  0  0  0  0
    2.3780   17.5560   -0.1420 C   0  0  0  0  0  0  0  0  0  0  0  0
    1.2000   13.1130   -2.6560 C   0  0  1  0  0  0  0  0  0  0  0  0
    2.3390   13.0340   -3.7180 C   0  0  0  0  0  0  0  0  0  0  0  0
   -0.0460   12.3850   -3.2870 C   0  0  0  0  0  0  0  0  0  0  0  0
   -1.0600   11.7680   -2.3060 C   0  0  0  0  0  0  0  0  0  0  0  0
   -0.3530   10.9100   -1.2530 C   0  0  2  0  0  0  0  0  0  0  0  0
    0.3540    9.7260   -1.9960 C   0  0  0  0  0  0  0  0  0  0  0  0
   -1.0719    7.6990   -1.7711 H   0  0  0  0  0  0  0  0  0  0  0  0
   -2.6293    8.3108   -2.4246 H   0  0  0  0  0  0  0  0  0  0  0  0
   -1.1776    9.3688   -2.4246 H   0  0  0  0  0  0  0  0  0  0  0  0
   -1.9091    8.2932    0.2354 H   0  0  0  0  0  0  0  0  0  0  0  0
   -3.7315   10.1341    0.4773 H   0  0  0  0  0  0  0  0  0  0  0  0
   -3.8639    9.9566   -1.3375 H   0  0  0  0  0  0  0  0  0  0  0  0
   -3.9106    7.3952    0.0919 H   0  0  0  0  0  0  0  0  0  0  0  0
   -5.2736    8.5083    0.5288 H   0  0  0  0  0  0  0  0  0  0  0  0
   -4.2692    7.6006   -1.9670 H   0  0  0  0  0  0  0  0  0  0  0  0
   -6.7802    7.2945    0.5633 H   0  0  0  0  0  0  0  0  0  0  0  0
   -8.2943    7.7302   -0.2995 H   0  0  0  0  0  0  0  0  0  0  0  0
   -7.7184    6.0287   -0.2995 H   0  0  0  0  0  0  0  0  0  0  0  0
   -7.5499    5.6703   -2.4927 H   0  0  0  0  0  0  0  0  0  0  0  0
   -7.7177    7.2197   -3.3860 H   0  0  0  0  0  0  0  0  0  0  0  0
   -6.1468    6.3486   -3.3860 H   0  0  0  0  0  0  0  0  0  0  0  0
   -2.0306   11.0276    0.1412 H   0  0  0  0  0  0  0  0  0  0  0  0
   -0.6261   10.3098    1.9709 H   0  0  0  0  0  0  0  0  0  0  0  0
    0.0146    8.9373    1.0425 H   0  0  0  0  0  0  0  0  0  0  0  0
    1.4035   11.3794    1.5699 H   0  0  0  0  0  0  0  0  0  0  0  0
    1.8958   10.2072    0.3503 H   0  0  0  0  0  0  0  0  0  0  0  0
    0.0004   12.8244    1.4319 H   0  0  0  0  0  0  0  0  0  0  0  0
    0.3622   13.9495    0.0792 H   0  0  0  0  0  0  0  0  0  0  0  0
   -1.1672   13.0075    0.0792 H   0  0  0  0  0  0  0  0  0  0  0  0
    2.2238   11.4486   -1.7030 H   0  0  0  0  0  0  0  0  0  0  0  0
    2.9422   12.8109    0.3629 H   0  0  0  0  0  0  0  0  0  0  0  0
    3.7409   13.0722   -1.2751 H   0  0  0  0  0  0  0  0  0  0  0  0
    3.2005   15.2416    0.1180 H   0  0  0  0  0  0  0  0  0  0  0  0
   -0.1909   14.5522   -1.9601 H   0  0  0  0  0  0  0  0  0  0  0  0
    1.8237   15.5211   -4.0827 H   0  0  0  0  0  0  0  0  0  0  0  0
    0.0953   15.0280   -4.3634 H   0  0  0  0  0  0  0  0  0  0  0  0
    0.3768   17.4863   -4.3500 H   0  0  0  0  0  0  0  0  0  0  0  0
   -0.6866   16.8905   -3.0157 H   0  0  0  0  0  0  0  0  0  0  0  0
    0.7759   18.5803   -2.1400 H   0  0  0  0  0  0  0  0  0  0  0  0
    2.9190   16.8920   -3.0730 H   0  0  0  0  0  0  0  0  0  0  0  0
    0.1725   16.8955    0.8004 H   0  0  0  0  0  0  0  0  0  0  0  0
   -0.5327   17.8353   -0.5583 H   0  0  0  0  0  0  0  0  0  0  0  0
   -0.6350   16.0419   -0.5583 H   0  0  0  0  0  0  0  0  0  0  0  0
    2.1332   17.3849    0.9167 H   0  0  0  0  0  0  0  0  0  0  0  0
    3.3832   17.1629   -0.3541 H   0  0  0  0  0  0  0  0  0  0  0  0
    2.3541   18.6351   -0.3541 H   0  0  0  0  0  0  0  0  0  0  0  0
    3.3115   12.9666   -3.2084 H   0  0  0  0  0  0  0  0  0  0  0  0
    2.1924   12.1439   -4.3474 H   0  0  0  0  0  0  0  0  0  0  0  0
    2.3167   13.9359   -4.3474 H   0  0  0  0  0  0  0  0  0  0  0  0
   -0.5842   13.1203   -3.9032 H   0  0  0  0  0  0  0  0  0  0  0  0
    0.3703   11.5329   -3.8444 H   0  0  0  0  0  0  0  0  0  0  0  0
   -1.6098   12.5762   -1.8014 H   0  0  0  0  0  0  0  0  0  0  0  0
   -1.7511   11.1274   -2.8734 H   0  0  0  0  0  0  0  0  0  0  0  0
    0.7717    9.0265   -1.2569 H   0  0  0  0  0  0  0  0  0  0  0  0
   -0.3777    9.1996   -2.6264 H   0  0  0  0  0  0  0  0  0  0  0  0
    1.1645   10.1205   -2.6264 H   0  0  0  0  0  0  0  0  0  0  0  0
  1  2  1  0
  2  3  1  0
  3  4  1  0
  4  5  1  0
  5  6  1  0
  6  7  1  0
  7  8  1  0
  7  9  1  0
  2 10  1  0
 10 11  1  0
 11 12  1  0
 12 13  1  0
 13 14  1  1
 13 15  1  0
 15 16  1  0
 16 17  1  0
 17 18  2  0
 18 19  1  0
 19 20  1  0
 20 21  1  0
 21 22  1  0
 22 23  1  0
 22 24  1  0
 24 25  1  0
 24 26  1  0
 19 27  1  0
 27 28  1  6
 27 29  1  0
 29 30  1  0
 30 31  1  0
 31 32  1  6
  7  5  1  0
 31 10  1  0
 31 13  1  0
 27 15  1  0
 24 18  1  0
  1 33  1  0
  1 34  1  0
  1 35  1  0
  2 36  1  1
  3 37  1  0
  3 38  1  0
  4 39  1  0
  4 40  1  0
  5 41  1  6
  8 42  1  0
  8 43  1  0
  8 44  1  0
  9 45  1  0
  9 46  1  0
  9 47  1  0
 10 48  1  1
 11 49  1  0
 11 50  1  0
 12 51  1  0
 12 52  1  0
 14 53  1  0
 14 54  1  0
 14 55  1  0
 15 56  1  6
 16 57  1  0
 16 58  1  0
 17 59  1  0
 19 60  1  1
 20 61  1  0
 20 62  1  0
 21 63  1  0
 21 64  1  0
 22 65  1  1
 23 66  1  0
 25 67  1  0
 25 68  1  0
 25 69  1  0
 26 70  1  0
 26 71  1  0
 26 72  1  0
 28 73  1  0
 28 74  1  0
 28 75  1  0
 29 76  1  0
 29 77  1  0
 30 78  1  0
 30 79  1  0
 32 80  1  0
 32 81  1  0
 32 82  1  0
M  END
>  <meeko>  (1) 
{"is_sidechain": [false], "intermolecular_energy": 2.731, "internal_energy": -0.839}

$$$$
EPH_relaxed_0001_pdb2pqr_Repair_229_r2_0001_out
     RDKit          3D

 82 86  0  0  0  0  0  0  0  0999 V2000
    1.9880   19.6260   -0.5900 C   0  0  0  0  0  0  0  0  0  0  0  0
    2.3810   18.4000    0.2400 C   0  0  2  0  0  0  0  0  0  0  0  0
    3.8330   17.9580   -0.0280 C   0  0  0  0  0  0  0  0  0  0  0  0
    4.8000   18.2950    1.1100 C   0  0  0  0  0  0  0  0  0  0  0  0
    4.1180   19.0490    2.2110 C   0  0  2  0  0  0  0  0  0  0  0  0
    4.8380   20.1940    2.6870 O   0  0  0  0  0  0  0  0  0  0  0  0
    4.6530   19.1250    3.6290 C   0  0  0  0  0  0  0  0  0  0  0  0
    5.9220   18.4350    4.0220 C   0  0  0  0  0  0  0  0  0  0  0  0
    3.7010   19.4550    4.7360 C   0  0  0  0  0  0  0  0  0  0  0  0
    1.4240   17.2500   -0.0470 C   0  0  1  0  0  0  0  0  0  0  0  0
    0.1530   17.7060   -0.8130 C   0  0  0  0  0  0  0  0  0  0  0  0
   -0.2340   16.5470   -1.7680 C   0  0  0  0  0  0  0  0  0  0  0  0
    0.6150   15.3470   -1.2880 C   0  0  1  0  0  0  0  0  0  0  0  0
   -0.1640   14.7680   -0.0660 C   0  0  0  0  0  0  0  0  0  0  0  0
    0.9180   14.2440   -2.3540 C   0  0  2  0  0  0  0  0  0  0  0  0
   -0.3190   13.5180   -2.9110 C   0  0  0  0  0  0  0  0  0  0  0  0
   -0.7270   12.2900   -2.1670 C   0  0  0  0  0  0  0  0  0  0  0  0
    0.0320   11.6290   -1.2730 C   0  0  0  0  0  0  0  0  0  0  0  0
    1.4820   12.0530   -1.0050 C   0  0  1  0  0  0  0  0  0  0  0  0
    2.3960   10.8000   -1.0050 C   0  0  0  0  0  0  0  0  0  0  0  0
    1.9140    9.7240   -0.0370 C   0  0  0  0  0  0  0  0  0  0  0  0
    0.4910    9.2870   -0.3720 C   0  0  2  0  0  0  0  0  0  0  0  0
    0.4990    8.6190   -1.6380 O   0  0  0  0  0  0  0  0  0  0  0  0
   -0.5200   10.4670   -0.4110 C   0  0  0  0  0  0  0  0  0  0  0  0
   -0.7550   10.9980    1.0250 C   0  0  0  0  0  0  0  0  0  0  0  0
   -1.8850    9.9120   -0.8980 C   0  0  0  0  0  0  0  0  0  0  0  0
    2.0450   13.2190   -1.9260 C   0  0  1  0  0  0  0  0  0  0  0  0
    2.6280   12.6230   -3.2430 C   0  0  0  0  0  0  0  0  0  0  0  0
    3.2440   13.9240   -1.1880 C   0  0  0  0  0  0  0  0  0  0  0  0
    2.8910   15.0840   -0.2380 C   0  0  0  0  0  0  0  0  0  0  0  0
    1.9530   16.0850   -0.9210 C   0  0  2  0  0  0  0  0  0  0  0  0
    2.7190   16.7010   -2.1420 C   0  0  0  0  0  0  0  0  0  0  0  0
    1.7224   20.4546    0.0830 H   0  0  0  0  0  0  0  0  0  0  0  0
    2.8350   19.9261   -1.2245 H   0  0  0  0  0  0  0  0  0  0  0  0
    1.1244   19.3777   -1.2245 H   0  0  0  0  0  0  0  0  0  0  0  0
    2.3137   18.6831    1.3008 H   0  0  0  0  0  0  0  0  0  0  0  0
    3.8418   16.8686   -0.1797 H   0  0  0  0  0  0  0  0  0  0  0  0
    4.1775   18.5087   -0.9157 H   0  0  0  0  0  0  0  0  0  0  0  0
    5.2094   17.3595    1.5189 H   0  0  0  0  0  0  0  0  0  0  0  0
    5.6004   18.9306    0.7033 H   0  0  0  0  0  0  0  0  0  0  0  0
    3.1279   18.7878    1.8091 H   0  0  0  0  0  0  0  0  0  0  0  0
    5.9936   18.3961    5.1190 H   0  0  0  0  0  0  0  0  0  0  0  0
    5.9234   17.4119    3.6179 H   0  0  0  0  0  0  0  0  0  0  0  0
    6.7815   18.9900    3.6179 H   0  0  0  0  0  0  0  0  0  0  0  0
    4.1925   19.2846    5.7052 H   0  0  0  0  0  0  0  0  0  0  0  0
    3.3996   20.5100    4.6581 H   0  0  0  0  0  0  0  0  0  0  0  0
    2.8113   18.8128    4.6581 H   0  0  0  0  0  0  0  0  0  0  0  0
    1.2456   16.8992    0.9802 H   0  0  0  0  0  0  0  0  0  0  0  0
   -0.6656   17.9029   -0.1051 H   0  0  0  0  0  0  0  0  0  0  0  0
    0.3413   18.6335   -1.3737 H   0  0  0  0  0  0  0  0  0  0  0  0
   -1.3074   16.3200   -1.6883 H   0  0  0  0  0  0  0  0  0  0  0  0
   -0.0468   16.7953   -2.8231 H   0  0  0  0  0  0  0  0  0  0  0  0
    0.3047   15.1164    0.8661 H   0  0  0  0  0  0  0  0  0  0  0  0
   -1.2087   15.1106   -0.1014 H   0  0  0  0  0  0  0  0  0  0  0  0
   -0.1371   13.6689   -0.1014 H   0  0  0  0  0  0  0  0  0  0  0  0
    1.3230   14.8314   -3.1912 H   0  0  0  0  0  0  0  0  0  0  0  0
   -1.1635   14.2227   -2.8927 H   0  0  0  0  0  0  0  0  0  0  0  0
   -0.0455   13.1838   -3.9227 H   0  0  0  0  0  0  0  0  0  0  0  0
   -1.7328   11.8915   -2.3660 H   0  0  0  0  0  0  0  0  0  0  0  0
    1.4839   12.5165   -0.0074 H   0  0  0  0  0  0  0  0  0  0  0  0
    2.4152   10.3776   -2.0205 H   0  0  0  0  0  0  0  0  0  0  0  0
    3.3976   11.1175   -0.6794 H   0  0  0  0  0  0  0  0  0  0  0  0
    2.5831    8.8535   -0.1041 H   0  0  0  0  0  0  0  0  0  0  0  0
    1.9233   10.1386    0.9818 H   0  0  0  0  0  0  0  0  0  0  0  0
    0.1562    8.6135    0.4307 H   0  0  0  0  0  0  0  0  0  0  0  0
   -0.0240    9.1560   -2.2570 H   0  0  0  0  0  0  0  0  0  0  0  0
   -0.4215   10.2445    1.7537 H   0  0  0  0  0  0  0  0  0  0  0  0
   -0.1839   11.9268    1.1705 H   0  0  0  0  0  0  0  0  0  0  0  0
   -1.8265   11.1998    1.1705 H   0  0  0  0  0  0  0  0  0  0  0  0
   -2.5090    9.6583   -0.0284 H   0  0  0  0  0  0  0  0  0  0  0  0
   -2.3951   10.6742   -1.5054 H   0  0  0  0  0  0  0  0  0  0  0  0
   -1.7185    9.0102   -1.5054 H   0  0  0  0  0  0  0  0  0  0  0  0
    3.3779   11.8564   -2.9981 H   0  0  0  0  0  0  0  0  0  0  0  0
    1.8167   12.1680   -3.8302 H   0  0  0  0  0  0  0  0  0  0  0  0
    3.1008   13.4240   -3.8302 H   0  0  0  0  0  0  0  0  0  0  0  0
    3.7675   13.1579   -0.5972 H   0  0  0  0  0  0  0  0  0  0  0  0
    3.8451   14.3807   -1.9881 H   0  0  0  0  0  0  0  0  0  0  0  0
    2.3953   14.6787    0.6565 H   0  0  0  0  0  0  0  0  0  0  0  0
    3.8190   15.6054    0.0395 H   0  0  0  0  0  0  0  0  0  0  0  0
    3.5277   17.3513   -1.7773 H   0  0  0  0  0  0  0  0  0  0  0  0
    3.1463   15.8921   -2.7528 H   0  0  0  0  0  0  0  0  0  0  0  0
    2.0206   17.2919   -2.7528 H   0  0  0  0  0  0  0  0  0  0  0  0
  1  2  1  0
  2  3  1  0
  3  4  1  0
  4  5  1  0
  5  6  1  0
  6  7  1  0
  7  8  1  0
  7  9  1  0
  2 10  1  0
 10 11  1  0
 11 12  1  0
 12 13  1  0
 13 14  1  1
 13 15  1  0
 15 16  1  0
 16 17  1  0
 17 18  2  0
 18 19  1  0
 19 20  1  0
 20 21  1  0
 21 22  1  0
 22 23  1  0
 22 24  1  0
 24 25  1  0
 24 26  1  0
 19 27  1  0
 27 28  1  6
 27 29  1  0
 29 30  1  0
 30 31  1  0
 31 32  1  6
  7  5  1  0
 31 10  1  0
 31 13  1  0
 27 15  1  0
 24 18  1  0
  1 33  1  0
  1 34  1  0
  1 35  1  0
  2 36  1  1
  3 37  1  0
  3 38  1  0
  4 39  1  0
  4 40  1  0
  5 41  1  1
  8 42  1  0
  8 43  1  0
  8 44  1  0
  9 45  1  0
  9 46  1  0
  9 47  1  0
 10 48  1  1
 11 49  1  0
 11 50  1  0
 12 51  1  0
 12 52  1  0
 14 53  1  0
 14 54  1  0
 14 55  1  0
 15 56  1  6
 16 57  1  0
 16 58  1  0
 17 59  1  0
 19 60  1  1
 20 61  1  0
 20 62  1  0
 21 63  1  0
 21 64  1  0
 22 65  1  1
 23 66  1  0
 25 67  1  0
 25 68  1  0
 25 69  1  0
 26 70  1  0
 26 71  1  0
 26 72  1  0
 28 73  1  0
 28 74  1  0
 28 75  1  0
 29 76  1  0
 29 77  1  0
 30 78  1  0
 30 79  1  0
 32 80  1  0
 32 81  1  0
 32 82  1  0
M  END
>  <meeko>  (2) 
{"is_sidechain": [false], "intermolecular_energy": 2.731, "internal_energy": -0.839}

$$$$
EPH_relaxed_0001_pdb2pqr_Repair_229_r2_0001_out
     RDKit          3D

 82 86  0  0  0  0  0  0  0  0999 V2000
    0.3970   18.4100   -0.0350 C   0  0  0  0  0  0  0  0  0  0  0  0
    1.4870   17.3580   -0.2570 C   0  0  2  0  0  0  0  0  0  0  0  0
    2.6940   17.9270   -1.0290 C   0  0  0  0  0  0  0  0  0  0  0  0
    3.9250   18.1710   -0.1520 C   0  0  0  0  0  0  0  0  0  0  0  0
    3.5440   18.6380    1.2200 C   0  0  2  0  0  0  0  0  0  0  0  0
    3.7920   20.0280    1.4700 O   0  0  0  0  0  0  0  0  0  0  0  0
    4.5520   19.0980    2.2570 C   0  0  0  0  0  0  0  0  0  0  0  0
    6.0200   19.1110    1.9670 C   0  0  0  0  0  0  0  0  0  0  0  0
    4.1580   19.0670    3.7010 C   0  0  0  0  0  0  0  0  0  0  0  0
    0.9090   16.1610   -1.0030 C   0  0  1  0  0  0  0  0  0  0  0  0
    0.7730   16.4160   -2.5280 C   0  0  0  0  0  0  0  0  0  0  0  0
    1.0580   15.0660   -3.2350 C   0  0  0  0  0  0  0  0  0  0  0  0
    1.0200   14.0160   -2.1000 C   0  0  1  0  0  0  0  0  0  0  0  0
   -0.4960   13.7220   -1.8760 C   0  0  0  0  0  0  0  0  0  0  0  0
    1.8330   12.7030   -2.3460 C   0  0  2  0  0  0  0  0  0  0  0  0
    1.3570   11.8550   -3.5390 C   0  0  0  0  0  0  0  0  0  0  0  0
    0.3260   10.8240   -3.2170 C   0  0  0  0  0  0  0  0  0  0  0  0
    0.0100   10.3930   -1.9820 C   0  0  0  0  0  0  0  0  0  0  0  0
    0.7870   10.8840   -0.7530 C   0  0  1  0  0  0  0  0  0  0  0  0
    1.1460    9.6740    0.1490 C   0  0  0  0  0  0  0  0  0  0  0  0
   -0.0750    8.8410    0.5250 C   0  0  0  0  0  0  0  0  0  0  0  0
   -0.7880    8.3230   -0.7220 C   0  0  2  0  0  0  0  0  0  0  0  0
    0.0660    7.3850   -1.3840 O   0  0  0  0  0  0  0  0  0  0  0  0
   -1.1900    9.4520   -1.7110 C   0  0  0  0  0  0  0  0  0  0  0  0
   -2.3390   10.2930   -1.1010 C   0  0  0  0  0  0  0  0  0  0  0  0
   -1.7710    8.7850   -2.9870 C   0  0  0  0  0  0  0  0  0  0  0  0
    2.0390   11.8160   -1.0520 C   0  0  1  0  0  0  0  0  0  0  0  0
    3.3040   10.9420   -1.3080 C   0  0  0  0  0  0  0  0  0  0  0  0
    2.3500   12.6830    0.2250 C   0  0  0  0  0  0  0  0  0  0  0  0
    1.6040   14.0260    0.3510 C   0  0  0  0  0  0  0  0  0  0  0  0
    1.7060   14.8340   -0.9460 C   0  0  2  0  0  0  0  0  0  0  0  0
    3.2190   15.1640   -1.1860 C   0  0  0  0  0  0  0  0  0  0  0  0
    0.2442   18.5575    1.0443 H   0  0  0  0  0  0  0  0  0  0  0  0
    0.7056   19.3604   -0.4949 H   0  0  0  0  0  0  0  0  0  0  0  0
   -0.5419   18.0679   -0.4949 H   0  0  0  0  0  0  0  0  0  0  0  0
    1.8478   17.0408    0.7325 H   0  0  0  0  0  0  0  0  0  0  0  0
    2.9674   17.2141   -1.8208 H   0  0  0  0  0  0  0  0  0  0  0  0
    2.3871   18.9036   -1.4317 H   0  0  0  0  0  0  0  0  0  0  0  0
    4.4921   17.2325   -0.0645 H   0  0  0  0  0  0  0  0  0  0  0  0
    4.5330   18.9562   -0.6251 H   0  0  0  0  0  0  0  0  0  0  0  0
    2.7190   17.9117    1.2638 H   0  0  0  0  0  0  0  0  0  0  0  0
    6.5807   19.1160    2.9134 H   0  0  0  0  0  0  0  0  0  0  0  0
    6.2872   18.2152    1.3872 H   0  0  0  0  0  0  0  0  0  0  0  0
    6.2713   20.0114    1.3872 H   0  0  0  0  0  0  0  0  0  0  0  0
    5.0587   19.1379    4.3284 H   0  0  0  0  0  0  0  0  0  0  0  0
    3.4924   19.9156    3.9178 H   0  0  0  0  0  0  0  0  0  0  0  0
    3.6333   18.1248    3.9178 H   0  0  0  0  0  0  0  0  0  0  0  0
   -0.0435   16.0512   -0.4638 H   0  0  0  0  0  0  0  0  0  0  0  0
   -0.2445   16.7603   -2.7651 H   0  0  0  0  0  0  0  0  0  0  0  0
    1.4762   17.1929   -2.8625 H   0  0  0  0  0  0  0  0  0  0  0  0
    0.2858   14.8516   -3.9885 H   0  0  0  0  0  0  0  0  0  0  0  0
    2.0200   15.0692   -3.7685 H   0  0  0  0  0  0  0  0  0  0  0  0
   -0.7061   13.6813   -0.7970 H   0  0  0  0  0  0  0  0  0  0  0  0
   -1.0963   14.5205   -2.3365 H   0  0  0  0  0  0  0  0  0  0  0  0
   -0.7543   12.7570   -2.3365 H   0  0  0  0  0  0  0  0  0  0  0  0
    2.8235   13.0883   -2.6294 H   0  0  0  0  0  0  0  0  0  0  0  0
    0.9336   12.5355   -4.2924 H   0  0  0  0  0  0  0  0  0  0  0  0
    2.2404   11.3025   -3.8917 H   0  0  0  0  0  0  0  0  0  0  0  0
   -0.2216   10.3791   -4.0609 H   0  0  0  0  0  0  0  0  0  0  0  0
    0.1091   11.5626   -0.2144 H   0  0  0  0  0  0  0  0  0  0  0  0
    1.8584    9.0319   -0.3897 H   0  0  0  0  0  0  0  0  0  0  0  0
    1.5797   10.0688    1.0796 H   0  0  0  0  0  0  0  0  0  0  0  0
    0.2475    7.9855    1.1367 H   0  0  0  0  0  0  0  0  0  0  0  0
   -0.7730    9.4766    1.0897 H   0  0  0  0  0  0  0  0  0  0  0  0
   -1.7234    7.8463   -0.3937 H   0  0  0  0  0  0  0  0  0  0  0  0
    0.8580    7.8650   -1.6790 H   0  0  0  0  0  0  0  0  0  0  0  0
   -2.2814   10.2509   -0.0033 H   0  0  0  0  0  0  0  0  0  0  0  0
   -2.2453   11.3374   -1.4333 H   0  0  0  0  0  0  0  0  0  0  0  0
   -3.3062    9.8879   -1.4333 H   0  0  0  0  0  0  0  0  0  0  0  0
   -2.4680    7.9848   -2.6975 H   0  0  0  0  0  0  0  0  0  0  0  0
   -2.3055    9.5387   -3.5838 H   0  0  0  0  0  0  0  0  0  0  0  0
   -0.9511    8.3589   -3.5838 H   0  0  0  0  0  0  0  0  0  0  0  0
    3.7417   10.6396   -0.3452 H   0  0  0  0  0  0  0  0  0  0  0  0
    3.0210   10.0459   -1.8797 H   0  0  0  0  0  0  0  0  0  0  0  0
    4.0420   11.5237   -1.8797 H   0  0  0  0  0  0  0  0  0  0  0  0
    2.0973   12.0777    1.1080 H   0  0  0  0  0  0  0  0  0  0  0  0
    3.4134   12.9510    0.1393 H   0  0  0  0  0  0  0  0  0  0  0  0
    0.5441   13.8296    0.5701 H   0  0  0  0  0  0  0  0  0  0  0  0
    2.0640   14.6076    1.1635 H   0  0  0  0  0  0  0  0  0  0  0  0
    3.7282   15.2751   -0.2173 H   0  0  0  0  0  0  0  0  0  0  0  0
    3.6868   14.3468   -1.7546 H   0  0  0  0  0  0  0  0  0  0  0  0
    3.3040   16.1018   -1.7546 H   0  0  0  0  0  0  0  0  0  0  0  0
  1  2  1  0
  2  3  1  0
  3  4  1  0
  4  5  1  0
  5  6  1  0
  6  7  1  0
  7  8  1  0
  7  9  1  0
  2 10  1  0
 10 11  1  0
 11 12  1  0
 12 13  1  0
 13 14  1  1
 13 15  1  0
 15 16  1  0
 16 17  1  0
 17 18  2  0
 18 19  1  0
 19 20  1  0
 20 21  1  0
 21 22  1  0
 22 23  1  0
 22 24  1  0
 24 25  1  0
 24 26  1  0
 19 27  1  0
 27 28  1  6
 27 29  1  0
 29 30  1  0
 30 31  1  0
 31 32  1  6
  7  5  1  0
 31 10  1  0
 31 13  1  0
 27 15  1  0
 24 18  1  0
  1 33  1  0
  1 34  1  0
  1 35  1  0
  2 36  1  1
  3 37  1  0
  3 38  1  0
  4 39  1  0
  4 40  1  0
  5 41  1  1
  8 42  1  0
  8 43  1  0
  8 44  1  0
  9 45  1  0
  9 46  1  0
  9 47  1  0
 10 48  1  1
 11 49  1  0
 11 50  1  0
 12 51  1  0
 12 52  1  0
 14 53  1  0
 14 54  1  0
 14 55  1  0
 15 56  1  6
 16 57  1  0
 16 58  1  0
 17 59  1  0
 19 60  1  1
 20 61  1  0
 20 62  1  0
 21 63  1  0
 21 64  1  0
 22 65  1  1
 23 66  1  0
 25 67  1  0
 25 68  1  0
 25 69  1  0
 26 70  1  0
 26 71  1  0
 26 72  1  0
 28 73  1  0
 28 74  1  0
 28 75  1  0
 29 76  1  0
 29 77  1  0
 30 78  1  0
 30 79  1  0
 32 80  1  0
 32 81  1  0
 32 82  1  0
M  END
>  <meeko>  (3) 
{"is_sidechain": [false], "intermolecular_energy": 2.731, "internal_energy": -0.839}

$$$$
EPH_relaxed_0001_pdb2pqr_Repair_229_r2_0001_out
     RDKit          3D

 82 86  0  0  0  0  0  0  0  0999 V2000
    2.2050   18.0020   -2.6030 C   0  0  0  0  0  0  0  0  0  0  0  0
    0.6820   17.8480   -2.6520 C   0  0  2  0  0  0  0  0  0  0  0  0
    0.0100   18.3130   -1.3450 C   0  0  0  0  0  0  0  0  0  0  0  0
    0.7690   17.8990   -0.0810 C   0  0  0  0  0  0  0  0  0  0  0  0
    1.2780   19.0890    0.6740 C   0  0  2  0  0  0  0  0  0  0  0  0
    2.1460   19.9480   -0.0760 O   0  0  0  0  0  0  0  0  0  0  0  0
    2.7360   19.2800    1.0510 C   0  0  0  0  0  0  0  0  0  0  0  0
    3.7750   18.2680    0.6830 C   0  0  0  0  0  0  0  0  0  0  0  0
    3.0670   20.1940    2.1880 C   0  0  0  0  0  0  0  0  0  0  0  0
    0.3150   16.3970   -2.9390 C   0  0  1  0  0  0  0  0  0  0  0  0
    0.3930   16.0490   -4.4500 C   0  0  0  0  0  0  0  0  0  0  0  0
    0.8830   14.5810   -4.5450 C   0  0  0  0  0  0  0  0  0  0  0  0
    0.7520   14.0310   -3.1060 C   0  0  1  0  0  0  0  0  0  0  0  0
   -0.7550   13.6510   -2.9560 C   0  0  0  0  0  0  0  0  0  0  0  0
    1.6880   12.8350   -2.7350 C   0  0  2  0  0  0  0  0  0  0  0  0
    1.4640   11.5520   -3.5540 C   0  0  0  0  0  0  0  0  0  0  0  0
    0.4760   10.5920   -2.9780 C   0  0  0  0  0  0  0  0  0  0  0  0
    0.0090   10.6140   -1.7160 C   0  0  0  0  0  0  0  0  0  0  0  0
    0.5520   11.6200   -0.6920 C   0  0  1  0  0  0  0  0  0  0  0  0
    0.8600   10.8870    0.6400 C   0  0  0  0  0  0  0  0  0  0  0  0
   -0.3390   10.1060    1.1690 C   0  0  0  0  0  0  0  0  0  0  0  0
   -0.8130    9.0770    0.1470 C   0  0  2  0  0  0  0  0  0  0  0  0
    0.1990    8.0760   -0.0030 O   0  0  0  0  0  0  0  0  0  0  0  0
   -1.1440    9.6970   -1.2390 C   0  0  0  0  0  0  0  0  0  0  0  0
   -2.4320   10.5510   -1.1330 C   0  0  0  0  0  0  0  0  0  0  0  0
   -1.4730    8.5360   -2.2160 C   0  0  0  0  0  0  0  0  0  0  0  0
    1.7620   12.5250   -1.1850 C   0  0  1  0  0  0  0  0  0  0  0  0
    3.1130   11.7870   -0.9420 C   0  0  0  0  0  0  0  0  0  0  0  0
    1.8100   13.8370   -0.3140 C   0  0  0  0  0  0  0  0  0  0  0  0
    0.9550   15.0240   -0.7990 C   0  0  0  0  0  0  0  0  0  0  0  0
    1.1920   15.2990   -2.2870 C   0  0  2  0  0  0  0  0  0  0  0  0
    2.6950   15.7050   -2.4650 C   0  0  0  0  0  0  0  0  0  0  0  0
    2.5366   18.0355   -1.5547 H   0  0  0  0  0  0  0  0  0  0  0  0
    2.6765   17.1470   -3.1095 H   0  0  0  0  0  0  0  0  0  0  0  0
    2.4958   18.9341   -3.1095 H   0  0  0  0  0  0  0  0  0  0  0  0
    0.3099   18.4922   -3.4622 H   0  0  0  0  0  0  0  0  0  0  0  0
   -0.0620   19.4105   -1.3630 H   0  0  0  0  0  0  0  0  0  0  0  0
   -0.9764   17.8282   -1.3007 H   0  0  0  0  0  0  0  0  0  0  0  0
    0.0919   17.3266    0.5701 H   0  0  0  0  0  0  0  0  0  0  0  0
    1.6332   17.2895   -0.3839 H   0  0  0  0  0  0  0  0  0  0  0  0
    0.3505   19.1412    1.2630 H   0  0  0  0  0  0  0  0  0  0  0  0
    4.2123   17.8421    1.5981 H   0  0  0  0  0  0  0  0  0  0  0  0
    3.3116   17.4656    0.0902 H   0  0  0  0  0  0  0  0  0  0  0  0
    4.5649   18.7524    0.0902 H   0  0  0  0  0  0  0  0  0  0  0  0
    2.8797   19.6769    3.1406 H   0  0  0  0  0  0  0  0  0  0  0  0
    4.1268   20.4828    2.1297 H   0  0  0  0  0  0  0  0  0  0  0  0
    2.4379   21.0944    2.1297 H   0  0  0  0  0  0  0  0  0  0  0  0
   -0.6973   16.3743   -2.5091 H   0  0  0  0  0  0  0  0  0  0  0  0
   -0.5997   16.1480   -4.9134 H   0  0  0  0  0  0  0  0  0  0  0  0
    1.0776   16.7293   -4.9776 H   0  0  0  0  0  0  0  0  0  0  0  0
    0.2529   14.0057   -5.2393 H   0  0  0  0  0  0  0  0  0  0  0  0
    1.9122   14.5091   -4.9265 H   0  0  0  0  0  0  0  0  0  0  0  0
   -1.0123   13.5861   -1.8885 H   0  0  0  0  0  0  0  0  0  0  0  0
   -1.3768   14.4205   -3.4369 H   0  0  0  0  0  0  0  0  0  0  0  0
   -0.9376   12.6787   -3.4369 H   0  0  0  0  0  0  0  0  0  0  0  0
    2.6780   13.2108   -3.0329 H   0  0  0  0  0  0  0  0  0  0  0  0
    1.1107   11.8444   -4.5539 H   0  0  0  0  0  0  0  0  0  0  0  0
    2.4296   11.0252   -3.5645 H   0  0  0  0  0  0  0  0  0  0  0  0
    0.0979    9.7999   -3.6411 H   0  0  0  0  0  0  0  0  0  0  0  0
   -0.2486   12.3579   -0.5352 H   0  0  0  0  0  0  0  0  0  0  0  0
    1.6913   10.1863    0.4728 H   0  0  0  0  0  0  0  0  0  0  0  0
    1.1181   11.6501    1.3890 H   0  0  0  0  0  0  0  0  0  0  0  0
   -0.0506    9.5872    2.0951 H   0  0  0  0  0  0  0  0  0  0  0  0
   -1.1599   10.8119    1.3634 H   0  0  0  0  0  0  0  0  0  0  0  0
   -1.7490    8.6419    0.5272 H   0  0  0  0  0  0  0  0  0  0  0  0
    0.9580    8.3410    0.5440 H   0  0  0  0  0  0  0  0  0  0  0  0
   -2.6777   10.7139   -0.0732 H   0  0  0  0  0  0  0  0  0  0  0  0
   -2.2701   11.5213   -1.6252 H   0  0  0  0  0  0  0  0  0  0  0  0
   -3.2628   10.0242   -1.6252 H   0  0  0  0  0  0  0  0  0  0  0  0
   -1.7286    7.6340   -1.6407 H   0  0  0  0  0  0  0  0  0  0  0  0
   -2.3259    8.8206   -2.8497 H   0  0  0  0  0  0  0  0  0  0  0  0
   -0.5976    8.3309   -2.8497 H   0  0  0  0  0  0  0  0  0  0  0  0
    3.2889   11.6909    0.1396 H   0  0  0  0  0  0  0  0  0  0  0  0
    3.0712   10.7864   -1.3970 H   0  0  0  0  0  0  0  0  0  0  0  0
    3.9324   12.3628   -1.3970 H   0  0  0  0  0  0  0  0  0  0  0  0
    1.4726   13.5760    0.6999 H   0  0  0  0  0  0  0  0  0  0  0  0
    2.8510   14.1869   -0.3773 H   0  0  0  0  0  0  0  0  0  0  0  0
   -0.1081   14.7898   -0.6413 H   0  0  0  0  0  0  0  0  0  0  0  0
    1.2412   15.9190   -0.2271 H   0  0  0  0  0  0  0  0  0  0  0  0
    3.1604   15.8307   -1.4763 H   0  0  0  0  0  0  0  0  0  0  0  0
    3.2240   14.9176   -3.0218 H   0  0  0  0  0  0  0  0  0  0  0  0
    2.7556   16.6517   -3.0218 H   0  0  0  0  0  0  0  0  0  0  0  0
  1  2  1  0
  2  3  1  0
  3  4  1  0
  4  5  1  0
  5  6  1  0
  6  7  1  0
  7  8  1  0
  7  9  1  0
  2 10  1  0
 10 11  1  0
 11 12  1  0
 12 13  1  0
 13 14  1  1
 13 15  1  0
 15 16  1  0
 16 17  1  0
 17 18  2  0
 18 19  1  0
 19 20  1  0
 20 21  1  0
 21 22  1  0
 22 23  1  0
 22 24  1  0
 24 25  1  0
 24 26  1  0
 19 27  1  0
 27 28  1  6
 27 29  1  0
 29 30  1  0
 30 31  1  0
 31 32  1  1
  7  5  1  0
 31 10  1  0
 31 13  1  0
 27 15  1  0
 24 18  1  0
  1 33  1  0
  1 34  1  0
  1 35  1  0
  2 36  1  6
  3 37  1  0
  3 38  1  0
  4 39  1  0
  4 40  1  0
  5 41  1  1
  8 42  1  0
  8 43  1  0
  8 44  1  0
  9 45  1  0
  9 46  1  0
  9 47  1  0
 10 48  1  1
 11 49  1  0
 11 50  1  0
 12 51  1  0
 12 52  1  0
 14 53  1  0
 14 54  1  0
 14 55  1  0
 15 56  1  6
 16 57  1  0
 16 58  1  0
 17 59  1  0
 19 60  1  1
 20 61  1  0
 20 62  1  0
 21 63  1  0
 21 64  1  0
 22 65  1  1
 23 66  1  0
 25 67  1  0
 25 68  1  0
 25 69  1  0
 26 70  1  0
 26 71  1  0
 26 72  1  0
 28 73  1  0
 28 74  1  0
 28 75  1  0
 29 76  1  0
 29 77  1  0
 30 78  1  0
 30 79  1  0
 32 80  1  0
 32 81  1  0
 32 82  1  0
M  END
>  <meeko>  (4) 
{"is_sidechain": [false], "intermolecular_energy": 2.731, "internal_energy": -0.839}

$$$$
EPH_relaxed_0001_pdb2pqr_Repair_229_r2_0001_out
     RDKit          3D

 82 86  0  0  0  0  0  0  0  0999 V2000
   -3.4110    9.3180    0.5400 C   0  0  0  0  0  0  0  0  0  0  0  0
   -2.5810    9.6810   -0.6940 C   0  0  2  0  0  0  0  0  0  0  0  0
   -1.9090    8.4460   -1.3260 C   0  0  0  0  0  0  0  0  0  0  0  0
   -2.8210    7.6710   -2.2820 C   0  0  0  0  0  0  0  0  0  0  0  0
   -4.2600    7.7630   -1.8720 C   0  0  2  0  0  0  0  0  0  0  0  0
   -4.8040    6.5560   -1.3240 O   0  0  0  0  0  0  0  0  0  0  0  0
   -5.3770    7.0030   -2.5630 C   0  0  0  0  0  0  0  0  0  0  0  0
   -5.1030    6.0970   -3.7220 C   0  0  0  0  0  0  0  0  0  0  0  0
   -6.7780    7.5140   -2.4310 C   0  0  0  0  0  0  0  0  0  0  0  0
   -1.5250   10.7160   -0.3230 C   0  0  1  0  0  0  0  0  0  0  0  0
   -0.4320   10.1430    0.6180 C   0  0  0  0  0  0  0  0  0  0  0  0
    0.9000   10.8350    0.2290 C   0  0  0  0  0  0  0  0  0  0  0  0
    0.4770   12.0100   -0.6830 C   0  0  1  0  0  0  0  0  0  0  0  0
    0.0310   13.1400    0.2980 C   0  0  0  0  0  0  0  0  0  0  0  0
    1.5530   12.5190   -1.6980 C   0  0  2  0  0  0  0  0  0  0  0  0
    2.8300   13.0930   -1.0620 C   0  0  0  0  0  0  0  0  0  0  0  0
    2.8020   14.5600   -0.7880 C   0  0  0  0  0  0  0  0  0  0  0  0
    1.9130   15.4340   -1.2960 C   0  0  0  0  0  0  0  0  0  0  0  0
    0.8650   14.9840   -2.3220 C   0  0  1  0  0  0  0  0  0  0  0  0
    0.8210   15.9980   -3.4960 C   0  0  0  0  0  0  0  0  0  0  0  0
    0.5970   17.4310   -3.0230 C   0  0  0  0  0  0  0  0  0  0  0  0
    1.6910   17.8610   -2.0500 C   0  0  2  0  0  0  0  0  0  0  0  0
    2.9340   17.9320   -2.7560 O   0  0  0  0  0  0  0  0  0  0  0  0
    1.8360   16.9090   -0.8300 C   0  0  0  0  0  0  0  0  0  0  0  0
    0.6060   17.0610    0.0980 C   0  0  0  0  0  0  0  0  0  0  0  0
    3.0650   17.3760   -0.0030 C   0  0  0  0  0  0  0  0  0  0  0  0
    0.9830   13.4790   -2.8190 C   0  0  1  0  0  0  0  0  0  0  0  0
    1.9700   13.3930   -4.0230 C   0  0  0  0  0  0  0  0  0  0  0  0
   -0.4180   13.0050   -3.3590 C   0  0  0  0  0  0  0  0  0  0  0  0
   -1.3910   12.4020   -2.3280 C   0  0  0  0  0  0  0  0  0  0  0  0
   -0.6970   11.3320   -1.4790 C   0  0  2  0  0  0  0  0  0  0  0  0
   -0.2570   10.1720   -2.4360 C   0  0  0  0  0  0  0  0  0  0  0  0
   -2.8439    9.5660    1.4493 H   0  0  0  0  0  0  0  0  0  0  0  0
   -4.3527    9.8864    0.5287 H   0  0  0  0  0  0  0  0  0  0  0  0
   -3.6329    8.2407    0.5287 H   0  0  0  0  0  0  0  0  0  0  0  0
   -3.2679   10.1019   -1.4430 H   0  0  0  0  0  0  0  0  0  0  0  0
   -1.0233    8.7808   -1.8858 H   0  0  0  0  0  0  0  0  0  0  0  0
   -1.6515    7.7633   -0.5028 H   0  0  0  0  0  0  0  0  0  0  0  0
   -2.7115    8.0866   -3.2946 H   0  0  0  0  0  0  0  0  0  0  0  0
   -2.5241    6.6121   -2.2563 H   0  0  0  0  0  0  0  0  0  0  0  0
   -4.1422    8.8249   -1.6101 H   0  0  0  0  0  0  0  0  0  0  0  0
   -4.8033    5.1061   -3.3500 H   0  0  0  0  0  0  0  0  0  0  0  0
   -6.0118    5.9994   -4.3340 H   0  0  0  0  0  0  0  0  0  0  0  0
   -4.2924    6.5194   -4.3340 H   0  0  0  0  0  0  0  0  0  0  0  0
   -7.0352    7.6078   -1.3656 H   0  0  0  0  0  0  0  0  0  0  0  0
   -6.8563    8.4986   -2.9152 H   0  0  0  0  0  0  0  0  0  0  0  0
   -7.4718    6.8110   -2.9152 H   0  0  0  0  0  0  0  0  0  0  0  0
   -2.1695   11.4842    0.1292 H   0  0  0  0  0  0  0  0  0  0  0  0
   -0.6813   10.3632    1.6665 H   0  0  0  0  0  0  0  0  0  0  0  0
   -0.3547    9.0506    0.5148 H   0  0  0  0  0  0  0  0  0  0  0  0
    1.4207   11.2061    1.1241 H   0  0  0  0  0  0  0  0  0  0  0  0
    1.5965   10.1472   -0.2727 H   0  0  0  0  0  0  0  0  0  0  0  0
    0.1655   12.7993    1.3352 H   0  0  0  0  0  0  0  0  0  0  0  0
    0.6421   14.0381    0.1249 H   0  0  0  0  0  0  0  0  0  0  0  0
   -1.0288   13.3786    0.1249 H   0  0  0  0  0  0  0  0  0  0  0  0
    1.8618   11.5903   -2.2001 H   0  0  0  0  0  0  0  0  0  0  0  0
    2.9982   12.5722   -0.1078 H   0  0  0  0  0  0  0  0  0  0  0  0
    3.6331   12.9361   -1.7971 H   0  0  0  0  0  0  0  0  0  0  0  0
    3.5732   14.9610   -0.1138 H   0  0  0  0  0  0  0  0  0  0  0  0
   -0.0991   14.9843   -1.7925 H   0  0  0  0  0  0  0  0  0  0  0  0
    1.7767   15.9510   -4.0385 H   0  0  0  0  0  0  0  0  0  0  0  0
   -0.0254   15.7236   -4.1427 H   0  0  0  0  0  0  0  0  0  0  0  0
    0.6051   18.1030   -3.8938 H   0  0  0  0  0  0  0  0  0  0  0  0
   -0.3728   17.4829   -2.5064 H   0  0  0  0  0  0  0  0  0  0  0  0
    1.4061   18.8442   -1.6473 H   0  0  0  0  0  0  0  0  0  0  0  0
    2.8390   18.6030   -3.4520 H   0  0  0  0  0  0  0  0  0  0  0  0
    0.9316   17.0208    1.1479 H   0  0  0  0  0  0  0  0  0  0  0  0
    0.1164   18.0265   -0.0973 H   0  0  0  0  0  0  0  0  0  0  0  0
   -0.1039   16.2438   -0.0973 H   0  0  0  0  0  0  0  0  0  0  0  0
    2.8389   17.2901    1.0701 H   0  0  0  0  0  0  0  0  0  0  0  0
    3.9322   16.7447   -0.2467 H   0  0  0  0  0  0  0  0  0  0  0  0
    3.2942   18.4239   -0.2467 H   0  0  0  0  0  0  0  0  0  0  0  0
    2.9999   13.3033   -3.6472 H   0  0  0  0  0  0  0  0  0  0  0  0
    1.7252   12.5128   -4.6356 H   0  0  0  0  0  0  0  0  0  0  0  0
    1.8812   14.3023   -4.6356 H   0  0  0  0  0  0  0  0  0  0  0  0
   -0.9121   13.8766   -3.8130 H   0  0  0  0  0  0  0  0  0  0  0  0
   -0.1952   12.1858   -4.0585 H   0  0  0  0  0  0  0  0  0  0  0  0
   -1.7580   13.2023   -1.6686 H   0  0  0  0  0  0  0  0  0  0  0  0
   -2.2274   11.9335   -2.8674 H   0  0  0  0  0  0  0  0  0  0  0  0
    0.0706    9.3083   -1.8388 H   0  0  0  0  0  0  0  0  0  0  0  0
   -1.1061    9.8781   -3.0705 H   0  0  0  0  0  0  0  0  0  0  0  0
    0.5734   10.5152   -3.0705 H   0  0  0  0  0  0  0  0  0  0  0  0
  1  2  1  0
  2  3  1  0
  3  4  1  0
  4  5  1  0
  5  6  1  0
  6  7  1  0
  7  8  1  0
  7  9  1  0
  2 10  1  0
 10 11  1  0
 11 12  1  0
 12 13  1  0
 13 14  1  1
 13 15  1  0
 15 16  1  0
 16 17  1  0
 17 18  2  0
 18 19  1  0
 19 20  1  0
 20 21  1  0
 21 22  1  0
 22 23  1  0
 22 24  1  0
 24 25  1  0
 24 26  1  0
 19 27  1  0
 27 28  1  6
 27 29  1  0
 29 30  1  0
 30 31  1  0
 31 32  1  6
  7  5  1  0
 31 10  1  0
 31 13  1  0
 27 15  1  0
 24 18  1  0
  1 33  1  0
  1 34  1  0
  1 35  1  0
  2 36  1  6
  3 37  1  0
  3 38  1  0
  4 39  1  0
  4 40  1  0
  5 41  1  1
  8 42  1  0
  8 43  1  0
  8 44  1  0
  9 45  1  0
  9 46  1  0
  9 47  1  0
 10 48  1  1
 11 49  1  0
 11 50  1  0
 12 51  1  0
 12 52  1  0
 14 53  1  0
 14 54  1  0
 14 55  1  0
 15 56  1  6
 16 57  1  0
 16 58  1  0
 17 59  1  0
 19 60  1  1
 20 61  1  0
 20 62  1  0
 21 63  1  0
 21 64  1  0
 22 65  1  1
 23 66  1  0
 25 67  1  0
 25 68  1  0
 25 69  1  0
 26 70  1  0
 26 71  1  0
 26 72  1  0
 28 73  1  0
 28 74  1  0
 28 75  1  0
 29 76  1  0
 29 77  1  0
 30 78  1  0
 30 79  1  0
 32 80  1  0
 32 81  1  0
 32 82  1  0
M  END
>  <meeko>  (5) 
{"is_sidechain": [false], "intermolecular_energy": 2.731, "internal_energy": -0.839}

$$$$
EPH_relaxed_0001_pdb2pqr_Repair_229_r2_0001_out
     RDKit          3D

 82 86  0  0  0  0  0  0  0  0999 V2000
    2.2610   18.0180   -2.9900 C   0  0  0  0  0  0  0  0  0  0  0  0
    1.2770   17.4700   -1.9520 C   0  0  2  0  0  0  0  0  0  0  0  0
    1.9090   17.3710   -0.5490 C   0  0  0  0  0  0  0  0  0  0  0  0
    1.6480   18.5960    0.3310 C   0  0  0  0  0  0  0  0  0  0  0  0
    0.6300   19.5110   -0.2790 C   0  0  2  0  0  0  0  0  0  0  0  0
   -0.2050   20.1930    0.6660 O   0  0  0  0  0  0  0  0  0  0  0  0
   -0.8650   19.2640   -0.2100 C   0  0  0  0  0  0  0  0  0  0  0  0
   -1.4260   18.0640    0.4880 C   0  0  0  0  0  0  0  0  0  0  0  0
   -1.7470   19.9170   -1.2280 C   0  0  0  0  0  0  0  0  0  0  0  0
    0.7670   16.1030   -2.3920 C   0  0  1  0  0  0  0  0  0  0  0  0
    0.7980   15.9200   -3.9320 C   0  0  0  0  0  0  0  0  0  0  0  0
    1.1400   14.4320   -4.2000 C   0  0  0  0  0  0  0  0  0  0  0  0
    0.9670   13.7400   -2.8280 C   0  0  1  0  0  0  0  0  0  0  0  0
   -0.5680   13.4930   -2.6930 C   0  0  0  0  0  0  0  0  0  0  0  0
    1.7840   12.4240   -2.6100 C   0  0  2  0  0  0  0  0  0  0  0  0
    1.4270   11.2700   -3.5620 C   0  0  0  0  0  0  0  0  0  0  0  0
    0.3550   10.3510   -3.0770 C   0  0  0  0  0  0  0  0  0  0  0  0
   -0.0980   10.2760   -1.8120 C   0  0  0  0  0  0  0  0  0  0  0  0
    0.5500   11.1030   -0.6930 C   0  0  1  0  0  0  0  0  0  0  0  0
    0.7950   10.2000    0.5430 C   0  0  0  0  0  0  0  0  0  0  0  0
   -0.4710    9.4840    1.0050 C   0  0  0  0  0  0  0  0  0  0  0  0
   -1.0520    8.6260   -0.1160 C   0  0  2  0  0  0  0  0  0  0  0  0
   -0.1450    7.5560   -0.3950 O   0  0  0  0  0  0  0  0  0  0  0  0
   -1.3320    9.4280   -1.4180 C   0  0  0  0  0  0  0  0  0  0  0  0
   -2.5280   10.3850   -1.1930 C   0  0  0  0  0  0  0  0  0  0  0  0
   -1.7810    8.4210   -2.5110 C   0  0  0  0  0  0  0  0  0  0  0  0
    1.8390   11.9370   -1.1050 C   0  0  1  0  0  0  0  0  0  0  0  0
    3.1130   11.0480   -0.9710 C   0  0  0  0  0  0  0  0  0  0  0  0
    2.0230   13.1310   -0.0960 C   0  0  0  0  0  0  0  0  0  0  0  0
    1.2850   14.4420   -0.4290 C   0  0  0  0  0  0  0  0  0  0  0  0
    1.5360   14.8590   -1.8820 C   0  0  2  0  0  0  0  0  0  0  0  0
    3.0700   15.1350   -2.0420 C   0  0  0  0  0  0  0  0  0  0  0  0
    3.1106   18.4911   -2.4759 H   0  0  0  0  0  0  0  0  0  0  0  0
    2.6265   17.1935   -3.6198 H   0  0  0  0  0  0  0  0  0  0  0  0
    1.7526   18.7629   -3.6198 H   0  0  0  0  0  0  0  0  0  0  0  0
    0.4366   18.1767   -1.8858 H   0  0  0  0  0  0  0  0  0  0  0  0
    1.4956   16.4858   -0.0435 H   0  0  0  0  0  0  0  0  0  0  0  0
    2.9977   17.3030   -0.6908 H   0  0  0  0  0  0  0  0  0  0  0  0
    1.2816   18.2586    1.3118 H   0  0  0  0  0  0  0  0  0  0  0  0
    2.5915   19.1523    0.4322 H   0  0  0  0  0  0  0  0  0  0  0  0
    1.3023   19.7362   -1.1200 H   0  0  0  0  0  0  0  0  0  0  0  0
   -1.3586   18.2081    1.5764 H   0  0  0  0  0  0  0  0  0  0  0  0
   -2.4794   17.9315    0.2002 H   0  0  0  0  0  0  0  0  0  0  0  0
   -0.8521   17.1708    0.2002 H   0  0  0  0  0  0  0  0  0  0  0  0
   -2.5299   20.4966   -0.7170 H   0  0  0  0  0  0  0  0  0  0  0  0
   -1.1452   20.5890   -1.8575 H   0  0  0  0  0  0  0  0  0  0  0  0
   -2.2140   19.1453   -1.8575 H   0  0  0  0  0  0  0  0  0  0  0  0
   -0.2394   16.1315   -1.9488 H   0  0  0  0  0  0  0  0  0  0  0  0
   -0.1839   16.1662   -4.3623 H   0  0  0  0  0  0  0  0  0  0  0  0
    1.5427   16.5852   -4.3934 H   0  0  0  0  0  0  0  0  0  0  0  0
    0.4505   14.0023   -4.9416 H   0  0  0  0  0  0  0  0  0  0  0  0
    2.1535   14.3033   -4.6078 H   0  0  0  0  0  0  0  0  0  0  0  0
   -0.8401   13.4492   -1.6281 H   0  0  0  0  0  0  0  0  0  0  0  0
   -1.1156   14.3146   -3.1779 H   0  0  0  0  0  0  0  0  0  0  0  0
   -0.8303   12.5411   -3.1779 H   0  0  0  0  0  0  0  0  0  0  0  0
    2.8043   12.7312   -2.8829 H   0  0  0  0  0  0  0  0  0  0  0  0
    1.0947   11.7065   -4.5154 H   0  0  0  0  0  0  0  0  0  0  0  0
    2.3359   10.6569   -3.6509 H   0  0  0  0  0  0  0  0  0  0  0  0
   -0.1035    9.6780   -3.8165 H   0  0  0  0  0  0  0  0  0  0  0  0
   -0.1733   11.8923   -0.4405 H   0  0  0  0  0  0  0  0  0  0  0  0
    1.5522    9.4454    0.2838 H   0  0  0  0  0  0  0  0  0  0  0  0
    1.1326   10.8461    1.3668 H   0  0  0  0  0  0  0  0  0  0  0  0
   -0.2276    8.8394    1.8625 H   0  0  0  0  0  0  0  0  0  0  0  0
   -1.2172   10.2397    1.2917 H   0  0  0  0  0  0  0  0  0  0  0  0
   -2.0228    8.2424    0.2309 H   0  0  0  0  0  0  0  0  0  0  0  0
   -0.4120    7.1570   -1.2410 H   0  0  0  0  0  0  0  0  0  0  0  0
   -2.6936   10.5175   -0.1136 H   0  0  0  0  0  0  0  0  0  0  0  0
   -2.3090   11.3600   -1.6528 H   0  0  0  0  0  0  0  0  0  0  0  0
   -3.4312    9.9575   -1.6528 H   0  0  0  0  0  0  0  0  0  0  0  0
   -2.1844    7.5163   -2.0326 H   0  0  0  0  0  0  0  0  0  0  0  0
   -2.5587    8.8823   -3.1374 H   0  0  0  0  0  0  0  0  0  0  0  0
   -0.9181    8.1508   -3.1374 H   0  0  0  0  0  0  0  0  0  0  0  0
    3.3395   10.8900    0.0938 H   0  0  0  0  0  0  0  0  0  0  0  0
    2.9352   10.0769   -1.4561 H   0  0  0  0  0  0  0  0  0  0  0  0
    3.9631   11.5500   -1.4561 H   0  0  0  0  0  0  0  0  0  0  0  0
    1.6703   12.7916    0.8891 H   0  0  0  0  0  0  0  0  0  0  0  0
    3.0927   13.3835   -0.1408 H   0  0  0  0  0  0  0  0  0  0  0  0
    0.2053   14.2954   -0.2781 H   0  0  0  0  0  0  0  0  0  0  0  0
    1.6623   15.2349    0.2336 H   0  0  0  0  0  0  0  0  0  0  0  0
    3.5332   15.2183   -1.0478 H   0  0  0  0  0  0  0  0  0  0  0  0
    3.5359   14.3063   -2.5953 H   0  0  0  0  0  0  0  0  0  0  0  0
    3.2178   16.0742   -2.5953 H   0  0  0  0  0  0  0  0  0  0  0  0
  1  2  1  0
  2  3  1  0
  3  4  1  0
  4  5  1  0
  5  6  1  0
  6  7  1  0
  7  8  1  0
  7  9  1  0
  2 10  1  0
 10 11  1  0
 11 12  1  0
 12 13  1  0
 13 14  1  1
 13 15  1  0
 15 16  1  0
 16 17  1  0
 17 18  2  0
 18 19  1  0
 19 20  1  0
 20 21  1  0
 21 22  1  0
 22 23  1  0
 22 24  1  0
 24 25  1  0
 24 26  1  0
 19 27  1  0
 27 28  1  6
 27 29  1  0
 29 30  1  0
 30 31  1  0
 31 32  1  1
  7  5  1  0
 31 10  1  0
 31 13  1  0
 27 15  1  0
 24 18  1  0
  1 33  1  0
  1 34  1  0
  1 35  1  0
  2 36  1  1
  3 37  1  0
  3 38  1  0
  4 39  1  0
  4 40  1  0
  5 41  1  6
  8 42  1  0
  8 43  1  0
  8 44  1  0
  9 45  1  0
  9 46  1  0
  9 47  1  0
 10 48  1  1
 11 49  1  0
 11 50  1  0
 12 51  1  0
 12 52  1  0
 14 53  1  0
 14 54  1  0
 14 55  1  0
 15 56  1  6
 16 57  1  0
 16 58  1  0
 17 59  1  0
 19 60  1  1
 20 61  1  0
 20 62  1  0
 21 63  1  0
 21 64  1  0
 22 65  1  1
 23 66  1  0
 25 67  1  0
 25 68  1  0
 25 69  1  0
 26 70  1  0
 26 71  1  0
 26 72  1  0
 28 73  1  0
 28 74  1  0
 28 75  1  0
 29 76  1  0
 29 77  1  0
 30 78  1  0
 30 79  1  0
 32 80  1  0
 32 81  1  0
 32 82  1  0
M  END
>  <meeko>  (6) 
{"is_sidechain": [false], "intermolecular_energy": 2.731, "internal_energy": -0.839}

$$$$
EPH_relaxed_0001_pdb2pqr_Repair_229_r2_0001_out
     RDKit          3D

 82 86  0  0  0  0  0  0  0  0999 V2000
   -5.0770    5.9420   -1.8450 C   0  0  0  0  0  0  0  0  0  0  0  0
   -5.4220    7.4340   -1.8450 C   0  0  2  0  0  0  0  0  0  0  0  0
   -5.2120    8.0790   -0.4610 C   0  0  0  0  0  0  0  0  0  0  0  0
   -4.1270    9.1600   -0.4430 C   0  0  0  0  0  0  0  0  0  0  0  0
   -2.7860    8.6040   -0.8130 C   0  0  2  0  0  0  0  0  0  0  0  0
   -1.7370    8.9000    0.1190 O   0  0  0  0  0  0  0  0  0  0  0  0
   -1.5980    9.4690   -1.1940 C   0  0  0  0  0  0  0  0  0  0  0  0
   -1.6980   10.9620   -1.2240 C   0  0  0  0  0  0  0  0  0  0  0  0
   -0.4970    8.8560   -2.0020 C   0  0  0  0  0  0  0  0  0  0  0  0
   -6.8620    7.6340   -2.3010 C   0  0  1  0  0  0  0  0  0  0  0  0
   -7.1650    6.9330   -3.6520 C   0  0  0  0  0  0  0  0  0  0  0  0
   -8.6310    6.4340   -3.5780 C   0  0  0  0  0  0  0  0  0  0  0  0
   -9.2230    7.1450   -2.3390 C   0  0  1  0  0  0  0  0  0  0  0  0
   -9.6030    8.5730   -2.8400 C   0  0  0  0  0  0  0  0  0  0  0  0
  -10.4330    6.4350   -1.6480 C   0  0  2  0  0  0  0  0  0  0  0  0
  -11.6890    6.2870   -2.5240 C   0  0  0  0  0  0  0  0  0  0  0  0
  -12.6640    7.4150   -2.4370 C   0  0  0  0  0  0  0  0  0  0  0  0
  -12.6790    8.3630   -1.4830 C   0  0  0  0  0  0  0  0  0  0  0  0
  -11.7060    8.3040   -0.2980 C   0  0  1  0  0  0  0  0  0  0  0  0
  -12.4800    8.5700    1.0210 C   0  0  0  0  0  0  0  0  0  0  0  0
  -13.2730    9.8720    0.9810 C   0  0  0  0  0  0  0  0  0  0  0  0
  -14.2700    9.8690   -0.1750 C   0  0  2  0  0  0  0  0  0  0  0  0
  -15.2680    8.8760    0.0800 O   0  0  0  0  0  0  0  0  0  0  0  0
  -13.6060    9.6010   -1.5550 C   0  0  0  0  0  0  0  0  0  0  0  0
  -12.7520   10.8250   -1.9680 C   0  0  0  0  0  0  0  0  0  0  0  0
  -14.7360    9.4840   -2.6130 C   0  0  0  0  0  0  0  0  0  0  0  0
  -10.7900    7.0090   -0.2170 C   0  0  1  0  0  0  0  0  0  0  0  0
  -11.5400    5.8730    0.5440 C   0  0  0  0  0  0  0  0  0  0  0  0
   -9.5060    7.3390    0.6320 C   0  0  0  0  0  0  0  0  0  0  0  0
   -8.3020    7.9270   -0.1290 C   0  0  0  0  0  0  0  0  0  0  0  0
   -7.9820    7.0970   -1.3750 C   0  0  2  0  0  0  0  0  0  0  0  0
   -7.5750    5.6600   -0.9010 C   0  0  0  0  0  0  0  0  0  0  0  0
   -4.9944    5.5848   -0.8079 H   0  0  0  0  0  0  0  0  0  0  0  0
   -5.8694    5.3824   -2.3635 H   0  0  0  0  0  0  0  0  0  0  0  0
   -4.1193    5.7871   -2.3635 H   0  0  0  0  0  0  0  0  0  0  0  0
   -4.7374    7.9321   -2.5473 H   0  0  0  0  0  0  0  0  0  0  0  0
   -6.1613    8.5346   -0.1427 H   0  0  0  0  0  0  0  0  0  0  0  0
   -4.8807    7.2801    0.2187 H   0  0  0  0  0  0  0  0  0  0  0  0
   -4.3968    9.9482   -1.1613 H   0  0  0  0  0  0  0  0  0  0  0  0
   -4.0614    9.5636    0.5782 H   0  0  0  0  0  0  0  0  0  0  0  0
   -3.2539    7.7365   -1.3014 H   0  0  0  0  0  0  0  0  0  0  0  0
   -1.7239   11.3485   -0.1945 H   0  0  0  0  0  0  0  0  0  0  0  0
   -0.8257   11.3774   -1.7498 H   0  0  0  0  0  0  0  0  0  0  0  0
   -2.6179   11.2574   -1.7498 H   0  0  0  0  0  0  0  0  0  0  0  0
    0.2618    8.4335   -1.3269 H   0  0  0  0  0  0  0  0  0  0  0  0
   -0.9088    8.0573   -2.6364 H   0  0  0  0  0  0  0  0  0  0  0  0
   -0.0350    9.6267   -2.6364 H   0  0  0  0  0  0  0  0  0  0  0  0
   -6.8938    8.7331   -2.3323 H   0  0  0  0  0  0  0  0  0  0  0  0
   -7.0486    7.6448   -4.4826 H   0  0  0  0  0  0  0  0  0  0  0  0
   -6.4717    6.0973   -3.8276 H   0  0  0  0  0  0  0  0  0  0  0  0
   -9.1830    6.7143   -4.4872 H   0  0  0  0  0  0  0  0  0  0  0  0
   -8.6954    5.3386   -3.5008 H   0  0  0  0  0  0  0  0  0  0  0  0
   -9.7779    9.2304   -1.9756 H   0  0  0  0  0  0  0  0  0  0  0  0
   -8.7815    8.9786   -3.4488 H   0  0  0  0  0  0  0  0  0  0  0  0
  -10.5174    8.5167   -3.4488 H   0  0  0  0  0  0  0  0  0  0  0  0
  -10.0528    5.4140   -1.4963 H   0  0  0  0  0  0  0  0  0  0  0  0
  -11.3644    6.1983   -3.5713 H   0  0  0  0  0  0  0  0  0  0  0  0
  -12.2179    5.3980   -2.1499 H   0  0  0  0  0  0  0  0  0  0  0  0
  -13.4350    7.4756   -3.2192 H   0  0  0  0  0  0  0  0  0  0  0  0
  -10.9709    9.1045   -0.4678 H   0  0  0  0  0  0  0  0  0  0  0  0
  -13.1776    7.7374    1.1946 H   0  0  0  0  0  0  0  0  0  0  0  0
  -11.7406    8.6540    1.8310 H   0  0  0  0  0  0  0  0  0  0  0  0
  -13.8203    9.9893    1.9279 H   0  0  0  0  0  0  0  0  0  0  0  0
  -12.5707   10.7062    0.8364 H   0  0  0  0  0  0  0  0  0  0  0  0
  -14.7147   10.8736   -0.2306 H   0  0  0  0  0  0  0  0  0  0  0  0
  -15.2050    8.6300    1.0180 H   0  0  0  0  0  0  0  0  0  0  0  0
  -12.3915   11.3416   -1.0663 H   0  0  0  0  0  0  0  0  0  0  0  0
  -11.8923   10.4875   -2.5656 H   0  0  0  0  0  0  0  0  0  0  0  0
  -13.3655   11.5153   -2.5656 H   0  0  0  0  0  0  0  0  0  0  0  0
  -15.7059    9.3836   -2.1040 H   0  0  0  0  0  0  0  0  0  0  0  0
  -14.7439   10.3861   -3.2424 H   0  0  0  0  0  0  0  0  0  0  0  0
  -14.5589    8.5994   -3.2424 H   0  0  0  0  0  0  0  0  0  0  0  0
  -11.4375    6.0282    1.6282 H   0  0  0  0  0  0  0  0  0  0  0  0
  -12.6053    5.8896    0.2703 H   0  0  0  0  0  0  0  0  0  0  0  0
  -11.1062    4.8999    0.2703 H   0  0  0  0  0  0  0  0  0  0  0  0
   -9.7965    8.0641    1.4065 H   0  0  0  0  0  0  0  0  0  0  0  0
   -9.1578    6.3688    1.0161 H   0  0  0  0  0  0  0  0  0  0  0  0
   -8.5375    8.9573   -0.4338 H   0  0  0  0  0  0  0  0  0  0  0  0
   -7.4260    7.9126    0.5362 H   0  0  0  0  0  0  0  0  0  0  0  0
   -7.5653    5.6256    0.1984 H   0  0  0  0  0  0  0  0  0  0  0  0
   -8.3012    4.9281   -1.2843 H   0  0  0  0  0  0  0  0  0  0  0  0
   -6.5729    5.4176   -1.2843 H   0  0  0  0  0  0  0  0  0  0  0  0
  1  2  1  0
  2  3  1  0
  3  4  1  0
  4  5  1  0
  5  6  1  0
  6  7  1  0
  7  8  1  0
  7  9  1  0
  2 10  1  0
 10 11  1  0
 11 12  1  0
 12 13  1  0
 13 14  1  6
 13 15  1  0
 15 16  1  0
 16 17  1  0
 17 18  2  0
 18 19  1  0
 19 20  1  0
 20 21  1  0
 21 22  1  0
 22 23  1  0
 22 24  1  0
 24 25  1  0
 24 26  1  0
 19 27  1  0
 27 28  1  1
 27 29  1  0
 29 30  1  0
 30 31  1  0
 31 32  1  1
  7  5  1  0
 31 10  1  0
 31 13  1  0
 27 15  1  0
 24 18  1  0
  1 33  1  0
  1 34  1  0
  1 35  1  0
  2 36  1  6
  3 37  1  0
  3 38  1  0
  4 39  1  0
  4 40  1  0
  5 41  1  6
  8 42  1  0
  8 43  1  0
  8 44  1  0
  9 45  1  0
  9 46  1  0
  9 47  1  0
 10 48  1  6
 11 49  1  0
 11 50  1  0
 12 51  1  0
 12 52  1  0
 14 53  1  0
 14 54  1  0
 14 55  1  0
 15 56  1  1
 16 57  1  0
 16 58  1  0
 17 59  1  0
 19 60  1  6
 20 61  1  0
 20 62  1  0
 21 63  1  0
 21 64  1  0
 22 65  1  6
 23 66  1  0
 25 67  1  0
 25 68  1  0
 25 69  1  0
 26 70  1  0
 26 71  1  0
 26 72  1  0
 28 73  1  0
 28 74  1  0
 28 75  1  0
 29 76  1  0
 29 77  1  0
 30 78  1  0
 30 79  1  0
 32 80  1  0
 32 81  1  0
 32 82  1  0
M  END
>  <meeko>  (7) 
{"is_sidechain": [false], "intermolecular_energy": 2.731, "internal_energy": -0.839}

$$$$
EPH_relaxed_0001_pdb2pqr_Repair_229_r2_0001_out
     RDKit          3D

 82 86  0  0  0  0  0  0  0  0999 V2000
    4.0990   17.3080    0.0560 C   0  0  0  0  0  0  0  0  0  0  0  0
    2.9900   17.6230   -0.9520 C   0  0  2  0  0  0  0  0  0  0  0  0
    2.4130   19.0400   -0.7570 C   0  0  0  0  0  0  0  0  0  0  0  0
    1.5950   19.2000    0.5270 C   0  0  0  0  0  0  0  0  0  0  0  0
    0.3570   20.0120    0.2980 C   0  0  2  0  0  0  0  0  0  0  0  0
   -0.4630   20.1940    1.4590 O   0  0  0  0  0  0  0  0  0  0  0  0
   -1.0460   19.4410    0.3830 C   0  0  0  0  0  0  0  0  0  0  0  0
   -1.2830   17.9990    0.7080 C   0  0  0  0  0  0  0  0  0  0  0  0
   -2.1550   20.1580   -0.3230 C   0  0  0  0  0  0  0  0  0  0  0  0
    1.8770   16.5880   -0.8420 C   0  0  1  0  0  0  0  0  0  0  0  0
    0.5000   17.1400   -1.2970 C   0  0  0  0  0  0  0  0  0  0  0  0
   -0.2510   15.9660   -1.9740 C   0  0  0  0  0  0  0  0  0  0  0  0
    0.5670   14.7090   -1.5960 C   0  0  1  0  0  0  0  0  0  0  0  0
    0.0970   14.3430   -0.1530 C   0  0  0  0  0  0  0  0  0  0  0  0
    0.4500   13.4900   -2.5680 C   0  0  2  0  0  0  0  0  0  0  0  0
   -0.9610   12.8880   -2.6920 C   0  0  0  0  0  0  0  0  0  0  0  0
   -1.2740   11.7910   -1.7290 C   0  0  0  0  0  0  0  0  0  0  0  0
   -0.3710   11.1150   -0.9930 C   0  0  0  0  0  0  0  0  0  0  0  0
    1.1320   11.3660   -1.1650 C   0  0  1  0  0  0  0  0  0  0  0  0
    1.8770   10.0080   -1.2580 C   0  0  0  0  0  0  0  0  0  0  0  0
    1.5700    9.0910   -0.0780 C   0  0  0  0  0  0  0  0  0  0  0  0
    0.0710    8.8180    0.0250 C   0  0  2  0  0  0  0  0  0  0  0  0
   -0.3360    8.0500   -1.1120 O   0  0  0  0  0  0  0  0  0  0  0  0
   -0.7830   10.1140    0.1140 C   0  0  0  0  0  0  0  0  0  0  0  0
   -0.5600   10.7900    1.4890 C   0  0  0  0  0  0  0  0  0  0  0  0
   -2.2800    9.7030    0.0700 C   0  0  0  0  0  0  0  0  0  0  0  0
    1.5390   12.3660   -2.3320 C   0  0  1  0  0  0  0  0  0  0  0  0
    1.6750   11.5880   -3.6760 C   0  0  0  0  0  0  0  0  0  0  0  0
    2.9610   12.9670   -2.0210 C   0  0  0  0  0  0  0  0  0  0  0  0
    3.0030   14.2400   -1.1550 C   0  0  0  0  0  0  0  0  0  0  0  0
    2.0240   15.2940   -1.6810 C   0  0  2  0  0  0  0  0  0  0  0  0
    2.4850   15.6980   -3.1230 C   0  0  0  0  0  0  0  0  0  0  0  0
    3.7079   17.4191    1.0781 H   0  0  0  0  0  0  0  0  0  0  0  0
    4.4475   16.2754   -0.0930 H   0  0  0  0  0  0  0  0  0  0  0  0
    4.9383   18.0033   -0.0930 H   0  0  0  0  0  0  0  0  0  0  0  0
    3.4360   17.5833   -1.9568 H   0  0  0  0  0  0  0  0  0  0  0  0
    3.2490   19.7543   -0.7275 H   0  0  0  0  0  0  0  0  0  0  0  0
    1.7301   19.2277   -1.5987 H   0  0  0  0  0  0  0  0  0  0  0  0
    1.3053   18.2034    0.8916 H   0  0  0  0  0  0  0  0  0  0  0  0
    2.2173   19.7249    1.2667 H   0  0  0  0  0  0  0  0  0  0  0  0
    0.8643   20.6106   -0.4729 H   0  0  0  0  0  0  0  0  0  0  0  0
   -1.3045   17.8680    1.8000 H   0  0  0  0  0  0  0  0  0  0  0  0
   -2.2456   17.6804    0.2814 H   0  0  0  0  0  0  0  0  0  0  0  0
   -0.4731   17.3891    0.2814 H   0  0  0  0  0  0  0  0  0  0  0  0
   -2.8372   20.5990    0.4187 H   0  0  0  0  0  0  0  0  0  0  0  0
   -1.7336   20.9551   -0.9532 H   0  0  0  0  0  0  0  0  0  0  0  0
   -2.7089   19.4466   -0.9532 H   0  0  0  0  0  0  0  0  0  0  0  0
    1.9504   16.3520    0.2299 H   0  0  0  0  0  0  0  0  0  0  0  0
   -0.0687   17.5025   -0.4279 H   0  0  0  0  0  0  0  0  0  0  0  0
    0.6229   17.9834   -1.9924 H   0  0  0  0  0  0  0  0  0  0  0  0
   -1.2791   15.8900   -1.5903 H   0  0  0  0  0  0  0  0  0  0  0  0
   -0.3345   16.0972   -3.0630 H   0  0  0  0  0  0  0  0  0  0  0  0
    0.7430   14.8460    0.5817 H   0  0  0  0  0  0  0  0  0  0  0  0
   -0.9434   14.6712   -0.0119 H   0  0  0  0  0  0  0  0  0  0  0  0
    0.1603   13.2539   -0.0119 H   0  0  0  0  0  0  0  0  0  0  0  0
    0.6679   13.9454   -3.5453 H   0  0  0  0  0  0  0  0  0  0  0  0
   -1.6903   13.6964   -2.5349 H   0  0  0  0  0  0  0  0  0  0  0  0
   -1.0119   12.4367   -3.6939 H   0  0  0  0  0  0  0  0  0  0  0  0
   -2.3312   11.5112   -1.6106 H   0  0  0  0  0  0  0  0  0  0  0  0
    1.4546   11.9078   -0.2637 H   0  0  0  0  0  0  0  0  0  0  0  0
    1.5734    9.5020   -2.1863 H   0  0  0  0  0  0  0  0  0  0  0  0
    2.9568   10.2177   -1.2461 H   0  0  0  0  0  0  0  0  0  0  0  0
    2.1010    8.1375   -0.2153 H   0  0  0  0  0  0  0  0  0  0  0  0
    1.9013    9.5858    0.8469 H   0  0  0  0  0  0  0  0  0  0  0  0
   -0.1009    8.2650    0.9602 H   0  0  0  0  0  0  0  0  0  0  0  0
    0.3840    8.0850   -1.7640 H   0  0  0  0  0  0  0  0  0  0  0  0
   -0.7957   10.0755    2.2914 H   0  0  0  0  0  0  0  0  0  0  0  0
    0.4900   11.1060    1.5762 H   0  0  0  0  0  0  0  0  0  0  0  0
   -1.2159   11.6688    1.5762 H   0  0  0  0  0  0  0  0  0  0  0  0
   -2.6618    9.5982    1.0963 H   0  0  0  0  0  0  0  0  0  0  0  0
   -2.8571   10.4759   -0.4587 H   0  0  0  0  0  0  0  0  0  0  0  0
   -2.3815    8.7438   -0.4587 H   0  0  0  0  0  0  0  0  0  0  0  0
    1.8610   10.5242   -3.4667 H   0  0  0  0  0  0  0  0  0  0  0  0
    0.7453   11.6907   -4.2548 H   0  0  0  0  0  0  0  0  0  0  0  0
    2.5147   12.0001   -4.2548 H   0  0  0  0  0  0  0  0  0  0  0  0
    3.5435   12.1918   -1.5015 H   0  0  0  0  0  0  0  0  0  0  0  0
    3.3651   13.2703   -2.9981 H   0  0  0  0  0  0  0  0  0  0  0  0
    2.7313   13.9809   -0.1211 H   0  0  0  0  0  0  0  0  0  0  0  0
    4.0204   14.6565   -1.1932 H   0  0  0  0  0  0  0  0  0  0  0  0
    3.3107   16.4216   -3.0547 H   0  0  0  0  0  0  0  0  0  0  0  0
    2.8259   14.8025   -3.6633 H   0  0  0  0  0  0  0  0  0  0  0  0
    1.6420   16.1535   -3.6633 H   0  0  0  0  0  0  0  0  0  0  0  0
  1  2  1  0
  2  3  1  0
  3  4  1  0
  4  5  1  0
  5  6  1  0
  6  7  1  0
  7  8  1  0
  7  9  1  0
  2 10  1  0
 10 11  1  0
 11 12  1  0
 12 13  1  0
 13 14  1  1
 13 15  1  0
 15 16  1  0
 16 17  1  0
 17 18  2  0
 18 19  1  0
 19 20  1  0
 20 21  1  0
 21 22  1  0
 22 23  1  0
 22 24  1  0
 24 25  1  0
 24 26  1  0
 19 27  1  0
 27 28  1  6
 27 29  1  0
 29 30  1  0
 30 31  1  0
 31 32  1  6
  7  5  1  0
 31 10  1  0
 31 13  1  0
 27 15  1  0
 24 18  1  0
  1 33  1  0
  1 34  1  0
  1 35  1  0
  2 36  1  6
  3 37  1  0
  3 38  1  0
  4 39  1  0
  4 40  1  0
  5 41  1  6
  8 42  1  0
  8 43  1  0
  8 44  1  0
  9 45  1  0
  9 46  1  0
  9 47  1  0
 10 48  1  1
 11 49  1  0
 11 50  1  0
 12 51  1  0
 12 52  1  0
 14 53  1  0
 14 54  1  0
 14 55  1  0
 15 56  1  6
 16 57  1  0
 16 58  1  0
 17 59  1  0
 19 60  1  1
 20 61  1  0
 20 62  1  0
 21 63  1  0
 21 64  1  0
 22 65  1  1
 23 66  1  0
 25 67  1  0
 25 68  1  0
 25 69  1  0
 26 70  1  0
 26 71  1  0
 26 72  1  0
 28 73  1  0
 28 74  1  0
 28 75  1  0
 29 76  1  0
 29 77  1  0
 30 78  1  0
 30 79  1  0
 32 80  1  0
 32 81  1  0
 32 82  1  0
M  END
>  <meeko>  (8) 
{"is_sidechain": [false], "intermolecular_energy": 2.731, "internal_energy": -0.839}

$$$$
EPH_relaxed_0001_pdb2pqr_Repair_229_r2_0001_out
     RDKit          3D

 82 86  0  0  0  0  0  0  0  0999 V2000
    0.4210    8.8670   -2.5260 C   0  0  0  0  0  0  0  0  0  0  0  0
    1.1770   10.0310   -3.1730 C   0  0  2  0  0  0  0  0  0  0  0  0
    2.6710   10.0360   -2.7920 C   0  0  0  0  0  0  0  0  0  0  0  0
    3.5820   10.6130   -3.8790 C   0  0  0  0  0  0  0  0  0  0  0  0
    4.9740   10.8430   -3.3710 C   0  0  2  0  0  0  0  0  0  0  0  0
    5.5930   12.0460   -3.8470 O   0  0  0  0  0  0  0  0  0  0  0  0
    6.2030   10.8120   -4.2590 C   0  0  0  0  0  0  0  0  0  0  0  0
    6.0990   10.5430   -5.7280 C   0  0  0  0  0  0  0  0  0  0  0  0
    7.5360   10.5580   -3.6270 C   0  0  0  0  0  0  0  0  0  0  0  0
    0.5340   11.3540   -2.7760 C   0  0  1  0  0  0  0  0  0  0  0  0
   -0.8350   11.1650   -2.0700 C   0  0  0  0  0  0  0  0  0  0  0  0
   -0.9470   12.2850   -1.0050 C   0  0  0  0  0  0  0  0  0  0  0  0
    0.1930   13.2710   -1.3530 C   0  0  1  0  0  0  0  0  0  0  0  0
   -0.3740   14.1450   -2.5150 C   0  0  0  0  0  0  0  0  0  0  0  0
    0.7300   14.1500   -0.1770 C   0  0  2  0  0  0  0  0  0  0  0  0
   -0.3010   15.1100    0.4430 C   0  0  0  0  0  0  0  0  0  0  0  0
   -0.3590   16.4680   -0.1750 C   0  0  0  0  0  0  0  0  0  0  0  0
    0.5710   16.9970   -0.9910 C   0  0  0  0  0  0  0  0  0  0  0  0
    1.8740   16.2450   -1.2910 C   0  0  1  0  0  0  0  0  0  0  0  0
    3.0760   17.2170   -1.1560 C   0  0  0  0  0  0  0  0  0  0  0  0
    2.9140   18.4700   -2.0120 C   0  0  0  0  0  0  0  0  0  0  0  0
    1.6370   19.2210   -1.6440 C   0  0  2  0  0  0  0  0  0  0  0  0
    1.7730   19.7380   -0.3170 O   0  0  0  0  0  0  0  0  0  0  0  0
    0.3600   18.3390   -1.7340 C   0  0  0  0  0  0  0  0  0  0  0  0
    0.0450   18.0290   -3.2180 C   0  0  0  0  0  0  0  0  0  0  0  0
   -0.8350   19.1750   -1.2020 C   0  0  0  0  0  0  0  0  0  0  0  0
    2.0930   14.8900   -0.4900 C   0  0  1  0  0  0  0  0  0  0  0  0
    2.7650   15.1870    0.8850 C   0  0  0  0  0  0  0  0  0  0  0  0
    3.0990   13.9780   -1.2880 C   0  0  0  0  0  0  0  0  0  0  0  0
    2.4940   13.0440   -2.3540 C   0  0  0  0  0  0  0  0  0  0  0  0
    1.3120   12.2540   -1.7840 C   0  0  2  0  0  0  0  0  0  0  0  0
    1.8560   11.3480   -0.6270 C   0  0  0  0  0  0  0  0  0  0  0  0
    0.4787    8.9558   -1.4311 H   0  0  0  0  0  0  0  0  0  0  0  0
   -0.6326    8.8938   -2.8411 H   0  0  0  0  0  0  0  0  0  0  0  0
    0.8739    7.9153   -2.8411 H   0  0  0  0  0  0  0  0  0  0  0  0
    1.1145    9.9003   -4.2634 H   0  0  0  0  0  0  0  0  0  0  0  0
    2.7946   10.6381   -1.8797 H   0  0  0  0  0  0  0  0  0  0  0  0
    2.9689    8.9872   -2.6466 H   0  0  0  0  0  0  0  0  0  0  0  0
    3.6221    9.9076   -4.7221 H   0  0  0  0  0  0  0  0  0  0  0  0
    3.1678   11.5817   -4.1952 H   0  0  0  0  0  0  0  0  0  0  0  0
    4.7369   10.3405   -2.4217 H   0  0  0  0  0  0  0  0  0  0  0  0
    5.7066    9.5279   -5.8880 H   0  0  0  0  0  0  0  0  0  0  0  0
    5.4193   11.2756   -6.1877 H   0  0  0  0  0  0  0  0  0  0  0  0
    7.0947   10.6278   -6.1877 H   0  0  0  0  0  0  0  0  0  0  0  0
    7.4324   10.5777   -2.5321 H   0  0  0  0  0  0  0  0  0  0  0  0
    7.9095    9.5725   -3.9423 H   0  0  0  0  0  0  0  0  0  0  0  0
    8.2457   11.3371   -3.9423 H   0  0  0  0  0  0  0  0  0  0  0  0
    0.4842   11.8376   -3.7628 H   0  0  0  0  0  0  0  0  0  0  0  0
   -1.6531   11.2533   -2.8000 H   0  0  0  0  0  0  0  0  0  0  0  0
   -0.9062   10.1702   -1.6060 H   0  0  0  0  0  0  0  0  0  0  0  0
   -1.9250   12.7844   -1.0683 H   0  0  0  0  0  0  0  0  0  0  0  0
   -0.8626   11.8953    0.0202 H   0  0  0  0  0  0  0  0  0  0  0  0
   -0.9275   14.9981   -2.0957 H   0  0  0  0  0  0  0  0  0  0  0  0
    0.4564   14.5153   -3.1342 H   0  0  0  0  0  0  0  0  0  0  0  0
   -1.0506   13.5376   -3.1342 H   0  0  0  0  0  0  0  0  0  0  0  0
    0.9452   13.4001    0.5985 H   0  0  0  0  0  0  0  0  0  0  0  0
   -1.2954   14.6497    0.3464 H   0  0  0  0  0  0  0  0  0  0  0  0
    0.0137   15.2630    1.4859 H   0  0  0  0  0  0  0  0  0  0  0  0
   -1.2369   17.0890    0.0565 H   0  0  0  0  0  0  0  0  0  0  0  0
    1.7907   15.8960   -2.3308 H   0  0  0  0  0  0  0  0  0  0  0  0
    3.1685   17.5192   -0.1024 H   0  0  0  0  0  0  0  0  0  0  0  0
    3.9746   16.6875   -1.5056 H   0  0  0  0  0  0  0  0  0  0  0  0
    3.7790   19.1302   -1.8510 H   0  0  0  0  0  0  0  0  0  0  0  0
    2.8517   18.1681   -3.0679 H   0  0  0  0  0  0  0  0  0  0  0  0
    1.5088   20.0328   -2.3751 H   0  0  0  0  0  0  0  0  0  0  0  0
    2.1240   20.6410   -0.3870 H   0  0  0  0  0  0  0  0  0  0  0  0
   -0.7380   17.2584   -3.2734 H   0  0  0  0  0  0  0  0  0  0  0  0
   -0.3054   18.9443   -3.7174 H   0  0  0  0  0  0  0  0  0  0  0  0
    0.9546   17.6640   -3.7174 H   0  0  0  0  0  0  0  0  0  0  0  0
   -0.8260   19.1687   -0.1021 H   0  0  0  0  0  0  0  0  0  0  0  0
   -0.7480   20.2103   -1.5635 H   0  0  0  0  0  0  0  0  0  0  0  0
   -1.7777   18.7384   -1.5635 H   0  0  0  0  0  0  0  0  0  0  0  0
    2.0864   14.8871    1.6971 H   0  0  0  0  0  0  0  0  0  0  0  0
    3.7044   14.6202    0.9640 H   0  0  0  0  0  0  0  0  0  0  0  0
    2.9783   16.2632    0.9640 H   0  0  0  0  0  0  0  0  0  0  0  0
    3.8179   14.6391   -1.7941 H   0  0  0  0  0  0  0  0  0  0  0  0
    3.5399   13.3082   -0.5350 H   0  0  0  0  0  0  0  0  0  0  0  0
    2.1463   13.6474   -3.2055 H   0  0  0  0  0  0  0  0  0  0  0  0
    3.2683   12.3324   -2.6768 H   0  0  0  0  0  0  0  0  0  0  0  0
    1.5891   11.7925    0.3431 H   0  0  0  0  0  0  0  0  0  0  0  0
    1.4104   10.3454   -0.7060 H   0  0  0  0  0  0  0  0  0  0  0  0
    2.9504   11.2701   -0.7060 H   0  0  0  0  0  0  0  0  0  0  0  0
  1  2  1  0
  2  3  1  0
  3  4  1  0
  4  5  1  0
  5  6  1  0
  6  7  1  0
  7  8  1  0
  7  9  1  0
  2 10  1  0
 10 11  1  0
 11 12  1  0
 12 13  1  0
 13 14  1  6
 13 15  1  0
 15 16  1  0
 16 17  1  0
 17 18  2  0
 18 19  1  0
 19 20  1  0
 20 21  1  0
 21 22  1  0
 22 23  1  0
 22 24  1  0
 24 25  1  0
 24 26  1  0
 19 27  1  0
 27 28  1  1
 27 29  1  0
 29 30  1  0
 30 31  1  0
 31 32  1  1
  7  5  1  0
 31 10  1  0
 31 13  1  0
 27 15  1  0
 24 18  1  0
  1 33  1  0
  1 34  1  0
  1 35  1  0
  2 36  1  6
  3 37  1  0
  3 38  1  0
  4 39  1  0
  4 40  1  0
  5 41  1  1
  8 42  1  0
  8 43  1  0
  8 44  1  0
  9 45  1  0
  9 46  1  0
  9 47  1  0
 10 48  1  6
 11 49  1  0
 11 50  1  0
 12 51  1  0
 12 52  1  0
 14 53  1  0
 14 54  1  0
 14 55  1  0
 15 56  1  1
 16 57  1  0
 16 58  1  0
 17 59  1  0
 19 60  1  6
 20 61  1  0
 20 62  1  0
 21 63  1  0
 21 64  1  0
 22 65  1  6
 23 66  1  0
 25 67  1  0
 25 68  1  0
 25 69  1  0
 26 70  1  0
 26 71  1  0
 26 72  1  0
 28 73  1  0
 28 74  1  0
 28 75  1  0
 29 76  1  0
 29 77  1  0
 30 78  1  0
 30 79  1  0
 32 80  1  0
 32 81  1  0
 32 82  1  0
M  END
>  <meeko>  (9) 
{"is_sidechain": [false], "intermolecular_energy": 2.731, "internal_energy": -0.839}

$$$$
EPH_relaxed_0001_pdb2pqr_Repair_229_r2_0001_out
     RDKit          3D

 82 86  0  0  0  0  0  0  0  0999 V2000
    0.1680   17.8310   -2.4740 C   0  0  0  0  0  0  0  0  0  0  0  0
   -0.0680   16.9250   -1.2630 C   0  0  2  0  0  0  0  0  0  0  0  0
   -0.1130   17.7200    0.0580 C   0  0  0  0  0  0  0  0  0  0  0  0
    0.5130   19.1140   -0.0420 C   0  0  0  0  0  0  0  0  0  0  0  0
    1.6770   19.2660    0.8890 C   0  0  2  0  0  0  0  0  0  0  0  0
    2.6770   20.1940    0.4500 O   0  0  0  0  0  0  0  0  0  0  0  0
    3.0860   18.8210    0.5470 C   0  0  0  0  0  0  0  0  0  0  0  0
    3.4050   18.1870   -0.7710 C   0  0  0  0  0  0  0  0  0  0  0  0
    4.0440   18.5540    1.6660 C   0  0  0  0  0  0  0  0  0  0  0  0
    1.0180   15.8580   -1.1910 C   0  0  1  0  0  0  0  0  0  0  0  0
    1.2600   15.3470    0.2540 C   0  0  0  0  0  0  0  0  0  0  0  0
    1.6090   13.8400    0.1430 C   0  0  0  0  0  0  0  0  0  0  0  0
    1.8820   13.6130   -1.3620 C   0  0  1  0  0  0  0  0  0  0  0  0
    3.3500   14.0980   -1.5810 C   0  0  0  0  0  0  0  0  0  0  0  0
    1.6710   12.1570   -1.8910 C   0  0  2  0  0  0  0  0  0  0  0  0
    2.5940   11.0960   -1.2670 C   0  0  0  0  0  0  0  0  0  0  0  0
    3.8830   10.8700   -1.9860 C   0  0  0  0  0  0  0  0  0  0  0  0
    4.1630   11.2800   -3.2370 C   0  0  0  0  0  0  0  0  0  0  0  0
    3.0940   11.9650   -4.1000 C   0  0  1  0  0  0  0  0  0  0  0  0
    3.0970   11.3410   -5.5200 C   0  0  0  0  0  0  0  0  0  0  0  0
    4.4780   11.3710   -6.1690 C   0  0  0  0  0  0  0  0  0  0  0  0
    5.5000   10.6310   -5.3110 C   0  0  2  0  0  0  0  0  0  0  0  0
    5.1670    9.2390   -5.2950 O   0  0  0  0  0  0  0  0  0  0  0  0
    5.5790   11.1650   -3.8530 C   0  0  0  0  0  0  0  0  0  0  0  0
    6.2260   12.5720   -3.8500 C   0  0  0  0  0  0  0  0  0  0  0  0
    6.5410   10.2430   -3.0580 C   0  0  0  0  0  0  0  0  0  0  0  0
    1.6370   12.0390   -3.4690 C   0  0  1  0  0  0  0  0  0  0  0  0
    0.8470   10.7360   -3.8010 C   0  0  0  0  0  0  0  0  0  0  0  0
    0.8460   13.2220   -4.1410 C   0  0  0  0  0  0  0  0  0  0  0  0
    1.0020   14.6150   -3.5000 C   0  0  0  0  0  0  0  0  0  0  0  0
    0.7830   14.5490   -1.9850 C   0  0  2  0  0  0  0  0  0  0  0  0
   -0.6920   14.0850   -1.7340 C   0  0  0  0  0  0  0  0  0  0  0  0
    0.4314   18.8420   -2.1298 H   0  0  0  0  0  0  0  0  0  0  0  0
    0.9903   17.4246   -3.0812 H   0  0  0  0  0  0  0  0  0  0  0  0
   -0.7480   17.8774   -3.0812 H   0  0  0  0  0  0  0  0  0  0  0  0
   -1.0501   16.4474   -1.3950 H   0  0  0  0  0  0  0  0  0  0  0  0
   -1.1647   17.8322    0.3603 H   0  0  0  0  0  0  0  0  0  0  0  0
    0.4768   17.1544    0.7944 H   0  0  0  0  0  0  0  0  0  0  0  0
    0.8579   19.2769   -1.0737 H   0  0  0  0  0  0  0  0  0  0  0  0
   -0.2505   19.8541    0.2394 H   0  0  0  0  0  0  0  0  0  0  0  0
    1.0343   19.0749    1.7610 H   0  0  0  0  0  0  0  0  0  0  0  0
    3.8936   17.2160   -0.6021 H   0  0  0  0  0  0  0  0  0  0  0  0
    2.4756   18.0359   -1.3397 H   0  0  0  0  0  0  0  0  0  0  0  0
    4.0802   18.8432   -1.3397 H   0  0  0  0  0  0  0  0  0  0  0  0
    3.5319   18.6967    2.6290 H   0  0  0  0  0  0  0  0  0  0  0  0
    4.4109   17.5194    1.5956 H   0  0  0  0  0  0  0  0  0  0  0  0
    4.8931   19.2497    1.5956 H   0  0  0  0  0  0  0  0  0  0  0  0
    1.8559   16.4192   -1.6304 H   0  0  0  0  0  0  0  0  0  0  0  0
    2.0942   15.8960    0.7152 H   0  0  0  0  0  0  0  0  0  0  0  0
    0.3699   15.5011    0.8817 H   0  0  0  0  0  0  0  0  0  0  0  0
    2.5022   13.6032    0.7398 H   0  0  0  0  0  0  0  0  0  0  0  0
    0.8022   13.1958    0.5226 H   0  0  0  0  0  0  0  0  0  0  0  0
    3.8328   14.2575   -0.6056 H   0  0  0  0  0  0  0  0  0  0  0  0
    3.9074   13.3363   -2.1458 H   0  0  0  0  0  0  0  0  0  0  0  0
    3.3439   15.0419   -2.1458 H   0  0  0  0  0  0  0  0  0  0  0  0
    0.6587   11.9199   -1.5319 H   0  0  0  0  0  0  0  0  0  0  0  0
    2.8286   11.4114   -0.2396 H   0  0  0  0  0  0  0  0  0  0  0  0
    2.0444   10.1447   -1.3211 H   0  0  0  0  0  0  0  0  0  0  0  0
    4.6704   10.3220   -1.4477 H   0  0  0  0  0  0  0  0  0  0  0  0
    3.3826   13.0249   -4.1577 H   0  0  0  0  0  0  0  0  0  0  0  0
    2.7646   10.2950   -5.4463 H   0  0  0  0  0  0  0  0  0  0  0  0
    2.4194   11.9376   -6.1485 H   0  0  0  0  0  0  0  0  0  0  0  0
    4.4220   10.8905   -7.1569 H   0  0  0  0  0  0  0  0  0  0  0  0
    4.7964   12.4192   -6.2686 H   0  0  0  0  0  0  0  0  0  0  0  0
    6.4899   10.7984   -5.7605 H   0  0  0  0  0  0  0  0  0  0  0  0
    5.9420    8.7480   -5.6170 H   0  0  0  0  0  0  0  0  0  0  0  0
    6.3783   12.9033   -2.8122 H   0  0  0  0  0  0  0  0  0  0  0  0
    7.1956   12.5308   -4.3678 H   0  0  0  0  0  0  0  0  0  0  0  0
    5.5636   13.2813   -4.3678 H   0  0  0  0  0  0  0  0  0  0  0  0
    6.3847   10.3928   -1.9795 H   0  0  0  0  0  0  0  0  0  0  0  0
    6.3387    9.1929   -3.3154 H   0  0  0  0  0  0  0  0  0  0  0  0
    7.5816   10.4897   -3.3154 H   0  0  0  0  0  0  0  0  0  0  0  0
    0.5468   10.2409   -2.8657 H   0  0  0  0  0  0  0  0  0  0  0  0
   -0.0495   10.9897   -4.3857 H   0  0  0  0  0  0  0  0  0  0  0  0
    1.4865   10.0584   -4.3857 H   0  0  0  0  0  0  0  0  0  0  0  0
    1.1829   13.2967   -5.1855 H   0  0  0  0  0  0  0  0  0  0  0  0
   -0.2164   12.9652   -4.0165 H   0  0  0  0  0  0  0  0  0  0  0  0
    2.0156   14.9922   -3.7010 H   0  0  0  0  0  0  0  0  0  0  0  0
    0.2478   15.2876   -3.9345 H   0  0  0  0  0  0  0  0  0  0  0  0
   -0.8787   14.0263   -0.6516 H   0  0  0  0  0  0  0  0  0  0  0  0
   -1.3860   14.8082   -2.1871 H   0  0  0  0  0  0  0  0  0  0  0  0
   -0.8470   13.0947   -2.1871 H   0  0  0  0  0  0  0  0  0  0  0  0
  1  2  1  0
  2  3  1  0
  3  4  1  0
  4  5  1  0
  5  6  1  0
  6  7  1  0
  7  8  1  0
  7  9  1  0
  2 10  1  0
 10 11  1  0
 11 12  1  0
 12 13  1  0
 13 14  1  1
 13 15  1  0
 15 16  1  0
 16 17  1  0
 17 18  2  0
 18 19  1  0
 19 20  1  0
 20 21  1  0
 21 22  1  0
 22 23  1  0
 22 24  1  0
 24 25  1  0
 24 26  1  0
 19 27  1  0
 27 28  1  1
 27 29  1  0
 29 30  1  0
 30 31  1  0
 31 32  1  6
  7  5  1  0
 31 10  1  0
 31 13  1  0
 27 15  1  0
 24 18  1  0
  1 33  1  0
  1 34  1  0
  1 35  1  0
  2 36  1  6
  3 37  1  0
  3 38  1  0
  4 39  1  0
  4 40  1  0
  5 41  1  1
  8 42  1  0
  8 43  1  0
  8 44  1  0
  9 45  1  0
  9 46  1  0
  9 47  1  0
 10 48  1  6
 11 49  1  0
 11 50  1  0
 12 51  1  0
 12 52  1  0
 14 53  1  0
 14 54  1  0
 14 55  1  0
 15 56  1  1
 16 57  1  0
 16 58  1  0
 17 59  1  0
 19 60  1  6
 20 61  1  0
 20 62  1  0
 21 63  1  0
 21 64  1  0
 22 65  1  6
 23 66  1  0
 25 67  1  0
 25 68  1  0
 25 69  1  0
 26 70  1  0
 26 71  1  0
 26 72  1  0
 28 73  1  0
 28 74  1  0
 28 75  1  0
 29 76  1  0
 29 77  1  0
 30 78  1  0
 30 79  1  0
 32 80  1  0
 32 81  1  0
 32 82  1  0
M  END
>  <meeko>  (10) 
{"is_sidechain": [false], "intermolecular_energy": 2.731, "internal_energy": -0.839}

$$$$
EPH_relaxed_0001_pdb2pqr_Repair_229_r2_0001_out
     RDKit          3D

 82 86  0  0  0  0  0  0  0  0999 V2000
    2.8290   19.2700   -0.6950 C   0  0  0  0  0  0  0  0  0  0  0  0
    2.8010   18.3230   -1.8980 C   0  0  2  0  0  0  0  0  0  0  0  0
    1.4920   18.4470   -2.7040 C   0  0  0  0  0  0  0  0  0  0  0  0
    0.6060   19.6160   -2.2640 C   0  0  0  0  0  0  0  0  0  0  0  0
   -0.7030   19.1420   -1.7100 C   0  0  2  0  0  0  0  0  0  0  0  0
   -1.6350   20.1860   -1.3980 O   0  0  0  0  0  0  0  0  0  0  0  0
   -1.1560   19.4110   -0.2870 C   0  0  0  0  0  0  0  0  0  0  0  0
   -0.3040   20.1820    0.6710 C   0  0  0  0  0  0  0  0  0  0  0  0
   -2.1940   18.5150    0.3150 C   0  0  0  0  0  0  0  0  0  0  0  0
    2.9920   16.8850   -1.4320 C   0  0  1  0  0  0  0  0  0  0  0  0
    3.7120   16.7910   -0.0610 C   0  0  0  0  0  0  0  0  0  0  0  0
    3.1010   15.5760    0.6830 C   0  0  0  0  0  0  0  0  0  0  0  0
    2.2980   14.8180   -0.4000 C   0  0  1  0  0  0  0  0  0  0  0  0
    3.3620   13.9730   -1.1690 C   0  0  0  0  0  0  0  0  0  0  0  0
    1.1150   13.9320    0.1090 C   0  0  2  0  0  0  0  0  0  0  0  0
    1.5200   12.7700    1.0320 C   0  0  0  0  0  0  0  0  0  0  0  0
    1.8190   11.4810    0.3410 C   0  0  0  0  0  0  0  0  0  0  0  0
    1.4920   11.1810   -0.9300 C   0  0  0  0  0  0  0  0  0  0  0  0
    0.6650   12.1530   -1.7810 C   0  0  1  0  0  0  0  0  0  0  0  0
   -0.4650   11.3740   -2.5050 C   0  0  0  0  0  0  0  0  0  0  0  0
    0.0630   10.1940   -3.3140 C   0  0  0  0  0  0  0  0  0  0  0  0
    0.8300    9.2210   -2.4230 C   0  0  2  0  0  0  0  0  0  0  0  0
   -0.0860    8.6150   -1.5070 O   0  0  0  0  0  0  0  0  0  0  0  0
    1.9890    9.8950   -1.6350 C   0  0  0  0  0  0  0  0  0  0  0  0
    3.1260   10.2840   -2.6120 C   0  0  0  0  0  0  0  0  0  0  0  0
    2.5890    8.8360   -0.6700 C   0  0  0  0  0  0  0  0  0  0  0  0
    0.1300   13.4480   -1.0310 C   0  0  1  0  0  0  0  0  0  0  0  0
   -1.2330   13.1390   -0.3410 C   0  0  0  0  0  0  0  0  0  0  0  0
   -0.1560   14.5750   -2.0930 C   0  0  0  0  0  0  0  0  0  0  0  0
    1.0240   15.4940   -2.4660 C   0  0  0  0  0  0  0  0  0  0  0  0
    1.7170   16.0330   -1.2110 C   0  0  2  0  0  0  0  0  0  0  0  0
    0.6770   16.9060   -0.4280 C   0  0  0  0  0  0  0  0  0  0  0  0
    2.8116   18.6824    0.2347 H   0  0  0  0  0  0  0  0  0  0  0  0
    3.7455   19.8774   -0.7278 H   0  0  0  0  0  0  0  0  0  0  0  0
    1.9500   19.9305   -0.7278 H   0  0  0  0  0  0  0  0  0  0  0  0
    3.6275   18.6101   -2.5647 H   0  0  0  0  0  0  0  0  0  0  0  0
    1.7491   18.5862   -3.7644 H   0  0  0  0  0  0  0  0  0  0  0  0
    0.9181   17.5251   -2.5285 H   0  0  0  0  0  0  0  0  0  0  0  0
    1.1337   20.1911   -1.4889 H   0  0  0  0  0  0  0  0  0  0  0  0
    0.3990   20.2400   -3.1459 H   0  0  0  0  0  0  0  0  0  0  0  0
   -0.6463   18.2180   -2.3042 H   0  0  0  0  0  0  0  0  0  0  0  0
   -0.5876   19.9254    1.7024 H   0  0  0  0  0  0  0  0  0  0  0  0
    0.7537   19.9278    0.5075 H   0  0  0  0  0  0  0  0  0  0  0  0
   -0.4516   21.2597    0.5075 H   0  0  0  0  0  0  0  0  0  0  0  0
   -2.1326   18.5680    1.4120 H   0  0  0  0  0  0  0  0  0  0  0  0
   -3.1928   18.8393   -0.0124 H   0  0  0  0  0  0  0  0  0  0  0  0
   -2.0191   17.4795   -0.0124 H   0  0  0  0  0  0  0  0  0  0  0  0
    3.5648   16.4907   -2.2843 H   0  0  0  0  0  0  0  0  0  0  0  0
    4.7915   16.6404   -0.2096 H   0  0  0  0  0  0  0  0  0  0  0  0
    3.5796   17.7164    0.5188 H   0  0  0  0  0  0  0  0  0  0  0  0
    3.8937   14.9359    1.0976 H   0  0  0  0  0  0  0  0  0  0  0  0
    2.4714   15.8806    1.5320 H   0  0  0  0  0  0  0  0  0  0  0  0
    4.0119   13.4569   -0.4470 H   0  0  0  0  0  0  0  0  0  0  0  0
    2.8533   13.2301   -1.8009 H   0  0  0  0  0  0  0  0  0  0  0  0
    3.9704   14.6367   -1.8009 H   0  0  0  0  0  0  0  0  0  0  0  0
    0.5511   14.6333    0.7416 H   0  0  0  0  0  0  0  0  0  0  0  0
    2.4194   13.0746    1.5872 H   0  0  0  0  0  0  0  0  0  0  0  0
    0.6496   12.5753    1.6758 H   0  0  0  0  0  0  0  0  0  0  0  0
    2.3514   10.7114    0.9191 H   0  0  0  0  0  0  0  0  0  0  0  0
    1.3596   12.5769   -2.5211 H   0  0  0  0  0  0  0  0  0  0  0  0
   -1.1718   10.9966   -1.7513 H   0  0  0  0  0  0  0  0  0  0  0  0
   -0.9523   12.0677   -3.2059 H   0  0  0  0  0  0  0  0  0  0  0  0
   -0.7844    9.6669   -3.7767 H   0  0  0  0  0  0  0  0  0  0  0  0
    0.7467   10.5760   -4.0865 H   0  0  0  0  0  0  0  0  0  0  0  0
    1.2927    8.4682   -3.0782 H   0  0  0  0  0  0  0  0  0  0  0  0
    0.4340    8.2360   -0.7780 H   0  0  0  0  0  0  0  0  0  0  0  0
    4.0142   10.5879   -2.0386 H   0  0  0  0  0  0  0  0  0  0  0  0
    3.3764    9.4204   -3.2457 H   0  0  0  0  0  0  0  0  0  0  0  0
    2.7949   11.1200   -3.2457 H   0  0  0  0  0  0  0  0  0  0  0  0
    2.4130    9.1466    0.3705 H   0  0  0  0  0  0  0  0  0  0  0  0
    2.1080    7.8630   -0.8485 H   0  0  0  0  0  0  0  0  0  0  0  0
    3.6709    8.7485   -0.8485 H   0  0  0  0  0  0  0  0  0  0  0  0
   -1.1059   13.1678    0.7513 H   0  0  0  0  0  0  0  0  0  0  0  0
   -1.9761   13.8915   -0.6436 H   0  0  0  0  0  0  0  0  0  0  0  0
   -1.5789   12.1396   -0.6436 H   0  0  0  0  0  0  0  0  0  0  0  0
   -0.4996   14.0837   -3.0153 H   0  0  0  0  0  0  0  0  0  0  0  0
   -0.8968   15.2358   -1.6191 H   0  0  0  0  0  0  0  0  0  0  0  0
    1.7512   14.9222   -3.0612 H   0  0  0  0  0  0  0  0  0  0  0  0
    0.6364   16.3449   -3.0454 H   0  0  0  0  0  0  0  0  0  0  0  0
    0.8305   16.7771    0.6536 H   0  0  0  0  0  0  0  0  0  0  0  0
    0.8128   17.9647   -0.6940 H   0  0  0  0  0  0  0  0  0  0  0  0
   -0.3421   16.5889   -0.6940 H   0  0  0  0  0  0  0  0  0  0  0  0
  1  2  1  0
  2  3  1  0
  3  4  1  0
  4  5  1  0
  5  6  1  0
  6  7  1  0
  7  8  1  0
  7  9  1  0
  2 10  1  0
 10 11  1  0
 11 12  1  0
 12 13  1  0
 13 14  1  6
 13 15  1  0
 15 16  1  0
 16 17  1  0
 17 18  2  0
 18 19  1  0
 19 20  1  0
 20 21  1  0
 21 22  1  0
 22 23  1  0
 22 24  1  0
 24 25  1  0
 24 26  1  0
 19 27  1  0
 27 28  1  1
 27 29  1  0
 29 30  1  0
 30 31  1  0
 31 32  1  1
  7  5  1  0
 31 10  1  0
 31 13  1  0
 27 15  1  0
 24 18  1  0
  1 33  1  0
  1 34  1  0
  1 35  1  0
  2 36  1  6
  3 37  1  0
  3 38  1  0
  4 39  1  0
  4 40  1  0
  5 41  1  6
  8 42  1  0
  8 43  1  0
  8 44  1  0
  9 45  1  0
  9 46  1  0
  9 47  1  0
 10 48  1  6
 11 49  1  0
 11 50  1  0
 12 51  1  0
 12 52  1  0
 14 53  1  0
 14 54  1  0
 14 55  1  0
 15 56  1  1
 16 57  1  0
 16 58  1  0
 17 59  1  0
 19 60  1  6
 20 61  1  0
 20 62  1  0
 21 63  1  0
 21 64  1  0
 22 65  1  6
 23 66  1  0
 25 67  1  0
 25 68  1  0
 25 69  1  0
 26 70  1  0
 26 71  1  0
 26 72  1  0
 28 73  1  0
 28 74  1  0
 28 75  1  0
 29 76  1  0
 29 77  1  0
 30 78  1  0
 30 79  1  0
 32 80  1  0
 32 81  1  0
 32 82  1  0
M  END
>  <meeko>  (11) 
{"is_sidechain": [false], "intermolecular_energy": 2.731, "internal_energy": -0.839}

$$$$
EPH_relaxed_0001_pdb2pqr_Repair_229_r2_0001_out
     RDKit          3D

 82 86  0  0  0  0  0  0  0  0999 V2000
   -4.0620    7.2850   -3.4160 C   0  0  0  0  0  0  0  0  0  0  0  0
   -3.7810    7.2400   -1.9110 C   0  0  2  0  0  0  0  0  0  0  0  0
   -5.0370    6.8710   -1.0970 C   0  0  0  0  0  0  0  0  0  0  0  0
   -6.2100    6.3920   -1.9570 C   0  0  0  0  0  0  0  0  0  0  0  0
   -7.5160    6.9410   -1.4680 C   0  0  2  0  0  0  0  0  0  0  0  0
   -8.4640    5.9490   -1.0510 O   0  0  0  0  0  0  0  0  0  0  0  0
   -8.8330    6.7380   -2.1940 C   0  0  0  0  0  0  0  0  0  0  0  0
   -8.9080    5.9610   -3.4710 C   0  0  0  0  0  0  0  0  0  0  0  0
   -9.9510    7.6970   -1.9280 C   0  0  0  0  0  0  0  0  0  0  0  0
   -3.2340    8.5830   -1.4450 C   0  0  1  0  0  0  0  0  0  0  0  0
   -3.8500    9.0440   -0.0970 C   0  0  0  0  0  0  0  0  0  0  0  0
   -2.7330    9.7930    0.6730 C   0  0  0  0  0  0  0  0  0  0  0  0
   -1.6240   10.0290   -0.3790 C   0  0  1  0  0  0  0  0  0  0  0  0
   -2.0900   11.2860   -1.1780 C   0  0  0  0  0  0  0  0  0  0  0  0
   -0.1720   10.2020    0.1740 C   0  0  2  0  0  0  0  0  0  0  0  0
    0.0360   11.4210    1.0890 C   0  0  0  0  0  0  0  0  0  0  0  0
    0.4520   12.6760    0.3960 C   0  0  0  0  0  0  0  0  0  0  0  0
    0.9250   12.7550   -0.8620 C   0  0  0  0  0  0  0  0  0  0  0  0
    1.1740   11.4880   -1.6900 C   0  0  1  0  0  0  0  0  0  0  0  0
    2.5650   11.5800   -2.3720 C   0  0  0  0  0  0  0  0  0  0  0  0
    2.7310   12.8550   -3.1920 C   0  0  0  0  0  0  0  0  0  0  0  0
    2.5330   14.0940   -2.3220 C   0  0  2  0  0  0  0  0  0  0  0  0
    3.6010   14.1650   -1.3720 O   0  0  0  0  0  0  0  0  0  0  0  0
    1.1690   14.1070   -1.5760 C   0  0  0  0  0  0  0  0  0  0  0  0
    0.0220   14.3330   -2.5930 C   0  0  0  0  0  0  0  0  0  0  0  0
    1.1560   15.3350   -0.6260 C   0  0  0  0  0  0  0  0  0  0  0  0
    0.9570   10.1090   -0.9300 C   0  0  1  0  0  0  0  0  0  0  0  0
    2.2680    9.6960   -0.1930 C   0  0  0  0  0  0  0  0  0  0  0  0
    0.6680    8.9790   -1.9880 C   0  0  0  0  0  0  0  0  0  0  0  0
   -0.8010    8.7770   -2.4050 C   0  0  0  0  0  0  0  0  0  0  0  0
   -1.7110    8.6770   -1.1760 C   0  0  2  0  0  0  0  0  0  0  0  0
   -1.2800    7.4080   -0.3640 C   0  0  0  0  0  0  0  0  0  0  0  0
   -5.1355    7.4569   -3.5836 H   0  0  0  0  0  0  0  0  0  0  0  0
   -3.4841    8.1020   -3.8726 H   0  0  0  0  0  0  0  0  0  0  0  0
   -3.7682    6.3284   -3.8726 H   0  0  0  0  0  0  0  0  0  0  0  0
   -3.0323    6.4531   -1.7369 H   0  0  0  0  0  0  0  0  0  0  0  0
   -4.7714    6.0679   -0.3938 H   0  0  0  0  0  0  0  0  0  0  0  0
   -5.3676    7.7862   -0.5840 H   0  0  0  0  0  0  0  0  0  0  0  0
   -6.0502    6.7225   -2.9939 H   0  0  0  0  0  0  0  0  0  0  0  0
   -6.2547    5.2946   -1.8956 H   0  0  0  0  0  0  0  0  0  0  0  0
   -7.0189    7.8421   -1.0794 H   0  0  0  0  0  0  0  0  0  0  0  0
   -9.0114    4.8899   -3.2429 H   0  0  0  0  0  0  0  0  0  0  0  0
   -9.7779    6.2973   -4.0543 H   0  0  0  0  0  0  0  0  0  0  0  0
   -7.9899    6.1247   -4.0543 H   0  0  0  0  0  0  0  0  0  0  0  0
  -10.0850    7.8119   -0.8423 H   0  0  0  0  0  0  0  0  0  0  0  0
   -9.7101    8.6736   -2.3731 H   0  0  0  0  0  0  0  0  0  0  0  0
  -10.8796    7.3102   -2.3731 H   0  0  0  0  0  0  0  0  0  0  0  0
   -3.5019    9.2017   -2.3141 H   0  0  0  0  0  0  0  0  0  0  0  0
   -4.7006    9.7171   -0.2799 H   0  0  0  0  0  0  0  0  0  0  0  0
   -4.2206    8.1851    0.4818 H   0  0  0  0  0  0  0  0  0  0  0  0
   -3.1066   10.7506    1.0648 H   0  0  0  0  0  0  0  0  0  0  0  0
   -2.3701    9.2225    1.5406 H   0  0  0  0  0  0  0  0  0  0  0  0
   -2.3840   12.0792   -0.4749 H   0  0  0  0  0  0  0  0  0  0  0  0
   -1.2651   11.6446   -1.8112 H   0  0  0  0  0  0  0  0  0  0  0  0
   -2.9493   11.0202   -1.8112 H   0  0  0  0  0  0  0  0  0  0  0  0
   -0.0589    9.3197    0.8211 H   0  0  0  0  0  0  0  0  0  0  0  0
   -0.9116   11.6194    1.6112 H   0  0  0  0  0  0  0  0  0  0  0  0
    0.8643   11.1572    1.7631 H   0  0  0  0  0  0  0  0  0  0  0  0
    0.3647   13.6158    0.9610 H   0  0  0  0  0  0  0  0  0  0  0  0
    0.3839   11.4646   -2.4550 H   0  0  0  0  0  0  0  0  0  0  0  0
    3.3417   11.5579   -1.5933 H   0  0  0  0  0  0  0  0  0  0  0  0
    2.6568   10.7264   -3.0597 H   0  0  0  0  0  0  0  0  0  0  0  0
    3.7426   12.8762   -3.6234 H   0  0  0  0  0  0  0  0  0  0  0  0
    1.9724   12.8609   -3.9886 H   0  0  0  0  0  0  0  0  0  0  0  0
    2.5346   14.9691   -2.9884 H   0  0  0  0  0  0  0  0  0  0  0  0
    3.3110   14.7440   -0.6470 H   0  0  0  0  0  0  0  0  0  0  0  0
   -0.9173   14.5181   -2.0512 H   0  0  0  0  0  0  0  0  0  0  0  0
    0.2581   15.2019   -3.2249 H   0  0  0  0  0  0  0  0  0  0  0  0
   -0.0891   13.4395   -3.2249 H   0  0  0  0  0  0  0  0  0  0  0  0
    1.1596   14.9905    0.4186 H   0  0  0  0  0  0  0  0  0  0  0  0
    2.0477   15.9518   -0.8118 H   0  0  0  0  0  0  0  0  0  0  0  0
    0.2515   15.9328   -0.8118 H   0  0  0  0  0  0  0  0  0  0  0  0
    2.1088    9.7462    0.8943 H   0  0  0  0  0  0  0  0  0  0  0  0
    2.5401    8.6686   -0.4767 H   0  0  0  0  0  0  0  0  0  0  0  0
    3.0798   10.3819   -0.4767 H   0  0  0  0  0  0  0  0  0  0  0  0
    1.2416    9.2183   -2.8956 H   0  0  0  0  0  0  0  0  0  0  0  0
    0.9583    8.0405   -1.4932 H   0  0  0  0  0  0  0  0  0  0  0  0
   -1.1208    9.6303   -3.0211 H   0  0  0  0  0  0  0  0  0  0  0  0
   -0.8780    7.8398   -2.9758 H   0  0  0  0  0  0  0  0  0  0  0  0
   -1.3520    7.6199    0.7130 H   0  0  0  0  0  0  0  0  0  0  0  0
   -1.9432    6.5678   -0.6175 H   0  0  0  0  0  0  0  0  0  0  0  0
   -0.2423    7.1455   -0.6175 H   0  0  0  0  0  0  0  0  0  0  0  0
  1  2  1  0
  2  3  1  0
  3  4  1  0
  4  5  1  0
  5  6  1  0
  6  7  1  0
  7  8  1  0
  7  9  1  0
  2 10  1  0
 10 11  1  0
 11 12  1  0
 12 13  1  0
 13 14  1  6
 13 15  1  0
 15 16  1  0
 16 17  1  0
 17 18  2  0
 18 19  1  0
 19 20  1  0
 20 21  1  0
 21 22  1  0
 22 23  1  0
 22 24  1  0
 24 25  1  0
 24 26  1  0
 19 27  1  0
 27 28  1  1
 27 29  1  0
 29 30  1  0
 30 31  1  0
 31 32  1  1
  7  5  1  0
 31 10  1  0
 31 13  1  0
 27 15  1  0
 24 18  1  0
  1 33  1  0
  1 34  1  0
  1 35  1  0
  2 36  1  6
  3 37  1  0
  3 38  1  0
  4 39  1  0
  4 40  1  0
  5 41  1  1
  8 42  1  0
  8 43  1  0
  8 44  1  0
  9 45  1  0
  9 46  1  0
  9 47  1  0
 10 48  1  6
 11 49  1  0
 11 50  1  0
 12 51  1  0
 12 52  1  0
 14 53  1  0
 14 54  1  0
 14 55  1  0
 15 56  1  1
 16 57  1  0
 16 58  1  0
 17 59  1  0
 19 60  1  6
 20 61  1  0
 20 62  1  0
 21 63  1  0
 21 64  1  0
 22 65  1  6
 23 66  1  0
 25 67  1  0
 25 68  1  0
 25 69  1  0
 26 70  1  0
 26 71  1  0
 26 72  1  0
 28 73  1  0
 28 74  1  0
 28 75  1  0
 29 76  1  0
 29 77  1  0
 30 78  1  0
 30 79  1  0
 32 80  1  0
 32 81  1  0
 32 82  1  0
M  END
>  <meeko>  (12) 
{"is_sidechain": [false], "intermolecular_energy": 2.731, "internal_energy": -0.839}

$$$$
EPH_relaxed_0001_pdb2pqr_Repair_229_r2_0001_out
     RDKit          3D

 82 86  0  0  0  0  0  0  0  0999 V2000
   -0.8770   16.3520   -5.8460 C   0  0  0  0  0  0  0  0  0  0  0  0
    0.2170   15.6550   -6.6590 C   0  0  2  0  0  0  0  0  0  0  0  0
   -0.1830   15.4750   -8.1370 C   0  0  0  0  0  0  0  0  0  0  0  0
    0.4630   16.4950   -9.0780 C   0  0  0  0  0  0  0  0  0  0  0  0
    1.8660   16.1070   -9.4370 C   0  0  2  0  0  0  0  0  0  0  0  0
    2.3440   16.6620  -10.6700 O   0  0  0  0  0  0  0  0  0  0  0  0
    2.2130   15.2320  -10.6270 C   0  0  0  0  0  0  0  0  0  0  0  0
    1.1530   14.6900  -11.5330 C   0  0  0  0  0  0  0  0  0  0  0  0
    3.5230   14.5070  -10.6240 C   0  0  0  0  0  0  0  0  0  0  0  0
    0.5430   14.3010   -6.0390 C   0  0  1  0  0  0  0  0  0  0  0  0
    1.8070   13.6490   -6.6590 C   0  0  0  0  0  0  0  0  0  0  0  0
    2.5220   12.8830   -5.5160 C   0  0  0  0  0  0  0  0  0  0  0  0
    1.4870   12.8410   -4.3680 C   0  0  1  0  0  0  0  0  0  0  0  0
    0.5330   11.6600   -4.7320 C   0  0  0  0  0  0  0  0  0  0  0  0
    2.0640   12.6920   -2.9230 C   0  0  2  0  0  0  0  0  0  0  0  0
    2.8390   11.3890   -2.6600 C   0  0  0  0  0  0  0  0  0  0  0  0
    2.0180   10.2520   -2.1470 C   0  0  0  0  0  0  0  0  0  0  0  0
    0.7760   10.3500   -1.6380 C   0  0  0  0  0  0  0  0  0  0  0  0
    0.1090   11.7190   -1.4490 C   0  0  1  0  0  0  0  0  0  0  0  0
   -0.5320   11.7910   -0.0380 C   0  0  0  0  0  0  0  0  0  0  0  0
   -1.4890   10.6340    0.2300 C   0  0  0  0  0  0  0  0  0  0  0  0
   -0.7740    9.2920    0.0890 C   0  0  2  0  0  0  0  0  0  0  0  0
    0.1950    9.1740    1.1350 O   0  0  0  0  0  0  0  0  0  0  0  0
   -0.0810    9.1090   -1.2900 C   0  0  0  0  0  0  0  0  0  0  0  0
   -1.1540    8.9340   -2.3930 C   0  0  0  0  0  0  0  0  0  0  0  0
    0.7190    7.7790   -1.2490 C   0  0  0  0  0  0  0  0  0  0  0  0
    1.0160   12.9830   -1.7730 C   0  0  1  0  0  0  0  0  0  0  0  0
    1.8390   13.3850   -0.5110 C   0  0  0  0  0  0  0  0  0  0  0  0
    0.0870   14.2100   -2.1070 C   0  0  0  0  0  0  0  0  0  0  0  0
   -0.3520   14.3700   -3.5750 C   0  0  0  0  0  0  0  0  0  0  0  0
    0.8490   14.2700   -4.5200 C   0  0  2  0  0  0  0  0  0  0  0  0
    1.8160   15.4580   -4.1930 C   0  0  0  0  0  0  0  0  0  0  0  0
   -0.6745   16.2230   -4.7725 H   0  0  0  0  0  0  0  0  0  0  0  0
   -0.8887   17.4244   -6.0907 H   0  0  0  0  0  0  0  0  0  0  0  0
   -1.8539   15.9094   -6.0907 H   0  0  0  0  0  0  0  0  0  0  0  0
    1.1082   16.2993   -6.6345 H   0  0  0  0  0  0  0  0  0  0  0  0
    0.1183   14.4669   -8.4580 H   0  0  0  0  0  0  0  0  0  0  0  0
   -1.2709   15.6268   -8.1964 H   0  0  0  0  0  0  0  0  0  0  0  0
   -0.1356   16.5599   -9.9986 H   0  0  0  0  0  0  0  0  0  0  0  0
    0.4971   17.4653   -8.5609 H   0  0  0  0  0  0  0  0  0  0  0  0
    2.1486   16.0548   -8.3752 H   0  0  0  0  0  0  0  0  0  0  0  0
    0.3340   14.2712  -10.9298 H   0  0  0  0  0  0  0  0  0  0  0  0
    0.7639   15.4998  -12.1677 H   0  0  0  0  0  0  0  0  0  0  0  0
    1.5817   13.9005  -12.1677 H   0  0  0  0  0  0  0  0  0  0  0  0
    3.8420   14.3305   -9.5862 H   0  0  0  0  0  0  0  0  0  0  0  0
    3.4098   13.5431  -11.1418 H   0  0  0  0  0  0  0  0  0  0  0  0
    4.2796   15.1148  -11.1418 H   0  0  0  0  0  0  0  0  0  0  0  0
   -0.3995   13.7722   -6.2442 H   0  0  0  0  0  0  0  0  0  0  0  0
    1.5195   12.9521   -7.4600 H   0  0  0  0  0  0  0  0  0  0  0  0
    2.4686   14.4100   -7.0985 H   0  0  0  0  0  0  0  0  0  0  0  0
    2.7872   11.8649   -5.8373 H   0  0  0  0  0  0  0  0  0  0  0  0
    3.4618   13.3677   -5.2130 H   0  0  0  0  0  0  0  0  0  0  0  0
    0.1570   11.1945   -3.8090 H   0  0  0  0  0  0  0  0  0  0  0  0
   -0.3138   12.0411   -5.3217 H   0  0  0  0  0  0  0  0  0  0  0  0
    1.0836   10.9123   -5.3217 H   0  0  0  0  0  0  0  0  0  0  0  0
    2.8124   13.4973   -2.8847 H   0  0  0  0  0  0  0  0  0  0  0  0
    3.3041   11.0732   -3.6055 H   0  0  0  0  0  0  0  0  0  0  0  0
    3.5661   11.6215   -1.8680 H   0  0  0  0  0  0  0  0  0  0  0  0
    2.4667    9.2486   -2.1887 H   0  0  0  0  0  0  0  0  0  0  0  0
   -0.6739   11.7855   -2.2189 H   0  0  0  0  0  0  0  0  0  0  0  0
    0.2696   11.7671    0.7149 H   0  0  0  0  0  0  0  0  0  0  0  0
   -1.1124   12.7238    0.0176 H   0  0  0  0  0  0  0  0  0  0  0  0
   -1.8866   10.7247    1.2516 H   0  0  0  0  0  0  0  0  0  0  0  0
   -2.3061   10.6760   -0.5053 H   0  0  0  0  0  0  0  0  0  0  0  0
   -1.5362    8.5024    0.1633 H   0  0  0  0  0  0  0  0  0  0  0  0
   -0.1260    8.5020    1.7600 H   0  0  0  0  0  0  0  0  0  0  0  0
   -2.1370    8.7737   -1.9261 H   0  0  0  0  0  0  0  0  0  0  0  0
   -1.1881    9.8384   -3.0181 H   0  0  0  0  0  0  0  0  0  0  0  0
   -0.8990    8.0656   -3.0181 H   0  0  0  0  0  0  0  0  0  0  0  0
    0.8938    7.4884   -0.2026 H   0  0  0  0  0  0  0  0  0  0  0  0
    0.1453    6.9902   -1.7577 H   0  0  0  0  0  0  0  0  0  0  0  0
    1.6846    7.9161   -1.7577 H   0  0  0  0  0  0  0  0  0  0  0  0
    1.2783   13.1111    0.3949 H   0  0  0  0  0  0  0  0  0  0  0  0
    2.8038   12.8567   -0.5188 H   0  0  0  0  0  0  0  0  0  0  0  0
    2.0154   14.4707   -0.5188 H   0  0  0  0  0  0  0  0  0  0  0  0
   -0.8228   14.1144   -1.4962 H   0  0  0  0  0  0  0  0  0  0  0  0
    0.6966   15.0997   -1.8904 H   0  0  0  0  0  0  0  0  0  0  0  0
   -1.0726   13.5769   -3.8236 H   0  0  0  0  0  0  0  0  0  0  0  0
   -0.8131   15.3612   -3.6973 H   0  0  0  0  0  0  0  0  0  0  0  0
    1.9057   15.5682   -3.1022 H   0  0  0  0  0  0  0  0  0  0  0  0
    2.8073   15.2531   -4.6236 H   0  0  0  0  0  0  0  0  0  0  0  0
    1.4142   16.3870   -4.6236 H   0  0  0  0  0  0  0  0  0  0  0  0
  1  2  1  0
  2  3  1  0
  3  4  1  0
  4  5  1  0
  5  6  1  0
  6  7  1  0
  7  8  1  0
  7  9  1  0
  2 10  1  0
 10 11  1  0
 11 12  1  0
 12 13  1  0
 13 14  1  6
 13 15  1  0
 15 16  1  0
 16 17  1  0
 17 18  2  0
 18 19  1  0
 19 20  1  0
 20 21  1  0
 21 22  1  0
 22 23  1  0
 22 24  1  0
 24 25  1  0
 24 26  1  0
 19 27  1  0
 27 28  1  1
 27 29  1  0
 29 30  1  0
 30 31  1  0
 31 32  1  1
  7  5  1  0
 31 10  1  0
 31 13  1  0
 27 15  1  0
 24 18  1  0
  1 33  1  0
  1 34  1  0
  1 35  1  0
  2 36  1  6
  3 37  1  0
  3 38  1  0
  4 39  1  0
  4 40  1  0
  5 41  1  1
  8 42  1  0
  8 43  1  0
  8 44  1  0
  9 45  1  0
  9 46  1  0
  9 47  1  0
 10 48  1  1
 11 49  1  0
 11 50  1  0
 12 51  1  0
 12 52  1  0
 14 53  1  0
 14 54  1  0
 14 55  1  0
 15 56  1  6
 16 57  1  0
 16 58  1  0
 17 59  1  0
 19 60  1  6
 20 61  1  0
 20 62  1  0
 21 63  1  0
 21 64  1  0
 22 65  1  1
 23 66  1  0
 25 67  1  0
 25 68  1  0
 25 69  1  0
 26 70  1  0
 26 71  1  0
 26 72  1  0
 28 73  1  0
 28 74  1  0
 28 75  1  0
 29 76  1  0
 29 77  1  0
 30 78  1  0
 30 79  1  0
 32 80  1  0
 32 81  1  0
 32 82  1  0
M  END
>  <meeko>  (13) 
{"is_sidechain": [false], "intermolecular_energy": 2.731, "internal_energy": -0.839}

$$$$
EPH_relaxed_0001_pdb2pqr_Repair_229_r2_0001_out
     RDKit          3D

 82 86  0  0  0  0  0  0  0  0999 V2000
    0.0960    9.2950   -2.2130 C   0  0  0  0  0  0  0  0  0  0  0  0
    1.1380   10.3080   -2.6970 C   0  0  2  0  0  0  0  0  0  0  0  0
    2.5480    9.6910   -2.7910 C   0  0  0  0  0  0  0  0  0  0  0  0
    3.4600   10.3920   -3.8010 C   0  0  0  0  0  0  0  0  0  0  0  0
    4.8530   10.5530   -3.2710 C   0  0  2  0  0  0  0  0  0  0  0  0
    5.4320   11.8460   -3.4900 O   0  0  0  0  0  0  0  0  0  0  0  0
    6.0690   10.7450   -4.1590 C   0  0  0  0  0  0  0  0  0  0  0  0
    5.9480   10.7860   -5.6500 C   0  0  0  0  0  0  0  0  0  0  0  0
    7.4180   10.4050   -3.6070 C   0  0  0  0  0  0  0  0  0  0  0  0
    1.1590   11.5160   -1.7690 C   0  0  1  0  0  0  0  0  0  0  0  0
    2.2230   11.3890   -0.6470 C   0  0  0  0  0  0  0  0  0  0  0  0
    2.7710   12.8160   -0.3850 C   0  0  0  0  0  0  0  0  0  0  0  0
    1.7830   13.7530   -1.1180 C   0  0  1  0  0  0  0  0  0  0  0  0
    0.5740   13.9020   -0.1420 C   0  0  0  0  0  0  0  0  0  0  0  0
    2.3450   15.1440   -1.5560 C   0  0  2  0  0  0  0  0  0  0  0  0
    2.8060   16.0540   -0.4050 C   0  0  0  0  0  0  0  0  0  0  0  0
    1.7590   16.9660    0.1450 C   0  0  0  0  0  0  0  0  0  0  0  0
    0.5860   17.2570   -0.4470 C   0  0  0  0  0  0  0  0  0  0  0  0
    0.2560   16.7220   -1.8460 C   0  0  1  0  0  0  0  0  0  0  0  0
   -0.3160   17.8710   -2.7180 C   0  0  0  0  0  0  0  0  0  0  0  0
   -1.5060   18.5650   -2.0630 C   0  0  0  0  0  0  0  0  0  0  0  0
   -1.1230   19.1340   -0.6990 C   0  0  2  0  0  0  0  0  0  0  0  0
   -0.1810   20.1940   -0.8900 O   0  0  0  0  0  0  0  0  0  0  0  0
   -0.5250   18.0690    0.2630 C   0  0  0  0  0  0  0  0  0  0  0  0
   -1.6370   17.0870    0.7080 C   0  0  0  0  0  0  0  0  0  0  0  0
   -0.0510   18.8000    1.5480 C   0  0  0  0  0  0  0  0  0  0  0  0
    1.4210   15.9250   -2.5760 C   0  0  1  0  0  0  0  0  0  0  0  0
    2.3460   16.9180   -3.3450 C   0  0  0  0  0  0  0  0  0  0  0  0
    0.7910   14.9740   -3.6620 C   0  0  0  0  0  0  0  0  0  0  0  0
    0.3650   13.5700   -3.1930 C   0  0  0  0  0  0  0  0  0  0  0  0
    1.4870   12.8930   -2.4000 C   0  0  2  0  0  0  0  0  0  0  0  0
    2.7090   12.7090   -3.3630 C   0  0  0  0  0  0  0  0  0  0  0  0
    0.0815    9.2809   -1.1132 H   0  0  0  0  0  0  0  0  0  0  0  0
   -0.8970    9.5823   -2.5891 H   0  0  0  0  0  0  0  0  0  0  0  0
    0.3551    8.2943   -2.5891 H   0  0  0  0  0  0  0  0  0  0  0  0
    0.8473   10.6228   -3.7101 H   0  0  0  0  0  0  0  0  0  0  0  0
    3.0193    9.7489   -1.7988 H   0  0  0  0  0  0  0  0  0  0  0  0
    2.4229    8.6541   -3.1362 H   0  0  0  0  0  0  0  0  0  0  0  0
    3.4964    9.7941   -4.7236 H   0  0  0  0  0  0  0  0  0  0  0  0
    3.0494   11.3936   -3.9966 H   0  0  0  0  0  0  0  0  0  0  0  0
    4.6444    9.8564   -2.4456 H   0  0  0  0  0  0  0  0  0  0  0  0
    4.9397   11.1277   -5.9268 H   0  0  0  0  0  0  0  0  0  0  0  0
    6.6959   11.4809   -6.0596 H   0  0  0  0  0  0  0  0  0  0  0  0
    6.1194    9.7796   -6.0596 H   0  0  0  0  0  0  0  0  0  0  0  0
    7.3776   10.4152   -2.5078 H   0  0  0  0  0  0  0  0  0  0  0  0
    7.7144    9.4041   -3.9538 H   0  0  0  0  0  0  0  0  0  0  0  0
    8.1534   11.1459   -3.9538 H   0  0  0  0  0  0  0  0  0  0  0  0
    0.1151   11.4998   -1.4227 H   0  0  0  0  0  0  0  0  0  0  0  0
    1.7628   10.9864    0.2674 H   0  0  0  0  0  0  0  0  0  0  0  0
    3.0310   10.7047   -0.9451 H   0  0  0  0  0  0  0  0  0  0  0  0
    2.7864   13.0344    0.6930 H   0  0  0  0  0  0  0  0  0  0  0  0
    3.8046   12.9382   -0.7411 H   0  0  0  0  0  0  0  0  0  0  0  0
    0.9336   13.8577    0.8966 H   0  0  0  0  0  0  0  0  0  0  0  0
    0.0781   14.8681   -0.3174 H   0  0  0  0  0  0  0  0  0  0  0  0
   -0.1417   13.0853   -0.3174 H   0  0  0  0  0  0  0  0  0  0  0  0
    3.2592   14.8668   -2.1014 H   0  0  0  0  0  0  0  0  0  0  0  0
    3.1622   15.4121    0.4142 H   0  0  0  0  0  0  0  0  0  0  0  0
    3.5867   16.7050   -0.8254 H   0  0  0  0  0  0  0  0  0  0  0  0
    1.9640   17.4400    1.1162 H   0  0  0  0  0  0  0  0  0  0  0  0
   -0.5097   15.9455   -1.7018 H   0  0  0  0  0  0  0  0  0  0  0  0
    0.4771   18.6145   -2.8862 H   0  0  0  0  0  0  0  0  0  0  0  0
   -0.6651   17.4307   -3.6637 H   0  0  0  0  0  0  0  0  0  0  0  0
   -1.8466   19.3850   -2.7123 H   0  0  0  0  0  0  0  0  0  0  0  0
   -2.3092   17.8266   -1.9224 H   0  0  0  0  0  0  0  0  0  0  0  0
   -2.0443   19.5026   -0.2243 H   0  0  0  0  0  0  0  0  0  0  0  0
    0.3240   20.2910   -0.0650 H   0  0  0  0  0  0  0  0  0  0  0  0
   -1.6769   17.0518    1.8067 H   0  0  0  0  0  0  0  0  0  0  0  0
   -2.6064   17.4291    0.3167 H   0  0  0  0  0  0  0  0  0  0  0  0
   -1.4174   16.0827    0.3167 H   0  0  0  0  0  0  0  0  0  0  0  0
   -0.4061   18.2524    2.4335 H   0  0  0  0  0  0  0  0  0  0  0  0
    1.0480   18.8441    1.5605 H   0  0  0  0  0  0  0  0  0  0  0  0
   -0.4591   19.8214    1.5605 H   0  0  0  0  0  0  0  0  0  0  0  0
    2.9119   17.5255   -2.6235 H   0  0  0  0  0  0  0  0  0  0  0  0
    3.0464   16.3522   -3.9769 H   0  0  0  0  0  0  0  0  0  0  0  0
    1.7320   17.5765   -3.9769 H   0  0  0  0  0  0  0  0  0  0  0  0
   -0.1013   15.4749   -4.0656 H   0  0  0  0  0  0  0  0  0  0  0  0
    1.5938   14.8016   -4.3940 H   0  0  0  0  0  0  0  0  0  0  0  0
   -0.5250   13.6591   -2.5527 H   0  0  0  0  0  0  0  0  0  0  0  0
    0.1423   12.9569   -4.0787 H   0  0  0  0  0  0  0  0  0  0  0  0
    3.6254   12.5710   -2.7703 H   0  0  0  0  0  0  0  0  0  0  0  0
    2.5461   11.8253   -3.9974 H   0  0  0  0  0  0  0  0  0  0  0  0
    2.8135   13.6015   -3.9974 H   0  0  0  0  0  0  0  0  0  0  0  0
  1  2  1  0
  2  3  1  0
  3  4  1  0
  4  5  1  0
  5  6  1  0
  6  7  1  0
  7  8  1  0
  7  9  1  0
  2 10  1  0
 10 11  1  0
 11 12  1  0
 12 13  1  0
 13 14  1  1
 13 15  1  0
 15 16  1  0
 16 17  1  0
 17 18  2  0
 18 19  1  0
 19 20  1  0
 20 21  1  0
 21 22  1  0
 22 23  1  0
 22 24  1  0
 24 25  1  0
 24 26  1  0
 19 27  1  0
 27 28  1  6
 27 29  1  0
 29 30  1  0
 30 31  1  0
 31 32  1  6
  7  5  1  0
 31 10  1  0
 31 13  1  0
 27 15  1  0
 24 18  1  0
  1 33  1  0
  1 34  1  0
  1 35  1  0
  2 36  1  6
  3 37  1  0
  3 38  1  0
  4 39  1  0
  4 40  1  0
  5 41  1  1
  8 42  1  0
  8 43  1  0
  8 44  1  0
  9 45  1  0
  9 46  1  0
  9 47  1  0
 10 48  1  1
 11 49  1  0
 11 50  1  0
 12 51  1  0
 12 52  1  0
 14 53  1  0
 14 54  1  0
 14 55  1  0
 15 56  1  6
 16 57  1  0
 16 58  1  0
 17 59  1  0
 19 60  1  1
 20 61  1  0
 20 62  1  0
 21 63  1  0
 21 64  1  0
 22 65  1  1
 23 66  1  0
 25 67  1  0
 25 68  1  0
 25 69  1  0
 26 70  1  0
 26 71  1  0
 26 72  1  0
 28 73  1  0
 28 74  1  0
 28 75  1  0
 29 76  1  0
 29 77  1  0
 30 78  1  0
 30 79  1  0
 32 80  1  0
 32 81  1  0
 32 82  1  0
M  END
>  <meeko>  (14) 
{"is_sidechain": [false], "intermolecular_energy": 2.731, "internal_energy": -0.839}

$$$$
EPH_relaxed_0001_pdb2pqr_Repair_229_r2_0001_out
     RDKit          3D

 82 86  0  0  0  0  0  0  0  0999 V2000
   -2.2560    7.8320   -2.1610 C   0  0  0  0  0  0  0  0  0  0  0  0
   -2.2460    8.4510   -0.7610 C   0  0  2  0  0  0  0  0  0  0  0  0
   -3.6440    8.4410   -0.1110 C   0  0  0  0  0  0  0  0  0  0  0  0
   -4.7930    8.4720   -1.1220 C   0  0  0  0  0  0  0  0  0  0  0  0
   -5.6020    7.2110   -1.0820 C   0  0  2  0  0  0  0  0  0  0  0  0
   -5.7610    6.5620   -2.3500 O   0  0  0  0  0  0  0  0  0  0  0  0
   -6.9600    7.0670   -1.7420 C   0  0  0  0  0  0  0  0  0  0  0  0
   -7.5900    8.2010   -2.4870 C   0  0  0  0  0  0  0  0  0  0  0  0
   -7.8840    5.9960   -1.2500 C   0  0  0  0  0  0  0  0  0  0  0  0
   -1.7130    9.8780   -0.8270 C   0  0  1  0  0  0  0  0  0  0  0  0
   -1.2750   10.4170    0.5600 C   0  0  0  0  0  0  0  0  0  0  0  0
   -0.0490   11.3350    0.3170 C   0  0  0  0  0  0  0  0  0  0  0  0
   -0.0270   11.5580   -1.2130 C   0  0  1  0  0  0  0  0  0  0  0  0
   -1.0780   12.6820   -1.4700 C   0  0  0  0  0  0  0  0  0  0  0  0
    1.3610   11.9110   -1.8400 C   0  0  2  0  0  0  0  0  0  0  0  0
    1.9830   13.2300   -1.3480 C   0  0  0  0  0  0  0  0  0  0  0  0
    1.6280   14.4400   -2.1480 C   0  0  0  0  0  0  0  0  0  0  0  0
    1.0790   14.4310   -3.3760 C   0  0  0  0  0  0  0  0  0  0  0  0
    0.8490   13.1140   -4.1270 C   0  0  1  0  0  0  0  0  0  0  0  0
    1.3470   13.2570   -5.5900 C   0  0  0  0  0  0  0  0  0  0  0  0
    0.7260   14.4520   -6.3050 C   0  0  0  0  0  0  0  0  0  0  0  0
    1.0250   15.7500   -5.5600 C   0  0  2  0  0  0  0  0  0  0  0  0
    2.4310   16.0100   -5.6330 O   0  0  0  0  0  0  0  0  0  0  0  0
    0.5760   15.7200   -4.0720 C   0  0  0  0  0  0  0  0  0  0  0  0
   -0.9700   15.7430   -3.9950 C   0  0  0  0  0  0  0  0  0  0  0  0
    1.0640   17.0320   -3.4000 C   0  0  0  0  0  0  0  0  0  0  0  0
    1.4060   11.8050   -3.4180 C   0  0  1  0  0  0  0  0  0  0  0  0
    2.9000   11.5840   -3.8070 C   0  0  0  0  0  0  0  0  0  0  0  0
    0.6170   10.5530   -3.9560 C   0  0  0  0  0  0  0  0  0  0  0  0
   -0.6850   10.1830   -3.2200 C   0  0  0  0  0  0  0  0  0  0  0  0
   -0.4620   10.1290   -1.7060 C   0  0  2  0  0  0  0  0  0  0  0  0
    0.5750    8.9920   -1.4150 C   0  0  0  0  0  0  0  0  0  0  0  0
   -2.2737    6.7354   -2.0769 H   0  0  0  0  0  0  0  0  0  0  0  0
   -3.1488    8.1724   -2.7061 H   0  0  0  0  0  0  0  0  0  0  0  0
   -1.3527    8.1434   -2.7061 H   0  0  0  0  0  0  0  0  0  0  0  0
   -1.5854    7.8357   -0.1325 H   0  0  0  0  0  0  0  0  0  0  0  0
   -3.7389    7.5276    0.4946 H   0  0  0  0  0  0  0  0  0  0  0  0
   -3.7236    9.3561    0.4942 H   0  0  0  0  0  0  0  0  0  0  0  0
   -5.4491    9.3238   -0.8897 H   0  0  0  0  0  0  0  0  0  0  0  0
   -4.3608    8.5698   -2.1288 H   0  0  0  0  0  0  0  0  0  0  0  0
   -5.2493    6.9890   -0.0640 H   0  0  0  0  0  0  0  0  0  0  0  0
   -7.9952    8.9304   -1.7703 H   0  0  0  0  0  0  0  0  0  0  0  0
   -6.8339    8.6894   -3.1193 H   0  0  0  0  0  0  0  0  0  0  0  0
   -8.4041    7.8170   -3.1193 H   0  0  0  0  0  0  0  0  0  0  0  0
   -7.8877    5.9918   -0.1500 H   0  0  0  0  0  0  0  0  0  0  0  0
   -8.9015    6.1915   -1.6193 H   0  0  0  0  0  0  0  0  0  0  0  0
   -7.5415    5.0181   -1.6193 H   0  0  0  0  0  0  0  0  0  0  0  0
   -2.5876   10.3818   -1.2643 H   0  0  0  0  0  0  0  0  0  0  0  0
   -2.0933   10.9915    1.0187 H   0  0  0  0  0  0  0  0  0  0  0  0
   -1.0214    9.5920    1.2420 H   0  0  0  0  0  0  0  0  0  0  0  0
   -0.1686   12.2913    0.8473 H   0  0  0  0  0  0  0  0  0  0  0  0
    0.8861   10.8896    0.6875 H   0  0  0  0  0  0  0  0  0  0  0  0
   -1.4417   13.0709   -0.5075 H   0  0  0  0  0  0  0  0  0  0  0  0
   -0.6106   13.4972   -2.0419 H   0  0  0  0  0  0  0  0  0  0  0  0
   -1.9227   12.2704   -2.0419 H   0  0  0  0  0  0  0  0  0  0  0  0
    2.0063   11.1111   -1.4478 H   0  0  0  0  0  0  0  0  0  0  0  0
    1.6505   13.3973   -0.3129 H   0  0  0  0  0  0  0  0  0  0  0  0
    3.0718   13.1085   -1.4468 H   0  0  0  0  0  0  0  0  0  0  0  0
    1.8327   15.4212   -1.6949 H   0  0  0  0  0  0  0  0  0  0  0  0
   -0.2380   12.9453   -4.1180 H   0  0  0  0  0  0  0  0  0  0  0  0
    2.4399   13.3811   -5.5799 H   0  0  0  0  0  0  0  0  0  0  0  0
    1.0476   12.3495   -6.1348 H   0  0  0  0  0  0  0  0  0  0  0  0
    1.1395   14.5174   -7.3222 H   0  0  0  0  0  0  0  0  0  0  0  0
   -0.3644   14.3114   -6.3410 H   0  0  0  0  0  0  0  0  0  0  0  0
    0.4470   16.5499   -6.0459 H   0  0  0  0  0  0  0  0  0  0  0  0
    2.7170   15.8230   -6.5430 H   0  0  0  0  0  0  0  0  0  0  0  0
   -1.2846   15.7477   -2.9410 H   0  0  0  0  0  0  0  0  0  0  0  0
   -1.3486   16.6469   -4.4947 H   0  0  0  0  0  0  0  0  0  0  0  0
   -1.3753   14.8508   -4.4947 H   0  0  0  0  0  0  0  0  0  0  0  0
    1.0228   16.9211   -2.3064 H   0  0  0  0  0  0  0  0  0  0  0  0
    2.0993   17.2390   -3.7088 H   0  0  0  0  0  0  0  0  0  0  0  0
    0.4157   17.8653   -3.7088 H   0  0  0  0  0  0  0  0  0  0  0  0
    3.5071   11.4942   -2.8941 H   0  0  0  0  0  0  0  0  0  0  0  0
    2.9919   10.6625   -4.4006 H   0  0  0  0  0  0  0  0  0  0  0  0
    3.2547   12.4394   -4.4006 H   0  0  0  0  0  0  0  0  0  0  0  0
    0.3607   10.7481   -5.0078 H   0  0  0  0  0  0  0  0  0  0  0  0
    1.2906    9.6981   -3.7963 H   0  0  0  0  0  0  0  0  0  0  0  0
   -1.4523   10.9387   -3.4440 H   0  0  0  0  0  0  0  0  0  0  0  0
   -1.0114    9.1899   -3.5622 H   0  0  0  0  0  0  0  0  0  0  0  0
    0.6879    8.8682   -0.3278 H   0  0  0  0  0  0  0  0  0  0  0  0
    0.2191    8.0494   -1.8564 H   0  0  0  0  0  0  0  0  0  0  0  0
    1.5463    9.2598   -1.8564 H   0  0  0  0  0  0  0  0  0  0  0  0
  1  2  1  0
  2  3  1  0
  3  4  1  0
  4  5  1  0
  5  6  1  0
  6  7  1  0
  7  8  1  0
  7  9  1  0
  2 10  1  0
 10 11  1  0
 11 12  1  0
 12 13  1  0
 13 14  1  1
 13 15  1  0
 15 16  1  0
 16 17  1  0
 17 18  2  0
 18 19  1  0
 19 20  1  0
 20 21  1  0
 21 22  1  0
 22 23  1  0
 22 24  1  0
 24 25  1  0
 24 26  1  0
 19 27  1  0
 27 28  1  6
 27 29  1  0
 29 30  1  0
 30 31  1  0
 31 32  1  6
  7  5  1  0
 31 10  1  0
 31 13  1  0
 27 15  1  0
 24 18  1  0
  1 33  1  0
  1 34  1  0
  1 35  1  0
  2 36  1  1
  3 37  1  0
  3 38  1  0
  4 39  1  0
  4 40  1  0
  5 41  1  1
  8 42  1  0
  8 43  1  0
  8 44  1  0
  9 45  1  0
  9 46  1  0
  9 47  1  0
 10 48  1  6
 11 49  1  0
 11 50  1  0
 12 51  1  0
 12 52  1  0
 14 53  1  0
 14 54  1  0
 14 55  1  0
 15 56  1  1
 16 57  1  0
 16 58  1  0
 17 59  1  0
 19 60  1  6
 20 61  1  0
 20 62  1  0
 21 63  1  0
 21 64  1  0
 22 65  1  6
 23 66  1  0
 25 67  1  0
 25 68  1  0
 25 69  1  0
 26 70  1  0
 26 71  1  0
 26 72  1  0
 28 73  1  0
 28 74  1  0
 28 75  1  0
 29 76  1  0
 29 77  1  0
 30 78  1  0
 30 79  1  0
 32 80  1  0
 32 81  1  0
 32 82  1  0
M  END
>  <meeko>  (15) 
{"is_sidechain": [false], "intermolecular_energy": 2.731, "internal_energy": -0.839}

$$$$
EPH_relaxed_0001_pdb2pqr_Repair_229_r2_0001_out
     RDKit          3D

 82 86  0  0  0  0  0  0  0  0999 V2000
    0.0600   10.6610   -4.1570 C   0  0  0  0  0  0  0  0  0  0  0  0
    1.0140   10.3430   -3.0020 C   0  0  2  0  0  0  0  0  0  0  0  0
    0.6150    9.0540   -2.2570 C   0  0  0  0  0  0  0  0  0  0  0  0
   -0.7030    8.4460   -2.7420 C   0  0  0  0  0  0  0  0  0  0  0  0
   -1.8780    8.9990   -1.9940 C   0  0  2  0  0  0  0  0  0  0  0  0
   -1.7080   10.3420   -1.5210 O   0  0  0  0  0  0  0  0  0  0  0  0
   -1.8480    9.3280   -0.5130 C   0  0  0  0  0  0  0  0  0  0  0  0
   -0.6150    9.1130    0.3080 C   0  0  0  0  0  0  0  0  0  0  0  0
   -3.1440    9.3930    0.2320 C   0  0  0  0  0  0  0  0  0  0  0  0
    1.0610   11.5150   -2.0290 C   0  0  1  0  0  0  0  0  0  0  0  0
    2.1020   11.3100   -0.8960 C   0  0  0  0  0  0  0  0  0  0  0  0
    2.6930   12.7070   -0.5730 C   0  0  0  0  0  0  0  0  0  0  0  0
    1.7480   13.7030   -1.2840 C   0  0  1  0  0  0  0  0  0  0  0  0
    0.5290   13.8570   -0.3220 C   0  0  0  0  0  0  0  0  0  0  0  0
    2.3630   15.0900   -1.6620 C   0  0  2  0  0  0  0  0  0  0  0  0
    2.8350   15.9410   -0.4700 C   0  0  0  0  0  0  0  0  0  0  0  0
    1.8110   16.8660    0.0990 C   0  0  0  0  0  0  0  0  0  0  0  0
    0.6580   17.2180   -0.5000 C   0  0  0  0  0  0  0  0  0  0  0  0
    0.3330   16.7480   -1.9230 C   0  0  1  0  0  0  0  0  0  0  0  0
   -0.1870   17.9470   -2.7590 C   0  0  0  0  0  0  0  0  0  0  0  0
   -1.3640   18.6560   -2.0960 C   0  0  0  0  0  0  0  0  0  0  0  0
   -0.9840   19.1600   -0.7060 C   0  0  2  0  0  0  0  0  0  0  0  0
   -0.0040   20.1940   -0.8430 O   0  0  0  0  0  0  0  0  0  0  0  0
   -0.4370   18.0410    0.2230 C   0  0  0  0  0  0  0  0  0  0  0  0
   -1.5880   17.0810    0.6150 C   0  0  0  0  0  0  0  0  0  0  0  0
    0.0400   18.7070    1.5420 C   0  0  0  0  0  0  0  0  0  0  0  0
    1.4820   15.9390   -2.6650 C   0  0  1  0  0  0  0  0  0  0  0  0
    2.4510   16.9280   -3.3820 C   0  0  0  0  0  0  0  0  0  0  0  0
    0.8390   15.0510   -3.7950 C   0  0  0  0  0  0  0  0  0  0  0  0
    0.3580   13.6460   -3.3860 C   0  0  0  0  0  0  0  0  0  0  0  0
    1.4440   12.9020   -2.6020 C   0  0  2  0  0  0  0  0  0  0  0  0
    2.6750   12.7130   -3.5530 C   0  0  0  0  0  0  0  0  0  0  0  0
   -0.9104   10.9845   -3.7525 H   0  0  0  0  0  0  0  0  0  0  0  0
    0.4866   11.4655   -4.7740 H   0  0  0  0  0  0  0  0  0  0  0  0
   -0.0814    9.7614   -4.7740 H   0  0  0  0  0  0  0  0  0  0  0  0
    2.0124   10.1783   -3.4333 H   0  0  0  0  0  0  0  0  0  0  0  0
    1.4131    8.3103   -2.3979 H   0  0  0  0  0  0  0  0  0  0  0  0
    0.4747    9.3240   -1.1999 H   0  0  0  0  0  0  0  0  0  0  0  0
   -0.8254    8.6682   -3.8124 H   0  0  0  0  0  0  0  0  0  0  0  0
   -0.6649    7.3608   -2.5660 H   0  0  0  0  0  0  0  0  0  0  0  0
   -2.5753    8.4060   -2.6039 H   0  0  0  0  0  0  0  0  0  0  0  0
   -0.8733    9.1580    1.3763 H   0  0  0  0  0  0  0  0  0  0  0  0
   -0.1871    8.1267    0.0755 H   0  0  0  0  0  0  0  0  0  0  0  0
    0.1215    9.8963    0.0755 H   0  0  0  0  0  0  0  0  0  0  0  0
   -2.9459    9.3831    1.3140 H   0  0  0  0  0  0  0  0  0  0  0  0
   -3.6745   10.3189   -0.0351 H   0  0  0  0  0  0  0  0  0  0  0  0
   -3.7644    8.5248   -0.0351 H   0  0  0  0  0  0  0  0  0  0  0  0
    0.0115   11.5216   -1.6995 H   0  0  0  0  0  0  0  0  0  0  0  0
    1.6136   10.8900   -0.0043 H   0  0  0  0  0  0  0  0  0  0  0  0
    2.8912   10.6096   -1.2069 H   0  0  0  0  0  0  0  0  0  0  0  0
    2.6992   12.8847    0.5125 H   0  0  0  0  0  0  0  0  0  0  0  0
    3.7354   12.8074   -0.9097 H   0  0  0  0  0  0  0  0  0  0  0  0
    0.8769   13.8131    0.7206 H   0  0  0  0  0  0  0  0  0  0  0  0
    0.0380   14.8243   -0.5042 H   0  0  0  0  0  0  0  0  0  0  0  0
   -0.1871   13.0422   -0.5042 H   0  0  0  0  0  0  0  0  0  0  0  0
    3.2758   14.8026   -2.2045 H   0  0  0  0  0  0  0  0  0  0  0  0
    3.1568   15.2572    0.3293 H   0  0  0  0  0  0  0  0  0  0  0  0
    3.6428   16.5811   -0.8544 H   0  0  0  0  0  0  0  0  0  0  0  0
    2.0156   17.2959    1.0906 H   0  0  0  0  0  0  0  0  0  0  0  0
   -0.4607   15.9934   -1.8200 H   0  0  0  0  0  0  0  0  0  0  0  0
    0.6327   18.6692   -2.8874 H   0  0  0  0  0  0  0  0  0  0  0  0
   -0.5355   17.5539   -3.7255 H   0  0  0  0  0  0  0  0  0  0  0  0
   -1.6666   19.5108   -2.7187 H   0  0  0  0  0  0  0  0  0  0  0  0
   -2.1937   17.9408   -1.9957 H   0  0  0  0  0  0  0  0  0  0  0  0
   -1.9001   19.5412   -0.2312 H   0  0  0  0  0  0  0  0  0  0  0  0
   -0.4770   21.0280   -1.0020 H   0  0  0  0  0  0  0  0  0  0  0  0
   -1.6589   17.0219    1.7111 H   0  0  0  0  0  0  0  0  0  0  0  0
   -2.5365   17.4595    0.2061 H   0  0  0  0  0  0  0  0  0  0  0  0
   -1.3859   16.0800    0.2061 H   0  0  0  0  0  0  0  0  0  0  0  0
   -0.3603   18.1480    2.4006 H   0  0  0  0  0  0  0  0  0  0  0  0
    1.1393   18.6994    1.5799 H   0  0  0  0  0  0  0  0  0  0  0  0
   -0.3210   19.7454    1.5799 H   0  0  0  0  0  0  0  0  0  0  0  0
    3.0126   17.5012   -2.6297 H   0  0  0  0  0  0  0  0  0  0  0  0
    3.1535   16.3617   -4.0111 H   0  0  0  0  0  0  0  0  0  0  0  0
    1.8705   17.6188   -4.0111 H   0  0  0  0  0  0  0  0  0  0  0  0
   -0.0289   15.5968   -4.1935 H   0  0  0  0  0  0  0  0  0  0  0  0
    1.6480   14.8781   -4.5200 H   0  0  0  0  0  0  0  0  0  0  0  0
   -0.5389   13.7417   -2.7563 H   0  0  0  0  0  0  0  0  0  0  0  0
    0.1290   13.0742   -4.2974 H   0  0  0  0  0  0  0  0  0  0  0  0
    3.5852   12.5733   -2.9513 H   0  0  0  0  0  0  0  0  0  0  0  0
    2.5157   11.8288   -4.1877 H   0  0  0  0  0  0  0  0  0  0  0  0
    2.7883   13.6043   -4.1877 H   0  0  0  0  0  0  0  0  0  0  0  0
  1  2  1  0
  2  3  1  0
  3  4  1  0
  4  5  1  0
  5  6  1  0
  6  7  1  0
  7  8  1  0
  7  9  1  0
  2 10  1  0
 10 11  1  0
 11 12  1  0
 12 13  1  0
 13 14  1  1
 13 15  1  0
 15 16  1  0
 16 17  1  0
 17 18  2  0
 18 19  1  0
 19 20  1  0
 20 21  1  0
 21 22  1  0
 22 23  1  0
 22 24  1  0
 24 25  1  0
 24 26  1  0
 19 27  1  0
 27 28  1  6
 27 29  1  0
 29 30  1  0
 30 31  1  0
 31 32  1  6
  7  5  1  0
 31 10  1  0
 31 13  1  0
 27 15  1  0
 24 18  1  0
  1 33  1  0
  1 34  1  0
  1 35  1  0
  2 36  1  6
  3 37  1  0
  3 38  1  0
  4 39  1  0
  4 40  1  0
  5 41  1  6
  8 42  1  0
  8 43  1  0
  8 44  1  0
  9 45  1  0
  9 46  1  0
  9 47  1  0
 10 48  1  1
 11 49  1  0
 11 50  1  0
 12 51  1  0
 12 52  1  0
 14 53  1  0
 14 54  1  0
 14 55  1  0
 15 56  1  6
 16 57  1  0
 16 58  1  0
 17 59  1  0
 19 60  1  1
 20 61  1  0
 20 62  1  0
 21 63  1  0
 21 64  1  0
 22 65  1  1
 23 66  1  0
 25 67  1  0
 25 68  1  0
 25 69  1  0
 26 70  1  0
 26 71  1  0
 26 72  1  0
 28 73  1  0
 28 74  1  0
 28 75  1  0
 29 76  1  0
 29 77  1  0
 30 78  1  0
 30 79  1  0
 32 80  1  0
 32 81  1  0
 32 82  1  0
M  END
>  <meeko>  (16) 
{"is_sidechain": [false], "intermolecular_energy": 2.731, "internal_energy": -0.839}

$$$$
EPH_relaxed_0001_pdb2pqr_Repair_229_r2_0001_out
     RDKit          3D

 82 86  0  0  0  0  0  0  0  0999 V2000
    0.2060    9.8330   -4.5630 C   0  0  0  0  0  0  0  0  0  0  0  0
    1.2790   10.5640   -3.7510 C   0  0  2  0  0  0  0  0  0  0  0  0
    1.7300    9.7510   -2.5200 C   0  0  0  0  0  0  0  0  0  0  0  0
    0.7330    8.6690   -2.0990 C   0  0  0  0  0  0  0  0  0  0  0  0
   -0.1390    9.1280   -0.9690 C   0  0  2  0  0  0  0  0  0  0  0  0
   -0.7280    8.0720   -0.2000 O   0  0  0  0  0  0  0  0  0  0  0  0
   -1.6400    8.9090   -0.9290 C   0  0  0  0  0  0  0  0  0  0  0  0
   -2.3560    8.2060   -2.0390 C   0  0  0  0  0  0  0  0  0  0  0  0
   -2.4700    9.7990   -0.0560 C   0  0  0  0  0  0  0  0  0  0  0  0
    0.7600   11.9280   -3.3130 C   0  0  1  0  0  0  0  0  0  0  0  0
   -0.7470   11.9040   -2.9460 C   0  0  0  0  0  0  0  0  0  0  0  0
   -0.9400   12.9060   -1.7780 C   0  0  0  0  0  0  0  0  0  0  0  0
    0.3810   13.7100   -1.7330 C   0  0  1  0  0  0  0  0  0  0  0  0
    0.2310   14.7900   -2.8500 C   0  0  0  0  0  0  0  0  0  0  0  0
    0.7520   14.3510   -0.3560 C   0  0  2  0  0  0  0  0  0  0  0  0
   -0.2440   15.4030    0.1640 C   0  0  0  0  0  0  0  0  0  0  0  0
    0.0400   16.8090   -0.2500 C   0  0  0  0  0  0  0  0  0  0  0  0
    1.2010   17.2530   -0.7670 C   0  0  0  0  0  0  0  0  0  0  0  0
    2.4150   16.3240   -0.8900 C   0  0  1  0  0  0  0  0  0  0  0  0
    3.6800   17.0520   -0.3660 C   0  0  0  0  0  0  0  0  0  0  0  0
    3.9040   18.3990   -1.0480 C   0  0  0  0  0  0  0  0  0  0  0  0
    2.7000   19.3160   -0.8540 C   0  0  2  0  0  0  0  0  0  0  0  0
    2.5980   19.6550    0.5330 O   0  0  0  0  0  0  0  0  0  0  0  0
    1.3640   18.6840   -1.3370 C   0  0  0  0  0  0  0  0  0  0  0  0
    1.3600   18.5950   -2.8830 C   0  0  0  0  0  0  0  0  0  0  0  0
    0.2120   19.6520   -0.9550 C   0  0  0  0  0  0  0  0  0  0  0  0
    2.2430   14.8730   -0.2650 C   0  0  1  0  0  0  0  0  0  0  0  0
    2.6140   14.8990    1.2500 C   0  0  0  0  0  0  0  0  0  0  0  0
    3.2630   13.8920   -0.9550 C   0  0  0  0  0  0  0  0  0  0  0  0
    2.7930   13.1970   -2.2470 C   0  0  0  0  0  0  0  0  0  0  0  0
    1.4100   12.5670   -2.0590 C   0  0  2  0  0  0  0  0  0  0  0  0
    1.5330   11.4610   -0.9570 C   0  0  0  0  0  0  0  0  0  0  0  0
   -0.5054    9.3484   -3.8781 H   0  0  0  0  0  0  0  0  0  0  0  0
   -0.3294   10.5550   -5.1971 H   0  0  0  0  0  0  0  0  0  0  0  0
    0.6820    9.0705   -5.1971 H   0  0  0  0  0  0  0  0  0  0  0  0
    2.1567   10.6920   -4.4016 H   0  0  0  0  0  0  0  0  0  0  0  0
    2.6891    9.2668   -2.7559 H   0  0  0  0  0  0  0  0  0  0  0  0
    1.8119   10.4571   -1.6805 H   0  0  0  0  0  0  0  0  0  0  0  0
    0.0969    8.4158   -2.9600 H   0  0  0  0  0  0  0  0  0  0  0  0
    1.3025    7.7918   -1.7582 H   0  0  0  0  0  0  0  0  0  0  0  0
    0.4800   10.0258   -0.8248 H   0  0  0  0  0  0  0  0  0  0  0  0
   -3.0804    7.4947   -1.6155 H   0  0  0  0  0  0  0  0  0  0  0  0
   -2.8862    8.9441   -2.6587 H   0  0  0  0  0  0  0  0  0  0  0  0
   -1.6277    7.6624   -2.6587 H   0  0  0  0  0  0  0  0  0  0  0  0
   -2.2609    9.5748    1.0004 H   0  0  0  0  0  0  0  0  0  0  0  0
   -2.2225   10.8505   -0.2636 H   0  0  0  0  0  0  0  0  0  0  0  0
   -3.5362    9.6254   -0.2636 H   0  0  0  0  0  0  0  0  0  0  0  0
    1.0098   12.5166   -4.2081 H   0  0  0  0  0  0  0  0  0  0  0  0
   -1.3525   12.2104   -3.8117 H   0  0  0  0  0  0  0  0  0  0  0  0
   -1.0662   10.8924   -2.6549 H   0  0  0  0  0  0  0  0  0  0  0  0
   -1.7935   13.5716   -1.9741 H   0  0  0  0  0  0  0  0  0  0  0  0
   -1.1538   12.4002   -0.8248 H   0  0  0  0  0  0  0  0  0  0  0  0
    0.0937   15.7788   -2.3879 H   0  0  0  0  0  0  0  0  0  0  0  0
    1.1364   14.7997   -3.4746 H   0  0  0  0  0  0  0  0  0  0  0  0
   -0.6428   14.5526   -3.4746 H   0  0  0  0  0  0  0  0  0  0  0  0
    0.6700   13.4963    0.3315 H   0  0  0  0  0  0  0  0  0  0  0  0
   -1.2449   15.1354   -0.2055 H   0  0  0  0  0  0  0  0  0  0  0  0
   -0.1603   15.3857    1.2607 H   0  0  0  0  0  0  0  0  0  0  0  0
   -0.7679   17.5445   -0.1217 H   0  0  0  0  0  0  0  0  0  0  0  0
    2.5262   16.1095   -1.9631 H   0  0  0  0  0  0  0  0  0  0  0  0
    3.5686   17.2185    0.7156 H   0  0  0  0  0  0  0  0  0  0  0  0
    4.5487   16.4155   -0.5899 H   0  0  0  0  0  0  0  0  0  0  0  0
    4.7946   18.8779   -0.6150 H   0  0  0  0  0  0  0  0  0  0  0  0
    4.0445   18.2277   -2.1254 H   0  0  0  0  0  0  0  0  0  0  0  0
    2.8643   20.2115   -1.4712 H   0  0  0  0  0  0  0  0  0  0  0  0
    1.6720   19.5260    0.8000 H   0  0  0  0  0  0  0  0  0  0  0  0
    1.3126   17.5396   -3.1894 H   0  0  0  0  0  0  0  0  0  0  0  0
    0.4851   19.1314   -3.2789 H   0  0  0  0  0  0  0  0  0  0  0  0
    2.2795   19.0508   -3.2789 H   0  0  0  0  0  0  0  0  0  0  0  0
    0.1353   19.7165    0.1404 H   0  0  0  0  0  0  0  0  0  0  0  0
    0.4200   20.6503   -1.3674 H   0  0  0  0  0  0  0  0  0  0  0  0
   -0.7356   19.2751   -1.3674 H   0  0  0  0  0  0  0  0  0  0  0  0
    1.6965   14.8347    1.8533 H   0  0  0  0  0  0  0  0  0  0  0  0
    3.2664   14.0444    1.4825 H   0  0  0  0  0  0  0  0  0  0  0  0
    3.1408   15.8363    1.4825 H   0  0  0  0  0  0  0  0  0  0  0  0
    4.1675   14.4691   -1.1977 H   0  0  0  0  0  0  0  0  0  0  0  0
    3.4156   13.0789   -0.2300 H   0  0  0  0  0  0  0  0  0  0  0  0
    2.7430   13.9394   -3.0572 H   0  0  0  0  0  0  0  0  0  0  0  0
    3.5097   12.4010   -2.4975 H   0  0  0  0  0  0  0  0  0  0  0  0
    1.4811   11.9273    0.0379 H   0  0  0  0  0  0  0  0  0  0  0  0
    0.7095   10.7402   -1.0674 H   0  0  0  0  0  0  0  0  0  0  0  0
    2.4948   10.9387   -1.0674 H   0  0  0  0  0  0  0  0  0  0  0  0
  1  2  1  0
  2  3  1  0
  3  4  1  0
  4  5  1  0
  5  6  1  0
  6  7  1  0
  7  8  1  0
  7  9  1  0
  2 10  1  0
 10 11  1  0
 11 12  1  0
 12 13  1  0
 13 14  1  6
 13 15  1  0
 15 16  1  0
 16 17  1  0
 17 18  2  0
 18 19  1  0
 19 20  1  0
 20 21  1  0
 21 22  1  0
 22 23  1  0
 22 24  1  0
 24 25  1  0
 24 26  1  0
 19 27  1  0
 27 28  1  1
 27 29  1  0
 29 30  1  0
 30 31  1  0
 31 32  1  1
  7  5  1  0
 31 10  1  0
 31 13  1  0
 27 15  1  0
 24 18  1  0
  1 33  1  0
  1 34  1  0
  1 35  1  0
  2 36  1  6
  3 37  1  0
  3 38  1  0
  4 39  1  0
  4 40  1  0
  5 41  1  1
  8 42  1  0
  8 43  1  0
  8 44  1  0
  9 45  1  0
  9 46  1  0
  9 47  1  0
 10 48  1  6
 11 49  1  0
 11 50  1  0
 12 51  1  0
 12 52  1  0
 14 53  1  0
 14 54  1  0
 14 55  1  0
 15 56  1  1
 16 57  1  0
 16 58  1  0
 17 59  1  0
 19 60  1  6
 20 61  1  0
 20 62  1  0
 21 63  1  0
 21 64  1  0
 22 65  1  6
 23 66  1  0
 25 67  1  0
 25 68  1  0
 25 69  1  0
 26 70  1  0
 26 71  1  0
 26 72  1  0
 28 73  1  0
 28 74  1  0
 28 75  1  0
 29 76  1  0
 29 77  1  0
 30 78  1  0
 30 79  1  0
 32 80  1  0
 32 81  1  0
 32 82  1  0
M  END
>  <meeko>  (17) 
{"is_sidechain": [false], "intermolecular_energy": 2.731, "internal_energy": -0.839}

$$$$
EPH_relaxed_0001_pdb2pqr_Repair_229_r2_0001_out
     RDKit          3D

 82 86  0  0  0  0  0  0  0  0999 V2000
    0.9250   14.9190   -2.6440 C   0  0  0  0  0  0  0  0  0  0  0  0
    1.1710   14.2480   -3.9980 C   0  0  2  0  0  0  0  0  0  0  0  0
    0.4510   14.9790   -5.1490 C   0  0  0  0  0  0  0  0  0  0  0  0
    0.9530   14.5830   -6.5400 C   0  0  0  0  0  0  0  0  0  0  0  0
    0.7350   15.6780   -7.5400 C   0  0  2  0  0  0  0  0  0  0  0  0
    0.3910   15.2270   -8.8560 O   0  0  0  0  0  0  0  0  0  0  0  0
    1.6450   15.9160   -8.7310 C   0  0  0  0  0  0  0  0  0  0  0  0
    2.8420   15.0540   -8.9840 C   0  0  0  0  0  0  0  0  0  0  0  0
    1.6540   17.2720   -9.3650 C   0  0  0  0  0  0  0  0  0  0  0  0
    0.7250   12.7920   -3.9460 C   0  0  1  0  0  0  0  0  0  0  0  0
    1.8550   11.8060   -4.3440 C   0  0  0  0  0  0  0  0  0  0  0  0
    1.6680   10.5360   -3.4740 C   0  0  0  0  0  0  0  0  0  0  0  0
    0.2610   10.6940   -2.8510 C   0  0  1  0  0  0  0  0  0  0  0  0
   -0.7250   10.2270   -3.9680 C   0  0  0  0  0  0  0  0  0  0  0  0
    0.0110    9.9360   -1.5070 C   0  0  2  0  0  0  0  0  0  0  0  0
    0.1190    8.4030   -1.5920 C   0  0  0  0  0  0  0  0  0  0  0  0
   -1.1550    7.6910   -1.9040 C   0  0  0  0  0  0  0  0  0  0  0  0
   -2.3880    8.2250   -1.8290 C   0  0  0  0  0  0  0  0  0  0  0  0
   -2.5990    9.6490   -1.3000 C   0  0  1  0  0  0  0  0  0  0  0  0
   -3.7690    9.6550   -0.2810 C   0  0  0  0  0  0  0  0  0  0  0  0
   -5.0470    9.0500   -0.8530 C   0  0  0  0  0  0  0  0  0  0  0  0
   -4.8110    7.6140   -1.3140 C   0  0  2  0  0  0  0  0  0  0  0  0
   -4.5390    6.8010   -0.1690 O   0  0  0  0  0  0  0  0  0  0  0  0
   -3.6490    7.4820   -2.3380 C   0  0  0  0  0  0  0  0  0  0  0  0
   -4.0710    8.1100   -3.6890 C   0  0  0  0  0  0  0  0  0  0  0  0
   -3.4240    5.9710   -2.6130 C   0  0  0  0  0  0  0  0  0  0  0  0
   -1.3020   10.3820   -0.7460 C   0  0  1  0  0  0  0  0  0  0  0  0
   -1.0900   10.0230    0.7570 C   0  0  0  0  0  0  0  0  0  0  0  0
   -1.5280   11.9390   -0.8030 C   0  0  0  0  0  0  0  0  0  0  0  0
   -1.1500   12.6480   -2.1180 C   0  0  0  0  0  0  0  0  0  0  0  0
    0.2540   12.2410   -2.5760 C   0  0  2  0  0  0  0  0  0  0  0  0
    1.2700   12.7180   -1.4830 C   0  0  0  0  0  0  0  0  0  0  0  0
    1.1818   14.2186   -1.8356 H   0  0  0  0  0  0  0  0  0  0  0  0
    1.5515   15.8194   -2.5618 H   0  0  0  0  0  0  0  0  0  0  0  0
   -0.1350   15.2011   -2.5618 H   0  0  0  0  0  0  0  0  0  0  0  0
    2.2511   14.2988   -4.1999 H   0  0  0  0  0  0  0  0  0  0  0  0
   -0.6228   14.7483   -5.0888 H   0  0  0  0  0  0  0  0  0  0  0  0
    0.6576   16.0525   -5.0266 H   0  0  0  0  0  0  0  0  0  0  0  0
    2.0291   14.3627   -6.4814 H   0  0  0  0  0  0  0  0  0  0  0  0
    0.3874   13.6992   -6.8702 H   0  0  0  0  0  0  0  0  0  0  0  0
    0.3532   16.3496   -6.7569 H   0  0  0  0  0  0  0  0  0  0  0  0
    3.2775   14.7404   -8.0238 H   0  0  0  0  0  0  0  0  0  0  0  0
    2.5393   14.1652   -9.5571 H   0  0  0  0  0  0  0  0  0  0  0  0
    3.5890   15.6229   -9.5571 H   0  0  0  0  0  0  0  0  0  0  0  0
    1.6591   18.0434   -8.5808 H   0  0  0  0  0  0  0  0  0  0  0  0
    2.5529   17.3786   -9.9900 H   0  0  0  0  0  0  0  0  0  0  0  0
    0.7566   17.3905   -9.9900 H   0  0  0  0  0  0  0  0  0  0  0  0
   -0.1219   12.8338   -4.6467 H   0  0  0  0  0  0  0  0  0  0  0  0
    1.7755   11.5494   -5.4107 H   0  0  0  0  0  0  0  0  0  0  0  0
    2.8460   12.2544   -4.1803 H   0  0  0  0  0  0  0  0  0  0  0  0
    1.7184    9.6292   -4.0946 H   0  0  0  0  0  0  0  0  0  0  0  0
    2.4533   10.4338   -2.7106 H   0  0  0  0  0  0  0  0  0  0  0  0
   -1.6271    9.7998   -3.5057 H   0  0  0  0  0  0  0  0  0  0  0  0
   -1.0057   11.0878   -4.5926 H   0  0  0  0  0  0  0  0  0  0  0  0
   -0.2368    9.4644   -4.5926 H   0  0  0  0  0  0  0  0  0  0  0  0
    0.8625   10.2612   -0.8912 H   0  0  0  0  0  0  0  0  0  0  0  0
    0.8476    8.1566   -2.3784 H   0  0  0  0  0  0  0  0  0  0  0  0
    0.4205    8.0629   -0.5903 H   0  0  0  0  0  0  0  0  0  0  0  0
   -1.0798    6.6407   -2.2222 H   0  0  0  0  0  0  0  0  0  0  0  0
   -2.8630   10.2624   -2.1741 H   0  0  0  0  0  0  0  0  0  0  0  0
   -3.4691    9.0738    0.6035 H   0  0  0  0  0  0  0  0  0  0  0  0
   -3.9821   10.7031   -0.0240 H   0  0  0  0  0  0  0  0  0  0  0  0
   -5.8268    9.0556   -0.0771 H   0  0  0  0  0  0  0  0  0  0  0  0
   -5.3627    9.6498   -1.7193 H   0  0  0  0  0  0  0  0  0  0  0  0
   -5.7227    7.2794   -1.8306 H   0  0  0  0  0  0  0  0  0  0  0  0
   -3.9850    7.3220    0.4370 H   0  0  0  0  0  0  0  0  0  0  0  0
   -4.6756    9.0097   -3.5022 H   0  0  0  0  0  0  0  0  0  0  0  0
   -3.1731    8.3841   -4.2623 H   0  0  0  0  0  0  0  0  0  0  0  0
   -4.6641    7.3823   -4.2623 H   0  0  0  0  0  0  0  0  0  0  0  0
   -3.3438    5.4323   -1.6573 H   0  0  0  0  0  0  0  0  0  0  0  0
   -4.2727    5.5727   -3.1883 H   0  0  0  0  0  0  0  0  0  0  0  0
   -2.4960    5.8372   -3.1883 H   0  0  0  0  0  0  0  0  0  0  0  0
   -1.5483   10.7991    1.3875 H   0  0  0  0  0  0  0  0  0  0  0  0
   -1.5594    9.0517    0.9717 H   0  0  0  0  0  0  0  0  0  0  0  0
   -0.0127    9.9650    0.9717 H   0  0  0  0  0  0  0  0  0  0  0  0
   -2.5959   12.1273   -0.6184 H   0  0  0  0  0  0  0  0  0  0  0  0
   -0.8487   12.3565   -0.0452 H   0  0  0  0  0  0  0  0  0  0  0  0
   -1.8765   12.3730   -2.8969 H   0  0  0  0  0  0  0  0  0  0  0  0
   -1.1620   13.7345   -1.9468 H   0  0  0  0  0  0  0  0  0  0  0  0
    0.8528   12.5221   -0.4842 H   0  0  0  0  0  0  0  0  0  0  0  0
    2.2170   12.1704   -1.5987 H   0  0  0  0  0  0  0  0  0  0  0  0
    1.4536   13.7964   -1.5987 H   0  0  0  0  0  0  0  0  0  0  0  0
  1  2  1  0
  2  3  1  0
  3  4  1  0
  4  5  1  0
  5  6  1  0
  6  7  1  0
  7  8  1  0
  7  9  1  0
  2 10  1  0
 10 11  1  0
 11 12  1  0
 12 13  1  0
 13 14  1  6
 13 15  1  0
 15 16  1  0
 16 17  1  0
 17 18  2  0
 18 19  1  0
 19 20  1  0
 20 21  1  0
 21 22  1  0
 22 23  1  0
 22 24  1  0
 24 25  1  0
 24 26  1  0
 19 27  1  0
 27 28  1  1
 27 29  1  0
 29 30  1  0
 30 31  1  0
 31 32  1  1
  7  5  1  0
 31 10  1  0
 31 13  1  0
 27 15  1  0
 24 18  1  0
  1 33  1  0
  1 34  1  0
  1 35  1  0
  2 36  1  6
  3 37  1  0
  3 38  1  0
  4 39  1  0
  4 40  1  0
  5 41  1  1
  8 42  1  0
  8 43  1  0
  8 44  1  0
  9 45  1  0
  9 46  1  0
  9 47  1  0
 10 48  1  6
 11 49  1  0
 11 50  1  0
 12 51  1  0
 12 52  1  0
 14 53  1  0
 14 54  1  0
 14 55  1  0
 15 56  1  1
 16 57  1  0
 16 58  1  0
 17 59  1  0
 19 60  1  6
 20 61  1  0
 20 62  1  0
 21 63  1  0
 21 64  1  0
 22 65  1  6
 23 66  1  0
 25 67  1  0
 25 68  1  0
 25 69  1  0
 26 70  1  0
 26 71  1  0
 26 72  1  0
 28 73  1  0
 28 74  1  0
 28 75  1  0
 29 76  1  0
 29 77  1  0
 30 78  1  0
 30 79  1  0
 32 80  1  0
 32 81  1  0
 32 82  1  0
M  END
>  <meeko>  (18) 
{"is_sidechain": [false], "intermolecular_energy": 2.731, "internal_energy": -0.839}

$$$$
EPH_relaxed_0001_pdb2pqr_Repair_229_r2_0001_out
     RDKit          3D

 82 86  0  0  0  0  0  0  0  0999 V2000
    0.4460   18.8690   -2.4210 C   0  0  0  0  0  0  0  0  0  0  0  0
    0.0900   17.8770   -1.3110 C   0  0  2  0  0  0  0  0  0  0  0  0
    0.7570   18.2410    0.0300 C   0  0  0  0  0  0  0  0  0  0  0  0
    1.4830   19.5900    0.0100 C   0  0  0  0  0  0  0  0  0  0  0  0
    2.4840   19.6970    1.1210 C   0  0  2  0  0  0  0  0  0  0  0  0
    3.7680   20.1950    0.7230 O   0  0  0  0  0  0  0  0  0  0  0  0
    3.7340   18.8420    1.2060 C   0  0  0  0  0  0  0  0  0  0  0  0
    4.0490   17.8150    0.1640 C   0  0  0  0  0  0  0  0  0  0  0  0
    4.3880   18.6620    2.5410 C   0  0  0  0  0  0  0  0  0  0  0  0
    0.4920   16.4660   -1.7260 C   0  0  1  0  0  0  0  0  0  0  0  0
    1.8780   16.4210   -2.4240 C   0  0  0  0  0  0  0  0  0  0  0  0
    2.5460   15.0860   -2.0060 C   0  0  0  0  0  0  0  0  0  0  0  0
    1.4060   14.2650   -1.3610 C   0  0  1  0  0  0  0  0  0  0  0  0
    0.6280   13.6440   -2.5630 C   0  0  0  0  0  0  0  0  0  0  0  0
    1.8390   13.1730   -0.3290 C   0  0  2  0  0  0  0  0  0  0  0  0
    2.7170   12.0460   -0.9010 C   0  0  0  0  0  0  0  0  0  0  0  0
    1.9750   10.8600   -1.4210 C   0  0  0  0  0  0  0  0  0  0  0  0
    0.6820   10.5770   -1.1730 C   0  0  0  0  0  0  0  0  0  0  0  0
   -0.1440   11.4430   -0.2140 C   0  0  1  0  0  0  0  0  0  0  0  0
   -0.9350   10.5290    0.7580 C   0  0  0  0  0  0  0  0  0  0  0  0
   -1.7850    9.4940    0.0270 C   0  0  0  0  0  0  0  0  0  0  0  0
   -0.9190    8.6140   -0.8710 C   0  0  2  0  0  0  0  0  0  0  0  0
   -0.0590    7.8210   -0.0490 O   0  0  0  0  0  0  0  0  0  0  0  0
   -0.0690    9.4260   -1.8880 C   0  0  0  0  0  0  0  0  0  0  0  0
   -0.9940   10.0440   -2.9640 C   0  0  0  0  0  0  0  0  0  0  0  0
    0.8610    8.4310   -2.6340 C   0  0  0  0  0  0  0  0  0  0  0  0
    0.6500   12.5940    0.5400 C   0  0  1  0  0  0  0  0  0  0  0  0
    1.2870   12.0320    1.8480 C   0  0  0  0  0  0  0  0  0  0  0  0
   -0.3650   13.7120    0.9860 C   0  0  0  0  0  0  0  0  0  0  0  0
   -0.6610   14.8280   -0.0340 C   0  0  0  0  0  0  0  0  0  0  0  0
    0.6370   15.4080   -0.6040 C   0  0  2  0  0  0  0  0  0  0  0  0
    1.4310   16.0590    0.5800 C   0  0  0  0  0  0  0  0  0  0  0  0
    0.7853   19.8145   -1.9728 H   0  0  0  0  0  0  0  0  0  0  0  0
    1.2496   18.4493   -3.0440 H   0  0  0  0  0  0  0  0  0  0  0  0
   -0.4411   19.0561   -3.0440 H   0  0  0  0  0  0  0  0  0  0  0  0
   -0.9988   17.9253   -1.1618 H   0  0  0  0  0  0  0  0  0  0  0  0
   -0.0212   18.2768    0.8066 H   0  0  0  0  0  0  0  0  0  0  0  0
    1.5156   17.4704    0.2316 H   0  0  0  0  0  0  0  0  0  0  0  0
    2.0050   19.6998   -0.9520 H   0  0  0  0  0  0  0  0  0  0  0  0
    0.7344   20.3846    0.1450 H   0  0  0  0  0  0  0  0  0  0  0  0
    1.6885   19.9145    1.8489 H   0  0  0  0  0  0  0  0  0  0  0  0
    4.3379   16.8730    0.6531 H   0  0  0  0  0  0  0  0  0  0  0  0
    3.1616   17.6452   -0.4635 H   0  0  0  0  0  0  0  0  0  0  0  0
    4.8790   18.1719   -0.4635 H   0  0  0  0  0  0  0  0  0  0  0  0
    3.6567   18.8633    3.3377 H   0  0  0  0  0  0  0  0  0  0  0  0
    4.7555   17.6293    2.6330 H   0  0  0  0  0  0  0  0  0  0  0  0
    5.2322   19.3612    2.6330 H   0  0  0  0  0  0  0  0  0  0  0  0
   -0.3618   16.2139   -2.3721 H   0  0  0  0  0  0  0  0  0  0  0  0
    1.7534   16.4565   -3.5163 H   0  0  0  0  0  0  0  0  0  0  0  0
    2.4967   17.2815   -2.1295 H   0  0  0  0  0  0  0  0  0  0  0  0
    2.9521   14.5632   -2.8845 H   0  0  0  0  0  0  0  0  0  0  0  0
    3.3905   15.2395   -1.3181 H   0  0  0  0  0  0  0  0  0  0  0  0
   -0.1790   12.9998   -2.1839 H   0  0  0  0  0  0  0  0  0  0  0  0
    0.1970   14.4492   -3.1761 H   0  0  0  0  0  0  0  0  0  0  0  0
    1.3176   13.0453   -3.1761 H   0  0  0  0  0  0  0  0  0  0  0  0
    2.4878   13.7398    0.3550 H   0  0  0  0  0  0  0  0  0  0  0  0
    3.3109   12.4641   -1.7271 H   0  0  0  0  0  0  0  0  0  0  0  0
    3.3259   11.6793   -0.0615 H   0  0  0  0  0  0  0  0  0  0  0  0
    2.5308   10.1583   -2.0603 H   0  0  0  0  0  0  0  0  0  0  0  0
   -0.8437   12.0116   -0.8442 H   0  0  0  0  0  0  0  0  0  0  0  0
   -0.2201   10.0028    1.4076 H   0  0  0  0  0  0  0  0  0  0  0  0
   -1.6151   11.1691    1.3392 H   0  0  0  0  0  0  0  0  0  0  0  0
   -2.2965    8.8606    0.7668 H   0  0  0  0  0  0  0  0  0  0  0  0
   -2.5189   10.0214   -0.6001 H   0  0  0  0  0  0  0  0  0  0  0  0
   -1.5955    7.9805   -1.4634 H   0  0  0  0  0  0  0  0  0  0  0  0
   -0.2200    6.8870   -0.2680 H   0  0  0  0  0  0  0  0  0  0  0  0
   -1.8127   10.5910   -2.4735 H   0  0  0  0  0  0  0  0  0  0  0  0
   -0.4144   10.7369   -3.5916 H   0  0  0  0  0  0  0  0  0  0  0  0
   -1.4123    9.2433   -3.5916 H   0  0  0  0  0  0  0  0  0  0  0  0
    1.4208    7.8321   -1.9006 H   0  0  0  0  0  0  0  0  0  0  0  0
    0.2543    7.7648   -3.2649 H   0  0  0  0  0  0  0  0  0  0  0  0
    1.5666    8.9913   -3.2649 H   0  0  0  0  0  0  0  0  0  0  0  0
    0.7845   12.4753    2.7204 H   0  0  0  0  0  0  0  0  0  0  0  0
    1.1687   10.9387    1.8731 H   0  0  0  0  0  0  0  0  0  0  0  0
    2.3571   12.2857    1.8731 H   0  0  0  0  0  0  0  0  0  0  0  0
   -1.3186   13.2191    1.2262 H   0  0  0  0  0  0  0  0  0  0  0  0
    0.1187   14.2182    1.8344 H   0  0  0  0  0  0  0  0  0  0  0  0
   -1.2617   14.4133   -0.8569 H   0  0  0  0  0  0  0  0  0  0  0  0
   -1.2105   15.6328    0.4762 H   0  0  0  0  0  0  0  0  0  0  0  0
    1.0109   15.7145    1.5365 H   0  0  0  0  0  0  0  0  0  0  0  0
    2.4892   15.7652    0.5173 H   0  0  0  0  0  0  0  0  0  0  0  0
    1.3503   17.1542    0.5173 H   0  0  0  0  0  0  0  0  0  0  0  0
  1  2  1  0
  2  3  1  0
  3  4  1  0
  4  5  1  0
  5  6  1  0
  6  7  1  0
  7  8  1  0
  7  9  1  0
  2 10  1  0
 10 11  1  0
 11 12  1  0
 12 13  1  0
 13 14  1  6
 13 15  1  0
 15 16  1  0
 16 17  1  0
 17 18  2  0
 18 19  1  0
 19 20  1  0
 20 21  1  0
 21 22  1  0
 22 23  1  0
 22 24  1  0
 24 25  1  0
 24 26  1  0
 19 27  1  0
 27 28  1  1
 27 29  1  0
 29 30  1  0
 30 31  1  0
 31 32  1  1
  7  5  1  0
 31 10  1  0
 31 13  1  0
 27 15  1  0
 24 18  1  0
  1 33  1  0
  1 34  1  0
  1 35  1  0
  2 36  1  1
  3 37  1  0
  3 38  1  0
  4 39  1  0
  4 40  1  0
  5 41  1  1
  8 42  1  0
  8 43  1  0
  8 44  1  0
  9 45  1  0
  9 46  1  0
  9 47  1  0
 10 48  1  6
 11 49  1  0
 11 50  1  0
 12 51  1  0
 12 52  1  0
 14 53  1  0
 14 54  1  0
 14 55  1  0
 15 56  1  1
 16 57  1  0
 16 58  1  0
 17 59  1  0
 19 60  1  6
 20 61  1  0
 20 62  1  0
 21 63  1  0
 21 64  1  0
 22 65  1  6
 23 66  1  0
 25 67  1  0
 25 68  1  0
 25 69  1  0
 26 70  1  0
 26 71  1  0
 26 72  1  0
 28 73  1  0
 28 74  1  0
 28 75  1  0
 29 76  1  0
 29 77  1  0
 30 78  1  0
 30 79  1  0
 32 80  1  0
 32 81  1  0
 32 82  1  0
M  END
>  <meeko>  (19) 
{"is_sidechain": [false], "intermolecular_energy": 2.731, "internal_energy": -0.839}

$$$$
