EPH_relaxed_0001_pdb2pqr_Repair_102_r2_0001_out
     RDKit          3D

 82 86  0  0  0  0  0  0  0  0999 V2000
   -1.6160    8.5710   -1.9260 C   0  0  0  0  0  0  0  0  0  0  0  0
   -2.0260    9.0370   -0.5260 C   0  0  2  0  0  0  0  0  0  0  0  0
   -3.5390    9.3210   -0.4290 C   0  0  0  0  0  0  0  0  0  0  0  0
   -4.4010    8.0570   -0.3940 C   0  0  0  0  0  0  0  0  0  0  0  0
   -5.6670    8.2280   -1.1780 C   0  0  2  0  0  0  0  0  0  0  0  0
   -6.6140    7.1620   -1.0280 O   0  0  0  0  0  0  0  0  0  0  0  0
   -6.0580    7.3350   -2.3410 C   0  0  0  0  0  0  0  0  0  0  0  0
   -5.1830    6.2050   -2.7860 C   0  0  0  0  0  0  0  0  0  0  0  0
   -7.0370    7.8560   -3.3460 C   0  0  0  0  0  0  0  0  0  0  0  0
   -1.2360   10.2820   -0.1410 C   0  0  1  0  0  0  0  0  0  0  0  0
   -0.2770   10.0350    1.0540 C   0  0  0  0  0  0  0  0  0  0  0  0
    0.9830   10.9020    0.8020 C   0  0  0  0  0  0  0  0  0  0  0  0
    0.5750   11.8620   -0.3400 C   0  0  1  0  0  0  0  0  0  0  0  0
   -0.2250   13.0040    0.3610 C   0  0  0  0  0  0  0  0  0  0  0  0
    1.7390   12.4270   -1.2170 C   0  0  2  0  0  0  0  0  0  0  0  0
    2.7620   13.2950   -0.4640 C   0  0  0  0  0  0  0  0  0  0  0  0
    2.4550   14.7560   -0.4290 C   0  0  0  0  0  0  0  0  0  0  0  0
    1.5620   15.3860   -1.2140 C   0  0  0  0  0  0  0  0  0  0  0  0
    0.8200   14.6330   -2.3250 C   0  0  1  0  0  0  0  0  0  0  0  0
    0.8540   15.4700   -3.6300 C   0  0  0  0  0  0  0  0  0  0  0  0
    0.3240   16.8870   -3.4310 C   0  0  0  0  0  0  0  0  0  0  0  0
    1.1240   17.6230   -2.3600 C   0  0  2  0  0  0  0  0  0  0  0  0
    2.4560   17.8290   -2.8400 O   0  0  0  0  0  0  0  0  0  0  0  0
    1.1680   16.8690   -1.0020 C   0  0  0  0  0  0  0  0  0  0  0  0
   -0.2300   16.9100   -0.3380 C   0  0  0  0  0  0  0  0  0  0  0  0
    2.1210   17.6470   -0.0550 C   0  0  0  0  0  0  0  0  0  0  0  0
    1.2630   13.1240   -2.5560 C   0  0  1  0  0  0  0  0  0  0  0  0
    2.4710   13.0700   -3.5400 C   0  0  0  0  0  0  0  0  0  0  0  0
    0.0870   12.3430   -3.2520 C   0  0  0  0  0  0  0  0  0  0  0  0
   -0.9670   11.7060   -2.3270 C   0  0  0  0  0  0  0  0  0  0  0  0
   -0.3000   10.8910   -1.2140 C   0  0  2  0  0  0  0  0  0  0  0  0
    0.4940    9.7210   -1.8890 C   0  0  0  0  0  0  0  0  0  0  0  0
   -0.8916    7.7476   -1.8409 H   0  0  0  0  0  0  0  0  0  0  0  0
   -2.5053    8.2221   -2.4714 H   0  0  0  0  0  0  0  0  0  0  0  0
   -1.1567    9.4086   -2.4714 H   0  0  0  0  0  0  0  0  0  0  0  0
   -1.7979    8.2208    0.1753 H   0  0  0  0  0  0  0  0  0  0  0  0
   -3.7264    9.8948    0.4906 H   0  0  0  0  0  0  0  0  0  0  0  0
   -3.8205    9.8772   -1.3353 H   0  0  0  0  0  0  0  0  0  0  0  0
   -3.8268    7.2219   -0.8217 H   0  0  0  0  0  0  0  0  0  0  0  0
   -4.6706    7.8544    0.6530 H   0  0  0  0  0  0  0  0  0  0  0  0
   -5.6114    9.3216   -1.0731 H   0  0  0  0  0  0  0  0  0  0  0  0
   -4.7799    5.6844   -1.9048 H   0  0  0  0  0  0  0  0  0  0  0  0
   -5.7732    5.5002   -3.3901 H   0  0  0  0  0  0  0  0  0  0  0  0
   -4.3529    6.6000   -3.3901 H   0  0  0  0  0  0  0  0  0  0  0  0
   -7.8916    8.3108   -2.8237 H   0  0  0  0  0  0  0  0  0  0  0  0
   -6.5475    8.6129   -3.9765 H   0  0  0  0  0  0  0  0  0  0  0  0
   -7.3914    7.0272   -3.9765 H   0  0  0  0  0  0  0  0  0  0  0  0
   -2.0680   10.9710    0.0665 H   0  0  0  0  0  0  0  0  0  0  0  0
   -0.7604   10.3338    1.9958 H   0  0  0  0  0  0  0  0  0  0  0  0
   -0.0140    8.9701    1.1361 H   0  0  0  0  0  0  0  0  0  0  0  0
    1.2526   11.4671    1.7064 H   0  0  0  0  0  0  0  0  0  0  0  0
    1.8620   10.2941    0.5415 H   0  0  0  0  0  0  0  0  0  0  0  0
   -0.1457   12.8908    1.4523 H   0  0  0  0  0  0  0  0  0  0  0  0
    0.1890   13.9784    0.0624 H   0  0  0  0  0  0  0  0  0  0  0  0
   -1.2822   12.9478    0.0624 H   0  0  0  0  0  0  0  0  0  0  0  0
    2.2792   11.5139   -1.5074 H   0  0  0  0  0  0  0  0  0  0  0  0
    2.8159   12.9339    0.5737 H   0  0  0  0  0  0  0  0  0  0  0  0
    3.7092   13.1959   -1.0144 H   0  0  0  0  0  0  0  0  0  0  0  0
    3.0053   15.3689    0.3000 H   0  0  0  0  0  0  0  0  0  0  0  0
   -0.2182   14.5252   -1.9777 H   0  0  0  0  0  0  0  0  0  0  0  0
    1.8938   15.5290   -3.9839 H   0  0  0  0  0  0  0  0  0  0  0  0
    0.2040   14.9707   -4.3636 H   0  0  0  0  0  0  0  0  0  0  0  0
    0.4020   17.4372   -4.3803 H   0  0  0  0  0  0  0  0  0  0  0  0
   -0.7253   16.8271   -3.1063 H   0  0  0  0  0  0  0  0  0  0  0  0
    0.6179   18.5810   -2.1699 H   0  0  0  0  0  0  0  0  0  0  0  0
    2.4080   18.4530   -3.5830 H   0  0  0  0  0  0  0  0  0  0  0  0
   -0.1165   16.9067    0.7561 H   0  0  0  0  0  0  0  0  0  0  0  0
   -0.7571   17.8240   -0.6492 H   0  0  0  0  0  0  0  0  0  0  0  0
   -0.8097   16.0285   -0.6492 H   0  0  0  0  0  0  0  0  0  0  0  0
    1.8560   17.4307    0.9905 H   0  0  0  0  0  0  0  0  0  0  0  0
    3.1591   17.3350   -0.2422 H   0  0  0  0  0  0  0  0  0  0  0  0
    2.0231   18.7265   -0.2422 H   0  0  0  0  0  0  0  0  0  0  0  0
    3.4091   13.0281   -2.9670 H   0  0  0  0  0  0  0  0  0  0  0  0
    2.3880   12.1747   -4.1736 H   0  0  0  0  0  0  0  0  0  0  0  0
    2.4683   13.9692   -4.1736 H   0  0  0  0  0  0  0  0  0  0  0  0
   -0.4350   13.0489   -3.9147 H   0  0  0  0  0  0  0  0  0  0  0  0
    0.5675   11.4975   -3.7659 H   0  0  0  0  0  0  0  0  0  0  0  0
   -1.5764   12.5020   -1.8742 H   0  0  0  0  0  0  0  0  0  0  0  0
   -1.5971   11.0317   -2.9257 H   0  0  0  0  0  0  0  0  0  0  0  0
    0.9307    9.0775   -1.1110 H   0  0  0  0  0  0  0  0  0  0  0  0
   -0.1888    9.1277   -2.5149 H   0  0  0  0  0  0  0  0  0  0  0  0
    1.2975   10.1364   -2.5149 H   0  0  0  0  0  0  0  0  0  0  0  0
  1  2  1  0
  2  3  1  0
  3  4  1  0
  4  5  1  0
  5  6  1  0
  6  7  1  0
  7  8  1  0
  7  9  1  0
  2 10  1  0
 10 11  1  0
 11 12  1  0
 12 13  1  0
 13 14  1  1
 13 15  1  0
 15 16  1  0
 16 17  1  0
 17 18  2  0
 18 19  1  0
 19 20  1  0
 20 21  1  0
 21 22  1  0
 22 23  1  0
 22 24  1  0
 24 25  1  0
 24 26  1  0
 19 27  1  0
 27 28  1  6
 27 29  1  0
 29 30  1  0
 30 31  1  0
 31 32  1  6
  7  5  1  0
 31 10  1  0
 31 13  1  0
 27 15  1  0
 24 18  1  0
  1 33  1  0
  1 34  1  0
  1 35  1  0
  2 36  1  1
  3 37  1  0
  3 38  1  0
  4 39  1  0
  4 40  1  0
  5 41  1  6
  8 42  1  0
  8 43  1  0
  8 44  1  0
  9 45  1  0
  9 46  1  0
  9 47  1  0
 10 48  1  1
 11 49  1  0
 11 50  1  0
 12 51  1  0
 12 52  1  0
 14 53  1  0
 14 54  1  0
 14 55  1  0
 15 56  1  6
 16 57  1  0
 16 58  1  0
 17 59  1  0
 19 60  1  1
 20 61  1  0
 20 62  1  0
 21 63  1  0
 21 64  1  0
 22 65  1  1
 23 66  1  0
 25 67  1  0
 25 68  1  0
 25 69  1  0
 26 70  1  0
 26 71  1  0
 26 72  1  0
 28 73  1  0
 28 74  1  0
 28 75  1  0
 29 76  1  0
 29 77  1  0
 30 78  1  0
 30 79  1  0
 32 80  1  0
 32 81  1  0
 32 82  1  0
M  END
>  <meeko>  (1) 
{"is_sidechain": [false], "intermolecular_energy": 2.731, "internal_energy": -0.839}

$$$$
EPH_relaxed_0001_pdb2pqr_Repair_102_r2_0001_out
     RDKit          3D

 82 86  0  0  0  0  0  0  0  0999 V2000
    0.4020   18.3880   -0.0110 C   0  0  0  0  0  0  0  0  0  0  0  0
    1.4970   17.3450   -0.2520 C   0  0  2  0  0  0  0  0  0  0  0  0
    2.6950   17.9280   -1.0290 C   0  0  0  0  0  0  0  0  0  0  0  0
    3.9290   18.1790   -0.1590 C   0  0  0  0  0  0  0  0  0  0  0  0
    3.5530   18.6490    1.2140 C   0  0  2  0  0  0  0  0  0  0  0  0
    3.8170   20.0360    1.4650 O   0  0  0  0  0  0  0  0  0  0  0  0
    4.5660   19.0960    2.2520 C   0  0  0  0  0  0  0  0  0  0  0  0
    6.0340   19.0920    1.9610 C   0  0  0  0  0  0  0  0  0  0  0  0
    4.1710   19.0670    3.6960 C   0  0  0  0  0  0  0  0  0  0  0  0
    0.9210   16.1510   -1.0040 C   0  0  1  0  0  0  0  0  0  0  0  0
    0.7950   16.4090   -2.5290 C   0  0  0  0  0  0  0  0  0  0  0  0
    1.0810   15.0590   -3.2360 C   0  0  0  0  0  0  0  0  0  0  0  0
    1.0340   14.0080   -2.1030 C   0  0  1  0  0  0  0  0  0  0  0  0
   -0.4850   13.7170   -1.8890 C   0  0  0  0  0  0  0  0  0  0  0  0
    1.8440   12.6930   -2.3470 C   0  0  2  0  0  0  0  0  0  0  0  0
    1.3740   11.8480   -3.5440 C   0  0  0  0  0  0  0  0  0  0  0  0
    0.3390   10.8190   -3.2310 C   0  0  0  0  0  0  0  0  0  0  0  0
    0.0130   10.3870   -1.9980 C   0  0  0  0  0  0  0  0  0  0  0  0
    0.7840   10.8730   -0.7640 C   0  0  1  0  0  0  0  0  0  0  0  0
    1.1350    9.6610    0.1380 C   0  0  0  0  0  0  0  0  0  0  0  0
   -0.0920    8.8310    0.5060 C   0  0  0  0  0  0  0  0  0  0  0  0
   -0.7970    8.3170   -0.7460 C   0  0  2  0  0  0  0  0  0  0  0  0
    0.0580    7.3780   -1.4050 O   0  0  0  0  0  0  0  0  0  0  0  0
   -1.1910    9.4490   -1.7360 C   0  0  0  0  0  0  0  0  0  0  0  0
   -2.3410   10.2920   -1.1320 C   0  0  0  0  0  0  0  0  0  0  0  0
   -1.7650    8.7850   -3.0170 C   0  0  0  0  0  0  0  0  0  0  0  0
    2.0400   11.8030   -1.0530 C   0  0  1  0  0  0  0  0  0  0  0  0
    3.3050   10.9260   -1.3030 C   0  0  0  0  0  0  0  0  0  0  0  0
    2.3450   12.6680    0.2270 C   0  0  0  0  0  0  0  0  0  0  0  0
    1.6020   14.0120    0.3510 C   0  0  0  0  0  0  0  0  0  0  0  0
    1.7150   14.8220   -0.9440 C   0  0  2  0  0  0  0  0  0  0  0  0
    3.2300   15.1480   -1.1740 C   0  0  0  0  0  0  0  0  0  0  0  0
    0.2580   18.5252    1.0709 H   0  0  0  0  0  0  0  0  0  0  0  0
    0.7002   19.3444   -0.4654 H   0  0  0  0  0  0  0  0  0  0  0  0
   -0.5387   18.0437   -0.4654 H   0  0  0  0  0  0  0  0  0  0  0  0
    1.8676   17.0220    0.7320 H   0  0  0  0  0  0  0  0  0  0  0  0
    2.9696   17.2208   -1.8256 H   0  0  0  0  0  0  0  0  0  0  0  0
    2.3771   18.9037   -1.4253 H   0  0  0  0  0  0  0  0  0  0  0  0
    4.4999   17.2428   -0.0714 H   0  0  0  0  0  0  0  0  0  0  0  0
    4.5318   18.9650   -0.6374 H   0  0  0  0  0  0  0  0  0  0  0  0
    2.7197   17.9322    1.2570 H   0  0  0  0  0  0  0  0  0  0  0  0
    6.5953   19.0905    2.9070 H   0  0  0  0  0  0  0  0  0  0  0  0
    6.2904   18.1932    1.3811 H   0  0  0  0  0  0  0  0  0  0  0  0
    6.2953   19.9894    1.3811 H   0  0  0  0  0  0  0  0  0  0  0  0
    5.0717   19.1331    4.3239 H   0  0  0  0  0  0  0  0  0  0  0  0
    3.5098   19.9190    3.9124 H   0  0  0  0  0  0  0  0  0  0  0  0
    3.6413   18.1275    3.9124 H   0  0  0  0  0  0  0  0  0  0  0  0
   -0.0354   16.0424   -0.4715 H   0  0  0  0  0  0  0  0  0  0  0  0
   -0.2201   16.7562   -2.7719 H   0  0  0  0  0  0  0  0  0  0  0  0
    1.5019   17.1848   -2.8581 H   0  0  0  0  0  0  0  0  0  0  0  0
    0.3127   14.8473   -3.9942 H   0  0  0  0  0  0  0  0  0  0  0  0
    2.0461   15.0607   -3.7638 H   0  0  0  0  0  0  0  0  0  0  0  0
   -0.7021   13.6754   -0.8114 H   0  0  0  0  0  0  0  0  0  0  0  0
   -1.0805   14.5174   -2.3524 H   0  0  0  0  0  0  0  0  0  0  0  0
   -0.7425   12.7532   -2.3524 H   0  0  0  0  0  0  0  0  0  0  0  0
    2.8368   13.0768   -2.6247 H   0  0  0  0  0  0  0  0  0  0  0  0
    0.9571   12.5306   -4.2991 H   0  0  0  0  0  0  0  0  0  0  0  0
    2.2585   11.2940   -3.8913 H   0  0  0  0  0  0  0  0  0  0  0  0
   -0.2033   10.3761   -4.0794 H   0  0  0  0  0  0  0  0  0  0  0  0
    0.1039   11.5518   -0.2286 H   0  0  0  0  0  0  0  0  0  0  0  0
    1.8483    9.0175   -0.3978 H   0  0  0  0  0  0  0  0  0  0  0  0
    1.5655   10.0528    1.0714 H   0  0  0  0  0  0  0  0  0  0  0  0
    0.2236    7.9740    1.1192 H   0  0  0  0  0  0  0  0  0  0  0  0
   -0.7918    9.4678    1.0671 H   0  0  0  0  0  0  0  0  0  0  0  0
   -1.7351    7.8414   -0.4237 H   0  0  0  0  0  0  0  0  0  0  0  0
    0.3150    7.7630   -2.2600 H   0  0  0  0  0  0  0  0  0  0  0  0
   -2.2871   10.2525   -0.0340 H   0  0  0  0  0  0  0  0  0  0  0  0
   -2.2454   11.3356   -1.4665 H   0  0  0  0  0  0  0  0  0  0  0  0
   -3.3074    9.8868   -1.4665 H   0  0  0  0  0  0  0  0  0  0  0  0
   -2.4600    7.9810   -2.7333 H   0  0  0  0  0  0  0  0  0  0  0  0
   -2.3002    9.5392   -3.6126 H   0  0  0  0  0  0  0  0  0  0  0  0
   -0.9413    8.3645   -3.6126 H   0  0  0  0  0  0  0  0  0  0  0  0
    3.7391   10.6251   -0.3381 H   0  0  0  0  0  0  0  0  0  0  0  0
    3.0224   10.0290   -1.8736 H   0  0  0  0  0  0  0  0  0  0  0  0
    4.0458   11.5053   -1.8736 H   0  0  0  0  0  0  0  0  0  0  0  0
    2.0856   12.0620    1.1076 H   0  0  0  0  0  0  0  0  0  0  0  0
    3.4094   12.9341    0.1474 H   0  0  0  0  0  0  0  0  0  0  0  0
    0.5401   13.8180    0.5627 H   0  0  0  0  0  0  0  0  0  0  0  0
    2.0578   14.5908    1.1678 H   0  0  0  0  0  0  0  0  0  0  0  0
    3.7334   15.2563   -0.2020 H   0  0  0  0  0  0  0  0  0  0  0  0
    3.6991   14.3302   -1.7408 H   0  0  0  0  0  0  0  0  0  0  0  0
    3.3212   16.0863   -1.7408 H   0  0  0  0  0  0  0  0  0  0  0  0
  1  2  1  0
  2  3  1  0
  3  4  1  0
  4  5  1  0
  5  6  1  0
  6  7  1  0
  7  8  1  0
  7  9  1  0
  2 10  1  0
 10 11  1  0
 11 12  1  0
 12 13  1  0
 13 14  1  1
 13 15  1  0
 15 16  1  0
 16 17  1  0
 17 18  2  0
 18 19  1  0
 19 20  1  0
 20 21  1  0
 21 22  1  0
 22 23  1  0
 22 24  1  0
 24 25  1  0
 24 26  1  0
 19 27  1  0
 27 28  1  6
 27 29  1  0
 29 30  1  0
 30 31  1  0
 31 32  1  6
  7  5  1  0
 31 10  1  0
 31 13  1  0
 27 15  1  0
 24 18  1  0
  1 33  1  0
  1 34  1  0
  1 35  1  0
  2 36  1  1
  3 37  1  0
  3 38  1  0
  4 39  1  0
  4 40  1  0
  5 41  1  1
  8 42  1  0
  8 43  1  0
  8 44  1  0
  9 45  1  0
  9 46  1  0
  9 47  1  0
 10 48  1  1
 11 49  1  0
 11 50  1  0
 12 51  1  0
 12 52  1  0
 14 53  1  0
 14 54  1  0
 14 55  1  0
 15 56  1  6
 16 57  1  0
 16 58  1  0
 17 59  1  0
 19 60  1  1
 20 61  1  0
 20 62  1  0
 21 63  1  0
 21 64  1  0
 22 65  1  1
 23 66  1  0
 25 67  1  0
 25 68  1  0
 25 69  1  0
 26 70  1  0
 26 71  1  0
 26 72  1  0
 28 73  1  0
 28 74  1  0
 28 75  1  0
 29 76  1  0
 29 77  1  0
 30 78  1  0
 30 79  1  0
 32 80  1  0
 32 81  1  0
 32 82  1  0
M  END
>  <meeko>  (2) 
{"is_sidechain": [false], "intermolecular_energy": 2.731, "internal_energy": -0.839}

$$$$
EPH_relaxed_0001_pdb2pqr_Repair_102_r2_0001_out
     RDKit          3D

 82 86  0  0  0  0  0  0  0  0999 V2000
    2.5040   17.9860   -2.6560 C   0  0  0  0  0  0  0  0  0  0  0  0
    1.1810   17.6390   -1.9660 C   0  0  2  0  0  0  0  0  0  0  0  0
    1.2900   17.7110   -0.4300 C   0  0  0  0  0  0  0  0  0  0  0  0
    0.9520   19.0880    0.1480 C   0  0  0  0  0  0  0  0  0  0  0  0
   -0.4870   19.1800    0.5540 C   0  0  2  0  0  0  0  0  0  0  0  0
   -1.3620   18.2760   -0.1330 O   0  0  0  0  0  0  0  0  0  0  0  0
   -1.5860   19.6760   -0.3670 C   0  0  0  0  0  0  0  0  0  0  0  0
   -1.2920   20.1130   -1.7680 C   0  0  0  0  0  0  0  0  0  0  0  0
   -2.8510   20.1940    0.2420 C   0  0  0  0  0  0  0  0  0  0  0  0
    0.7220   16.2500   -2.3920 C   0  0  1  0  0  0  0  0  0  0  0  0
    0.8490   16.0200   -3.9210 C   0  0  0  0  0  0  0  0  0  0  0  0
    1.2320   14.5310   -4.1200 C   0  0  0  0  0  0  0  0  0  0  0  0
    0.9890   13.8780   -2.7400 C   0  0  1  0  0  0  0  0  0  0  0  0
   -0.5480   13.6070   -2.6890 C   0  0  0  0  0  0  0  0  0  0  0  0
    1.8140   12.5860   -2.4320 C   0  0  2  0  0  0  0  0  0  0  0  0
    1.5350   11.3960   -3.3660 C   0  0  0  0  0  0  0  0  0  0  0  0
    0.4510   10.4730   -2.9170 C   0  0  0  0  0  0  0  0  0  0  0  0
   -0.0750   10.4280   -1.6790 C   0  0  0  0  0  0  0  0  0  0  0  0
    0.4890   11.3010   -0.5510 C   0  0  1  0  0  0  0  0  0  0  0  0
    0.6750   10.4410    0.7260 C   0  0  0  0  0  0  0  0  0  0  0  0
   -0.6040    9.7160    1.1340 C   0  0  0  0  0  0  0  0  0  0  0  0
   -1.1020    8.8130    0.0080 C   0  0  2  0  0  0  0  0  0  0  0  0
   -0.1610    7.7520   -0.1830 O   0  0  0  0  0  0  0  0  0  0  0  0
   -1.3160    9.5690   -1.3340 C   0  0  0  0  0  0  0  0  0  0  0  0
   -2.5400   10.5090   -1.2110 C   0  0  0  0  0  0  0  0  0  0  0  0
   -1.6810    8.5200   -2.4190 C   0  0  0  0  0  0  0  0  0  0  0  0
    1.7860   12.1470   -0.9120 C   0  0  1  0  0  0  0  0  0  0  0  0
    3.0650   11.2870   -0.6740 C   0  0  0  0  0  0  0  0  0  0  0  0
    1.8880   13.3750    0.0680 C   0  0  0  0  0  0  0  0  0  0  0  0
    1.1490   14.6610   -0.3500 C   0  0  0  0  0  0  0  0  0  0  0  0
    1.4810   15.0370   -1.7970 C   0  0  2  0  0  0  0  0  0  0  0  0
    3.0160   15.3370   -1.8740 C   0  0  0  0  0  0  0  0  0  0  0  0
    3.2725   18.1876   -1.8952 H   0  0  0  0  0  0  0  0  0  0  0  0
    2.8226   17.1410   -3.2841 H   0  0  0  0  0  0  0  0  0  0  0  0
    2.3669   18.8786   -3.2841 H   0  0  0  0  0  0  0  0  0  0  0  0
    0.4384   18.3879   -2.2785 H   0  0  0  0  0  0  0  0  0  0  0  0
    0.5974   16.9737    0.0021 H   0  0  0  0  0  0  0  0  0  0  0  0
    2.3391   17.5034   -0.1725 H   0  0  0  0  0  0  0  0  0  0  0  0
    1.5837   19.2692    1.0301 H   0  0  0  0  0  0  0  0  0  0  0  0
    1.1375   19.8421   -0.6311 H   0  0  0  0  0  0  0  0  0  0  0  0
   -0.2041   19.4562    1.5805 H   0  0  0  0  0  0  0  0  0  0  0  0
   -0.6781   21.0255   -1.7463 H   0  0  0  0  0  0  0  0  0  0  0  0
   -0.7457   19.3160   -2.2937 H   0  0  0  0  0  0  0  0  0  0  0  0
   -2.2361   20.3187   -2.2937 H   0  0  0  0  0  0  0  0  0  0  0  0
   -2.7704   20.1610    1.3385 H   0  0  0  0  0  0  0  0  0  0  0  0
   -3.0159   21.2320   -0.0824 H   0  0  0  0  0  0  0  0  0  0  0  0
   -3.6966   19.5697   -0.0824 H   0  0  0  0  0  0  0  0  0  0  0  0
   -0.3098   16.2729   -2.0114 H   0  0  0  0  0  0  0  0  0  0  0  0
   -0.1092   16.2340   -4.4170 H   0  0  0  0  0  0  0  0  0  0  0  0
    1.6087   16.6846   -4.3582 H   0  0  0  0  0  0  0  0  0  0  0  0
    0.5958   14.0656   -4.8873 H   0  0  0  0  0  0  0  0  0  0  0  0
    2.2704   14.4095   -4.4619 H   0  0  0  0  0  0  0  0  0  0  0  0
   -0.8755   13.5492   -1.6405 H   0  0  0  0  0  0  0  0  0  0  0  0
   -1.0815   14.4249   -3.1953 H   0  0  0  0  0  0  0  0  0  0  0  0
   -0.7696   12.6559   -3.1953 H   0  0  0  0  0  0  0  0  0  0  0  0
    2.8434   12.9043   -2.6536 H   0  0  0  0  0  0  0  0  0  0  0  0
    1.2542   11.7960   -4.3515 H   0  0  0  0  0  0  0  0  0  0  0  0
    2.4578   10.7974   -3.3799 H   0  0  0  0  0  0  0  0  0  0  0  0
    0.0480    9.7701   -3.6610 H   0  0  0  0  0  0  0  0  0  0  0  0
   -0.2620   12.0834   -0.3672 H   0  0  0  0  0  0  0  0  0  0  0  0
    1.4592    9.6932    0.5365 H   0  0  0  0  0  0  0  0  0  0  0  0
    0.9517   11.1182    1.5475 H   0  0  0  0  0  0  0  0  0  0  0  0
   -0.4018    9.1028    2.0246 H   0  0  0  0  0  0  0  0  0  0  0  0
   -1.3787   10.4660    1.3514 H   0  0  0  0  0  0  0  0  0  0  0  0
   -2.0853    8.4224    0.3090 H   0  0  0  0  0  0  0  0  0  0  0  0
   -0.5700    7.0990   -0.7750 H   0  0  0  0  0  0  0  0  0  0  0  0
   -2.7645   10.6814   -0.1481 H   0  0  0  0  0  0  0  0  0  0  0  0
   -2.3155   11.4690   -1.6988 H   0  0  0  0  0  0  0  0  0  0  0  0
   -3.4096   10.0444   -1.6988 H   0  0  0  0  0  0  0  0  0  0  0  0
   -2.0054    7.5878   -1.9334 H   0  0  0  0  0  0  0  0  0  0  0  0
   -2.4964    8.9097   -3.0462 H   0  0  0  0  0  0  0  0  0  0  0  0
   -0.7999    8.3194   -3.0462 H   0  0  0  0  0  0  0  0  0  0  0  0
    3.2344   11.1731    0.4069 H   0  0  0  0  0  0  0  0  0  0  0  0
    2.9302   10.2953   -1.1305 H   0  0  0  0  0  0  0  0  0  0  0  0
    3.9325   11.7860   -1.1305 H   0  0  0  0  0  0  0  0  0  0  0  0
    1.4823   13.0592    1.0405 H   0  0  0  0  0  0  0  0  0  0  0  0
    2.9539   13.6464    0.0793 H   0  0  0  0  0  0  0  0  0  0  0  0
    0.0648   14.4987   -0.2599 H   0  0  0  0  0  0  0  0  0  0  0  0
    1.4711   15.4810    0.3087 H   0  0  0  0  0  0  0  0  0  0  0  0
    3.4255   15.4170   -0.8562 H   0  0  0  0  0  0  0  0  0  0  0  0
    3.5227   14.5209   -2.4099 H   0  0  0  0  0  0  0  0  0  0  0  0
    3.1781   16.2838   -2.4099 H   0  0  0  0  0  0  0  0  0  0  0  0
  1  2  1  0
  2  3  1  0
  3  4  1  0
  4  5  1  0
  5  6  1  0
  6  7  1  0
  7  8  1  0
  7  9  1  0
  2 10  1  0
 10 11  1  0
 11 12  1  0
 12 13  1  0
 13 14  1  1
 13 15  1  0
 15 16  1  0
 16 17  1  0
 17 18  2  0
 18 19  1  0
 19 20  1  0
 20 21  1  0
 21 22  1  0
 22 23  1  0
 22 24  1  0
 24 25  1  0
 24 26  1  0
 19 27  1  0
 27 28  1  6
 27 29  1  0
 29 30  1  0
 30 31  1  0
 31 32  1  1
  7  5  1  0
 31 10  1  0
 31 13  1  0
 27 15  1  0
 24 18  1  0
  1 33  1  0
  1 34  1  0
  1 35  1  0
  2 36  1  6
  3 37  1  0
  3 38  1  0
  4 39  1  0
  4 40  1  0
  5 41  1  1
  8 42  1  0
  8 43  1  0
  8 44  1  0
  9 45  1  0
  9 46  1  0
  9 47  1  0
 10 48  1  1
 11 49  1  0
 11 50  1  0
 12 51  1  0
 12 52  1  0
 14 53  1  0
 14 54  1  0
 14 55  1  0
 15 56  1  6
 16 57  1  0
 16 58  1  0
 17 59  1  0
 19 60  1  1
 20 61  1  0
 20 62  1  0
 21 63  1  0
 21 64  1  0
 22 65  1  1
 23 66  1  0
 25 67  1  0
 25 68  1  0
 25 69  1  0
 26 70  1  0
 26 71  1  0
 26 72  1  0
 28 73  1  0
 28 74  1  0
 28 75  1  0
 29 76  1  0
 29 77  1  0
 30 78  1  0
 30 79  1  0
 32 80  1  0
 32 81  1  0
 32 82  1  0
M  END
>  <meeko>  (3) 
{"is_sidechain": [false], "intermolecular_energy": 2.731, "internal_energy": -0.839}

$$$$
EPH_relaxed_0001_pdb2pqr_Repair_102_r2_0001_out
     RDKit          3D

 82 86  0  0  0  0  0  0  0  0999 V2000
    4.2220   17.5510   -0.6670 C   0  0  0  0  0  0  0  0  0  0  0  0
    2.8660   18.1220   -0.2440 C   0  0  2  0  0  0  0  0  0  0  0  0
    2.9330   18.8190    1.1300 C   0  0  0  0  0  0  0  0  0  0  0  0
    4.2370   18.5590    1.8890 C   0  0  0  0  0  0  0  0  0  0  0  0
    4.2550   19.2570    3.2160 C   0  0  2  0  0  0  0  0  0  0  0  0
    5.3280   20.1920    3.3860 O   0  0  0  0  0  0  0  0  0  0  0  0
    5.3400   19.0480    4.2560 C   0  0  0  0  0  0  0  0  0  0  0  0
    6.4830   18.1130    4.0140 C   0  0  0  0  0  0  0  0  0  0  0  0
    5.0340   19.3740    5.6840 C   0  0  0  0  0  0  0  0  0  0  0  0
    1.8210   17.0130   -0.2150 C   0  0  1  0  0  0  0  0  0  0  0  0
    0.3900   17.5330   -0.5170 C   0  0  0  0  0  0  0  0  0  0  0  0
   -0.3350   16.4120   -1.3060 C   0  0  0  0  0  0  0  0  0  0  0  0
    0.5730   15.1710   -1.1440 C   0  0  1  0  0  0  0  0  0  0  0  0
    0.2120   14.5900    0.2600 C   0  0  0  0  0  0  0  0  0  0  0  0
    0.4650   14.0840   -2.2630 C   0  0  2  0  0  0  0  0  0  0  0  0
   -0.9150   13.4170   -2.3920 C   0  0  0  0  0  0  0  0  0  0  0  0
   -1.1080   12.1860   -1.5700 C   0  0  0  0  0  0  0  0  0  0  0  0
   -0.1270   11.4770   -0.9810 C   0  0  0  0  0  0  0  0  0  0  0  0
    1.3480   11.8430   -1.1970 C   0  0  1  0  0  0  0  0  0  0  0  0
    2.1590   10.5580   -1.5110 C   0  0  0  0  0  0  0  0  0  0  0  0
    1.9760    9.4770   -0.4510 C   0  0  0  0  0  0  0  0  0  0  0  0
    0.5040    9.0990   -0.3060 C   0  0  2  0  0  0  0  0  0  0  0  0
    0.0710    8.4620   -1.5120 O   0  0  0  0  0  0  0  0  0  0  0  0
   -0.4140   10.3150    0.0020 C   0  0  0  0  0  0  0  0  0  0  0  0
   -0.1460   10.8190    1.4410 C   0  0  0  0  0  0  0  0  0  0  0  0
   -1.8850    9.8200   -0.0180 C   0  0  0  0  0  0  0  0  0  0  0  0
    1.6270   13.0100   -2.2390 C   0  0  1  0  0  0  0  0  0  0  0  0
    1.7230   12.4260   -3.6810 C   0  0  0  0  0  0  0  0  0  0  0  0
    3.0290   13.6540   -1.9260 C   0  0  0  0  0  0  0  0  0  0  0  0
    3.0540   14.8030   -0.9000 C   0  0  0  0  0  0  0  0  0  0  0  0
    1.9870   15.8520   -1.2270 C   0  0  2  0  0  0  0  0  0  0  0  0
    2.3360   16.4700   -2.6240 C   0  0  0  0  0  0  0  0  0  0  0  0
    4.8109   17.3030    0.2284 H   0  0  0  0  0  0  0  0  0  0  0  0
    4.0662   16.6421   -1.2667 H   0  0  0  0  0  0  0  0  0  0  0  0
    4.7633   18.2976   -1.2667 H   0  0  0  0  0  0  0  0  0  0  0  0
    2.5807   18.8819   -0.9864 H   0  0  0  0  0  0  0  0  0  0  0  0
    2.8318   19.9033    0.9747 H   0  0  0  0  0  0  0  0  0  0  0  0
    2.1174   18.4046    1.7408 H   0  0  0  0  0  0  0  0  0  0  0  0
    4.3437   17.4767    2.0540 H   0  0  0  0  0  0  0  0  0  0  0  0
    5.0691   18.9496    1.2848 H   0  0  0  0  0  0  0  0  0  0  0  0
    3.1573   19.2199    3.2772 H   0  0  0  0  0  0  0  0  0  0  0  0
    6.8929   17.7777    4.9781 H   0  0  0  0  0  0  0  0  0  0  0  0
    6.1295   17.2418    3.4430 H   0  0  0  0  0  0  0  0  0  0  0  0
    7.2668   18.6322    3.4430 H   0  0  0  0  0  0  0  0  0  0  0  0
    5.6364   18.7323    6.3438 H   0  0  0  0  0  0  0  0  0  0  0  0
    5.2752   20.4294    5.8790 H   0  0  0  0  0  0  0  0  0  0  0  0
    3.9655   19.2000    5.8790 H   0  0  0  0  0  0  0  0  0  0  0  0
    1.9736   16.6428    0.8096 H   0  0  0  0  0  0  0  0  0  0  0  0
   -0.1436   17.7414    0.4221 H   0  0  0  0  0  0  0  0  0  0  0  0
    0.4230   18.4670   -1.0972 H   0  0  0  0  0  0  0  0  0  0  0  0
   -1.3321   16.2215   -0.8824 H   0  0  0  0  0  0  0  0  0  0  0  0
   -0.4917   16.6792   -2.3615 H   0  0  0  0  0  0  0  0  0  0  0  0
    0.6193   15.2455    1.0438 H   0  0  0  0  0  0  0  0  0  0  0  0
   -0.8817   14.5316    0.3625 H   0  0  0  0  0  0  0  0  0  0  0  0
    0.6441   13.5836    0.3625 H   0  0  0  0  0  0  0  0  0  0  0  0
    0.5981   14.6758   -3.1806 H   0  0  0  0  0  0  0  0  0  0  0  0
   -1.6767   14.1506   -2.0892 H   0  0  0  0  0  0  0  0  0  0  0  0
   -1.0021   13.0987   -3.4413 H   0  0  0  0  0  0  0  0  0  0  0  0
   -2.1392   11.8279   -1.4341 H   0  0  0  0  0  0  0  0  0  0  0  0
    1.6948   12.2817   -0.2498 H   0  0  0  0  0  0  0  0  0  0  0  0
    1.8273   10.1600   -2.4813 H   0  0  0  0  0  0  0  0  0  0  0  0
    3.2243   10.8316   -1.5283 H   0  0  0  0  0  0  0  0  0  0  0  0
    2.5496    8.5851   -0.7435 H   0  0  0  0  0  0  0  0  0  0  0  0
    2.3353    9.8661    0.5131 H   0  0  0  0  0  0  0  0  0  0  0  0
    0.4214    8.4187    0.5545 H   0  0  0  0  0  0  0  0  0  0  0  0
    0.8160    7.9400   -1.8530 H   0  0  0  0  0  0  0  0  0  0  0  0
   -0.5351   10.0872    2.1642 H   0  0  0  0  0  0  0  0  0  0  0  0
    0.9368   10.9423    1.5906 H   0  0  0  0  0  0  0  0  0  0  0  0
   -0.6492   11.7856    1.5906 H   0  0  0  0  0  0  0  0  0  0  0  0
   -2.2452    9.6988    1.0143 H   0  0  0  0  0  0  0  0  0  0  0  0
   -2.5126   10.5564   -0.5412 H   0  0  0  0  0  0  0  0  0  0  0  0
   -1.9397    8.8540   -0.5412 H   0  0  0  0  0  0  0  0  0  0  0  0
    1.9012   11.3419   -3.6264 H   0  0  0  0  0  0  0  0  0  0  0  0
    0.7815   12.6163   -4.2171 H   0  0  0  0  0  0  0  0  0  0  0  0
    2.5540   12.9077   -4.2171 H   0  0  0  0  0  0  0  0  0  0  0  0
    3.6844   12.8558   -1.5473 H   0  0  0  0  0  0  0  0  0  0  0  0
    3.3543   14.1082   -2.8736 H   0  0  0  0  0  0  0  0  0  0  0  0
    2.8616   14.3943    0.1030 H   0  0  0  0  0  0  0  0  0  0  0  0
    4.0424   15.2844   -0.9360 H   0  0  0  0  0  0  0  0  0  0  0  0
    2.8723   17.4197   -2.4812 H   0  0  0  0  0  0  0  0  0  0  0  0
    2.9724   15.7704   -3.1858 H   0  0  0  0  0  0  0  0  0  0  0  0
    1.4083   16.6537   -3.1858 H   0  0  0  0  0  0  0  0  0  0  0  0
  1  2  1  0
  2  3  1  0
  3  4  1  0
  4  5  1  0
  5  6  1  0
  6  7  1  0
  7  8  1  0
  7  9  1  0
  2 10  1  0
 10 11  1  0
 11 12  1  0
 12 13  1  0
 13 14  1  1
 13 15  1  0
 15 16  1  0
 16 17  1  0
 17 18  2  0
 18 19  1  0
 19 20  1  0
 20 21  1  0
 21 22  1  0
 22 23  1  0
 22 24  1  0
 24 25  1  0
 24 26  1  0
 19 27  1  0
 27 28  1  6
 27 29  1  0
 29 30  1  0
 30 31  1  0
 31 32  1  6
  7  5  1  0
 31 10  1  0
 31 13  1  0
 27 15  1  0
 24 18  1  0
  1 33  1  0
  1 34  1  0
  1 35  1  0
  2 36  1  6
  3 37  1  0
  3 38  1  0
  4 39  1  0
  4 40  1  0
  5 41  1  1
  8 42  1  0
  8 43  1  0
  8 44  1  0
  9 45  1  0
  9 46  1  0
  9 47  1  0
 10 48  1  1
 11 49  1  0
 11 50  1  0
 12 51  1  0
 12 52  1  0
 14 53  1  0
 14 54  1  0
 14 55  1  0
 15 56  1  6
 16 57  1  0
 16 58  1  0
 17 59  1  0
 19 60  1  1
 20 61  1  0
 20 62  1  0
 21 63  1  0
 21 64  1  0
 22 65  1  1
 23 66  1  0
 25 67  1  0
 25 68  1  0
 25 69  1  0
 26 70  1  0
 26 71  1  0
 26 72  1  0
 28 73  1  0
 28 74  1  0
 28 75  1  0
 29 76  1  0
 29 77  1  0
 30 78  1  0
 30 79  1  0
 32 80  1  0
 32 81  1  0
 32 82  1  0
M  END
>  <meeko>  (4) 
{"is_sidechain": [false], "intermolecular_energy": 2.731, "internal_energy": -0.839}

$$$$
EPH_relaxed_0001_pdb2pqr_Repair_102_r2_0001_out
     RDKit          3D

 82 86  0  0  0  0  0  0  0  0999 V2000
    3.9550   17.8350    0.3670 C   0  0  0  0  0  0  0  0  0  0  0  0
    2.6710   18.4100   -0.2390 C   0  0  2  0  0  0  0  0  0  0  0  0
    2.0350   19.4870    0.6630 C   0  0  0  0  0  0  0  0  0  0  0  0
    0.6460   19.1100    1.1850 C   0  0  0  0  0  0  0  0  0  0  0  0
   -0.4330   19.9060    0.5160 C   0  0  2  0  0  0  0  0  0  0  0  0
   -1.5670   20.1940    1.3440 O   0  0  0  0  0  0  0  0  0  0  0  0
   -1.8110   19.3530    0.2050 C   0  0  0  0  0  0  0  0  0  0  0  0
   -2.1840   17.9460    0.5550 C   0  0  0  0  0  0  0  0  0  0  0  0
   -2.6210   20.0110   -0.8680 C   0  0  0  0  0  0  0  0  0  0  0  0
    1.6710   17.2890   -0.4970 C   0  0  1  0  0  0  0  0  0  0  0  0
    0.4870   17.7400   -1.3940 C   0  0  0  0  0  0  0  0  0  0  0  0
    0.1020   16.5210   -2.2710 C   0  0  0  0  0  0  0  0  0  0  0  0
    0.8420   15.3260   -1.6260 C   0  0  1  0  0  0  0  0  0  0  0  0
   -0.0550   14.9020   -0.4210 C   0  0  0  0  0  0  0  0  0  0  0  0
    1.1540   14.1170   -2.5660 C   0  0  2  0  0  0  0  0  0  0  0  0
   -0.0810   13.4090   -3.1510 C   0  0  0  0  0  0  0  0  0  0  0  0
   -0.6110   12.2760   -2.3360 C   0  0  0  0  0  0  0  0  0  0  0  0
    0.0420   11.6610   -1.3330 C   0  0  0  0  0  0  0  0  0  0  0  0
    1.4910   12.0310   -0.9920 C   0  0  1  0  0  0  0  0  0  0  0  0
    2.3280   10.7370   -0.8140 C   0  0  0  0  0  0  0  0  0  0  0  0
    1.7160    9.7800    0.2040 C   0  0  0  0  0  0  0  0  0  0  0  0
    0.2970    9.3900   -0.1990 C   0  0  2  0  0  0  0  0  0  0  0  0
    0.3560    8.6100   -1.3970 O   0  0  0  0  0  0  0  0  0  0  0  0
   -0.6370   10.6130   -0.4160 C   0  0  0  0  0  0  0  0  0  0  0  0
   -0.9430   11.2840    0.9460 C   0  0  0  0  0  0  0  0  0  0  0  0
   -1.9950   10.0870   -0.9560 C   0  0  0  0  0  0  0  0  0  0  0  0
    2.1860   13.0780   -1.9660 C   0  0  1  0  0  0  0  0  0  0  0  0
    2.8260   12.3350   -3.1780 C   0  0  0  0  0  0  0  0  0  0  0  0
    3.3690   13.7830   -1.2030 C   0  0  0  0  0  0  0  0  0  0  0  0
    3.0180   15.0420   -0.3870 C   0  0  0  0  0  0  0  0  0  0  0  0
    2.1920   16.0240   -1.2240 C   0  0  2  0  0  0  0  0  0  0  0  0
    3.0770   16.4850   -2.4320 C   0  0  0  0  0  0  0  0  0  0  0  0
    3.8879   17.8651    1.4645 H   0  0  0  0  0  0  0  0  0  0  0  0
    4.0825   16.7938    0.0358 H   0  0  0  0  0  0  0  0  0  0  0  0
    4.8166   18.4332    0.0358 H   0  0  0  0  0  0  0  0  0  0  0  0
    2.9409   18.8933   -1.1896 H   0  0  0  0  0  0  0  0  0  0  0  0
    2.6971   19.6529    1.5256 H   0  0  0  0  0  0  0  0  0  0  0  0
    1.9131   20.3908    0.0479 H   0  0  0  0  0  0  0  0  0  0  0  0
    0.4712   18.0410    0.9932 H   0  0  0  0  0  0  0  0  0  0  0  0
    0.6143   19.3278    2.2628 H   0  0  0  0  0  0  0  0  0  0  0  0
    0.3082   20.4318   -0.1039 H   0  0  0  0  0  0  0  0  0  0  0  0
   -2.2132   17.8358    1.6491 H   0  0  0  0  0  0  0  0  0  0  0  0
   -3.1746   17.7144    0.1365 H   0  0  0  0  0  0  0  0  0  0  0  0
   -1.4383   17.2541    0.1365 H   0  0  0  0  0  0  0  0  0  0  0  0
   -3.3965   20.6409   -0.4078 H   0  0  0  0  0  0  0  0  0  0  0  0
   -1.9646   20.6349   -1.4924 H   0  0  0  0  0  0  0  0  0  0  0  0
   -3.0972   19.2407   -1.4924 H   0  0  0  0  0  0  0  0  0  0  0  0
    1.3997   17.0416    0.5399 H   0  0  0  0  0  0  0  0  0  0  0  0
   -0.3670   18.0430   -0.7703 H   0  0  0  0  0  0  0  0  0  0  0  0
    0.7687   18.6019   -2.0168 H   0  0  0  0  0  0  0  0  0  0  0  0
   -0.9858   16.3588   -2.2542 H   0  0  0  0  0  0  0  0  0  0  0  0
    0.3791   16.6625   -3.3261 H   0  0  0  0  0  0  0  0  0  0  0  0
    0.4581   15.1445    0.5213 H   0  0  0  0  0  0  0  0  0  0  0  0
   -1.0115   15.4433   -0.4675 H   0  0  0  0  0  0  0  0  0  0  0  0
   -0.2438   13.8193   -0.4675 H   0  0  0  0  0  0  0  0  0  0  0  0
    1.6507   14.6038   -3.4182 H   0  0  0  0  0  0  0  0  0  0  0  0
   -0.8821   14.1552   -3.2576 H   0  0  0  0  0  0  0  0  0  0  0  0
    0.2428   12.9715   -4.1069 H   0  0  0  0  0  0  0  0  0  0  0  0
   -1.6213   11.9130   -2.5758 H   0  0  0  0  0  0  0  0  0  0  0  0
    1.4487   12.5816   -0.0407 H   0  0  0  0  0  0  0  0  0  0  0  0
    2.3947   10.2238   -1.7847 H   0  0  0  0  0  0  0  0  0  0  0  0
    3.3208   11.0300   -0.4420 H   0  0  0  0  0  0  0  0  0  0  0  0
    2.3356    8.8730    0.2633 H   0  0  0  0  0  0  0  0  0  0  0  0
    1.6776   10.2840    1.1810 H   0  0  0  0  0  0  0  0  0  0  0  0
   -0.1341    8.8109    0.6309 H   0  0  0  0  0  0  0  0  0  0  0  0
    1.2470    8.7130   -1.7710 H   0  0  0  0  0  0  0  0  0  0  0  0
   -0.6370   10.6131    1.7622 H   0  0  0  0  0  0  0  0  0  0  0  0
   -0.3875   12.2304    1.0215 H   0  0  0  0  0  0  0  0  0  0  0  0
   -2.0218   11.4851    1.0215 H   0  0  0  0  0  0  0  0  0  0  0  0
   -2.6518    9.8326   -0.1111 H   0  0  0  0  0  0  0  0  0  0  0  0
   -2.4719   10.8655   -1.5697 H   0  0  0  0  0  0  0  0  0  0  0  0
   -1.8231    9.1904   -1.5697 H   0  0  0  0  0  0  0  0  0  0  0  0
    3.5027   11.5494   -2.8107 H   0  0  0  0  0  0  0  0  0  0  0  0
    2.0329   11.8795   -3.7892 H   0  0  0  0  0  0  0  0  0  0  0  0
    3.3939   13.0518   -3.7892 H   0  0  0  0  0  0  0  0  0  0  0  0
    3.8028   13.0475   -0.5096 H   0  0  0  0  0  0  0  0  0  0  0  0
    4.0518   14.1325   -1.9914 H   0  0  0  0  0  0  0  0  0  0  0  0
    2.4367   14.7464    0.4989 H   0  0  0  0  0  0  0  0  0  0  0  0
    3.9529   15.5372   -0.0858 H   0  0  0  0  0  0  0  0  0  0  0  0
    3.9932   16.9623   -2.0542 H   0  0  0  0  0  0  0  0  0  0  0  0
    3.3445   15.6116   -3.0449 H   0  0  0  0  0  0  0  0  0  0  0  0
    2.5146   17.2047   -3.0449 H   0  0  0  0  0  0  0  0  0  0  0  0
  1  2  1  0
  2  3  1  0
  3  4  1  0
  4  5  1  0
  5  6  1  0
  6  7  1  0
  7  8  1  0
  7  9  1  0
  2 10  1  0
 10 11  1  0
 11 12  1  0
 12 13  1  0
 13 14  1  1
 13 15  1  0
 15 16  1  0
 16 17  1  0
 17 18  2  0
 18 19  1  0
 19 20  1  0
 20 21  1  0
 21 22  1  0
 22 23  1  0
 22 24  1  0
 24 25  1  0
 24 26  1  0
 19 27  1  0
 27 28  1  6
 27 29  1  0
 29 30  1  0
 30 31  1  0
 31 32  1  6
  7  5  1  0
 31 10  1  0
 31 13  1  0
 27 15  1  0
 24 18  1  0
  1 33  1  0
  1 34  1  0
  1 35  1  0
  2 36  1  6
  3 37  1  0
  3 38  1  0
  4 39  1  0
  4 40  1  0
  5 41  1  6
  8 42  1  0
  8 43  1  0
  8 44  1  0
  9 45  1  0
  9 46  1  0
  9 47  1  0
 10 48  1  1
 11 49  1  0
 11 50  1  0
 12 51  1  0
 12 52  1  0
 14 53  1  0
 14 54  1  0
 14 55  1  0
 15 56  1  6
 16 57  1  0
 16 58  1  0
 17 59  1  0
 19 60  1  1
 20 61  1  0
 20 62  1  0
 21 63  1  0
 21 64  1  0
 22 65  1  1
 23 66  1  0
 25 67  1  0
 25 68  1  0
 25 69  1  0
 26 70  1  0
 26 71  1  0
 26 72  1  0
 28 73  1  0
 28 74  1  0
 28 75  1  0
 29 76  1  0
 29 77  1  0
 30 78  1  0
 30 79  1  0
 32 80  1  0
 32 81  1  0
 32 82  1  0
M  END
>  <meeko>  (5) 
{"is_sidechain": [false], "intermolecular_energy": 2.731, "internal_energy": -0.839}

$$$$
EPH_relaxed_0001_pdb2pqr_Repair_102_r2_0001_out
     RDKit          3D

 82 86  0  0  0  0  0  0  0  0999 V2000
    0.0700   10.4050   -3.5750 C   0  0  0  0  0  0  0  0  0  0  0  0
    1.1070   10.2130   -2.4650 C   0  0  2  0  0  0  0  0  0  0  0  0
    0.8060    8.9750   -1.5970 C   0  0  0  0  0  0  0  0  0  0  0  0
    0.0040    9.2900   -0.3310 C   0  0  0  0  0  0  0  0  0  0  0  0
   -1.3840    8.7300   -0.4010 C   0  0  2  0  0  0  0  0  0  0  0  0
   -2.0010    8.8180   -1.6920 O   0  0  0  0  0  0  0  0  0  0  0  0
   -2.6180    9.5800   -0.6410 C   0  0  0  0  0  0  0  0  0  0  0  0
   -2.5210   11.0620   -0.8260 C   0  0  0  0  0  0  0  0  0  0  0  0
   -3.9490    9.0460   -0.2110 C   0  0  0  0  0  0  0  0  0  0  0  0
    1.1690   11.4600   -1.5900 C   0  0  1  0  0  0  0  0  0  0  0  0
    2.2480   11.3570   -0.4800 C   0  0  0  0  0  0  0  0  0  0  0  0
    2.8300   12.7820   -0.2890 C   0  0  0  0  0  0  0  0  0  0  0  0
    1.8500   13.7080   -1.0460 C   0  0  1  0  0  0  0  0  0  0  0  0
    0.6610   13.9260   -0.0590 C   0  0  0  0  0  0  0  0  0  0  0  0
    2.4350   15.0660   -1.5530 C   0  0  2  0  0  0  0  0  0  0  0  0
    2.9330   16.0150   -0.4490 C   0  0  0  0  0  0  0  0  0  0  0  0
    1.9150   16.9720    0.0770 C   0  0  0  0  0  0  0  0  0  0  0  0
    0.7390   17.2630   -0.5090 C   0  0  0  0  0  0  0  0  0  0  0  0
    0.3750   16.6760   -1.8790 C   0  0  1  0  0  0  0  0  0  0  0  0
   -0.1870   17.7990   -2.7910 C   0  0  0  0  0  0  0  0  0  0  0  0
   -1.3510   18.5460   -2.1480 C   0  0  0  0  0  0  0  0  0  0  0  0
   -0.9340   19.1640   -0.8170 C   0  0  2  0  0  0  0  0  0  0  0  0
    0.0270   20.1940   -1.0680 O   0  0  0  0  0  0  0  0  0  0  0  0
   -0.3430   18.1290    0.1810 C   0  0  0  0  0  0  0  0  0  0  0  0
   -1.4680   17.1920    0.6850 C   0  0  0  0  0  0  0  0  0  0  0  0
    0.1670   18.9040    1.4260 C   0  0  0  0  0  0  0  0  0  0  0  0
    1.5110   15.8230   -2.5920 C   0  0  1  0  0  0  0  0  0  0  0  0
    2.4440   16.7610   -3.4160 C   0  0  0  0  0  0  0  0  0  0  0  0
    0.8440   14.8400   -3.6250 C   0  0  0  0  0  0  0  0  0  0  0  0
    0.3950   13.4670   -3.0890 C   0  0  0  0  0  0  0  0  0  0  0  0
    1.5150   12.8000   -2.2850 C   0  0  2  0  0  0  0  0  0  0  0  0
    2.7180   12.5480   -3.2570 C   0  0  0  0  0  0  0  0  0  0  0  0
   -0.9176   10.5879   -3.1265 H   0  0  0  0  0  0  0  0  0  0  0  0
    0.3548   11.2657   -4.1980 H   0  0  0  0  0  0  0  0  0  0  0  0
    0.0278    9.4994   -4.1980 H   0  0  0  0  0  0  0  0  0  0  0  0
    2.0817   10.0487   -2.9477 H   0  0  0  0  0  0  0  0  0  0  0  0
    0.2318    8.2580   -2.2022 H   0  0  0  0  0  0  0  0  0  0  0  0
    1.7746    8.5685   -1.2706 H   0  0  0  0  0  0  0  0  0  0  0  0
    0.5211    8.8539    0.5364 H   0  0  0  0  0  0  0  0  0  0  0  0
   -0.0716   10.3833   -0.2359 H   0  0  0  0  0  0  0  0  0  0  0  0
   -1.1441    7.9773    0.3644 H   0  0  0  0  0  0  0  0  0  0  0  0
   -2.4889   11.5530    0.1578 H   0  0  0  0  0  0  0  0  0  0  0  0
   -1.6052   11.3025   -1.3859 H   0  0  0  0  0  0  0  0  0  0  0  0
   -3.3976   11.4198   -1.3859 H   0  0  0  0  0  0  0  0  0  0  0  0
   -3.9985    9.0261    0.8877 H   0  0  0  0  0  0  0  0  0  0  0  0
   -4.7476    9.6933   -0.6024 H   0  0  0  0  0  0  0  0  0  0  0  0
   -4.0788    8.0262   -0.6024 H   0  0  0  0  0  0  0  0  0  0  0  0
    0.1309   11.4825   -1.2269 H   0  0  0  0  0  0  0  0  0  0  0  0
    1.7943   11.0042    0.4579 H   0  0  0  0  0  0  0  0  0  0  0  0
    3.0361   10.6425   -0.7600 H   0  0  0  0  0  0  0  0  0  0  0  0
    2.8681   13.0461    0.7781 H   0  0  0  0  0  0  0  0  0  0  0  0
    3.8597   12.8662   -0.6667 H   0  0  0  0  0  0  0  0  0  0  0  0
    1.0268   13.8589    0.9762 H   0  0  0  0  0  0  0  0  0  0  0  0
    0.2210   14.9198   -0.2288 H   0  0  0  0  0  0  0  0  0  0  0  0
   -0.1029   13.1529   -0.2288 H   0  0  0  0  0  0  0  0  0  0  0  0
    3.3341   14.7454   -2.0996 H   0  0  0  0  0  0  0  0  0  0  0  0
    3.2887   15.4012    0.3917 H   0  0  0  0  0  0  0  0  0  0  0  0
    3.7198   16.6306   -0.9093 H   0  0  0  0  0  0  0  0  0  0  0  0
    2.1457   17.4825    1.0237 H   0  0  0  0  0  0  0  0  0  0  0  0
   -0.4045   15.9233   -1.6897 H   0  0  0  0  0  0  0  0  0  0  0  0
    0.6187   18.5171   -3.0035 H   0  0  0  0  0  0  0  0  0  0  0  0
   -0.5608   17.3264   -3.7113 H   0  0  0  0  0  0  0  0  0  0  0  0
   -1.6850   19.3446   -2.8267 H   0  0  0  0  0  0  0  0  0  0  0  0
   -2.1670   17.8319   -1.9630 H   0  0  0  0  0  0  0  0  0  0  0  0
   -1.8397   19.5724   -0.3448 H   0  0  0  0  0  0  0  0  0  0  0  0
    0.4640   19.9900   -1.9120 H   0  0  0  0  0  0  0  0  0  0  0  0
   -1.4750   17.1862    1.7850 H   0  0  0  0  0  0  0  0  0  0  0  0
   -2.4389   17.5522    0.3140 H   0  0  0  0  0  0  0  0  0  0  0  0
   -1.2893   16.1720    0.3140 H   0  0  0  0  0  0  0  0  0  0  0  0
   -0.1697   18.3923    2.3397 H   0  0  0  0  0  0  0  0  0  0  0  0
    1.2663   18.9406    1.4102 H   0  0  0  0  0  0  0  0  0  0  0  0
   -0.2343   19.9281    1.4102 H   0  0  0  0  0  0  0  0  0  0  0  0
    3.0501   17.3704   -2.7295 H   0  0  0  0  0  0  0  0  0  0  0  0
    3.1069   16.1539   -4.0500 H   0  0  0  0  0  0  0  0  0  0  0  0
    1.8334   17.4207   -4.0500 H   0  0  0  0  0  0  0  0  0  0  0  0
   -0.0435   15.3426   -4.0370 H   0  0  0  0  0  0  0  0  0  0  0  0
    1.6316   14.6179   -4.3601 H   0  0  0  0  0  0  0  0  0  0  0  0
   -0.4822   13.6035   -2.4395 H   0  0  0  0  0  0  0  0  0  0  0  0
    0.1442   12.8215   -3.9437 H   0  0  0  0  0  0  0  0  0  0  0  0
    3.6291   12.3571   -2.6710 H   0  0  0  0  0  0  0  0  0  0  0  0
    2.5005   11.6759   -3.8912 H   0  0  0  0  0  0  0  0  0  0  0  0
    2.8688   13.4340   -3.8912 H   0  0  0  0  0  0  0  0  0  0  0  0
  1  2  1  0
  2  3  1  0
  3  4  1  0
  4  5  1  0
  5  6  1  0
  6  7  1  0
  7  8  1  0
  7  9  1  0
  2 10  1  0
 10 11  1  0
 11 12  1  0
 12 13  1  0
 13 14  1  1
 13 15  1  0
 15 16  1  0
 16 17  1  0
 17 18  2  0
 18 19  1  0
 19 20  1  0
 20 21  1  0
 21 22  1  0
 22 23  1  0
 22 24  1  0
 24 25  1  0
 24 26  1  0
 19 27  1  0
 27 28  1  6
 27 29  1  0
 29 30  1  0
 30 31  1  0
 31 32  1  6
  7  5  1  0
 31 10  1  0
 31 13  1  0
 27 15  1  0
 24 18  1  0
  1 33  1  0
  1 34  1  0
  1 35  1  0
  2 36  1  6
  3 37  1  0
  3 38  1  0
  4 39  1  0
  4 40  1  0
  5 41  1  1
  8 42  1  0
  8 43  1  0
  8 44  1  0
  9 45  1  0
  9 46  1  0
  9 47  1  0
 10 48  1  1
 11 49  1  0
 11 50  1  0
 12 51  1  0
 12 52  1  0
 14 53  1  0
 14 54  1  0
 14 55  1  0
 15 56  1  6
 16 57  1  0
 16 58  1  0
 17 59  1  0
 19 60  1  1
 20 61  1  0
 20 62  1  0
 21 63  1  0
 21 64  1  0
 22 65  1  1
 23 66  1  0
 25 67  1  0
 25 68  1  0
 25 69  1  0
 26 70  1  0
 26 71  1  0
 26 72  1  0
 28 73  1  0
 28 74  1  0
 28 75  1  0
 29 76  1  0
 29 77  1  0
 30 78  1  0
 30 79  1  0
 32 80  1  0
 32 81  1  0
 32 82  1  0
M  END
>  <meeko>  (6) 
{"is_sidechain": [false], "intermolecular_energy": 2.731, "internal_energy": -0.839}

$$$$
EPH_relaxed_0001_pdb2pqr_Repair_102_r2_0001_out
     RDKit          3D

 82 86  0  0  0  0  0  0  0  0999 V2000
    0.4160    8.8660   -2.5290 C   0  0  0  0  0  0  0  0  0  0  0  0
    1.1810   10.0260   -3.1730 C   0  0  2  0  0  0  0  0  0  0  0  0
    2.6730   10.0250   -2.7840 C   0  0  0  0  0  0  0  0  0  0  0  0
    3.5900   10.6100   -3.8620 C   0  0  0  0  0  0  0  0  0  0  0  0
    4.9820   10.8210   -3.3490 C   0  0  2  0  0  0  0  0  0  0  0  0
    5.6020   12.0390   -3.7830 O   0  0  0  0  0  0  0  0  0  0  0  0
    6.2110   10.8200   -4.2390 C   0  0  0  0  0  0  0  0  0  0  0  0
    6.1040   10.6020   -5.7160 C   0  0  0  0  0  0  0  0  0  0  0  0
    7.5450   10.5440   -3.6180 C   0  0  0  0  0  0  0  0  0  0  0  0
    0.5410   11.3520   -2.7810 C   0  0  1  0  0  0  0  0  0  0  0  0
   -0.8330   11.1690   -2.0820 C   0  0  0  0  0  0  0  0  0  0  0  0
   -0.9460   12.2910   -1.0180 C   0  0  0  0  0  0  0  0  0  0  0  0
    0.2000   13.2720   -1.3620 C   0  0  1  0  0  0  0  0  0  0  0  0
   -0.3570   14.1470   -2.5280 C   0  0  0  0  0  0  0  0  0  0  0  0
    0.7340   14.1510   -0.1840 C   0  0  2  0  0  0  0  0  0  0  0  0
   -0.2960   15.1150    0.4290 C   0  0  0  0  0  0  0  0  0  0  0  0
   -0.3460   16.4730   -0.1900 C   0  0  0  0  0  0  0  0  0  0  0  0
    0.5910   16.9970   -1.0020 C   0  0  0  0  0  0  0  0  0  0  0  0
    1.8930   16.2400   -1.2950 C   0  0  1  0  0  0  0  0  0  0  0  0
    3.0970   17.2070   -1.1550 C   0  0  0  0  0  0  0  0  0  0  0  0
    2.9450   18.4590   -2.0140 C   0  0  0  0  0  0  0  0  0  0  0  0
    1.6690   19.2160   -1.6530 C   0  0  2  0  0  0  0  0  0  0  0  0
    1.8000   19.7340   -0.3260 O   0  0  0  0  0  0  0  0  0  0  0  0
    0.3890   18.3390   -1.7480 C   0  0  0  0  0  0  0  0  0  0  0  0
    0.0800   18.0280   -3.2340 C   0  0  0  0  0  0  0  0  0  0  0  0
   -0.8060   19.1800   -1.2230 C   0  0  0  0  0  0  0  0  0  0  0  0
    2.1020   14.8850   -0.4920 C   0  0  1  0  0  0  0  0  0  0  0  0
    2.7680   15.1800    0.8860 C   0  0  0  0  0  0  0  0  0  0  0  0
    3.1080   13.9680   -1.2840 C   0  0  0  0  0  0  0  0  0  0  0  0
    2.5050   13.0350   -2.3510 C   0  0  0  0  0  0  0  0  0  0  0  0
    1.3170   12.2500   -1.7860 C   0  0  2  0  0  0  0  0  0  0  0  0
    1.8520   11.3430   -0.6260 C   0  0  0  0  0  0  0  0  0  0  0  0
    0.4729    8.9523   -1.4339 H   0  0  0  0  0  0  0  0  0  0  0  0
   -0.6370    8.9007   -2.8453 H   0  0  0  0  0  0  0  0  0  0  0  0
    0.8626    7.9118   -2.8453 H   0  0  0  0  0  0  0  0  0  0  0  0
    1.1246    9.8944   -4.2636 H   0  0  0  0  0  0  0  0  0  0  0  0
    2.7931   10.6190   -1.8660 H   0  0  0  0  0  0  0  0  0  0  0  0
    2.9687    8.9746   -2.6455 H   0  0  0  0  0  0  0  0  0  0  0  0
    3.6255    9.9163   -4.7150 H   0  0  0  0  0  0  0  0  0  0  0  0
    3.1841   11.5863   -4.1653 H   0  0  0  0  0  0  0  0  0  0  0  0
    4.7451   10.2857   -2.4177 H   0  0  0  0  0  0  0  0  0  0  0  0
    5.6269    9.6299   -5.9095 H   0  0  0  0  0  0  0  0  0  0  0  0
    5.4970   11.4037   -6.1619 H   0  0  0  0  0  0  0  0  0  0  0  0
    7.1095   10.6122   -6.1619 H   0  0  0  0  0  0  0  0  0  0  0  0
    7.4505   10.5636   -2.5222 H   0  0  0  0  0  0  0  0  0  0  0  0
    7.9004    9.5533   -3.9377 H   0  0  0  0  0  0  0  0  0  0  0  0
    8.2643   11.3123   -3.9377 H   0  0  0  0  0  0  0  0  0  0  0  0
    0.4984   11.8347   -3.7685 H   0  0  0  0  0  0  0  0  0  0  0  0
   -1.6468   11.2600   -2.8164 H   0  0  0  0  0  0  0  0  0  0  0  0
   -0.9108   10.1748   -1.6177 H   0  0  0  0  0  0  0  0  0  0  0  0
   -1.9217   12.7943   -1.0865 H   0  0  0  0  0  0  0  0  0  0  0  0
   -0.8684   11.9022    0.0081 H   0  0  0  0  0  0  0  0  0  0  0  0
   -0.9040   15.0062   -2.1127 H   0  0  0  0  0  0  0  0  0  0  0  0
    0.4778   14.5081   -3.1466 H   0  0  0  0  0  0  0  0  0  0  0  0
   -1.0375   13.5435   -3.1466 H   0  0  0  0  0  0  0  0  0  0  0  0
    0.9420   13.4022    0.5945 H   0  0  0  0  0  0  0  0  0  0  0  0
   -1.2915   14.6583    0.3274 H   0  0  0  0  0  0  0  0  0  0  0  0
    0.0141   15.2678    1.4733 H   0  0  0  0  0  0  0  0  0  0  0  0
   -1.2225   17.0978    0.0367 H   0  0  0  0  0  0  0  0  0  0  0  0
    1.8144   15.8907   -2.3351 H   0  0  0  0  0  0  0  0  0  0  0  0
    3.1846   17.5108   -0.1014 H   0  0  0  0  0  0  0  0  0  0  0  0
    3.9955   16.6734   -1.4986 H   0  0  0  0  0  0  0  0  0  0  0  0
    3.8120   19.1158   -1.8499 H   0  0  0  0  0  0  0  0  0  0  0  0
    2.8870   18.1558   -3.0698 H   0  0  0  0  0  0  0  0  0  0  0  0
    1.5483   20.0275   -2.3857 H   0  0  0  0  0  0  0  0  0  0  0  0
    1.1240   19.3040    0.2260 H   0  0  0  0  0  0  0  0  0  0  0  0
   -0.6942   17.2488   -3.2922 H   0  0  0  0  0  0  0  0  0  0  0  0
   -0.2797   18.9402   -3.7324 H   0  0  0  0  0  0  0  0  0  0  0  0
    0.9945   17.6742   -3.7324 H   0  0  0  0  0  0  0  0  0  0  0  0
   -0.8014   19.1768   -0.1230 H   0  0  0  0  0  0  0  0  0  0  0  0
   -0.7147   20.2140   -1.5870 H   0  0  0  0  0  0  0  0  0  0  0  0
   -1.7485   18.7450   -1.5870 H   0  0  0  0  0  0  0  0  0  0  0  0
    2.0864   14.8781    1.6948 H   0  0  0  0  0  0  0  0  0  0  0  0
    3.7076   14.6139    0.9678 H   0  0  0  0  0  0  0  0  0  0  0  0
    2.9801   16.2563    0.9678 H   0  0  0  0  0  0  0  0  0  0  0  0
    3.8318   14.6256   -1.7877 H   0  0  0  0  0  0  0  0  0  0  0  0
    3.5426   13.2975   -0.5279 H   0  0  0  0  0  0  0  0  0  0  0  0
    2.1639   13.6384   -3.2051 H   0  0  0  0  0  0  0  0  0  0  0  0
    3.2782   12.3200   -2.6686 H   0  0  0  0  0  0  0  0  0  0  0  0
    1.5871   11.7921    0.3426 H   0  0  0  0  0  0  0  0  0  0  0  0
    1.3987   10.3437   -0.7030 H   0  0  0  0  0  0  0  0  0  0  0  0
    2.9459   11.2563   -0.7030 H   0  0  0  0  0  0  0  0  0  0  0  0
  1  2  1  0
  2  3  1  0
  3  4  1  0
  4  5  1  0
  5  6  1  0
  6  7  1  0
  7  8  1  0
  7  9  1  0
  2 10  1  0
 10 11  1  0
 11 12  1  0
 12 13  1  0
 13 14  1  6
 13 15  1  0
 15 16  1  0
 16 17  1  0
 17 18  2  0
 18 19  1  0
 19 20  1  0
 20 21  1  0
 21 22  1  0
 22 23  1  0
 22 24  1  0
 24 25  1  0
 24 26  1  0
 19 27  1  0
 27 28  1  1
 27 29  1  0
 29 30  1  0
 30 31  1  0
 31 32  1  1
  7  5  1  0
 31 10  1  0
 31 13  1  0
 27 15  1  0
 24 18  1  0
  1 33  1  0
  1 34  1  0
  1 35  1  0
  2 36  1  6
  3 37  1  0
  3 38  1  0
  4 39  1  0
  4 40  1  0
  5 41  1  1
  8 42  1  0
  8 43  1  0
  8 44  1  0
  9 45  1  0
  9 46  1  0
  9 47  1  0
 10 48  1  6
 11 49  1  0
 11 50  1  0
 12 51  1  0
 12 52  1  0
 14 53  1  0
 14 54  1  0
 14 55  1  0
 15 56  1  1
 16 57  1  0
 16 58  1  0
 17 59  1  0
 19 60  1  6
 20 61  1  0
 20 62  1  0
 21 63  1  0
 21 64  1  0
 22 65  1  6
 23 66  1  0
 25 67  1  0
 25 68  1  0
 25 69  1  0
 26 70  1  0
 26 71  1  0
 26 72  1  0
 28 73  1  0
 28 74  1  0
 28 75  1  0
 29 76  1  0
 29 77  1  0
 30 78  1  0
 30 79  1  0
 32 80  1  0
 32 81  1  0
 32 82  1  0
M  END
>  <meeko>  (7) 
{"is_sidechain": [false], "intermolecular_energy": 2.731, "internal_energy": -0.839}

$$$$
EPH_relaxed_0001_pdb2pqr_Repair_102_r2_0001_out
     RDKit          3D

 82 86  0  0  0  0  0  0  0  0999 V2000
    2.8920   19.1020   -1.2440 C   0  0  0  0  0  0  0  0  0  0  0  0
    2.5060   18.0430   -2.2800 C   0  0  2  0  0  0  0  0  0  0  0  0
    1.0620   18.2270   -2.7880 C   0  0  0  0  0  0  0  0  0  0  0  0
    0.3540   19.4520   -2.2020 C   0  0  0  0  0  0  0  0  0  0  0  0
   -0.9300   19.0780   -1.5260 C   0  0  2  0  0  0  0  0  0  0  0  0
   -1.7710   20.1880   -1.1830 O   0  0  0  0  0  0  0  0  0  0  0  0
   -1.2480   19.4250   -0.0830 C   0  0  0  0  0  0  0  0  0  0  0  0
   -0.2760   20.1770    0.7710 C   0  0  0  0  0  0  0  0  0  0  0  0
   -2.2830   18.6170    0.6360 C   0  0  0  0  0  0  0  0  0  0  0  0
    2.6760   16.6500   -1.6870 C   0  0  1  0  0  0  0  0  0  0  0  0
    3.2780   16.6780   -0.2570 C   0  0  0  0  0  0  0  0  0  0  0  0
    2.6220   15.5130    0.5270 C   0  0  0  0  0  0  0  0  0  0  0  0
    1.9250   14.6570   -0.5560 C   0  0  1  0  0  0  0  0  0  0  0  0
    3.0610   13.7760   -1.1630 C   0  0  0  0  0  0  0  0  0  0  0  0
    0.7150   13.7900   -0.0780 C   0  0  2  0  0  0  0  0  0  0  0  0
    1.0560   12.7120    0.9650 C   0  0  0  0  0  0  0  0  0  0  0  0
    1.4290   11.3790    0.4060 C   0  0  0  0  0  0  0  0  0  0  0  0
    1.2160   10.9740   -0.8600 C   0  0  0  0  0  0  0  0  0  0  0  0
    0.4500   11.8600   -1.8520 C   0  0  1  0  0  0  0  0  0  0  0  0
   -0.6030   11.0040   -2.6030 C   0  0  0  0  0  0  0  0  0  0  0  0
    0.0070    9.7750   -3.2690 C   0  0  0  0  0  0  0  0  0  0  0  0
    0.7090    8.8900   -2.2420 C   0  0  2  0  0  0  0  0  0  0  0  0
   -0.2740    8.3400   -1.3600 O   0  0  0  0  0  0  0  0  0  0  0  0
    1.7870    9.6470   -1.4160 C   0  0  0  0  0  0  0  0  0  0  0  0
    2.9980    9.9810   -2.3230 C   0  0  0  0  0  0  0  0  0  0  0  0
    2.3170    8.6790   -0.3240 C   0  0  0  0  0  0  0  0  0  0  0  0
   -0.1630   13.1990   -1.2550 C   0  0  1  0  0  0  0  0  0  0  0  0
   -1.5760   12.9170   -0.6580 C   0  0  0  0  0  0  0  0  0  0  0  0
   -0.3730   14.2330   -2.4230 C   0  0  0  0  0  0  0  0  0  0  0  0
    0.8210   15.1430   -2.7680 C   0  0  0  0  0  0  0  0  0  0  0  0
    1.3980   15.7930   -1.5060 C   0  0  2  0  0  0  0  0  0  0  0  0
    0.2840   16.7030   -0.8850 C   0  0  0  0  0  0  0  0  0  0  0  0
    2.7441   18.6963   -0.2323 H   0  0  0  0  0  0  0  0  0  0  0  0
    3.9485   19.3777   -1.3777 H   0  0  0  0  0  0  0  0  0  0  0  0
    2.2608   19.9929   -1.3777 H   0  0  0  0  0  0  0  0  0  0  0  0
    3.1773   18.1640   -3.1430 H   0  0  0  0  0  0  0  0  0  0  0  0
    1.0899   18.3327   -3.8826 H   0  0  0  0  0  0  0  0  0  0  0  0
    0.4930   17.3425   -2.4658 H   0  0  0  0  0  0  0  0  0  0  0  0
    1.0181   19.9301   -1.4668 H   0  0  0  0  0  0  0  0  0  0  0  0
    0.1197   20.1406   -3.0272 H   0  0  0  0  0  0  0  0  0  0  0  0
   -0.9761   18.1314   -2.0845 H   0  0  0  0  0  0  0  0  0  0  0  0
   -0.5059   19.9991    1.8319 H   0  0  0  0  0  0  0  0  0  0  0  0
    0.7458   19.8320    0.5544 H   0  0  0  0  0  0  0  0  0  0  0  0
   -0.3534   21.2527    0.5544 H   0  0  0  0  0  0  0  0  0  0  0  0
   -2.1439   18.7256    1.7217 H   0  0  0  0  0  0  0  0  0  0  0  0
   -3.2855   18.9738    0.3573 H   0  0  0  0  0  0  0  0  0  0  0  0
   -2.1801   17.5579    0.3573 H   0  0  0  0  0  0  0  0  0  0  0  0
    3.3244   16.2017   -2.4542 H   0  0  0  0  0  0  0  0  0  0  0  0
    4.3681   16.5378   -0.3021 H   0  0  0  0  0  0  0  0  0  0  0  0
    3.0846   17.6430    0.2342 H   0  0  0  0  0  0  0  0  0  0  0  0
    3.3848   14.9233    1.0565 H   0  0  0  0  0  0  0  0  0  0  0  0
    1.9181   15.8702    1.2931 H   0  0  0  0  0  0  0  0  0  0  0  0
    3.6467   13.3218   -0.3502 H   0  0  0  0  0  0  0  0  0  0  0  0
    2.6181   12.9829   -1.7833 H   0  0  0  0  0  0  0  0  0  0  0  0
    3.7189   14.4023   -1.7833 H   0  0  0  0  0  0  0  0  0  0  0  0
    0.0900   14.5265    0.4483 H   0  0  0  0  0  0  0  0  0  0  0  0
    1.9014   13.0768    1.5669 H   0  0  0  0  0  0  0  0  0  0  0  0
    0.1371   12.5511    1.5479 H   0  0  0  0  0  0  0  0  0  0  0  0
    1.9195   10.6673    1.0863 H   0  0  0  0  0  0  0  0  0  0  0  0
    1.1983   12.2391   -2.5635 H   0  0  0  0  0  0  0  0  0  0  0  0
   -1.3658   10.6725   -1.8831 H   0  0  0  0  0  0  0  0  0  0  0  0
   -1.0381   11.6308   -3.3954 H   0  0  0  0  0  0  0  0  0  0  0  0
   -0.7912    9.1965   -3.7571 H   0  0  0  0  0  0  0  0  0  0  0  0
    0.7482   10.1087   -4.0101 H   0  0  0  0  0  0  0  0  0  0  0  0
    1.2359    8.0976   -2.7938 H   0  0  0  0  0  0  0  0  0  0  0  0
   -0.8070    7.7080   -1.8720 H   0  0  0  0  0  0  0  0  0  0  0  0
    3.8698   10.2215   -1.6968 H   0  0  0  0  0  0  0  0  0  0  0  0
    3.2308    9.1135   -2.9581 H   0  0  0  0  0  0  0  0  0  0  0  0
    2.7532   10.8452   -2.9581 H   0  0  0  0  0  0  0  0  0  0  0  0
    2.0919    9.0902    0.6711 H   0  0  0  0  0  0  0  0  0  0  0  0
    1.8295    7.6991   -0.4347 H   0  0  0  0  0  0  0  0  0  0  0  0
    3.4051    8.5618   -0.4347 H   0  0  0  0  0  0  0  0  0  0  0  0
   -1.5189   12.9284    0.4405 H   0  0  0  0  0  0  0  0  0  0  0  0
   -2.2786   13.6926   -0.9967 H   0  0  0  0  0  0  0  0  0  0  0  0
   -1.9271   11.9311   -0.9967 H   0  0  0  0  0  0  0  0  0  0  0  0
   -0.6305   13.6643   -3.3287 H   0  0  0  0  0  0  0  0  0  0  0  0
   -1.1602   14.9137   -2.0667 H   0  0  0  0  0  0  0  0  0  0  0  0
    1.6038   14.5412   -3.2528 H   0  0  0  0  0  0  0  0  0  0  0  0
    0.4724   15.9378   -3.4438 H   0  0  0  0  0  0  0  0  0  0  0  0
    0.3416   16.6559    0.2125 H   0  0  0  0  0  0  0  0  0  0  0  0
    0.4323   17.7416   -1.2157 H   0  0  0  0  0  0  0  0  0  0  0  0
   -0.7041   16.3504   -1.2157 H   0  0  0  0  0  0  0  0  0  0  0  0
  1  2  1  0
  2  3  1  0
  3  4  1  0
  4  5  1  0
  5  6  1  0
  6  7  1  0
  7  8  1  0
  7  9  1  0
  2 10  1  0
 10 11  1  0
 11 12  1  0
 12 13  1  0
 13 14  1  6
 13 15  1  0
 15 16  1  0
 16 17  1  0
 17 18  2  0
 18 19  1  0
 19 20  1  0
 20 21  1  0
 21 22  1  0
 22 23  1  0
 22 24  1  0
 24 25  1  0
 24 26  1  0
 19 27  1  0
 27 28  1  1
 27 29  1  0
 29 30  1  0
 30 31  1  0
 31 32  1  1
  7  5  1  0
 31 10  1  0
 31 13  1  0
 27 15  1  0
 24 18  1  0
  1 33  1  0
  1 34  1  0
  1 35  1  0
  2 36  1  6
  3 37  1  0
  3 38  1  0
  4 39  1  0
  4 40  1  0
  5 41  1  6
  8 42  1  0
  8 43  1  0
  8 44  1  0
  9 45  1  0
  9 46  1  0
  9 47  1  0
 10 48  1  6
 11 49  1  0
 11 50  1  0
 12 51  1  0
 12 52  1  0
 14 53  1  0
 14 54  1  0
 14 55  1  0
 15 56  1  1
 16 57  1  0
 16 58  1  0
 17 59  1  0
 19 60  1  6
 20 61  1  0
 20 62  1  0
 21 63  1  0
 21 64  1  0
 22 65  1  6
 23 66  1  0
 25 67  1  0
 25 68  1  0
 25 69  1  0
 26 70  1  0
 26 71  1  0
 26 72  1  0
 28 73  1  0
 28 74  1  0
 28 75  1  0
 29 76  1  0
 29 77  1  0
 30 78  1  0
 30 79  1  0
 32 80  1  0
 32 81  1  0
 32 82  1  0
M  END
>  <meeko>  (8) 
{"is_sidechain": [false], "intermolecular_energy": 2.731, "internal_energy": -0.839}

$$$$
EPH_relaxed_0001_pdb2pqr_Repair_102_r2_0001_out
     RDKit          3D

 82 86  0  0  0  0  0  0  0  0999 V2000
   -3.9600    7.3440   -3.5220 C   0  0  0  0  0  0  0  0  0  0  0  0
   -3.6910    7.2850   -2.0160 C   0  0  2  0  0  0  0  0  0  0  0  0
   -4.9470    6.8840   -1.2170 C   0  0  0  0  0  0  0  0  0  0  0  0
   -5.8670    5.9130   -1.9620 C   0  0  0  0  0  0  0  0  0  0  0  0
   -7.2870    6.0280   -1.4970 C   0  0  2  0  0  0  0  0  0  0  0  0
   -8.2700    5.8080   -2.5170 O   0  0  0  0  0  0  0  0  0  0  0  0
   -8.2290    7.1270   -1.9510 C   0  0  0  0  0  0  0  0  0  0  0  0
   -7.7870    8.1880   -2.9090 C   0  0  0  0  0  0  0  0  0  0  0  0
   -9.4130    7.4530   -1.0950 C   0  0  0  0  0  0  0  0  0  0  0  0
   -3.1710    8.6330   -1.5280 C   0  0  1  0  0  0  0  0  0  0  0  0
   -3.8190    9.0730   -0.1880 C   0  0  0  0  0  0  0  0  0  0  0  0
   -2.7270    9.8310    0.6090 C   0  0  0  0  0  0  0  0  0  0  0  0
   -1.6020   10.0910   -0.4210 C   0  0  1  0  0  0  0  0  0  0  0  0
   -2.0710   11.3490   -1.2190 C   0  0  0  0  0  0  0  0  0  0  0  0
   -0.1630   10.2800    0.1600 C   0  0  2  0  0  0  0  0  0  0  0  0
    0.0110   11.4940    1.0890 C   0  0  0  0  0  0  0  0  0  0  0  0
    0.4220   12.7610    0.4130 C   0  0  0  0  0  0  0  0  0  0  0  0
    0.9160   12.8570   -0.8350 C   0  0  0  0  0  0  0  0  0  0  0  0
    1.1990   11.6000   -1.6690 C   0  0  1  0  0  0  0  0  0  0  0  0
    2.6000   11.7180   -2.3240 C   0  0  0  0  0  0  0  0  0  0  0  0
    2.7630   13.0030   -3.1310 C   0  0  0  0  0  0  0  0  0  0  0  0
    2.5310   14.2300   -2.2530 C   0  0  2  0  0  0  0  0  0  0  0  0
    3.5810   14.3090   -1.2840 O   0  0  0  0  0  0  0  0  0  0  0  0
    1.1540   14.2180   -1.5330 C   0  0  0  0  0  0  0  0  0  0  0  0
    0.0230   14.4370   -2.5690 C   0  0  0  0  0  0  0  0  0  0  0  0
    1.1060   15.4380   -0.5740 C   0  0  0  0  0  0  0  0  0  0  0  0
    0.9880   10.2120   -0.9240 C   0  0  1  0  0  0  0  0  0  0  0  0
    2.2900    9.8110   -0.1660 C   0  0  0  0  0  0  0  0  0  0  0  0
    0.7340    9.0870   -1.9960 C   0  0  0  0  0  0  0  0  0  0  0  0
   -0.7250    8.8680   -2.4420 C   0  0  0  0  0  0  0  0  0  0  0  0
   -1.6550    8.7450   -1.2310 C   0  0  2  0  0  0  0  0  0  0  0  0
   -1.2210    7.4760   -0.4220 C   0  0  0  0  0  0  0  0  0  0  0  0
   -5.0209    7.5767   -3.6961 H   0  0  0  0  0  0  0  0  0  0  0  0
   -3.3338    8.1261   -3.9760 H   0  0  0  0  0  0  0  0  0  0  0  0
   -3.7186    6.3716   -3.9760 H   0  0  0  0  0  0  0  0  0  0  0  0
   -2.9302    6.5090   -1.8456 H   0  0  0  0  0  0  0  0  0  0  0  0
   -4.6246    6.4069   -0.2798 H   0  0  0  0  0  0  0  0  0  0  0  0
   -5.5243    7.8040   -1.0430 H   0  0  0  0  0  0  0  0  0  0  0  0
   -5.8250    6.1368   -3.0382 H   0  0  0  0  0  0  0  0  0  0  0  0
   -5.5214    4.8887   -1.7587 H   0  0  0  0  0  0  0  0  0  0  0  0
   -7.0156    5.6545   -0.4986 H   0  0  0  0  0  0  0  0  0  0  0  0
   -7.4233    9.0609   -2.3471 H   0  0  0  0  0  0  0  0  0  0  0  0
   -6.9773    7.7961   -3.5421 H   0  0  0  0  0  0  0  0  0  0  0  0
   -8.6354    8.4869   -3.5421 H   0  0  0  0  0  0  0  0  0  0  0  0
   -9.1312    7.3754   -0.0345 H   0  0  0  0  0  0  0  0  0  0  0  0
   -9.7505    8.4775   -1.3107 H   0  0  0  0  0  0  0  0  0  0  0  0
  -10.2273    6.7456   -1.3107 H   0  0  0  0  0  0  0  0  0  0  0  0
   -3.4311    9.2566   -2.3960 H   0  0  0  0  0  0  0  0  0  0  0  0
   -4.6757    9.7355   -0.3810 H   0  0  0  0  0  0  0  0  0  0  0  0
   -4.1883    8.2040    0.3763 H   0  0  0  0  0  0  0  0  0  0  0  0
   -3.1211   10.7800    1.0016 H   0  0  0  0  0  0  0  0  0  0  0  0
   -2.3722    9.2585    1.4787 H   0  0  0  0  0  0  0  0  0  0  0  0
   -2.3662   12.1408   -0.5148 H   0  0  0  0  0  0  0  0  0  0  0  0
   -1.2470   11.7098   -1.8521 H   0  0  0  0  0  0  0  0  0  0  0  0
   -2.9301   11.0823   -1.8521 H   0  0  0  0  0  0  0  0  0  0  0  0
   -0.0495    9.3939    0.8018 H   0  0  0  0  0  0  0  0  0  0  0  0
   -0.9486   11.6748    1.5954 H   0  0  0  0  0  0  0  0  0  0  0  0
    0.8302   11.2362    1.7764 H   0  0  0  0  0  0  0  0  0  0  0  0
    0.3115   13.6948    0.9838 H   0  0  0  0  0  0  0  0  0  0  0  0
    0.4239   11.5712   -2.4490 H   0  0  0  0  0  0  0  0  0  0  0  0
    3.3624   11.7005   -1.5312 H   0  0  0  0  0  0  0  0  0  0  0  0
    2.7167   10.8717   -3.0170 H   0  0  0  0  0  0  0  0  0  0  0  0
    3.7820   13.0426   -3.5434 H   0  0  0  0  0  0  0  0  0  0  0  0
    2.0201   13.0055   -3.9423 H   0  0  0  0  0  0  0  0  0  0  0  0
    2.5315   15.1111   -2.9116 H   0  0  0  0  0  0  0  0  0  0  0  0
    3.1840   14.5920   -0.4430 H   0  0  0  0  0  0  0  0  0  0  0  0
   -0.9255   14.6207   -2.0430 H   0  0  0  0  0  0  0  0  0  0  0  0
    0.2665   15.3047   -3.1997 H   0  0  0  0  0  0  0  0  0  0  0  0
   -0.0750   13.5411   -3.1997 H   0  0  0  0  0  0  0  0  0  0  0  0
    1.1198   15.0860    0.4681 H   0  0  0  0  0  0  0  0  0  0  0  0
    1.9795   16.0815   -0.7553 H   0  0  0  0  0  0  0  0  0  0  0  0
    0.1846   16.0109   -0.7553 H   0  0  0  0  0  0  0  0  0  0  0  0
    2.1143    9.8651    0.9185 H   0  0  0  0  0  0  0  0  0  0  0  0
    2.5728    8.7841   -0.4409 H   0  0  0  0  0  0  0  0  0  0  0  0
    3.1015   10.5008   -0.4409 H   0  0  0  0  0  0  0  0  0  0  0  0
    1.3208    9.3416   -2.8909 H   0  0  0  0  0  0  0  0  0  0  0  0
    1.0280    8.1485   -1.5032 H   0  0  0  0  0  0  0  0  0  0  0  0
   -1.0455    9.7220   -3.0568 H   0  0  0  0  0  0  0  0  0  0  0  0
   -0.7785    7.9349   -3.0220 H   0  0  0  0  0  0  0  0  0  0  0  0
   -1.2927    7.6858    0.6554 H   0  0  0  0  0  0  0  0  0  0  0  0
   -1.8825    6.6349   -0.6766 H   0  0  0  0  0  0  0  0  0  0  0  0
   -0.1829    7.2161   -0.6766 H   0  0  0  0  0  0  0  0  0  0  0  0
  1  2  1  0
  2  3  1  0
  3  4  1  0
  4  5  1  0
  5  6  1  0
  6  7  1  0
  7  8  1  0
  7  9  1  0
  2 10  1  0
 10 11  1  0
 11 12  1  0
 12 13  1  0
 13 14  1  6
 13 15  1  0
 15 16  1  0
 16 17  1  0
 17 18  2  0
 18 19  1  0
 19 20  1  0
 20 21  1  0
 21 22  1  0
 22 23  1  0
 22 24  1  0
 24 25  1  0
 24 26  1  0
 19 27  1  0
 27 28  1  1
 27 29  1  0
 29 30  1  0
 30 31  1  0
 31 32  1  1
  7  5  1  0
 31 10  1  0
 31 13  1  0
 27 15  1  0
 24 18  1  0
  1 33  1  0
  1 34  1  0
  1 35  1  0
  2 36  1  6
  3 37  1  0
  3 38  1  0
  4 39  1  0
  4 40  1  0
  5 41  1  1
  8 42  1  0
  8 43  1  0
  8 44  1  0
  9 45  1  0
  9 46  1  0
  9 47  1  0
 10 48  1  6
 11 49  1  0
 11 50  1  0
 12 51  1  0
 12 52  1  0
 14 53  1  0
 14 54  1  0
 14 55  1  0
 15 56  1  1
 16 57  1  0
 16 58  1  0
 17 59  1  0
 19 60  1  6
 20 61  1  0
 20 62  1  0
 21 63  1  0
 21 64  1  0
 22 65  1  6
 23 66  1  0
 25 67  1  0
 25 68  1  0
 25 69  1  0
 26 70  1  0
 26 71  1  0
 26 72  1  0
 28 73  1  0
 28 74  1  0
 28 75  1  0
 29 76  1  0
 29 77  1  0
 30 78  1  0
 30 79  1  0
 32 80  1  0
 32 81  1  0
 32 82  1  0
M  END
>  <meeko>  (9) 
{"is_sidechain": [false], "intermolecular_energy": 2.731, "internal_energy": -0.839}

$$$$
EPH_relaxed_0001_pdb2pqr_Repair_102_r2_0001_out
     RDKit          3D

 82 86  0  0  0  0  0  0  0  0999 V2000
   -2.3220    7.8290   -2.2180 C   0  0  0  0  0  0  0  0  0  0  0  0
   -2.2490    8.4210   -0.8080 C   0  0  2  0  0  0  0  0  0  0  0  0
   -3.6180    8.3980   -0.0970 C   0  0  0  0  0  0  0  0  0  0  0  0
   -4.8090    8.5220   -1.0510 C   0  0  0  0  0  0  0  0  0  0  0  0
   -5.6220    7.2640   -1.0880 C   0  0  2  0  0  0  0  0  0  0  0  0
   -5.6160    6.5840   -2.3500 O   0  0  0  0  0  0  0  0  0  0  0  0
   -6.8830    7.1070   -1.9180 C   0  0  0  0  0  0  0  0  0  0  0  0
   -7.4020    8.2240   -2.7680 C   0  0  0  0  0  0  0  0  0  0  0  0
   -7.8700    6.0510   -1.5280 C   0  0  0  0  0  0  0  0  0  0  0  0
   -1.7180    9.8480   -0.8690 C   0  0  1  0  0  0  0  0  0  0  0  0
   -1.2820   10.3840    0.5200 C   0  0  0  0  0  0  0  0  0  0  0  0
   -0.0570   11.3030    0.2810 C   0  0  0  0  0  0  0  0  0  0  0  0
   -0.0330   11.5310   -1.2490 C   0  0  1  0  0  0  0  0  0  0  0  0
   -1.0850   12.6550   -1.5040 C   0  0  0  0  0  0  0  0  0  0  0  0
    1.3560   11.8880   -1.8730 C   0  0  2  0  0  0  0  0  0  0  0  0
    1.9750   13.2060   -1.3760 C   0  0  0  0  0  0  0  0  0  0  0  0
    1.6200   14.4170   -2.1730 C   0  0  0  0  0  0  0  0  0  0  0  0
    1.0730   14.4120   -3.4020 C   0  0  0  0  0  0  0  0  0  0  0  0
    0.8450   13.0960   -4.1570 C   0  0  1  0  0  0  0  0  0  0  0  0
    1.3440   13.2440   -5.6190 C   0  0  0  0  0  0  0  0  0  0  0  0
    0.7220   14.4410   -6.3310 C   0  0  0  0  0  0  0  0  0  0  0  0
    1.0200   15.7370   -5.5820 C   0  0  2  0  0  0  0  0  0  0  0  0
    2.4250   15.9980   -5.6530 O   0  0  0  0  0  0  0  0  0  0  0  0
    0.5690   15.7020   -4.0950 C   0  0  0  0  0  0  0  0  0  0  0  0
   -0.9770   15.7230   -4.0190 C   0  0  0  0  0  0  0  0  0  0  0  0
    1.0540   17.0130   -3.4180 C   0  0  0  0  0  0  0  0  0  0  0  0
    1.4020   11.7860   -3.4510 C   0  0  1  0  0  0  0  0  0  0  0  0
    2.8970   11.5670   -3.8390 C   0  0  0  0  0  0  0  0  0  0  0  0
    0.6150   10.5350   -3.9940 C   0  0  0  0  0  0  0  0  0  0  0  0
   -0.6870   10.1620   -3.2600 C   0  0  0  0  0  0  0  0  0  0  0  0
   -0.4660   10.1040   -1.7460 C   0  0  2  0  0  0  0  0  0  0  0  0
    0.5720    8.9660   -1.4570 C   0  0  0  0  0  0  0  0  0  0  0  0
   -2.4564    6.7393   -2.1516 H   0  0  0  0  0  0  0  0  0  0  0  0
   -3.1724    8.2711   -2.7577 H   0  0  0  0  0  0  0  0  0  0  0  0
   -1.3896    8.0513   -2.7577 H   0  0  0  0  0  0  0  0  0  0  0  0
   -1.5613    7.7939   -0.2216 H   0  0  0  0  0  0  0  0  0  0  0  0
   -3.7090    7.4483    0.4506 H   0  0  0  0  0  0  0  0  0  0  0  0
   -3.6484    9.2718    0.5704 H   0  0  0  0  0  0  0  0  0  0  0  0
   -5.4497    9.3509   -0.7157 H   0  0  0  0  0  0  0  0  0  0  0  0
   -4.4201    8.7091   -2.0628 H   0  0  0  0  0  0  0  0  0  0  0  0
   -5.4072    7.0660   -0.0275 H   0  0  0  0  0  0  0  0  0  0  0  0
   -7.7774    9.0319   -2.1227 H   0  0  0  0  0  0  0  0  0  0  0  0
   -6.5905    8.6090   -3.4030 H   0  0  0  0  0  0  0  0  0  0  0  0
   -8.2196    7.8521   -3.4030 H   0  0  0  0  0  0  0  0  0  0  0  0
   -7.9273    5.9897   -0.4312 H   0  0  0  0  0  0  0  0  0  0  0  0
   -8.8601    6.3070   -1.9331 H   0  0  0  0  0  0  0  0  0  0  0  0
   -7.5478    5.0804   -1.9331 H   0  0  0  0  0  0  0  0  0  0  0  0
   -2.5932   10.3513   -1.3058 H   0  0  0  0  0  0  0  0  0  0  0  0
   -2.1013   10.9568    0.9791 H   0  0  0  0  0  0  0  0  0  0  0  0
   -1.0286    9.5575    1.2002 H   0  0  0  0  0  0  0  0  0  0  0  0
   -0.1778   12.2576    0.8141 H   0  0  0  0  0  0  0  0  0  0  0  0
    0.8778   10.8568    0.6510 H   0  0  0  0  0  0  0  0  0  0  0  0
   -1.4480   13.0428   -0.5408 H   0  0  0  0  0  0  0  0  0  0  0  0
   -0.6185   13.4710   -2.0755 H   0  0  0  0  0  0  0  0  0  0  0  0
   -1.9300   12.2435   -2.0755 H   0  0  0  0  0  0  0  0  0  0  0  0
    2.0032   11.0889   -1.4826 H   0  0  0  0  0  0  0  0  0  0  0  0
    1.6401   13.3699   -0.3411 H   0  0  0  0  0  0  0  0  0  0  0  0
    3.0642   13.0864   -1.4726 H   0  0  0  0  0  0  0  0  0  0  0  0
    1.8229   15.3970   -1.7166 H   0  0  0  0  0  0  0  0  0  0  0  0
   -0.2417   12.9256   -4.1495 H   0  0  0  0  0  0  0  0  0  0  0  0
    2.4368   13.3693   -5.6076 H   0  0  0  0  0  0  0  0  0  0  0  0
    1.0461   12.3379   -6.1668 H   0  0  0  0  0  0  0  0  0  0  0  0
    1.1357   14.5097   -7.3479 H   0  0  0  0  0  0  0  0  0  0  0  0
   -0.3683   14.2997   -6.3678 H   0  0  0  0  0  0  0  0  0  0  0  0
    0.4426   16.5384   -6.0661 H   0  0  0  0  0  0  0  0  0  0  0  0
    2.8270   15.2980   -6.1950 H   0  0  0  0  0  0  0  0  0  0  0  0
   -1.2923   15.7273   -2.9652 H   0  0  0  0  0  0  0  0  0  0  0  0
   -1.3564   16.6264   -4.5189 H   0  0  0  0  0  0  0  0  0  0  0  0
   -1.3808   14.8303   -4.5189 H   0  0  0  0  0  0  0  0  0  0  0  0
    1.0116   16.8985   -2.3248 H   0  0  0  0  0  0  0  0  0  0  0  0
    2.0893   17.2229   -3.7249 H   0  0  0  0  0  0  0  0  0  0  0  0
    0.4046   17.8461   -3.7249 H   0  0  0  0  0  0  0  0  0  0  0  0
    3.5036   11.4781   -2.9257 H   0  0  0  0  0  0  0  0  0  0  0  0
    2.9906   10.6456   -4.4324 H   0  0  0  0  0  0  0  0  0  0  0  0
    3.2510   12.4229   -4.4324 H   0  0  0  0  0  0  0  0  0  0  0  0
    0.3594   10.7332   -5.0454 H   0  0  0  0  0  0  0  0  0  0  0  0
    1.2892    9.6801   -3.8371 H   0  0  0  0  0  0  0  0  0  0  0  0
   -1.4547   10.9176   -3.4828 H   0  0  0  0  0  0  0  0  0  0  0  0
   -1.0118    9.1693   -3.6051 H   0  0  0  0  0  0  0  0  0  0  0  0
    0.6860    8.8410   -0.3701 H   0  0  0  0  0  0  0  0  0  0  0  0
    0.2157    8.0238   -1.8990 H   0  0  0  0  0  0  0  0  0  0  0  0
    1.5429    9.2344   -1.8990 H   0  0  0  0  0  0  0  0  0  0  0  0
  1  2  1  0
  2  3  1  0
  3  4  1  0
  4  5  1  0
  5  6  1  0
  6  7  1  0
  7  8  1  0
  7  9  1  0
  2 10  1  0
 10 11  1  0
 11 12  1  0
 12 13  1  0
 13 14  1  1
 13 15  1  0
 15 16  1  0
 16 17  1  0
 17 18  2  0
 18 19  1  0
 19 20  1  0
 20 21  1  0
 21 22  1  0
 22 23  1  0
 22 24  1  0
 24 25  1  0
 24 26  1  0
 19 27  1  0
 27 28  1  1
 27 29  1  0
 29 30  1  0
 30 31  1  0
 31 32  1  6
  7  5  1  0
 31 10  1  0
 31 13  1  0
 27 15  1  0
 24 18  1  0
  1 33  1  0
  1 34  1  0
  1 35  1  0
  2 36  1  1
  3 37  1  0
  3 38  1  0
  4 39  1  0
  4 40  1  0
  5 41  1  1
  8 42  1  0
  8 43  1  0
  8 44  1  0
  9 45  1  0
  9 46  1  0
  9 47  1  0
 10 48  1  6
 11 49  1  0
 11 50  1  0
 12 51  1  0
 12 52  1  0
 14 53  1  0
 14 54  1  0
 14 55  1  0
 15 56  1  1
 16 57  1  0
 16 58  1  0
 17 59  1  0
 19 60  1  6
 20 61  1  0
 20 62  1  0
 21 63  1  0
 21 64  1  0
 22 65  1  6
 23 66  1  0
 25 67  1  0
 25 68  1  0
 25 69  1  0
 26 70  1  0
 26 71  1  0
 26 72  1  0
 28 73  1  0
 28 74  1  0
 28 75  1  0
 29 76  1  0
 29 77  1  0
 30 78  1  0
 30 79  1  0
 32 80  1  0
 32 81  1  0
 32 82  1  0
M  END
>  <meeko>  (10) 
{"is_sidechain": [false], "intermolecular_energy": 2.731, "internal_energy": -0.839}

$$$$
EPH_relaxed_0001_pdb2pqr_Repair_102_r2_0001_out
     RDKit          3D

 82 86  0  0  0  0  0  0  0  0999 V2000
   -0.2660   15.1350   -7.6090 C   0  0  0  0  0  0  0  0  0  0  0  0
    1.1140   15.0880   -6.9470 C   0  0  2  0  0  0  0  0  0  0  0  0
    2.2560   15.1650   -7.9800 C   0  0  0  0  0  0  0  0  0  0  0  0
    2.2900   16.4790   -8.7640 C   0  0  0  0  0  0  0  0  0  0  0  0
    1.8750   16.2850  -10.1900 C   0  0  2  0  0  0  0  0  0  0  0  0
    1.1980   15.0480  -10.4540 O   0  0  0  0  0  0  0  0  0  0  0  0
    2.4700   15.2250  -11.0980 C   0  0  0  0  0  0  0  0  0  0  0  0
    3.5330   14.2900  -10.6130 C   0  0  0  0  0  0  0  0  0  0  0  0
    2.3740   15.4160  -12.5800 C   0  0  0  0  0  0  0  0  0  0  0  0
    1.2480   13.8190   -6.1140 C   0  0  1  0  0  0  0  0  0  0  0  0
    2.6760   13.2140   -6.1730 C   0  0  0  0  0  0  0  0  0  0  0  0
    2.9600   12.6010   -4.7780 C   0  0  0  0  0  0  0  0  0  0  0  0
    1.5830   12.5760   -4.0750 C   0  0  1  0  0  0  0  0  0  0  0  0
    0.8730   11.3010   -4.6300 C   0  0  0  0  0  0  0  0  0  0  0  0
    1.6040   12.5910   -2.5120 C   0  0  2  0  0  0  0  0  0  0  0  0
    2.2830   11.3750   -1.8570 C   0  0  0  0  0  0  0  0  0  0  0  0
    1.3800   10.2260   -1.5540 C   0  0  0  0  0  0  0  0  0  0  0  0
    0.0350   10.2730   -1.5340 C   0  0  0  0  0  0  0  0  0  0  0  0
   -0.7100   11.5980   -1.7380 C   0  0  1  0  0  0  0  0  0  0  0  0
   -1.8210   11.7380   -0.6630 C   0  0  0  0  0  0  0  0  0  0  0  0
   -2.7620   10.5380   -0.6340 C   0  0  0  0  0  0  0  0  0  0  0  0
   -1.9910    9.2470   -0.3710 C   0  0  2  0  0  0  0  0  0  0  0  0
   -1.4610    9.2890    0.9570 O   0  0  0  0  0  0  0  0  0  0  0  0
   -0.8390    9.0030   -1.3860 C   0  0  0  0  0  0  0  0  0  0  0  0
   -1.4330    8.6580   -2.7740 C   0  0  0  0  0  0  0  0  0  0  0  0
   -0.0550    7.7450   -0.9250 C   0  0  0  0  0  0  0  0  0  0  0  0
    0.2000   12.8960   -1.8480 C   0  0  1  0  0  0  0  0  0  0  0  0
    0.4950   13.4610   -0.4240 C   0  0  0  0  0  0  0  0  0  0  0  0
   -0.5940   14.0170   -2.6150 C   0  0  0  0  0  0  0  0  0  0  0  0
   -0.4790   14.0230   -4.1520 C   0  0  0  0  0  0  0  0  0  0  0  0
    0.9860   13.9350   -4.5920 C   0  0  2  0  0  0  0  0  0  0  0  0
    1.7200   15.2160   -4.0670 C   0  0  0  0  0  0  0  0  0  0  0  0
   -1.0445   15.1615   -6.8323 H   0  0  0  0  0  0  0  0  0  0  0  0
   -0.3418   16.0362   -8.2351 H   0  0  0  0  0  0  0  0  0  0  0  0
   -0.4030   14.2410   -8.2351 H   0  0  0  0  0  0  0  0  0  0  0  0
    1.1991   15.9701   -6.2953 H   0  0  0  0  0  0  0  0  0  0  0  0
    3.2127   15.0529   -7.4488 H   0  0  0  0  0  0  0  0  0  0  0  0
    2.0837   14.3601   -8.7097 H   0  0  0  0  0  0  0  0  0  0  0  0
    1.6049   17.1959   -8.2879 H   0  0  0  0  0  0  0  0  0  0  0  0
    3.3234   16.8559   -8.7562 H   0  0  0  0  0  0  0  0  0  0  0  0
    1.7258   17.3673  -10.3182 H   0  0  0  0  0  0  0  0  0  0  0  0
    3.5411   14.2829   -9.5131 H   0  0  0  0  0  0  0  0  0  0  0  0
    3.3265   13.2755  -10.9847 H   0  0  0  0  0  0  0  0  0  0  0  0
    4.5128   14.6243  -10.9847 H   0  0  0  0  0  0  0  0  0  0  0  0
    1.8895   16.3799  -12.7948 H   0  0  0  0  0  0  0  0  0  0  0  0
    3.3835   15.4075  -13.0169 H   0  0  0  0  0  0  0  0  0  0  0  0
    1.7785   14.6009  -13.0169 H   0  0  0  0  0  0  0  0  0  0  0  0
    0.4644   13.2070   -6.5845 H   0  0  0  0  0  0  0  0  0  0  0  0
    2.7251   12.4337   -6.9468 H   0  0  0  0  0  0  0  0  0  0  0  0
    3.4207   13.9832   -6.4254 H   0  0  0  0  0  0  0  0  0  0  0  0
    3.3643   11.5827   -4.8763 H   0  0  0  0  0  0  0  0  0  0  0  0
    3.7064   13.1785   -4.2128 H   0  0  0  0  0  0  0  0  0  0  0  0
    0.5269   10.6795   -3.7910 H   0  0  0  0  0  0  0  0  0  0  0  0
    0.0113   11.5996   -5.2450 H   0  0  0  0  0  0  0  0  0  0  0  0
    1.5806   10.7257   -5.2450 H   0  0  0  0  0  0  0  0  0  0  0  0
    2.2545   13.4506   -2.2928 H   0  0  0  0  0  0  0  0  0  0  0  0
    3.0703   11.0181   -2.5374 H   0  0  0  0  0  0  0  0  0  0  0  0
    2.6643   11.7259   -0.8867 H   0  0  0  0  0  0  0  0  0  0  0  0
    1.8536    9.2592   -1.3280 H   0  0  0  0  0  0  0  0  0  0  0  0
   -1.1634   11.5409   -2.7386 H   0  0  0  0  0  0  0  0  0  0  0  0
   -1.3459   11.8374    0.3241 H   0  0  0  0  0  0  0  0  0  0  0  0
   -2.4198   12.6255   -0.9156 H   0  0  0  0  0  0  0  0  0  0  0  0
   -3.5053   10.6824    0.1639 H   0  0  0  0  0  0  0  0  0  0  0  0
   -3.2588   10.4574   -1.6121 H   0  0  0  0  0  0  0  0  0  0  0  0
   -2.6965    8.4116   -0.4910 H   0  0  0  0  0  0  0  0  0  0  0  0
   -1.8390    8.5400    1.4490 H   0  0  0  0  0  0  0  0  0  0  0  0
   -2.3774    8.1095   -2.6426 H   0  0  0  0  0  0  0  0  0  0  0  0
   -1.6228    9.5864   -3.3326 H   0  0  0  0  0  0  0  0  0  0  0  0
   -0.7207    8.0331   -3.3326 H   0  0  0  0  0  0  0  0  0  0  0  0
   -0.0327    7.7092    0.1742 H   0  0  0  0  0  0  0  0  0  0  0  0
   -0.5506    6.8421   -1.3113 H   0  0  0  0  0  0  0  0  0  0  0  0
    0.9739    7.7922   -1.3113 H   0  0  0  0  0  0  0  0  0  0  0  0
    0.1262   12.7547    0.3344 H   0  0  0  0  0  0  0  0  0  0  0  0
    1.5795   13.5976   -0.3012 H   0  0  0  0  0  0  0  0  0  0  0  0
   -0.0128   14.4290   -0.3012 H   0  0  0  0  0  0  0  0  0  0  0  0
   -1.6584   13.9035   -2.3615 H   0  0  0  0  0  0  0  0  0  0  0  0
   -0.1407   14.9647   -2.2890 H   0  0  0  0  0  0  0  0  0  0  0  0
   -1.0290   13.1610   -4.5575 H   0  0  0  0  0  0  0  0  0  0  0  0
   -0.9038   14.9638   -4.5321 H   0  0  0  0  0  0  0  0  0  0  0  0
    1.7190   15.2143   -2.9670 H   0  0  0  0  0  0  0  0  0  0  0  0
    2.7574   15.2200   -4.4327 H   0  0  0  0  0  0  0  0  0  0  0  0
    1.1988   16.1130   -4.4327 H   0  0  0  0  0  0  0  0  0  0  0  0
  1  2  1  0
  2  3  1  0
  3  4  1  0
  4  5  1  0
  5  6  1  0
  6  7  1  0
  7  8  1  0
  7  9  1  0
  2 10  1  0
 10 11  1  0
 11 12  1  0
 12 13  1  0
 13 14  1  1
 13 15  1  0
 15 16  1  0
 16 17  1  0
 17 18  2  0
 18 19  1  0
 19 20  1  0
 20 21  1  0
 21 22  1  0
 22 23  1  0
 22 24  1  0
 24 25  1  0
 24 26  1  0
 19 27  1  0
 27 28  1  1
 27 29  1  0
 29 30  1  0
 30 31  1  0
 31 32  1  1
  7  5  1  0
 31 10  1  0
 31 13  1  0
 27 15  1  0
 24 18  1  0
  1 33  1  0
  1 34  1  0
  1 35  1  0
  2 36  1  1
  3 37  1  0
  3 38  1  0
  4 39  1  0
  4 40  1  0
  5 41  1  6
  8 42  1  0
  8 43  1  0
  8 44  1  0
  9 45  1  0
  9 46  1  0
  9 47  1  0
 10 48  1  6
 11 49  1  0
 11 50  1  0
 12 51  1  0
 12 52  1  0
 14 53  1  0
 14 54  1  0
 14 55  1  0
 15 56  1  6
 16 57  1  0
 16 58  1  0
 17 59  1  0
 19 60  1  6
 20 61  1  0
 20 62  1  0
 21 63  1  0
 21 64  1  0
 22 65  1  1
 23 66  1  0
 25 67  1  0
 25 68  1  0
 25 69  1  0
 26 70  1  0
 26 71  1  0
 26 72  1  0
 28 73  1  0
 28 74  1  0
 28 75  1  0
 29 76  1  0
 29 77  1  0
 30 78  1  0
 30 79  1  0
 32 80  1  0
 32 81  1  0
 32 82  1  0
M  END
>  <meeko>  (11) 
{"is_sidechain": [false], "intermolecular_energy": 2.731, "internal_energy": -0.839}

$$$$
EPH_relaxed_0001_pdb2pqr_Repair_102_r2_0001_out
     RDKit          3D

 82 86  0  0  0  0  0  0  0  0999 V2000
   -4.3900    6.3450   -2.6930 C   0  0  0  0  0  0  0  0  0  0  0  0
   -4.9550    7.6880   -2.2230 C   0  0  2  0  0  0  0  0  0  0  0  0
   -4.7320    7.9150   -0.7140 C   0  0  0  0  0  0  0  0  0  0  0  0
   -3.7430    9.0420   -0.4010 C   0  0  0  0  0  0  0  0  0  0  0  0
   -2.3640    8.7210   -0.8920 C   0  0  2  0  0  0  0  0  0  0  0  0
   -1.3060    9.1280   -0.0140 O   0  0  0  0  0  0  0  0  0  0  0  0
   -1.3520    9.7770   -1.2940 C   0  0  0  0  0  0  0  0  0  0  0  0
   -1.6780   11.2360   -1.2250 C   0  0  0  0  0  0  0  0  0  0  0  0
   -0.2340    9.3850   -2.2090 C   0  0  0  0  0  0  0  0  0  0  0  0
   -6.4420    7.7690   -2.5480 C   0  0  1  0  0  0  0  0  0  0  0  0
   -6.8000    7.0660   -3.8840 C   0  0  0  0  0  0  0  0  0  0  0  0
   -8.2060    6.4390   -3.6970 C   0  0  0  0  0  0  0  0  0  0  0  0
   -8.7460    7.0750   -2.3950 C   0  0  1  0  0  0  0  0  0  0  0  0
   -9.2900    8.4730   -2.8260 C   0  0  0  0  0  0  0  0  0  0  0  0
   -9.8250    6.2500   -1.6190 C   0  0  2  0  0  0  0  0  0  0  0  0
  -11.1360    6.0070   -2.3870 C   0  0  0  0  0  0  0  0  0  0  0  0
  -12.1920    7.0440   -2.1890 C   0  0  0  0  0  0  0  0  0  0  0  0
  -12.2050    7.9720   -1.2140 C   0  0  0  0  0  0  0  0  0  0  0  0
  -11.1310    7.9780   -0.1190 C   0  0  1  0  0  0  0  0  0  0  0  0
  -11.8050    8.1530    1.2670 C   0  0  0  0  0  0  0  0  0  0  0  0
  -12.7080    9.3810    1.3270 C   0  0  0  0  0  0  0  0  0  0  0  0
  -13.7980    9.3100    0.2610 C   0  0  2  0  0  0  0  0  0  0  0  0
  -14.6820    8.2290    0.5770 O   0  0  0  0  0  0  0  0  0  0  0  0
  -13.2380    9.1240   -1.1760 C   0  0  0  0  0  0  0  0  0  0  0  0
  -12.5320   10.4250   -1.6320 C   0  0  0  0  0  0  0  0  0  0  0  0
  -14.4430    8.9260   -2.1360 C   0  0  0  0  0  0  0  0  0  0  0  0
  -10.1030    6.7670   -0.1490 C   0  0  1  0  0  0  0  0  0  0  0  0
  -10.6830    5.5570    0.6450 C   0  0  0  0  0  0  0  0  0  0  0  0
   -8.7820    7.1940    0.5940 C   0  0  0  0  0  0  0  0  0  0  0  0
   -7.7050    7.8980   -0.2530 C   0  0  0  0  0  0  0  0  0  0  0  0
   -7.4260    7.1200   -1.5420 C   0  0  2  0  0  0  0  0  0  0  0  0
   -6.8570    5.7160   -1.1400 C   0  0  0  0  0  0  0  0  0  0  0  0
   -4.1312    5.7299   -1.8186 H   0  0  0  0  0  0  0  0  0  0  0  0
   -5.1443    5.8218   -3.2991 H   0  0  0  0  0  0  0  0  0  0  0  0
   -3.4885    6.5184   -3.2991 H   0  0  0  0  0  0  0  0  0  0  0  0
   -4.4138    8.4810   -2.7599 H   0  0  0  0  0  0  0  0  0  0  0  0
   -5.6994    8.1639   -0.2535 H   0  0  0  0  0  0  0  0  0  0  0  0
   -4.3012    6.9873   -0.3093 H   0  0  0  0  0  0  0  0  0  0  0  0
   -4.0890    9.9655   -0.8882 H   0  0  0  0  0  0  0  0  0  0  0  0
   -3.6982    9.1657    0.6911 H   0  0  0  0  0  0  0  0  0  0  0  0
   -2.7306    7.8181   -1.4023 H   0  0  0  0  0  0  0  0  0  0  0  0
   -1.7474   11.5468   -0.1721 H   0  0  0  0  0  0  0  0  0  0  0  0
   -0.8866   11.8126   -1.7261 H   0  0  0  0  0  0  0  0  0  0  0  0
   -2.6396   11.4209   -1.7261 H   0  0  0  0  0  0  0  0  0  0  0  0
    0.6381    9.0792   -1.6123 H   0  0  0  0  0  0  0  0  0  0  0  0
   -0.5564    8.5463   -2.8435 H   0  0  0  0  0  0  0  0  0  0  0  0
    0.0379   10.2414   -2.8435 H   0  0  0  0  0  0  0  0  0  0  0  0
   -6.5717    8.8613   -2.5495 H   0  0  0  0  0  0  0  0  0  0  0  0
   -6.8180    7.7984   -4.7045 H   0  0  0  0  0  0  0  0  0  0  0  0
   -6.0553    6.2972   -4.1376 H   0  0  0  0  0  0  0  0  0  0  0  0
   -8.8574    6.6849   -4.5486 H   0  0  0  0  0  0  0  0  0  0  0  0
   -8.1693    5.3410   -3.6412 H   0  0  0  0  0  0  0  0  0  0  0  0
   -9.5216    9.0683   -1.9305 H   0  0  0  0  0  0  0  0  0  0  0  0
   -8.5289    8.9937   -3.4256 H   0  0  0  0  0  0  0  0  0  0  0  0
  -10.2029    8.3423   -3.4256 H   0  0  0  0  0  0  0  0  0  0  0  0
   -9.3464    5.2641   -1.5248 H   0  0  0  0  0  0  0  0  0  0  0  0
  -10.8985    5.9642   -3.4602 H   0  0  0  0  0  0  0  0  0  0  0  0
  -11.5520    5.0691   -1.9905 H   0  0  0  0  0  0  0  0  0  0  0  0
  -13.0308    7.0501   -2.9006 H   0  0  0  0  0  0  0  0  0  0  0  0
  -10.4854    8.8428   -0.3318 H   0  0  0  0  0  0  0  0  0  0  0  0
  -12.4101    7.2595    1.4803 H   0  0  0  0  0  0  0  0  0  0  0  0
  -11.0070    8.2885    2.0118 H   0  0  0  0  0  0  0  0  0  0  0  0
  -13.1785    9.4335    2.3199 H   0  0  0  0  0  0  0  0  0  0  0  0
  -12.0956   10.2761    1.1434 H   0  0  0  0  0  0  0  0  0  0  0  0
  -14.3296   10.2730    0.2679 H   0  0  0  0  0  0  0  0  0  0  0  0
  -14.1340    7.4530    0.7850 H   0  0  0  0  0  0  0  0  0  0  0  0
  -12.2192   11.0013   -0.7488 H   0  0  0  0  0  0  0  0  0  0  0  0
  -11.6483   10.1704   -2.2355 H   0  0  0  0  0  0  0  0  0  0  0  0
  -13.2271   11.0272   -2.2355 H   0  0  0  0  0  0  0  0  0  0  0  0
  -15.3599    8.7753   -1.5473 H   0  0  0  0  0  0  0  0  0  0  0  0
  -14.5568    9.8175   -2.7703 H   0  0  0  0  0  0  0  0  0  0  0  0
  -14.2656    8.0450   -2.7703 H   0  0  0  0  0  0  0  0  0  0  0  0
  -10.5911    5.7487    1.7243 H   0  0  0  0  0  0  0  0  0  0  0  0
  -11.7435    5.4225    0.3855 H   0  0  0  0  0  0  0  0  0  0  0  0
  -10.1236    4.6461    0.3855 H   0  0  0  0  0  0  0  0  0  0  0  0
   -9.0643    7.8775    1.4083 H   0  0  0  0  0  0  0  0  0  0  0  0
   -8.3192    6.2517    0.9225 H   0  0  0  0  0  0  0  0  0  0  0  0
   -8.0541    8.9087   -0.5112 H   0  0  0  0  0  0  0  0  0  0  0  0
   -6.7759    7.9495    0.3335 H   0  0  0  0  0  0  0  0  0  0  0  0
   -6.8238    5.6341   -0.0436 H   0  0  0  0  0  0  0  0  0  0  0  0
   -7.5063    4.9269   -1.5472 H   0  0  0  0  0  0  0  0  0  0  0  0
   -5.8415    5.6016   -1.5472 H   0  0  0  0  0  0  0  0  0  0  0  0
  1  2  1  0
  2  3  1  0
  3  4  1  0
  4  5  1  0
  5  6  1  0
  6  7  1  0
  7  8  1  0
  7  9  1  0
  2 10  1  0
 10 11  1  0
 11 12  1  0
 12 13  1  0
 13 14  1  6
 13 15  1  0
 15 16  1  0
 16 17  1  0
 17 18  2  0
 18 19  1  0
 19 20  1  0
 20 21  1  0
 21 22  1  0
 22 23  1  0
 22 24  1  0
 24 25  1  0
 24 26  1  0
 19 27  1  0
 27 28  1  1
 27 29  1  0
 29 30  1  0
 30 31  1  0
 31 32  1  1
  7  5  1  0
 31 10  1  0
 31 13  1  0
 27 15  1  0
 24 18  1  0
  1 33  1  0
  1 34  1  0
  1 35  1  0
  2 36  1  6
  3 37  1  0
  3 38  1  0
  4 39  1  0
  4 40  1  0
  5 41  1  6
  8 42  1  0
  8 43  1  0
  8 44  1  0
  9 45  1  0
  9 46  1  0
  9 47  1  0
 10 48  1  6
 11 49  1  0
 11 50  1  0
 12 51  1  0
 12 52  1  0
 14 53  1  0
 14 54  1  0
 14 55  1  0
 15 56  1  1
 16 57  1  0
 16 58  1  0
 17 59  1  0
 19 60  1  6
 20 61  1  0
 20 62  1  0
 21 63  1  0
 21 64  1  0
 22 65  1  6
 23 66  1  0
 25 67  1  0
 25 68  1  0
 25 69  1  0
 26 70  1  0
 26 71  1  0
 26 72  1  0
 28 73  1  0
 28 74  1  0
 28 75  1  0
 29 76  1  0
 29 77  1  0
 30 78  1  0
 30 79  1  0
 32 80  1  0
 32 81  1  0
 32 82  1  0
M  END
>  <meeko>  (12) 
{"is_sidechain": [false], "intermolecular_energy": 2.731, "internal_energy": -0.839}

$$$$
EPH_relaxed_0001_pdb2pqr_Repair_102_r2_0001_out
     RDKit          3D

 82 86  0  0  0  0  0  0  0  0999 V2000
    0.0670    9.2920   -2.1800 C   0  0  0  0  0  0  0  0  0  0  0  0
    1.0740   10.3100   -2.7220 C   0  0  2  0  0  0  0  0  0  0  0  0
    2.4780    9.7000   -2.9000 C   0  0  0  0  0  0  0  0  0  0  0  0
    3.3780   10.4930   -3.8510 C   0  0  0  0  0  0  0  0  0  0  0  0
    4.7630   10.6520   -3.3010 C   0  0  2  0  0  0  0  0  0  0  0  0
    5.3940   11.8990   -3.6190 O   0  0  0  0  0  0  0  0  0  0  0  0
    6.0060   10.7210   -4.1690 C   0  0  0  0  0  0  0  0  0  0  0  0
    5.9220   10.6320   -5.6600 C   0  0  0  0  0  0  0  0  0  0  0  0
    7.3280   10.3850   -3.5530 C   0  0  0  0  0  0  0  0  0  0  0  0
    1.1440   11.5160   -1.7930 C   0  0  1  0  0  0  0  0  0  0  0  0
    2.2640   11.3840   -0.7260 C   0  0  0  0  0  0  0  0  0  0  0  0
    2.8270   12.8090   -0.4900 C   0  0  0  0  0  0  0  0  0  0  0  0
    1.8040   13.7500   -1.1680 C   0  0  1  0  0  0  0  0  0  0  0  0
    0.6470   13.8990   -0.1320 C   0  0  0  0  0  0  0  0  0  0  0  0
    2.3460   15.1410   -1.6320 C   0  0  2  0  0  0  0  0  0  0  0  0
    2.8660   16.0480   -0.5020 C   0  0  0  0  0  0  0  0  0  0  0  0
    1.8510   16.9590    0.1030 C   0  0  0  0  0  0  0  0  0  0  0  0
    0.6500   17.2540   -0.4290 C   0  0  0  0  0  0  0  0  0  0  0  0
    0.2480   16.7240   -1.8110 C   0  0  1  0  0  0  0  0  0  0  0  0
   -0.3660   17.8760   -2.6490 C   0  0  0  0  0  0  0  0  0  0  0  0
   -1.5200   18.5700   -1.9330 C   0  0  0  0  0  0  0  0  0  0  0  0
   -1.0670   19.1350   -0.5890 C   0  0  2  0  0  0  0  0  0  0  0  0
   -0.1340   20.1930   -0.8240 O   0  0  0  0  0  0  0  0  0  0  0  0
   -0.4230   18.0670    0.3390 C   0  0  0  0  0  0  0  0  0  0  0  0
   -1.5120   17.0850    0.8370 C   0  0  0  0  0  0  0  0  0  0  0  0
    0.1170   18.7930    1.6000 C   0  0  0  0  0  0  0  0  0  0  0  0
    1.3730   15.9260   -2.6010 C   0  0  1  0  0  0  0  0  0  0  0  0
    2.2590   16.9200   -3.4130 C   0  0  0  0  0  0  0  0  0  0  0  0
    0.6870   14.9800   -3.6560 C   0  0  0  0  0  0  0  0  0  0  0  0
    0.2820   13.5750   -3.1690 C   0  0  0  0  0  0  0  0  0  0  0  0
    1.4420   12.8940   -2.4360 C   0  0  2  0  0  0  0  0  0  0  0  0
    2.6140   12.7100   -3.4600 C   0  0  0  0  0  0  0  0  0  0  0  0
    0.0840    9.3092   -1.0803 H   0  0  0  0  0  0  0  0  0  0  0  0
   -0.9418    9.5493   -2.5352 H   0  0  0  0  0  0  0  0  0  0  0  0
    0.3353    8.2861   -2.5352 H   0  0  0  0  0  0  0  0  0  0  0  0
    0.7234   10.6256   -3.7157 H   0  0  0  0  0  0  0  0  0  0  0  0
    2.9656    9.6578   -1.9149 H   0  0  0  0  0  0  0  0  0  0  0  0
    2.3411    8.7029   -3.3439 H   0  0  0  0  0  0  0  0  0  0  0  0
    3.4353    9.9624   -4.8129 H   0  0  0  0  0  0  0  0  0  0  0  0
    2.9429   11.4952   -3.9786 H   0  0  0  0  0  0  0  0  0  0  0  0
    4.5095   10.0398   -2.4230 H   0  0  0  0  0  0  0  0  0  0  0  0
    5.1920    9.8585   -5.9406 H   0  0  0  0  0  0  0  0  0  0  0  0
    5.6030   11.6025   -6.0679 H   0  0  0  0  0  0  0  0  0  0  0  0
    6.9093   10.3696   -6.0679 H   0  0  0  0  0  0  0  0  0  0  0  0
    7.2382   10.4078   -2.4569 H   0  0  0  0  0  0  0  0  0  0  0  0
    7.6375    9.3796   -3.8747 H   0  0  0  0  0  0  0  0  0  0  0  0
    8.0800   11.1206   -3.8747 H   0  0  0  0  0  0  0  0  0  0  0  0
    0.1188   11.5008   -1.3945 H   0  0  0  0  0  0  0  0  0  0  0  0
    1.8500   10.9805    0.2098 H   0  0  0  0  0  0  0  0  0  0  0  0
    3.0543   10.6983   -1.0656 H   0  0  0  0  0  0  0  0  0  0  0  0
    2.8991   13.0247    0.5862 H   0  0  0  0  0  0  0  0  0  0  0  0
    3.8406   12.9302   -0.8998 H   0  0  0  0  0  0  0  0  0  0  0  0
    1.0581   13.8461    0.8869 H   0  0  0  0  0  0  0  0  0  0  0  0
    0.1483   14.8688   -0.2762 H   0  0  0  0  0  0  0  0  0  0  0  0
   -0.0811   13.0872   -0.2762 H   0  0  0  0  0  0  0  0  0  0  0  0
    3.2303   14.8637   -2.2246 H   0  0  0  0  0  0  0  0  0  0  0  0
    3.2623   15.4031    0.2961 H   0  0  0  0  0  0  0  0  0  0  0  0
    3.6247   16.6996   -0.9600 H   0  0  0  0  0  0  0  0  0  0  0  0
    2.1053   17.4291    1.0644 H   0  0  0  0  0  0  0  0  0  0  0  0
   -0.5113   15.9487   -1.6309 H   0  0  0  0  0  0  0  0  0  0  0  0
    0.4186   18.6188   -2.8553 H   0  0  0  0  0  0  0  0  0  0  0  0
   -0.7637   17.4385   -3.5766 H   0  0  0  0  0  0  0  0  0  0  0  0
   -1.8919   19.3921   -2.5622 H   0  0  0  0  0  0  0  0  0  0  0  0
   -2.3163   17.8326   -1.7536 H   0  0  0  0  0  0  0  0  0  0  0  0
   -1.9628   19.5041   -0.0681 H   0  0  0  0  0  0  0  0  0  0  0  0
   -0.0710   20.7180   -0.0080 H   0  0  0  0  0  0  0  0  0  0  0  0
   -1.5222   17.0758    1.9369 H   0  0  0  0  0  0  0  0  0  0  0  0
   -2.4952   17.4078    0.4639 H   0  0  0  0  0  0  0  0  0  0  0  0
   -1.2922   16.0738    0.4639 H   0  0  0  0  0  0  0  0  0  0  0  0
   -0.2583   18.2884    2.5025 H   0  0  0  0  0  0  0  0  0  0  0  0
    1.2167   18.7665    1.5956 H   0  0  0  0  0  0  0  0  0  0  0  0
   -0.2246   19.8386    1.5956 H   0  0  0  0  0  0  0  0  0  0  0  0
    2.8266   17.5568   -2.7185 H   0  0  0  0  0  0  0  0  0  0  0  0
    2.9581   16.3545   -4.0466 H   0  0  0  0  0  0  0  0  0  0  0  0
    1.6172   17.5498   -4.0466 H   0  0  0  0  0  0  0  0  0  0  0  0
   -0.2234   15.4840   -4.0126 H   0  0  0  0  0  0  0  0  0  0  0  0
    1.4510   14.8080   -4.4284 H   0  0  0  0  0  0  0  0  0  0  0  0
   -0.5739   13.6644   -2.4838 H   0  0  0  0  0  0  0  0  0  0  0  0
    0.0126   12.9645   -4.0435 H   0  0  0  0  0  0  0  0  0  0  0  0
    3.5577   12.5619   -2.9145 H   0  0  0  0  0  0  0  0  0  0  0  0
    2.4142   11.8322   -4.0921 H   0  0  0  0  0  0  0  0  0  0  0  0
    2.6928   13.6068   -4.0921 H   0  0  0  0  0  0  0  0  0  0  0  0
  1  2  1  0
  2  3  1  0
  3  4  1  0
  4  5  1  0
  5  6  1  0
  6  7  1  0
  7  8  1  0
  7  9  1  0
  2 10  1  0
 10 11  1  0
 11 12  1  0
 12 13  1  0
 13 14  1  1
 13 15  1  0
 15 16  1  0
 16 17  1  0
 17 18  2  0
 18 19  1  0
 19 20  1  0
 20 21  1  0
 21 22  1  0
 22 23  1  0
 22 24  1  0
 24 25  1  0
 24 26  1  0
 19 27  1  0
 27 28  1  6
 27 29  1  0
 29 30  1  0
 30 31  1  0
 31 32  1  6
  7  5  1  0
 31 10  1  0
 31 13  1  0
 27 15  1  0
 24 18  1  0
  1 33  1  0
  1 34  1  0
  1 35  1  0
  2 36  1  6
  3 37  1  0
  3 38  1  0
  4 39  1  0
  4 40  1  0
  5 41  1  1
  8 42  1  0
  8 43  1  0
  8 44  1  0
  9 45  1  0
  9 46  1  0
  9 47  1  0
 10 48  1  1
 11 49  1  0
 11 50  1  0
 12 51  1  0
 12 52  1  0
 14 53  1  0
 14 54  1  0
 14 55  1  0
 15 56  1  6
 16 57  1  0
 16 58  1  0
 17 59  1  0
 19 60  1  1
 20 61  1  0
 20 62  1  0
 21 63  1  0
 21 64  1  0
 22 65  1  1
 23 66  1  0
 25 67  1  0
 25 68  1  0
 25 69  1  0
 26 70  1  0
 26 71  1  0
 26 72  1  0
 28 73  1  0
 28 74  1  0
 28 75  1  0
 29 76  1  0
 29 77  1  0
 30 78  1  0
 30 79  1  0
 32 80  1  0
 32 81  1  0
 32 82  1  0
M  END
>  <meeko>  (13) 
{"is_sidechain": [false], "intermolecular_energy": 2.731, "internal_energy": -0.839}

$$$$
EPH_relaxed_0001_pdb2pqr_Repair_102_r2_0001_out
     RDKit          3D

 82 86  0  0  0  0  0  0  0  0999 V2000
    0.9100   14.8110   -2.6530 C   0  0  0  0  0  0  0  0  0  0  0  0
    1.2000   14.1220   -3.9900 C   0  0  2  0  0  0  0  0  0  0  0  0
    0.5230   14.8420   -5.1730 C   0  0  0  0  0  0  0  0  0  0  0  0
    1.2160   14.6020   -6.5170 C   0  0  0  0  0  0  0  0  0  0  0  0
    0.9490   15.7150   -7.4850 C   0  0  2  0  0  0  0  0  0  0  0  0
    0.3940   15.2990   -8.7390 O   0  0  0  0  0  0  0  0  0  0  0  0
    1.7040   15.8880   -8.7900 C   0  0  0  0  0  0  0  0  0  0  0  0
    2.7840   14.9360   -9.1990 C   0  0  0  0  0  0  0  0  0  0  0  0
    1.7310   17.2420   -9.4270 C   0  0  0  0  0  0  0  0  0  0  0  0
    0.7450   12.6690   -3.9340 C   0  0  1  0  0  0  0  0  0  0  0  0
    1.8850   11.6720   -4.2730 C   0  0  0  0  0  0  0  0  0  0  0  0
    1.6580   10.4160   -3.3930 C   0  0  0  0  0  0  0  0  0  0  0  0
    0.2280   10.5880   -2.8290 C   0  0  1  0  0  0  0  0  0  0  0  0
   -0.7160   10.1100   -3.9770 C   0  0  0  0  0  0  0  0  0  0  0  0
   -0.0790    9.8510   -1.4850 C   0  0  2  0  0  0  0  0  0  0  0  0
    0.0250    8.3170   -1.5430 C   0  0  0  0  0  0  0  0  0  0  0  0
   -1.2400    7.6060   -1.8960 C   0  0  0  0  0  0  0  0  0  0  0  0
   -2.4720    8.1460   -1.8780 C   0  0  0  0  0  0  0  0  0  0  0  0
   -2.6970    9.5790   -1.3780 C   0  0  1  0  0  0  0  0  0  0  0  0
   -3.9060    9.6050   -0.4060 C   0  0  0  0  0  0  0  0  0  0  0  0
   -5.1630    8.9970   -1.0200 C   0  0  0  0  0  0  0  0  0  0  0  0
   -4.9170    7.5530   -1.4510 C   0  0  2  0  0  0  0  0  0  0  0  0
   -4.6940    6.7550   -0.2840 O   0  0  0  0  0  0  0  0  0  0  0  0
   -3.7150    7.4020   -2.4250 C   0  0  0  0  0  0  0  0  0  0  0  0
   -4.0800    8.0120   -3.8010 C   0  0  0  0  0  0  0  0  0  0  0  0
   -3.4870    5.8860   -2.6700 C   0  0  0  0  0  0  0  0  0  0  0  0
   -1.4200   10.3140   -0.7830 C   0  0  1  0  0  0  0  0  0  0  0  0
   -1.2690    9.9760    0.7320 C   0  0  0  0  0  0  0  0  0  0  0  0
   -1.6350   11.8710   -0.8720 C   0  0  0  0  0  0  0  0  0  0  0  0
   -1.2020   12.5590   -2.1800 C   0  0  0  0  0  0  0  0  0  0  0  0
    0.2170   12.1400   -2.5770 C   0  0  2  0  0  0  0  0  0  0  0  0
    1.1920   12.6280   -1.4510 C   0  0  0  0  0  0  0  0  0  0  0  0
    1.1917   14.1416   -1.8268 H   0  0  0  0  0  0  0  0  0  0  0  0
    1.4928   15.7415   -2.5860 H   0  0  0  0  0  0  0  0  0  0  0  0
   -0.1628   15.0447   -2.5860 H   0  0  0  0  0  0  0  0  0  0  0  0
    2.2865   14.1651   -4.1566 H   0  0  0  0  0  0  0  0  0  0  0  0
   -0.5148   14.4854   -5.2487 H   0  0  0  0  0  0  0  0  0  0  0  0
    0.5818   15.9213   -4.9689 H   0  0  0  0  0  0  0  0  0  0  0  0
    2.3007   14.5270   -6.3504 H   0  0  0  0  0  0  0  0  0  0  0  0
    0.8179   13.6709   -6.9467 H   0  0  0  0  0  0  0  0  0  0  0  0
    0.7308   16.4101   -6.6609 H   0  0  0  0  0  0  0  0  0  0  0  0
    3.2612   14.5154   -8.3016 H   0  0  0  0  0  0  0  0  0  0  0  0
    2.3484   14.1227   -9.7980 H   0  0  0  0  0  0  0  0  0  0  0  0
    3.5362   15.4702   -9.7980 H   0  0  0  0  0  0  0  0  0  0  0  0
    1.7464   18.0151   -8.6446 H   0  0  0  0  0  0  0  0  0  0  0  0
    2.6312   17.3352  -10.0523 H   0  0  0  0  0  0  0  0  0  0  0  0
    0.8352   17.3710  -10.0523 H   0  0  0  0  0  0  0  0  0  0  0  0
   -0.0736   12.7047   -4.6679 H   0  0  0  0  0  0  0  0  0  0  0  0
    1.8460   11.4002   -5.3382 H   0  0  0  0  0  0  0  0  0  0  0  0
    2.8710   12.1184   -4.0769 H   0  0  0  0  0  0  0  0  0  0  0  0
    1.7293    9.5000   -3.9979 H   0  0  0  0  0  0  0  0  0  0  0  0
    2.4118   10.3223   -2.5973 H   0  0  0  0  0  0  0  0  0  0  0  0
   -1.6180    9.6533   -3.5437 H   0  0  0  0  0  0  0  0  0  0  0  0
   -1.0033   10.9713   -4.5981 H   0  0  0  0  0  0  0  0  0  0  0  0
   -0.1918    9.3687   -4.5981 H   0  0  0  0  0  0  0  0  0  0  0  0
    0.7489   10.1818   -0.8406 H   0  0  0  0  0  0  0  0  0  0  0  0
    0.7834    8.0557   -2.2957 H   0  0  0  0  0  0  0  0  0  0  0  0
    0.2845    7.9903   -0.5252 H   0  0  0  0  0  0  0  0  0  0  0  0
   -1.1573    6.5510   -2.1963 H   0  0  0  0  0  0  0  0  0  0  0  0
   -2.9232   10.1804   -2.2709 H   0  0  0  0  0  0  0  0  0  0  0  0
   -3.6441    9.0355    0.4979 H   0  0  0  0  0  0  0  0  0  0  0  0
   -4.1240   10.6575   -0.1722 H   0  0  0  0  0  0  0  0  0  0  0  0
   -5.9730    9.0175   -0.2760 H   0  0  0  0  0  0  0  0  0  0  0  0
   -5.4401    9.5855   -1.9071 H   0  0  0  0  0  0  0  0  0  0  0  0
   -5.8093    7.2149   -1.9983 H   0  0  0  0  0  0  0  0  0  0  0  0
   -3.9000    6.2170   -0.4430 H   0  0  0  0  0  0  0  0  0  0  0  0
   -4.6395    8.9471   -3.6508 H   0  0  0  0  0  0  0  0  0  0  0  0
   -3.1592    8.2222   -4.3648 H   0  0  0  0  0  0  0  0  0  0  0  0
   -4.7006    7.2999   -4.3648 H   0  0  0  0  0  0  0  0  0  0  0  0
   -3.4088    5.3661   -1.7038 H   0  0  0  0  0  0  0  0  0  0  0  0
   -4.3335    5.4753   -3.2399 H   0  0  0  0  0  0  0  0  0  0  0  0
   -2.5572    5.7424   -3.2399 H   0  0  0  0  0  0  0  0  0  0  0  0
   -1.6444   10.8164    1.3344 H   0  0  0  0  0  0  0  0  0  0  0  0
   -1.8481    9.0703    0.9651 H   0  0  0  0  0  0  0  0  0  0  0  0
   -0.2080    9.8030    0.9651 H   0  0  0  0  0  0  0  0  0  0  0  0
   -2.7084   12.0670   -0.7326 H   0  0  0  0  0  0  0  0  0  0  0  0
   -0.9834   12.2960   -0.0943 H   0  0  0  0  0  0  0  0  0  0  0  0
   -1.8985   12.2760   -2.9830 H   0  0  0  0  0  0  0  0  0  0  0  0
   -1.2153   13.6478   -2.0243 H   0  0  0  0  0  0  0  0  0  0  0  0
    0.7538   12.4087   -0.4662 H   0  0  0  0  0  0  0  0  0  0  0  0
    2.1552   12.1057   -1.5483 H   0  0  0  0  0  0  0  0  0  0  0  0
    1.3512   13.7121   -1.5483 H   0  0  0  0  0  0  0  0  0  0  0  0
  1  2  1  0
  2  3  1  0
  3  4  1  0
  4  5  1  0
  5  6  1  0
  6  7  1  0
  7  8  1  0
  7  9  1  0
  2 10  1  0
 10 11  1  0
 11 12  1  0
 12 13  1  0
 13 14  1  6
 13 15  1  0
 15 16  1  0
 16 17  1  0
 17 18  2  0
 18 19  1  0
 19 20  1  0
 20 21  1  0
 21 22  1  0
 22 23  1  0
 22 24  1  0
 24 25  1  0
 24 26  1  0
 19 27  1  0
 27 28  1  1
 27 29  1  0
 29 30  1  0
 30 31  1  0
 31 32  1  1
  7  5  1  0
 31 10  1  0
 31 13  1  0
 27 15  1  0
 24 18  1  0
  1 33  1  0
  1 34  1  0
  1 35  1  0
  2 36  1  6
  3 37  1  0
  3 38  1  0
  4 39  1  0
  4 40  1  0
  5 41  1  1
  8 42  1  0
  8 43  1  0
  8 44  1  0
  9 45  1  0
  9 46  1  0
  9 47  1  0
 10 48  1  6
 11 49  1  0
 11 50  1  0
 12 51  1  0
 12 52  1  0
 14 53  1  0
 14 54  1  0
 14 55  1  0
 15 56  1  1
 16 57  1  0
 16 58  1  0
 17 59  1  0
 19 60  1  6
 20 61  1  0
 20 62  1  0
 21 63  1  0
 21 64  1  0
 22 65  1  6
 23 66  1  0
 25 67  1  0
 25 68  1  0
 25 69  1  0
 26 70  1  0
 26 71  1  0
 26 72  1  0
 28 73  1  0
 28 74  1  0
 28 75  1  0
 29 76  1  0
 29 77  1  0
 30 78  1  0
 30 79  1  0
 32 80  1  0
 32 81  1  0
 32 82  1  0
M  END
>  <meeko>  (14) 
{"is_sidechain": [false], "intermolecular_energy": 2.731, "internal_energy": -0.839}

$$$$
EPH_relaxed_0001_pdb2pqr_Repair_102_r2_0001_out
     RDKit          3D

 82 86  0  0  0  0  0  0  0  0999 V2000
    0.1430    9.8410   -4.6190 C   0  0  0  0  0  0  0  0  0  0  0  0
    1.1770   10.5460   -3.7370 C   0  0  2  0  0  0  0  0  0  0  0  0
    1.5970    9.6820   -2.5310 C   0  0  0  0  0  0  0  0  0  0  0  0
    0.5610    8.6230   -2.1420 C   0  0  0  0  0  0  0  0  0  0  0  0
   -0.2920    9.0770   -0.9970 C   0  0  2  0  0  0  0  0  0  0  0  0
   -0.8530    8.0160   -0.2120 O   0  0  0  0  0  0  0  0  0  0  0  0
   -1.7900    8.8400   -0.9240 C   0  0  0  0  0  0  0  0  0  0  0  0
   -2.5200    8.1250   -2.0170 C   0  0  0  0  0  0  0  0  0  0  0  0
   -2.6110    9.7240   -0.0380 C   0  0  0  0  0  0  0  0  0  0  0  0
    0.6250   11.8820   -3.2550 C   0  0  1  0  0  0  0  0  0  0  0  0
   -0.8420   11.7780   -2.7590 C   0  0  0  0  0  0  0  0  0  0  0  0
   -0.9860   12.7730   -1.5780 C   0  0  0  0  0  0  0  0  0  0  0  0
    0.2880   13.6470   -1.6460 C   0  0  1  0  0  0  0  0  0  0  0  0
   -0.0150   14.7130   -2.7450 C   0  0  0  0  0  0  0  0  0  0  0  0
    0.7410   14.3120   -0.3060 C   0  0  2  0  0  0  0  0  0  0  0  0
   -0.2610   15.3110    0.2990 C   0  0  0  0  0  0  0  0  0  0  0  0
   -0.0900   16.7290   -0.1370 C   0  0  0  0  0  0  0  0  0  0  0  0
    0.9960   17.2330   -0.7510 C   0  0  0  0  0  0  0  0  0  0  0  0
    2.2430   16.3690   -0.9800 C   0  0  1  0  0  0  0  0  0  0  0  0
    3.5080   17.1670   -0.5670 C   0  0  0  0  0  0  0  0  0  0  0  0
    3.6000   18.5210   -1.2640 C   0  0  0  0  0  0  0  0  0  0  0  0
    2.3680   19.3720   -0.9660 C   0  0  2  0  0  0  0  0  0  0  0  0
    2.3680   19.7110    0.4250 O   0  0  0  0  0  0  0  0  0  0  0  0
    1.0320   18.6680   -1.3320 C   0  0  0  0  0  0  0  0  0  0  0  0
    0.9000   18.5730   -2.8720 C   0  0  0  0  0  0  0  0  0  0  0  0
   -0.1330   19.5740   -0.8510 C   0  0  0  0  0  0  0  0  0  0  0  0
    2.2050   14.9130   -0.3440 C   0  0  1  0  0  0  0  0  0  0  0  0
    2.7030   14.9650    1.1330 C   0  0  0  0  0  0  0  0  0  0  0  0
    3.2130   13.9860   -1.1200 C   0  0  0  0  0  0  0  0  0  0  0  0
    2.6710   13.2630   -2.3680 C   0  0  0  0  0  0  0  0  0  0  0  0
    1.3450   12.5600   -2.0620 C   0  0  2  0  0  0  0  0  0  0  0  0
    1.6230   11.4660   -0.9750 C   0  0  0  0  0  0  0  0  0  0  0  0
   -0.5983    9.3356   -3.9825 H   0  0  0  0  0  0  0  0  0  0  0  0
   -0.3638   10.5825   -5.2541 H   0  0  0  0  0  0  0  0  0  0  0  0
    0.6481    9.0984   -5.2541 H   0  0  0  0  0  0  0  0  0  0  0  0
    2.0747   10.7150   -4.3499 H   0  0  0  0  0  0  0  0  0  0  0  0
    2.5387    9.1713   -2.7808 H   0  0  0  0  0  0  0  0  0  0  0  0
    1.7025   10.3598   -1.6711 H   0  0  0  0  0  0  0  0  0  0  0  0
   -0.0847    8.4204   -3.0092 H   0  0  0  0  0  0  0  0  0  0  0  0
    1.0986    7.7153   -1.8304 H   0  0  0  0  0  0  0  0  0  0  0  0
    0.3188    9.9829   -0.8695 H   0  0  0  0  0  0  0  0  0  0  0  0
   -3.2401    7.4197   -1.5766 H   0  0  0  0  0  0  0  0  0  0  0  0
   -3.0567    8.8565   -2.6390 H   0  0  0  0  0  0  0  0  0  0  0  0
   -1.7998    7.5732   -2.6390 H   0  0  0  0  0  0  0  0  0  0  0  0
   -2.3944    9.4907    1.0149 H   0  0  0  0  0  0  0  0  0  0  0  0
   -2.3629   10.7767   -0.2389 H   0  0  0  0  0  0  0  0  0  0  0  0
   -3.6791    9.5543   -0.2389 H   0  0  0  0  0  0  0  0  0  0  0  0
    0.7647   12.4797   -4.1678 H   0  0  0  0  0  0  0  0  0  0  0  0
   -1.5358   12.0481   -3.5687 H   0  0  0  0  0  0  0  0  0  0  0  0
   -1.0804   10.7518   -2.4425 H   0  0  0  0  0  0  0  0  0  0  0  0
   -1.8878   13.3912   -1.6989 H   0  0  0  0  0  0  0  0  0  0  0  0
   -1.0884   12.2597   -0.6105 H   0  0  0  0  0  0  0  0  0  0  0  0
   -0.2858   15.6659   -2.2668 H   0  0  0  0  0  0  0  0  0  0  0  0
    0.8776   14.8578   -3.3714 H   0  0  0  0  0  0  0  0  0  0  0  0
   -0.8503   14.3667   -3.3714 H   0  0  0  0  0  0  0  0  0  0  0  0
    0.7639   13.4570    0.3857 H   0  0  0  0  0  0  0  0  0  0  0  0
   -1.2743   14.9887    0.0175 H   0  0  0  0  0  0  0  0  0  0  0  0
   -0.0816   15.3025    1.3842 H   0  0  0  0  0  0  0  0  0  0  0  0
   -0.9226   17.4202    0.0606 H   0  0  0  0  0  0  0  0  0  0  0  0
    2.2713   16.1557   -2.0587 H   0  0  0  0  0  0  0  0  0  0  0  0
    3.4816   17.3314    0.5203 H   0  0  0  0  0  0  0  0  0  0  0  0
    4.3869   16.5773   -0.8665 H   0  0  0  0  0  0  0  0  0  0  0  0
    4.4970   19.0490   -0.9082 H   0  0  0  0  0  0  0  0  0  0  0  0
    3.6576   18.3542   -2.3497 H   0  0  0  0  0  0  0  0  0  0  0  0
    2.4295   20.2722   -1.5952 H   0  0  0  0  0  0  0  0  0  0  0  0
    3.1990   19.3820    0.8080 H   0  0  0  0  0  0  0  0  0  0  0  0
    0.0316   17.9480   -3.1277 H   0  0  0  0  0  0  0  0  0  0  0  0
    0.7627   19.5807   -3.2911 H   0  0  0  0  0  0  0  0  0  0  0  0
    1.8119   18.1228   -3.2911 H   0  0  0  0  0  0  0  0  0  0  0  0
   -0.1545   19.5907    0.2487 H   0  0  0  0  0  0  0  0  0  0  0  0
    0.0163   20.5956   -1.2304 H   0  0  0  0  0  0  0  0  0  0  0  0
   -1.0864   19.1777   -1.2304 H   0  0  0  0  0  0  0  0  0  0  0  0
    1.8432   14.8752    1.8132 H   0  0  0  0  0  0  0  0  0  0  0  0
    3.4018   14.1349    1.3138 H   0  0  0  0  0  0  0  0  0  0  0  0
    3.2152   15.9215    1.3138 H   0  0  0  0  0  0  0  0  0  0  0  0
    4.0612   14.6098   -1.4387 H   0  0  0  0  0  0  0  0  0  0  0  0
    3.4710   13.1846   -0.4120 H   0  0  0  0  0  0  0  0  0  0  0  0
    2.5113   13.9993   -3.1694 H   0  0  0  0  0  0  0  0  0  0  0  0
    3.4051   12.5060   -2.6812 H   0  0  0  0  0  0  0  0  0  0  0  0
    1.5109   11.9072    0.0264 H   0  0  0  0  0  0  0  0  0  0  0  0
    0.9062   10.6402   -1.0942 H   0  0  0  0  0  0  0  0  0  0  0  0
    2.6471   11.0826   -1.0942 H   0  0  0  0  0  0  0  0  0  0  0  0
  1  2  1  0
  2  3  1  0
  3  4  1  0
  4  5  1  0
  5  6  1  0
  6  7  1  0
  7  8  1  0
  7  9  1  0
  2 10  1  0
 10 11  1  0
 11 12  1  0
 12 13  1  0
 13 14  1  6
 13 15  1  0
 15 16  1  0
 16 17  1  0
 17 18  2  0
 18 19  1  0
 19 20  1  0
 20 21  1  0
 21 22  1  0
 22 23  1  0
 22 24  1  0
 24 25  1  0
 24 26  1  0
 19 27  1  0
 27 28  1  1
 27 29  1  0
 29 30  1  0
 30 31  1  0
 31 32  1  1
  7  5  1  0
 31 10  1  0
 31 13  1  0
 27 15  1  0
 24 18  1  0
  1 33  1  0
  1 34  1  0
  1 35  1  0
  2 36  1  6
  3 37  1  0
  3 38  1  0
  4 39  1  0
  4 40  1  0
  5 41  1  1
  8 42  1  0
  8 43  1  0
  8 44  1  0
  9 45  1  0
  9 46  1  0
  9 47  1  0
 10 48  1  6
 11 49  1  0
 11 50  1  0
 12 51  1  0
 12 52  1  0
 14 53  1  0
 14 54  1  0
 14 55  1  0
 15 56  1  1
 16 57  1  0
 16 58  1  0
 17 59  1  0
 19 60  1  6
 20 61  1  0
 20 62  1  0
 21 63  1  0
 21 64  1  0
 22 65  1  6
 23 66  1  0
 25 67  1  0
 25 68  1  0
 25 69  1  0
 26 70  1  0
 26 71  1  0
 26 72  1  0
 28 73  1  0
 28 74  1  0
 28 75  1  0
 29 76  1  0
 29 77  1  0
 30 78  1  0
 30 79  1  0
 32 80  1  0
 32 81  1  0
 32 82  1  0
M  END
>  <meeko>  (15) 
{"is_sidechain": [false], "intermolecular_energy": 2.731, "internal_energy": -0.839}

$$$$
EPH_relaxed_0001_pdb2pqr_Repair_102_r2_0001_out
     RDKit          3D

 82 86  0  0  0  0  0  0  0  0999 V2000
   -1.7210   14.8150    0.5030 C   0  0  0  0  0  0  0  0  0  0  0  0
   -0.3800   15.5180    0.2770 C   0  0  2  0  0  0  0  0  0  0  0  0
   -0.4400   16.5260   -0.8880 C   0  0  0  0  0  0  0  0  0  0  0  0
   -0.0360   17.9490   -0.4930 C   0  0  0  0  0  0  0  0  0  0  0  0
    1.3940   18.0150   -0.0500 C   0  0  2  0  0  0  0  0  0  0  0  0
    2.0650   19.2410   -0.3730 O   0  0  0  0  0  0  0  0  0  0  0  0
    2.5670   18.0550   -1.0120 C   0  0  0  0  0  0  0  0  0  0  0  0
    2.3620   18.0290   -2.4940 C   0  0  0  0  0  0  0  0  0  0  0  0
    3.9140   17.6290   -0.5160 C   0  0  0  0  0  0  0  0  0  0  0  0
    0.7100   14.4850    0.0160 C   0  0  1  0  0  0  0  0  0  0  0  0
    0.8350   13.4450    1.1620 C   0  0  0  0  0  0  0  0  0  0  0  0
    1.2110   12.0940    0.5010 C   0  0  0  0  0  0  0  0  0  0  0  0
    1.6130   12.4660   -0.9450 C   0  0  1  0  0  0  0  0  0  0  0  0
    3.0880   12.9670   -0.8360 C   0  0  0  0  0  0  0  0  0  0  0  0
    1.4650   11.3360   -2.0160 C   0  0  2  0  0  0  0  0  0  0  0  0
    2.3460   10.0960   -1.7820 C   0  0  0  0  0  0  0  0  0  0  0  0
    3.6930   10.1410   -2.4240 C   0  0  0  0  0  0  0  0  0  0  0  0
    4.0720   11.0000   -3.3880 C   0  0  0  0  0  0  0  0  0  0  0  0
    3.0720   11.9890   -3.9990 C   0  0  1  0  0  0  0  0  0  0  0  0
    3.2020   11.9690   -5.5450 C   0  0  0  0  0  0  0  0  0  0  0  0
    4.6310   12.2190   -6.0150 C   0  0  0  0  0  0  0  0  0  0  0  0
    5.5870   11.1810   -5.4320 C   0  0  2  0  0  0  0  0  0  0  0  0
    5.2710    9.9010   -5.9880 O   0  0  0  0  0  0  0  0  0  0  0  0
    5.5360   11.1040   -3.8810 C   0  0  0  0  0  0  0  0  0  0  0  0
    6.1630   12.3840   -3.2750 C   0  0  0  0  0  0  0  0  0  0  0  0
    6.4400    9.9240   -3.4320 C   0  0  0  0  0  0  0  0  0  0  0  0
    1.5660   11.8430   -3.5120 C   0  0  1  0  0  0  0  0  0  0  0  0
    0.8220   10.7900   -4.3890 C   0  0  0  0  0  0  0  0  0  0  0  0
    0.8190   13.2110   -3.7310 C   0  0  0  0  0  0  0  0  0  0  0  0
    0.9030   14.2400   -2.5880 C   0  0  0  0  0  0  0  0  0  0  0  0
    0.5590   13.5940   -1.2420 C   0  0  2  0  0  0  0  0  0  0  0  0
   -0.9260   13.1010   -1.3150 C   0  0  0  0  0  0  0  0  0  0  0  0
   -1.9066   14.7177    1.5829 H   0  0  0  0  0  0  0  0  0  0  0  0
   -2.5270   15.4065    0.0443 H   0  0  0  0  0  0  0  0  0  0  0  0
   -1.6930   13.8156    0.0443 H   0  0  0  0  0  0  0  0  0  0  0  0
   -0.1458   16.0843    1.1905 H   0  0  0  0  0  0  0  0  0  0  0  0
    0.2386   16.1801   -1.6816 H   0  0  0  0  0  0  0  0  0  0  0  0
   -1.4875   16.5702   -1.2208 H   0  0  0  0  0  0  0  0  0  0  0  0
   -0.1718   18.6121   -1.3601 H   0  0  0  0  0  0  0  0  0  0  0  0
   -0.6709   18.2655    0.3476 H   0  0  0  0  0  0  0  0  0  0  0  0
    1.1774   17.3821    0.8232 H   0  0  0  0  0  0  0  0  0  0  0  0
    1.2928   17.8934   -2.7139 H   0  0  0  0  0  0  0  0  0  0  0  0
    2.7083   18.9783   -2.9288 H   0  0  0  0  0  0  0  0  0  0  0  0
    2.9343   17.1962   -2.9288 H   0  0  0  0  0  0  0  0  0  0  0  0
    3.9163   17.6283    0.5840 H   0  0  0  0  0  0  0  0  0  0  0  0
    4.1368   16.6165   -0.8838 H   0  0  0  0  0  0  0  0  0  0  0  0
    4.6785   18.3292   -0.8838 H   0  0  0  0  0  0  0  0  0  0  0  0
    1.5747   15.1551   -0.0988 H   0  0  0  0  0  0  0  0  0  0  0  0
    1.6200   13.7525    1.8686 H   0  0  0  0  0  0  0  0  0  0  0  0
   -0.1070   13.3612    1.7237 H   0  0  0  0  0  0  0  0  0  0  0  0
    2.0535   11.6242    1.0296 H   0  0  0  0  0  0  0  0  0  0  0  0
    0.3832   11.3702    0.5308 H   0  0  0  0  0  0  0  0  0  0  0  0
    3.3658   13.0614    0.2242 H   0  0  0  0  0  0  0  0  0  0  0  0
    3.7575   12.2459   -1.3277 H   0  0  0  0  0  0  0  0  0  0  0  0
    3.1798   13.9467   -1.3277 H   0  0  0  0  0  0  0  0  0  0  0  0
    0.4289   10.9998   -1.8625 H   0  0  0  0  0  0  0  0  0  0  0  0
    2.4899    9.9809   -0.6975 H   0  0  0  0  0  0  0  0  0  0  0  0
    1.8148    9.2528   -2.2476 H   0  0  0  0  0  0  0  0  0  0  0  0
    4.4392    9.4098   -2.0798 H   0  0  0  0  0  0  0  0  0  0  0  0
    3.3518   12.9805   -3.6134 H   0  0  0  0  0  0  0  0  0  0  0  0
    2.8767   10.9849   -5.9135 H   0  0  0  0  0  0  0  0  0  0  0  0
    2.5730   12.7787   -5.9434 H   0  0  0  0  0  0  0  0  0  0  0  0
    4.6639   12.1620   -7.1130 H   0  0  0  0  0  0  0  0  0  0  0  0
    4.9439   13.2162   -5.6719 H   0  0  0  0  0  0  0  0  0  0  0  0
    6.6095   11.4882   -5.6968 H   0  0  0  0  0  0  0  0  0  0  0  0
    6.0950    9.3860   -6.0260 H   0  0  0  0  0  0  0  0  0  0  0  0
    6.1329   12.3226   -2.1771 H   0  0  0  0  0  0  0  0  0  0  0  0
    7.2073   12.4741   -3.6087 H   0  0  0  0  0  0  0  0  0  0  0  0
    5.5941   13.2643   -3.6087 H   0  0  0  0  0  0  0  0  0  0  0  0
    6.4711    9.8834   -2.3332 H   0  0  0  0  0  0  0  0  0  0  0  0
    6.0317    8.9801   -3.8224 H   0  0  0  0  0  0  0  0  0  0  0  0
    7.4576   10.0725   -3.8224 H   0  0  0  0  0  0  0  0  0  0  0  0
    0.3105   10.0660   -3.7377 H   0  0  0  0  0  0  0  0  0  0  0  0
    0.0818   11.2989   -5.0240 H   0  0  0  0  0  0  0  0  0  0  0  0
    1.5489   10.2623   -5.0240 H   0  0  0  0  0  0  0  0  0  0  0  0
    1.2410   13.6798   -4.6322 H   0  0  0  0  0  0  0  0  0  0  0  0
   -0.2467   12.9482   -3.8033 H   0  0  0  0  0  0  0  0  0  0  0  0
    1.9249   14.6444   -2.5423 H   0  0  0  0  0  0  0  0  0  0  0  0
    0.1791   15.0442   -2.7862 H   0  0  0  0  0  0  0  0  0  0  0  0
   -1.3195   12.9704   -0.2961 H   0  0  0  0  0  0  0  0  0  0  0  0
   -1.5337   13.8456   -1.8501 H   0  0  0  0  0  0  0  0  0  0  0  0
   -0.9677   12.1408   -1.8501 H   0  0  0  0  0  0  0  0  0  0  0  0
  1  2  1  0
  2  3  1  0
  3  4  1  0
  4  5  1  0
  5  6  1  0
  6  7  1  0
  7  8  1  0
  7  9  1  0
  2 10  1  0
 10 11  1  0
 11 12  1  0
 12 13  1  0
 13 14  1  1
 13 15  1  0
 15 16  1  0
 16 17  1  0
 17 18  2  0
 18 19  1  0
 19 20  1  0
 20 21  1  0
 21 22  1  0
 22 23  1  0
 22 24  1  0
 24 25  1  0
 24 26  1  0
 19 27  1  0
 27 28  1  6
 27 29  1  0
 29 30  1  0
 30 31  1  0
 31 32  1  6
  7  5  1  0
 31 10  1  0
 31 13  1  0
 27 15  1  0
 24 18  1  0
  1 33  1  0
  1 34  1  0
  1 35  1  0
  2 36  1  1
  3 37  1  0
  3 38  1  0
  4 39  1  0
  4 40  1  0
  5 41  1  1
  8 42  1  0
  8 43  1  0
  8 44  1  0
  9 45  1  0
  9 46  1  0
  9 47  1  0
 10 48  1  6
 11 49  1  0
 11 50  1  0
 12 51  1  0
 12 52  1  0
 14 53  1  0
 14 54  1  0
 14 55  1  0
 15 56  1  6
 16 57  1  0
 16 58  1  0
 17 59  1  0
 19 60  1  1
 20 61  1  0
 20 62  1  0
 21 63  1  0
 21 64  1  0
 22 65  1  1
 23 66  1  0
 25 67  1  0
 25 68  1  0
 25 69  1  0
 26 70  1  0
 26 71  1  0
 26 72  1  0
 28 73  1  0
 28 74  1  0
 28 75  1  0
 29 76  1  0
 29 77  1  0
 30 78  1  0
 30 79  1  0
 32 80  1  0
 32 81  1  0
 32 82  1  0
M  END
>  <meeko>  (16) 
{"is_sidechain": [false], "intermolecular_energy": 2.731, "internal_energy": -0.839}

$$$$
EPH_relaxed_0001_pdb2pqr_Repair_102_r2_0001_out
     RDKit          3D

 82 86  0  0  0  0  0  0  0  0999 V2000
   -2.7420    7.7080   -0.2690 C   0  0  0  0  0  0  0  0  0  0  0  0
   -3.3080    9.1290   -0.1910 C   0  0  2  0  0  0  0  0  0  0  0  0
   -4.7930    9.1850   -0.6050 C   0  0  0  0  0  0  0  0  0  0  0  0
   -5.4760    7.8150   -0.6360 C   0  0  0  0  0  0  0  0  0  0  0  0
   -6.4070    7.6870   -1.8040 C   0  0  2  0  0  0  0  0  0  0  0  0
   -6.9110    6.3630   -2.0240 O   0  0  0  0  0  0  0  0  0  0  0  0
   -6.0720    6.9020   -3.0580 C   0  0  0  0  0  0  0  0  0  0  0  0
   -4.7620    6.1950   -3.2100 C   0  0  0  0  0  0  0  0  0  0  0  0
   -6.8060    7.2270   -4.3220 C   0  0  0  0  0  0  0  0  0  0  0  0
   -2.4870   10.0650   -1.0700 C   0  0  1  0  0  0  0  0  0  0  0  0
   -3.0770   11.4980   -1.1310 C   0  0  0  0  0  0  0  0  0  0  0  0
   -1.8750   12.4740   -1.2200 C   0  0  0  0  0  0  0  0  0  0  0  0
   -0.6620   11.5700   -1.5400 C   0  0  1  0  0  0  0  0  0  0  0  0
   -0.7390   11.3250   -3.0800 C   0  0  0  0  0  0  0  0  0  0  0  0
    0.7390   12.1160   -1.1120 C   0  0  2  0  0  0  0  0  0  0  0  0
    1.1660   13.4250   -1.7980 C   0  0  0  0  0  0  0  0  0  0  0  0
    1.9320   13.2590   -3.0680 C   0  0  0  0  0  0  0  0  0  0  0  0
    2.5090   12.1180   -3.4900 C   0  0  0  0  0  0  0  0  0  0  0  0
    2.5050   10.8610   -2.6110 C   0  0  1  0  0  0  0  0  0  0  0  0
    3.9260   10.2380   -2.5910 C   0  0  0  0  0  0  0  0  0  0  0  0
    4.4650    9.9680   -3.9920 C   0  0  0  0  0  0  0  0  0  0  0  0
    4.5080   11.2520   -4.8170 C   0  0  2  0  0  0  0  0  0  0  0  0
    5.4810   12.1330   -4.2470 O   0  0  0  0  0  0  0  0  0  0  0  0
    3.1340   11.9740   -4.9000 C   0  0  0  0  0  0  0  0  0  0  0  0
    2.1640   11.1470   -5.7790 C   0  0  0  0  0  0  0  0  0  0  0  0
    3.3470   13.3230   -5.6380 C   0  0  0  0  0  0  0  0  0  0  0  0
    1.8960   11.0370   -1.1530 C   0  0  1  0  0  0  0  0  0  0  0  0
    3.0010   11.5310   -0.1700 C   0  0  0  0  0  0  0  0  0  0  0  0
    1.4230    9.6320   -0.6210 C   0  0  0  0  0  0  0  0  0  0  0  0
   -0.0120    9.2010   -0.9770 C   0  0  0  0  0  0  0  0  0  0  0  0
   -1.0140   10.3160   -0.6600 C   0  0  2  0  0  0  0  0  0  0  0  0
   -0.9750   10.5680    0.8860 C   0  0  0  0  0  0  0  0  0  0  0  0
   -2.5870    7.3187    0.7481 H   0  0  0  0  0  0  0  0  0  0  0  0
   -3.4507    7.0600   -0.8055 H   0  0  0  0  0  0  0  0  0  0  0  0
   -1.7819    7.7247   -0.8055 H   0  0  0  0  0  0  0  0  0  0  0  0
   -3.2443    9.4537    0.8580 H   0  0  0  0  0  0  0  0  0  0  0  0
   -5.3294    9.8242    0.1118 H   0  0  0  0  0  0  0  0  0  0  0  0
   -4.8260    9.5836   -1.6297 H   0  0  0  0  0  0  0  0  0  0  0  0
   -4.7050    7.0336   -0.7071 H   0  0  0  0  0  0  0  0  0  0  0  0
   -6.0650    7.7041    0.2863 H   0  0  0  0  0  0  0  0  0  0  0  0
   -6.7776    8.7115   -1.6521 H   0  0  0  0  0  0  0  0  0  0  0  0
   -4.3483    5.9717   -2.2155 H   0  0  0  0  0  0  0  0  0  0  0  0
   -4.9139    5.2564   -3.7631 H   0  0  0  0  0  0  0  0  0  0  0  0
   -4.0608    6.8372   -3.7631 H   0  0  0  0  0  0  0  0  0  0  0  0
   -7.7862    7.6610   -4.0755 H   0  0  0  0  0  0  0  0  0  0  0  0
   -6.2219    7.9506   -4.9095 H   0  0  0  0  0  0  0  0  0  0  0  0
   -6.9491    6.3081   -4.9095 H   0  0  0  0  0  0  0  0  0  0  0  0
   -2.5243    9.5076   -2.0176 H   0  0  0  0  0  0  0  0  0  0  0  0
   -3.7188   11.6058   -2.0178 H   0  0  0  0  0  0  0  0  0  0  0  0
   -3.6924   11.7096   -0.2441 H   0  0  0  0  0  0  0  0  0  0  0  0
   -2.0319   13.2114   -2.0210 H   0  0  0  0  0  0  0  0  0  0  0  0
   -1.7342   13.0484   -0.2925 H   0  0  0  0  0  0  0  0  0  0  0  0
   -1.0638   10.2916   -3.2711 H   0  0  0  0  0  0  0  0  0  0  0  0
   -1.4606   12.0247   -3.5270 H   0  0  0  0  0  0  0  0  0  0  0  0
    0.2531   11.4861   -3.5270 H   0  0  0  0  0  0  0  0  0  0  0  0
    0.5794   12.3716   -0.0541 H   0  0  0  0  0  0  0  0  0  0  0  0
    0.2575   14.0032   -2.0222 H   0  0  0  0  0  0  0  0  0  0  0  0
    1.8467   13.9284   -1.0958 H   0  0  0  0  0  0  0  0  0  0  0  0
    2.0338   14.1436   -3.7139 H   0  0  0  0  0  0  0  0  0  0  0  0
    1.7979   10.1626   -3.0824 H   0  0  0  0  0  0  0  0  0  0  0  0
    4.6083   10.9319   -2.0782 H   0  0  0  0  0  0  0  0  0  0  0  0
    3.8607    9.2734   -2.0663 H   0  0  0  0  0  0  0  0  0  0  0  0
    5.4821    9.5565   -3.9133 H   0  0  0  0  0  0  0  0  0  0  0  0
    3.7977    9.2511   -4.4928 H   0  0  0  0  0  0  0  0  0  0  0  0
    4.7780   10.9739   -5.8464 H   0  0  0  0  0  0  0  0  0  0  0  0
    5.4260   12.0470   -3.2810 H   0  0  0  0  0  0  0  0  0  0  0  0
    1.4863   10.5692   -5.1334 H   0  0  0  0  0  0  0  0  0  0  0  0
    1.5756   11.8256   -6.4140 H   0  0  0  0  0  0  0  0  0  0  0  0
    2.7410   10.4587   -6.4140 H   0  0  0  0  0  0  0  0  0  0  0  0
    3.4742   14.1286   -4.8999 H   0  0  0  0  0  0  0  0  0  0  0  0
    4.2460   13.2581   -6.2685 H   0  0  0  0  0  0  0  0  0  0  0  0
    2.4717   13.5382   -6.2685 H   0  0  0  0  0  0  0  0  0  0  0  0
    2.6640   11.3803    0.8662 H   0  0  0  0  0  0  0  0  0  0  0  0
    3.9258   10.9606   -0.3414 H   0  0  0  0  0  0  0  0  0  0  0  0
    3.1927   12.6005   -0.3414 H   0  0  0  0  0  0  0  0  0  0  0  0
    2.1086    8.8742   -1.0281 H   0  0  0  0  0  0  0  0  0  0  0  0
    1.4326    9.7216    0.4753 H   0  0  0  0  0  0  0  0  0  0  0  0
   -0.0616    8.9672   -2.0507 H   0  0  0  0  0  0  0  0  0  0  0  0
   -0.2712    8.3157   -0.3778 H   0  0  0  0  0  0  0  0  0  0  0  0
   -1.1224    9.6157    1.4166 H   0  0  0  0  0  0  0  0  0  0  0  0
   -0.0000   10.9952    1.1634 H   0  0  0  0  0  0  0  0  0  0  0  0
   -1.7752   11.2699    1.1634 H   0  0  0  0  0  0  0  0  0  0  0  0
  1  2  1  0
  2  3  1  0
  3  4  1  0
  4  5  1  0
  5  6  1  0
  6  7  1  0
  7  8  1  0
  7  9  1  0
  2 10  1  0
 10 11  1  0
 11 12  1  0
 12 13  1  0
 13 14  1  6
 13 15  1  0
 15 16  1  0
 16 17  1  0
 17 18  2  0
 18 19  1  0
 19 20  1  0
 20 21  1  0
 21 22  1  0
 22 23  1  0
 22 24  1  0
 24 25  1  0
 24 26  1  0
 19 27  1  0
 27 28  1  1
 27 29  1  0
 29 30  1  0
 30 31  1  0
 31 32  1  1
  7  5  1  0
 31 10  1  0
 31 13  1  0
 27 15  1  0
 24 18  1  0
  1 33  1  0
  1 34  1  0
  1 35  1  0
  2 36  1  1
  3 37  1  0
  3 38  1  0
  4 39  1  0
  4 40  1  0
  5 41  1  6
  8 42  1  0
  8 43  1  0
  8 44  1  0
  9 45  1  0
  9 46  1  0
  9 47  1  0
 10 48  1  6
 11 49  1  0
 11 50  1  0
 12 51  1  0
 12 52  1  0
 14 53  1  0
 14 54  1  0
 14 55  1  0
 15 56  1  1
 16 57  1  0
 16 58  1  0
 17 59  1  0
 19 60  1  6
 20 61  1  0
 20 62  1  0
 21 63  1  0
 21 64  1  0
 22 65  1  6
 23 66  1  0
 25 67  1  0
 25 68  1  0
 25 69  1  0
 26 70  1  0
 26 71  1  0
 26 72  1  0
 28 73  1  0
 28 74  1  0
 28 75  1  0
 29 76  1  0
 29 77  1  0
 30 78  1  0
 30 79  1  0
 32 80  1  0
 32 81  1  0
 32 82  1  0
M  END
>  <meeko>  (17) 
{"is_sidechain": [false], "intermolecular_energy": 2.731, "internal_energy": -0.839}

$$$$
EPH_relaxed_0001_pdb2pqr_Repair_102_r2_0001_out
     RDKit          3D

 82 86  0  0  0  0  0  0  0  0999 V2000
    0.8340   14.7290   -4.8110 C   0  0  0  0  0  0  0  0  0  0  0  0
    0.5920   14.1750   -3.4040 C   0  0  2  0  0  0  0  0  0  0  0  0
    1.8160   14.3670   -2.4870 C   0  0  0  0  0  0  0  0  0  0  0  0
    1.5620   15.3130   -1.3110 C   0  0  0  0  0  0  0  0  0  0  0  0
    1.2350   16.7000   -1.7760 C   0  0  2  0  0  0  0  0  0  0  0  0
    2.1210   17.2210   -2.7760 O   0  0  0  0  0  0  0  0  0  0  0  0
    2.1210   17.9030   -1.5110 C   0  0  0  0  0  0  0  0  0  0  0  0
    3.4030   17.7740   -0.7500 C   0  0  0  0  0  0  0  0  0  0  0  0
    1.5090   19.2680   -1.5620 C   0  0  0  0  0  0  0  0  0  0  0  0
    0.2270   12.6970   -3.4840 C   0  0  1  0  0  0  0  0  0  0  0  0
    1.4540   11.7940   -3.7820 C   0  0  0  0  0  0  0  0  0  0  0  0
    1.2310   10.4690   -3.0090 C   0  0  0  0  0  0  0  0  0  0  0  0
   -0.2500   10.5190   -2.5670 C   0  0  1  0  0  0  0  0  0  0  0  0
   -1.0590   10.0680   -3.8240 C   0  0  0  0  0  0  0  0  0  0  0  0
   -0.6240    9.6730   -1.3060 C   0  0  2  0  0  0  0  0  0  0  0  0
   -0.4190    8.1550   -1.4540 C   0  0  0  0  0  0  0  0  0  0  0  0
   -1.6000    7.3990   -1.9650 C   0  0  0  0  0  0  0  0  0  0  0  0
   -2.8610    7.8640   -2.0230 C   0  0  0  0  0  0  0  0  0  0  0  0
   -3.2190    9.2440   -1.4540 C   0  0  1  0  0  0  0  0  0  0  0  0
   -4.5060    9.1320   -0.5950 C   0  0  0  0  0  0  0  0  0  0  0  0
   -5.6650    8.4970   -1.3580 C   0  0  0  0  0  0  0  0  0  0  0  0
   -5.2910    7.1040   -1.8570 C   0  0  2  0  0  0  0  0  0  0  0  0
   -5.1200    6.2400   -0.7290 O   0  0  0  0  0  0  0  0  0  0  0  0
   -4.0030    7.0900   -2.7270 C   0  0  0  0  0  0  0  0  0  0  0  0
   -4.2860    7.7730   -4.0880 C   0  0  0  0  0  0  0  0  0  0  0  0
   -3.6590    5.6100   -3.0470 C   0  0  0  0  0  0  0  0  0  0  0  0
   -2.0470   10.0080   -0.7000 C   0  0  1  0  0  0  0  0  0  0  0  0
   -2.0060    9.5740    0.7970 C   0  0  0  0  0  0  0  0  0  0  0  0
   -2.3520   11.5520   -0.7070 C   0  0  0  0  0  0  0  0  0  0  0  0
   -1.8520   12.3540   -1.9240 C   0  0  0  0  0  0  0  0  0  0  0  0
   -0.3810   12.0460   -2.2170 C   0  0  2  0  0  0  0  0  0  0  0  0
    0.4600   12.5090   -0.9790 C   0  0  0  0  0  0  0  0  0  0  0  0
    1.2734   15.7348   -4.7385 H   0  0  0  0  0  0  0  0  0  0  0  0
    1.5243   14.0655   -5.3526 H   0  0  0  0  0  0  0  0  0  0  0  0
   -0.1218   14.7846   -5.3526 H   0  0  0  0  0  0  0  0  0  0  0  0
   -0.2423   14.7406   -2.9635 H   0  0  0  0  0  0  0  0  0  0  0  0
    2.1068   13.3849   -2.0860 H   0  0  0  0  0  0  0  0  0  0  0  0
    2.6083   14.8218   -3.0998 H   0  0  0  0  0  0  0  0  0  0  0  0
    0.7189   14.9274   -0.7190 H   0  0  0  0  0  0  0  0  0  0  0  0
    2.4791   15.3615   -0.7056 H   0  0  0  0  0  0  0  0  0  0  0  0
    0.1609   16.5254   -1.6153 H   0  0  0  0  0  0  0  0  0  0  0  0
    3.1924   17.7952    0.3294 H   0  0  0  0  0  0  0  0  0  0  0  0
    3.8896   16.8224   -1.0100 H   0  0  0  0  0  0  0  0  0  0  0  0
    4.0694   18.6096   -1.0100 H   0  0  0  0  0  0  0  0  0  0  0  0
    1.3446   19.6346   -0.5380 H   0  0  0  0  0  0  0  0  0  0  0  0
    2.1858   19.9537   -2.0927 H   0  0  0  0  0  0  0  0  0  0  0  0
    0.5468   19.2188   -2.0927 H   0  0  0  0  0  0  0  0  0  0  0  0
   -0.5256   12.7354   -4.2853 H   0  0  0  0  0  0  0  0  0  0  0  0
    1.5252   11.5956   -4.8616 H   0  0  0  0  0  0  0  0  0  0  0  0
    2.3891   12.2817   -3.4693 H   0  0  0  0  0  0  0  0  0  0  0  0
    1.4120    9.6030   -3.6627 H   0  0  0  0  0  0  0  0  0  0  0  0
    1.9173   10.3635   -2.1559 H   0  0  0  0  0  0  0  0  0  0  0  0
   -1.9782    9.5555   -3.5040 H   0  0  0  0  0  0  0  0  0  0  0  0
   -1.3217   10.9498   -4.4268 H   0  0  0  0  0  0  0  0  0  0  0  0
   -0.4470    9.3809   -4.4268 H   0  0  0  0  0  0  0  0  0  0  0  0
    0.1228   10.0044   -0.5695 H   0  0  0  0  0  0  0  0  0  0  0  0
    0.4167    7.9912   -2.1503 H   0  0  0  0  0  0  0  0  0  0  0  0
   -0.2289    7.7733   -0.4400 H   0  0  0  0  0  0  0  0  0  0  0  0
   -1.4244    6.3744   -2.3248 H   0  0  0  0  0  0  0  0  0  0  0  0
   -3.4055    9.8922   -2.3229 H   0  0  0  0  0  0  0  0  0  0  0  0
   -4.2869    8.5164    0.2899 H   0  0  0  0  0  0  0  0  0  0  0  0
   -4.8097   10.1512   -0.3139 H   0  0  0  0  0  0  0  0  0  0  0  0
   -6.5356    8.4185   -0.6903 H   0  0  0  0  0  0  0  0  0  0  0  0
   -5.9022    9.1292   -2.2264 H   0  0  0  0  0  0  0  0  0  0  0  0
   -6.1095    6.7548   -2.5036 H   0  0  0  0  0  0  0  0  0  0  0  0
   -4.9470    6.8000    0.0460 H   0  0  0  0  0  0  0  0  0  0  0  0
   -4.7018    8.7766   -3.9152 H   0  0  0  0  0  0  0  0  0  0  0  0
   -3.3488    7.8575   -4.6577 H   0  0  0  0  0  0  0  0  0  0  0  0
   -5.0083    7.1699   -4.6577 H   0  0  0  0  0  0  0  0  0  0  0  0
   -3.5294    5.0523   -2.1077 H   0  0  0  0  0  0  0  0  0  0  0  0
   -4.4768    5.1613   -3.6300 H   0  0  0  0  0  0  0  0  0  0  0  0
   -2.7271    5.5679   -3.6300 H   0  0  0  0  0  0  0  0  0  0  0  0
   -2.0900   10.4633    1.4390 H   0  0  0  0  0  0  0  0  0  0  0  0
   -2.8437    8.8918    1.0041 H   0  0  0  0  0  0  0  0  0  0  0  0
   -1.0554    9.0608    1.0041 H   0  0  0  0  0  0  0  0  0  0  0  0
   -3.4437   11.6757   -0.6528 H   0  0  0  0  0  0  0  0  0  0  0  0
   -1.7985   11.9584    0.1523 H   0  0  0  0  0  0  0  0  0  0  0  0
   -2.4573   12.0883   -2.8033 H   0  0  0  0  0  0  0  0  0  0  0  0
   -1.9477   13.4267   -1.7003 H   0  0  0  0  0  0  0  0  0  0  0  0
   -0.0611   12.2221   -0.0537 H   0  0  0  0  0  0  0  0  0  0  0  0
    1.4490   12.0282   -1.0070 H   0  0  0  0  0  0  0  0  0  0  0  0
    0.5826   13.6018   -1.0070 H   0  0  0  0  0  0  0  0  0  0  0  0
  1  2  1  0
  2  3  1  0
  3  4  1  0
  4  5  1  0
  5  6  1  0
  6  7  1  0
  7  8  1  0
  7  9  1  0
  2 10  1  0
 10 11  1  0
 11 12  1  0
 12 13  1  0
 13 14  1  6
 13 15  1  0
 15 16  1  0
 16 17  1  0
 17 18  2  0
 18 19  1  0
 19 20  1  0
 20 21  1  0
 21 22  1  0
 22 23  1  0
 22 24  1  0
 24 25  1  0
 24 26  1  0
 19 27  1  0
 27 28  1  1
 27 29  1  0
 29 30  1  0
 30 31  1  0
 31 32  1  1
  7  5  1  0
 31 10  1  0
 31 13  1  0
 27 15  1  0
 24 18  1  0
  1 33  1  0
  1 34  1  0
  1 35  1  0
  2 36  1  1
  3 37  1  0
  3 38  1  0
  4 39  1  0
  4 40  1  0
  5 41  1  6
  8 42  1  0
  8 43  1  0
  8 44  1  0
  9 45  1  0
  9 46  1  0
  9 47  1  0
 10 48  1  6
 11 49  1  0
 11 50  1  0
 12 51  1  0
 12 52  1  0
 14 53  1  0
 14 54  1  0
 14 55  1  0
 15 56  1  1
 16 57  1  0
 16 58  1  0
 17 59  1  0
 19 60  1  6
 20 61  1  0
 20 62  1  0
 21 63  1  0
 21 64  1  0
 22 65  1  6
 23 66  1  0
 25 67  1  0
 25 68  1  0
 25 69  1  0
 26 70  1  0
 26 71  1  0
 26 72  1  0
 28 73  1  0
 28 74  1  0
 28 75  1  0
 29 76  1  0
 29 77  1  0
 30 78  1  0
 30 79  1  0
 32 80  1  0
 32 81  1  0
 32 82  1  0
M  END
>  <meeko>  (18) 
{"is_sidechain": [false], "intermolecular_energy": 2.731, "internal_energy": -0.839}

$$$$
