EPH_relaxed_0001_pdb2pqr_Repair_318_r2_0001_out
     RDKit          3D

 82 86  0  0  0  0  0  0  0  0999 V2000
   -5.1630    5.8360   -1.7050 C   0  0  0  0  0  0  0  0  0  0  0  0
   -5.4600    7.3370   -1.7610 C   0  0  2  0  0  0  0  0  0  0  0  0
   -5.2310    8.0260   -0.4010 C   0  0  0  0  0  0  0  0  0  0  0  0
   -4.1880    9.1460   -0.4470 C   0  0  0  0  0  0  0  0  0  0  0  0
   -2.8270    8.6230   -0.7930 C   0  0  2  0  0  0  0  0  0  0  0  0
   -1.8040    8.9420    0.1590 O   0  0  0  0  0  0  0  0  0  0  0  0
   -1.6530    9.5170   -1.1490 C   0  0  0  0  0  0  0  0  0  0  0  0
   -1.7880   11.0070   -1.1780 C   0  0  0  0  0  0  0  0  0  0  0  0
   -0.5230    8.9320   -1.9380 C   0  0  0  0  0  0  0  0  0  0  0  0
   -6.8940    7.5660   -2.2250 C   0  0  1  0  0  0  0  0  0  0  0  0
   -7.2020    6.8700   -3.5780 C   0  0  0  0  0  0  0  0  0  0  0  0
   -8.6780    6.4000   -3.5130 C   0  0  0  0  0  0  0  0  0  0  0  0
   -9.2640    7.1230   -2.2780 C   0  0  1  0  0  0  0  0  0  0  0  0
   -9.6120    8.5590   -2.7810 C   0  0  0  0  0  0  0  0  0  0  0  0
  -10.4910    6.4380   -1.5940 C   0  0  2  0  0  0  0  0  0  0  0  0
  -11.7460    6.3140   -2.4770 C   0  0  0  0  0  0  0  0  0  0  0  0
  -12.6970    7.4620   -2.3960 C   0  0  0  0  0  0  0  0  0  0  0  0
  -12.7000    8.4110   -1.4420 C   0  0  0  0  0  0  0  0  0  0  0  0
  -11.7360    8.3330   -0.2510 C   0  0  1  0  0  0  0  0  0  0  0  0
  -12.5110    8.6140    1.0620 C   0  0  0  0  0  0  0  0  0  0  0  0
  -13.2780    9.9320    1.0180 C   0  0  0  0  0  0  0  0  0  0  0  0
  -14.2680    9.9480   -0.1440 C   0  0  2  0  0  0  0  0  0  0  0  0
  -15.2870    8.9760    0.1040 O   0  0  0  0  0  0  0  0  0  0  0  0
  -13.6020    9.6670   -1.5200 C   0  0  0  0  0  0  0  0  0  0  0  0
  -12.7210   10.8740   -1.9290 C   0  0  0  0  0  0  0  0  0  0  0  0
  -14.7280    9.5720   -2.5850 C   0  0  0  0  0  0  0  0  0  0  0  0
  -10.8450    7.0190   -0.1650 C   0  0  1  0  0  0  0  0  0  0  0  0
  -11.6220    5.8990    0.5910 C   0  0  0  0  0  0  0  0  0  0  0  0
   -9.5600    7.3240    0.6920 C   0  0  0  0  0  0  0  0  0  0  0  0
   -8.3400    7.8880   -0.0620 C   0  0  0  0  0  0  0  0  0  0  0  0
   -8.0300    7.0510   -1.3060 C   0  0  2  0  0  0  0  0  0  0  0  0
   -7.6540    5.6060   -0.8300 C   0  0  0  0  0  0  0  0  0  0  0  0
   -5.0992    5.5138   -0.6552 H   0  0  0  0  0  0  0  0  0  0  0  0
   -5.9693    5.2836   -2.2098 H   0  0  0  0  0  0  0  0  0  0  0  0
   -4.2071    5.6323   -2.2098 H   0  0  0  0  0  0  0  0  0  0  0  0
   -4.7594    7.7858   -2.4806 H   0  0  0  0  0  0  0  0  0  0  0  0
   -6.1862    8.4545   -0.0635 H   0  0  0  0  0  0  0  0  0  0  0  0
   -4.8488    7.2585    0.2882 H   0  0  0  0  0  0  0  0  0  0  0  0
   -4.4899    9.8832   -1.2056 H   0  0  0  0  0  0  0  0  0  0  0  0
   -4.1348    9.6058    0.5509 H   0  0  0  0  0  0  0  0  0  0  0  0
   -3.2645    7.7459   -1.2922 H   0  0  0  0  0  0  0  0  0  0  0  0
   -1.8229   11.3921   -0.1482 H   0  0  0  0  0  0  0  0  0  0  0  0
   -0.9257   11.4431   -1.7036 H   0  0  0  0  0  0  0  0  0  0  0  0
   -2.7147   11.2811   -1.7036 H   0  0  0  0  0  0  0  0  0  0  0  0
    0.2391    8.5375   -1.2498 H   0  0  0  0  0  0  0  0  0  0  0  0
   -0.9018    8.1168   -2.5719 H   0  0  0  0  0  0  0  0  0  0  0  0
   -0.0760    9.7120   -2.5719 H   0  0  0  0  0  0  0  0  0  0  0  0
   -6.9046    8.6655   -2.2557 H   0  0  0  0  0  0  0  0  0  0  0  0
   -7.0663    7.5788   -4.4082 H   0  0  0  0  0  0  0  0  0  0  0  0
   -6.5241    6.0207   -3.7488 H   0  0  0  0  0  0  0  0  0  0  0  0
   -9.2186    6.6907   -4.4258 H   0  0  0  0  0  0  0  0  0  0  0  0
   -8.7643    5.3061   -3.4357 H   0  0  0  0  0  0  0  0  0  0  0  0
   -9.7725    9.2212   -1.9174 H   0  0  0  0  0  0  0  0  0  0  0  0
   -8.7815    8.9455   -3.3900 H   0  0  0  0  0  0  0  0  0  0  0  0
  -10.5273    8.5224   -3.3900 H   0  0  0  0  0  0  0  0  0  0  0  0
  -10.1311    5.4100   -1.4404 H   0  0  0  0  0  0  0  0  0  0  0  0
  -11.4181    6.2170   -3.5225 H   0  0  0  0  0  0  0  0  0  0  0  0
  -12.2950    5.4364   -2.1051 H   0  0  0  0  0  0  0  0  0  0  0  0
  -13.4608    7.5387   -3.1838 H   0  0  0  0  0  0  0  0  0  0  0  0
  -10.9847    9.1194   -0.4160 H   0  0  0  0  0  0  0  0  0  0  0  0
  -13.2260    7.7954    1.2315 H   0  0  0  0  0  0  0  0  0  0  0  0
  -11.7745    8.6833    1.8761 H   0  0  0  0  0  0  0  0  0  0  0  0
  -13.8284   10.0600    1.9618 H   0  0  0  0  0  0  0  0  0  0  0  0
  -12.5588   10.7525    0.8781 H   0  0  0  0  0  0  0  0  0  0  0  0
  -14.6919   10.9614   -0.2014 H   0  0  0  0  0  0  0  0  0  0  0  0
  -15.7080    9.2000    0.9520 H   0  0  0  0  0  0  0  0  0  0  0  0
  -12.3511   11.3808   -1.0255 H   0  0  0  0  0  0  0  0  0  0  0  0
  -11.8677   10.5196   -2.5259 H   0  0  0  0  0  0  0  0  0  0  0  0
  -13.3187   11.5786   -2.5259 H   0  0  0  0  0  0  0  0  0  0  0  0
  -15.7027    9.4898   -2.0818 H   0  0  0  0  0  0  0  0  0  0  0  0
  -14.7150   10.4744   -3.2138 H   0  0  0  0  0  0  0  0  0  0  0  0
  -14.5640    8.6845   -3.2138 H   0  0  0  0  0  0  0  0  0  0  0  0
  -11.5181    6.0488    1.6758 H   0  0  0  0  0  0  0  0  0  0  0  0
  -12.6861    5.9408    0.3154 H   0  0  0  0  0  0  0  0  0  0  0  0
  -11.2102    4.9169    0.3154 H   0  0  0  0  0  0  0  0  0  0  0  0
   -9.8409    8.0550    1.4645 H   0  0  0  0  0  0  0  0  0  0  0  0
   -9.2333    6.3474    1.0787 H   0  0  0  0  0  0  0  0  0  0  0  0
   -8.5531    8.9228   -0.3684 H   0  0  0  0  0  0  0  0  0  0  0  0
   -7.4682    7.8568    0.6081 H   0  0  0  0  0  0  0  0  0  0  0  0
   -7.6454    5.5728    0.2695 H   0  0  0  0  0  0  0  0  0  0  0  0
   -8.3956    4.8893   -1.2127 H   0  0  0  0  0  0  0  0  0  0  0  0
   -6.6572    5.3417   -1.2127 H   0  0  0  0  0  0  0  0  0  0  0  0
  1  2  1  0
  2  3  1  0
  3  4  1  0
  4  5  1  0
  5  6  1  0
  6  7  1  0
  7  8  1  0
  7  9  1  0
  2 10  1  0
 10 11  1  0
 11 12  1  0
 12 13  1  0
 13 14  1  6
 13 15  1  0
 15 16  1  0
 16 17  1  0
 17 18  2  0
 18 19  1  0
 19 20  1  0
 20 21  1  0
 21 22  1  0
 22 23  1  0
 22 24  1  0
 24 25  1  0
 24 26  1  0
 19 27  1  0
 27 28  1  1
 27 29  1  0
 29 30  1  0
 30 31  1  0
 31 32  1  1
  7  5  1  0
 31 10  1  0
 31 13  1  0
 27 15  1  0
 24 18  1  0
  1 33  1  0
  1 34  1  0
  1 35  1  0
  2 36  1  6
  3 37  1  0
  3 38  1  0
  4 39  1  0
  4 40  1  0
  5 41  1  6
  8 42  1  0
  8 43  1  0
  8 44  1  0
  9 45  1  0
  9 46  1  0
  9 47  1  0
 10 48  1  6
 11 49  1  0
 11 50  1  0
 12 51  1  0
 12 52  1  0
 14 53  1  0
 14 54  1  0
 14 55  1  0
 15 56  1  1
 16 57  1  0
 16 58  1  0
 17 59  1  0
 19 60  1  6
 20 61  1  0
 20 62  1  0
 21 63  1  0
 21 64  1  0
 22 65  1  6
 23 66  1  0
 25 67  1  0
 25 68  1  0
 25 69  1  0
 26 70  1  0
 26 71  1  0
 26 72  1  0
 28 73  1  0
 28 74  1  0
 28 75  1  0
 29 76  1  0
 29 77  1  0
 30 78  1  0
 30 79  1  0
 32 80  1  0
 32 81  1  0
 32 82  1  0
M  END
>  <meeko>  (1) 
{"is_sidechain": [false], "intermolecular_energy": 2.731, "internal_energy": -0.839}

$$$$
EPH_relaxed_0001_pdb2pqr_Repair_318_r2_0001_out
     RDKit          3D

 82 86  0  0  0  0  0  0  0  0999 V2000
   -5.0640    8.3870   -0.4660 C   0  0  0  0  0  0  0  0  0  0  0  0
   -5.3830    7.3680   -1.5630 C   0  0  2  0  0  0  0  0  0  0  0  0
   -4.3750    7.4330   -2.7280 C   0  0  0  0  0  0  0  0  0  0  0  0
   -2.9220    7.2120   -2.2970 C   0  0  0  0  0  0  0  0  0  0  0  0
   -2.0580    8.3890   -2.6350 C   0  0  2  0  0  0  0  0  0  0  0  0
   -0.6750    8.2350   -2.2900 O   0  0  0  0  0  0  0  0  0  0  0  0
   -1.3930    9.2650   -1.5910 C   0  0  0  0  0  0  0  0  0  0  0  0
   -1.5630    9.0020   -0.1270 C   0  0  0  0  0  0  0  0  0  0  0  0
   -0.9840   10.6530   -1.9760 C   0  0  0  0  0  0  0  0  0  0  0  0
   -6.7970    7.5930   -2.0860 C   0  0  1  0  0  0  0  0  0  0  0  0
   -7.0460    6.9030   -3.4530 C   0  0  0  0  0  0  0  0  0  0  0  0
   -8.5210    6.4260   -3.4520 C   0  0  0  0  0  0  0  0  0  0  0  0
   -9.1610    7.1400   -2.2390 C   0  0  1  0  0  0  0  0  0  0  0  0
   -9.4940    8.5770   -2.7500 C   0  0  0  0  0  0  0  0  0  0  0  0
  -10.4130    6.4470   -1.6090 C   0  0  2  0  0  0  0  0  0  0  0  0
  -11.6290    6.3220   -2.5440 C   0  0  0  0  0  0  0  0  0  0  0  0
  -12.5880    7.4650   -2.4990 C   0  0  0  0  0  0  0  0  0  0  0  0
  -12.6340    8.4100   -1.5410 C   0  0  0  0  0  0  0  0  0  0  0  0
  -11.7200    8.3300   -0.3120 C   0  0  1  0  0  0  0  0  0  0  0  0
  -12.5510    8.6020    0.9700 C   0  0  0  0  0  0  0  0  0  0  0  0
  -13.3220    9.9170    0.8990 C   0  0  0  0  0  0  0  0  0  0  0  0
  -14.2620    9.9350   -0.3030 C   0  0  2  0  0  0  0  0  0  0  0  0
  -15.2870    8.9570   -0.1010 O   0  0  0  0  0  0  0  0  0  0  0  0
  -13.5380    9.6630   -1.6510 C   0  0  0  0  0  0  0  0  0  0  0  0
  -12.6460   10.8750   -2.0170 C   0  0  0  0  0  0  0  0  0  0  0  0
  -14.6180    9.5670   -2.7620 C   0  0  0  0  0  0  0  0  0  0  0  0
  -10.8280    7.0200   -0.1940 C   0  0  1  0  0  0  0  0  0  0  0  0
  -11.6310    5.8930    0.5240 C   0  0  0  0  0  0  0  0  0  0  0  0
   -9.5810    7.3270    0.7170 C   0  0  0  0  0  0  0  0  0  0  0  0
   -8.3340    7.8990    0.0170 C   0  0  0  0  0  0  0  0  0  0  0  0
   -7.9680    7.0690   -1.2170 C   0  0  2  0  0  0  0  0  0  0  0  0
   -7.6060    5.6240   -0.7320 C   0  0  0  0  0  0  0  0  0  0  0  0
   -5.2096    7.9218    0.5201 H   0  0  0  0  0  0  0  0  0  0  0  0
   -4.0195    8.7174   -0.5649 H   0  0  0  0  0  0  0  0  0  0  0  0
   -5.7337    9.2540   -0.5649 H   0  0  0  0  0  0  0  0  0  0  0  0
   -5.3063    6.3661   -1.1155 H   0  0  0  0  0  0  0  0  0  0  0  0
   -4.6415    6.6579   -3.4616 H   0  0  0  0  0  0  0  0  0  0  0  0
   -4.4350    8.4474   -3.1492 H   0  0  0  0  0  0  0  0  0  0  0  0
   -2.8936    7.0497   -1.2094 H   0  0  0  0  0  0  0  0  0  0  0  0
   -2.5339    6.3357   -2.8368 H   0  0  0  0  0  0  0  0  0  0  0  0
   -2.6832    8.6273   -3.5082 H   0  0  0  0  0  0  0  0  0  0  0  0
   -1.0541    9.7893    0.4485 H   0  0  0  0  0  0  0  0  0  0  0  0
   -2.6342    8.9993    0.1231 H   0  0  0  0  0  0  0  0  0  0  0  0
   -1.1256    8.0242    0.1231 H   0  0  0  0  0  0  0  0  0  0  0  0
   -0.8085   11.2487   -1.0681 H   0  0  0  0  0  0  0  0  0  0  0  0
   -0.0600   10.6111   -2.5714 H   0  0  0  0  0  0  0  0  0  0  0  0
   -1.7831   11.1189   -2.5714 H   0  0  0  0  0  0  0  0  0  0  0  0
   -6.8105    8.6926   -2.1129 H   0  0  0  0  0  0  0  0  0  0  0  0
   -6.8794    7.6167   -4.2733 H   0  0  0  0  0  0  0  0  0  0  0  0
   -6.3579    6.0574   -3.5994 H   0  0  0  0  0  0  0  0  0  0  0  0
   -9.0245    6.7190   -4.3851 H   0  0  0  0  0  0  0  0  0  0  0  0
   -8.6054    5.3314   -3.3839 H   0  0  0  0  0  0  0  0  0  0  0  0
   -9.6489    9.2452   -1.8901 H   0  0  0  0  0  0  0  0  0  0  0  0
   -8.6589    8.9519   -3.3600 H   0  0  0  0  0  0  0  0  0  0  0  0
  -10.4089    8.5464   -3.3600 H   0  0  0  0  0  0  0  0  0  0  0  0
  -10.0559    5.4197   -1.4444 H   0  0  0  0  0  0  0  0  0  0  0  0
  -11.2569    6.2309   -3.5752 H   0  0  0  0  0  0  0  0  0  0  0  0
  -12.1894    5.4408   -2.1983 H   0  0  0  0  0  0  0  0  0  0  0  0
  -13.3188    7.5417   -3.3176 H   0  0  0  0  0  0  0  0  0  0  0  0
  -10.9656    9.1197   -0.4431 H   0  0  0  0  0  0  0  0  0  0  0  0
  -13.2685    7.7794    1.1064 H   0  0  0  0  0  0  0  0  0  0  0  0
  -11.8495    8.6712    1.8144 H   0  0  0  0  0  0  0  0  0  0  0  0
  -13.9123   10.0381    1.8193 H   0  0  0  0  0  0  0  0  0  0  0  0
  -12.6010   10.7409    0.7927 H   0  0  0  0  0  0  0  0  0  0  0  0
  -14.6871   10.9470   -0.3745 H   0  0  0  0  0  0  0  0  0  0  0  0
  -16.1410    9.3840   -0.2800 H   0  0  0  0  0  0  0  0  0  0  0  0
  -12.2895   11.3593   -1.0959 H   0  0  0  0  0  0  0  0  0  0  0  0
  -11.7841   10.5309   -2.6075 H   0  0  0  0  0  0  0  0  0  0  0  0
  -13.2308   11.5956   -2.6075 H   0  0  0  0  0  0  0  0  0  0  0  0
  -15.6124    9.4786   -2.3001 H   0  0  0  0  0  0  0  0  0  0  0  0
  -14.5830   10.4718   -3.3866 H   0  0  0  0  0  0  0  0  0  0  0  0
  -14.4239    8.6826   -3.3866 H   0  0  0  0  0  0  0  0  0  0  0  0
  -11.5427    6.0169    1.6134 H   0  0  0  0  0  0  0  0  0  0  0  0
  -12.6899    5.9546    0.2326 H   0  0  0  0  0  0  0  0  0  0  0  0
  -11.2270    4.9123    0.2326 H   0  0  0  0  0  0  0  0  0  0  0  0
   -9.8970    8.0536    1.4800 H   0  0  0  0  0  0  0  0  0  0  0  0
   -9.2663    6.3502    1.1131 H   0  0  0  0  0  0  0  0  0  0  0  0
   -8.5389    8.9342   -0.2936 H   0  0  0  0  0  0  0  0  0  0  0  0
   -7.4908    7.8681    0.7228 H   0  0  0  0  0  0  0  0  0  0  0  0
   -7.5993    5.5972    0.3677 H   0  0  0  0  0  0  0  0  0  0  0  0
   -8.3535    4.9118   -1.1116 H   0  0  0  0  0  0  0  0  0  0  0  0
   -6.6110    5.3483   -1.1116 H   0  0  0  0  0  0  0  0  0  0  0  0
  1  2  1  0
  2  3  1  0
  3  4  1  0
  4  5  1  0
  5  6  1  0
  6  7  1  0
  7  8  1  0
  7  9  1  0
  2 10  1  0
 10 11  1  0
 11 12  1  0
 12 13  1  0
 13 14  1  6
 13 15  1  0
 15 16  1  0
 16 17  1  0
 17 18  2  0
 18 19  1  0
 19 20  1  0
 20 21  1  0
 21 22  1  0
 22 23  1  0
 22 24  1  0
 24 25  1  0
 24 26  1  0
 19 27  1  0
 27 28  1  1
 27 29  1  0
 29 30  1  0
 30 31  1  0
 31 32  1  1
  7  5  1  0
 31 10  1  0
 31 13  1  0
 27 15  1  0
 24 18  1  0
  1 33  1  0
  1 34  1  0
  1 35  1  0
  2 36  1  1
  3 37  1  0
  3 38  1  0
  4 39  1  0
  4 40  1  0
  5 41  1  6
  8 42  1  0
  8 43  1  0
  8 44  1  0
  9 45  1  0
  9 46  1  0
  9 47  1  0
 10 48  1  6
 11 49  1  0
 11 50  1  0
 12 51  1  0
 12 52  1  0
 14 53  1  0
 14 54  1  0
 14 55  1  0
 15 56  1  1
 16 57  1  0
 16 58  1  0
 17 59  1  0
 19 60  1  6
 20 61  1  0
 20 62  1  0
 21 63  1  0
 21 64  1  0
 22 65  1  6
 23 66  1  0
 25 67  1  0
 25 68  1  0
 25 69  1  0
 26 70  1  0
 26 71  1  0
 26 72  1  0
 28 73  1  0
 28 74  1  0
 28 75  1  0
 29 76  1  0
 29 77  1  0
 30 78  1  0
 30 79  1  0
 32 80  1  0
 32 81  1  0
 32 82  1  0
M  END
>  <meeko>  (2) 
{"is_sidechain": [false], "intermolecular_energy": 2.731, "internal_energy": -0.839}

$$$$
EPH_relaxed_0001_pdb2pqr_Repair_318_r2_0001_out
     RDKit          3D

 82 86  0  0  0  0  0  0  0  0999 V2000
   -2.9760    9.5870    0.3780 C   0  0  0  0  0  0  0  0  0  0  0  0
   -2.9010    9.6200   -1.1510 C   0  0  2  0  0  0  0  0  0  0  0  0
   -2.6330    8.2250   -1.7500 C   0  0  0  0  0  0  0  0  0  0  0  0
   -3.8570    7.5990   -2.4240 C   0  0  0  0  0  0  0  0  0  0  0  0
   -5.0450    7.5830   -1.5110 C   0  0  2  0  0  0  0  0  0  0  0  0
   -5.4520    6.2780   -1.0800 O   0  0  0  0  0  0  0  0  0  0  0  0
   -6.3900    6.9960   -1.8980 C   0  0  0  0  0  0  0  0  0  0  0  0
   -6.6150    6.3840   -3.2450 C   0  0  0  0  0  0  0  0  0  0  0  0
   -7.6090    7.4520   -1.1590 C   0  0  0  0  0  0  0  0  0  0  0  0
   -1.8180   10.5960   -1.5970 C   0  0  1  0  0  0  0  0  0  0  0  0
   -2.0480   12.0320   -1.0550 C   0  0  0  0  0  0  0  0  0  0  0  0
   -0.6470   12.6330   -0.7740 C   0  0  0  0  0  0  0  0  0  0  0  0
    0.3400   11.6640   -1.4660 C   0  0  1  0  0  0  0  0  0  0  0  0
    0.3240   12.0820   -2.9700 C   0  0  0  0  0  0  0  0  0  0  0  0
    1.7940   11.6300   -0.8920 C   0  0  2  0  0  0  0  0  0  0  0  0
    2.5680   12.9550   -1.0000 C   0  0  0  0  0  0  0  0  0  0  0  0
    3.3670   13.1270   -2.2490 C   0  0  0  0  0  0  0  0  0  0  0  0
    3.6890   12.1460   -3.1130 C   0  0  0  0  0  0  0  0  0  0  0  0
    3.3220   10.6860   -2.8190 C   0  0  1  0  0  0  0  0  0  0  0  0
    4.5500    9.7790   -3.0930 C   0  0  0  0  0  0  0  0  0  0  0  0
    5.1150    9.9670   -4.4980 C   0  0  0  0  0  0  0  0  0  0  0  0
    5.5220   11.4190   -4.7320 C   0  0  2  0  0  0  0  0  0  0  0  0
    6.6290   11.7310   -3.8810 O   0  0  0  0  0  0  0  0  0  0  0  0
    4.3670   12.4280   -4.4770 C   0  0  0  0  0  0  0  0  0  0  0  0
    3.2980   12.2880   -5.5890 C   0  0  0  0  0  0  0  0  0  0  0  0
    4.9470   13.8620   -4.6100 C   0  0  0  0  0  0  0  0  0  0  0  0
    2.6630   10.4090   -1.3990 C   0  0  1  0  0  0  0  0  0  0  0  0
    3.7760   10.1810   -0.3310 C   0  0  0  0  0  0  0  0  0  0  0  0
    1.8340    9.0720   -1.4690 C   0  0  0  0  0  0  0  0  0  0  0  0
    0.3680    9.1870   -1.9300 C   0  0  0  0  0  0  0  0  0  0  0  0
   -0.3630   10.2910   -1.1610 C   0  0  2  0  0  0  0  0  0  0  0  0
   -0.3830    9.8870    0.3530 C   0  0  0  0  0  0  0  0  0  0  0  0
   -2.0461    9.9962    0.7996 H   0  0  0  0  0  0  0  0  0  0  0  0
   -3.8296   10.1926    0.7164 H   0  0  0  0  0  0  0  0  0  0  0  0
   -3.1062    8.5485    0.7164 H   0  0  0  0  0  0  0  0  0  0  0  0
   -3.8802    9.9556   -1.5232 H   0  0  0  0  0  0  0  0  0  0  0  0
   -1.8329    8.3167   -2.4993 H   0  0  0  0  0  0  0  0  0  0  0  0
   -2.3530    7.5653   -0.9155 H   0  0  0  0  0  0  0  0  0  0  0  0
   -4.1061    8.1820   -3.3229 H   0  0  0  0  0  0  0  0  0  0  0  0
   -3.6106    6.5590   -2.6843 H   0  0  0  0  0  0  0  0  0  0  0  0
   -4.7596    8.5561   -1.0847 H   0  0  0  0  0  0  0  0  0  0  0  0
   -6.9922    5.3579   -3.1232 H   0  0  0  0  0  0  0  0  0  0  0  0
   -7.3521    6.9820   -3.8010 H   0  0  0  0  0  0  0  0  0  0  0  0
   -5.6661    6.3622   -3.8010 H   0  0  0  0  0  0  0  0  0  0  0  0
   -7.4280    7.3843   -0.0761 H   0  0  0  0  0  0  0  0  0  0  0  0
   -7.8328    8.4946   -1.4289 H   0  0  0  0  0  0  0  0  0  0  0  0
   -8.4621    6.8122   -1.4289 H   0  0  0  0  0  0  0  0  0  0  0  0
   -1.9133   10.4918   -2.6879 H   0  0  0  0  0  0  0  0  0  0  0  0
   -2.5776   12.6393   -1.8038 H   0  0  0  0  0  0  0  0  0  0  0  0
   -2.6616   12.0163   -0.1422 H   0  0  0  0  0  0  0  0  0  0  0  0
   -0.5646   13.6427   -1.2027 H   0  0  0  0  0  0  0  0  0  0  0  0
   -0.4454   12.7349    0.3026 H   0  0  0  0  0  0  0  0  0  0  0  0
    0.2820   13.1786   -3.0454 H   0  0  0  0  0  0  0  0  0  0  0  0
    1.2368   11.7153   -3.4622 H   0  0  0  0  0  0  0  0  0  0  0  0
   -0.5581   11.6466   -3.4622 H   0  0  0  0  0  0  0  0  0  0  0  0
    1.6203   11.4721    0.1827 H   0  0  0  0  0  0  0  0  0  0  0  0
    1.8410   13.7787   -0.9455 H   0  0  0  0  0  0  0  0  0  0  0  0
    3.2933   12.9519   -0.1730 H   0  0  0  0  0  0  0  0  0  0  0  0
    3.7229   14.1411   -2.4834 H   0  0  0  0  0  0  0  0  0  0  0  0
    2.5072   10.4311   -3.5127 H   0  0  0  0  0  0  0  0  0  0  0  0
    5.3359   10.0194   -2.3619 H   0  0  0  0  0  0  0  0  0  0  0  0
    4.2194    8.7337   -3.0034 H   0  0  0  0  0  0  0  0  0  0  0  0
    5.9972    9.3215   -4.6207 H   0  0  0  0  0  0  0  0  0  0  0  0
    4.3374    9.6981   -5.2281 H   0  0  0  0  0  0  0  0  0  0  0  0
    5.7963   11.5172   -5.7927 H   0  0  0  0  0  0  0  0  0  0  0  0
    6.7030   11.0200   -3.2220 H   0  0  0  0  0  0  0  0  0  0  0  0
    2.3066   12.1582   -5.1303 H   0  0  0  0  0  0  0  0  0  0  0  0
    3.2974   13.1937   -6.2132 H   0  0  0  0  0  0  0  0  0  0  0  0
    3.5307   11.4127   -6.2132 H   0  0  0  0  0  0  0  0  0  0  0  0
    5.1173   14.2830   -3.6081 H   0  0  0  0  0  0  0  0  0  0  0  0
    5.8999   13.8227   -5.1581 H   0  0  0  0  0  0  0  0  0  0  0  0
    4.2347   14.4963   -5.1581 H   0  0  0  0  0  0  0  0  0  0  0  0
    3.3418   10.2699    0.6758 H   0  0  0  0  0  0  0  0  0  0  0  0
    4.2054    9.1762   -0.4577 H   0  0  0  0  0  0  0  0  0  0  0  0
    4.5659   10.9360   -0.4577 H   0  0  0  0  0  0  0  0  0  0  0  0
    2.3503    8.3964   -2.1669 H   0  0  0  0  0  0  0  0  0  0  0  0
    1.7820    8.7108   -0.4313 H   0  0  0  0  0  0  0  0  0  0  0  0
    0.3460    9.4217   -3.0045 H   0  0  0  0  0  0  0  0  0  0  0  0
   -0.1374    8.2297   -1.7347 H   0  0  0  0  0  0  0  0  0  0  0  0
   -0.3381   10.7932    0.9749 H   0  0  0  0  0  0  0  0  0  0  0  0
   -1.3095    9.3365    0.5734 H   0  0  0  0  0  0  0  0  0  0  0  0
    0.4846    9.2477    0.5734 H   0  0  0  0  0  0  0  0  0  0  0  0
  1  2  1  0
  2  3  1  0
  3  4  1  0
  4  5  1  0
  5  6  1  0
  6  7  1  0
  7  8  1  0
  7  9  1  0
  2 10  1  0
 10 11  1  0
 11 12  1  0
 12 13  1  0
 13 14  1  6
 13 15  1  0
 15 16  1  0
 16 17  1  0
 17 18  2  0
 18 19  1  0
 19 20  1  0
 20 21  1  0
 21 22  1  0
 22 23  1  0
 22 24  1  0
 24 25  1  0
 24 26  1  0
 19 27  1  0
 27 28  1  1
 27 29  1  0
 29 30  1  0
 30 31  1  0
 31 32  1  1
  7  5  1  0
 31 10  1  0
 31 13  1  0
 27 15  1  0
 24 18  1  0
  1 33  1  0
  1 34  1  0
  1 35  1  0
  2 36  1  6
  3 37  1  0
  3 38  1  0
  4 39  1  0
  4 40  1  0
  5 41  1  1
  8 42  1  0
  8 43  1  0
  8 44  1  0
  9 45  1  0
  9 46  1  0
  9 47  1  0
 10 48  1  6
 11 49  1  0
 11 50  1  0
 12 51  1  0
 12 52  1  0
 14 53  1  0
 14 54  1  0
 14 55  1  0
 15 56  1  1
 16 57  1  0
 16 58  1  0
 17 59  1  0
 19 60  1  6
 20 61  1  0
 20 62  1  0
 21 63  1  0
 21 64  1  0
 22 65  1  6
 23 66  1  0
 25 67  1  0
 25 68  1  0
 25 69  1  0
 26 70  1  0
 26 71  1  0
 26 72  1  0
 28 73  1  0
 28 74  1  0
 28 75  1  0
 29 76  1  0
 29 77  1  0
 30 78  1  0
 30 79  1  0
 32 80  1  0
 32 81  1  0
 32 82  1  0
M  END
>  <meeko>  (3) 
{"is_sidechain": [false], "intermolecular_energy": 2.731, "internal_energy": -0.839}

$$$$
EPH_relaxed_0001_pdb2pqr_Repair_318_r2_0001_out
     RDKit          3D

 82 86  0  0  0  0  0  0  0  0999 V2000
  -15.1560    8.7220    0.8200 C   0  0  0  0  0  0  0  0  0  0  0  0
  -14.3130    9.0620   -0.4130 C   0  0  2  0  0  0  0  0  0  0  0  0
  -14.6500    8.1570   -1.6150 C   0  0  0  0  0  0  0  0  0  0  0  0
  -14.5270    8.8610   -2.9690 C   0  0  0  0  0  0  0  0  0  0  0  0
  -15.2280   10.1860   -2.9690 C   0  0  2  0  0  0  0  0  0  0  0  0
  -14.9320   11.0190   -4.0980 O   0  0  0  0  0  0  0  0  0  0  0  0
  -14.5080   11.5130   -2.8170 C   0  0  0  0  0  0  0  0  0  0  0  0
  -13.0220   11.5810   -2.6510 C   0  0  0  0  0  0  0  0  0  0  0  0
  -15.2880   12.6990   -2.3400 C   0  0  0  0  0  0  0  0  0  0  0  0
  -12.8310    8.9500   -0.0750 C   0  0  1  0  0  0  0  0  0  0  0  0
  -12.5620    8.9720    1.4530 C   0  0  0  0  0  0  0  0  0  0  0  0
  -11.3570    8.0310    1.7100 C   0  0  0  0  0  0  0  0  0  0  0  0
  -10.7670    7.7620    0.3060 C   0  0  1  0  0  0  0  0  0  0  0  0
   -9.8850    9.0120   -0.0050 C   0  0  0  0  0  0  0  0  0  0  0  0
   -9.9620    6.4320    0.1380 C   0  0  2  0  0  0  0  0  0  0  0  0
   -8.6980    6.3200    1.0080 C   0  0  0  0  0  0  0  0  0  0  0  0
   -7.4440    6.8290    0.3800 C   0  0  0  0  0  0  0  0  0  0  0  0
   -7.2760    7.0920   -0.9300 C   0  0  0  0  0  0  0  0  0  0  0  0
   -8.3860    6.7850   -1.9430 C   0  0  1  0  0  0  0  0  0  0  0  0
   -7.7790    6.0610   -3.1730 C   0  0  0  0  0  0  0  0  0  0  0  0
   -6.6190    6.8350   -3.7940 C   0  0  0  0  0  0  0  0  0  0  0  0
   -5.5110    7.0700   -2.7710 C   0  0  2  0  0  0  0  0  0  0  0  0
   -4.9260    5.8100   -2.4270 O   0  0  0  0  0  0  0  0  0  0  0  0
   -6.0070    7.7850   -1.4840 C   0  0  0  0  0  0  0  0  0  0  0  0
   -6.3590    9.2570   -1.8090 C   0  0  0  0  0  0  0  0  0  0  0  0
   -4.8240    7.8330   -0.4790 C   0  0  0  0  0  0  0  0  0  0  0  0
   -9.6650    6.0390   -1.3660 C   0  0  1  0  0  0  0  0  0  0  0  0
   -9.4360    4.4970   -1.3860 C   0  0  0  0  0  0  0  0  0  0  0  0
  -10.8930    6.3180   -2.3110 C   0  0  0  0  0  0  0  0  0  0  0  0
  -11.7200    7.5850   -2.0200 C   0  0  0  0  0  0  0  0  0  0  0  0
  -12.0910    7.6680   -0.5360 C   0  0  2  0  0  0  0  0  0  0  0  0
  -12.9970    6.4350   -0.1990 C   0  0  0  0  0  0  0  0  0  0  0  0
  -14.5836    8.9529    1.7305 H   0  0  0  0  0  0  0  0  0  0  0  0
  -16.0808    9.3174    0.8074 H   0  0  0  0  0  0  0  0  0  0  0  0
  -15.4089    7.6515    0.8074 H   0  0  0  0  0  0  0  0  0  0  0  0
  -14.5514   10.0961   -0.7026 H   0  0  0  0  0  0  0  0  0  0  0  0
  -13.9628    7.2981   -1.6065 H   0  0  0  0  0  0  0  0  0  0  0  0
  -15.7017    7.8542   -1.5045 H   0  0  0  0  0  0  0  0  0  0  0  0
  -13.4619    9.0209   -3.1925 H   0  0  0  0  0  0  0  0  0  0  0  0
  -14.9977    8.2233   -3.7318 H   0  0  0  0  0  0  0  0  0  0  0  0
  -16.0961    9.7540   -2.4496 H   0  0  0  0  0  0  0  0  0  0  0  0
  -12.7729   11.5924   -1.5796 H   0  0  0  0  0  0  0  0  0  0  0  0
  -12.5595   10.7031   -3.1257 H   0  0  0  0  0  0  0  0  0  0  0  0
  -12.6416   12.4975   -3.1257 H   0  0  0  0  0  0  0  0  0  0  0  0
  -15.2975   12.7134   -1.2401 H   0  0  0  0  0  0  0  0  0  0  0  0
  -14.8193   13.6209   -2.7147 H   0  0  0  0  0  0  0  0  0  0  0  0
  -16.3201   12.6339   -2.7147 H   0  0  0  0  0  0  0  0  0  0  0  0
  -12.4510    9.8234   -0.6252 H   0  0  0  0  0  0  0  0  0  0  0  0
  -12.3207    9.9941    1.7802 H   0  0  0  0  0  0  0  0  0  0  0  0
  -13.4480    8.6405    2.0143 H   0  0  0  0  0  0  0  0  0  0  0  0
  -10.6135    8.5197    2.3567 H   0  0  0  0  0  0  0  0  0  0  0  0
  -11.6530    7.1041    2.2231 H   0  0  0  0  0  0  0  0  0  0  0  0
   -9.5587    9.4744    0.9383 H   0  0  0  0  0  0  0  0  0  0  0  0
   -9.0035    8.7034   -0.5862 H   0  0  0  0  0  0  0  0  0  0  0  0
  -10.4713    9.7390   -0.5862 H   0  0  0  0  0  0  0  0  0  0  0  0
  -10.6631    5.6812    0.5314 H   0  0  0  0  0  0  0  0  0  0  0  0
   -8.8705    6.8901    1.9328 H   0  0  0  0  0  0  0  0  0  0  0  0
   -8.5390    5.2446    1.1760 H   0  0  0  0  0  0  0  0  0  0  0  0
   -6.5840    7.0043    1.0431 H   0  0  0  0  0  0  0  0  0  0  0  0
   -8.7964    7.7589   -2.2480 H   0  0  0  0  0  0  0  0  0  0  0  0
   -7.4141    5.0729   -2.8560 H   0  0  0  0  0  0  0  0  0  0  0  0
   -8.5689    5.9758   -3.9338 H   0  0  0  0  0  0  0  0  0  0  0  0
   -6.2130    6.2590   -4.6386 H   0  0  0  0  0  0  0  0  0  0  0  0
   -6.9921    7.8109   -4.1382 H   0  0  0  0  0  0  0  0  0  0  0  0
   -4.7704    7.7381   -3.2347 H   0  0  0  0  0  0  0  0  0  0  0  0
   -5.1550    5.6220   -1.5010 H   0  0  0  0  0  0  0  0  0  0  0  0
   -6.4930    9.8174   -0.8720 H   0  0  0  0  0  0  0  0  0  0  0  0
   -5.5435    9.7087   -2.3930 H   0  0  0  0  0  0  0  0  0  0  0  0
   -7.2906    9.2909   -2.3930 H   0  0  0  0  0  0  0  0  0  0  0  0
   -5.2153    7.8171    0.5489 H   0  0  0  0  0  0  0  0  0  0  0  0
   -4.1730    6.9605   -0.6370 H   0  0  0  0  0  0  0  0  0  0  0  0
   -4.2458    8.7553   -0.6370 H   0  0  0  0  0  0  0  0  0  0  0  0
   -9.3802    4.1212   -0.3537 H   0  0  0  0  0  0  0  0  0  0  0  0
  -10.2715    4.0090   -1.9092 H   0  0  0  0  0  0  0  0  0  0  0  0
   -8.4947    4.2729   -1.9092 H   0  0  0  0  0  0  0  0  0  0  0  0
  -10.5100    6.3994   -3.3390 H   0  0  0  0  0  0  0  0  0  0  0  0
  -11.5833    5.4785   -2.1412 H   0  0  0  0  0  0  0  0  0  0  0  0
  -11.1288    8.4714   -2.2934 H   0  0  0  0  0  0  0  0  0  0  0  0
  -12.6464    7.5430   -2.6116 H   0  0  0  0  0  0  0  0  0  0  0  0
  -13.0769    6.3262    0.8927 H   0  0  0  0  0  0  0  0  0  0  0  0
  -13.9988    6.5884   -0.6265 H   0  0  0  0  0  0  0  0  0  0  0  0
  -12.5513    5.5247   -0.6265 H   0  0  0  0  0  0  0  0  0  0  0  0
  1  2  1  0
  2  3  1  0
  3  4  1  0
  4  5  1  0
  5  6  1  0
  6  7  1  0
  7  8  1  0
  7  9  1  0
  2 10  1  0
 10 11  1  0
 11 12  1  0
 12 13  1  0
 13 14  1  6
 13 15  1  0
 15 16  1  0
 16 17  1  0
 17 18  2  0
 18 19  1  0
 19 20  1  0
 20 21  1  0
 21 22  1  0
 22 23  1  0
 22 24  1  0
 24 25  1  0
 24 26  1  0
 19 27  1  0
 27 28  1  1
 27 29  1  0
 29 30  1  0
 30 31  1  0
 31 32  1  1
  7  5  1  0
 31 10  1  0
 31 13  1  0
 27 15  1  0
 24 18  1  0
  1 33  1  0
  1 34  1  0
  1 35  1  0
  2 36  1  6
  3 37  1  0
  3 38  1  0
  4 39  1  0
  4 40  1  0
  5 41  1  1
  8 42  1  0
  8 43  1  0
  8 44  1  0
  9 45  1  0
  9 46  1  0
  9 47  1  0
 10 48  1  6
 11 49  1  0
 11 50  1  0
 12 51  1  0
 12 52  1  0
 14 53  1  0
 14 54  1  0
 14 55  1  0
 15 56  1  1
 16 57  1  0
 16 58  1  0
 17 59  1  0
 19 60  1  6
 20 61  1  0
 20 62  1  0
 21 63  1  0
 21 64  1  0
 22 65  1  6
 23 66  1  0
 25 67  1  0
 25 68  1  0
 25 69  1  0
 26 70  1  0
 26 71  1  0
 26 72  1  0
 28 73  1  0
 28 74  1  0
 28 75  1  0
 29 76  1  0
 29 77  1  0
 30 78  1  0
 30 79  1  0
 32 80  1  0
 32 81  1  0
 32 82  1  0
M  END
>  <meeko>  (4) 
{"is_sidechain": [false], "intermolecular_energy": 2.731, "internal_energy": -0.839}

$$$$
EPH_relaxed_0001_pdb2pqr_Repair_318_r2_0001_out
     RDKit          3D

 82 86  0  0  0  0  0  0  0  0999 V2000
   -2.3470   14.0270   -0.0180 C   0  0  0  0  0  0  0  0  0  0  0  0
   -1.1790   14.6200    0.7760 C   0  0  2  0  0  0  0  0  0  0  0  0
   -1.0290   16.1370    0.5420 C   0  0  0  0  0  0  0  0  0  0  0  0
    0.1550   16.5070   -0.3540 C   0  0  0  0  0  0  0  0  0  0  0  0
    0.3120   17.9930   -0.4800 C   0  0  2  0  0  0  0  0  0  0  0  0
    1.1920   18.4150   -1.5300 O   0  0  0  0  0  0  0  0  0  0  0  0
    1.6090   18.7250   -0.1910 C   0  0  0  0  0  0  0  0  0  0  0  0
    2.8370   17.9910    0.2490 C   0  0  0  0  0  0  0  0  0  0  0  0
    1.5490   20.1840    0.1370 C   0  0  0  0  0  0  0  0  0  0  0  0
    0.1160   13.9060    0.4070 C   0  0  1  0  0  0  0  0  0  0  0  0
    0.6800   13.0520    1.5740 C   0  0  0  0  0  0  0  0  0  0  0  0
    1.3350   11.8000    0.9360 C   0  0  0  0  0  0  0  0  0  0  0  0
    1.4230   12.1320   -0.5720 C   0  0  1  0  0  0  0  0  0  0  0  0
    2.6950   13.0250   -0.7130 C   0  0  0  0  0  0  0  0  0  0  0  0
    1.4650   10.9100   -1.5470 C   0  0  2  0  0  0  0  0  0  0  0  0
    2.6840    9.9870   -1.3840 C   0  0  0  0  0  0  0  0  0  0  0  0
    3.8680   10.3390   -2.2230 C   0  0  0  0  0  0  0  0  0  0  0  0
    3.8580   11.1760   -3.2770 C   0  0  0  0  0  0  0  0  0  0  0  0
    2.5460   11.7910   -3.7820 C   0  0  1  0  0  0  0  0  0  0  0  0
    2.4750   11.6640   -5.3260 C   0  0  0  0  0  0  0  0  0  0  0  0
    3.7000   12.2520   -6.0190 C   0  0  0  0  0  0  0  0  0  0  0  0
    4.9790   11.5750   -5.5340 C   0  0  2  0  0  0  0  0  0  0  0  0
    4.9710   10.2110   -5.9680 O   0  0  0  0  0  0  0  0  0  0  0  0
    5.1550   11.6310   -3.9910 C   0  0  0  0  0  0  0  0  0  0  0  0
    5.4650   13.0840   -3.5550 C   0  0  0  0  0  0  0  0  0  0  0  0
    6.4070   10.7910   -3.6220 C   0  0  0  0  0  0  0  0  0  0  0  0
    1.2210   11.2840   -3.0650 C   0  0  1  0  0  0  0  0  0  0  0  0
    0.7010    9.9910   -3.7640 C   0  0  0  0  0  0  0  0  0  0  0  0
    0.0940   12.3690   -3.2410 C   0  0  0  0  0  0  0  0  0  0  0  0
    0.0300   13.4830   -2.1790 C   0  0  0  0  0  0  0  0  0  0  0  0
    0.0620   12.8950   -0.7650 C   0  0  2  0  0  0  0  0  0  0  0  0
   -1.2180   12.0090   -0.5860 C   0  0  0  0  0  0  0  0  0  0  0  0
   -3.1059   13.6417    0.6788 H   0  0  0  0  0  0  0  0  0  0  0  0
   -2.7935   14.8076   -0.6515 H   0  0  0  0  0  0  0  0  0  0  0  0
   -1.9803   13.2059   -0.6515 H   0  0  0  0  0  0  0  0  0  0  0  0
   -1.3949   14.4701    1.8441 H   0  0  0  0  0  0  0  0  0  0  0  0
   -1.9508   16.5085    0.0705 H   0  0  0  0  0  0  0  0  0  0  0  0
   -0.8451   16.5972    1.5241 H   0  0  0  0  0  0  0  0  0  0  0  0
    1.0747   16.0868    0.0790 H   0  0  0  0  0  0  0  0  0  0  0  0
   -0.0322   16.0957   -1.3569 H   0  0  0  0  0  0  0  0  0  0  0  0
   -0.7195   18.1549   -0.1337 H   0  0  0  0  0  0  0  0  0  0  0  0
    2.8761   17.9676    1.3481 H   0  0  0  0  0  0  0  0  0  0  0  0
    2.8079   16.9621   -0.1388 H   0  0  0  0  0  0  0  0  0  0  0  0
    3.7295   18.5039   -0.1388 H   0  0  0  0  0  0  0  0  0  0  0  0
    1.5436   20.3143    1.2292 H   0  0  0  0  0  0  0  0  0  0  0  0
    2.4270   20.6919   -0.2886 H   0  0  0  0  0  0  0  0  0  0  0  0
    0.6322   20.6181   -0.2886 H   0  0  0  0  0  0  0  0  0  0  0  0
    0.7316   14.7735    0.1268 H   0  0  0  0  0  0  0  0  0  0  0  0
    1.4304   13.6272    2.1361 H   0  0  0  0  0  0  0  0  0  0  0  0
   -0.1175   12.7663    2.2757 H   0  0  0  0  0  0  0  0  0  0  0  0
    2.3376   11.6298    1.3554 H   0  0  0  0  0  0  0  0  0  0  0  0
    0.7582   10.8833    1.1286 H   0  0  0  0  0  0  0  0  0  0  0  0
    3.0706   13.2887    0.2867 H   0  0  0  0  0  0  0  0  0  0  0  0
    3.4716   12.4728   -1.2626 H   0  0  0  0  0  0  0  0  0  0  0  0
    2.4395   13.9430   -1.2626 H   0  0  0  0  0  0  0  0  0  0  0  0
    0.5973   10.3178   -1.2209 H   0  0  0  0  0  0  0  0  0  0  0  0
    2.9942   10.0169   -0.3291 H   0  0  0  0  0  0  0  0  0  0  0  0
    2.3586    8.9914   -1.7199 H   0  0  0  0  0  0  0  0  0  0  0  0
    4.8294    9.8752   -1.9573 H   0  0  0  0  0  0  0  0  0  0  0  0
    2.5782   12.8529   -3.4966 H   0  0  0  0  0  0  0  0  0  0  0  0
    2.3988   10.5986   -5.5889 H   0  0  0  0  0  0  0  0  0  0  0  0
    1.5953   12.2295   -5.6671 H   0  0  0  0  0  0  0  0  0  0  0  0
    3.6044   12.1049   -7.1049 H   0  0  0  0  0  0  0  0  0  0  0  0
    3.7579   13.3240   -5.7795 H   0  0  0  0  0  0  0  0  0  0  0  0
    5.8278   12.1251   -5.9663 H   0  0  0  0  0  0  0  0  0  0  0  0
    4.9960   10.2110   -6.9400 H   0  0  0  0  0  0  0  0  0  0  0  0
    5.4775   13.1425   -2.4566 H   0  0  0  0  0  0  0  0  0  0  0  0
    6.4473   13.3835   -3.9493 H   0  0  0  0  0  0  0  0  0  0  0  0
    4.6905   13.7583   -3.9493 H   0  0  0  0  0  0  0  0  0  0  0  0
    6.4980   10.7299   -2.5275 H   0  0  0  0  0  0  0  0  0  0  0  0
    6.3047    9.7781   -4.0385 H   0  0  0  0  0  0  0  0  0  0  0  0
    7.3055   11.2697   -4.0385 H   0  0  0  0  0  0  0  0  0  0  0  0
    0.4052    9.2555   -3.0014 H   0  0  0  0  0  0  0  0  0  0  0  0
   -0.1678   10.2377   -4.3919 H   0  0  0  0  0  0  0  0  0  0  0  0
    1.4987    9.5675   -4.3919 H   0  0  0  0  0  0  0  0  0  0  0  0
    0.2448   12.8498   -4.2188 H   0  0  0  0  0  0  0  0  0  0  0  0
   -0.8532   11.8192   -3.1386 H   0  0  0  0  0  0  0  0  0  0  0  0
    0.8917   14.1542   -2.3092 H   0  0  0  0  0  0  0  0  0  0  0  0
   -0.9120   14.0364   -2.3075 H   0  0  0  0  0  0  0  0  0  0  0  0
   -1.4201   11.8691    0.4862 H   0  0  0  0  0  0  0  0  0  0  0  0
   -2.0774   12.5065   -1.0593 H   0  0  0  0  0  0  0  0  0  0  0  0
   -1.0550   11.0295   -1.0593 H   0  0  0  0  0  0  0  0  0  0  0  0
  1  2  1  0
  2  3  1  0
  3  4  1  0
  4  5  1  0
  5  6  1  0
  6  7  1  0
  7  8  1  0
  7  9  1  0
  2 10  1  0
 10 11  1  0
 11 12  1  0
 12 13  1  0
 13 14  1  1
 13 15  1  0
 15 16  1  0
 16 17  1  0
 17 18  2  0
 18 19  1  0
 19 20  1  0
 20 21  1  0
 21 22  1  0
 22 23  1  0
 22 24  1  0
 24 25  1  0
 24 26  1  0
 19 27  1  0
 27 28  1  6
 27 29  1  0
 29 30  1  0
 30 31  1  0
 31 32  1  1
  7  5  1  0
 31 10  1  0
 31 13  1  0
 27 15  1  0
 24 18  1  0
  1 33  1  0
  1 34  1  0
  1 35  1  0
  2 36  1  1
  3 37  1  0
  3 38  1  0
  4 39  1  0
  4 40  1  0
  5 41  1  6
  8 42  1  0
  8 43  1  0
  8 44  1  0
  9 45  1  0
  9 46  1  0
  9 47  1  0
 10 48  1  6
 11 49  1  0
 11 50  1  0
 12 51  1  0
 12 52  1  0
 14 53  1  0
 14 54  1  0
 14 55  1  0
 15 56  1  1
 16 57  1  0
 16 58  1  0
 17 59  1  0
 19 60  1  6
 20 61  1  0
 20 62  1  0
 21 63  1  0
 21 64  1  0
 22 65  1  6
 23 66  1  0
 25 67  1  0
 25 68  1  0
 25 69  1  0
 26 70  1  0
 26 71  1  0
 26 72  1  0
 28 73  1  0
 28 74  1  0
 28 75  1  0
 29 76  1  0
 29 77  1  0
 30 78  1  0
 30 79  1  0
 32 80  1  0
 32 81  1  0
 32 82  1  0
M  END
>  <meeko>  (5) 
{"is_sidechain": [false], "intermolecular_energy": 2.731, "internal_energy": -0.839}

$$$$
EPH_relaxed_0001_pdb2pqr_Repair_318_r2_0001_out
     RDKit          3D

 82 86  0  0  0  0  0  0  0  0999 V2000
   -8.0360    7.9880   -3.0570 C   0  0  0  0  0  0  0  0  0  0  0  0
   -7.0290    7.2210   -2.1960 C   0  0  2  0  0  0  0  0  0  0  0  0
   -7.7160    6.4190   -1.0730 C   0  0  0  0  0  0  0  0  0  0  0  0
   -9.2460    6.4480   -1.1440 C   0  0  0  0  0  0  0  0  0  0  0  0
   -9.8460    7.0600    0.0860 C   0  0  2  0  0  0  0  0  0  0  0  0
  -10.8840    6.2820    0.6960 O   0  0  0  0  0  0  0  0  0  0  0  0
  -11.2790    7.5550    0.1590 C   0  0  0  0  0  0  0  0  0  0  0  0
  -12.1980    7.4600   -1.0180 C   0  0  0  0  0  0  0  0  0  0  0  0
  -11.6330    8.5660    1.2040 C   0  0  0  0  0  0  0  0  0  0  0  0
   -6.0140    8.1890   -1.5980 C   0  0  1  0  0  0  0  0  0  0  0  0
   -6.2100    8.3930   -0.0720 C   0  0  0  0  0  0  0  0  0  0  0  0
   -4.7970    8.5780    0.5390 C   0  0  0  0  0  0  0  0  0  0  0  0
   -3.8710    8.8050   -0.6790 C   0  0  1  0  0  0  0  0  0  0  0  0
   -4.0490   10.3130   -1.0420 C   0  0  0  0  0  0  0  0  0  0  0  0
   -2.3660    8.4330   -0.4810 C   0  0  2  0  0  0  0  0  0  0  0  0
   -1.6280    9.2460    0.5960 C   0  0  0  0  0  0  0  0  0  0  0  0
   -0.9660   10.4930    0.1120 C   0  0  0  0  0  0  0  0  0  0  0  0
   -0.7180   10.7980   -1.1750 C   0  0  0  0  0  0  0  0  0  0  0  0
   -1.0280    9.7970   -2.2950 C   0  0  1  0  0  0  0  0  0  0  0  0
    0.1800    9.7140   -3.2650 C   0  0  0  0  0  0  0  0  0  0  0  0
    0.5940   11.0810   -3.8020 C   0  0  0  0  0  0  0  0  0  0  0  0
    0.9500   12.0300   -2.6610 C   0  0  2  0  0  0  0  0  0  0  0  0
    2.1340   11.5510   -2.0160 O   0  0  0  0  0  0  0  0  0  0  0  0
   -0.1890   12.1860   -1.6140 C   0  0  0  0  0  0  0  0  0  0  0  0
   -1.3630   12.9790   -2.2380 C   0  0  0  0  0  0  0  0  0  0  0  0
    0.3510   13.0550   -0.4470 C   0  0  0  0  0  0  0  0  0  0  0  0
   -1.5330    8.3650   -1.8260 C   0  0  1  0  0  0  0  0  0  0  0  0
   -0.3130    7.4360   -1.5470 C   0  0  0  0  0  0  0  0  0  0  0  0
   -2.3430    7.6950   -2.9980 C   0  0  0  0  0  0  0  0  0  0  0  0
   -3.8500    8.0080   -3.0690 C   0  0  0  0  0  0  0  0  0  0  0  0
   -4.5170    7.8040   -1.7050 C   0  0  2  0  0  0  0  0  0  0  0  0
   -4.3730    6.2910   -1.3230 C   0  0  0  0  0  0  0  0  0  0  0  0
   -8.7412    8.5251   -2.4057 H   0  0  0  0  0  0  0  0  0  0  0  0
   -7.5010    8.7095   -3.6920 H   0  0  0  0  0  0  0  0  0  0  0  0
   -8.5894    7.2805   -3.6920 H   0  0  0  0  0  0  0  0  0  0  0  0
   -6.5163    6.5001   -2.8498 H   0  0  0  0  0  0  0  0  0  0  0  0
   -7.3848    5.3722   -1.1411 H   0  0  0  0  0  0  0  0  0  0  0  0
   -7.4291    6.8885   -0.1205 H   0  0  0  0  0  0  0  0  0  0  0  0
   -9.5512    7.0378   -2.0209 H   0  0  0  0  0  0  0  0  0  0  0  0
   -9.6057    5.4114   -1.2219 H   0  0  0  0  0  0  0  0  0  0  0  0
   -8.8877    7.5322    0.3481 H   0  0  0  0  0  0  0  0  0  0  0  0
  -13.2347    7.3528   -0.6661 H   0  0  0  0  0  0  0  0  0  0  0  0
  -12.1098    8.3720   -1.6266 H   0  0  0  0  0  0  0  0  0  0  0  0
  -11.9251    6.5853   -1.6266 H   0  0  0  0  0  0  0  0  0  0  0  0
  -11.4804    8.1302    2.2024 H   0  0  0  0  0  0  0  0  0  0  0  0
  -10.9917    9.4523    1.0889 H   0  0  0  0  0  0  0  0  0  0  0  0
  -12.6871    8.8587    1.0889 H   0  0  0  0  0  0  0  0  0  0  0  0
   -6.2197    9.0767   -2.2142 H   0  0  0  0  0  0  0  0  0  0  0  0
   -6.8237    9.2865    0.1151 H   0  0  0  0  0  0  0  0  0  0  0  0
   -6.7259    7.5324    0.3787 H   0  0  0  0  0  0  0  0  0  0  0  0
   -4.7755    9.4489    1.2106 H   0  0  0  0  0  0  0  0  0  0  0  0
   -4.4872    7.7121    1.1425 H   0  0  0  0  0  0  0  0  0  0  0  0
   -4.1191   10.9066   -0.1186 H   0  0  0  0  0  0  0  0  0  0  0  0
   -3.1847   10.6527   -1.6316 H   0  0  0  0  0  0  0  0  0  0  0  0
   -4.9686   10.4421   -1.6316 H   0  0  0  0  0  0  0  0  0  0  0  0
   -2.4269    7.4067   -0.0898 H   0  0  0  0  0  0  0  0  0  0  0  0
   -2.3580    9.5270    1.3694 H   0  0  0  0  0  0  0  0  0  0  0  0
   -0.8207    8.5973    0.9668 H   0  0  0  0  0  0  0  0  0  0  0  0
   -0.6544   11.2249    0.8718 H   0  0  0  0  0  0  0  0  0  0  0  0
   -1.9054   10.1966   -2.8246 H   0  0  0  0  0  0  0  0  0  0  0  0
    1.0331    9.2726   -2.7289 H   0  0  0  0  0  0  0  0  0  0  0  0
   -0.1226    9.0958   -4.1231 H   0  0  0  0  0  0  0  0  0  0  0  0
    1.4698   10.9605   -4.4566 H   0  0  0  0  0  0  0  0  0  0  0  0
   -0.2500   11.5080   -4.3636 H   0  0  0  0  0  0  0  0  0  0  0  0
    1.1109   13.0261   -3.0990 H   0  0  0  0  0  0  0  0  0  0  0  0
    1.8990   10.7410   -1.5330 H   0  0  0  0  0  0  0  0  0  0  0  0
   -1.9875   13.4008   -1.4367 H   0  0  0  0  0  0  0  0  0  0  0  0
   -0.9651   13.7941   -2.8604 H   0  0  0  0  0  0  0  0  0  0  0  0
   -1.9706   12.3056   -2.8604 H   0  0  0  0  0  0  0  0  0  0  0  0
    0.0670   12.5979    0.5124 H   0  0  0  0  0  0  0  0  0  0  0  0
    1.4472   13.1174   -0.5131 H   0  0  0  0  0  0  0  0  0  0  0  0
   -0.0785   14.0655   -0.5131 H   0  0  0  0  0  0  0  0  0  0  0  0
   -0.1737    7.3299   -0.4610 H   0  0  0  0  0  0  0  0  0  0  0  0
   -0.4963    6.4467   -1.9915 H   0  0  0  0  0  0  0  0  0  0  0  0
    0.5920    7.8758   -1.9915 H   0  0  0  0  0  0  0  0  0  0  0  0
   -1.8901    8.0228   -3.9453 H   0  0  0  0  0  0  0  0  0  0  0  0
   -2.2825    6.6132   -2.8079 H   0  0  0  0  0  0  0  0  0  0  0  0
   -3.9860    9.0533   -3.3834 H   0  0  0  0  0  0  0  0  0  0  0  0
   -4.3166    7.3243   -3.7935 H   0  0  0  0  0  0  0  0  0  0  0  0
   -4.3633    6.1887   -0.2278 H   0  0  0  0  0  0  0  0  0  0  0  0
   -5.2214    5.7261   -1.7365 H   0  0  0  0  0  0  0  0  0  0  0  0
   -3.4332    5.8963   -1.7365 H   0  0  0  0  0  0  0  0  0  0  0  0
  1  2  1  0
  2  3  1  0
  3  4  1  0
  4  5  1  0
  5  6  1  0
  6  7  1  0
  7  8  1  0
  7  9  1  0
  2 10  1  0
 10 11  1  0
 11 12  1  0
 12 13  1  0
 13 14  1  6
 13 15  1  0
 15 16  1  0
 16 17  1  0
 17 18  2  0
 18 19  1  0
 19 20  1  0
 20 21  1  0
 21 22  1  0
 22 23  1  0
 22 24  1  0
 24 25  1  0
 24 26  1  0
 19 27  1  0
 27 28  1  1
 27 29  1  0
 29 30  1  0
 30 31  1  0
 31 32  1  1
  7  5  1  0
 31 10  1  0
 31 13  1  0
 27 15  1  0
 24 18  1  0
  1 33  1  0
  1 34  1  0
  1 35  1  0
  2 36  1  6
  3 37  1  0
  3 38  1  0
  4 39  1  0
  4 40  1  0
  5 41  1  1
  8 42  1  0
  8 43  1  0
  8 44  1  0
  9 45  1  0
  9 46  1  0
  9 47  1  0
 10 48  1  6
 11 49  1  0
 11 50  1  0
 12 51  1  0
 12 52  1  0
 14 53  1  0
 14 54  1  0
 14 55  1  0
 15 56  1  1
 16 57  1  0
 16 58  1  0
 17 59  1  0
 19 60  1  6
 20 61  1  0
 20 62  1  0
 21 63  1  0
 21 64  1  0
 22 65  1  6
 23 66  1  0
 25 67  1  0
 25 68  1  0
 25 69  1  0
 26 70  1  0
 26 71  1  0
 26 72  1  0
 28 73  1  0
 28 74  1  0
 28 75  1  0
 29 76  1  0
 29 77  1  0
 30 78  1  0
 30 79  1  0
 32 80  1  0
 32 81  1  0
 32 82  1  0
M  END
>  <meeko>  (6) 
{"is_sidechain": [false], "intermolecular_energy": 2.731, "internal_energy": -0.839}

$$$$
EPH_relaxed_0001_pdb2pqr_Repair_318_r2_0001_out
     RDKit          3D

 82 86  0  0  0  0  0  0  0  0999 V2000
   -5.3720    6.8380   -3.3020 C   0  0  0  0  0  0  0  0  0  0  0  0
   -5.9820    7.4770   -2.0520 C   0  0  2  0  0  0  0  0  0  0  0  0
   -7.3980    8.0280   -2.3130 C   0  0  0  0  0  0  0  0  0  0  0  0
   -8.5170    7.0470   -1.9530 C   0  0  0  0  0  0  0  0  0  0  0  0
   -8.8700    7.1190   -0.4980 C   0  0  2  0  0  0  0  0  0  0  0  0
   -9.7080    6.0540   -0.0310 O   0  0  0  0  0  0  0  0  0  0  0  0
  -10.2780    7.3720    0.0100 C   0  0  0  0  0  0  0  0  0  0  0  0
  -11.4230    7.5700   -0.9330 C   0  0  0  0  0  0  0  0  0  0  0  0
  -10.4530    7.9100    1.3960 C   0  0  0  0  0  0  0  0  0  0  0  0
   -5.0750    8.5920   -1.5430 C   0  0  1  0  0  0  0  0  0  0  0  0
   -5.5700    9.2010   -0.2040 C   0  0  0  0  0  0  0  0  0  0  0  0
   -4.3060    9.5750    0.6110 C   0  0  0  0  0  0  0  0  0  0  0  0
   -3.1440    9.4800   -0.4050 C   0  0  1  0  0  0  0  0  0  0  0  0
   -3.1890   10.8280   -1.1920 C   0  0  0  0  0  0  0  0  0  0  0  0
   -1.7250    9.2070    0.1910 C   0  0  2  0  0  0  0  0  0  0  0  0
   -1.1930   10.2990    1.1360 C   0  0  0  0  0  0  0  0  0  0  0  0
   -0.4000   11.3800    0.4800 C   0  0  0  0  0  0  0  0  0  0  0  0
    0.1150   11.3280   -0.7630 C   0  0  0  0  0  0  0  0  0  0  0  0
    0.0030   10.0530   -1.6090 C   0  0  1  0  0  0  0  0  0  0  0  0
    1.3790    9.7340   -2.2500 C   0  0  0  0  0  0  0  0  0  0  0  0
    1.9440   10.9110   -3.0400 C   0  0  0  0  0  0  0  0  0  0  0  0
    2.0950   12.1420   -2.1500 C   0  0  2  0  0  0  0  0  0  0  0  0
    3.1040   11.8820   -1.1700 O   0  0  0  0  0  0  0  0  0  0  0  0
    0.7730   12.5530   -1.4430 C   0  0  0  0  0  0  0  0  0  0  0  0
   -0.2200   13.1220   -2.4860 C   0  0  0  0  0  0  0  0  0  0  0  0
    1.0950   13.7190   -0.4690 C   0  0  0  0  0  0  0  0  0  0  0  0
   -0.6390    8.7930   -0.8830 C   0  0  1  0  0  0  0  0  0  0  0  0
    0.4650    8.0000   -0.1180 C   0  0  0  0  0  0  0  0  0  0  0  0
   -1.2170    7.8120   -1.9700 C   0  0  0  0  0  0  0  0  0  0  0  0
   -2.6660    8.0620   -2.4320 C   0  0  0  0  0  0  0  0  0  0  0  0
   -3.6030    8.2240   -1.2310 C   0  0  2  0  0  0  0  0  0  0  0  0
   -3.5960    6.8760   -0.4330 C   0  0  0  0  0  0  0  0  0  0  0  0
   -4.6411    6.0723   -3.0029 H   0  0  0  0  0  0  0  0  0  0  0  0
   -6.1679    6.3711   -3.9007 H   0  0  0  0  0  0  0  0  0  0  0  0
   -4.8686    7.6114   -3.9007 H   0  0  0  0  0  0  0  0  0  0  0  0
   -6.0697    6.6906   -1.2879 H   0  0  0  0  0  0  0  0  0  0  0  0
   -7.5310    8.9412   -1.7143 H   0  0  0  0  0  0  0  0  0  0  0  0
   -7.4740    8.2193   -3.3936 H   0  0  0  0  0  0  0  0  0  0  0  0
   -9.4093    7.2897   -2.5488 H   0  0  0  0  0  0  0  0  0  0  0  0
   -8.1633    6.0283   -2.1702 H   0  0  0  0  0  0  0  0  0  0  0  0
   -7.9046    7.5912   -0.2634 H   0  0  0  0  0  0  0  0  0  0  0  0
  -12.3475    7.7299   -0.3588 H   0  0  0  0  0  0  0  0  0  0  0  0
  -11.2285    8.4478   -1.5667 H   0  0  0  0  0  0  0  0  0  0  0  0
  -11.5346    6.6778   -1.5667 H   0  0  0  0  0  0  0  0  0  0  0  0
  -10.1989    7.1287    2.1274 H   0  0  0  0  0  0  0  0  0  0  0  0
   -9.7903    8.7761    1.5395 H   0  0  0  0  0  0  0  0  0  0  0  0
  -11.4985    8.2205    1.5395 H   0  0  0  0  0  0  0  0  0  0  0  0
   -5.1181    9.2730   -2.4058 H   0  0  0  0  0  0  0  0  0  0  0  0
   -6.1757   10.0987   -0.3971 H   0  0  0  0  0  0  0  0  0  0  0  0
   -6.1981    8.4856    0.3471 H   0  0  0  0  0  0  0  0  0  0  0  0
   -4.3898   10.5964    1.0106 H   0  0  0  0  0  0  0  0  0  0  0  0
   -4.1576    8.9135    1.4773 H   0  0  0  0  0  0  0  0  0  0  0  0
   -3.2170   11.6669   -0.4810 H   0  0  0  0  0  0  0  0  0  0  0  0
   -2.2932   10.9133   -1.8247 H   0  0  0  0  0  0  0  0  0  0  0  0
   -4.0885   10.8534   -1.8247 H   0  0  0  0  0  0  0  0  0  0  0  0
   -1.9010    8.3242    0.8233 H   0  0  0  0  0  0  0  0  0  0  0  0
   -2.0549   10.7654    1.6356 H   0  0  0  0  0  0  0  0  0  0  0  0
   -0.5032    9.7929    1.8274 H   0  0  0  0  0  0  0  0  0  0  0  0
   -0.2212   12.2967    1.0611 H   0  0  0  0  0  0  0  0  0  0  0  0
   -0.7329   10.2743   -2.3961 H   0  0  0  0  0  0  0  0  0  0  0  0
    2.0882    9.4730   -1.4507 H   0  0  0  0  0  0  0  0  0  0  0  0
    1.2347    8.8995   -2.9520 H   0  0  0  0  0  0  0  0  0  0  0  0
    2.9296   10.6346   -3.4426 H   0  0  0  0  0  0  0  0  0  0  0  0
    1.2487   11.1516   -3.8577 H   0  0  0  0  0  0  0  0  0  0  0  0
    2.3789   12.9843   -2.7981 H   0  0  0  0  0  0  0  0  0  0  0  0
    2.7860   11.1580   -0.6040 H   0  0  0  0  0  0  0  0  0  0  0  0
   -1.0612   13.6040   -1.9665 H   0  0  0  0  0  0  0  0  0  0  0  0
    0.2944   13.8624   -3.1162 H   0  0  0  0  0  0  0  0  0  0  0  0
   -0.5986   12.3038   -3.1162 H   0  0  0  0  0  0  0  0  0  0  0  0
    0.9979   13.3673    0.5687 H   0  0  0  0  0  0  0  0  0  0  0  0
    2.1233   14.0687   -0.6429 H   0  0  0  0  0  0  0  0  0  0  0  0
    0.3919   14.5468   -0.6429 H   0  0  0  0  0  0  0  0  0  0  0  0
    0.3114    8.1103    0.9656 H   0  0  0  0  0  0  0  0  0  0  0  0
    0.4071    6.9357   -0.3901 H   0  0  0  0  0  0  0  0  0  0  0  0
    1.4551    8.3947   -0.3901 H   0  0  0  0  0  0  0  0  0  0  0  0
   -0.5690    7.8785   -2.8564 H   0  0  0  0  0  0  0  0  0  0  0  0
   -1.2358    6.8246   -1.4855 H   0  0  0  0  0  0  0  0  0  0  0  0
   -2.6972    8.9787   -3.0392 H   0  0  0  0  0  0  0  0  0  0  0  0
   -3.0001    7.1971   -3.0239 H   0  0  0  0  0  0  0  0  0  0  0  0
   -3.5971    7.0888    0.6462 H   0  0  0  0  0  0  0  0  0  0  0  0
   -4.4911    6.2917   -0.6924 H   0  0  0  0  0  0  0  0  0  0  0  0
   -2.6949    6.3010   -0.6924 H   0  0  0  0  0  0  0  0  0  0  0  0
  1  2  1  0
  2  3  1  0
  3  4  1  0
  4  5  1  0
  5  6  1  0
  6  7  1  0
  7  8  1  0
  7  9  1  0
  2 10  1  0
 10 11  1  0
 11 12  1  0
 12 13  1  0
 13 14  1  6
 13 15  1  0
 15 16  1  0
 16 17  1  0
 17 18  2  0
 18 19  1  0
 19 20  1  0
 20 21  1  0
 21 22  1  0
 22 23  1  0
 22 24  1  0
 24 25  1  0
 24 26  1  0
 19 27  1  0
 27 28  1  1
 27 29  1  0
 29 30  1  0
 30 31  1  0
 31 32  1  1
  7  5  1  0
 31 10  1  0
 31 13  1  0
 27 15  1  0
 24 18  1  0
  1 33  1  0
  1 34  1  0
  1 35  1  0
  2 36  1  1
  3 37  1  0
  3 38  1  0
  4 39  1  0
  4 40  1  0
  5 41  1  1
  8 42  1  0
  8 43  1  0
  8 44  1  0
  9 45  1  0
  9 46  1  0
  9 47  1  0
 10 48  1  6
 11 49  1  0
 11 50  1  0
 12 51  1  0
 12 52  1  0
 14 53  1  0
 14 54  1  0
 14 55  1  0
 15 56  1  1
 16 57  1  0
 16 58  1  0
 17 59  1  0
 19 60  1  6
 20 61  1  0
 20 62  1  0
 21 63  1  0
 21 64  1  0
 22 65  1  6
 23 66  1  0
 25 67  1  0
 25 68  1  0
 25 69  1  0
 26 70  1  0
 26 71  1  0
 26 72  1  0
 28 73  1  0
 28 74  1  0
 28 75  1  0
 29 76  1  0
 29 77  1  0
 30 78  1  0
 30 79  1  0
 32 80  1  0
 32 81  1  0
 32 82  1  0
M  END
>  <meeko>  (7) 
{"is_sidechain": [false], "intermolecular_energy": 2.731, "internal_energy": -0.839}

$$$$
EPH_relaxed_0001_pdb2pqr_Repair_318_r2_0001_out
     RDKit          3D

 82 86  0  0  0  0  0  0  0  0999 V2000
  -12.8020   10.9910   -2.2710 C   0  0  0  0  0  0  0  0  0  0  0  0
  -13.0800    9.7390   -1.4360 C   0  0  2  0  0  0  0  0  0  0  0  0
  -14.0590   10.0180   -0.2790 C   0  0  0  0  0  0  0  0  0  0  0  0
  -15.2850    9.1010   -0.2750 C   0  0  0  0  0  0  0  0  0  0  0  0
  -15.0550    7.8710    0.5500 C   0  0  2  0  0  0  0  0  0  0  0  0
  -13.8230    7.1900    0.2780 O   0  0  0  0  0  0  0  0  0  0  0  0
  -15.0270    6.4680   -0.0300 C   0  0  0  0  0  0  0  0  0  0  0  0
  -15.2330    6.2240   -1.4920 C   0  0  0  0  0  0  0  0  0  0  0  0
  -15.2860    5.3110    0.8840 C   0  0  0  0  0  0  0  0  0  0  0  0
  -11.7720    9.1790   -0.8880 C   0  0  1  0  0  0  0  0  0  0  0  0
  -11.9390    8.5370    0.5150 C   0  0  0  0  0  0  0  0  0  0  0  0
  -10.9670    7.3300    0.5730 C   0  0  0  0  0  0  0  0  0  0  0  0
  -10.0440    7.5130   -0.6540 C   0  0  1  0  0  0  0  0  0  0  0  0
   -8.9750    8.5570   -0.2000 C   0  0  0  0  0  0  0  0  0  0  0  0
   -9.3800    6.2160   -1.2190 C   0  0  2  0  0  0  0  0  0  0  0  0
   -8.4290    5.4940   -0.2490 C   0  0  0  0  0  0  0  0  0  0  0  0
   -7.0000    5.9200   -0.3210 C   0  0  0  0  0  0  0  0  0  0  0  0
   -6.4460    6.6340   -1.3190 C   0  0  0  0  0  0  0  0  0  0  0  0
   -7.2580    7.0040   -2.5670 C   0  0  1  0  0  0  0  0  0  0  0  0
   -6.4180    6.7090   -3.8370 C   0  0  0  0  0  0  0  0  0  0  0  0
   -5.0520    7.3890   -3.8070 C   0  0  0  0  0  0  0  0  0  0  0  0
   -4.2530    6.9510   -2.5830 C   0  0  2  0  0  0  0  0  0  0  0  0
   -3.9330    5.5620   -2.7140 O   0  0  0  0  0  0  0  0  0  0  0  0
   -5.0030    7.1900   -1.2430 C   0  0  0  0  0  0  0  0  0  0  0  0
   -5.0820    8.7100   -0.9550 C   0  0  0  0  0  0  0  0  0  0  0  0
   -4.1480    6.5760   -0.1010 C   0  0  0  0  0  0  0  0  0  0  0  0
   -8.7230    6.3930   -2.6480 C   0  0  1  0  0  0  0  0  0  0  0  0
   -8.6720    4.9750   -3.2940 C   0  0  0  0  0  0  0  0  0  0  0  0
   -9.6000    7.2850   -3.6030 C   0  0  0  0  0  0  0  0  0  0  0  0
  -10.3270    8.4830   -2.9620 C   0  0  0  0  0  0  0  0  0  0  0  0
  -11.0840    8.0540   -1.7020 C   0  0  2  0  0  0  0  0  0  0  0  0
  -12.1810    7.0210   -2.1300 C   0  0  0  0  0  0  0  0  0  0  0  0
  -12.6127   11.8434   -1.6019 H   0  0  0  0  0  0  0  0  0  0  0  0
  -11.9199   10.8201   -2.9056 H   0  0  0  0  0  0  0  0  0  0  0  0
  -13.6735   11.2095   -2.9056 H   0  0  0  0  0  0  0  0  0  0  0  0
  -13.5536    8.9987   -2.0975 H   0  0  0  0  0  0  0  0  0  0  0  0
  -13.5213    9.8829    0.6710 H   0  0  0  0  0  0  0  0  0  0  0  0
  -14.4272   11.0462   -0.4106 H   0  0  0  0  0  0  0  0  0  0  0  0
  -16.1416    9.6530    0.1392 H   0  0  0  0  0  0  0  0  0  0  0  0
  -15.4817    8.7872   -1.3108 H   0  0  0  0  0  0  0  0  0  0  0  0
  -15.6024    8.3081    1.3981 H   0  0  0  0  0  0  0  0  0  0  0  0
  -15.9371    5.3900   -1.6289 H   0  0  0  0  0  0  0  0  0  0  0  0
  -15.6429    7.1307   -1.9609 H   0  0  0  0  0  0  0  0  0  0  0  0
  -14.2704    5.9719   -1.9609 H   0  0  0  0  0  0  0  0  0  0  0  0
  -15.2111    5.6455    1.9292 H   0  0  0  0  0  0  0  0  0  0  0  0
  -16.2950    4.9149    0.6972 H   0  0  0  0  0  0  0  0  0  0  0  0
  -14.5421    4.5225    0.6972 H   0  0  0  0  0  0  0  0  0  0  0  0
  -11.1566   10.0904   -0.9109 H   0  0  0  0  0  0  0  0  0  0  0  0
  -11.6845    9.2664    1.2981 H   0  0  0  0  0  0  0  0  0  0  0  0
  -12.9779    8.2160    0.6814 H   0  0  0  0  0  0  0  0  0  0  0  0
  -10.3824    7.3467    1.5046 H   0  0  0  0  0  0  0  0  0  0  0  0
  -11.4972    6.3663    0.5561 H   0  0  0  0  0  0  0  0  0  0  0  0
   -8.9397    8.5915    0.8989 H   0  0  0  0  0  0  0  0  0  0  0  0
   -7.9886    8.2649   -0.5896 H   0  0  0  0  0  0  0  0  0  0  0  0
   -9.2437    9.5500   -0.5896 H   0  0  0  0  0  0  0  0  0  0  0  0
  -10.2431    5.5458   -1.3455 H   0  0  0  0  0  0  0  0  0  0  0  0
   -8.7865    5.6753    0.7754 H   0  0  0  0  0  0  0  0  0  0  0  0
   -8.4452    4.4334   -0.5402 H   0  0  0  0  0  0  0  0  0  0  0  0
   -6.3443    5.6257    0.5117 H   0  0  0  0  0  0  0  0  0  0  0  0
   -7.4553    8.0836   -2.4924 H   0  0  0  0  0  0  0  0  0  0  0  0
   -6.2690    5.6220   -3.9164 H   0  0  0  0  0  0  0  0  0  0  0  0
   -6.9697    7.1066   -4.7016 H   0  0  0  0  0  0  0  0  0  0  0  0
   -4.4951    7.1188   -4.7163 H   0  0  0  0  0  0  0  0  0  0  0  0
   -5.2021    8.4776   -3.7579 H   0  0  0  0  0  0  0  0  0  0  0  0
   -3.3425    7.5671   -2.5464 H   0  0  0  0  0  0  0  0  0  0  0  0
   -4.7160    5.1130   -3.0740 H   0  0  0  0  0  0  0  0  0  0  0  0
   -5.0907    8.8772    0.1322 H   0  0  0  0  0  0  0  0  0  0  0  0
   -4.2088    9.2127   -1.3963 H   0  0  0  0  0  0  0  0  0  0  0  0
   -6.0026    9.1195   -1.3963 H   0  0  0  0  0  0  0  0  0  0  0  0
   -4.5655    6.8759    0.8715 H   0  0  0  0  0  0  0  0  0  0  0  0
   -4.1603    5.4791   -0.1828 H   0  0  0  0  0  0  0  0  0  0  0  0
   -3.1126    6.9382   -0.1828 H   0  0  0  0  0  0  0  0  0  0  0  0
   -8.6446    4.2121   -2.5021 H   0  0  0  0  0  0  0  0  0  0  0  0
   -9.5653    4.8239   -3.9179 H   0  0  0  0  0  0  0  0  0  0  0  0
   -7.7702    4.8885   -3.9179 H   0  0  0  0  0  0  0  0  0  0  0  0
   -8.9398    7.6787   -4.3898 H   0  0  0  0  0  0  0  0  0  0  0  0
  -10.4004    6.6213   -3.9619 H   0  0  0  0  0  0  0  0  0  0  0  0
   -9.5870    9.2512   -2.6932 H   0  0  0  0  0  0  0  0  0  0  0  0
  -11.0510    8.8830   -3.6872 H   0  0  0  0  0  0  0  0  0  0  0  0
  -12.6441    6.5849   -1.2326 H   0  0  0  0  0  0  0  0  0  0  0  0
  -12.9504    7.5302   -2.7290 H   0  0  0  0  0  0  0  0  0  0  0  0
  -11.7189    6.2225   -2.7290 H   0  0  0  0  0  0  0  0  0  0  0  0
  1  2  1  0
  2  3  1  0
  3  4  1  0
  4  5  1  0
  5  6  1  0
  6  7  1  0
  7  8  1  0
  7  9  1  0
  2 10  1  0
 10 11  1  0
 11 12  1  0
 12 13  1  0
 13 14  1  1
 13 15  1  0
 15 16  1  0
 16 17  1  0
 17 18  2  0
 18 19  1  0
 19 20  1  0
 20 21  1  0
 21 22  1  0
 22 23  1  0
 22 24  1  0
 24 25  1  0
 24 26  1  0
 19 27  1  0
 27 28  1  6
 27 29  1  0
 29 30  1  0
 30 31  1  0
 31 32  1  6
  7  5  1  0
 31 10  1  0
 31 13  1  0
 27 15  1  0
 24 18  1  0
  1 33  1  0
  1 34  1  0
  1 35  1  0
  2 36  1  6
  3 37  1  0
  3 38  1  0
  4 39  1  0
  4 40  1  0
  5 41  1  1
  8 42  1  0
  8 43  1  0
  8 44  1  0
  9 45  1  0
  9 46  1  0
  9 47  1  0
 10 48  1  1
 11 49  1  0
 11 50  1  0
 12 51  1  0
 12 52  1  0
 14 53  1  0
 14 54  1  0
 14 55  1  0
 15 56  1  6
 16 57  1  0
 16 58  1  0
 17 59  1  0
 19 60  1  1
 20 61  1  0
 20 62  1  0
 21 63  1  0
 21 64  1  0
 22 65  1  1
 23 66  1  0
 25 67  1  0
 25 68  1  0
 25 69  1  0
 26 70  1  0
 26 71  1  0
 26 72  1  0
 28 73  1  0
 28 74  1  0
 28 75  1  0
 29 76  1  0
 29 77  1  0
 30 78  1  0
 30 79  1  0
 32 80  1  0
 32 81  1  0
 32 82  1  0
M  END
>  <meeko>  (8) 
{"is_sidechain": [false], "intermolecular_energy": 2.731, "internal_energy": -0.839}

$$$$
EPH_relaxed_0001_pdb2pqr_Repair_318_r2_0001_out
     RDKit          3D

 82 86  0  0  0  0  0  0  0  0999 V2000
  -13.5110   10.1430   -0.9770 C   0  0  0  0  0  0  0  0  0  0  0  0
  -13.0190    8.8320   -1.5970 C   0  0  2  0  0  0  0  0  0  0  0  0
  -14.0090    7.6720   -1.3640 C   0  0  0  0  0  0  0  0  0  0  0  0
  -15.2870    7.7780   -2.2000 C   0  0  0  0  0  0  0  0  0  0  0  0
  -15.0640    7.3310   -3.6130 C   0  0  2  0  0  0  0  0  0  0  0  0
  -13.8230    7.7590   -4.1880 O   0  0  0  0  0  0  0  0  0  0  0  0
  -15.0160    8.2830   -4.7940 C   0  0  0  0  0  0  0  0  0  0  0  0
  -15.1930    9.7580   -4.6150 C   0  0  0  0  0  0  0  0  0  0  0  0
  -15.2850    7.7390   -6.1630 C   0  0  0  0  0  0  0  0  0  0  0  0
  -11.6510    8.4700   -1.0300 C   0  0  1  0  0  0  0  0  0  0  0  0
  -11.7440    7.7420    0.3380 C   0  0  0  0  0  0  0  0  0  0  0  0
  -10.5860    6.7120    0.3760 C   0  0  0  0  0  0  0  0  0  0  0  0
   -9.6750    7.1050   -0.8110 C   0  0  1  0  0  0  0  0  0  0  0  0
   -8.8080    8.2880   -0.2760 C   0  0  0  0  0  0  0  0  0  0  0  0
   -8.7890    5.9640   -1.4090 C   0  0  2  0  0  0  0  0  0  0  0  0
   -7.7560    5.3630   -0.4390 C   0  0  0  0  0  0  0  0  0  0  0  0
   -6.4170    6.0230   -0.4450 C   0  0  0  0  0  0  0  0  0  0  0  0
   -5.9650    6.8670   -1.3920 C   0  0  0  0  0  0  0  0  0  0  0  0
   -6.7950    7.1580   -2.6490 C   0  0  1  0  0  0  0  0  0  0  0  0
   -5.8850    7.0680   -3.9020 C   0  0  0  0  0  0  0  0  0  0  0  0
   -4.6530    7.9620   -3.7960 C   0  0  0  0  0  0  0  0  0  0  0  0
   -3.8230    7.6030   -2.5660 C   0  0  2  0  0  0  0  0  0  0  0  0
   -3.2730    6.2950   -2.7470 O   0  0  0  0  0  0  0  0  0  0  0  0
   -4.6370    7.6500   -1.2430 C   0  0  0  0  0  0  0  0  0  0  0  0
   -4.9770    9.1200   -0.8920 C   0  0  0  0  0  0  0  0  0  0  0  0
   -3.7220    7.1310   -0.1010 C   0  0  0  0  0  0  0  0  0  0  0  0
   -8.1340    6.3170   -2.8060 C   0  0  1  0  0  0  0  0  0  0  0  0
   -7.8310    4.9590   -3.5110 C   0  0  0  0  0  0  0  0  0  0  0  0
   -9.1230    7.0960   -3.7510 C   0  0  0  0  0  0  0  0  0  0  0  0
  -10.0560    8.1250   -3.0830 C   0  0  0  0  0  0  0  0  0  0  0  0
  -10.7630    7.5160   -1.8680 C   0  0  2  0  0  0  0  0  0  0  0  0
  -11.6610    6.3370   -2.3780 C   0  0  0  0  0  0  0  0  0  0  0  0
  -13.4813   10.0638    0.1197 H   0  0  0  0  0  0  0  0  0  0  0  0
  -12.8617   10.9690   -1.3027 H   0  0  0  0  0  0  0  0  0  0  0  0
  -14.5434   10.3379   -1.3027 H   0  0  0  0  0  0  0  0  0  0  0  0
  -12.9422    8.9880   -2.6832 H   0  0  0  0  0  0  0  0  0  0  0  0
  -13.5045    6.7282   -1.6185 H   0  0  0  0  0  0  0  0  0  0  0  0
  -14.3112    7.7139   -0.3071 H   0  0  0  0  0  0  0  0  0  0  0  0
  -16.0641    7.1464   -1.7448 H   0  0  0  0  0  0  0  0  0  0  0  0
  -15.5976    8.8331   -2.2192 H   0  0  0  0  0  0  0  0  0  0  0  0
  -15.6303    6.4051   -3.4341 H   0  0  0  0  0  0  0  0  0  0  0  0
  -15.2216    9.9963   -3.5415 H   0  0  0  0  0  0  0  0  0  0  0  0
  -14.3520   10.2880   -5.0860 H   0  0  0  0  0  0  0  0  0  0  0  0
  -16.1355   10.0740   -5.0860 H   0  0  0  0  0  0  0  0  0  0  0  0
  -15.7711    6.7559   -6.0779 H   0  0  0  0  0  0  0  0  0  0  0  0
  -15.9458    8.4288   -6.7084 H   0  0  0  0  0  0  0  0  0  0  0  0
  -14.3356    7.6326   -6.7084 H   0  0  0  0  0  0  0  0  0  0  0  0
  -11.1970    9.4712   -0.9927 H   0  0  0  0  0  0  0  0  0  0  0  0
  -11.6352    8.4649    1.1600 H   0  0  0  0  0  0  0  0  0  0  0  0
  -12.7184    7.2454    0.4557 H   0  0  0  0  0  0  0  0  0  0  0  0
  -10.0365    6.7804    1.3265 H   0  0  0  0  0  0  0  0  0  0  0  0
  -10.9468    5.6757    0.2996 H   0  0  0  0  0  0  0  0  0  0  0  0
   -8.8145    8.2792    0.8239 H   0  0  0  0  0  0  0  0  0  0  0  0
   -7.7749    8.1782   -0.6375 H   0  0  0  0  0  0  0  0  0  0  0  0
   -9.2238    9.2401   -0.6375 H   0  0  0  0  0  0  0  0  0  0  0  0
   -9.5239    5.1666   -1.5934 H   0  0  0  0  0  0  0  0  0  0  0  0
   -8.1651    5.4332    0.5797 H   0  0  0  0  0  0  0  0  0  0  0  0
   -7.5876    4.3294   -0.7755 H   0  0  0  0  0  0  0  0  0  0  0  0
   -5.7425    5.8011    0.3952 H   0  0  0  0  0  0  0  0  0  0  0  0
   -7.1717    8.1850   -2.5337 H   0  0  0  0  0  0  0  0  0  0  0  0
   -5.5549    6.0258   -4.0239 H   0  0  0  0  0  0  0  0  0  0  0  0
   -6.4726    7.4104   -4.7666 H   0  0  0  0  0  0  0  0  0  0  0  0
   -4.0357    7.8327   -4.6972 H   0  0  0  0  0  0  0  0  0  0  0  0
   -4.9842    9.0069   -3.7035 H   0  0  0  0  0  0  0  0  0  0  0  0
   -3.0285    8.3580   -2.4719 H   0  0  0  0  0  0  0  0  0  0  0  0
   -2.4680    6.3860   -3.2850 H   0  0  0  0  0  0  0  0  0  0  0  0
   -5.0045    9.2390    0.2012 H   0  0  0  0  0  0  0  0  0  0  0  0
   -4.2089    9.7848   -1.3140 H   0  0  0  0  0  0  0  0  0  0  0  0
   -5.9590    9.3800   -1.3140 H   0  0  0  0  0  0  0  0  0  0  0  0
   -4.1694    7.3848    0.8713 H   0  0  0  0  0  0  0  0  0  0  0  0
   -3.6173    6.0390   -0.1826 H   0  0  0  0  0  0  0  0  0  0  0  0
   -2.7311    7.6015   -0.1826 H   0  0  0  0  0  0  0  0  0  0  0  0
   -7.6577    4.1823   -2.7516 H   0  0  0  0  0  0  0  0  0  0  0  0
   -8.6874    4.6729   -4.1393 H   0  0  0  0  0  0  0  0  0  0  0  0
   -6.9342    5.0641   -4.1393 H   0  0  0  0  0  0  0  0  0  0  0  0
   -8.5179    7.6309   -4.4979 H   0  0  0  0  0  0  0  0  0  0  0  0
   -9.7917    6.3269   -4.1650 H   0  0  0  0  0  0  0  0  0  0  0  0
   -9.4616    8.9912   -2.7568 H   0  0  0  0  0  0  0  0  0  0  0  0
  -10.8178    8.4342   -3.8138 H   0  0  0  0  0  0  0  0  0  0  0  0
  -12.0756    5.7927   -1.5167 H   0  0  0  0  0  0  0  0  0  0  0  0
  -12.4833    6.7396   -2.9876 H   0  0  0  0  0  0  0  0  0  0  0  0
  -11.0543    5.6512   -2.9876 H   0  0  0  0  0  0  0  0  0  0  0  0
  1  2  1  0
  2  3  1  0
  3  4  1  0
  4  5  1  0
  5  6  1  0
  6  7  1  0
  7  8  1  0
  7  9  1  0
  2 10  1  0
 10 11  1  0
 11 12  1  0
 12 13  1  0
 13 14  1  1
 13 15  1  0
 15 16  1  0
 16 17  1  0
 17 18  2  0
 18 19  1  0
 19 20  1  0
 20 21  1  0
 21 22  1  0
 22 23  1  0
 22 24  1  0
 24 25  1  0
 24 26  1  0
 19 27  1  0
 27 28  1  6
 27 29  1  0
 29 30  1  0
 30 31  1  0
 31 32  1  6
  7  5  1  0
 31 10  1  0
 31 13  1  0
 27 15  1  0
 24 18  1  0
  1 33  1  0
  1 34  1  0
  1 35  1  0
  2 36  1  6
  3 37  1  0
  3 38  1  0
  4 39  1  0
  4 40  1  0
  5 41  1  6
  8 42  1  0
  8 43  1  0
  8 44  1  0
  9 45  1  0
  9 46  1  0
  9 47  1  0
 10 48  1  1
 11 49  1  0
 11 50  1  0
 12 51  1  0
 12 52  1  0
 14 53  1  0
 14 54  1  0
 14 55  1  0
 15 56  1  6
 16 57  1  0
 16 58  1  0
 17 59  1  0
 19 60  1  1
 20 61  1  0
 20 62  1  0
 21 63  1  0
 21 64  1  0
 22 65  1  1
 23 66  1  0
 25 67  1  0
 25 68  1  0
 25 69  1  0
 26 70  1  0
 26 71  1  0
 26 72  1  0
 28 73  1  0
 28 74  1  0
 28 75  1  0
 29 76  1  0
 29 77  1  0
 30 78  1  0
 30 79  1  0
 32 80  1  0
 32 81  1  0
 32 82  1  0
M  END
>  <meeko>  (9) 
{"is_sidechain": [false], "intermolecular_energy": 2.731, "internal_energy": -0.839}

$$$$
EPH_relaxed_0001_pdb2pqr_Repair_318_r2_0001_out
     RDKit          3D

 82 86  0  0  0  0  0  0  0  0999 V2000
    0.3830    8.5940   -2.5680 C   0  0  0  0  0  0  0  0  0  0  0  0
    1.0540    9.7920   -3.2460 C   0  0  2  0  0  0  0  0  0  0  0  0
    2.5700    9.8430   -2.9660 C   0  0  0  0  0  0  0  0  0  0  0  0
    3.3360   10.7850   -3.9000 C   0  0  0  0  0  0  0  0  0  0  0  0
    4.7340   11.0280   -3.4160 C   0  0  2  0  0  0  0  0  0  0  0  0
    5.3730   12.1770   -3.9870 O   0  0  0  0  0  0  0  0  0  0  0  0
    5.9590   10.9040   -4.3020 C   0  0  0  0  0  0  0  0  0  0  0  0
    5.8440   10.5210   -5.7440 C   0  0  0  0  0  0  0  0  0  0  0  0
    7.2900   10.6760   -3.6550 C   0  0  0  0  0  0  0  0  0  0  0  0
    0.3960   11.0870   -2.7840 C   0  0  1  0  0  0  0  0  0  0  0  0
   -1.0820   10.8850   -2.3560 C   0  0  0  0  0  0  0  0  0  0  0  0
   -1.3440   11.8610   -1.1790 C   0  0  0  0  0  0  0  0  0  0  0  0
   -0.1280   12.8160   -1.1860 C   0  0  1  0  0  0  0  0  0  0  0  0
   -0.4500   13.8670   -2.2950 C   0  0  0  0  0  0  0  0  0  0  0  0
    0.2210   13.5010    0.1750 C   0  0  2  0  0  0  0  0  0  0  0  0
   -0.8700   14.4280    0.7370 C   0  0  0  0  0  0  0  0  0  0  0  0
   -0.7730   15.8570    0.3150 C   0  0  0  0  0  0  0  0  0  0  0  0
    0.3050   16.4340   -0.2480 C   0  0  0  0  0  0  0  0  0  0  0  0
    1.6150   15.6550   -0.4230 C   0  0  1  0  0  0  0  0  0  0  0  0
    2.8050   16.5300    0.0500 C   0  0  0  0  0  0  0  0  0  0  0  0
    2.8400   17.8910   -0.6380 C   0  0  0  0  0  0  0  0  0  0  0  0
    1.5440   18.6600   -0.3930 C   0  0  2  0  0  0  0  0  0  0  0  0
    1.4590   18.9890    0.9970 O   0  0  0  0  0  0  0  0  0  0  0  0
    0.2740   17.8720   -0.8220 C   0  0  0  0  0  0  0  0  0  0  0  0
    0.2170   17.7780   -2.3670 C   0  0  0  0  0  0  0  0  0  0  0  0
   -0.9680   18.6980   -0.3910 C   0  0  0  0  0  0  0  0  0  0  0  0
    1.6420   14.1960    0.2060 C   0  0  1  0  0  0  0  0  0  0  0  0
    2.0690   14.2700    1.7040 C   0  0  0  0  0  0  0  0  0  0  0  0
    2.7420   13.3400   -0.5280 C   0  0  0  0  0  0  0  0  0  0  0  0
    2.3050   12.5910   -1.8010 C   0  0  0  0  0  0  0  0  0  0  0  0
    1.0150   11.8020   -1.5570 C   0  0  2  0  0  0  0  0  0  0  0  0
    1.3140   10.7220   -0.4630 C   0  0  0  0  0  0  0  0  0  0  0  0
    0.4467    8.7078   -1.4758 H   0  0  0  0  0  0  0  0  0  0  0  0
   -0.6735    8.5458   -2.8706 H   0  0  0  0  0  0  0  0  0  0  0  0
    0.8938    7.6680   -2.8706 H   0  0  0  0  0  0  0  0  0  0  0  0
    0.9217    9.6745   -4.3317 H   0  0  0  0  0  0  0  0  0  0  0  0
    2.7209   10.1819   -1.9304 H   0  0  0  0  0  0  0  0  0  0  0  0
    2.9633    8.8300   -3.1369 H   0  0  0  0  0  0  0  0  0  0  0  0
    3.3789   10.3356   -4.9031 H   0  0  0  0  0  0  0  0  0  0  0  0
    2.8081   11.7498   -3.9231 H   0  0  0  0  0  0  0  0  0  0  0  0
    4.4914   10.6064   -2.4294 H   0  0  0  0  0  0  0  0  0  0  0  0
    5.5284    9.4700   -5.8202 H   0  0  0  0  0  0  0  0  0  0  0  0
    5.0993   11.1640   -6.2359 H   0  0  0  0  0  0  0  0  0  0  0  0
    6.8197   10.6474   -6.2359 H   0  0  0  0  0  0  0  0  0  0  0  0
    7.1742   10.6958   -2.5613 H   0  0  0  0  0  0  0  0  0  0  0  0
    7.6851    9.6971   -3.9642 H   0  0  0  0  0  0  0  0  0  0  0  0
    7.9884   11.4676   -3.9642 H   0  0  0  0  0  0  0  0  0  0  0  0
    0.5390   11.6988   -3.6869 H   0  0  0  0  0  0  0  0  0  0  0  0
   -1.7544   11.1149   -3.1957 H   0  0  0  0  0  0  0  0  0  0  0  0
   -1.2672    9.8435   -2.0544 H   0  0  0  0  0  0  0  0  0  0  0  0
   -2.2778   12.4201   -1.3387 H   0  0  0  0  0  0  0  0  0  0  0  0
   -1.4565   11.3360   -0.2189 H   0  0  0  0  0  0  0  0  0  0  0  0
   -0.7414   14.8181   -1.8253 H   0  0  0  0  0  0  0  0  0  0  0  0
    0.4410   14.0248   -2.9205 H   0  0  0  0  0  0  0  0  0  0  0  0
   -1.2765   13.4986   -2.9205 H   0  0  0  0  0  0  0  0  0  0  0  0
    0.2699   12.6447    0.8638 H   0  0  0  0  0  0  0  0  0  0  0  0
   -1.8462   14.0421    0.4082 H   0  0  0  0  0  0  0  0  0  0  0  0
   -0.7395   14.4240    1.8292 H   0  0  0  0  0  0  0  0  0  0  0  0
   -1.6567   16.4915    0.4779 H   0  0  0  0  0  0  0  0  0  0  0  0
    1.7071   15.4517   -1.5001 H   0  0  0  0  0  0  0  0  0  0  0  0
    2.7186   16.6857    1.1355 H   0  0  0  0  0  0  0  0  0  0  0  0
    3.7332   16.0003   -0.2104 H   0  0  0  0  0  0  0  0  0  0  0  0
    3.6846   18.4733   -0.2411 H   0  0  0  0  0  0  0  0  0  0  0  0
    2.9558   17.7342   -1.7206 H   0  0  0  0  0  0  0  0  0  0  0  0
    1.5757   19.5669   -1.0147 H   0  0  0  0  0  0  0  0  0  0  0  0
    1.0280   18.2440    1.4500 H   0  0  0  0  0  0  0  0  0  0  0  0
   -0.3329   16.8712   -2.6591 H   0  0  0  0  0  0  0  0  0  0  0  0
   -0.2963   18.6637   -2.7695 H   0  0  0  0  0  0  0  0  0  0  0  0
    1.2397   17.7323   -2.7695 H   0  0  0  0  0  0  0  0  0  0  0  0
   -1.0216   18.7336    0.7071 H   0  0  0  0  0  0  0  0  0  0  0  0
   -0.8838   19.7206   -0.7874 H   0  0  0  0  0  0  0  0  0  0  0  0
   -1.8785   18.2249   -0.7874 H   0  0  0  0  0  0  0  0  0  0  0  0
    1.1878   14.1173    2.3444 H   0  0  0  0  0  0  0  0  0  0  0  0
    2.8136   13.4875    1.9121 H   0  0  0  0  0  0  0  0  0  0  0  0
    2.5068   15.2574    1.9121 H   0  0  0  0  0  0  0  0  0  0  0  0
    3.5612   14.0192   -0.8064 H   0  0  0  0  0  0  0  0  0  0  0  0
    3.0190   12.5524    0.1883 H   0  0  0  0  0  0  0  0  0  0  0  0
    2.1340   13.3201   -2.6067 H   0  0  0  0  0  0  0  0  0  0  0  0
    3.1000   11.8850   -2.0831 H   0  0  0  0  0  0  0  0  0  0  0  0
    1.1907   11.1673    0.5352 H   0  0  0  0  0  0  0  0  0  0  0  0
    0.6151    9.8804   -0.5779 H   0  0  0  0  0  0  0  0  0  0  0  0
    2.3462   10.3597   -0.5779 H   0  0  0  0  0  0  0  0  0  0  0  0
  1  2  1  0
  2  3  1  0
  3  4  1  0
  4  5  1  0
  5  6  1  0
  6  7  1  0
  7  8  1  0
  7  9  1  0
  2 10  1  0
 10 11  1  0
 11 12  1  0
 12 13  1  0
 13 14  1  6
 13 15  1  0
 15 16  1  0
 16 17  1  0
 17 18  2  0
 18 19  1  0
 19 20  1  0
 20 21  1  0
 21 22  1  0
 22 23  1  0
 22 24  1  0
 24 25  1  0
 24 26  1  0
 19 27  1  0
 27 28  1  1
 27 29  1  0
 29 30  1  0
 30 31  1  0
 31 32  1  1
  7  5  1  0
 31 10  1  0
 31 13  1  0
 27 15  1  0
 24 18  1  0
  1 33  1  0
  1 34  1  0
  1 35  1  0
  2 36  1  6
  3 37  1  0
  3 38  1  0
  4 39  1  0
  4 40  1  0
  5 41  1  1
  8 42  1  0
  8 43  1  0
  8 44  1  0
  9 45  1  0
  9 46  1  0
  9 47  1  0
 10 48  1  6
 11 49  1  0
 11 50  1  0
 12 51  1  0
 12 52  1  0
 14 53  1  0
 14 54  1  0
 14 55  1  0
 15 56  1  1
 16 57  1  0
 16 58  1  0
 17 59  1  0
 19 60  1  6
 20 61  1  0
 20 62  1  0
 21 63  1  0
 21 64  1  0
 22 65  1  6
 23 66  1  0
 25 67  1  0
 25 68  1  0
 25 69  1  0
 26 70  1  0
 26 71  1  0
 26 72  1  0
 28 73  1  0
 28 74  1  0
 28 75  1  0
 29 76  1  0
 29 77  1  0
 30 78  1  0
 30 79  1  0
 32 80  1  0
 32 81  1  0
 32 82  1  0
M  END
>  <meeko>  (10) 
{"is_sidechain": [false], "intermolecular_energy": 2.731, "internal_energy": -0.839}

$$$$
EPH_relaxed_0001_pdb2pqr_Repair_318_r2_0001_out
     RDKit          3D

 82 86  0  0  0  0  0  0  0  0999 V2000
   -4.3880    7.6030   -3.9610 C   0  0  0  0  0  0  0  0  0  0  0  0
   -3.8560    7.2310   -2.5740 C   0  0  2  0  0  0  0  0  0  0  0  0
   -4.9280    6.5390   -1.7080 C   0  0  0  0  0  0  0  0  0  0  0  0
   -6.3550    6.7190   -2.2350 C   0  0  0  0  0  0  0  0  0  0  0  0
   -7.3760    6.4710   -1.1660 C   0  0  2  0  0  0  0  0  0  0  0  0
   -8.4400    5.5890   -1.5460 O   0  0  0  0  0  0  0  0  0  0  0  0
   -8.8140    6.9460   -1.2560 C   0  0  0  0  0  0  0  0  0  0  0  0
   -9.3110    7.7070   -2.4450 C   0  0  0  0  0  0  0  0  0  0  0  0
   -9.5990    7.0970    0.0090 C   0  0  0  0  0  0  0  0  0  0  0  0
   -3.3380    8.4760   -1.8650 C   0  0  1  0  0  0  0  0  0  0  0  0
   -4.0880    8.7630   -0.5370 C   0  0  0  0  0  0  0  0  0  0  0  0
   -3.0470    9.3580    0.4450 C   0  0  0  0  0  0  0  0  0  0  0  0
   -1.8260    9.7010   -0.4400 C   0  0  1  0  0  0  0  0  0  0  0  0
   -2.1780   11.0730   -1.0950 C   0  0  0  0  0  0  0  0  0  0  0  0
   -0.4400    9.7450    0.2810 C   0  0  2  0  0  0  0  0  0  0  0  0
   -0.3090   10.8150    1.3790 C   0  0  0  0  0  0  0  0  0  0  0  0
    0.2040   12.1400    0.9200 C   0  0  0  0  0  0  0  0  0  0  0  0
    0.8120   12.3780   -0.2570 C   0  0  0  0  0  0  0  0  0  0  0  0
    1.1260   11.2320   -1.2280 C   0  0  1  0  0  0  0  0  0  0  0  0
    2.5840   11.3710   -1.7390 C   0  0  0  0  0  0  0  0  0  0  0  0
    2.8620   12.7430   -2.3470 C   0  0  0  0  0  0  0  0  0  0  0  0
    2.5950   13.8520   -1.3330 C   0  0  2  0  0  0  0  0  0  0  0  0
    3.5540   13.7530   -0.2760 O   0  0  0  0  0  0  0  0  0  0  0  0
    1.1580   13.8080   -0.7410 C   0  0  0  0  0  0  0  0  0  0  0  0
    0.1340   14.2140   -1.8290 C   0  0  0  0  0  0  0  0  0  0  0  0
    1.0660   14.8900    0.3690 C   0  0  0  0  0  0  0  0  0  0  0  0
    0.8010    9.7680   -0.7000 C   0  0  1  0  0  0  0  0  0  0  0  0
    2.0160    9.2110    0.1030 C   0  0  0  0  0  0  0  0  0  0  0  0
    0.6070    8.8090   -1.9340 C   0  0  0  0  0  0  0  0  0  0  0  0
   -0.8120    8.7180   -2.5270 C   0  0  0  0  0  0  0  0  0  0  0  0
   -1.8510    8.4780   -1.4280 C   0  0  2  0  0  0  0  0  0  0  0  0
   -1.5360    7.0940   -0.7650 C   0  0  0  0  0  0  0  0  0  0  0  0
   -5.2852    8.2303   -3.8535 H   0  0  0  0  0  0  0  0  0  0  0  0
   -3.6158    8.1590   -4.5129 H   0  0  0  0  0  0  0  0  0  0  0  0
   -4.6452    6.6869   -4.5129 H   0  0  0  0  0  0  0  0  0  0  0  0
   -3.0331    6.5149   -2.7160 H   0  0  0  0  0  0  0  0  0  0  0  0
   -4.7041    5.4626   -1.6723 H   0  0  0  0  0  0  0  0  0  0  0  0
   -4.8906    7.0084   -0.7139 H   0  0  0  0  0  0  0  0  0  0  0  0
   -6.4707    7.7478   -2.6067 H   0  0  0  0  0  0  0  0  0  0  0  0
   -6.5177    5.9882   -3.0409 H   0  0  0  0  0  0  0  0  0  0  0  0
   -6.6125    6.5745   -0.3809 H   0  0  0  0  0  0  0  0  0  0  0  0
   -9.8833    8.5833   -2.1065 H   0  0  0  0  0  0  0  0  0  0  0  0
   -8.4555    8.0396   -3.0512 H   0  0  0  0  0  0  0  0  0  0  0  0
   -9.9595    7.0574   -3.0512 H   0  0  0  0  0  0  0  0  0  0  0  0
   -8.9304    6.9684    0.8730 H   0  0  0  0  0  0  0  0  0  0  0  0
  -10.0522    8.0988    0.0420 H   0  0  0  0  0  0  0  0  0  0  0  0
  -10.3915    6.3348    0.0420 H   0  0  0  0  0  0  0  0  0  0  0  0
   -3.4987    9.2207   -2.6585 H   0  0  0  0  0  0  0  0  0  0  0  0
   -4.9012    9.4835   -0.7093 H   0  0  0  0  0  0  0  0  0  0  0  0
   -4.5352    7.8443   -0.1295 H   0  0  0  0  0  0  0  0  0  0  0  0
   -3.4426   10.2634    0.9284 H   0  0  0  0  0  0  0  0  0  0  0  0
   -2.7914    8.6592    1.2552 H   0  0  0  0  0  0  0  0  0  0  0  0
   -2.3689   11.8170   -0.3076 H   0  0  0  0  0  0  0  0  0  0  0  0
   -1.3366   11.4077   -1.7196 H   0  0  0  0  0  0  0  0  0  0  0  0
   -3.0766   10.9613   -1.7196 H   0  0  0  0  0  0  0  0  0  0  0  0
   -0.4155    8.7771    0.8031 H   0  0  0  0  0  0  0  0  0  0  0  0
   -1.3036   10.9706    1.8224 H   0  0  0  0  0  0  0  0  0  0  0  0
    0.4356   10.4305    2.0915 H   0  0  0  0  0  0  0  0  0  0  0  0
    0.0741   12.9938    1.6013 H   0  0  0  0  0  0  0  0  0  0  0  0
    0.4244   11.3436   -2.0678 H   0  0  0  0  0  0  0  0  0  0  0  0
    3.2704   11.2140   -0.8939 H   0  0  0  0  0  0  0  0  0  0  0  0
    2.7348   10.6192   -2.5277 H   0  0  0  0  0  0  0  0  0  0  0  0
    3.9144   12.7901   -2.6636 H   0  0  0  0  0  0  0  0  0  0  0  0
    2.1946   12.8871   -3.2095 H   0  0  0  0  0  0  0  0  0  0  0  0
    2.6869   14.8115   -1.8630 H   0  0  0  0  0  0  0  0  0  0  0  0
    3.0890   13.4300    0.5140 H   0  0  0  0  0  0  0  0  0  0  0  0
   -0.7860   14.5788   -1.3488 H   0  0  0  0  0  0  0  0  0  0  0  0
    0.5613   15.0108   -2.4556 H   0  0  0  0  0  0  0  0  0  0  0  0
   -0.1008   13.3409   -2.4556 H   0  0  0  0  0  0  0  0  0  0  0  0
    1.1071   14.4068    1.3563 H   0  0  0  0  0  0  0  0  0  0  0  0
    1.9078   15.5909    0.2685 H   0  0  0  0  0  0  0  0  0  0  0  0
    0.1180   15.4387    0.2685 H   0  0  0  0  0  0  0  0  0  0  0  0
    1.8162    9.3026    1.1808 H   0  0  0  0  0  0  0  0  0  0  0  0
    2.1702    8.1523   -0.1527 H   0  0  0  0  0  0  0  0  0  0  0  0
    2.9188    9.7852   -0.1527 H   0  0  0  0  0  0  0  0  0  0  0  0
    1.2799    9.1543   -2.7327 H   0  0  0  0  0  0  0  0  0  0  0  0
    0.8243    7.8007   -1.5517 H   0  0  0  0  0  0  0  0  0  0  0  0
   -1.0467    9.6598   -3.0446 H   0  0  0  0  0  0  0  0  0  0  0  0
   -0.8445    7.8733   -3.2308 H   0  0  0  0  0  0  0  0  0  0  0  0
   -1.5597    7.1980    0.3298 H   0  0  0  0  0  0  0  0  0  0  0  0
   -2.2893    6.3568   -1.0796 H   0  0  0  0  0  0  0  0  0  0  0  0
   -0.5378    6.7554   -1.0796 H   0  0  0  0  0  0  0  0  0  0  0  0
  1  2  1  0
  2  3  1  0
  3  4  1  0
  4  5  1  0
  5  6  1  0
  6  7  1  0
  7  8  1  0
  7  9  1  0
  2 10  1  0
 10 11  1  0
 11 12  1  0
 12 13  1  0
 13 14  1  6
 13 15  1  0
 15 16  1  0
 16 17  1  0
 17 18  2  0
 18 19  1  0
 19 20  1  0
 20 21  1  0
 21 22  1  0
 22 23  1  0
 22 24  1  0
 24 25  1  0
 24 26  1  0
 19 27  1  0
 27 28  1  1
 27 29  1  0
 29 30  1  0
 30 31  1  0
 31 32  1  1
  7  5  1  0
 31 10  1  0
 31 13  1  0
 27 15  1  0
 24 18  1  0
  1 33  1  0
  1 34  1  0
  1 35  1  0
  2 36  1  6
  3 37  1  0
  3 38  1  0
  4 39  1  0
  4 40  1  0
  5 41  1  1
  8 42  1  0
  8 43  1  0
  8 44  1  0
  9 45  1  0
  9 46  1  0
  9 47  1  0
 10 48  1  6
 11 49  1  0
 11 50  1  0
 12 51  1  0
 12 52  1  0
 14 53  1  0
 14 54  1  0
 14 55  1  0
 15 56  1  1
 16 57  1  0
 16 58  1  0
 17 59  1  0
 19 60  1  6
 20 61  1  0
 20 62  1  0
 21 63  1  0
 21 64  1  0
 22 65  1  6
 23 66  1  0
 25 67  1  0
 25 68  1  0
 25 69  1  0
 26 70  1  0
 26 71  1  0
 26 72  1  0
 28 73  1  0
 28 74  1  0
 28 75  1  0
 29 76  1  0
 29 77  1  0
 30 78  1  0
 30 79  1  0
 32 80  1  0
 32 81  1  0
 32 82  1  0
M  END
>  <meeko>  (11) 
{"is_sidechain": [false], "intermolecular_energy": 2.731, "internal_energy": -0.839}

$$$$
EPH_relaxed_0001_pdb2pqr_Repair_318_r2_0001_out
     RDKit          3D

 82 86  0  0  0  0  0  0  0  0999 V2000
  -11.4710    8.9190   -2.6490 C   0  0  0  0  0  0  0  0  0  0  0  0
  -11.0810    7.6510   -1.8840 C   0  0  2  0  0  0  0  0  0  0  0  0
  -12.1650    7.2270   -0.8730 C   0  0  0  0  0  0  0  0  0  0  0  0
  -13.5790    7.6600   -1.2680 C   0  0  0  0  0  0  0  0  0  0  0  0
  -13.8580    9.0760   -0.8650 C   0  0  2  0  0  0  0  0  0  0  0  0
  -15.2440    9.3790   -0.6610 O   0  0  0  0  0  0  0  0  0  0  0  0
  -14.5990   10.0660   -1.7450 C   0  0  0  0  0  0  0  0  0  0  0  0
  -15.1060    9.6790   -3.0990 C   0  0  0  0  0  0  0  0  0  0  0  0
  -14.4020   11.5290   -1.4990 C   0  0  0  0  0  0  0  0  0  0  0  0
   -9.7530    7.8650   -1.1660 C   0  0  1  0  0  0  0  0  0  0  0  0
   -9.8450    7.5810    0.3560 C   0  0  0  0  0  0  0  0  0  0  0  0
   -8.4850    6.9680    0.7800 C   0  0  0  0  0  0  0  0  0  0  0  0
   -7.5500    7.2240   -0.4250 C   0  0  1  0  0  0  0  0  0  0  0  0
   -7.0780    8.7030   -0.2590 C   0  0  0  0  0  0  0  0  0  0  0  0
   -6.3400    6.2470   -0.5810 C   0  0  2  0  0  0  0  0  0  0  0  0
   -5.3290    6.2700    0.5790 C   0  0  0  0  0  0  0  0  0  0  0  0
   -4.2040    7.2390    0.4250 C   0  0  0  0  0  0  0  0  0  0  0  0
   -3.8520    7.8530   -0.7200 C   0  0  0  0  0  0  0  0  0  0  0  0
   -4.5540    7.5170   -2.0420 C   0  0  1  0  0  0  0  0  0  0  0  0
   -3.4920    7.3120   -3.1550 C   0  0  0  0  0  0  0  0  0  0  0  0
   -2.5430    8.4990   -3.2830 C   0  0  0  0  0  0  0  0  0  0  0  0
   -1.8200    8.7650   -1.9650 C   0  0  2  0  0  0  0  0  0  0  0  0
   -0.9470    7.6660   -1.6880 O   0  0  0  0  0  0  0  0  0  0  0  0
   -2.7890    8.9780   -0.7680 C   0  0  0  0  0  0  0  0  0  0  0  0
   -3.5220   10.3330   -0.9260 C   0  0  0  0  0  0  0  0  0  0  0  0
   -1.9340    9.0950    0.5230 C   0  0  0  0  0  0  0  0  0  0  0  0
   -5.6130    6.3340   -1.9830 C   0  0  1  0  0  0  0  0  0  0  0  0
   -4.8950    4.9660   -2.1980 C   0  0  0  0  0  0  0  0  0  0  0  0
   -6.6290    6.4940   -3.1750 C   0  0  0  0  0  0  0  0  0  0  0  0
   -7.8660    7.3760   -2.9200 C   0  0  0  0  0  0  0  0  0  0  0  0
   -8.5560    6.9870   -1.6090 C   0  0  2  0  0  0  0  0  0  0  0  0
   -9.0610    5.5110   -1.7550 C   0  0  0  0  0  0  0  0  0  0  0  0
  -11.7167    9.7178   -1.9337 H   0  0  0  0  0  0  0  0  0  0  0  0
  -10.6298    9.2390   -3.2814 H   0  0  0  0  0  0  0  0  0  0  0  0
  -12.3467    8.7110   -3.2814 H   0  0  0  0  0  0  0  0  0  0  0  0
  -10.9793    6.8387   -2.6187 H   0  0  0  0  0  0  0  0  0  0  0  0
  -12.1492    6.1305   -0.7865 H   0  0  0  0  0  0  0  0  0  0  0  0
  -11.9300    7.7269    0.0783 H   0  0  0  0  0  0  0  0  0  0  0  0
  -13.6870    7.5721   -2.3591 H   0  0  0  0  0  0  0  0  0  0  0  0
  -14.2954    7.0078   -0.7471 H   0  0  0  0  0  0  0  0  0  0  0  0
  -12.8984    9.1375   -0.3308 H   0  0  0  0  0  0  0  0  0  0  0  0
  -15.9760    9.0149   -2.9887 H   0  0  0  0  0  0  0  0  0  0  0  0
  -15.4023   10.5827   -3.6517 H   0  0  0  0  0  0  0  0  0  0  0  0
  -14.3124    9.1549   -3.6517 H   0  0  0  0  0  0  0  0  0  0  0  0
  -14.3765   11.7185   -0.4157 H   0  0  0  0  0  0  0  0  0  0  0  0
  -13.4522   11.8521   -1.9502 H   0  0  0  0  0  0  0  0  0  0  0  0
  -15.2325   12.0918   -1.9502 H   0  0  0  0  0  0  0  0  0  0  0  0
   -9.5669    8.9162   -1.4311 H   0  0  0  0  0  0  0  0  0  0  0  0
  -10.0266    8.5164    0.9055 H   0  0  0  0  0  0  0  0  0  0  0  0
  -10.6746    6.8944    0.5801 H   0  0  0  0  0  0  0  0  0  0  0  0
   -8.0998    7.4644    1.6829 H   0  0  0  0  0  0  0  0  0  0  0  0
   -8.5672    5.8987    1.0248 H   0  0  0  0  0  0  0  0  0  0  0  0
   -7.0007    8.9453    0.8112 H   0  0  0  0  0  0  0  0  0  0  0  0
   -6.0948    8.8298   -0.7356 H   0  0  0  0  0  0  0  0  0  0  0  0
   -7.8060    9.3759   -0.7356 H   0  0  0  0  0  0  0  0  0  0  0  0
   -6.8257    5.2612   -0.5345 H   0  0  0  0  0  0  0  0  0  0  0  0
   -5.8739    6.5253    1.4998 H   0  0  0  0  0  0  0  0  0  0  0  0
   -4.8692    5.2710    0.6019 H   0  0  0  0  0  0  0  0  0  0  0  0
   -3.6127    7.4709    1.3231 H   0  0  0  0  0  0  0  0  0  0  0  0
   -5.1828    8.3869   -2.2824 H   0  0  0  0  0  0  0  0  0  0  0  0
   -2.9030    6.4134   -2.9193 H   0  0  0  0  0  0  0  0  0  0  0  0
   -4.0260    7.2066   -4.1109 H   0  0  0  0  0  0  0  0  0  0  0  0
   -1.7993    8.2826   -4.0641 H   0  0  0  0  0  0  0  0  0  0  0  0
   -3.1303    9.3908   -3.5471 H   0  0  0  0  0  0  0  0  0  0  0  0
   -1.2544    9.7012   -2.0815 H   0  0  0  0  0  0  0  0  0  0  0  0
   -0.8760    7.1350   -2.4990 H   0  0  0  0  0  0  0  0  0  0  0  0
   -3.7459   10.7469    0.0683 H   0  0  0  0  0  0  0  0  0  0  0  0
   -2.8804   11.0346   -1.4792 H   0  0  0  0  0  0  0  0  0  0  0  0
   -4.4603   10.1799   -1.4792 H   0  0  0  0  0  0  0  0  0  0  0  0
   -2.5864    9.0057    1.4042 H   0  0  0  0  0  0  0  0  0  0  0  0
   -1.1832    8.2912    0.5397 H   0  0  0  0  0  0  0  0  0  0  0  0
   -1.4268   10.0709    0.5397 H   0  0  0  0  0  0  0  0  0  0  0  0
   -4.6598    4.5179   -1.2213 H   0  0  0  0  0  0  0  0  0  0  0  0
   -5.5547    4.2903   -2.7621 H   0  0  0  0  0  0  0  0  0  0  0  0
   -3.9642    5.1251   -2.7621 H   0  0  0  0  0  0  0  0  0  0  0  0
   -6.0803    6.9279   -4.0239 H   0  0  0  0  0  0  0  0  0  0  0  0
   -7.0273    5.4839   -3.3511 H   0  0  0  0  0  0  0  0  0  0  0  0
   -7.5518    8.4286   -2.8627 H   0  0  0  0  0  0  0  0  0  0  0  0
   -8.5767    7.2308   -3.7469 H   0  0  0  0  0  0  0  0  0  0  0  0
   -9.2105    5.0742   -0.7566 H   0  0  0  0  0  0  0  0  0  0  0  0
  -10.0133    5.5020   -2.3055 H   0  0  0  0  0  0  0  0  0  0  0  0
   -8.3138    4.9206   -2.3055 H   0  0  0  0  0  0  0  0  0  0  0  0
  1  2  1  0
  2  3  1  0
  3  4  1  0
  4  5  1  0
  5  6  1  0
  6  7  1  0
  7  8  1  0
  7  9  1  0
  2 10  1  0
 10 11  1  0
 11 12  1  0
 12 13  1  0
 13 14  1  1
 13 15  1  0
 15 16  1  0
 16 17  1  0
 17 18  2  0
 18 19  1  0
 19 20  1  0
 20 21  1  0
 21 22  1  0
 22 23  1  0
 22 24  1  0
 24 25  1  0
 24 26  1  0
 19 27  1  0
 27 28  1  6
 27 29  1  0
 29 30  1  0
 30 31  1  0
 31 32  1  6
  7  5  1  0
 31 10  1  0
 31 13  1  0
 27 15  1  0
 24 18  1  0
  1 33  1  0
  1 34  1  0
  1 35  1  0
  2 36  1  6
  3 37  1  0
  3 38  1  0
  4 39  1  0
  4 40  1  0
  5 41  1  1
  8 42  1  0
  8 43  1  0
  8 44  1  0
  9 45  1  0
  9 46  1  0
  9 47  1  0
 10 48  1  1
 11 49  1  0
 11 50  1  0
 12 51  1  0
 12 52  1  0
 14 53  1  0
 14 54  1  0
 14 55  1  0
 15 56  1  6
 16 57  1  0
 16 58  1  0
 17 59  1  0
 19 60  1  6
 20 61  1  0
 20 62  1  0
 21 63  1  0
 21 64  1  0
 22 65  1  6
 23 66  1  0
 25 67  1  0
 25 68  1  0
 25 69  1  0
 26 70  1  0
 26 71  1  0
 26 72  1  0
 28 73  1  0
 28 74  1  0
 28 75  1  0
 29 76  1  0
 29 77  1  0
 30 78  1  0
 30 79  1  0
 32 80  1  0
 32 81  1  0
 32 82  1  0
M  END
>  <meeko>  (12) 
{"is_sidechain": [false], "intermolecular_energy": 2.731, "internal_energy": -0.839}

$$$$
EPH_relaxed_0001_pdb2pqr_Repair_318_r2_0001_out
     RDKit          3D

 82 86  0  0  0  0  0  0  0  0999 V2000
   -4.6600    6.3870    1.2420 C   0  0  0  0  0  0  0  0  0  0  0  0
   -4.8910    7.2020   -0.0340 C   0  0  2  0  0  0  0  0  0  0  0  0
   -5.8070    6.4690   -1.0340 C   0  0  0  0  0  0  0  0  0  0  0  0
   -7.0950    7.2290   -1.3600 C   0  0  0  0  0  0  0  0  0  0  0  0
   -8.1470    7.0130   -0.3150 C   0  0  2  0  0  0  0  0  0  0  0  0
   -9.0350    5.9190   -0.5760 O   0  0  0  0  0  0  0  0  0  0  0  0
   -9.6290    7.2270   -0.5610 C   0  0  0  0  0  0  0  0  0  0  0  0
  -10.1410    7.6780   -1.8930 C   0  0  0  0  0  0  0  0  0  0  0  0
  -10.5220    7.4710    0.6150 C   0  0  0  0  0  0  0  0  0  0  0  0
   -3.5560    7.5270   -0.6920 C   0  0  1  0  0  0  0  0  0  0  0  0
   -3.4360    6.9380   -2.1230 C   0  0  0  0  0  0  0  0  0  0  0  0
   -2.6130    7.9540   -2.9570 C   0  0  0  0  0  0  0  0  0  0  0  0
   -2.0090    8.9190   -1.9110 C   0  0  1  0  0  0  0  0  0  0  0  0
   -0.7570    8.1720   -1.3520 C   0  0  0  0  0  0  0  0  0  0  0  0
   -1.6460   10.3520   -2.4210 C   0  0  2  0  0  0  0  0  0  0  0  0
   -0.5660   10.4010   -3.5150 C   0  0  0  0  0  0  0  0  0  0  0  0
    0.8370   10.5270   -3.0220 C   0  0  0  0  0  0  0  0  0  0  0  0
    1.1990   10.8820   -1.7750 C   0  0  0  0  0  0  0  0  0  0  0  0
    0.1470   11.2980   -0.7380 C   0  0  1  0  0  0  0  0  0  0  0  0
    0.6100   12.5930   -0.0210 C   0  0  0  0  0  0  0  0  0  0  0  0
    2.0040   12.4610    0.5830 C   0  0  0  0  0  0  0  0  0  0  0  0
    3.0320   12.1040   -0.4880 C   0  0  2  0  0  0  0  0  0  0  0  0
    3.1600   13.2090   -1.3890 O   0  0  0  0  0  0  0  0  0  0  0  0
    2.6660   10.8200   -1.2840 C   0  0  0  0  0  0  0  0  0  0  0  0
    2.8220    9.5800   -0.3710 C   0  0  0  0  0  0  0  0  0  0  0  0
    3.7070   10.6530   -2.4240 C   0  0  0  0  0  0  0  0  0  0  0  0
   -1.3480   11.3940   -1.2680 C   0  0  1  0  0  0  0  0  0  0  0  0
   -1.6100   12.8090   -1.8690 C   0  0  0  0  0  0  0  0  0  0  0  0
   -2.3360   11.2390   -0.0510 C   0  0  0  0  0  0  0  0  0  0  0  0
   -2.7510    9.8050    0.3280 C   0  0  0  0  0  0  0  0  0  0  0  0
   -3.2130    9.0230   -0.9050 C   0  0  2  0  0  0  0  0  0  0  0  0
   -4.4840    9.7380   -1.4760 C   0  0  0  0  0  0  0  0  0  0  0  0
   -4.8403    7.0232    2.1211 H   0  0  0  0  0  0  0  0  0  0  0  0
   -5.3510    5.5313    1.2607 H   0  0  0  0  0  0  0  0  0  0  0  0
   -3.6228    6.0212    1.2607 H   0  0  0  0  0  0  0  0  0  0  0  0
   -5.3988    8.1336    0.2563 H   0  0  0  0  0  0  0  0  0  0  0  0
   -5.2481    6.3158   -1.9690 H   0  0  0  0  0  0  0  0  0  0  0  0
   -6.1040    5.5207   -0.5623 H   0  0  0  0  0  0  0  0  0  0  0  0
   -6.8688    8.3038   -1.4209 H   0  0  0  0  0  0  0  0  0  0  0  0
   -7.4818    6.8520   -2.3183 H   0  0  0  0  0  0  0  0  0  0  0  0
   -7.4703    7.3749    0.4732 H   0  0  0  0  0  0  0  0  0  0  0  0
  -10.9591    8.3986   -1.7465 H   0  0  0  0  0  0  0  0  0  0  0  0
   -9.3265    8.1574   -2.4558 H   0  0  0  0  0  0  0  0  0  0  0  0
  -10.5138    6.8095   -2.4558 H   0  0  0  0  0  0  0  0  0  0  0  0
   -9.9547    7.3160    1.5446 H   0  0  0  0  0  0  0  0  0  0  0  0
  -10.8971    8.5046    0.5824 H   0  0  0  0  0  0  0  0  0  0  0  0
  -11.3705    6.7718    0.5824 H   0  0  0  0  0  0  0  0  0  0  0  0
   -2.8733    7.0866    0.0496 H   0  0  0  0  0  0  0  0  0  0  0  0
   -2.9194    5.9674   -2.0911 H   0  0  0  0  0  0  0  0  0  0  0  0
   -4.4288    6.7743   -2.5674 H   0  0  0  0  0  0  0  0  0  0  0  0
   -1.8173    7.4418   -3.5178 H   0  0  0  0  0  0  0  0  0  0  0  0
   -3.2296    8.4788   -3.7016 H   0  0  0  0  0  0  0  0  0  0  0  0
   -0.7818    8.1868   -0.2524 H   0  0  0  0  0  0  0  0  0  0  0  0
   -0.7638    7.1302   -1.7049 H   0  0  0  0  0  0  0  0  0  0  0  0
    0.1566    8.6728   -1.7049 H   0  0  0  0  0  0  0  0  0  0  0  0
   -2.5790   10.6723   -2.9078 H   0  0  0  0  0  0  0  0  0  0  0  0
   -0.6371    9.4749   -4.1042 H   0  0  0  0  0  0  0  0  0  0  0  0
   -0.7659   11.3117   -4.0987 H   0  0  0  0  0  0  0  0  0  0  0  0
    1.6436   10.3115   -3.7383 H   0  0  0  0  0  0  0  0  0  0  0  0
    0.0898   10.4717   -0.0141 H   0  0  0  0  0  0  0  0  0  0  0  0
    0.6184   13.4162   -0.7506 H   0  0  0  0  0  0  0  0  0  0  0  0
   -0.0932   12.7884    0.8020 H   0  0  0  0  0  0  0  0  0  0  0  0
    2.2865   13.4168    1.0485 H   0  0  0  0  0  0  0  0  0  0  0  0
    1.9863   11.6574    1.3339 H   0  0  0  0  0  0  0  0  0  0  0  0
    3.9835   11.8953    0.0230 H   0  0  0  0  0  0  0  0  0  0  0  0
    2.4400   13.8320   -1.1940 H   0  0  0  0  0  0  0  0  0  0  0  0
    2.7826    9.8932    0.6827 H   0  0  0  0  0  0  0  0  0  0  0  0
    2.0060    8.8706   -0.5734 H   0  0  0  0  0  0  0  0  0  0  0  0
    3.7883    9.0949   -0.5734 H   0  0  0  0  0  0  0  0  0  0  0  0
    4.7046   10.4930   -1.9890 H   0  0  0  0  0  0  0  0  0  0  0  0
    3.4347    9.7871   -3.0453 H   0  0  0  0  0  0  0  0  0  0  0  0
    3.7192   11.5607   -3.0453 H   0  0  0  0  0  0  0  0  0  0  0  0
   -1.7444   13.5347   -1.0533 H   0  0  0  0  0  0  0  0  0  0  0  0
   -0.7521   13.1087   -2.4888 H   0  0  0  0  0  0  0  0  0  0  0  0
   -2.5184   12.7817   -2.4888 H   0  0  0  0  0  0  0  0  0  0  0  0
   -1.8534   11.6894    0.8289 H   0  0  0  0  0  0  0  0  0  0  0  0
   -3.2656   11.7330   -0.3701 H   0  0  0  0  0  0  0  0  0  0  0  0
   -1.8908    9.2891    0.7796 H   0  0  0  0  0  0  0  0  0  0  0  0
   -3.5863    9.8591    1.0417 H   0  0  0  0  0  0  0  0  0  0  0  0
   -5.1111   10.0908   -0.6440 H   0  0  0  0  0  0  0  0  0  0  0  0
   -4.1764   10.5955   -2.0925 H   0  0  0  0  0  0  0  0  0  0  0  0
   -5.0572    9.0299   -2.0925 H   0  0  0  0  0  0  0  0  0  0  0  0
  1  2  1  0
  2  3  1  0
  3  4  1  0
  4  5  1  0
  5  6  1  0
  6  7  1  0
  7  8  1  0
  7  9  1  0
  2 10  1  0
 10 11  1  0
 11 12  1  0
 12 13  1  0
 13 14  1  1
 13 15  1  0
 15 16  1  0
 16 17  1  0
 17 18  2  0
 18 19  1  0
 19 20  1  0
 20 21  1  0
 21 22  1  0
 22 23  1  0
 22 24  1  0
 24 25  1  0
 24 26  1  0
 19 27  1  0
 27 28  1  6
 27 29  1  0
 29 30  1  0
 30 31  1  0
 31 32  1  6
  7  5  1  0
 31 10  1  0
 31 13  1  0
 27 15  1  0
 24 18  1  0
  1 33  1  0
  1 34  1  0
  1 35  1  0
  2 36  1  1
  3 37  1  0
  3 38  1  0
  4 39  1  0
  4 40  1  0
  5 41  1  1
  8 42  1  0
  8 43  1  0
  8 44  1  0
  9 45  1  0
  9 46  1  0
  9 47  1  0
 10 48  1  1
 11 49  1  0
 11 50  1  0
 12 51  1  0
 12 52  1  0
 14 53  1  0
 14 54  1  0
 14 55  1  0
 15 56  1  6
 16 57  1  0
 16 58  1  0
 17 59  1  0
 19 60  1  1
 20 61  1  0
 20 62  1  0
 21 63  1  0
 21 64  1  0
 22 65  1  1
 23 66  1  0
 25 67  1  0
 25 68  1  0
 25 69  1  0
 26 70  1  0
 26 71  1  0
 26 72  1  0
 28 73  1  0
 28 74  1  0
 28 75  1  0
 29 76  1  0
 29 77  1  0
 30 78  1  0
 30 79  1  0
 32 80  1  0
 32 81  1  0
 32 82  1  0
M  END
>  <meeko>  (13) 
{"is_sidechain": [false], "intermolecular_energy": 2.731, "internal_energy": -0.839}

$$$$
EPH_relaxed_0001_pdb2pqr_Repair_318_r2_0001_out
     RDKit          3D

 82 86  0  0  0  0  0  0  0  0999 V2000
  -10.4110    6.6590   -3.6520 C   0  0  0  0  0  0  0  0  0  0  0  0
  -10.7780    7.1460   -2.2470 C   0  0  2  0  0  0  0  0  0  0  0  0
  -11.7440    8.3470   -2.2820 C   0  0  0  0  0  0  0  0  0  0  0  0
  -13.1990    7.9750   -1.9820 C   0  0  0  0  0  0  0  0  0  0  0  0
  -13.5960    8.3690   -0.5910 C   0  0  2  0  0  0  0  0  0  0  0  0
  -13.1760    7.4570    0.4320 O   0  0  0  0  0  0  0  0  0  0  0  0
  -14.5940    7.5920    0.2460 C   0  0  0  0  0  0  0  0  0  0  0  0
  -15.2590    6.3580   -0.2790 C   0  0  0  0  0  0  0  0  0  0  0  0
  -15.2870    8.2960    1.3710 C   0  0  0  0  0  0  0  0  0  0  0  0
   -9.5140    7.5170   -1.4790 C   0  0  1  0  0  0  0  0  0  0  0  0
   -9.6830    7.3700    0.0560 C   0  0  0  0  0  0  0  0  0  0  0  0
   -8.3170    6.8950    0.6130 C   0  0  0  0  0  0  0  0  0  0  0  0
   -7.3250    7.1020   -0.5560 C   0  0  1  0  0  0  0  0  0  0  0  0
   -6.9600    8.6190   -0.5080 C   0  0  0  0  0  0  0  0  0  0  0  0
   -6.0480    6.2000   -0.5470 C   0  0  2  0  0  0  0  0  0  0  0  0
   -5.1160    6.4010    0.6600 C   0  0  0  0  0  0  0  0  0  0  0  0
   -4.0470    7.4270    0.4770 C   0  0  0  0  0  0  0  0  0  0  0  0
   -3.6630    7.9540   -0.7010 C   0  0  0  0  0  0  0  0  0  0  0  0
   -4.2580    7.4490   -2.0220 C   0  0  1  0  0  0  0  0  0  0  0  0
   -3.1180    7.2150   -3.0470 C   0  0  0  0  0  0  0  0  0  0  0  0
   -2.2390    8.4470   -3.2370 C   0  0  0  0  0  0  0  0  0  0  0  0
   -1.6190    8.8850   -1.9120 C   0  0  2  0  0  0  0  0  0  0  0  0
   -0.6970    7.8790   -1.4800 O   0  0  0  0  0  0  0  0  0  0  0  0
   -2.6720    9.1410   -0.7980 C   0  0  0  0  0  0  0  0  0  0  0  0
   -3.4790   10.4210   -1.1280 C   0  0  0  0  0  0  0  0  0  0  0  0
   -1.9090    9.4360    0.5220 C   0  0  0  0  0  0  0  0  0  0  0  0
   -5.2410    6.2060   -1.9080 C   0  0  1  0  0  0  0  0  0  0  0  0
   -4.4270    4.8770   -1.9480 C   0  0  0  0  0  0  0  0  0  0  0  0
   -6.1890    6.1840   -3.1660 C   0  0  0  0  0  0  0  0  0  0  0  0
   -7.4930    6.9990   -3.0680 C   0  0  0  0  0  0  0  0  0  0  0  0
   -8.2380    6.6860   -1.7660 C   0  0  2  0  0  0  0  0  0  0  0  0
   -8.6380    5.1720   -1.7960 C   0  0  0  0  0  0  0  0  0  0  0  0
   -9.7506    5.7826   -3.5754 H   0  0  0  0  0  0  0  0  0  0  0  0
  -11.3267    6.3818   -4.1948 H   0  0  0  0  0  0  0  0  0  0  0  0
   -9.8921    7.4628   -4.1948 H   0  0  0  0  0  0  0  0  0  0  0  0
  -11.2957    6.3209   -1.7359 H   0  0  0  0  0  0  0  0  0  0  0  0
  -11.4120    9.0818   -1.5338 H   0  0  0  0  0  0  0  0  0  0  0  0
  -11.7194    8.7499   -3.3052 H   0  0  0  0  0  0  0  0  0  0  0  0
  -13.8541    8.4908   -2.6994 H   0  0  0  0  0  0  0  0  0  0  0  0
  -13.2995    6.8832   -2.0713 H   0  0  0  0  0  0  0  0  0  0  0  0
  -13.5202    9.4363   -0.8464 H   0  0  0  0  0  0  0  0  0  0  0  0
  -15.5945    5.7355    0.5636 H   0  0  0  0  0  0  0  0  0  0  0  0
  -16.1263    6.6419   -0.8932 H   0  0  0  0  0  0  0  0  0  0  0  0
  -14.5450    5.7897   -0.8932 H   0  0  0  0  0  0  0  0  0  0  0  0
  -14.9100    7.9130    2.3308 H   0  0  0  0  0  0  0  0  0  0  0  0
  -15.0900    9.3762    1.3044 H   0  0  0  0  0  0  0  0  0  0  0  0
  -16.3701    8.1160    1.3044 H   0  0  0  0  0  0  0  0  0  0  0  0
   -9.3789    8.5493   -1.8340 H   0  0  0  0  0  0  0  0  0  0  0  0
   -9.9578    8.3376    0.5012 H   0  0  0  0  0  0  0  0  0  0  0  0
  -10.4797    6.6514    0.2985 H   0  0  0  0  0  0  0  0  0  0  0  0
   -8.0219    7.4984    1.4841 H   0  0  0  0  0  0  0  0  0  0  0  0
   -8.3467    5.8498    0.9545 H   0  0  0  0  0  0  0  0  0  0  0  0
   -6.8817    8.9443    0.5399 H   0  0  0  0  0  0  0  0  0  0  0  0
   -5.9973    8.7807   -1.0150 H   0  0  0  0  0  0  0  0  0  0  0  0
   -7.7438    9.2009   -1.0150 H   0  0  0  0  0  0  0  0  0  0  0  0
   -6.4721    5.1916   -0.4319 H   0  0  0  0  0  0  0  0  0  0  0  0
   -5.7330    6.7027    1.5192 H   0  0  0  0  0  0  0  0  0  0  0  0
   -4.5960    5.4427    0.8055 H   0  0  0  0  0  0  0  0  0  0  0  0
   -3.5297    7.7822    1.3804 H   0  0  0  0  0  0  0  0  0  0  0  0
   -4.9242    8.2472   -2.3811 H   0  0  0  0  0  0  0  0  0  0  0  0
   -2.4895    6.3850   -2.6918 H   0  0  0  0  0  0  0  0  0  0  0  0
   -3.5835    6.9847   -4.0167 H   0  0  0  0  0  0  0  0  0  0  0  0
   -1.4352    8.2093   -3.9494 H   0  0  0  0  0  0  0  0  0  0  0  0
   -2.8630    9.2676   -3.6208 H   0  0  0  0  0  0  0  0  0  0  0  0
   -1.1085    9.8434   -2.0873 H   0  0  0  0  0  0  0  0  0  0  0  0
   -0.2940    7.4890   -2.2750 H   0  0  0  0  0  0  0  0  0  0  0  0
   -3.7879   10.9110   -0.1929 H   0  0  0  0  0  0  0  0  0  0  0  0
   -2.8514   11.1096   -1.7128 H   0  0  0  0  0  0  0  0  0  0  0  0
   -4.3709   10.1516   -1.7128 H   0  0  0  0  0  0  0  0  0  0  0  0
   -2.5511    9.1878    1.3800 H   0  0  0  0  0  0  0  0  0  0  0  0
   -0.9938    8.8269    0.5605 H   0  0  0  0  0  0  0  0  0  0  0  0
   -1.6416   10.5023    0.5605 H   0  0  0  0  0  0  0  0  0  0  0  0
   -4.2217    4.5417   -0.9207 H   0  0  0  0  0  0  0  0  0  0  0  0
   -5.0084    4.1067   -2.4758 H   0  0  0  0  0  0  0  0  0  0  0  0
   -3.4766    5.0449   -2.4758 H   0  0  0  0  0  0  0  0  0  0  0  0
   -5.6166    6.5735   -4.0208 H   0  0  0  0  0  0  0  0  0  0  0  0
   -6.5110    5.1369   -3.2653 H   0  0  0  0  0  0  0  0  0  0  0  0
   -7.2501    8.0715   -3.0948 H   0  0  0  0  0  0  0  0  0  0  0  0
   -8.1398    6.7298   -3.9160 H   0  0  0  0  0  0  0  0  0  0  0  0
   -8.7367    4.7984   -0.7661 H   0  0  0  0  0  0  0  0  0  0  0  0
   -9.5975    5.0566   -2.3215 H   0  0  0  0  0  0  0  0  0  0  0  0
   -7.8608    4.5977   -2.3215 H   0  0  0  0  0  0  0  0  0  0  0  0
  1  2  1  0
  2  3  1  0
  3  4  1  0
  4  5  1  0
  5  6  1  0
  6  7  1  0
  7  8  1  0
  7  9  1  0
  2 10  1  0
 10 11  1  0
 11 12  1  0
 12 13  1  0
 13 14  1  6
 13 15  1  0
 15 16  1  0
 16 17  1  0
 17 18  2  0
 18 19  1  0
 19 20  1  0
 20 21  1  0
 21 22  1  0
 22 23  1  0
 22 24  1  0
 24 25  1  0
 24 26  1  0
 19 27  1  0
 27 28  1  1
 27 29  1  0
 29 30  1  0
 30 31  1  0
 31 32  1  1
  7  5  1  0
 31 10  1  0
 31 13  1  0
 27 15  1  0
 24 18  1  0
  1 33  1  0
  1 34  1  0
  1 35  1  0
  2 36  1  1
  3 37  1  0
  3 38  1  0
  4 39  1  0
  4 40  1  0
  5 41  1  1
  8 42  1  0
  8 43  1  0
  8 44  1  0
  9 45  1  0
  9 46  1  0
  9 47  1  0
 10 48  1  1
 11 49  1  0
 11 50  1  0
 12 51  1  0
 12 52  1  0
 14 53  1  0
 14 54  1  0
 14 55  1  0
 15 56  1  1
 16 57  1  0
 16 58  1  0
 17 59  1  0
 19 60  1  6
 20 61  1  0
 20 62  1  0
 21 63  1  0
 21 64  1  0
 22 65  1  6
 23 66  1  0
 25 67  1  0
 25 68  1  0
 25 69  1  0
 26 70  1  0
 26 71  1  0
 26 72  1  0
 28 73  1  0
 28 74  1  0
 28 75  1  0
 29 76  1  0
 29 77  1  0
 30 78  1  0
 30 79  1  0
 32 80  1  0
 32 81  1  0
 32 82  1  0
M  END
>  <meeko>  (14) 
{"is_sidechain": [false], "intermolecular_energy": 2.731, "internal_energy": -0.839}

$$$$
EPH_relaxed_0001_pdb2pqr_Repair_318_r2_0001_out
     RDKit          3D

 82 86  0  0  0  0  0  0  0  0999 V2000
   -4.4420    6.5160    1.3780 C   0  0  0  0  0  0  0  0  0  0  0  0
   -4.6930    7.4500    0.1900 C   0  0  2  0  0  0  0  0  0  0  0  0
   -5.7290    6.8730   -0.7940 C   0  0  0  0  0  0  0  0  0  0  0  0
   -6.7010    7.9180   -1.3470 C   0  0  0  0  0  0  0  0  0  0  0  0
   -7.4760    7.3910   -2.5170 C   0  0  2  0  0  0  0  0  0  0  0  0
   -8.6370    8.1580   -2.8610 O   0  0  0  0  0  0  0  0  0  0  0  0
   -8.8760    6.8170   -2.4040 C   0  0  0  0  0  0  0  0  0  0  0  0
   -9.5830    6.7400   -1.0870 C   0  0  0  0  0  0  0  0  0  0  0  0
   -9.3580    5.8910   -3.4760 C   0  0  0  0  0  0  0  0  0  0  0  0
   -3.3820    7.7290   -0.5370 C   0  0  1  0  0  0  0  0  0  0  0  0
   -3.3320    7.0820   -1.9470 C   0  0  0  0  0  0  0  0  0  0  0  0
   -2.5330    8.0520   -2.8550 C   0  0  0  0  0  0  0  0  0  0  0  0
   -1.8720    9.0490   -1.8760 C   0  0  1  0  0  0  0  0  0  0  0  0
   -0.6070    8.3070   -1.3410 C   0  0  0  0  0  0  0  0  0  0  0  0
   -1.5130   10.4550   -2.4580 C   0  0  2  0  0  0  0  0  0  0  0  0
   -0.4810   10.4450   -3.5990 C   0  0  0  0  0  0  0  0  0  0  0  0
    0.9440   10.5700   -3.1710 C   0  0  0  0  0  0  0  0  0  0  0  0
    1.3630   10.9690   -1.9560 C   0  0  0  0  0  0  0  0  0  0  0  0
    0.3620   11.4410   -0.8930 C   0  0  1  0  0  0  0  0  0  0  0  0
    0.8720   12.7570   -0.2490 C   0  0  0  0  0  0  0  0  0  0  0  0
    2.2900   12.6290    0.3000 C   0  0  0  0  0  0  0  0  0  0  0  0
    3.2650   12.2150   -0.7990 C   0  0  2  0  0  0  0  0  0  0  0  0
    3.3690   13.2810   -1.7480 O   0  0  0  0  0  0  0  0  0  0  0  0
    2.8500   10.9060   -1.5260 C   0  0  0  0  0  0  0  0  0  0  0  0
    3.0280    9.7000   -0.5700 C   0  0  0  0  0  0  0  0  0  0  0  0
    3.8380   10.6780   -2.7010 C   0  0  0  0  0  0  0  0  0  0  0  0
   -1.1530   11.5380   -1.3620 C   0  0  1  0  0  0  0  0  0  0  0  0
   -1.4220   12.9320   -2.0080 C   0  0  0  0  0  0  0  0  0  0  0  0
   -2.0890   11.4460   -0.0990 C   0  0  0  0  0  0  0  0  0  0  0  0
   -2.5050   10.0340    0.3550 C   0  0  0  0  0  0  0  0  0  0  0  0
   -3.0300    9.2100   -0.8250 C   0  0  2  0  0  0  0  0  0  0  0  0
   -4.3160    9.9200   -1.3700 C   0  0  0  0  0  0  0  0  0  0  0  0
   -4.5907    7.0692    2.3171 H   0  0  0  0  0  0  0  0  0  0  0  0
   -5.1449    5.6710    1.3350 H   0  0  0  0  0  0  0  0  0  0  0  0
   -3.4102    6.1372    1.3350 H   0  0  0  0  0  0  0  0  0  0  0  0
   -5.1048    8.3890    0.5883 H   0  0  0  0  0  0  0  0  0  0  0  0
   -5.1903    6.4186   -1.6385 H   0  0  0  0  0  0  0  0  0  0  0  0
   -6.3291    6.1396   -0.2355 H   0  0  0  0  0  0  0  0  0  0  0  0
   -7.4059    8.2047   -0.5527 H   0  0  0  0  0  0  0  0  0  0  0  0
   -6.1153    8.7850   -1.6865 H   0  0  0  0  0  0  0  0  0  0  0  0
   -6.5564    7.0064   -2.9822 H   0  0  0  0  0  0  0  0  0  0  0  0
   -8.8490    6.8199   -0.2716 H   0  0  0  0  0  0  0  0  0  0  0  0
  -10.3070    7.5646   -1.0108 H   0  0  0  0  0  0  0  0  0  0  0  0
  -10.1125    5.7789   -1.0108 H   0  0  0  0  0  0  0  0  0  0  0  0
   -9.8192    5.0050   -3.0151 H   0  0  0  0  0  0  0  0  0  0  0  0
  -10.1013    6.4083   -4.1005 H   0  0  0  0  0  0  0  0  0  0  0  0
   -8.5079    5.5789   -4.1005 H   0  0  0  0  0  0  0  0  0  0  0  0
   -2.6734    7.3087    0.1919 H   0  0  0  0  0  0  0  0  0  0  0  0
   -2.8271    6.1059   -1.8984 H   0  0  0  0  0  0  0  0  0  0  0  0
   -4.3451    6.9152   -2.3416 H   0  0  0  0  0  0  0  0  0  0  0  0
   -1.7689    7.5064   -3.4282 H   0  0  0  0  0  0  0  0  0  0  0  0
   -3.1746    8.5559   -3.5929 H   0  0  0  0  0  0  0  0  0  0  0  0
   -0.6165    8.3125   -0.2411 H   0  0  0  0  0  0  0  0  0  0  0  0
   -0.6110    7.2681   -1.7025 H   0  0  0  0  0  0  0  0  0  0  0  0
    0.2978    8.8175   -1.7025 H   0  0  0  0  0  0  0  0  0  0  0  0
   -2.4621   10.7692   -2.9168 H   0  0  0  0  0  0  0  0  0  0  0  0
   -0.5894    9.4975   -4.1471 H   0  0  0  0  0  0  0  0  0  0  0  0
   -0.6944   11.3343   -4.2102 H   0  0  0  0  0  0  0  0  0  0  0  0
    1.7165   10.3144   -3.9113 H   0  0  0  0  0  0  0  0  0  0  0  0
    0.3255   10.6447   -0.1350 H   0  0  0  0  0  0  0  0  0  0  0  0
    0.8592   13.5504   -1.0108 H   0  0  0  0  0  0  0  0  0  0  0  0
    0.2076   12.9950    0.5948 H   0  0  0  0  0  0  0  0  0  0  0  0
    2.6046   13.5983    0.7140 H   0  0  0  0  0  0  0  0  0  0  0  0
    2.2950   11.8565    1.0831 H   0  0  0  0  0  0  0  0  0  0  0  0
    4.2347   12.0128   -0.3206 H   0  0  0  0  0  0  0  0  0  0  0  0
    4.1070   13.8500   -1.4710 H   0  0  0  0  0  0  0  0  0  0  0  0
    2.9767   10.0477    0.4723 H   0  0  0  0  0  0  0  0  0  0  0  0
    2.2283    8.9669   -0.7518 H   0  0  0  0  0  0  0  0  0  0  0  0
    4.0054    9.2291   -0.7518 H   0  0  0  0  0  0  0  0  0  0  0  0
    4.8365   10.4476   -2.3010 H   0  0  0  0  0  0  0  0  0  0  0  0
    3.4869    9.8373   -3.3174 H   0  0  0  0  0  0  0  0  0  0  0  0
    3.8908   11.5876   -3.3174 H   0  0  0  0  0  0  0  0  0  0  0  0
   -1.5666   13.6814   -1.2159 H   0  0  0  0  0  0  0  0  0  0  0  0
   -0.5627   13.2190   -2.6318 H   0  0  0  0  0  0  0  0  0  0  0  0
   -2.3264   12.8787   -2.6318 H   0  0  0  0  0  0  0  0  0  0  0  0
   -1.5632   11.9242    0.7406 H   0  0  0  0  0  0  0  0  0  0  0  0
   -3.0253   11.9402   -0.3976 H   0  0  0  0  0  0  0  0  0  0  0  0
   -1.6325    9.5243    0.7897 H   0  0  0  0  0  0  0  0  0  0  0  0
   -3.3077   10.1282    1.1012 H   0  0  0  0  0  0  0  0  0  0  0  0
   -4.9328   10.2605   -0.5252 H   0  0  0  0  0  0  0  0  0  0  0  0
   -4.0249   10.7852   -1.9837 H   0  0  0  0  0  0  0  0  0  0  0  0
   -4.8931    9.2127   -1.9837 H   0  0  0  0  0  0  0  0  0  0  0  0
  1  2  1  0
  2  3  1  0
  3  4  1  0
  4  5  1  0
  5  6  1  0
  6  7  1  0
  7  8  1  0
  7  9  1  0
  2 10  1  0
 10 11  1  0
 11 12  1  0
 12 13  1  0
 13 14  1  1
 13 15  1  0
 15 16  1  0
 16 17  1  0
 17 18  2  0
 18 19  1  0
 19 20  1  0
 20 21  1  0
 21 22  1  0
 22 23  1  0
 22 24  1  0
 24 25  1  0
 24 26  1  0
 19 27  1  0
 27 28  1  6
 27 29  1  0
 29 30  1  0
 30 31  1  0
 31 32  1  6
  7  5  1  0
 31 10  1  0
 31 13  1  0
 27 15  1  0
 24 18  1  0
  1 33  1  0
  1 34  1  0
  1 35  1  0
  2 36  1  1
  3 37  1  0
  3 38  1  0
  4 39  1  0
  4 40  1  0
  5 41  1  6
  8 42  1  0
  8 43  1  0
  8 44  1  0
  9 45  1  0
  9 46  1  0
  9 47  1  0
 10 48  1  1
 11 49  1  0
 11 50  1  0
 12 51  1  0
 12 52  1  0
 14 53  1  0
 14 54  1  0
 14 55  1  0
 15 56  1  6
 16 57  1  0
 16 58  1  0
 17 59  1  0
 19 60  1  1
 20 61  1  0
 20 62  1  0
 21 63  1  0
 21 64  1  0
 22 65  1  1
 23 66  1  0
 25 67  1  0
 25 68  1  0
 25 69  1  0
 26 70  1  0
 26 71  1  0
 26 72  1  0
 28 73  1  0
 28 74  1  0
 28 75  1  0
 29 76  1  0
 29 77  1  0
 30 78  1  0
 30 79  1  0
 32 80  1  0
 32 81  1  0
 32 82  1  0
M  END
>  <meeko>  (15) 
{"is_sidechain": [false], "intermolecular_energy": 2.731, "internal_energy": -0.839}

$$$$
EPH_relaxed_0001_pdb2pqr_Repair_318_r2_0001_out
     RDKit          3D

 82 86  0  0  0  0  0  0  0  0999 V2000
   -0.9900   12.1460   -1.7360 C   0  0  0  0  0  0  0  0  0  0  0  0
   -0.6760   10.6820   -1.4190 C   0  0  2  0  0  0  0  0  0  0  0  0
    0.7350   10.2750   -1.8870 C   0  0  0  0  0  0  0  0  0  0  0  0
    1.3620   11.2590   -2.8790 C   0  0  0  0  0  0  0  0  0  0  0  0
    2.8590   11.1910   -2.8570 C   0  0  2  0  0  0  0  0  0  0  0  0
    3.5170   12.4630   -2.9020 O   0  0  0  0  0  0  0  0  0  0  0  0
    3.7320   11.5990   -4.0290 C   0  0  0  0  0  0  0  0  0  0  0  0
    3.1380   12.1050   -5.3060 C   0  0  0  0  0  0  0  0  0  0  0  0
    5.1220   11.0490   -4.1110 C   0  0  0  0  0  0  0  0  0  0  0  0
   -1.7200    9.7760   -2.0620 C   0  0  1  0  0  0  0  0  0  0  0  0
   -1.0980    8.7670   -3.0640 C   0  0  0  0  0  0  0  0  0  0  0  0
   -1.9270    7.4610   -2.9560 C   0  0  0  0  0  0  0  0  0  0  0  0
   -3.1860    7.8640   -2.1530 C   0  0  1  0  0  0  0  0  0  0  0  0
   -4.1350    8.5280   -3.2000 C   0  0  0  0  0  0  0  0  0  0  0  0
   -3.9040    6.7150   -1.3710 C   0  0  2  0  0  0  0  0  0  0  0  0
   -4.4710    5.5850   -2.2470 C   0  0  0  0  0  0  0  0  0  0  0  0
   -5.8800    5.7750   -2.7010 C   0  0  0  0  0  0  0  0  0  0  0  0
   -6.7530    6.6640   -2.1900 C   0  0  0  0  0  0  0  0  0  0  0  0
   -6.3790    7.5290   -0.9800 C   0  0  1  0  0  0  0  0  0  0  0  0
   -7.5400    7.5100    0.0480 C   0  0  0  0  0  0  0  0  0  0  0  0
   -8.8750    7.9170   -0.5690 C   0  0  0  0  0  0  0  0  0  0  0  0
   -9.2400    6.9980   -1.7320 C   0  0  2  0  0  0  0  0  0  0  0  0
   -9.4930    5.6860   -1.2200 O   0  0  0  0  0  0  0  0  0  0  0  0
   -8.1390    6.9280   -2.8270 C   0  0  0  0  0  0  0  0  0  0  0  0
   -8.0760    8.2760   -3.5880 C   0  0  0  0  0  0  0  0  0  0  0  0
   -8.5700    5.8610   -3.8700 C   0  0  0  0  0  0  0  0  0  0  0  0
   -4.9690    7.2180   -0.3150 C   0  0  1  0  0  0  0  0  0  0  0  0
   -5.1190    6.0810    0.7420 C   0  0  0  0  0  0  0  0  0  0  0  0
   -4.4790    8.4920    0.4700 C   0  0  0  0  0  0  0  0  0  0  0  0
   -3.6730    9.5330   -0.3290 C   0  0  0  0  0  0  0  0  0  0  0  0
   -2.5460    8.8630   -1.1220 C   0  0  2  0  0  0  0  0  0  0  0  0
   -1.5640    8.2050   -0.0940 C   0  0  0  0  0  0  0  0  0  0  0  0
   -1.1103   12.7068   -0.7973 H   0  0  0  0  0  0  0  0  0  0  0  0
   -0.1645   12.5801   -2.3192 H   0  0  0  0  0  0  0  0  0  0  0  0
   -1.9209   12.2034   -2.3192 H   0  0  0  0  0  0  0  0  0  0  0  0
   -0.7059   10.5668   -0.3255 H   0  0  0  0  0  0  0  0  0  0  0  0
    1.3879   10.2083   -1.0043 H   0  0  0  0  0  0  0  0  0  0  0  0
    0.6353    9.3118   -2.4089 H   0  0  0  0  0  0  0  0  0  0  0  0
    1.0091   11.0169   -3.8923 H   0  0  0  0  0  0  0  0  0  0  0  0
    1.0609   12.2765   -2.5890 H   0  0  0  0  0  0  0  0  0  0  0  0
    2.8320   10.2821   -2.2381 H   0  0  0  0  0  0  0  0  0  0  0  0
    2.3188   12.8028   -5.0781 H   0  0  0  0  0  0  0  0  0  0  0  0
    3.9117   12.6258   -5.8893 H   0  0  0  0  0  0  0  0  0  0  0  0
    2.7469   11.2583   -5.8893 H   0  0  0  0  0  0  0  0  0  0  0  0
    5.5153   10.8934   -3.0955 H   0  0  0  0  0  0  0  0  0  0  0  0
    5.1056   10.0896   -4.6489 H   0  0  0  0  0  0  0  0  0  0  0  0
    5.7665   11.7599   -4.6489 H   0  0  0  0  0  0  0  0  0  0  0  0
   -2.3721   10.5378   -2.5142 H   0  0  0  0  0  0  0  0  0  0  0  0
   -1.1526    9.1668   -4.0873 H   0  0  0  0  0  0  0  0  0  0  0  0
   -0.0385    8.5827   -2.8327 H   0  0  0  0  0  0  0  0  0  0  0  0
   -2.2046    7.0934   -3.9549 H   0  0  0  0  0  0  0  0  0  0  0  0
   -1.3652    6.6489   -2.4715 H   0  0  0  0  0  0  0  0  0  0  0  0
   -4.9277    9.0826   -2.6765 H   0  0  0  0  0  0  0  0  0  0  0  0
   -3.5581    9.2205   -3.8306 H   0  0  0  0  0  0  0  0  0  0  0  0
   -4.5879    7.7487   -3.8306 H   0  0  0  0  0  0  0  0  0  0  0  0
   -3.0778    6.2646   -0.8014 H   0  0  0  0  0  0  0  0  0  0  0  0
   -3.8353    5.4961   -3.1403 H   0  0  0  0  0  0  0  0  0  0  0  0
   -4.4739    4.6838   -1.6163 H   0  0  0  0  0  0  0  0  0  0  0  0
   -6.2353    5.1350   -3.5221 H   0  0  0  0  0  0  0  0  0  0  0  0
   -6.2395    8.5494   -1.3664 H   0  0  0  0  0  0  0  0  0  0  0  0
   -7.6349    6.4920    0.4538 H   0  0  0  0  0  0  0  0  0  0  0  0
   -7.3002    8.2393    0.8358 H   0  0  0  0  0  0  0  0  0  0  0  0
   -9.6603    7.8556    0.1988 H   0  0  0  0  0  0  0  0  0  0  0  0
   -8.7880    8.9460   -0.9479 H   0  0  0  0  0  0  0  0  0  0  0  0
  -10.1356    7.4163   -2.2146 H   0  0  0  0  0  0  0  0  0  0  0  0
   -9.5360    5.7510   -0.2510 H   0  0  0  0  0  0  0  0  0  0  0  0
   -8.0373    9.1039   -2.8648 H   0  0  0  0  0  0  0  0  0  0  0  0
   -7.1758    8.2987   -4.2198 H   0  0  0  0  0  0  0  0  0  0  0  0
   -8.9701    8.3825   -4.2198 H   0  0  0  0  0  0  0  0  0  0  0  0
   -8.9326    4.9633   -3.3478 H   0  0  0  0  0  0  0  0  0  0  0  0
   -9.3741    6.2684   -4.5005 H   0  0  0  0  0  0  0  0  0  0  0  0
   -7.7086    5.5956   -4.5005 H   0  0  0  0  0  0  0  0  0  0  0  0
   -5.0623    6.5105    1.7531 H   0  0  0  0  0  0  0  0  0  0  0  0
   -6.0907    5.5828    0.6092 H   0  0  0  0  0  0  0  0  0  0  0  0
   -4.3098    5.3478    0.6092 H   0  0  0  0  0  0  0  0  0  0  0  0
   -5.3692    8.9978    0.8722 H   0  0  0  0  0  0  0  0  0  0  0  0
   -3.7820    8.1107    1.2308 H   0  0  0  0  0  0  0  0  0  0  0  0
   -4.3466   10.0503   -1.0280 H   0  0  0  0  0  0  0  0  0  0  0  0
   -3.2273   10.2489    0.3773 H   0  0  0  0  0  0  0  0  0  0  0  0
   -1.8995    8.4298    0.9292 H   0  0  0  0  0  0  0  0  0  0  0  0
   -1.5514    7.1154   -0.2447 H   0  0  0  0  0  0  0  0  0  0  0  0
   -0.5515    8.6077   -0.2447 H   0  0  0  0  0  0  0  0  0  0  0  0
  1  2  1  0
  2  3  1  0
  3  4  1  0
  4  5  1  0
  5  6  1  0
  6  7  1  0
  7  8  1  0
  7  9  1  0
  2 10  1  0
 10 11  1  0
 11 12  1  0
 12 13  1  0
 13 14  1  6
 13 15  1  0
 15 16  1  0
 16 17  1  0
 17 18  2  0
 18 19  1  0
 19 20  1  0
 20 21  1  0
 21 22  1  0
 22 23  1  0
 22 24  1  0
 24 25  1  0
 24 26  1  0
 19 27  1  0
 27 28  1  1
 27 29  1  0
 29 30  1  0
 30 31  1  0
 31 32  1  1
  7  5  1  0
 31 10  1  0
 31 13  1  0
 27 15  1  0
 24 18  1  0
  1 33  1  0
  1 34  1  0
  1 35  1  0
  2 36  1  1
  3 37  1  0
  3 38  1  0
  4 39  1  0
  4 40  1  0
  5 41  1  1
  8 42  1  0
  8 43  1  0
  8 44  1  0
  9 45  1  0
  9 46  1  0
  9 47  1  0
 10 48  1  6
 11 49  1  0
 11 50  1  0
 12 51  1  0
 12 52  1  0
 14 53  1  0
 14 54  1  0
 14 55  1  0
 15 56  1  1
 16 57  1  0
 16 58  1  0
 17 59  1  0
 19 60  1  6
 20 61  1  0
 20 62  1  0
 21 63  1  0
 21 64  1  0
 22 65  1  6
 23 66  1  0
 25 67  1  0
 25 68  1  0
 25 69  1  0
 26 70  1  0
 26 71  1  0
 26 72  1  0
 28 73  1  0
 28 74  1  0
 28 75  1  0
 29 76  1  0
 29 77  1  0
 30 78  1  0
 30 79  1  0
 32 80  1  0
 32 81  1  0
 32 82  1  0
M  END
>  <meeko>  (16) 
{"is_sidechain": [false], "intermolecular_energy": 2.731, "internal_energy": -0.839}

$$$$
EPH_relaxed_0001_pdb2pqr_Repair_318_r2_0001_out
     RDKit          3D

 82 86  0  0  0  0  0  0  0  0999 V2000
   -1.3280   11.9750   -1.7230 C   0  0  0  0  0  0  0  0  0  0  0  0
   -0.8120   10.5330   -1.7440 C   0  0  2  0  0  0  0  0  0  0  0  0
    0.4880   10.3930   -2.5610 C   0  0  0  0  0  0  0  0  0  0  0  0
    1.7210   10.0830   -1.7070 C   0  0  0  0  0  0  0  0  0  0  0  0
    2.2960   11.3230   -1.0930 C   0  0  2  0  0  0  0  0  0  0  0  0
    3.0700   11.1000    0.0930 O   0  0  0  0  0  0  0  0  0  0  0  0
    1.8650   11.8660    0.2570 C   0  0  0  0  0  0  0  0  0  0  0  0
    0.8160   11.1800    1.0750 C   0  0  0  0  0  0  0  0  0  0  0  0
    2.1060   13.3120    0.5570 C   0  0  0  0  0  0  0  0  0  0  0  0
   -1.8830    9.6070   -2.3080 C   0  0  1  0  0  0  0  0  0  0  0  0
   -1.3010    8.5330   -3.2650 C   0  0  0  0  0  0  0  0  0  0  0  0
   -2.1430    7.2480   -3.0610 C   0  0  0  0  0  0  0  0  0  0  0  0
   -3.3760    7.7140   -2.2510 C   0  0  1  0  0  0  0  0  0  0  0  0
   -4.3420    8.3300   -3.3110 C   0  0  0  0  0  0  0  0  0  0  0  0
   -4.0870    6.6230   -1.3870 C   0  0  2  0  0  0  0  0  0  0  0  0
   -4.6910    5.4510   -2.1810 C   0  0  0  0  0  0  0  0  0  0  0  0
   -6.1090    5.6360   -2.6100 C   0  0  0  0  0  0  0  0  0  0  0  0
   -6.9570    6.5640   -2.1300 C   0  0  0  0  0  0  0  0  0  0  0  0
   -6.5410    7.4920   -0.9820 C   0  0  1  0  0  0  0  0  0  0  0  0
   -7.6760    7.5490    0.0750 C   0  0  0  0  0  0  0  0  0  0  0  0
   -9.0210    7.9380   -0.5320 C   0  0  0  0  0  0  0  0  0  0  0  0
   -9.4270    6.9590   -1.6300 C   0  0  2  0  0  0  0  0  0  0  0  0
   -9.6840    5.6820   -1.0370 O   0  0  0  0  0  0  0  0  0  0  0  0
   -8.3560    6.8110   -2.7460 C   0  0  0  0  0  0  0  0  0  0  0  0
   -8.2960    8.1120   -3.5850 C   0  0  0  0  0  0  0  0  0  0  0  0
   -8.8270    5.6920   -3.7140 C   0  0  0  0  0  0  0  0  0  0  0  0
   -5.1190    7.2000   -0.3350 C   0  0  1  0  0  0  0  0  0  0  0  0
   -5.2560    6.1280    0.7890 C   0  0  0  0  0  0  0  0  0  0  0  0
   -4.5930    8.5100    0.3630 C   0  0  0  0  0  0  0  0  0  0  0  0
   -3.7940    9.4920   -0.5160 C   0  0  0  0  0  0  0  0  0  0  0  0
   -2.6970    8.7620   -1.2960 C   0  0  2  0  0  0  0  0  0  0  0  0
   -1.6970    8.1500   -0.2570 C   0  0  0  0  0  0  0  0  0  0  0  0
   -1.4467   12.3068   -0.6810 H   0  0  0  0  0  0  0  0  0  0  0  0
   -0.6083   12.6295   -2.2365 H   0  0  0  0  0  0  0  0  0  0  0  0
   -2.2996   12.0243   -2.2365 H   0  0  0  0  0  0  0  0  0  0  0  0
   -0.5820   10.2485   -0.7066 H   0  0  0  0  0  0  0  0  0  0  0  0
    0.3553    9.5783   -3.2881 H   0  0  0  0  0  0  0  0  0  0  0  0
    0.6688   11.3633   -3.0466 H   0  0  0  0  0  0  0  0  0  0  0  0
    1.4331    9.3883   -0.9042 H   0  0  0  0  0  0  0  0  0  0  0  0
    2.4863    9.6367   -2.3590 H   0  0  0  0  0  0  0  0  0  0  0  0
    2.3927   11.7959   -2.0815 H   0  0  0  0  0  0  0  0  0  0  0  0
    1.0334   11.3222    2.1439 H   0  0  0  0  0  0  0  0  0  0  0  0
   -0.1697   11.6085    0.8411 H   0  0  0  0  0  0  0  0  0  0  0  0
    0.8134   10.1051    0.8411 H   0  0  0  0  0  0  0  0  0  0  0  0
    2.1309   13.4612    1.6465 H   0  0  0  0  0  0  0  0  0  0  0  0
    3.0681   13.6212    0.1225 H   0  0  0  0  0  0  0  0  0  0  0  0
    1.2962   13.9165    0.1225 H   0  0  0  0  0  0  0  0  0  0  0  0
   -2.5356   10.3510   -2.7882 H   0  0  0  0  0  0  0  0  0  0  0  0
   -1.3771    8.8740   -4.3080 H   0  0  0  0  0  0  0  0  0  0  0  0
   -0.2384    8.3469   -3.0499 H   0  0  0  0  0  0  0  0  0  0  0  0
   -2.4510    6.8276   -4.0297 H   0  0  0  0  0  0  0  0  0  0  0  0
   -1.5791    6.4573   -2.5445 H   0  0  0  0  0  0  0  0  0  0  0  0
   -5.1628    8.8534   -2.7988 H   0  0  0  0  0  0  0  0  0  0  0  0
   -3.7891    9.0426   -3.9406 H   0  0  0  0  0  0  0  0  0  0  0  0
   -4.7549    7.5281   -3.9406 H   0  0  0  0  0  0  0  0  0  0  0  0
   -3.2508    6.1958   -0.8140 H   0  0  0  0  0  0  0  0  0  0  0  0
   -4.0797    5.3005   -3.0830 H   0  0  0  0  0  0  0  0  0  0  0  0
   -4.6891    4.5879   -1.4990 H   0  0  0  0  0  0  0  0  0  0  0  0
   -6.4933    4.9558   -3.3844 H   0  0  0  0  0  0  0  0  0  0  0  0
   -6.3985    8.4861   -1.4309 H   0  0  0  0  0  0  0  0  0  0  0  0
   -7.7732    6.5578    0.5420 H   0  0  0  0  0  0  0  0  0  0  0  0
   -7.4071    8.3192    0.8129 H   0  0  0  0  0  0  0  0  0  0  0  0
   -9.7874    7.9321    0.2571 H   0  0  0  0  0  0  0  0  0  0  0  0
   -8.9304    8.9419   -0.9724 H   0  0  0  0  0  0  0  0  0  0  0  0
  -10.3294    7.3615   -2.1135 H   0  0  0  0  0  0  0  0  0  0  0  0
   -9.4160    5.0020   -1.6770 H   0  0  0  0  0  0  0  0  0  0  0  0
   -8.2559    8.9810   -2.9117 H   0  0  0  0  0  0  0  0  0  0  0  0
   -7.3975    8.0980   -4.2195 H   0  0  0  0  0  0  0  0  0  0  0  0
   -9.1919    8.1808   -4.2195 H   0  0  0  0  0  0  0  0  0  0  0  0
   -9.1890    4.8319   -3.1317 H   0  0  0  0  0  0  0  0  0  0  0  0
   -9.6406    6.0741   -4.3480 H   0  0  0  0  0  0  0  0  0  0  0  0
   -7.9850    5.3773   -4.3480 H   0  0  0  0  0  0  0  0  0  0  0  0
   -5.1934    6.6175    1.7721 H   0  0  0  0  0  0  0  0  0  0  0  0
   -6.2265    5.6190    0.6939 H   0  0  0  0  0  0  0  0  0  0  0  0
   -4.4447    5.3913    0.6939 H   0  0  0  0  0  0  0  0  0  0  0  0
   -5.4660    9.0507    0.7572 H   0  0  0  0  0  0  0  0  0  0  0  0
   -3.8820    8.1636    1.1275 H   0  0  0  0  0  0  0  0  0  0  0  0
   -4.4788    9.9774   -1.2270 H   0  0  0  0  0  0  0  0  0  0  0  0
   -3.3212   10.2412    0.1360 H   0  0  0  0  0  0  0  0  0  0  0  0
   -2.0496    8.3658    0.7624 H   0  0  0  0  0  0  0  0  0  0  0  0
   -1.6384    7.0612   -0.4019 H   0  0  0  0  0  0  0  0  0  0  0  0
   -0.7008    8.5933   -0.4019 H   0  0  0  0  0  0  0  0  0  0  0  0
  1  2  1  0
  2  3  1  0
  3  4  1  0
  4  5  1  0
  5  6  1  0
  6  7  1  0
  7  8  1  0
  7  9  1  0
  2 10  1  0
 10 11  1  0
 11 12  1  0
 12 13  1  0
 13 14  1  6
 13 15  1  0
 15 16  1  0
 16 17  1  0
 17 18  2  0
 18 19  1  0
 19 20  1  0
 20 21  1  0
 21 22  1  0
 22 23  1  0
 22 24  1  0
 24 25  1  0
 24 26  1  0
 19 27  1  0
 27 28  1  1
 27 29  1  0
 29 30  1  0
 30 31  1  0
 31 32  1  1
  7  5  1  0
 31 10  1  0
 31 13  1  0
 27 15  1  0
 24 18  1  0
  1 33  1  0
  1 34  1  0
  1 35  1  0
  2 36  1  1
  3 37  1  0
  3 38  1  0
  4 39  1  0
  4 40  1  0
  5 41  1  6
  8 42  1  0
  8 43  1  0
  8 44  1  0
  9 45  1  0
  9 46  1  0
  9 47  1  0
 10 48  1  6
 11 49  1  0
 11 50  1  0
 12 51  1  0
 12 52  1  0
 14 53  1  0
 14 54  1  0
 14 55  1  0
 15 56  1  1
 16 57  1  0
 16 58  1  0
 17 59  1  0
 19 60  1  6
 20 61  1  0
 20 62  1  0
 21 63  1  0
 21 64  1  0
 22 65  1  6
 23 66  1  0
 25 67  1  0
 25 68  1  0
 25 69  1  0
 26 70  1  0
 26 71  1  0
 26 72  1  0
 28 73  1  0
 28 74  1  0
 28 75  1  0
 29 76  1  0
 29 77  1  0
 30 78  1  0
 30 79  1  0
 32 80  1  0
 32 81  1  0
 32 82  1  0
M  END
>  <meeko>  (17) 
{"is_sidechain": [false], "intermolecular_energy": 2.731, "internal_energy": -0.839}

$$$$
EPH_relaxed_0001_pdb2pqr_Repair_318_r2_0001_out
     RDKit          3D

 82 86  0  0  0  0  0  0  0  0999 V2000
   -1.4780   15.3060    0.2370 C   0  0  0  0  0  0  0  0  0  0  0  0
   -1.2450   14.0360    1.0610 C   0  0  2  0  0  0  0  0  0  0  0  0
   -1.1830   14.3290    2.5740 C   0  0  0  0  0  0  0  0  0  0  0  0
   -0.4590   13.2470    3.3810 C   0  0  0  0  0  0  0  0  0  0  0  0
   -0.2240   13.6770    4.7970 C   0  0  2  0  0  0  0  0  0  0  0  0
   -0.0820   12.6000    5.7340 O   0  0  0  0  0  0  0  0  0  0  0  0
   -1.2240   13.4530    5.9160 C   0  0  0  0  0  0  0  0  0  0  0  0
   -2.5350   12.7760    5.6670 C   0  0  0  0  0  0  0  0  0  0  0  0
   -1.1410   14.3190    7.1340 C   0  0  0  0  0  0  0  0  0  0  0  0
    0.0400   13.3520    0.6100 C   0  0  1  0  0  0  0  0  0  0  0  0
    0.5590   12.3150    1.6410 C   0  0  0  0  0  0  0  0  0  0  0  0
    1.1970   11.1580    0.8300 C   0  0  0  0  0  0  0  0  0  0  0  0
    1.3240   11.7130   -0.6080 C   0  0  1  0  0  0  0  0  0  0  0  0
    2.6200   12.5830   -0.5890 C   0  0  0  0  0  0  0  0  0  0  0  0
    1.3560   10.6540   -1.7570 C   0  0  2  0  0  0  0  0  0  0  0  0
    2.5500    9.6840   -1.7170 C   0  0  0  0  0  0  0  0  0  0  0  0
    3.7580   10.1280   -2.4730 C   0  0  0  0  0  0  0  0  0  0  0  0
    3.7900   11.1160   -3.3860 C   0  0  0  0  0  0  0  0  0  0  0  0
    2.5050   11.8370   -3.8120 C   0  0  1  0  0  0  0  0  0  0  0  0
    2.4620   11.9480   -5.3590 C   0  0  0  0  0  0  0  0  0  0  0  0
    3.7150   12.6020   -5.9330 C   0  0  0  0  0  0  0  0  0  0  0  0
    4.9670   11.8240   -5.5360 C   0  0  2  0  0  0  0  0  0  0  0  0
    4.9350   10.5430   -6.1740 O   0  0  0  0  0  0  0  0  0  0  0  0
    5.1120   11.6400   -4.0000 C   0  0  0  0  0  0  0  0  0  0  0  0
    5.4480   13.0010   -3.3420 C   0  0  0  0  0  0  0  0  0  0  0  0
    6.3360   10.7200   -3.7430 C   0  0  0  0  0  0  0  0  0  0  0  0
    1.1530   11.2610   -3.2040 C   0  0  1  0  0  0  0  0  0  0  0  0
    0.6160   10.1050   -4.1020 C   0  0  0  0  0  0  0  0  0  0  0  0
    0.0560   12.3900   -3.2310 C   0  0  0  0  0  0  0  0  0  0  0  0
   -0.0030   13.3310   -2.0120 C   0  0  0  0  0  0  0  0  0  0  0  0
   -0.0140   12.5330   -0.7040 C   0  0  2  0  0  0  0  0  0  0  0  0
   -1.3180   11.6650   -0.6850 C   0  0  0  0  0  0  0  0  0  0  0  0
   -1.6345   16.1588    0.9140 H   0  0  0  0  0  0  0  0  0  0  0  0
   -0.6000   15.4977   -0.3974 H   0  0  0  0  0  0  0  0  0  0  0  0
   -2.3668   15.1736   -0.3974 H   0  0  0  0  0  0  0  0  0  0  0  0
   -2.1017   13.3679    0.8887 H   0  0  0  0  0  0  0  0  0  0  0  0
   -0.6563   15.2834    2.7217 H   0  0  0  0  0  0  0  0  0  0  0  0
   -2.2205   14.3618    2.9381 H   0  0  0  0  0  0  0  0  0  0  0  0
   -1.0717   12.3334    3.3827 H   0  0  0  0  0  0  0  0  0  0  0  0
    0.5186   13.0646    2.9109 H   0  0  0  0  0  0  0  0  0  0  0  0
    0.3179   14.5730    4.4602 H   0  0  0  0  0  0  0  0  0  0  0  0
   -3.0096   12.5309    6.6286 H   0  0  0  0  0  0  0  0  0  0  0  0
   -3.1917   13.4477    5.0947 H   0  0  0  0  0  0  0  0  0  0  0  0
   -2.3675   11.8517    5.0947 H   0  0  0  0  0  0  0  0  0  0  0  0
   -1.2012   13.6911    8.0352 H   0  0  0  0  0  0  0  0  0  0  0  0
   -0.1864   14.8655    7.1310 H   0  0  0  0  0  0  0  0  0  0  0  0
   -1.9745   15.0369    7.1310 H   0  0  0  0  0  0  0  0  0  0  0  0
    0.6819   14.2354    0.4775 H   0  0  0  0  0  0  0  0  0  0  0  0
    1.3111   12.7772    2.2972 H   0  0  0  0  0  0  0  0  0  0  0  0
   -0.2596   11.9468    2.2769 H   0  0  0  0  0  0  0  0  0  0  0  0
    2.1864   10.8993    1.2352 H   0  0  0  0  0  0  0  0  0  0  0  0
    0.5945   10.2385    0.8705 H   0  0  0  0  0  0  0  0  0  0  0  0
    2.9139   12.7803    0.4525 H   0  0  0  0  0  0  0  0  0  0  0  0
    3.4302   12.0452   -1.1030 H   0  0  0  0  0  0  0  0  0  0  0  0
    2.4291   13.5366   -1.1030 H   0  0  0  0  0  0  0  0  0  0  0  0
    0.4673   10.0434   -1.5396 H   0  0  0  0  0  0  0  0  0  0  0  0
    2.8396    9.5447   -0.6650 H   0  0  0  0  0  0  0  0  0  0  0  0
    2.2078    8.7600   -2.2059 H   0  0  0  0  0  0  0  0  0  0  0  0
    4.7023    9.6030   -2.2662 H   0  0  0  0  0  0  0  0  0  0  0  0
    2.5579   12.8416   -3.3670 H   0  0  0  0  0  0  0  0  0  0  0  0
    2.3660   10.9374   -5.7826 H   0  0  0  0  0  0  0  0  0  0  0  0
    1.6028   12.5814   -5.6248 H   0  0  0  0  0  0  0  0  0  0  0  0
    3.6385   12.6255   -7.0301 H   0  0  0  0  0  0  0  0  0  0  0  0
    3.7938   13.6229   -5.5311 H   0  0  0  0  0  0  0  0  0  0  0  0
    5.8381   12.4097   -5.8648 H   0  0  0  0  0  0  0  0  0  0  0  0
    5.0890    9.8700   -5.4900 H   0  0  0  0  0  0  0  0  0  0  0  0
    5.4219   12.8954   -2.2474 H   0  0  0  0  0  0  0  0  0  0  0  0
    6.4523   13.3219   -3.6556 H   0  0  0  0  0  0  0  0  0  0  0  0
    4.7084   13.7524   -3.6556 H   0  0  0  0  0  0  0  0  0  0  0  0
    6.4878   10.6059   -2.6595 H   0  0  0  0  0  0  0  0  0  0  0  0
    6.1540    9.7332   -4.1937 H   0  0  0  0  0  0  0  0  0  0  0  0
    7.2333   11.1691   -4.1937 H   0  0  0  0  0  0  0  0  0  0  0  0
    0.2381    9.2915   -3.4654 H   0  0  0  0  0  0  0  0  0  0  0  0
   -0.1990   10.4824   -4.7371 H   0  0  0  0  0  0  0  0  0  0  0  0
    1.4301    9.7256   -4.7371 H   0  0  0  0  0  0  0  0  0  0  0  0
    0.2382   13.0098   -4.1213 H   0  0  0  0  0  0  0  0  0  0  0  0
   -0.9060   11.8566   -3.2296 H   0  0  0  0  0  0  0  0  0  0  0  0
    0.8770   13.9908   -2.0237 H   0  0  0  0  0  0  0  0  0  0  0  0
   -0.9284   13.9228   -2.0699 H   0  0  0  0  0  0  0  0  0  0  0  0
   -1.6127   11.4688    0.3565 H   0  0  0  0  0  0  0  0  0  0  0  0
   -2.1261   12.2060   -1.1991 H   0  0  0  0  0  0  0  0  0  0  0  0
   -1.1308   10.7107   -1.1991 H   0  0  0  0  0  0  0  0  0  0  0  0
  1  2  1  0
  2  3  1  0
  3  4  1  0
  4  5  1  0
  5  6  1  0
  6  7  1  0
  7  8  1  0
  7  9  1  0
  2 10  1  0
 10 11  1  0
 11 12  1  0
 12 13  1  0
 13 14  1  1
 13 15  1  0
 15 16  1  0
 16 17  1  0
 17 18  2  0
 18 19  1  0
 19 20  1  0
 20 21  1  0
 21 22  1  0
 22 23  1  0
 22 24  1  0
 24 25  1  0
 24 26  1  0
 19 27  1  0
 27 28  1  6
 27 29  1  0
 29 30  1  0
 30 31  1  0
 31 32  1  1
  7  5  1  0
 31 10  1  0
 31 13  1  0
 27 15  1  0
 24 18  1  0
  1 33  1  0
  1 34  1  0
  1 35  1  0
  2 36  1  1
  3 37  1  0
  3 38  1  0
  4 39  1  0
  4 40  1  0
  5 41  1  6
  8 42  1  0
  8 43  1  0
  8 44  1  0
  9 45  1  0
  9 46  1  0
  9 47  1  0
 10 48  1  6
 11 49  1  0
 11 50  1  0
 12 51  1  0
 12 52  1  0
 14 53  1  0
 14 54  1  0
 14 55  1  0
 15 56  1  1
 16 57  1  0
 16 58  1  0
 17 59  1  0
 19 60  1  1
 20 61  1  0
 20 62  1  0
 21 63  1  0
 21 64  1  0
 22 65  1  6
 23 66  1  0
 25 67  1  0
 25 68  1  0
 25 69  1  0
 26 70  1  0
 26 71  1  0
 26 72  1  0
 28 73  1  0
 28 74  1  0
 28 75  1  0
 29 76  1  0
 29 77  1  0
 30 78  1  0
 30 79  1  0
 32 80  1  0
 32 81  1  0
 32 82  1  0
M  END
>  <meeko>  (18) 
{"is_sidechain": [false], "intermolecular_energy": 2.731, "internal_energy": -0.839}

$$$$
EPH_relaxed_0001_pdb2pqr_Repair_318_r2_0001_out
     RDKit          3D

 82 86  0  0  0  0  0  0  0  0999 V2000
    5.3070   13.0870   -5.3560 C   0  0  0  0  0  0  0  0  0  0  0  0
    4.0010   12.4880   -5.8860 C   0  0  2  0  0  0  0  0  0  0  0  0
    2.9430   13.5710   -6.1770 C   0  0  0  0  0  0  0  0  0  0  0  0
    2.7110   13.8200   -7.6700 C   0  0  0  0  0  0  0  0  0  0  0  0
    2.0340   15.1340   -7.9150 C   0  0  2  0  0  0  0  0  0  0  0  0
    0.7940   15.0450   -8.6290 O   0  0  0  0  0  0  0  0  0  0  0  0
    1.8600   15.7420   -9.2950 C   0  0  0  0  0  0  0  0  0  0  0  0
    2.3660   15.0500  -10.5210 C   0  0  0  0  0  0  0  0  0  0  0  0
    1.6400   17.2180   -9.4040 C   0  0  0  0  0  0  0  0  0  0  0  0
    3.4510   11.4770   -4.8880 C   0  0  1  0  0  0  0  0  0  0  0  0
    4.5530   10.5550   -4.3020 C   0  0  0  0  0  0  0  0  0  0  0  0
    4.1590   10.2660   -2.8300 C   0  0  0  0  0  0  0  0  0  0  0  0
    2.6940   10.7480   -2.7170 C   0  0  1  0  0  0  0  0  0  0  0  0
    1.8410    9.5810   -3.3070 C   0  0  0  0  0  0  0  0  0  0  0  0
    2.2080   11.1530   -1.2880 C   0  0  2  0  0  0  0  0  0  0  0  0
    2.2180   10.0170   -0.2490 C   0  0  0  0  0  0  0  0  0  0  0  0
    0.9530    9.2310   -0.1510 C   0  0  0  0  0  0  0  0  0  0  0  0
   -0.2390    9.6000   -0.6570 C   0  0  0  0  0  0  0  0  0  0  0  0
   -0.4200   10.9680   -1.3270 C   0  0  1  0  0  0  0  0  0  0  0  0
   -1.7160   11.6360   -0.7960 C   0  0  0  0  0  0  0  0  0  0  0  0
   -2.9420   10.7420   -0.9540 C   0  0  0  0  0  0  0  0  0  0  0  0
   -2.7460    9.4150   -0.2270 C   0  0  2  0  0  0  0  0  0  0  0  0
   -2.6930    9.6640    1.1810 O   0  0  0  0  0  0  0  0  0  0  0  0
   -1.4650    8.6550   -0.6720 C   0  0  0  0  0  0  0  0  0  0  0  0
   -1.6510    8.1210   -2.1140 C   0  0  0  0  0  0  0  0  0  0  0  0
   -1.3110    7.4060    0.2370 C   0  0  0  0  0  0  0  0  0  0  0  0
    0.8360   11.9410   -1.2680 C   0  0  1  0  0  0  0  0  0  0  0  0
    0.8120   12.7610    0.0580 C   0  0  0  0  0  0  0  0  0  0  0  0
    0.7300   12.9870   -2.4400 C   0  0  0  0  0  0  0  0  0  0  0  0
    1.3350   12.5760   -3.7960 C   0  0  0  0  0  0  0  0  0  0  0  0
    2.7570   12.0340   -3.6200 C   0  0  2  0  0  0  0  0  0  0  0  0
    3.6430   13.1930   -3.0480 C   0  0  0  0  0  0  0  0  0  0  0  0
    5.2934   13.0808   -4.2561 H   0  0  0  0  0  0  0  0  0  0  0  0
    6.1572   12.4889   -5.7156 H   0  0  0  0  0  0  0  0  0  0  0  0
    5.4084   14.1216   -5.7156 H   0  0  0  0  0  0  0  0  0  0  0  0
    4.2287   11.9847   -6.8372 H   0  0  0  0  0  0  0  0  0  0  0  0
    1.9906   13.2562   -5.7254 H   0  0  0  0  0  0  0  0  0  0  0  0
    3.3200   14.5117   -5.7492 H   0  0  0  0  0  0  0  0  0  0  0  0
    3.6821   13.8177   -8.1867 H   0  0  0  0  0  0  0  0  0  0  0  0
    2.0582   13.0217   -8.0530 H   0  0  0  0  0  0  0  0  0  0  0  0
    2.4331   15.5413   -6.9744 H   0  0  0  0  0  0  0  0  0  0  0  0
    2.9917   14.1943  -10.2272 H   0  0  0  0  0  0  0  0  0  0  0  0
    1.5142   14.6933  -11.1186 H   0  0  0  0  0  0  0  0  0  0  0  0
    2.9642   15.7536  -11.1186 H   0  0  0  0  0  0  0  0  0  0  0  0
    1.5750   17.6544   -8.3964 H   0  0  0  0  0  0  0  0  0  0  0  0
    2.4800   17.6747   -9.9479 H   0  0  0  0  0  0  0  0  0  0  0  0
    0.7033   17.4099   -9.9479 H   0  0  0  0  0  0  0  0  0  0  0  0
    2.7140   10.9696   -5.5278 H   0  0  0  0  0  0  0  0  0  0  0  0
    4.6034    9.6156   -4.8720 H   0  0  0  0  0  0  0  0  0  0  0  0
    5.5411   11.0351   -4.3593 H   0  0  0  0  0  0  0  0  0  0  0  0
    4.2318    9.1902   -2.6125 H   0  0  0  0  0  0  0  0  0  0  0  0
    4.8217   10.7732   -2.1133 H   0  0  0  0  0  0  0  0  0  0  0  0
    1.4094    8.9905   -2.4854 H   0  0  0  0  0  0  0  0  0  0  0  0
    1.0312    9.9951   -3.9257 H   0  0  0  0  0  0  0  0  0  0  0  0
    2.4814    8.9351   -3.9257 H   0  0  0  0  0  0  0  0  0  0  0  0
    2.9868   11.8602   -0.9665 H   0  0  0  0  0  0  0  0  0  0  0  0
    3.0298    9.3229   -0.5122 H   0  0  0  0  0  0  0  0  0  0  0  0
    2.3519   10.5011    0.7296 H   0  0  0  0  0  0  0  0  0  0  0  0
    0.9983    8.2685    0.3797 H   0  0  0  0  0  0  0  0  0  0  0  0
   -0.5161   10.7690   -2.4046 H   0  0  0  0  0  0  0  0  0  0  0  0
   -1.5824   11.8658    0.2714 H   0  0  0  0  0  0  0  0  0  0  0  0
   -1.8886   12.5470   -1.3878 H   0  0  0  0  0  0  0  0  0  0  0  0
   -3.8192   11.2563   -0.5344 H   0  0  0  0  0  0  0  0  0  0  0  0
   -3.0919   10.5374   -2.0243 H   0  0  0  0  0  0  0  0  0  0  0  0
   -3.5985    8.7693   -0.4845 H   0  0  0  0  0  0  0  0  0  0  0  0
   -3.5880    9.5310    1.5380 H   0  0  0  0  0  0  0  0  0  0  0  0
   -2.0126    7.0828   -2.0767 H   0  0  0  0  0  0  0  0  0  0  0  0
   -2.3844    8.7459   -2.6447 H   0  0  0  0  0  0  0  0  0  0  0  0
   -0.6881    8.1551   -2.6447 H   0  0  0  0  0  0  0  0  0  0  0  0
   -1.3489    7.7137    1.2924 H   0  0  0  0  0  0  0  0  0  0  0  0
   -2.1289    6.6997    0.0313 H   0  0  0  0  0  0  0  0  0  0  0  0
   -0.3461    6.9196    0.0313 H   0  0  0  0  0  0  0  0  0  0  0  0
    0.8322   12.0722    0.9154 H   0  0  0  0  0  0  0  0  0  0  0  0
    1.6912   13.4209    0.0970 H   0  0  0  0  0  0  0  0  0  0  0  0
   -0.1043   13.3683    0.0970 H   0  0  0  0  0  0  0  0  0  0  0  0
   -0.3374   13.1977   -2.6022 H   0  0  0  0  0  0  0  0  0  0  0  0
    1.3258   13.8505   -2.1093 H   0  0  0  0  0  0  0  0  0  0  0  0
    0.7059   11.7956   -4.2490 H   0  0  0  0  0  0  0  0  0  0  0  0
    1.3755   13.4629   -4.4454 H   0  0  0  0  0  0  0  0  0  0  0  0
    3.6204   13.1634   -1.9486 H   0  0  0  0  0  0  0  0  0  0  0  0
    4.6788   13.0691   -3.3969 H   0  0  0  0  0  0  0  0  0  0  0  0
    3.2517   14.1600   -3.3969 H   0  0  0  0  0  0  0  0  0  0  0  0
  1  2  1  0
  2  3  1  0
  3  4  1  0
  4  5  1  0
  5  6  1  0
  6  7  1  0
  7  8  1  0
  7  9  1  0
  2 10  1  0
 10 11  1  0
 11 12  1  0
 12 13  1  0
 13 14  1  6
 13 15  1  0
 15 16  1  0
 16 17  1  0
 17 18  2  0
 18 19  1  0
 19 20  1  0
 20 21  1  0
 21 22  1  0
 22 23  1  0
 22 24  1  0
 24 25  1  0
 24 26  1  0
 19 27  1  0
 27 28  1  1
 27 29  1  0
 29 30  1  0
 30 31  1  0
 31 32  1  1
  7  5  1  0
 31 10  1  0
 31 13  1  0
 27 15  1  0
 24 18  1  0
  1 33  1  0
  1 34  1  0
  1 35  1  0
  2 36  1  6
  3 37  1  0
  3 38  1  0
  4 39  1  0
  4 40  1  0
  5 41  1  1
  8 42  1  0
  8 43  1  0
  8 44  1  0
  9 45  1  0
  9 46  1  0
  9 47  1  0
 10 48  1  6
 11 49  1  0
 11 50  1  0
 12 51  1  0
 12 52  1  0
 14 53  1  0
 14 54  1  0
 14 55  1  0
 15 56  1  1
 16 57  1  0
 16 58  1  0
 17 59  1  0
 19 60  1  6
 20 61  1  0
 20 62  1  0
 21 63  1  0
 21 64  1  0
 22 65  1  1
 23 66  1  0
 25 67  1  0
 25 68  1  0
 25 69  1  0
 26 70  1  0
 26 71  1  0
 26 72  1  0
 28 73  1  0
 28 74  1  0
 28 75  1  0
 29 76  1  0
 29 77  1  0
 30 78  1  0
 30 79  1  0
 32 80  1  0
 32 81  1  0
 32 82  1  0
M  END
>  <meeko>  (19) 
{"is_sidechain": [false], "intermolecular_energy": 2.731, "internal_energy": -0.839}

$$$$
EPH_relaxed_0001_pdb2pqr_Repair_318_r2_0001_out
     RDKit          3D

 82 86  0  0  0  0  0  0  0  0999 V2000
    0.9340   12.0260   -3.9400 C   0  0  0  0  0  0  0  0  0  0  0  0
    1.1900   11.4180   -2.5580 C   0  0  2  0  0  0  0  0  0  0  0  0
    2.6650   11.0090   -2.3680 C   0  0  0  0  0  0  0  0  0  0  0  0
    3.5330   11.2410   -3.6080 C   0  0  0  0  0  0  0  0  0  0  0  0
    4.9890   11.3110   -3.2600 C   0  0  2  0  0  0  0  0  0  0  0  0
    5.7230   12.3260   -3.9570 O   0  0  0  0  0  0  0  0  0  0  0  0
    6.0990   10.9680   -4.2360 C   0  0  0  0  0  0  0  0  0  0  0  0
    5.8010   10.5280   -5.6350 C   0  0  0  0  0  0  0  0  0  0  0  0
    7.4400   10.5900   -3.6890 C   0  0  0  0  0  0  0  0  0  0  0  0
    0.2840   10.2120   -2.3440 C   0  0  1  0  0  0  0  0  0  0  0  0
    1.0380    8.9970   -1.7430 C   0  0  0  0  0  0  0  0  0  0  0  0
    0.0420    8.2730   -0.8010 C   0  0  0  0  0  0  0  0  0  0  0  0
   -1.3350    8.8890   -1.1420 C   0  0  1  0  0  0  0  0  0  0  0  0
   -1.8050    8.1360   -2.4250 C   0  0  0  0  0  0  0  0  0  0  0  0
   -2.4150    8.8350   -0.0130 C   0  0  2  0  0  0  0  0  0  0  0  0
   -2.8330    7.4200    0.4230 C   0  0  0  0  0  0  0  0  0  0  0  0
   -3.9890    6.8390   -0.3220 C   0  0  0  0  0  0  0  0  0  0  0  0
   -4.8430    7.5270   -1.1020 C   0  0  0  0  0  0  0  0  0  0  0  0
   -4.7480    9.0540   -1.2170 C   0  0  1  0  0  0  0  0  0  0  0  0
   -6.1630    9.6730   -1.0730 C   0  0  0  0  0  0  0  0  0  0  0  0
   -7.1660    9.0750   -2.0540 C   0  0  0  0  0  0  0  0  0  0  0  0
   -7.2760    7.5640   -1.8690 C   0  0  2  0  0  0  0  0  0  0  0  0
   -7.8580    7.2970   -0.5890 O   0  0  0  0  0  0  0  0  0  0  0  0
   -5.9090    6.8320   -1.9840 C   0  0  0  0  0  0  0  0  0  0  0  0
   -5.4220    6.8670   -3.4530 C   0  0  0  0  0  0  0  0  0  0  0  0
   -6.1380    5.3360   -1.6370 C   0  0  0  0  0  0  0  0  0  0  0  0
   -3.6760    9.7550   -0.2770 C   0  0  1  0  0  0  0  0  0  0  0  0
   -4.3070   10.0570    1.1170 C   0  0  0  0  0  0  0  0  0  0  0  0
   -3.2810   11.1480   -0.8960 C   0  0  0  0  0  0  0  0  0  0  0  0
   -2.1270   11.1520   -1.9170 C   0  0  0  0  0  0  0  0  0  0  0  0
   -0.9150   10.3860   -1.3780 C   0  0  2  0  0  0  0  0  0  0  0  0
   -0.4060   11.1340   -0.0990 C   0  0  0  0  0  0  0  0  0  0  0  0
    0.5095   13.0342   -3.8241 H   0  0  0  0  0  0  0  0  0  0  0  0
    1.8821   12.0888   -4.4943 H   0  0  0  0  0  0  0  0  0  0  0  0
    0.2265   11.3918   -4.4943 H   0  0  0  0  0  0  0  0  0  0  0  0
    0.9621   12.1911   -1.8094 H   0  0  0  0  0  0  0  0  0  0  0  0
    3.0835   11.5951   -1.5366 H   0  0  0  0  0  0  0  0  0  0  0  0
    2.6752    9.9277   -2.1663 H   0  0  0  0  0  0  0  0  0  0  0  0
    3.3746   10.4125   -4.3141 H   0  0  0  0  0  0  0  0  0  0  0  0
    3.2409   12.2021   -4.0562 H   0  0  0  0  0  0  0  0  0  0  0  0
    4.7834   10.9819   -2.2307 H   0  0  0  0  0  0  0  0  0  0  0  0
    5.1843    9.6175   -5.6095 H   0  0  0  0  0  0  0  0  0  0  0  0
    5.2562   11.3252   -6.1619 H   0  0  0  0  0  0  0  0  0  0  0  0
    6.7435   10.3179   -6.1619 H   0  0  0  0  0  0  0  0  0  0  0  0
    7.4037   10.6002   -2.5896 H   0  0  0  0  0  0  0  0  0  0  0  0
    7.7072    9.5815   -4.0377 H   0  0  0  0  0  0  0  0  0  0  0  0
    8.1946   11.3104   -4.0377 H   0  0  0  0  0  0  0  0  0  0  0  0
   -0.0788   10.0695   -3.3726 H   0  0  0  0  0  0  0  0  0  0  0  0
    1.3623    8.3179   -2.5453 H   0  0  0  0  0  0  0  0  0  0  0  0
    1.9351    9.3209   -1.1951 H   0  0  0  0  0  0  0  0  0  0  0  0
    0.0417    7.1901   -0.9944 H   0  0  0  0  0  0  0  0  0  0  0  0
    0.3043    8.3989    0.2598 H   0  0  0  0  0  0  0  0  0  0  0  0
   -2.3670    7.2355   -2.1365 H   0  0  0  0  0  0  0  0  0  0  0  0
   -2.4516    8.7963   -3.0216 H   0  0  0  0  0  0  0  0  0  0  0  0
   -0.9278    7.8452   -3.0216 H   0  0  0  0  0  0  0  0  0  0  0  0
   -1.8798    9.2662    0.8458 H   0  0  0  0  0  0  0  0  0  0  0  0
   -1.9695    6.7527    0.2848 H   0  0  0  0  0  0  0  0  0  0  0  0
   -3.1586    7.5077    1.4700 H   0  0  0  0  0  0  0  0  0  0  0  0
   -4.1570    5.7562   -0.2251 H   0  0  0  0  0  0  0  0  0  0  0  0
   -4.3516    9.2592   -2.2224 H   0  0  0  0  0  0  0  0  0  0  0  0
   -6.5229    9.4955   -0.0488 H   0  0  0  0  0  0  0  0  0  0  0  0
   -6.0811   10.7477   -1.2930 H   0  0  0  0  0  0  0  0  0  0  0  0
   -8.1523    9.5313   -1.8833 H   0  0  0  0  0  0  0  0  0  0  0  0
   -6.8197    9.2789   -3.0780 H   0  0  0  0  0  0  0  0  0  0  0  0
   -7.9088    7.1774   -2.6815 H   0  0  0  0  0  0  0  0  0  0  0  0
   -8.4070    6.5000   -0.6760 H   0  0  0  0  0  0  0  0  0  0  0  0
   -4.3250    6.9458   -3.4738 H   0  0  0  0  0  0  0  0  0  0  0  0
   -5.7331    5.9442   -3.9645 H   0  0  0  0  0  0  0  0  0  0  0  0
   -5.8618    7.7359   -3.9645 H   0  0  0  0  0  0  0  0  0  0  0  0
   -6.1570    5.2118   -0.5442 H   0  0  0  0  0  0  0  0  0  0  0  0
   -7.0974    5.0041   -2.0605 H   0  0  0  0  0  0  0  0  0  0  0  0
   -5.3218    4.7323   -2.0605 H   0  0  0  0  0  0  0  0  0  0  0  0
   -3.6192    9.7278    1.9099 H   0  0  0  0  0  0  0  0  0  0  0  0
   -4.4857   11.1382    1.2121 H   0  0  0  0  0  0  0  0  0  0  0  0
   -5.2611    9.5179    1.2121 H   0  0  0  0  0  0  0  0  0  0  0  0
   -4.1715   11.5534   -1.3986 H   0  0  0  0  0  0  0  0  0  0  0  0
   -2.9175   11.7472   -0.0482 H   0  0  0  0  0  0  0  0  0  0  0  0
   -2.4686   10.6759   -2.8479 H   0  0  0  0  0  0  0  0  0  0  0  0
   -1.8282   12.1939   -2.1044 H   0  0  0  0  0  0  0  0  0  0  0  0
   -0.7632   10.6091    0.7993 H   0  0  0  0  0  0  0  0  0  0  0  0
    0.6938   11.1538   -0.0991 H   0  0  0  0  0  0  0  0  0  0  0  0
   -0.7912   12.1643   -0.0991 H   0  0  0  0  0  0  0  0  0  0  0  0
  1  2  1  0
  2  3  1  0
  3  4  1  0
  4  5  1  0
  5  6  1  0
  6  7  1  0
  7  8  1  0
  7  9  1  0
  2 10  1  0
 10 11  1  0
 11 12  1  0
 12 13  1  0
 13 14  1  6
 13 15  1  0
 15 16  1  0
 16 17  1  0
 17 18  2  0
 18 19  1  0
 19 20  1  0
 20 21  1  0
 21 22  1  0
 22 23  1  0
 22 24  1  0
 24 25  1  0
 24 26  1  0
 19 27  1  0
 27 28  1  1
 27 29  1  0
 29 30  1  0
 30 31  1  0
 31 32  1  1
  7  5  1  0
 31 10  1  0
 31 13  1  0
 27 15  1  0
 24 18  1  0
  1 33  1  0
  1 34  1  0
  1 35  1  0
  2 36  1  1
  3 37  1  0
  3 38  1  0
  4 39  1  0
  4 40  1  0
  5 41  1  1
  8 42  1  0
  8 43  1  0
  8 44  1  0
  9 45  1  0
  9 46  1  0
  9 47  1  0
 10 48  1  6
 11 49  1  0
 11 50  1  0
 12 51  1  0
 12 52  1  0
 14 53  1  0
 14 54  1  0
 14 55  1  0
 15 56  1  1
 16 57  1  0
 16 58  1  0
 17 59  1  0
 19 60  1  6
 20 61  1  0
 20 62  1  0
 21 63  1  0
 21 64  1  0
 22 65  1  6
 23 66  1  0
 25 67  1  0
 25 68  1  0
 25 69  1  0
 26 70  1  0
 26 71  1  0
 26 72  1  0
 28 73  1  0
 28 74  1  0
 28 75  1  0
 29 76  1  0
 29 77  1  0
 30 78  1  0
 30 79  1  0
 32 80  1  0
 32 81  1  0
 32 82  1  0
M  END
>  <meeko>  (20) 
{"is_sidechain": [false], "intermolecular_energy": 2.731, "internal_energy": -0.839}

$$$$
