EPH_relaxed_0001_pdb2pqr_Repair_256_r2_0001_out
     RDKit          3D

 82 86  0  0  0  0  0  0  0  0999 V2000
   -5.4550    5.7950   -1.4420 C   0  0  0  0  0  0  0  0  0  0  0  0
   -5.5840    7.2140   -2.0030 C   0  0  2  0  0  0  0  0  0  0  0  0
   -5.1220    8.2820   -0.9920 C   0  0  0  0  0  0  0  0  0  0  0  0
   -3.7210    8.0300   -0.4260 C   0  0  0  0  0  0  0  0  0  0  0  0
   -3.0600    9.3030    0.0060 C   0  0  2  0  0  0  0  0  0  0  0  0
   -2.5230   10.0920   -1.0640 O   0  0  0  0  0  0  0  0  0  0  0  0
   -1.5710    9.5600   -0.1290 C   0  0  0  0  0  0  0  0  0  0  0  0
   -0.6520    8.5340   -0.7130 C   0  0  0  0  0  0  0  0  0  0  0  0
   -0.9420   10.5980    0.7470 C   0  0  0  0  0  0  0  0  0  0  0  0
   -7.0260    7.4790   -2.4180 C   0  0  1  0  0  0  0  0  0  0  0  0
   -7.4020    6.7790   -3.7510 C   0  0  0  0  0  0  0  0  0  0  0  0
   -8.8870    6.3520   -3.6290 C   0  0  0  0  0  0  0  0  0  0  0  0
   -9.4080    7.1040   -2.3820 C   0  0  1  0  0  0  0  0  0  0  0  0
   -9.7330    8.5450   -2.8880 C   0  0  0  0  0  0  0  0  0  0  0  0
  -10.6290    6.4620   -1.6470 C   0  0  2  0  0  0  0  0  0  0  0  0
  -11.9170    6.3650   -2.4840 C   0  0  0  0  0  0  0  0  0  0  0  0
  -12.8330    7.5400   -2.3820 C   0  0  0  0  0  0  0  0  0  0  0  0
  -12.7740    8.4990   -1.4390 C   0  0  0  0  0  0  0  0  0  0  0  0
  -11.7700    8.4050   -0.2820 C   0  0  1  0  0  0  0  0  0  0  0  0
  -12.4900    8.7220    1.0550 C   0  0  0  0  0  0  0  0  0  0  0  0
  -13.2210   10.0610    1.0230 C   0  0  0  0  0  0  0  0  0  0  0  0
  -14.2500   10.0940   -0.1030 C   0  0  2  0  0  0  0  0  0  0  0  0
  -15.2870    9.1530    0.1920 O   0  0  0  0  0  0  0  0  0  0  0  0
  -13.6420    9.7800   -1.4990 C   0  0  0  0  0  0  0  0  0  0  0  0
  -12.7420   10.9560   -1.9510 C   0  0  0  0  0  0  0  0  0  0  0  0
  -14.8070    9.7060   -2.5220 C   0  0  0  0  0  0  0  0  0  0  0  0
  -10.9150    7.0670   -0.2130 C   0  0  1  0  0  0  0  0  0  0  0  0
  -11.6960    5.9770    0.5830 C   0  0  0  0  0  0  0  0  0  0  0  0
   -9.5920    7.3440    0.5940 C   0  0  0  0  0  0  0  0  0  0  0  0
   -8.3840    7.8640   -0.2080 C   0  0  0  0  0  0  0  0  0  0  0  0
   -8.1430    7.0060   -1.4540 C   0  0  2  0  0  0  0  0  0  0  0  0
   -7.7910    5.5560   -0.9750 C   0  0  0  0  0  0  0  0  0  0  0  0
   -5.4585    5.8336   -0.3427 H   0  0  0  0  0  0  0  0  0  0  0  0
   -6.3014    5.1847   -1.7902 H   0  0  0  0  0  0  0  0  0  0  0  0
   -4.5125    5.3473   -1.7902 H   0  0  0  0  0  0  0  0  0  0  0  0
   -4.9253    7.2842   -2.8812 H   0  0  0  0  0  0  0  0  0  0  0  0
   -5.1222    9.2599   -1.4957 H   0  0  0  0  0  0  0  0  0  0  0  0
   -5.8221    8.2459   -0.1443 H   0  0  0  0  0  0  0  0  0  0  0  0
   -3.8026    7.3586    0.4415 H   0  0  0  0  0  0  0  0  0  0  0  0
   -3.1075    7.5773   -1.2189 H   0  0  0  0  0  0  0  0  0  0  0  0
   -3.7517    9.4014    0.8556 H   0  0  0  0  0  0  0  0  0  0  0  0
   -0.1567    7.9810    0.0987 H   0  0  0  0  0  0  0  0  0  0  0  0
   -1.2308    7.8341   -1.3335 H   0  0  0  0  0  0  0  0  0  0  0  0
    0.1072    9.0326   -1.3335 H   0  0  0  0  0  0  0  0  0  0  0  0
   -1.1025   10.3332    1.8025 H   0  0  0  0  0  0  0  0  0  0  0  0
    0.1375   10.6464    0.5411 H   0  0  0  0  0  0  0  0  0  0  0  0
   -1.3988   11.5773    0.5411 H   0  0  0  0  0  0  0  0  0  0  0  0
   -7.0061    8.5780   -2.4600 H   0  0  0  0  0  0  0  0  0  0  0  0
   -7.2761    7.4754   -4.5931 H   0  0  0  0  0  0  0  0  0  0  0  0
   -6.7550    5.9089   -3.9362 H   0  0  0  0  0  0  0  0  0  0  0  0
   -9.4513    6.6488   -4.5254 H   0  0  0  0  0  0  0  0  0  0  0  0
   -9.0014    5.2619   -3.5367 H   0  0  0  0  0  0  0  0  0  0  0  0
   -9.8833    9.2112   -2.0257 H   0  0  0  0  0  0  0  0  0  0  0  0
   -8.8962    8.9171   -3.4974 H   0  0  0  0  0  0  0  0  0  0  0  0
  -10.6485    8.5219   -3.4974 H   0  0  0  0  0  0  0  0  0  0  0  0
  -10.2934    5.4257   -1.4939 H   0  0  0  0  0  0  0  0  0  0  0  0
  -11.6289    6.2490   -3.5392 H   0  0  0  0  0  0  0  0  0  0  0  0
  -12.4766    5.5067   -2.0837 H   0  0  0  0  0  0  0  0  0  0  0  0
  -13.6232    7.6295   -3.1420 H   0  0  0  0  0  0  0  0  0  0  0  0
  -11.0025    9.1671   -0.4823 H   0  0  0  0  0  0  0  0  0  0  0  0
  -13.2212    7.9259    1.2591 H   0  0  0  0  0  0  0  0  0  0  0  0
  -11.7233    8.7790    1.8417 H   0  0  0  0  0  0  0  0  0  0  0  0
  -13.7339   10.2141    1.9840 H   0  0  0  0  0  0  0  0  0  0  0  0
  -12.4843   10.8590    0.8487 H   0  0  0  0  0  0  0  0  0  0  0  0
  -14.6464   11.1187   -0.1568 H   0  0  0  0  0  0  0  0  0  0  0  0
  -15.2760    8.4750   -0.5040 H   0  0  0  0  0  0  0  0  0  0  0  0
  -12.3449   11.4749   -1.0661 H   0  0  0  0  0  0  0  0  0  0  0  0
  -11.9076   10.5684   -2.5540 H   0  0  0  0  0  0  0  0  0  0  0  0
  -13.3341   11.6601   -2.5540 H   0  0  0  0  0  0  0  0  0  0  0  0
  -15.7644    9.6452   -1.9837 H   0  0  0  0  0  0  0  0  0  0  0  0
  -14.7981   10.6065   -3.1536 H   0  0  0  0  0  0  0  0  0  0  0  0
  -14.6842    8.8138   -3.1536 H   0  0  0  0  0  0  0  0  0  0  0  0
  -11.5713    6.1510    1.6620 H   0  0  0  0  0  0  0  0  0  0  0  0
  -12.7639    6.0286    0.3243 H   0  0  0  0  0  0  0  0  0  0  0  0
  -11.3037    4.9824    0.3243 H   0  0  0  0  0  0  0  0  0  0  0  0
   -9.8243    8.0911    1.3672 H   0  0  0  0  0  0  0  0  0  0  0  0
   -9.2798    6.3623    0.9797 H   0  0  0  0  0  0  0  0  0  0  0  0
   -8.5773    8.9017   -0.5175 H   0  0  0  0  0  0  0  0  0  0  0  0
   -7.4903    7.8131    0.4313 H   0  0  0  0  0  0  0  0  0  0  0  0
   -7.7834    5.5248    0.1245 H   0  0  0  0  0  0  0  0  0  0  0  0
   -8.5440    4.8508   -1.3567 H   0  0  0  0  0  0  0  0  0  0  0  0
   -6.7985    5.2746   -1.3567 H   0  0  0  0  0  0  0  0  0  0  0  0
  1  2  1  0
  2  3  1  0
  3  4  1  0
  4  5  1  0
  5  6  1  0
  6  7  1  0
  7  8  1  0
  7  9  1  0
  2 10  1  0
 10 11  1  0
 11 12  1  0
 12 13  1  0
 13 14  1  6
 13 15  1  0
 15 16  1  0
 16 17  1  0
 17 18  2  0
 18 19  1  0
 19 20  1  0
 20 21  1  0
 21 22  1  0
 22 23  1  0
 22 24  1  0
 24 25  1  0
 24 26  1  0
 19 27  1  0
 27 28  1  1
 27 29  1  0
 29 30  1  0
 30 31  1  0
 31 32  1  1
  7  5  1  0
 31 10  1  0
 31 13  1  0
 27 15  1  0
 24 18  1  0
  1 33  1  0
  1 34  1  0
  1 35  1  0
  2 36  1  6
  3 37  1  0
  3 38  1  0
  4 39  1  0
  4 40  1  0
  5 41  1  1
  8 42  1  0
  8 43  1  0
  8 44  1  0
  9 45  1  0
  9 46  1  0
  9 47  1  0
 10 48  1  6
 11 49  1  0
 11 50  1  0
 12 51  1  0
 12 52  1  0
 14 53  1  0
 14 54  1  0
 14 55  1  0
 15 56  1  1
 16 57  1  0
 16 58  1  0
 17 59  1  0
 19 60  1  6
 20 61  1  0
 20 62  1  0
 21 63  1  0
 21 64  1  0
 22 65  1  6
 23 66  1  0
 25 67  1  0
 25 68  1  0
 25 69  1  0
 26 70  1  0
 26 71  1  0
 26 72  1  0
 28 73  1  0
 28 74  1  0
 28 75  1  0
 29 76  1  0
 29 77  1  0
 30 78  1  0
 30 79  1  0
 32 80  1  0
 32 81  1  0
 32 82  1  0
M  END
>  <meeko>  (1) 
{"is_sidechain": [false], "intermolecular_energy": 2.731, "internal_energy": -0.839}

$$$$
EPH_relaxed_0001_pdb2pqr_Repair_256_r2_0001_out
     RDKit          3D

 82 86  0  0  0  0  0  0  0  0999 V2000
   -4.8730    8.6970   -0.3620 C   0  0  0  0  0  0  0  0  0  0  0  0
   -5.1580    7.5310   -1.3120 C   0  0  2  0  0  0  0  0  0  0  0  0
   -4.1350    7.4560   -2.4630 C   0  0  0  0  0  0  0  0  0  0  0  0
   -2.6810    7.3860   -1.9900 C   0  0  0  0  0  0  0  0  0  0  0  0
   -2.1860    8.7200   -1.5180 C   0  0  2  0  0  0  0  0  0  0  0  0
   -0.9620    9.1540   -2.1250 O   0  0  0  0  0  0  0  0  0  0  0  0
   -0.9150    8.9030   -0.7110 C   0  0  0  0  0  0  0  0  0  0  0  0
   -0.0590    7.7370   -0.3280 C   0  0  0  0  0  0  0  0  0  0  0  0
   -0.7650   10.1420    0.1160 C   0  0  0  0  0  0  0  0  0  0  0  0
   -6.5690    7.6540   -1.8770 C   0  0  1  0  0  0  0  0  0  0  0  0
   -6.7390    6.9100   -3.2280 C   0  0  0  0  0  0  0  0  0  0  0  0
   -8.1820    6.3450   -3.2490 C   0  0  0  0  0  0  0  0  0  0  0  0
   -8.8960    7.0560   -2.0750 C   0  0  1  0  0  0  0  0  0  0  0  0
   -9.3010    8.4540   -2.6390 C   0  0  0  0  0  0  0  0  0  0  0  0
  -10.1210    6.3070   -1.4560 C   0  0  2  0  0  0  0  0  0  0  0  0
  -11.3020    6.0810   -2.4170 C   0  0  0  0  0  0  0  0  0  0  0  0
  -12.3280    7.1650   -2.4310 C   0  0  0  0  0  0  0  0  0  0  0  0
  -12.4560    8.1330   -1.5050 C   0  0  0  0  0  0  0  0  0  0  0  0
  -11.5730    8.1460   -0.2510 C   0  0  1  0  0  0  0  0  0  0  0  0
  -12.4530    8.4050    1.0000 C   0  0  0  0  0  0  0  0  0  0  0  0
  -13.2980    9.6680    0.8690 C   0  0  0  0  0  0  0  0  0  0  0  0
  -14.2050    9.5930   -0.3570 C   0  0  2  0  0  0  0  0  0  0  0  0
  -15.1750    8.5620   -0.1500 O   0  0  0  0  0  0  0  0  0  0  0  0
  -13.4300    9.3250   -1.6770 C   0  0  0  0  0  0  0  0  0  0  0  0
  -12.6020   10.5780   -2.0580 C   0  0  0  0  0  0  0  0  0  0  0  0
  -14.4720    9.1320   -2.8110 C   0  0  0  0  0  0  0  0  0  0  0  0
  -10.6080    6.8960   -0.0700 C   0  0  1  0  0  0  0  0  0  0  0  0
  -11.3610    5.7440    0.6630 C   0  0  0  0  0  0  0  0  0  0  0  0
   -9.4070    7.3040    0.8620 C   0  0  0  0  0  0  0  0  0  0  0  0
   -8.1770    7.9300    0.1760 C   0  0  0  0  0  0  0  0  0  0  0  0
   -7.7290    7.0870   -1.0220 C   0  0  2  0  0  0  0  0  0  0  0  0
   -7.2950    5.6810   -0.4830 C   0  0  0  0  0  0  0  0  0  0  0  0
   -4.9576    8.3511    0.6788 H   0  0  0  0  0  0  0  0  0  0  0  0
   -3.8559    9.0756   -0.5411 H   0  0  0  0  0  0  0  0  0  0  0  0
   -5.6008    9.5022   -0.5411 H   0  0  0  0  0  0  0  0  0  0  0  0
   -5.0695    6.6014   -0.7306 H   0  0  0  0  0  0  0  0  0  0  0  0
   -4.3495    6.5576   -3.0604 H   0  0  0  0  0  0  0  0  0  0  0  0
   -4.2390    8.3826   -3.0466 H   0  0  0  0  0  0  0  0  0  0  0  0
   -2.6101    6.6660   -1.1614 H   0  0  0  0  0  0  0  0  0  0  0  0
   -2.0588    7.0710   -2.8407 H   0  0  0  0  0  0  0  0  0  0  0  0
   -3.2161    9.0729   -1.3620 H   0  0  0  0  0  0  0  0  0  0  0  0
   -0.0063    7.6653    0.7684 H   0  0  0  0  0  0  0  0  0  0  0  0
   -0.4947    6.8128   -0.7354 H   0  0  0  0  0  0  0  0  0  0  0  0
    0.9533    7.8758   -0.7354 H   0  0  0  0  0  0  0  0  0  0  0  0
   -0.7971    9.8767    1.1831 H   0  0  0  0  0  0  0  0  0  0  0  0
    0.1978   10.6218   -0.1137 H   0  0  0  0  0  0  0  0  0  0  0  0
   -1.5855   10.8377   -0.1137 H   0  0  0  0  0  0  0  0  0  0  0  0
   -6.6479    8.7494   -1.9384 H   0  0  0  0  0  0  0  0  0  0  0  0
   -6.5933    7.6079   -4.0657 H   0  0  0  0  0  0  0  0  0  0  0  0
   -5.9977    6.1038   -3.3308 H   0  0  0  0  0  0  0  0  0  0  0  0
   -8.6768    6.5786   -4.2033 H   0  0  0  0  0  0  0  0  0  0  0  0
   -8.2029    5.2498   -3.1485 H   0  0  0  0  0  0  0  0  0  0  0  0
   -9.5004    9.1423   -1.8045 H   0  0  0  0  0  0  0  0  0  0  0  0
   -8.4813    8.8523   -3.2550 H   0  0  0  0  0  0  0  0  0  0  0  0
  -10.2067    8.3525   -3.2550 H   0  0  0  0  0  0  0  0  0  0  0  0
   -9.7077    5.3084   -1.2511 H   0  0  0  0  0  0  0  0  0  0  0  0
  -10.8977    5.9822   -3.4352 H   0  0  0  0  0  0  0  0  0  0  0  0
  -11.8178    5.1779   -2.0587 H   0  0  0  0  0  0  0  0  0  0  0  0
  -13.0400    7.1733   -3.2695 H   0  0  0  0  0  0  0  0  0  0  0  0
  -10.8644    8.9763   -0.3868 H   0  0  0  0  0  0  0  0  0  0  0  0
  -13.1239    7.5451    1.1434 H   0  0  0  0  0  0  0  0  0  0  0  0
  -11.7800    8.5410    1.8594 H   0  0  0  0  0  0  0  0  0  0  0  0
  -13.9190    9.7807    1.7699 H   0  0  0  0  0  0  0  0  0  0  0  0
  -12.6249   10.5306    0.7555 H   0  0  0  0  0  0  0  0  0  0  0  0
  -14.6875   10.5749   -0.4713 H   0  0  0  0  0  0  0  0  0  0  0  0
  -14.7540    7.7140   -0.3720 H   0  0  0  0  0  0  0  0  0  0  0  0
  -12.2655   11.0873   -1.1429 H   0  0  0  0  0  0  0  0  0  0  0  0
  -11.7270   10.2730   -2.6508 H   0  0  0  0  0  0  0  0  0  0  0  0
  -13.2257   11.2633   -2.6508 H   0  0  0  0  0  0  0  0  0  0  0  0
  -15.4632    8.9484   -2.3708 H   0  0  0  0  0  0  0  0  0  0  0  0
  -14.5092   10.0385   -3.4329 H   0  0  0  0  0  0  0  0  0  0  0  0
  -14.1821    8.2723   -3.4329 H   0  0  0  0  0  0  0  0  0  0  0  0
  -11.2713    5.8812    1.7507 H   0  0  0  0  0  0  0  0  0  0  0  0
  -12.4232    5.7605    0.3777 H   0  0  0  0  0  0  0  0  0  0  0  0
  -10.9196    4.7777    0.3777 H   0  0  0  0  0  0  0  0  0  0  0  0
   -9.7863    8.0321    1.5941 H   0  0  0  0  0  0  0  0  0  0  0  0
   -9.0455    6.3600    1.2957 H   0  0  0  0  0  0  0  0  0  0  0  0
   -8.4348    8.9412   -0.1719 H   0  0  0  0  0  0  0  0  0  0  0  0
   -7.3529    7.9714    0.9035 H   0  0  0  0  0  0  0  0  0  0  0  0
   -7.2987    5.6929    0.6169 H   0  0  0  0  0  0  0  0  0  0  0  0
   -7.9990    4.9167   -0.8438 H   0  0  0  0  0  0  0  0  0  0  0  0
   -6.2827    5.4465   -0.8438 H   0  0  0  0  0  0  0  0  0  0  0  0
  1  2  1  0
  2  3  1  0
  3  4  1  0
  4  5  1  0
  5  6  1  0
  6  7  1  0
  7  8  1  0
  7  9  1  0
  2 10  1  0
 10 11  1  0
 11 12  1  0
 12 13  1  0
 13 14  1  6
 13 15  1  0
 15 16  1  0
 16 17  1  0
 17 18  2  0
 18 19  1  0
 19 20  1  0
 20 21  1  0
 21 22  1  0
 22 23  1  0
 22 24  1  0
 24 25  1  0
 24 26  1  0
 19 27  1  0
 27 28  1  1
 27 29  1  0
 29 30  1  0
 30 31  1  0
 31 32  1  1
  7  5  1  0
 31 10  1  0
 31 13  1  0
 27 15  1  0
 24 18  1  0
  1 33  1  0
  1 34  1  0
  1 35  1  0
  2 36  1  1
  3 37  1  0
  3 38  1  0
  4 39  1  0
  4 40  1  0
  5 41  1  1
  8 42  1  0
  8 43  1  0
  8 44  1  0
  9 45  1  0
  9 46  1  0
  9 47  1  0
 10 48  1  6
 11 49  1  0
 11 50  1  0
 12 51  1  0
 12 52  1  0
 14 53  1  0
 14 54  1  0
 14 55  1  0
 15 56  1  1
 16 57  1  0
 16 58  1  0
 17 59  1  0
 19 60  1  6
 20 61  1  0
 20 62  1  0
 21 63  1  0
 21 64  1  0
 22 65  1  6
 23 66  1  0
 25 67  1  0
 25 68  1  0
 25 69  1  0
 26 70  1  0
 26 71  1  0
 26 72  1  0
 28 73  1  0
 28 74  1  0
 28 75  1  0
 29 76  1  0
 29 77  1  0
 30 78  1  0
 30 79  1  0
 32 80  1  0
 32 81  1  0
 32 82  1  0
M  END
>  <meeko>  (2) 
{"is_sidechain": [false], "intermolecular_energy": 2.731, "internal_energy": -0.839}

$$$$
EPH_relaxed_0001_pdb2pqr_Repair_256_r2_0001_out
     RDKit          3D

 82 86  0  0  0  0  0  0  0  0999 V2000
  -14.3590    5.4840    0.4580 C   0  0  0  0  0  0  0  0  0  0  0  0
  -13.8070    6.9050    0.3130 C   0  0  2  0  0  0  0  0  0  0  0  0
  -14.9160    7.9300    0.0040 C   0  0  0  0  0  0  0  0  0  0  0  0
  -14.4660    9.3860    0.1500 C   0  0  0  0  0  0  0  0  0  0  0  0
  -15.2130   10.2930   -0.7800 C   0  0  2  0  0  0  0  0  0  0  0  0
  -15.1130    9.9440   -2.1660 O   0  0  0  0  0  0  0  0  0  0  0  0
  -14.5350   11.2030   -1.7860 C   0  0  0  0  0  0  0  0  0  0  0  0
  -13.0440   11.2520   -1.9130 C   0  0  0  0  0  0  0  0  0  0  0  0
  -15.2870   12.3910   -2.2980 C   0  0  0  0  0  0  0  0  0  0  0  0
  -12.7460    6.9400   -0.7810 C   0  0  1  0  0  0  0  0  0  0  0  0
  -13.1080    7.9160   -1.9330 C   0  0  0  0  0  0  0  0  0  0  0  0
  -11.7760    8.5350   -2.4300 C   0  0  0  0  0  0  0  0  0  0  0  0
  -10.6750    7.6610   -1.7850 C   0  0  1  0  0  0  0  0  0  0  0  0
  -10.5760    6.4000   -2.7010 C   0  0  0  0  0  0  0  0  0  0  0  0
   -9.2810    8.3410   -1.5870 C   0  0  2  0  0  0  0  0  0  0  0  0
   -8.5780    8.7790   -2.8830 C   0  0  0  0  0  0  0  0  0  0  0  0
   -7.6790    7.7580   -3.4980 C   0  0  0  0  0  0  0  0  0  0  0  0
   -7.2220    6.6500   -2.8870 C   0  0  0  0  0  0  0  0  0  0  0  0
   -7.5280    6.3820   -1.4080 C   0  0  1  0  0  0  0  0  0  0  0  0
   -6.2290    5.9450   -0.6810 C   0  0  0  0  0  0  0  0  0  0  0  0
   -5.5490    4.7600   -1.3600 C   0  0  0  0  0  0  0  0  0  0  0  0
   -5.2080    5.0860   -2.8110 C   0  0  2  0  0  0  0  0  0  0  0  0
   -4.2040    6.1050   -2.8320 O   0  0  0  0  0  0  0  0  0  0  0  0
   -6.4380    5.5470   -3.6410 C   0  0  0  0  0  0  0  0  0  0  0  0
   -7.3890    4.3470   -3.8740 C   0  0  0  0  0  0  0  0  0  0  0  0
   -5.9330    5.9790   -5.0450 C   0  0  0  0  0  0  0  0  0  0  0  0
   -8.2990    7.5400   -0.6390 C   0  0  1  0  0  0  0  0  0  0  0  0
   -7.2780    8.5770   -0.0780 C   0  0  0  0  0  0  0  0  0  0  0  0
   -9.0380    6.9260    0.6080 C   0  0  0  0  0  0  0  0  0  0  0  0
  -10.4590    6.3790    0.3730 C   0  0  0  0  0  0  0  0  0  0  0  0
  -11.3220    7.3980   -0.3770 C   0  0  2  0  0  0  0  0  0  0  0  0
  -11.4580    8.6690    0.5300 C   0  0  0  0  0  0  0  0  0  0  0  0
  -14.4556    5.2353    1.5252 H   0  0  0  0  0  0  0  0  0  0  0  0
  -15.3461    5.4232   -0.0235 H   0  0  0  0  0  0  0  0  0  0  0  0
  -13.6718    4.7728   -0.0235 H   0  0  0  0  0  0  0  0  0  0  0  0
  -13.3576    7.1860    1.2769 H   0  0  0  0  0  0  0  0  0  0  0  0
  -15.2552    7.7734   -1.0306 H   0  0  0  0  0  0  0  0  0  0  0  0
  -15.7187    7.7664    0.7381 H   0  0  0  0  0  0  0  0  0  0  0  0
  -14.6441    9.7120    1.1854 H   0  0  0  0  0  0  0  0  0  0  0  0
  -13.3968    9.4414   -0.1024 H   0  0  0  0  0  0  0  0  0  0  0  0
  -15.9813   10.4813   -0.0156 H   0  0  0  0  0  0  0  0  0  0  0  0
  -12.5909   11.2669   -0.9107 H   0  0  0  0  0  0  0  0  0  0  0  0
  -12.6933   10.3649   -2.4608 H   0  0  0  0  0  0  0  0  0  0  0  0
  -12.7523   12.1602   -2.4608 H   0  0  0  0  0  0  0  0  0  0  0  0
  -15.6611   12.9820   -1.4490 H   0  0  0  0  0  0  0  0  0  0  0  0
  -14.6175   13.0126   -2.9107 H   0  0  0  0  0  0  0  0  0  0  0  0
  -16.1353   12.0518   -2.9107 H   0  0  0  0  0  0  0  0  0  0  0  0
  -12.7341    5.8761   -1.0601 H   0  0  0  0  0  0  0  0  0  0  0  0
  -13.6006    7.3702   -2.7512 H   0  0  0  0  0  0  0  0  0  0  0  0
  -13.8011    8.6966   -1.5862 H   0  0  0  0  0  0  0  0  0  0  0  0
  -11.7132    8.4915   -3.5273 H   0  0  0  0  0  0  0  0  0  0  0  0
  -11.6808    9.5959   -2.1552 H   0  0  0  0  0  0  0  0  0  0  0  0
  -10.5051    5.4975   -2.0761 H   0  0  0  0  0  0  0  0  0  0  0  0
  -11.4720    6.3369   -3.3360 H   0  0  0  0  0  0  0  0  0  0  0  0
   -9.6812    6.4774   -3.3360 H   0  0  0  0  0  0  0  0  0  0  0  0
   -9.5447    9.2711   -1.0623 H   0  0  0  0  0  0  0  0  0  0  0  0
   -9.3532    9.0369   -3.6196 H   0  0  0  0  0  0  0  0  0  0  0  0
   -7.9324    9.6259   -2.6074 H   0  0  0  0  0  0  0  0  0  0  0  0
   -7.3637    7.9258   -4.5384 H   0  0  0  0  0  0  0  0  0  0  0  0
   -8.2582    5.5595   -1.3924 H   0  0  0  0  0  0  0  0  0  0  0  0
   -5.5292    6.7936   -0.6688 H   0  0  0  0  0  0  0  0  0  0  0  0
   -6.5049    5.6332    0.3372 H   0  0  0  0  0  0  0  0  0  0  0  0
   -4.6230    4.5173   -0.8182 H   0  0  0  0  0  0  0  0  0  0  0  0
   -6.2387    3.9032   -1.3451 H   0  0  0  0  0  0  0  0  0  0  0  0
   -4.8431    4.1599   -3.2793 H   0  0  0  0  0  0  0  0  0  0  0  0
   -4.4470    6.7710   -2.1670 H   0  0  0  0  0  0  0  0  0  0  0  0
   -7.7110    3.9406   -2.9039 H   0  0  0  0  0  0  0  0  0  0  0  0
   -8.2696    4.6819   -4.4418 H   0  0  0  0  0  0  0  0  0  0  0  0
   -6.8618    3.5662   -4.4418 H   0  0  0  0  0  0  0  0  0  0  0  0
   -5.1015    6.6903   -4.9327 H   0  0  0  0  0  0  0  0  0  0  0  0
   -5.5861    5.0938   -5.5983 H   0  0  0  0  0  0  0  0  0  0  0  0
   -6.7538    6.4588   -5.5983 H   0  0  0  0  0  0  0  0  0  0  0  0
   -7.2997    8.5550    1.0216 H   0  0  0  0  0  0  0  0  0  0  0  0
   -6.2671    8.3236   -0.4300 H   0  0  0  0  0  0  0  0  0  0  0  0
   -7.5471    9.5838   -0.4300 H   0  0  0  0  0  0  0  0  0  0  0  0
   -8.4208    6.0977    0.9861 H   0  0  0  0  0  0  0  0  0  0  0  0
   -9.1643    7.7640    1.3093 H   0  0  0  0  0  0  0  0  0  0  0  0
  -10.3953    5.4552   -0.2208 H   0  0  0  0  0  0  0  0  0  0  0  0
  -10.9232    6.1779    1.3498 H   0  0  0  0  0  0  0  0  0  0  0  0
  -11.4260    8.3696    1.5880 H   0  0  0  0  0  0  0  0  0  0  0  0
  -10.6287    9.3603    0.3193 H   0  0  0  0  0  0  0  0  0  0  0  0
  -12.4148    9.1692    0.3193 H   0  0  0  0  0  0  0  0  0  0  0  0
  1  2  1  0
  2  3  1  0
  3  4  1  0
  4  5  1  0
  5  6  1  0
  6  7  1  0
  7  8  1  0
  7  9  1  0
  2 10  1  0
 10 11  1  0
 11 12  1  0
 12 13  1  0
 13 14  1  6
 13 15  1  0
 15 16  1  0
 16 17  1  0
 17 18  2  0
 18 19  1  0
 19 20  1  0
 20 21  1  0
 21 22  1  0
 22 23  1  0
 22 24  1  0
 24 25  1  0
 24 26  1  0
 19 27  1  0
 27 28  1  1
 27 29  1  0
 29 30  1  0
 30 31  1  0
 31 32  1  1
  7  5  1  0
 31 10  1  0
 31 13  1  0
 27 15  1  0
 24 18  1  0
  1 33  1  0
  1 34  1  0
  1 35  1  0
  2 36  1  1
  3 37  1  0
  3 38  1  0
  4 39  1  0
  4 40  1  0
  5 41  1  1
  8 42  1  0
  8 43  1  0
  8 44  1  0
  9 45  1  0
  9 46  1  0
  9 47  1  0
 10 48  1  6
 11 49  1  0
 11 50  1  0
 12 51  1  0
 12 52  1  0
 14 53  1  0
 14 54  1  0
 14 55  1  0
 15 56  1  1
 16 57  1  0
 16 58  1  0
 17 59  1  0
 19 60  1  6
 20 61  1  0
 20 62  1  0
 21 63  1  0
 21 64  1  0
 22 65  1  6
 23 66  1  0
 25 67  1  0
 25 68  1  0
 25 69  1  0
 26 70  1  0
 26 71  1  0
 26 72  1  0
 28 73  1  0
 28 74  1  0
 28 75  1  0
 29 76  1  0
 29 77  1  0
 30 78  1  0
 30 79  1  0
 32 80  1  0
 32 81  1  0
 32 82  1  0
M  END
>  <meeko>  (3) 
{"is_sidechain": [false], "intermolecular_energy": 2.731, "internal_energy": -0.839}

$$$$
EPH_relaxed_0001_pdb2pqr_Repair_256_r2_0001_out
     RDKit          3D

 82 86  0  0  0  0  0  0  0  0999 V2000
  -15.1520    8.9640    0.5790 C   0  0  0  0  0  0  0  0  0  0  0  0
  -14.2710    9.2040   -0.6510 C   0  0  2  0  0  0  0  0  0  0  0  0
  -14.6190    8.2480   -1.8090 C   0  0  0  0  0  0  0  0  0  0  0  0
  -14.5810    8.9130   -3.1880 C   0  0  0  0  0  0  0  0  0  0  0  0
  -15.2490   10.2550   -3.1750 C   0  0  2  0  0  0  0  0  0  0  0  0
  -14.8650   11.1250   -4.2480 O   0  0  0  0  0  0  0  0  0  0  0  0
  -14.5090   11.5550   -2.9240 C   0  0  0  0  0  0  0  0  0  0  0  0
  -13.0340   11.5770   -2.6670 C   0  0  0  0  0  0  0  0  0  0  0  0
  -15.2870   12.7410   -2.4450 C   0  0  0  0  0  0  0  0  0  0  0  0
  -12.8020    9.0540   -0.2740 C   0  0  1  0  0  0  0  0  0  0  0  0
  -12.5730    9.0730    1.2610 C   0  0  0  0  0  0  0  0  0  0  0  0
  -11.4000    8.1020    1.5500 C   0  0  0  0  0  0  0  0  0  0  0  0
  -10.7800    7.8150    0.1630 C   0  0  1  0  0  0  0  0  0  0  0  0
   -9.8590    9.0410   -0.1270 C   0  0  0  0  0  0  0  0  0  0  0  0
  -10.0060    6.4640    0.0180 C   0  0  2  0  0  0  0  0  0  0  0  0
   -8.7690    6.3210    0.9210 C   0  0  0  0  0  0  0  0  0  0  0  0
   -7.4850    6.7970    0.3250 C   0  0  0  0  0  0  0  0  0  0  0  0
   -7.2770    7.0530   -0.9800 C   0  0  0  0  0  0  0  0  0  0  0  0
   -8.3680    6.7720   -2.0220 C   0  0  1  0  0  0  0  0  0  0  0  0
   -7.7470    6.0300   -3.2340 C   0  0  0  0  0  0  0  0  0  0  0  0
   -6.5520    6.7730   -3.8260 C   0  0  0  0  0  0  0  0  0  0  0  0
   -5.4650    6.9810   -2.7750 C   0  0  2  0  0  0  0  0  0  0  0  0
   -4.9230    5.7070   -2.4140 O   0  0  0  0  0  0  0  0  0  0  0  0
   -5.9760    7.7110   -1.5010 C   0  0  0  0  0  0  0  0  0  0  0  0
   -6.2810    9.1920   -1.8380 C   0  0  0  0  0  0  0  0  0  0  0  0
   -4.8190    7.7310   -0.4660 C   0  0  0  0  0  0  0  0  0  0  0  0
   -9.6800    6.0610   -1.4770 C   0  0  1  0  0  0  0  0  0  0  0  0
   -9.4900    4.5130   -1.4890 C   0  0  0  0  0  0  0  0  0  0  0  0
  -10.8750    6.3690   -2.4540 C   0  0  0  0  0  0  0  0  0  0  0  0
  -11.6770    7.6570   -2.1870 C   0  0  0  0  0  0  0  0  0  0  0  0
  -12.0840    7.7540   -0.7140 C   0  0  2  0  0  0  0  0  0  0  0  0
  -13.0300    6.5450   -0.3990 C   0  0  0  0  0  0  0  0  0  0  0  0
  -14.5594    9.1254    1.4916 H   0  0  0  0  0  0  0  0  0  0  0  0
  -16.0007    9.6637    0.5643 H   0  0  0  0  0  0  0  0  0  0  0  0
  -15.5285    7.9306    0.5643 H   0  0  0  0  0  0  0  0  0  0  0  0
  -14.4619   10.2291   -1.0012 H   0  0  0  0  0  0  0  0  0  0  0  0
  -13.8969    7.4182   -1.8034 H   0  0  0  0  0  0  0  0  0  0  0  0
  -15.6516    7.9063   -1.6449 H   0  0  0  0  0  0  0  0  0  0  0  0
  -13.5320    9.0399   -3.4938 H   0  0  0  0  0  0  0  0  0  0  0  0
  -15.1224    8.2673   -3.8951 H   0  0  0  0  0  0  0  0  0  0  0  0
  -16.1573    9.8250   -2.7277 H   0  0  0  0  0  0  0  0  0  0  0  0
  -12.8508   11.5797   -1.5824 H   0  0  0  0  0  0  0  0  0  0  0  0
  -12.5704   10.6857   -3.1149 H   0  0  0  0  0  0  0  0  0  0  0  0
  -12.5972   12.4818   -3.1149 H   0  0  0  0  0  0  0  0  0  0  0  0
  -15.2955   12.7540   -1.3451 H   0  0  0  0  0  0  0  0  0  0  0  0
  -14.8176   13.6628   -2.8190 H   0  0  0  0  0  0  0  0  0  0  0  0
  -16.3195   12.6776   -2.8190 H   0  0  0  0  0  0  0  0  0  0  0  0
  -12.3846    9.9159   -0.8152 H   0  0  0  0  0  0  0  0  0  0  0  0
  -12.3140   10.0893    1.5928 H   0  0  0  0  0  0  0  0  0  0  0  0
  -13.4816    8.7662    1.7998 H   0  0  0  0  0  0  0  0  0  0  0  0
  -10.6614    8.5726    2.2156 H   0  0  0  0  0  0  0  0  0  0  0  0
  -11.7336    7.1839    2.0557 H   0  0  0  0  0  0  0  0  0  0  0  0
   -9.5269    9.4831    0.8239 H   0  0  0  0  0  0  0  0  0  0  0  0
   -8.9824    8.7126   -0.7047 H   0  0  0  0  0  0  0  0  0  0  0  0
  -10.4186    9.7915   -0.7047 H   0  0  0  0  0  0  0  0  0  0  0  0
  -10.7363    5.7322    0.3937 H   0  0  0  0  0  0  0  0  0  0  0  0
   -8.9510    6.8969    1.8403 H   0  0  0  0  0  0  0  0  0  0  0  0
   -8.6422    5.2422    1.0944 H   0  0  0  0  0  0  0  0  0  0  0  0
   -6.6382    6.9513    1.0099 H   0  0  0  0  0  0  0  0  0  0  0  0
   -8.7457    7.7549   -2.3403 H   0  0  0  0  0  0  0  0  0  0  0  0
   -7.4153    5.0340   -2.9054 H   0  0  0  0  0  0  0  0  0  0  0  0
   -8.5185    5.9627   -4.0152 H   0  0  0  0  0  0  0  0  0  0  0  0
   -6.1395    6.1854   -4.6594 H   0  0  0  0  0  0  0  0  0  0  0  0
   -6.8909    7.7575   -4.1808 H   0  0  0  0  0  0  0  0  0  0  0  0
   -4.6954    7.6286   -3.2204 H   0  0  0  0  0  0  0  0  0  0  0  0
   -5.5710    5.2630   -1.8410 H   0  0  0  0  0  0  0  0  0  0  0  0
   -6.3987    9.7635   -0.9055 H   0  0  0  0  0  0  0  0  0  0  0  0
   -5.4508    9.6132   -2.4239 H   0  0  0  0  0  0  0  0  0  0  0  0
   -7.2101    9.2509   -2.4239 H   0  0  0  0  0  0  0  0  0  0  0  0
   -5.2370    7.7238    0.5514 H   0  0  0  0  0  0  0  0  0  0  0  0
   -4.1846    6.8437   -0.6081 H   0  0  0  0  0  0  0  0  0  0  0  0
   -4.2156    8.6397   -0.6081 H   0  0  0  0  0  0  0  0  0  0  0  0
   -9.4444    4.1412   -0.4548 H   0  0  0  0  0  0  0  0  0  0  0  0
  -10.3373    4.0436   -2.0104 H   0  0  0  0  0  0  0  0  0  0  0  0
   -8.5544    4.2624   -2.0104 H   0  0  0  0  0  0  0  0  0  0  0  0
  -10.4632    6.4384   -3.4717 H   0  0  0  0  0  0  0  0  0  0  0  0
  -11.5906    5.5477   -2.3009 H   0  0  0  0  0  0  0  0  0  0  0  0
  -11.0568    8.5275   -2.4470 H   0  0  0  0  0  0  0  0  0  0  0  0
  -12.5887    7.6362   -2.8021 H   0  0  0  0  0  0  0  0  0  0  0  0
  -13.1229    6.4263    0.6906 H   0  0  0  0  0  0  0  0  0  0  0  0
  -14.0229    6.7335   -0.8333 H   0  0  0  0  0  0  0  0  0  0  0  0
  -12.6082    5.6266   -0.8333 H   0  0  0  0  0  0  0  0  0  0  0  0
  1  2  1  0
  2  3  1  0
  3  4  1  0
  4  5  1  0
  5  6  1  0
  6  7  1  0
  7  8  1  0
  7  9  1  0
  2 10  1  0
 10 11  1  0
 11 12  1  0
 12 13  1  0
 13 14  1  6
 13 15  1  0
 15 16  1  0
 16 17  1  0
 17 18  2  0
 18 19  1  0
 19 20  1  0
 20 21  1  0
 21 22  1  0
 22 23  1  0
 22 24  1  0
 24 25  1  0
 24 26  1  0
 19 27  1  0
 27 28  1  1
 27 29  1  0
 29 30  1  0
 30 31  1  0
 31 32  1  1
  7  5  1  0
 31 10  1  0
 31 13  1  0
 27 15  1  0
 24 18  1  0
  1 33  1  0
  1 34  1  0
  1 35  1  0
  2 36  1  6
  3 37  1  0
  3 38  1  0
  4 39  1  0
  4 40  1  0
  5 41  1  1
  8 42  1  0
  8 43  1  0
  8 44  1  0
  9 45  1  0
  9 46  1  0
  9 47  1  0
 10 48  1  6
 11 49  1  0
 11 50  1  0
 12 51  1  0
 12 52  1  0
 14 53  1  0
 14 54  1  0
 14 55  1  0
 15 56  1  1
 16 57  1  0
 16 58  1  0
 17 59  1  0
 19 60  1  6
 20 61  1  0
 20 62  1  0
 21 63  1  0
 21 64  1  0
 22 65  1  6
 23 66  1  0
 25 67  1  0
 25 68  1  0
 25 69  1  0
 26 70  1  0
 26 71  1  0
 26 72  1  0
 28 73  1  0
 28 74  1  0
 28 75  1  0
 29 76  1  0
 29 77  1  0
 30 78  1  0
 30 79  1  0
 32 80  1  0
 32 81  1  0
 32 82  1  0
M  END
>  <meeko>  (4) 
{"is_sidechain": [false], "intermolecular_energy": 2.731, "internal_energy": -0.839}

$$$$
EPH_relaxed_0001_pdb2pqr_Repair_256_r2_0001_out
     RDKit          3D

 82 86  0  0  0  0  0  0  0  0999 V2000
  -14.0530    9.7500    0.8400 C   0  0  0  0  0  0  0  0  0  0  0  0
  -13.3830    9.2820   -0.4550 C   0  0  2  0  0  0  0  0  0  0  0  0
  -14.2960    8.3490   -1.2770 C   0  0  0  0  0  0  0  0  0  0  0  0
  -14.5260    8.8230   -2.7140 C   0  0  0  0  0  0  0  0  0  0  0  0
  -15.2410   10.1400   -2.7560 C   0  0  2  0  0  0  0  0  0  0  0  0
  -15.0370   10.8940   -3.9580 O   0  0  0  0  0  0  0  0  0  0  0  0
  -14.5290   11.4800   -2.7470 C   0  0  0  0  0  0  0  0  0  0  0  0
  -13.0360   11.5700   -2.6940 C   0  0  0  0  0  0  0  0  0  0  0  0
  -15.2870   12.6900   -2.2990 C   0  0  0  0  0  0  0  0  0  0  0  0
  -12.0700    8.5760   -0.1350 C   0  0  1  0  0  0  0  0  0  0  0  0
  -12.2310    7.4770    0.9480 C   0  0  0  0  0  0  0  0  0  0  0  0
  -11.2470    6.3370    0.5780 C   0  0  0  0  0  0  0  0  0  0  0  0
  -10.3240    6.9530   -0.5000 C   0  0  1  0  0  0  0  0  0  0  0  0
   -9.2670    7.7780    0.3000 C   0  0  0  0  0  0  0  0  0  0  0  0
   -9.6460    5.9470   -1.4860 C   0  0  2  0  0  0  0  0  0  0  0  0
   -8.6880    4.9370   -0.8300 C   0  0  0  0  0  0  0  0  0  0  0  0
   -7.2640    5.3750   -0.7400 C   0  0  0  0  0  0  0  0  0  0  0  0
   -6.7170    6.4020   -1.4170 C   0  0  0  0  0  0  0  0  0  0  0  0
   -7.5310    7.1830   -2.4560 C   0  0  1  0  0  0  0  0  0  0  0  0
   -6.6880    7.3670   -3.7450 C   0  0  0  0  0  0  0  0  0  0  0  0
   -5.3290    8.0040   -3.4690 C   0  0  0  0  0  0  0  0  0  0  0  0
   -4.5260    7.1680   -2.4760 C   0  0  2  0  0  0  0  0  0  0  0  0
   -4.1910    5.9190   -3.0900 O   0  0  0  0  0  0  0  0  0  0  0  0
   -5.2800    6.9090   -1.1420 C   0  0  0  0  0  0  0  0  0  0  0  0
   -5.3750    8.2260   -0.3340 C   0  0  0  0  0  0  0  0  0  0  0  0
   -4.4200    5.9380   -0.2880 C   0  0  0  0  0  0  0  0  0  0  0  0
   -8.9900    6.6260   -2.7550 C   0  0  1  0  0  0  0  0  0  0  0  0
   -8.9230    5.5300   -3.8620 C   0  0  0  0  0  0  0  0  0  0  0  0
   -9.8760    7.7910   -3.3360 C   0  0  0  0  0  0  0  0  0  0  0  0
  -10.6160    8.6760   -2.3150 C   0  0  0  0  0  0  0  0  0  0  0  0
  -11.3690    7.8210   -1.2920 C   0  0  2  0  0  0  0  0  0  0  0  0
  -12.4540    6.9960   -2.0650 C   0  0  0  0  0  0  0  0  0  0  0  0
  -13.4944    9.3598    1.7036 H   0  0  0  0  0  0  0  0  0  0  0  0
  -14.0586   10.8495    0.8733 H   0  0  0  0  0  0  0  0  0  0  0  0
  -15.0872    9.3769    0.8733 H   0  0  0  0  0  0  0  0  0  0  0  0
  -13.1860   10.1745   -1.0670 H   0  0  0  0  0  0  0  0  0  0  0  0
  -13.8336    7.3515   -1.3102 H   0  0  0  0  0  0  0  0  0  0  0  0
  -15.2775    8.3403   -0.7804 H   0  0  0  0  0  0  0  0  0  0  0  0
  -13.5522    8.9300   -3.2142 H   0  0  0  0  0  0  0  0  0  0  0  0
  -15.1519    8.0767   -3.2251 H   0  0  0  0  0  0  0  0  0  0  0  0
  -16.0646    9.7386   -2.1472 H   0  0  0  0  0  0  0  0  0  0  0  0
  -12.7069   11.5898   -1.6446 H   0  0  0  0  0  0  0  0  0  0  0  0
  -12.5979   10.6966   -3.1992 H   0  0  0  0  0  0  0  0  0  0  0  0
  -12.7059   12.4897   -3.1992 H   0  0  0  0  0  0  0  0  0  0  0  0
  -15.3079   12.7234   -1.1997 H   0  0  0  0  0  0  0  0  0  0  0  0
  -14.7940   13.5948   -2.6840 H   0  0  0  0  0  0  0  0  0  0  0  0
  -16.3163   12.6412   -2.6840 H   0  0  0  0  0  0  0  0  0  0  0  0
  -11.4644    9.4419    0.1706 H   0  0  0  0  0  0  0  0  0  0  0  0
  -11.9841    7.8835    1.9399 H   0  0  0  0  0  0  0  0  0  0  0  0
  -13.2667    7.1082    0.9857 H   0  0  0  0  0  0  0  0  0  0  0  0
  -10.6637    6.0267    1.4575 H   0  0  0  0  0  0  0  0  0  0  0  0
  -11.7673    5.4374    0.2173 H   0  0  0  0  0  0  0  0  0  0  0  0
   -9.4377    7.6448    1.3785 H   0  0  0  0  0  0  0  0  0  0  0  0
   -8.2567    7.4272    0.0426 H   0  0  0  0  0  0  0  0  0  0  0  0
   -9.3619    8.8432    0.0426 H   0  0  0  0  0  0  0  0  0  0  0  0
  -10.5013    5.3568   -1.8469 H   0  0  0  0  0  0  0  0  0  0  0  0
   -9.0483    4.7402    0.1905 H   0  0  0  0  0  0  0  0  0  0  0  0
   -8.6927    4.0480   -1.4778 H   0  0  0  0  0  0  0  0  0  0  0  0
   -6.6056    4.8108   -0.0631 H   0  0  0  0  0  0  0  0  0  0  0  0
   -7.7384    8.1640   -2.0037 H   0  0  0  0  0  0  0  0  0  0  0  0
   -6.5283    6.3810   -4.2057 H   0  0  0  0  0  0  0  0  0  0  0  0
   -7.2432    8.0410   -4.4139 H   0  0  0  0  0  0  0  0  0  0  0  0
   -4.7684    8.0791   -4.4124 H   0  0  0  0  0  0  0  0  0  0  0  0
   -5.4907    9.0026   -3.0370 H   0  0  0  0  0  0  0  0  0  0  0  0
   -3.6220    7.7396   -2.2189 H   0  0  0  0  0  0  0  0  0  0  0  0
   -4.0570    6.0840   -4.0390 H   0  0  0  0  0  0  0  0  0  0  0  0
   -5.3586    7.9980    0.7420 H   0  0  0  0  0  0  0  0  0  0  0  0
   -4.5212    8.8725   -0.5849 H   0  0  0  0  0  0  0  0  0  0  0  0
   -6.3128    8.7433   -0.5849 H   0  0  0  0  0  0  0  0  0  0  0  0
   -4.5951    6.1357    0.7798 H   0  0  0  0  0  0  0  0  0  0  0  0
   -4.7002    4.8998   -0.5195 H   0  0  0  0  0  0  0  0  0  0  0  0
   -3.3555    6.0908   -0.5195 H   0  0  0  0  0  0  0  0  0  0  0  0
   -8.8623    4.5373   -3.3920 H   0  0  0  0  0  0  0  0  0  0  0  0
   -9.8262    5.5849   -4.4875 H   0  0  0  0  0  0  0  0  0  0  0  0
   -8.0332    5.6945   -4.4875 H   0  0  0  0  0  0  0  0  0  0  0  0
   -9.2193    8.4447   -3.9288 H   0  0  0  0  0  0  0  0  0  0  0  0
  -10.6688    7.2904   -3.9112 H   0  0  0  0  0  0  0  0  0  0  0  0
   -9.8844    9.3062   -1.7882 H   0  0  0  0  0  0  0  0  0  0  0  0
  -11.3441    9.2996   -2.8544 H   0  0  0  0  0  0  0  0  0  0  0  0
  -13.1151    6.4933   -1.3438 H   0  0  0  0  0  0  0  0  0  0  0  0
  -13.0479    7.6727   -2.6969 H   0  0  0  0  0  0  0  0  0  0  0  0
  -11.9606    6.2428   -2.6969 H   0  0  0  0  0  0  0  0  0  0  0  0
  1  2  1  0
  2  3  1  0
  3  4  1  0
  4  5  1  0
  5  6  1  0
  6  7  1  0
  7  8  1  0
  7  9  1  0
  2 10  1  0
 10 11  1  0
 11 12  1  0
 12 13  1  0
 13 14  1  1
 13 15  1  0
 15 16  1  0
 16 17  1  0
 17 18  2  0
 18 19  1  0
 19 20  1  0
 20 21  1  0
 21 22  1  0
 22 23  1  0
 22 24  1  0
 24 25  1  0
 24 26  1  0
 19 27  1  0
 27 28  1  6
 27 29  1  0
 29 30  1  0
 30 31  1  0
 31 32  1  6
  7  5  1  0
 31 10  1  0
 31 13  1  0
 27 15  1  0
 24 18  1  0
  1 33  1  0
  1 34  1  0
  1 35  1  0
  2 36  1  6
  3 37  1  0
  3 38  1  0
  4 39  1  0
  4 40  1  0
  5 41  1  1
  8 42  1  0
  8 43  1  0
  8 44  1  0
  9 45  1  0
  9 46  1  0
  9 47  1  0
 10 48  1  1
 11 49  1  0
 11 50  1  0
 12 51  1  0
 12 52  1  0
 14 53  1  0
 14 54  1  0
 14 55  1  0
 15 56  1  6
 16 57  1  0
 16 58  1  0
 17 59  1  0
 19 60  1  1
 20 61  1  0
 20 62  1  0
 21 63  1  0
 21 64  1  0
 22 65  1  1
 23 66  1  0
 25 67  1  0
 25 68  1  0
 25 69  1  0
 26 70  1  0
 26 71  1  0
 26 72  1  0
 28 73  1  0
 28 74  1  0
 28 75  1  0
 29 76  1  0
 29 77  1  0
 30 78  1  0
 30 79  1  0
 32 80  1  0
 32 81  1  0
 32 82  1  0
M  END
>  <meeko>  (5) 
{"is_sidechain": [false], "intermolecular_energy": 2.731, "internal_energy": -0.839}

$$$$
EPH_relaxed_0001_pdb2pqr_Repair_256_r2_0001_out
     RDKit          3D

 82 86  0  0  0  0  0  0  0  0999 V2000
  -12.7070   11.0890   -2.3000 C   0  0  0  0  0  0  0  0  0  0  0  0
  -13.0360    9.8030   -1.5370 C   0  0  2  0  0  0  0  0  0  0  0  0
  -14.0520   10.0440   -0.4020 C   0  0  0  0  0  0  0  0  0  0  0  0
  -15.2290    9.0650   -0.4110 C   0  0  0  0  0  0  0  0  0  0  0  0
  -14.9980    7.9120    0.5180 C   0  0  2  0  0  0  0  0  0  0  0  0
  -13.7890    7.1810    0.2760 O   0  0  0  0  0  0  0  0  0  0  0  0
  -15.0160    6.4620    0.0720 C   0  0  0  0  0  0  0  0  0  0  0  0
  -15.2720    6.0870   -1.3540 C   0  0  0  0  0  0  0  0  0  0  0  0
  -15.2700    5.4010    1.0980 C   0  0  0  0  0  0  0  0  0  0  0  0
  -11.7590    9.1930   -0.9710 C   0  0  1  0  0  0  0  0  0  0  0  0
  -11.9730    8.5460    0.4240 C   0  0  0  0  0  0  0  0  0  0  0  0
  -11.0450    7.3060    0.4880 C   0  0  0  0  0  0  0  0  0  0  0  0
  -10.0950    7.4660   -0.7210 C   0  0  1  0  0  0  0  0  0  0  0  0
   -8.9990    8.4680   -0.2390 C   0  0  0  0  0  0  0  0  0  0  0  0
   -9.4660    6.1500   -1.2850 C   0  0  2  0  0  0  0  0  0  0  0  0
   -8.5580    5.3880   -0.3040 C   0  0  0  0  0  0  0  0  0  0  0  0
   -7.1140    5.7640   -0.3480 C   0  0  0  0  0  0  0  0  0  0  0  0
   -6.5180    6.4660   -1.3300 C   0  0  0  0  0  0  0  0  0  0  0  0
   -7.2940    6.8750   -2.5890 C   0  0  1  0  0  0  0  0  0  0  0  0
   -6.4430    6.5610   -3.8470 C   0  0  0  0  0  0  0  0  0  0  0  0
   -5.0550    7.1920   -3.7860 C   0  0  0  0  0  0  0  0  0  0  0  0
   -4.2930    6.7160   -2.5520 C   0  0  2  0  0  0  0  0  0  0  0  0
   -4.0200    5.3180   -2.6900 O   0  0  0  0  0  0  0  0  0  0  0  0
   -5.0580    6.9710   -1.2240 C   0  0  0  0  0  0  0  0  0  0  0  0
   -5.0890    8.4900   -0.9240 C   0  0  0  0  0  0  0  0  0  0  0  0
   -4.2460    6.3180   -0.0720 C   0  0  0  0  0  0  0  0  0  0  0  0
   -8.7780    6.3160   -2.7010 C   0  0  1  0  0  0  0  0  0  0  0  0
   -8.7650    4.9020   -3.3580 C   0  0  0  0  0  0  0  0  0  0  0  0
   -9.6060    7.2460   -3.6640 C   0  0  0  0  0  0  0  0  0  0  0  0
  -10.3020    8.4630   -3.0250 C   0  0  0  0  0  0  0  0  0  0  0  0
  -11.0960    8.0510   -1.7820 C   0  0  2  0  0  0  0  0  0  0  0  0
  -12.2210    7.0610   -2.2390 C   0  0  0  0  0  0  0  0  0  0  0  0
  -12.5001   11.8977   -1.5836 H   0  0  0  0  0  0  0  0  0  0  0  0
  -11.8221   10.9240   -2.9323 H   0  0  0  0  0  0  0  0  0  0  0  0
  -13.5624   11.3692   -2.9323 H   0  0  0  0  0  0  0  0  0  0  0  0
  -13.4976    9.1046   -2.2506 H   0  0  0  0  0  0  0  0  0  0  0  0
  -13.5273    9.9474    0.5600 H   0  0  0  0  0  0  0  0  0  0  0  0
  -14.4699   11.0502   -0.5531 H   0  0  0  0  0  0  0  0  0  0  0  0
  -16.1387    9.5983   -0.0979 H   0  0  0  0  0  0  0  0  0  0  0  0
  -15.3365    8.6674   -1.4310 H   0  0  0  0  0  0  0  0  0  0  0  0
  -15.5103    8.4386    1.3367 H   0  0  0  0  0  0  0  0  0  0  0  0
  -15.8919    5.1790   -1.3887 H   0  0  0  0  0  0  0  0  0  0  0  0
  -15.7979    6.9096   -1.8607 H   0  0  0  0  0  0  0  0  0  0  0  0
  -14.3144    5.8968   -1.8607 H   0  0  0  0  0  0  0  0  0  0  0  0
  -15.1668    5.8322    2.1047 H   0  0  0  0  0  0  0  0  0  0  0  0
  -16.2884    5.0049    0.9715 H   0  0  0  0  0  0  0  0  0  0  0  0
  -14.5414    4.5866    0.9715 H   0  0  0  0  0  0  0  0  0  0  0  0
  -11.1121   10.0827   -0.9755 H   0  0  0  0  0  0  0  0  0  0  0  0
  -11.7070    9.2598    1.2176 H   0  0  0  0  0  0  0  0  0  0  0  0
  -13.0252    8.2603    0.5700 H   0  0  0  0  0  0  0  0  0  0  0  0
  -10.4765    7.2948    1.4296 H   0  0  0  0  0  0  0  0  0  0  0  0
  -11.6081    6.3617    0.4535 H   0  0  0  0  0  0  0  0  0  0  0  0
   -8.9779    8.4873    0.8606 H   0  0  0  0  0  0  0  0  0  0  0  0
   -8.0174    8.1485   -0.6190 H   0  0  0  0  0  0  0  0  0  0  0  0
   -9.2295    9.4742   -0.6190 H   0  0  0  0  0  0  0  0  0  0  0  0
  -10.3487    5.5103   -1.4321 H   0  0  0  0  0  0  0  0  0  0  0  0
   -8.9269    5.5746    0.7154 H   0  0  0  0  0  0  0  0  0  0  0  0
   -8.6063    4.3307   -0.6035 H   0  0  0  0  0  0  0  0  0  0  0  0
   -6.4836    5.4400    0.4932 H   0  0  0  0  0  0  0  0  0  0  0  0
   -7.4539    7.9603   -2.5082 H   0  0  0  0  0  0  0  0  0  0  0  0
   -6.3311    5.4702   -3.9339 H   0  0  0  0  0  0  0  0  0  0  0  0
   -6.9648    6.9847   -4.7178 H   0  0  0  0  0  0  0  0  0  0  0  0
   -4.4916    6.9104   -4.6878 H   0  0  0  0  0  0  0  0  0  0  0  0
   -5.1683    8.2847   -3.7288 H   0  0  0  0  0  0  0  0  0  0  0  0
   -3.3617    7.2985   -2.4937 H   0  0  0  0  0  0  0  0  0  0  0  0
   -3.6030    5.1830   -3.5580 H   0  0  0  0  0  0  0  0  0  0  0  0
   -5.0922    8.6488    0.1645 H   0  0  0  0  0  0  0  0  0  0  0  0
   -4.2004    8.9684   -1.3617 H   0  0  0  0  0  0  0  0  0  0  0  0
   -5.9963    8.9318   -1.3617 H   0  0  0  0  0  0  0  0  0  0  0  0
   -4.6537    6.6459    0.8956 H   0  0  0  0  0  0  0  0  0  0  0  0
   -4.3175    5.2230   -0.1479 H   0  0  0  0  0  0  0  0  0  0  0  0
   -3.1918    6.6228   -0.1479 H   0  0  0  0  0  0  0  0  0  0  0  0
   -8.7579    4.1325   -2.5720 H   0  0  0  0  0  0  0  0  0  0  0  0
   -9.6621    4.7797   -3.9828 H   0  0  0  0  0  0  0  0  0  0  0  0
   -7.8658    4.7962   -3.9828 H   0  0  0  0  0  0  0  0  0  0  0  0
   -8.9183    7.6229   -4.4354 H   0  0  0  0  0  0  0  0  0  0  0  0
  -10.4222    6.6138   -4.0436 H   0  0  0  0  0  0  0  0  0  0  0  0
   -9.5405    9.2025   -2.7366 H   0  0  0  0  0  0  0  0  0  0  0  0
  -10.9988    8.8937   -3.7592 H   0  0  0  0  0  0  0  0  0  0  0  0
  -12.7114    6.6295   -1.3540 H   0  0  0  0  0  0  0  0  0  0  0  0
  -12.9641    7.6035   -2.8420 H   0  0  0  0  0  0  0  0  0  0  0  0
  -11.7774    6.2550   -2.8420 H   0  0  0  0  0  0  0  0  0  0  0  0
  1  2  1  0
  2  3  1  0
  3  4  1  0
  4  5  1  0
  5  6  1  0
  6  7  1  0
  7  8  1  0
  7  9  1  0
  2 10  1  0
 10 11  1  0
 11 12  1  0
 12 13  1  0
 13 14  1  1
 13 15  1  0
 15 16  1  0
 16 17  1  0
 17 18  2  0
 18 19  1  0
 19 20  1  0
 20 21  1  0
 21 22  1  0
 22 23  1  0
 22 24  1  0
 24 25  1  0
 24 26  1  0
 19 27  1  0
 27 28  1  6
 27 29  1  0
 29 30  1  0
 30 31  1  0
 31 32  1  6
  7  5  1  0
 31 10  1  0
 31 13  1  0
 27 15  1  0
 24 18  1  0
  1 33  1  0
  1 34  1  0
  1 35  1  0
  2 36  1  6
  3 37  1  0
  3 38  1  0
  4 39  1  0
  4 40  1  0
  5 41  1  1
  8 42  1  0
  8 43  1  0
  8 44  1  0
  9 45  1  0
  9 46  1  0
  9 47  1  0
 10 48  1  1
 11 49  1  0
 11 50  1  0
 12 51  1  0
 12 52  1  0
 14 53  1  0
 14 54  1  0
 14 55  1  0
 15 56  1  6
 16 57  1  0
 16 58  1  0
 17 59  1  0
 19 60  1  1
 20 61  1  0
 20 62  1  0
 21 63  1  0
 21 64  1  0
 22 65  1  1
 23 66  1  0
 25 67  1  0
 25 68  1  0
 25 69  1  0
 26 70  1  0
 26 71  1  0
 26 72  1  0
 28 73  1  0
 28 74  1  0
 28 75  1  0
 29 76  1  0
 29 77  1  0
 30 78  1  0
 30 79  1  0
 32 80  1  0
 32 81  1  0
 32 82  1  0
M  END
>  <meeko>  (6) 
{"is_sidechain": [false], "intermolecular_energy": 2.731, "internal_energy": -0.839}

$$$$
EPH_relaxed_0001_pdb2pqr_Repair_256_r2_0001_out
     RDKit          3D

 82 86  0  0  0  0  0  0  0  0999 V2000
  -11.4800    8.8800   -2.6810 C   0  0  0  0  0  0  0  0  0  0  0  0
  -11.0710    7.6100   -1.9290 C   0  0  2  0  0  0  0  0  0  0  0  0
  -12.1480    7.1580   -0.9230 C   0  0  0  0  0  0  0  0  0  0  0  0
  -13.5580    7.6420   -1.2720 C   0  0  0  0  0  0  0  0  0  0  0  0
  -13.7640    9.0750   -0.8840 C   0  0  2  0  0  0  0  0  0  0  0  0
  -15.1240    9.4290   -0.5990 O   0  0  0  0  0  0  0  0  0  0  0  0
  -14.5270   10.0720   -1.7370 C   0  0  0  0  0  0  0  0  0  0  0  0
  -15.1320    9.6750   -3.0470 C   0  0  0  0  0  0  0  0  0  0  0  0
  -14.2660   11.5320   -1.5360 C   0  0  0  0  0  0  0  0  0  0  0  0
   -9.7470    7.8360   -1.2090 C   0  0  1  0  0  0  0  0  0  0  0  0
   -9.8480    7.5850    0.3200 C   0  0  0  0  0  0  0  0  0  0  0  0
   -8.4920    6.9790    0.7640 C   0  0  0  0  0  0  0  0  0  0  0  0
   -7.5490    7.2070   -0.4410 C   0  0  1  0  0  0  0  0  0  0  0  0
   -7.0750    8.6880   -0.3040 C   0  0  0  0  0  0  0  0  0  0  0  0
   -6.3400    6.2240   -0.5690 C   0  0  2  0  0  0  0  0  0  0  0  0
   -5.3360    6.2690    0.5960 C   0  0  0  0  0  0  0  0  0  0  0  0
   -4.2080    7.2330    0.4280 C   0  0  0  0  0  0  0  0  0  0  0  0
   -3.8480    7.8210   -0.7280 C   0  0  0  0  0  0  0  0  0  0  0  0
   -4.5430    7.4580   -2.0470 C   0  0  1  0  0  0  0  0  0  0  0  0
   -3.4760    7.2270   -3.1480 C   0  0  0  0  0  0  0  0  0  0  0  0
   -2.5230    8.4090   -3.2970 C   0  0  0  0  0  0  0  0  0  0  0  0
   -1.8070    8.7020   -1.9810 C   0  0  2  0  0  0  0  0  0  0  0  0
   -0.9380    7.6070   -1.6750 O   0  0  0  0  0  0  0  0  0  0  0  0
   -2.7820    8.9420   -0.7940 C   0  0  0  0  0  0  0  0  0  0  0  0
   -3.5110   10.2950   -0.9850 C   0  0  0  0  0  0  0  0  0  0  0  0
   -1.9340    9.0850    0.4990 C   0  0  0  0  0  0  0  0  0  0  0  0
   -5.6050    6.2790   -1.9690 C   0  0  1  0  0  0  0  0  0  0  0  0
   -4.8890    4.9050   -2.1500 C   0  0  0  0  0  0  0  0  0  0  0  0
   -6.6140    6.4150   -3.1700 C   0  0  0  0  0  0  0  0  0  0  0  0
   -7.8500    7.3060   -2.9400 C   0  0  0  0  0  0  0  0  0  0  0  0
   -8.5490    6.9460   -1.6260 C   0  0  2  0  0  0  0  0  0  0  0  0
   -9.0570    5.4690   -1.7420 C   0  0  0  0  0  0  0  0  0  0  0  0
  -11.7340    9.6687   -1.9576 H   0  0  0  0  0  0  0  0  0  0  0  0
  -10.6450    9.2170   -3.3128 H   0  0  0  0  0  0  0  0  0  0  0  0
  -12.3548    8.6664   -3.3128 H   0  0  0  0  0  0  0  0  0  0  0  0
  -10.9573    6.8074   -2.6726 H   0  0  0  0  0  0  0  0  0  0  0  0
  -12.1557    6.0584   -0.8932 H   0  0  0  0  0  0  0  0  0  0  0  0
  -11.8869    7.6024    0.0488 H   0  0  0  0  0  0  0  0  0  0  0  0
  -13.7114    7.5407   -2.3565 H   0  0  0  0  0  0  0  0  0  0  0  0
  -14.2795    7.0282   -0.7128 H   0  0  0  0  0  0  0  0  0  0  0  0
  -12.7705    9.1146   -0.4135 H   0  0  0  0  0  0  0  0  0  0  0  0
  -16.0392    9.0797   -2.8665 H   0  0  0  0  0  0  0  0  0  0  0  0
  -15.3935   10.5777   -3.6187 H   0  0  0  0  0  0  0  0  0  0  0  0
  -14.4080    9.0758   -3.6187 H   0  0  0  0  0  0  0  0  0  0  0  0
  -14.2266   11.7526   -0.4591 H   0  0  0  0  0  0  0  0  0  0  0  0
  -13.3057   11.8002   -2.0006 H   0  0  0  0  0  0  0  0  0  0  0  0
  -15.0739   12.1163   -2.0006 H   0  0  0  0  0  0  0  0  0  0  0  0
   -9.5571    8.8807   -1.4963 H   0  0  0  0  0  0  0  0  0  0  0  0
  -10.0306    8.5324    0.8482 H   0  0  0  0  0  0  0  0  0  0  0  0
  -10.6803    6.9051    0.5546 H   0  0  0  0  0  0  0  0  0  0  0  0
   -8.1108    7.4939    1.6582 H   0  0  0  0  0  0  0  0  0  0  0  0
   -8.5780    5.9153    1.0308 H   0  0  0  0  0  0  0  0  0  0  0  0
   -6.9914    8.9492    0.7613 H   0  0  0  0  0  0  0  0  0  0  0  0
   -6.0944    8.8054   -0.7884 H   0  0  0  0  0  0  0  0  0  0  0  0
   -7.8052    9.3530   -0.7884 H   0  0  0  0  0  0  0  0  0  0  0  0
   -6.8282    5.2404   -0.5040 H   0  0  0  0  0  0  0  0  0  0  0  0
   -5.8857    6.5444    1.5082 H   0  0  0  0  0  0  0  0  0  0  0  0
   -4.8784    5.2698    0.6426 H   0  0  0  0  0  0  0  0  0  0  0  0
   -3.6219    7.4837    1.3245 H   0  0  0  0  0  0  0  0  0  0  0  0
   -5.1683    8.3240   -2.3097 H   0  0  0  0  0  0  0  0  0  0  0  0
   -2.8904    6.3325   -2.8893 H   0  0  0  0  0  0  0  0  0  0  0  0
   -4.0050    7.1023   -4.1044 H   0  0  0  0  0  0  0  0  0  0  0  0
   -1.7755    8.1736   -4.0689 H   0  0  0  0  0  0  0  0  0  0  0  0
   -3.1064    9.2962   -3.5843 H   0  0  0  0  0  0  0  0  0  0  0  0
   -1.2391    9.6345   -2.1149 H   0  0  0  0  0  0  0  0  0  0  0  0
   -0.6790    7.6890   -0.7420 H   0  0  0  0  0  0  0  0  0  0  0  0
   -3.7443   10.7279   -0.0010 H   0  0  0  0  0  0  0  0  0  0  0  0
   -2.8626   10.9851   -1.5448 H   0  0  0  0  0  0  0  0  0  0  0  0
   -4.4439   10.1330   -1.5448 H   0  0  0  0  0  0  0  0  0  0  0  0
   -2.5853    8.9752    1.3786 H   0  0  0  0  0  0  0  0  0  0  0  0
   -1.1587    8.3049    0.5171 H   0  0  0  0  0  0  0  0  0  0  0  0
   -1.4574   10.0762    0.5171 H   0  0  0  0  0  0  0  0  0  0  0  0
   -4.6651    4.4753   -1.1625 H   0  0  0  0  0  0  0  0  0  0  0  0
   -5.5450    4.2203   -2.7076 H   0  0  0  0  0  0  0  0  0  0  0  0
   -3.9520    5.0504   -2.7076 H   0  0  0  0  0  0  0  0  0  0  0  0
   -6.0598    6.8287   -4.0254 H   0  0  0  0  0  0  0  0  0  0  0  0
   -7.0137    5.4023   -3.3269 H   0  0  0  0  0  0  0  0  0  0  0  0
   -7.5327    8.3586   -2.9020 H   0  0  0  0  0  0  0  0  0  0  0  0
   -8.5563    7.1461   -3.7680 H   0  0  0  0  0  0  0  0  0  0  0  0
   -9.2009    5.0506   -0.7349 H   0  0  0  0  0  0  0  0  0  0  0  0
  -10.0128    5.4516   -2.2863 H   0  0  0  0  0  0  0  0  0  0  0  0
   -8.3141    4.8674   -2.2863 H   0  0  0  0  0  0  0  0  0  0  0  0
  1  2  1  0
  2  3  1  0
  3  4  1  0
  4  5  1  0
  5  6  1  0
  6  7  1  0
  7  8  1  0
  7  9  1  0
  2 10  1  0
 10 11  1  0
 11 12  1  0
 12 13  1  0
 13 14  1  6
 13 15  1  0
 15 16  1  0
 16 17  1  0
 17 18  2  0
 18 19  1  0
 19 20  1  0
 20 21  1  0
 21 22  1  0
 22 23  1  0
 22 24  1  0
 24 25  1  0
 24 26  1  0
 19 27  1  0
 27 28  1  6
 27 29  1  0
 29 30  1  0
 30 31  1  0
 31 32  1  6
  7  5  1  0
 31 10  1  0
 31 13  1  0
 27 15  1  0
 24 18  1  0
  1 33  1  0
  1 34  1  0
  1 35  1  0
  2 36  1  6
  3 37  1  0
  3 38  1  0
  4 39  1  0
  4 40  1  0
  5 41  1  1
  8 42  1  0
  8 43  1  0
  8 44  1  0
  9 45  1  0
  9 46  1  0
  9 47  1  0
 10 48  1  1
 11 49  1  0
 11 50  1  0
 12 51  1  0
 12 52  1  0
 14 53  1  0
 14 54  1  0
 14 55  1  0
 15 56  1  6
 16 57  1  0
 16 58  1  0
 17 59  1  0
 19 60  1  6
 20 61  1  0
 20 62  1  0
 21 63  1  0
 21 64  1  0
 22 65  1  6
 23 66  1  0
 25 67  1  0
 25 68  1  0
 25 69  1  0
 26 70  1  0
 26 71  1  0
 26 72  1  0
 28 73  1  0
 28 74  1  0
 28 75  1  0
 29 76  1  0
 29 77  1  0
 30 78  1  0
 30 79  1  0
 32 80  1  0
 32 81  1  0
 32 82  1  0
M  END
>  <meeko>  (7) 
{"is_sidechain": [false], "intermolecular_energy": 2.731, "internal_energy": -0.839}

$$$$
EPH_relaxed_0001_pdb2pqr_Repair_256_r2_0001_out
     RDKit          3D

 82 86  0  0  0  0  0  0  0  0999 V2000
   -4.9730    9.3820   -0.2700 C   0  0  0  0  0  0  0  0  0  0  0  0
   -5.2300    8.2140   -1.2270 C   0  0  2  0  0  0  0  0  0  0  0  0
   -4.2120    8.1780   -2.3850 C   0  0  0  0  0  0  0  0  0  0  0  0
   -3.5760    6.8020   -2.6010 C   0  0  0  0  0  0  0  0  0  0  0  0
   -4.5890    5.7020   -2.5080 C   0  0  2  0  0  0  0  0  0  0  0  0
   -4.2320    4.4990   -3.2020 O   0  0  0  0  0  0  0  0  0  0  0  0
   -5.3870    5.1970   -3.6960 C   0  0  0  0  0  0  0  0  0  0  0  0
   -5.2070    5.7810   -5.0620 C   0  0  0  0  0  0  0  0  0  0  0  0
   -6.6780    4.4830   -3.4390 C   0  0  0  0  0  0  0  0  0  0  0  0
   -6.6470    8.3000   -1.7820 C   0  0  1  0  0  0  0  0  0  0  0  0
   -6.7750    7.6690   -3.1940 C   0  0  0  0  0  0  0  0  0  0  0  0
   -8.1800    7.0190   -3.2680 C   0  0  0  0  0  0  0  0  0  0  0  0
   -8.9330    7.5770   -2.0380 C   0  0  1  0  0  0  0  0  0  0  0  0
   -9.4260    8.9920   -2.4770 C   0  0  0  0  0  0  0  0  0  0  0  0
  -10.1070    6.7020   -1.4910 C   0  0  2  0  0  0  0  0  0  0  0  0
  -11.2750    6.4890   -2.4710 C   0  0  0  0  0  0  0  0  0  0  0  0
  -12.3670    7.5040   -2.3910 C   0  0  0  0  0  0  0  0  0  0  0  0
  -12.5520    8.3770   -1.3830 C   0  0  0  0  0  0  0  0  0  0  0  0
  -11.6670    8.3330   -0.1310 C   0  0  1  0  0  0  0  0  0  0  0  0
  -12.5570    8.4250    1.1360 C   0  0  0  0  0  0  0  0  0  0  0  0
  -13.4800    9.6400    1.1160 C   0  0  0  0  0  0  0  0  0  0  0  0
  -14.3840    9.6180   -0.1140 C   0  0  2  0  0  0  0  0  0  0  0  0
  -15.2870    8.5130   -0.0020 O   0  0  0  0  0  0  0  0  0  0  0  0
  -13.5980    9.5160   -1.4510 C   0  0  0  0  0  0  0  0  0  0  0  0
  -12.8510   10.8470   -1.7170 C   0  0  0  0  0  0  0  0  0  0  0  0
  -14.6300    9.3600   -2.6000 C   0  0  0  0  0  0  0  0  0  0  0  0
  -10.6260    7.1340   -0.0590 C   0  0  1  0  0  0  0  0  0  0  0  0
  -11.3040    5.8770    0.5670 C   0  0  0  0  0  0  0  0  0  0  0  0
   -9.4490    7.5320    0.9080 C   0  0  0  0  0  0  0  0  0  0  0  0
   -8.2630    8.2910    0.2840 C   0  0  0  0  0  0  0  0  0  0  0  0
   -7.7670    7.5870   -0.9830 C   0  0  2  0  0  0  0  0  0  0  0  0
   -7.2450    6.1690   -0.5700 C   0  0  0  0  0  0  0  0  0  0  0  0
   -5.0507    9.0288    0.7688 H   0  0  0  0  0  0  0  0  0  0  0  0
   -3.9647    9.7850   -0.4458 H   0  0  0  0  0  0  0  0  0  0  0  0
   -5.7190   10.1710   -0.4458 H   0  0  0  0  0  0  0  0  0  0  0  0
   -5.1109    7.2830   -0.6534 H   0  0  0  0  0  0  0  0  0  0  0  0
   -4.7283    8.4714   -3.3109 H   0  0  0  0  0  0  0  0  0  0  0  0
   -3.3992    8.8706   -2.1210 H   0  0  0  0  0  0  0  0  0  0  0  0
   -3.1124    6.7762   -3.5982 H   0  0  0  0  0  0  0  0  0  0  0  0
   -2.8252    6.6440   -1.8128 H   0  0  0  0  0  0  0  0  0  0  0  0
   -4.8909    6.0328   -1.5033 H   0  0  0  0  0  0  0  0  0  0  0  0
   -4.8841    6.8288   -4.9732 H   0  0  0  0  0  0  0  0  0  0  0  0
   -4.4440    5.2072   -5.6085 H   0  0  0  0  0  0  0  0  0  0  0  0
   -6.1606    5.7363   -5.6085 H   0  0  0  0  0  0  0  0  0  0  0  0
   -6.8383    4.3943   -2.3544 H   0  0  0  0  0  0  0  0  0  0  0  0
   -7.5067    5.0511   -3.8869 H   0  0  0  0  0  0  0  0  0  0  0  0
   -6.6373    3.4792   -3.8869 H   0  0  0  0  0  0  0  0  0  0  0  0
   -6.7938    9.3896   -1.7464 H   0  0  0  0  0  0  0  0  0  0  0  0
   -6.6760    8.4459   -3.9664 H   0  0  0  0  0  0  0  0  0  0  0  0
   -5.9853    6.9229   -3.3661 H   0  0  0  0  0  0  0  0  0  0  0  0
   -8.6915    7.3047   -4.1990 H   0  0  0  0  0  0  0  0  0  0  0  0
   -8.1320    5.9201   -3.2646 H   0  0  0  0  0  0  0  0  0  0  0  0
   -9.6377    9.5996   -1.5848 H   0  0  0  0  0  0  0  0  0  0  0  0
   -8.6457    9.4821   -3.0777 H   0  0  0  0  0  0  0  0  0  0  0  0
  -10.3419    8.8911   -3.0777 H   0  0  0  0  0  0  0  0  0  0  0  0
   -9.6312    5.7171   -1.3746 H   0  0  0  0  0  0  0  0  0  0  0  0
  -10.8688    6.5065   -3.4931 H   0  0  0  0  0  0  0  0  0  0  0  0
  -11.7323    5.5273   -2.1954 H   0  0  0  0  0  0  0  0  0  0  0  0
  -13.0812    7.5417   -3.2268 H   0  0  0  0  0  0  0  0  0  0  0  0
  -11.0113    9.2141   -0.1917 H   0  0  0  0  0  0  0  0  0  0  0  0
  -13.1725    7.5157    1.2013 H   0  0  0  0  0  0  0  0  0  0  0  0
  -11.8907    8.5263    2.0053 H   0  0  0  0  0  0  0  0  0  0  0  0
  -14.1042    9.6329    2.0217 H   0  0  0  0  0  0  0  0  0  0  0  0
  -12.8624   10.5496    1.0817 H   0  0  0  0  0  0  0  0  0  0  0  0
  -14.9266   10.5744   -0.1416 H   0  0  0  0  0  0  0  0  0  0  0  0
  -15.2090    7.9850   -0.8140 H   0  0  0  0  0  0  0  0  0  0  0  0
  -12.5871   11.3173   -0.7583 H   0  0  0  0  0  0  0  0  0  0  0  0
  -11.9346   10.6448   -2.2908 H   0  0  0  0  0  0  0  0  0  0  0  0
  -13.5010   11.5239   -2.2908 H   0  0  0  0  0  0  0  0  0  0  0  0
  -15.6328    9.2084   -2.1741 H   0  0  0  0  0  0  0  0  0  0  0  0
  -14.6285   10.2686   -3.2201 H   0  0  0  0  0  0  0  0  0  0  0  0
  -14.3600    8.4925   -3.2201 H   0  0  0  0  0  0  0  0  0  0  0  0
  -11.2658    5.9479    1.6640 H   0  0  0  0  0  0  0  0  0  0  0  0
  -12.3527    5.8246    0.2393 H   0  0  0  0  0  0  0  0  0  0  0  0
  -10.7718    4.9718    0.2393 H   0  0  0  0  0  0  0  0  0  0  0  0
   -9.8704    8.1674    1.7009 H   0  0  0  0  0  0  0  0  0  0  0  0
   -9.0280    6.5774    1.2565 H   0  0  0  0  0  0  0  0  0  0  0  0
   -8.5840    9.3111    0.0266 H   0  0  0  0  0  0  0  0  0  0  0  0
   -7.4410    8.3188    1.0144 H   0  0  0  0  0  0  0  0  0  0  0  0
   -7.2173    6.0937    0.5271 H   0  0  0  0  0  0  0  0  0  0  0  0
   -7.9184    5.3985   -0.9735 H   0  0  0  0  0  0  0  0  0  0  0  0
   -6.2327    6.0191   -0.9735 H   0  0  0  0  0  0  0  0  0  0  0  0
  1  2  1  0
  2  3  1  0
  3  4  1  0
  4  5  1  0
  5  6  1  0
  6  7  1  0
  7  8  1  0
  7  9  1  0
  2 10  1  0
 10 11  1  0
 11 12  1  0
 12 13  1  0
 13 14  1  6
 13 15  1  0
 15 16  1  0
 16 17  1  0
 17 18  2  0
 18 19  1  0
 19 20  1  0
 20 21  1  0
 21 22  1  0
 22 23  1  0
 22 24  1  0
 24 25  1  0
 24 26  1  0
 19 27  1  0
 27 28  1  1
 27 29  1  0
 29 30  1  0
 30 31  1  0
 31 32  1  1
  7  5  1  0
 31 10  1  0
 31 13  1  0
 27 15  1  0
 24 18  1  0
  1 33  1  0
  1 34  1  0
  1 35  1  0
  2 36  1  1
  3 37  1  0
  3 38  1  0
  4 39  1  0
  4 40  1  0
  5 41  1  1
  8 42  1  0
  8 43  1  0
  8 44  1  0
  9 45  1  0
  9 46  1  0
  9 47  1  0
 10 48  1  6
 11 49  1  0
 11 50  1  0
 12 51  1  0
 12 52  1  0
 14 53  1  0
 14 54  1  0
 14 55  1  0
 15 56  1  1
 16 57  1  0
 16 58  1  0
 17 59  1  0
 19 60  1  6
 20 61  1  0
 20 62  1  0
 21 63  1  0
 21 64  1  0
 22 65  1  6
 23 66  1  0
 25 67  1  0
 25 68  1  0
 25 69  1  0
 26 70  1  0
 26 71  1  0
 26 72  1  0
 28 73  1  0
 28 74  1  0
 28 75  1  0
 29 76  1  0
 29 77  1  0
 30 78  1  0
 30 79  1  0
 32 80  1  0
 32 81  1  0
 32 82  1  0
M  END
>  <meeko>  (8) 
{"is_sidechain": [false], "intermolecular_energy": 2.731, "internal_energy": -0.839}

$$$$
EPH_relaxed_0001_pdb2pqr_Repair_256_r2_0001_out
     RDKit          3D

 82 86  0  0  0  0  0  0  0  0999 V2000
   -5.6680    4.9620   -0.8060 C   0  0  0  0  0  0  0  0  0  0  0  0
   -5.3080    6.3600   -1.3160 C   0  0  2  0  0  0  0  0  0  0  0  0
   -4.0920    6.9530   -0.5770 C   0  0  0  0  0  0  0  0  0  0  0  0
   -3.2770    7.9370   -1.4220 C   0  0  0  0  0  0  0  0  0  0  0  0
   -2.6940    9.0350   -0.5850 C   0  0  2  0  0  0  0  0  0  0  0  0
   -2.1200   10.1160   -1.3320 O   0  0  0  0  0  0  0  0  0  0  0  0
   -1.2100    9.3460   -0.5290 C   0  0  0  0  0  0  0  0  0  0  0  0
   -0.2170    8.5570   -1.3220 C   0  0  0  0  0  0  0  0  0  0  0  0
   -0.6790   10.0870    0.6590 C   0  0  0  0  0  0  0  0  0  0  0  0
   -6.5080    7.2900   -1.1730 C   0  0  1  0  0  0  0  0  0  0  0  0
   -6.2520    8.6930   -1.7850 C   0  0  0  0  0  0  0  0  0  0  0  0
   -7.6000    9.1740   -2.3820 C   0  0  0  0  0  0  0  0  0  0  0  0
   -8.6510    8.1940   -1.8090 C   0  0  1  0  0  0  0  0  0  0  0  0
   -8.9540    8.7250   -0.3730 C   0  0  0  0  0  0  0  0  0  0  0  0
   -9.9590    8.0170   -2.6470 C   0  0  2  0  0  0  0  0  0  0  0  0
  -10.8090    9.2900   -2.8060 C   0  0  0  0  0  0  0  0  0  0  0  0
  -11.8460    9.5010   -1.7530 C   0  0  0  0  0  0  0  0  0  0  0  0
  -12.2790    8.5680   -0.8850 C   0  0  0  0  0  0  0  0  0  0  0  0
  -11.7860    7.1190   -0.9740 C   0  0  1  0  0  0  0  0  0  0  0  0
  -12.9940    6.1520   -0.8630 C   0  0  0  0  0  0  0  0  0  0  0  0
  -13.8340    6.4070    0.3850 C   0  0  0  0  0  0  0  0  0  0  0  0
  -14.3550    7.8410    0.4090 C   0  0  2  0  0  0  0  0  0  0  0  0
  -15.2870    8.0110   -0.6630 O   0  0  0  0  0  0  0  0  0  0  0  0
  -13.2270    8.9050    0.2930 C   0  0  0  0  0  0  0  0  0  0  0  0
  -12.3930    8.9230    1.5980 C   0  0  0  0  0  0  0  0  0  0  0  0
  -13.8970   10.3010    0.1860 C   0  0  0  0  0  0  0  0  0  0  0  0
  -10.8460    6.7810   -2.2110 C   0  0  1  0  0  0  0  0  0  0  0  0
  -11.7130    6.3970   -3.4490 C   0  0  0  0  0  0  0  0  0  0  0  0
   -9.9780    5.5140   -1.8660 C   0  0  0  0  0  0  0  0  0  0  0  0
   -8.6400    5.7630   -1.1450 C   0  0  0  0  0  0  0  0  0  0  0  0
   -7.8300    6.8540   -1.8530 C   0  0  2  0  0  0  0  0  0  0  0  0
   -7.4910    6.3390   -3.2930 C   0  0  0  0  0  0  0  0  0  0  0  0
   -5.6681    4.9617    0.2940 H   0  0  0  0  0  0  0  0  0  0  0  0
   -6.6671    4.6839   -1.1728 H   0  0  0  0  0  0  0  0  0  0  0  0
   -4.9275    4.2359   -1.1728 H   0  0  0  0  0  0  0  0  0  0  0  0
   -5.0348    6.2646   -2.3773 H   0  0  0  0  0  0  0  0  0  0  0  0
   -4.4531    7.4804    0.3182 H   0  0  0  0  0  0  0  0  0  0  0  0
   -3.4257    6.1135   -0.3297 H   0  0  0  0  0  0  0  0  0  0  0  0
   -2.4587    7.3913   -1.9146 H   0  0  0  0  0  0  0  0  0  0  0  0
   -3.9501    8.3915   -2.1639 H   0  0  0  0  0  0  0  0  0  0  0  0
   -3.4420    8.8640    0.2032 H   0  0  0  0  0  0  0  0  0  0  0  0
    0.4569    8.0216   -0.6370 H   0  0  0  0  0  0  0  0  0  0  0  0
   -0.7476    7.8314   -1.9561 H   0  0  0  0  0  0  0  0  0  0  0  0
    0.3699    9.2378   -1.9561 H   0  0  0  0  0  0  0  0  0  0  0  0
   -1.0282    9.5997    1.5812 H   0  0  0  0  0  0  0  0  0  0  0  0
    0.4207   10.0797    0.6342 H   0  0  0  0  0  0  0  0  0  0  0  0
   -1.0394   11.1260    0.6342 H   0  0  0  0  0  0  0  0  0  0  0  0
   -6.6243    7.2750   -0.0793 H   0  0  0  0  0  0  0  0  0  0  0  0
   -5.9130    9.3904   -1.0048 H   0  0  0  0  0  0  0  0  0  0  0  0
   -5.4708    8.6498   -2.5582 H   0  0  0  0  0  0  0  0  0  0  0  0
   -7.8183   10.2053   -2.0676 H   0  0  0  0  0  0  0  0  0  0  0  0
   -7.5910    9.1805   -3.4819 H   0  0  0  0  0  0  0  0  0  0  0  0
   -8.5523    8.0210    0.3706 H   0  0  0  0  0  0  0  0  0  0  0  0
   -8.4816    9.7093   -0.2388 H   0  0  0  0  0  0  0  0  0  0  0  0
  -10.0417    8.8190   -0.2388 H   0  0  0  0  0  0  0  0  0  0  0  0
   -9.5678    7.7912   -3.6500 H   0  0  0  0  0  0  0  0  0  0  0  0
  -10.1303   10.1555   -2.7927 H   0  0  0  0  0  0  0  0  0  0  0  0
  -11.3566    9.1735   -3.7528 H   0  0  0  0  0  0  0  0  0  0  0  0
  -12.2938   10.5031   -1.6805 H   0  0  0  0  0  0  0  0  0  0  0  0
  -11.1126    6.9745   -0.1163 H   0  0  0  0  0  0  0  0  0  0  0  0
  -13.6318    6.2810   -1.7499 H   0  0  0  0  0  0  0  0  0  0  0  0
  -12.5974    5.1282   -0.7954 H   0  0  0  0  0  0  0  0  0  0  0  0
  -14.6880    5.7137    0.3918 H   0  0  0  0  0  0  0  0  0  0  0  0
  -13.2023    6.2484    1.2714 H   0  0  0  0  0  0  0  0  0  0  0  0
  -14.8377    7.9998    1.3846 H   0  0  0  0  0  0  0  0  0  0  0  0
  -15.2950    7.1870   -1.1800 H   0  0  0  0  0  0  0  0  0  0  0  0
  -13.0692    8.9084    2.4655 H   0  0  0  0  0  0  0  0  0  0  0  0
  -11.7394    8.0388    1.6277 H   0  0  0  0  0  0  0  0  0  0  0  0
  -11.7781    9.8346    1.6277 H   0  0  0  0  0  0  0  0  0  0  0  0
  -14.0862   10.6952    1.1953 H   0  0  0  0  0  0  0  0  0  0  0  0
  -13.2301   10.9872   -0.3566 H   0  0  0  0  0  0  0  0  0  0  0  0
  -14.8495   10.2099   -0.3566 H   0  0  0  0  0  0  0  0  0  0  0  0
  -12.6697    5.9733   -3.1095 H   0  0  0  0  0  0  0  0  0  0  0  0
  -11.9042    7.2946   -4.0554 H   0  0  0  0  0  0  0  0  0  0  0  0
  -11.1767    5.6522   -4.0554 H   0  0  0  0  0  0  0  0  0  0  0  0
  -10.5854    4.8597   -1.2233 H   0  0  0  0  0  0  0  0  0  0  0  0
   -9.7038    5.0799   -2.8388 H   0  0  0  0  0  0  0  0  0  0  0  0
   -8.8419    6.0787   -0.1108 H   0  0  0  0  0  0  0  0  0  0  0  0
   -8.0568    4.8304   -1.1561 H   0  0  0  0  0  0  0  0  0  0  0  0
   -6.8875    5.4221   -3.2219 H   0  0  0  0  0  0  0  0  0  0  0  0
   -8.4239    6.1228   -3.8342 H   0  0  0  0  0  0  0  0  0  0  0  0
   -6.9235    7.1104   -3.8342 H   0  0  0  0  0  0  0  0  0  0  0  0
  1  2  1  0
  2  3  1  0
  3  4  1  0
  4  5  1  0
  5  6  1  0
  6  7  1  0
  7  8  1  0
  7  9  1  0
  2 10  1  0
 10 11  1  0
 11 12  1  0
 12 13  1  0
 13 14  1  1
 13 15  1  0
 15 16  1  0
 16 17  1  0
 17 18  2  0
 18 19  1  0
 19 20  1  0
 20 21  1  0
 21 22  1  0
 22 23  1  0
 22 24  1  0
 24 25  1  0
 24 26  1  0
 19 27  1  0
 27 28  1  6
 27 29  1  0
 29 30  1  0
 30 31  1  0
 31 32  1  6
  7  5  1  0
 31 10  1  0
 31 13  1  0
 27 15  1  0
 24 18  1  0
  1 33  1  0
  1 34  1  0
  1 35  1  0
  2 36  1  6
  3 37  1  0
  3 38  1  0
  4 39  1  0
  4 40  1  0
  5 41  1  1
  8 42  1  0
  8 43  1  0
  8 44  1  0
  9 45  1  0
  9 46  1  0
  9 47  1  0
 10 48  1  1
 11 49  1  0
 11 50  1  0
 12 51  1  0
 12 52  1  0
 14 53  1  0
 14 54  1  0
 14 55  1  0
 15 56  1  6
 16 57  1  0
 16 58  1  0
 17 59  1  0
 19 60  1  1
 20 61  1  0
 20 62  1  0
 21 63  1  0
 21 64  1  0
 22 65  1  1
 23 66  1  0
 25 67  1  0
 25 68  1  0
 25 69  1  0
 26 70  1  0
 26 71  1  0
 26 72  1  0
 28 73  1  0
 28 74  1  0
 28 75  1  0
 29 76  1  0
 29 77  1  0
 30 78  1  0
 30 79  1  0
 32 80  1  0
 32 81  1  0
 32 82  1  0
M  END
>  <meeko>  (9) 
{"is_sidechain": [false], "intermolecular_energy": 2.731, "internal_energy": -0.839}

$$$$
EPH_relaxed_0001_pdb2pqr_Repair_256_r2_0001_out
     RDKit          3D

 82 86  0  0  0  0  0  0  0  0999 V2000
    1.4320   17.8220   -1.3470 C   0  0  0  0  0  0  0  0  0  0  0  0
    2.3600   16.9650   -0.4820 C   0  0  2  0  0  0  0  0  0  0  0  0
    3.7960   17.5230   -0.4420 C   0  0  0  0  0  0  0  0  0  0  0  0
    3.9570   18.7440    0.4680 C   0  0  0  0  0  0  0  0  0  0  0  0
    4.2260   18.3460    1.8880 C   0  0  2  0  0  0  0  0  0  0  0  0
    3.8350   19.3180    2.8660 O   0  0  0  0  0  0  0  0  0  0  0  0
    5.2420   19.0430    2.7740 C   0  0  0  0  0  0  0  0  0  0  0  0
    6.0560   20.1940    2.2720 C   0  0  0  0  0  0  0  0  0  0  0  0
    5.7900   18.3020    3.9530 C   0  0  0  0  0  0  0  0  0  0  0  0
    2.3720   15.5310   -0.9970 C   0  0  1  0  0  0  0  0  0  0  0  0
    3.7590   15.1080   -1.5520 C   0  0  0  0  0  0  0  0  0  0  0  0
    3.9390   13.6070   -1.2080 C   0  0  0  0  0  0  0  0  0  0  0  0
    2.5330   13.1350   -0.7690 C   0  0  1  0  0  0  0  0  0  0  0  0
    1.7650   12.8670   -2.1010 C   0  0  0  0  0  0  0  0  0  0  0  0
    2.4860   11.8970    0.1840 C   0  0  2  0  0  0  0  0  0  0  0  0
    3.0540   10.5950   -0.4090 C   0  0  0  0  0  0  0  0  0  0  0  0
    2.0640    9.7330   -1.1200 C   0  0  0  0  0  0  0  0  0  0  0  0
    0.7250    9.8460   -1.0340 C   0  0  0  0  0  0  0  0  0  0  0  0
    0.0790   10.8590   -0.0800 C   0  0  1  0  0  0  0  0  0  0  0  0
   -1.0660   10.1700    0.7090 C   0  0  0  0  0  0  0  0  0  0  0  0
   -2.0850    9.4990   -0.2060 C   0  0  0  0  0  0  0  0  0  0  0  0
   -1.4140    8.4570   -1.0980 C   0  0  2  0  0  0  0  0  0  0  0  0
   -0.9410    7.3840   -0.2790 O   0  0  0  0  0  0  0  0  0  0  0  0
   -0.2380    9.0330   -1.9350 C   0  0  0  0  0  0  0  0  0  0  0  0
   -0.7910    9.9780   -3.0300 C   0  0  0  0  0  0  0  0  0  0  0  0
    0.4400    7.8530   -2.6810 C   0  0  0  0  0  0  0  0  0  0  0  0
    1.0780   11.6560    0.8650 C   0  0  1  0  0  0  0  0  0  0  0  0
    1.3470   10.8380    2.1650 C   0  0  0  0  0  0  0  0  0  0  0  0
    0.3950   13.0000    1.3190 C   0  0  0  0  0  0  0  0  0  0  0  0
    0.5780   14.2190    0.3940 C   0  0  0  0  0  0  0  0  0  0  0  0
    2.0510   14.4070    0.0200 C   0  0  2  0  0  0  0  0  0  0  0  0
    2.8450   14.7010    1.3380 C   0  0  0  0  0  0  0  0  0  0  0  0
    0.7793   18.4248   -0.6985 H   0  0  0  0  0  0  0  0  0  0  0  0
    2.0343   18.4883   -1.9820 H   0  0  0  0  0  0  0  0  0  0  0  0
    0.8156   17.1687   -1.9820 H   0  0  0  0  0  0  0  0  0  0  0  0
    1.9691   16.9876    0.5460 H   0  0  0  0  0  0  0  0  0  0  0  0
    4.4669   16.7297   -0.0806 H   0  0  0  0  0  0  0  0  0  0  0  0
    4.0429   17.8486   -1.4633 H   0  0  0  0  0  0  0  0  0  0  0  0
    4.7977   19.3522    0.1029 H   0  0  0  0  0  0  0  0  0  0  0  0
    3.0173   19.3154    0.4443 H   0  0  0  0  0  0  0  0  0  0  0  0
    4.0618   17.2854    1.6469 H   0  0  0  0  0  0  0  0  0  0  0  0
    6.4563   20.7601    3.1260 H   0  0  0  0  0  0  0  0  0  0  0  0
    6.8883   19.8154    1.6605 H   0  0  0  0  0  0  0  0  0  0  0  0
    5.4217   20.8526    1.6605 H   0  0  0  0  0  0  0  0  0  0  0  0
    5.4384   18.7774    4.8806 H   0  0  0  0  0  0  0  0  0  0  0  0
    5.4451   17.2579    3.9225 H   0  0  0  0  0  0  0  0  0  0  0  0
    6.8893   18.3260    3.9225 H   0  0  0  0  0  0  0  0  0  0  0  0
    1.5716   15.5980   -1.7486 H   0  0  0  0  0  0  0  0  0  0  0  0
    3.7914   15.2535   -2.6419 H   0  0  0  0  0  0  0  0  0  0  0  0
    4.5633   15.7140   -1.1095 H   0  0  0  0  0  0  0  0  0  0  0  0
    4.2794   13.0447   -2.0900 H   0  0  0  0  0  0  0  0  0  0  0  0
    4.6956   13.4465   -0.4258 H   0  0  0  0  0  0  0  0  0  0  0  0
    0.7489   12.5124   -1.8734 H   0  0  0  0  0  0  0  0  0  0  0  0
    1.7065   13.7978   -2.6842 H   0  0  0  0  0  0  0  0  0  0  0  0
    2.2983   12.1019   -2.6842 H   0  0  0  0  0  0  0  0  0  0  0  0
    3.1816   12.1892    0.9845 H   0  0  0  0  0  0  0  0  0  0  0  0
    3.8456   10.8641   -1.1238 H   0  0  0  0  0  0  0  0  0  0  0  0
    3.4144   10.0033    0.4454 H   0  0  0  0  0  0  0  0  0  0  0  0
    2.4619    8.9387   -1.7687 H   0  0  0  0  0  0  0  0  0  0  0  0
   -0.3333   11.6561   -0.7162 H   0  0  0  0  0  0  0  0  0  0  0  0
   -0.6293    9.4069    1.3700 H   0  0  0  0  0  0  0  0  0  0  0  0
   -1.5924   10.9480    1.2814 H   0  0  0  0  0  0  0  0  0  0  0  0
   -2.8519    9.0060    0.4095 H   0  0  0  0  0  0  0  0  0  0  0  0
   -2.5419   10.2678   -0.8465 H   0  0  0  0  0  0  0  0  0  0  0  0
   -2.1679    8.1046   -1.8173 H   0  0  0  0  0  0  0  0  0  0  0  0
   -0.1690    7.7080    0.2140 H   0  0  0  0  0  0  0  0  0  0  0  0
   -1.2923   10.8347   -2.5560 H   0  0  0  0  0  0  0  0  0  0  0  0
    0.0384   10.3389   -3.6559 H   0  0  0  0  0  0  0  0  0  0  0  0
   -1.5119    9.4317   -3.6559 H   0  0  0  0  0  0  0  0  0  0  0  0
    0.8485    7.1420   -1.9478 H   0  0  0  0  0  0  0  0  0  0  0  0
   -0.3027    7.3429   -3.3120 H   0  0  0  0  0  0  0  0  0  0  0  0
    1.2548    8.2378   -3.3120 H   0  0  0  0  0  0  0  0  0  0  0  0
    1.1402   11.4670    3.0434 H   0  0  0  0  0  0  0  0  0  0  0  0
    0.6921    9.9544    2.1843 H   0  0  0  0  0  0  0  0  0  0  0  0
    2.3985   10.5156    2.1843 H   0  0  0  0  0  0  0  0  0  0  0  0
   -0.6847   12.8104    1.4102 H   0  0  0  0  0  0  0  0  0  0  0  0
    0.8957   13.2742    2.2593 H   0  0  0  0  0  0  0  0  0  0  0  0
   -0.0095   14.0660   -0.5233 H   0  0  0  0  0  0  0  0  0  0  0  0
    0.2338   15.1180    0.9263 H   0  0  0  0  0  0  0  0  0  0  0  0
    2.2126   14.4668    2.2070 H   0  0  0  0  0  0  0  0  0  0  0  0
    3.7519   14.0790    1.3662 H   0  0  0  0  0  0  0  0  0  0  0  0
    3.1281   15.7636    1.3662 H   0  0  0  0  0  0  0  0  0  0  0  0
  1  2  1  0
  2  3  1  0
  3  4  1  0
  4  5  1  0
  5  6  1  0
  6  7  1  0
  7  8  1  0
  7  9  1  0
  2 10  1  0
 10 11  1  0
 11 12  1  0
 12 13  1  0
 13 14  1  6
 13 15  1  0
 15 16  1  0
 16 17  1  0
 17 18  2  0
 18 19  1  0
 19 20  1  0
 20 21  1  0
 21 22  1  0
 22 23  1  0
 22 24  1  0
 24 25  1  0
 24 26  1  0
 19 27  1  0
 27 28  1  1
 27 29  1  0
 29 30  1  0
 30 31  1  0
 31 32  1  1
  7  5  1  0
 31 10  1  0
 31 13  1  0
 27 15  1  0
 24 18  1  0
  1 33  1  0
  1 34  1  0
  1 35  1  0
  2 36  1  1
  3 37  1  0
  3 38  1  0
  4 39  1  0
  4 40  1  0
  5 41  1  1
  8 42  1  0
  8 43  1  0
  8 44  1  0
  9 45  1  0
  9 46  1  0
  9 47  1  0
 10 48  1  6
 11 49  1  0
 11 50  1  0
 12 51  1  0
 12 52  1  0
 14 53  1  0
 14 54  1  0
 14 55  1  0
 15 56  1  1
 16 57  1  0
 16 58  1  0
 17 59  1  0
 19 60  1  6
 20 61  1  0
 20 62  1  0
 21 63  1  0
 21 64  1  0
 22 65  1  6
 23 66  1  0
 25 67  1  0
 25 68  1  0
 25 69  1  0
 26 70  1  0
 26 71  1  0
 26 72  1  0
 28 73  1  0
 28 74  1  0
 28 75  1  0
 29 76  1  0
 29 77  1  0
 30 78  1  0
 30 79  1  0
 32 80  1  0
 32 81  1  0
 32 82  1  0
M  END
>  <meeko>  (10) 
{"is_sidechain": [false], "intermolecular_energy": 2.731, "internal_energy": -0.839}

$$$$
EPH_relaxed_0001_pdb2pqr_Repair_256_r2_0001_out
     RDKit          3D

 82 86  0  0  0  0  0  0  0  0999 V2000
   -5.6230    4.4690   -3.1880 C   0  0  0  0  0  0  0  0  0  0  0  0
   -5.6490    5.8960   -2.6330 C   0  0  2  0  0  0  0  0  0  0  0  0
   -4.3300    6.2690   -1.9280 C   0  0  0  0  0  0  0  0  0  0  0  0
   -3.9080    7.7250   -2.1410 C   0  0  0  0  0  0  0  0  0  0  0  0
   -3.0280    8.2160   -1.0320 C   0  0  2  0  0  0  0  0  0  0  0  0
   -2.7300    9.6170   -1.0790 O   0  0  0  0  0  0  0  0  0  0  0  0
   -1.6160    8.7260   -1.2470 C   0  0  0  0  0  0  0  0  0  0  0  0
   -1.0020    8.7700   -2.6110 C   0  0  0  0  0  0  0  0  0  0  0  0
   -0.6680    8.7200   -0.0880 C   0  0  0  0  0  0  0  0  0  0  0  0
   -6.8190    6.0570   -1.6700 C   0  0  1  0  0  0  0  0  0  0  0  0
   -6.3630    6.4180   -0.2310 C   0  0  0  0  0  0  0  0  0  0  0  0
   -7.4400    7.3660    0.3550 C   0  0  0  0  0  0  0  0  0  0  0  0
   -8.6310    7.2560   -0.6250 C   0  0  1  0  0  0  0  0  0  0  0  0
   -9.3750    5.9490   -0.2070 C   0  0  0  0  0  0  0  0  0  0  0  0
   -9.6010    8.4810   -0.6730 C   0  0  2  0  0  0  0  0  0  0  0  0
  -10.3380    8.7830    0.6440 C   0  0  0  0  0  0  0  0  0  0  0  0
  -11.6570    8.1020    0.8060 C   0  0  0  0  0  0  0  0  0  0  0  0
  -12.3590    7.5110   -0.1780 C   0  0  0  0  0  0  0  0  0  0  0  0
  -11.8810    7.5750   -1.6340 C   0  0  1  0  0  0  0  0  0  0  0  0
  -13.0720    7.9490   -2.5550 C   0  0  0  0  0  0  0  0  0  0  0  0
  -14.2660    7.0170   -2.3740 C   0  0  0  0  0  0  0  0  0  0  0  0
  -14.7490    7.0250   -0.9260 C   0  0  2  0  0  0  0  0  0  0  0  0
  -15.2840    8.3180   -0.6260 O   0  0  0  0  0  0  0  0  0  0  0  0
  -13.6320    6.6720    0.0950 C   0  0  0  0  0  0  0  0  0  0  0  0
  -13.2630    5.1740   -0.0340 C   0  0  0  0  0  0  0  0  0  0  0  0
  -14.2140    6.8540    1.5230 C   0  0  0  0  0  0  0  0  0  0  0  0
  -10.5960    8.4720   -1.9030 C   0  0  1  0  0  0  0  0  0  0  0  0
  -11.0220    9.9530   -2.1430 C   0  0  0  0  0  0  0  0  0  0  0  0
   -9.9010    7.9900   -3.2310 C   0  0  0  0  0  0  0  0  0  0  0  0
   -8.8650    6.8570   -3.1010 C   0  0  0  0  0  0  0  0  0  0  0  0
   -7.8570    7.1620   -1.9890 C   0  0  2  0  0  0  0  0  0  0  0  0
   -7.0780    8.4600   -2.3920 C   0  0  0  0  0  0  0  0  0  0  0  0
   -5.6099    3.7515   -2.3543 H   0  0  0  0  0  0  0  0  0  0  0  0
   -6.5182    4.2989   -3.8042 H   0  0  0  0  0  0  0  0  0  0  0  0
   -4.7222    4.3316   -3.8042 H   0  0  0  0  0  0  0  0  0  0  0  0
   -5.7720    6.5808   -3.4850 H   0  0  0  0  0  0  0  0  0  0  0  0
   -4.4529    6.0976   -0.8484 H   0  0  0  0  0  0  0  0  0  0  0  0
   -3.5422    5.6388   -2.3664 H   0  0  0  0  0  0  0  0  0  0  0  0
   -3.3596    7.8016   -3.0915 H   0  0  0  0  0  0  0  0  0  0  0  0
   -4.8160    8.3457   -2.1580 H   0  0  0  0  0  0  0  0  0  0  0  0
   -3.4454    7.4698   -0.3399 H   0  0  0  0  0  0  0  0  0  0  0  0
    0.0913    8.8483   -2.5186 H   0  0  0  0  0  0  0  0  0  0  0  0
   -1.2588    7.8511   -3.1585 H   0  0  0  0  0  0  0  0  0  0  0  0
   -1.3872    9.6428   -3.1585 H   0  0  0  0  0  0  0  0  0  0  0  0
   -1.2386    8.7236    0.8524 H   0  0  0  0  0  0  0  0  0  0  0  0
   -0.0402    7.8179   -0.1325 H   0  0  0  0  0  0  0  0  0  0  0  0
   -0.0288    9.6141   -0.1325 H   0  0  0  0  0  0  0  0  0  0  0  0
   -7.2815    5.0646   -1.7755 H   0  0  0  0  0  0  0  0  0  0  0  0
   -6.2861    5.5076    0.3815 H   0  0  0  0  0  0  0  0  0  0  0  0
   -5.3746    6.9006   -0.2394 H   0  0  0  0  0  0  0  0  0  0  0  0
   -7.7357    7.0415    1.3636 H   0  0  0  0  0  0  0  0  0  0  0  0
   -7.0763    8.3993    0.4554 H   0  0  0  0  0  0  0  0  0  0  0  0
   -9.4124    5.8833    0.8904 H   0  0  0  0  0  0  0  0  0  0  0  0
  -10.3990    5.9656   -0.6084 H   0  0  0  0  0  0  0  0  0  0  0  0
   -8.8379    5.0770   -0.6084 H   0  0  0  0  0  0  0  0  0  0  0  0
   -8.9096    9.3225   -0.8276 H   0  0  0  0  0  0  0  0  0  0  0  0
   -9.6896    8.4708    1.4759 H   0  0  0  0  0  0  0  0  0  0  0  0
  -10.5513    9.8621    0.6335 H   0  0  0  0  0  0  0  0  0  0  0  0
  -12.0919    8.0818    1.8162 H   0  0  0  0  0  0  0  0  0  0  0  0
  -11.5222    6.5648   -1.8806 H   0  0  0  0  0  0  0  0  0  0  0  0
  -13.3883    8.9766   -2.3227 H   0  0  0  0  0  0  0  0  0  0  0  0
  -12.7308    7.8563   -3.5966 H   0  0  0  0  0  0  0  0  0  0  0  0
  -15.0850    7.3497   -3.0286 H   0  0  0  0  0  0  0  0  0  0  0  0
  -13.9563    5.9944   -2.6354 H   0  0  0  0  0  0  0  0  0  0  0  0
  -15.5182    6.2445   -0.8307 H   0  0  0  0  0  0  0  0  0  0  0  0
  -16.2460    8.2770   -0.7620 H   0  0  0  0  0  0  0  0  0  0  0  0
  -13.1549    4.7353    0.9689 H   0  0  0  0  0  0  0  0  0  0  0  0
  -14.0580    4.6463   -0.5813 H   0  0  0  0  0  0  0  0  0  0  0  0
  -12.3139    5.0760   -0.5813 H   0  0  0  0  0  0  0  0  0  0  0  0
  -13.4411    6.6123    2.2675 H   0  0  0  0  0  0  0  0  0  0  0  0
  -14.5385    7.8965    1.6566 H   0  0  0  0  0  0  0  0  0  0  0  0
  -15.0746    6.1821    1.6566 H   0  0  0  0  0  0  0  0  0  0  0  0
  -11.1663   10.4545   -1.1747 H   0  0  0  0  0  0  0  0  0  0  0  0
  -10.2369   10.4728   -2.7118 H   0  0  0  0  0  0  0  0  0  0  0  0
  -11.9632    9.9762   -2.7118 H   0  0  0  0  0  0  0  0  0  0  0  0
  -10.6910    7.6420   -3.9127 H   0  0  0  0  0  0  0  0  0  0  0  0
   -9.3323    8.8602   -3.5906 H   0  0  0  0  0  0  0  0  0  0  0  0
   -9.3866    5.9174   -2.8663 H   0  0  0  0  0  0  0  0  0  0  0  0
   -8.3212    6.7676   -4.0530 H   0  0  0  0  0  0  0  0  0  0  0  0
   -6.7584    8.9926   -1.4841 H   0  0  0  0  0  0  0  0  0  0  0  0
   -6.1942    8.1873   -2.9874 H   0  0  0  0  0  0  0  0  0  0  0  0
   -7.7344    9.1116   -2.9874 H   0  0  0  0  0  0  0  0  0  0  0  0
  1  2  1  0
  2  3  1  0
  3  4  1  0
  4  5  1  0
  5  6  1  0
  6  7  1  0
  7  8  1  0
  7  9  1  0
  2 10  1  0
 10 11  1  0
 11 12  1  0
 12 13  1  0
 13 14  1  1
 13 15  1  0
 15 16  1  0
 16 17  1  0
 17 18  2  0
 18 19  1  0
 19 20  1  0
 20 21  1  0
 21 22  1  0
 22 23  1  0
 22 24  1  0
 24 25  1  0
 24 26  1  0
 19 27  1  0
 27 28  1  6
 27 29  1  0
 29 30  1  0
 30 31  1  0
 31 32  1  6
  7  5  1  0
 31 10  1  0
 31 13  1  0
 27 15  1  0
 24 18  1  0
  1 33  1  0
  1 34  1  0
  1 35  1  0
  2 36  1  6
  3 37  1  0
  3 38  1  0
  4 39  1  0
  4 40  1  0
  5 41  1  1
  8 42  1  0
  8 43  1  0
  8 44  1  0
  9 45  1  0
  9 46  1  0
  9 47  1  0
 10 48  1  1
 11 49  1  0
 11 50  1  0
 12 51  1  0
 12 52  1  0
 14 53  1  0
 14 54  1  0
 14 55  1  0
 15 56  1  6
 16 57  1  0
 16 58  1  0
 17 59  1  0
 19 60  1  6
 20 61  1  0
 20 62  1  0
 21 63  1  0
 21 64  1  0
 22 65  1  6
 23 66  1  0
 25 67  1  0
 25 68  1  0
 25 69  1  0
 26 70  1  0
 26 71  1  0
 26 72  1  0
 28 73  1  0
 28 74  1  0
 28 75  1  0
 29 76  1  0
 29 77  1  0
 30 78  1  0
 30 79  1  0
 32 80  1  0
 32 81  1  0
 32 82  1  0
M  END
>  <meeko>  (11) 
{"is_sidechain": [false], "intermolecular_energy": 2.731, "internal_energy": -0.839}

$$$$
EPH_relaxed_0001_pdb2pqr_Repair_256_r2_0001_out
     RDKit          3D

 82 86  0  0  0  0  0  0  0  0999 V2000
   -3.3900    7.5580    0.7060 C   0  0  0  0  0  0  0  0  0  0  0  0
   -3.6830    8.0480   -0.7150 C   0  0  2  0  0  0  0  0  0  0  0  0
   -2.7270    9.1770   -1.1490 C   0  0  0  0  0  0  0  0  0  0  0  0
   -1.7470    9.6080   -0.0540 C   0  0  0  0  0  0  0  0  0  0  0  0
   -0.3220    9.4100   -0.4760 C   0  0  2  0  0  0  0  0  0  0  0  0
    0.5000    8.7420    0.4900 O   0  0  0  0  0  0  0  0  0  0  0  0
    0.8510   10.1030    0.1900 C   0  0  0  0  0  0  0  0  0  0  0  0
    0.6530   11.0480    1.3330 C   0  0  0  0  0  0  0  0  0  0  0  0
    2.1300   10.2410   -0.5770 C   0  0  0  0  0  0  0  0  0  0  0  0
   -5.1280    8.5210   -0.8140 C   0  0  1  0  0  0  0  0  0  0  0  0
   -5.2870    9.7660   -1.7280 C   0  0  0  0  0  0  0  0  0  0  0  0
   -6.6540    9.6210   -2.4460 C   0  0  0  0  0  0  0  0  0  0  0  0
   -7.3770    8.4870   -1.6830 C   0  0  1  0  0  0  0  0  0  0  0  0
   -7.9740    9.1730   -0.4140 C   0  0  0  0  0  0  0  0  0  0  0  0
   -8.4690    7.7030   -2.4820 C   0  0  2  0  0  0  0  0  0  0  0  0
   -9.6680    8.5470   -2.9480 C   0  0  0  0  0  0  0  0  0  0  0  0
  -10.8140    8.6100   -1.9920 C   0  0  0  0  0  0  0  0  0  0  0  0
  -11.0000    7.7910   -0.9400 C   0  0  0  0  0  0  0  0  0  0  0  0
  -10.0530    6.6110   -0.6830 C   0  0  1  0  0  0  0  0  0  0  0  0
  -10.8840    5.3380   -0.3750 C   0  0  0  0  0  0  0  0  0  0  0  0
  -11.8770    5.5490    0.7650 C   0  0  0  0  0  0  0  0  0  0  0  0
  -12.8380    6.6920    0.4460 C   0  0  2  0  0  0  0  0  0  0  0  0
  -13.6670    6.3030   -0.6540 O   0  0  0  0  0  0  0  0  0  0  0  0
  -12.1140    8.0250    0.1090 C   0  0  0  0  0  0  0  0  0  0  0  0
  -11.4620    8.6010    1.3900 C   0  0  0  0  0  0  0  0  0  0  0  0
  -13.1900    9.0550   -0.3300 C   0  0  0  0  0  0  0  0  0  0  0  0
   -8.9410    6.3610   -1.7900 C   0  0  1  0  0  0  0  0  0  0  0  0
   -9.5110    5.4530   -2.9220 C   0  0  0  0  0  0  0  0  0  0  0  0
   -7.7440    5.5670   -1.1450 C   0  0  0  0  0  0  0  0  0  0  0  0
   -6.6370    6.4040   -0.4750 C   0  0  0  0  0  0  0  0  0  0  0  0
   -6.1630    7.5290   -1.4000 C   0  0  2  0  0  0  0  0  0  0  0  0
   -5.5380    6.8680   -2.6760 C   0  0  0  0  0  0  0  0  0  0  0  0
   -3.8137    8.2666    1.4329 H   0  0  0  0  0  0  0  0  0  0  0  0
   -3.8438    6.5668    0.8529 H   0  0  0  0  0  0  0  0  0  0  0  0
   -2.3021    7.4886    0.8529 H   0  0  0  0  0  0  0  0  0  0  0  0
   -3.5223    7.2001   -1.3971 H   0  0  0  0  0  0  0  0  0  0  0  0
   -2.1473    8.8272   -2.0160 H   0  0  0  0  0  0  0  0  0  0  0  0
   -3.3496   10.0523   -1.3862 H   0  0  0  0  0  0  0  0  0  0  0  0
   -1.9079   10.6730    0.1694 H   0  0  0  0  0  0  0  0  0  0  0  0
   -1.9309    8.9866    0.8348 H   0  0  0  0  0  0  0  0  0  0  0  0
   -0.6217    9.3170   -1.5303 H   0  0  0  0  0  0  0  0  0  0  0  0
    0.7669   10.5042    2.2823 H   0  0  0  0  0  0  0  0  0  0  0  0
    1.4023   11.8515    1.2785 H   0  0  0  0  0  0  0  0  0  0  0  0
   -0.3558   11.4831    1.2785 H   0  0  0  0  0  0  0  0  0  0  0  0
    2.9712   10.3318    0.1260 H   0  0  0  0  0  0  0  0  0  0  0  0
    2.2754    9.3533   -1.2102 H   0  0  0  0  0  0  0  0  0  0  0  0
    2.0828   11.1393   -1.2102 H   0  0  0  0  0  0  0  0  0  0  0  0
   -5.3379    8.6971    0.2513 H   0  0  0  0  0  0  0  0  0  0  0  0
   -5.2722   10.6846   -1.1231 H   0  0  0  0  0  0  0  0  0  0  0  0
   -4.4637    9.8308   -2.4546 H   0  0  0  0  0  0  0  0  0  0  0  0
   -7.2269   10.5579   -2.3833 H   0  0  0  0  0  0  0  0  0  0  0  0
   -6.5410    9.3971   -3.5170 H   0  0  0  0  0  0  0  0  0  0  0  0
   -7.5608    8.6982    0.4881 H   0  0  0  0  0  0  0  0  0  0  0  0
   -7.7134   10.2417   -0.4180 H   0  0  0  0  0  0  0  0  0  0  0  0
   -9.0684    9.0625   -0.4180 H   0  0  0  0  0  0  0  0  0  0  0  0
   -7.9308    7.4170   -3.3977 H   0  0  0  0  0  0  0  0  0  0  0  0
   -9.3137    9.5737   -3.1220 H   0  0  0  0  0  0  0  0  0  0  0  0
  -10.0534    8.0545   -3.8530 H   0  0  0  0  0  0  0  0  0  0  0  0
  -11.5694    9.3913   -2.1619 H   0  0  0  0  0  0  0  0  0  0  0  0
   -9.4540    6.8876    0.1972 H   0  0  0  0  0  0  0  0  0  0  0  0
  -11.4411    5.0531   -1.2797 H   0  0  0  0  0  0  0  0  0  0  0  0
  -10.1833    4.5485   -0.0657 H   0  0  0  0  0  0  0  0  0  0  0  0
  -12.4541    4.6247    0.9157 H   0  0  0  0  0  0  0  0  0  0  0  0
  -11.3167    5.8049    1.6763 H   0  0  0  0  0  0  0  0  0  0  0  0
  -13.4378    6.8808    1.3485 H   0  0  0  0  0  0  0  0  0  0  0  0
  -14.0480    5.4340   -0.4420 H   0  0  0  0  0  0  0  0  0  0  0  0
  -11.9506    8.1694    2.2760 H   0  0  0  0  0  0  0  0  0  0  0  0
  -10.3915    8.3483    1.4020 H   0  0  0  0  0  0  0  0  0  0  0  0
  -11.5808    9.6945    1.4020 H   0  0  0  0  0  0  0  0  0  0  0  0
  -13.6559    9.5009    0.5611 H   0  0  0  0  0  0  0  0  0  0  0  0
  -12.7171    9.8456   -0.9311 H   0  0  0  0  0  0  0  0  0  0  0  0
  -13.9592    8.5480   -0.9311 H   0  0  0  0  0  0  0  0  0  0  0  0
  -10.0454    4.6017   -2.4751 H   0  0  0  0  0  0  0  0  0  0  0  0
  -10.2056    6.0359   -3.5448 H   0  0  0  0  0  0  0  0  0  0  0  0
   -8.6842    5.0808   -3.5448 H   0  0  0  0  0  0  0  0  0  0  0  0
   -8.1630    4.8961   -0.3805 H   0  0  0  0  0  0  0  0  0  0  0  0
   -7.2507    5.0565   -1.9853 H   0  0  0  0  0  0  0  0  0  0  0  0
   -7.0306    6.8435    0.4534 H   0  0  0  0  0  0  0  0  0  0  0  0
   -5.7829    5.7456   -0.2581 H   0  0  0  0  0  0  0  0  0  0  0  0
   -4.8116    6.0997   -2.3725 H   0  0  0  0  0  0  0  0  0  0  0  0
   -6.3345    6.4031   -3.2756 H   0  0  0  0  0  0  0  0  0  0  0  0
   -5.0292    7.6372   -3.2756 H   0  0  0  0  0  0  0  0  0  0  0  0
  1  2  1  0
  2  3  1  0
  3  4  1  0
  4  5  1  0
  5  6  1  0
  6  7  1  0
  7  8  1  0
  7  9  1  0
  2 10  1  0
 10 11  1  0
 11 12  1  0
 12 13  1  0
 13 14  1  1
 13 15  1  0
 15 16  1  0
 16 17  1  0
 17 18  2  0
 18 19  1  0
 19 20  1  0
 20 21  1  0
 21 22  1  0
 22 23  1  0
 22 24  1  0
 24 25  1  0
 24 26  1  0
 19 27  1  0
 27 28  1  6
 27 29  1  0
 29 30  1  0
 30 31  1  0
 31 32  1  6
  7  5  1  0
 31 10  1  0
 31 13  1  0
 27 15  1  0
 24 18  1  0
  1 33  1  0
  1 34  1  0
  1 35  1  0
  2 36  1  6
  3 37  1  0
  3 38  1  0
  4 39  1  0
  4 40  1  0
  5 41  1  6
  8 42  1  0
  8 43  1  0
  8 44  1  0
  9 45  1  0
  9 46  1  0
  9 47  1  0
 10 48  1  1
 11 49  1  0
 11 50  1  0
 12 51  1  0
 12 52  1  0
 14 53  1  0
 14 54  1  0
 14 55  1  0
 15 56  1  6
 16 57  1  0
 16 58  1  0
 17 59  1  0
 19 60  1  1
 20 61  1  0
 20 62  1  0
 21 63  1  0
 21 64  1  0
 22 65  1  1
 23 66  1  0
 25 67  1  0
 25 68  1  0
 25 69  1  0
 26 70  1  0
 26 71  1  0
 26 72  1  0
 28 73  1  0
 28 74  1  0
 28 75  1  0
 29 76  1  0
 29 77  1  0
 30 78  1  0
 30 79  1  0
 32 80  1  0
 32 81  1  0
 32 82  1  0
M  END
>  <meeko>  (12) 
{"is_sidechain": [false], "intermolecular_energy": 2.731, "internal_energy": -0.839}

$$$$
EPH_relaxed_0001_pdb2pqr_Repair_256_r2_0001_out
     RDKit          3D

 82 86  0  0  0  0  0  0  0  0999 V2000
   -3.9000    7.2440   -2.9810 C   0  0  0  0  0  0  0  0  0  0  0  0
   -3.8990    7.5730   -1.4850 C   0  0  2  0  0  0  0  0  0  0  0  0
   -5.3240    7.7970   -0.9390 C   0  0  0  0  0  0  0  0  0  0  0  0
   -6.2790    6.6330   -1.2160 C   0  0  0  0  0  0  0  0  0  0  0  0
   -7.7110    7.0340   -1.0280 C   0  0  2  0  0  0  0  0  0  0  0  0
   -8.6360    5.9400   -0.9680 O   0  0  0  0  0  0  0  0  0  0  0  0
   -8.7810    6.8330   -2.0850 C   0  0  0  0  0  0  0  0  0  0  0  0
   -8.4640    6.2080   -3.4070 C   0  0  0  0  0  0  0  0  0  0  0  0
  -10.0140    7.6790   -2.0240 C   0  0  0  0  0  0  0  0  0  0  0  0
   -3.0420    8.8070   -1.2250 C   0  0  1  0  0  0  0  0  0  0  0  0
   -3.4670    9.5700    0.0580 C   0  0  0  0  0  0  0  0  0  0  0  0
   -2.1710   10.1400    0.6890 C   0  0  0  0  0  0  0  0  0  0  0  0
   -1.0960    9.9750   -0.4100 C   0  0  1  0  0  0  0  0  0  0  0  0
   -1.3130   11.1880   -1.3680 C   0  0  0  0  0  0  0  0  0  0  0  0
    0.3860    9.8840    0.0800 C   0  0  2  0  0  0  0  0  0  0  0  0
    0.9090   11.1330    0.8090 C   0  0  0  0  0  0  0  0  0  0  0  0
    1.5560   12.1570   -0.0630 C   0  0  0  0  0  0  0  0  0  0  0  0
    1.9660   11.9590   -1.3300 C   0  0  0  0  0  0  0  0  0  0  0  0
    1.8820   10.5700   -1.9770 C   0  0  1  0  0  0  0  0  0  0  0  0
    3.2200   10.2520   -2.6960 C   0  0  0  0  0  0  0  0  0  0  0  0
    3.6210   11.3360   -3.6910 C   0  0  0  0  0  0  0  0  0  0  0  0
    3.7510   12.6910   -3.0000 C   0  0  2  0  0  0  0  0  0  0  0  0
    4.8570   12.6420   -2.0940 O   0  0  0  0  0  0  0  0  0  0  0  0
    2.4660   13.1130   -2.2330 C   0  0  0  0  0  0  0  0  0  0  0  0
    1.3460   13.4590   -3.2450 C   0  0  0  0  0  0  0  0  0  0  0  0
    2.7780   14.4260   -1.4660 C   0  0  0  0  0  0  0  0  0  0  0  0
    1.4050    9.3900   -1.0250 C   0  0  1  0  0  0  0  0  0  0  0  0
    2.6280    8.7900   -0.2670 C   0  0  0  0  0  0  0  0  0  0  0  0
    0.8150    8.2260   -1.9060 C   0  0  0  0  0  0  0  0  0  0  0  0
   -0.6830    8.3110   -2.2570 C   0  0  0  0  0  0  0  0  0  0  0  0
   -1.5240    8.5850   -1.0070 C   0  0  2  0  0  0  0  0  0  0  0  0
   -1.3440    7.3700   -0.0340 C   0  0  0  0  0  0  0  0  0  0  0  0
   -3.9033    6.1524   -3.1164 H   0  0  0  0  0  0  0  0  0  0  0  0
   -4.7968    7.6744   -3.4505 H   0  0  0  0  0  0  0  0  0  0  0  0
   -3.0006    7.6690   -3.4505 H   0  0  0  0  0  0  0  0  0  0  0  0
   -3.4747    6.7071   -0.9557 H   0  0  0  0  0  0  0  0  0  0  0  0
   -5.2600    7.9423    0.1495 H   0  0  0  0  0  0  0  0  0  0  0  0
   -5.7319    8.6777   -1.4566 H   0  0  0  0  0  0  0  0  0  0  0  0
   -6.1368    6.2943   -2.2528 H   0  0  0  0  0  0  0  0  0  0  0  0
   -6.0524    5.8264   -0.5032 H   0  0  0  0  0  0  0  0  0  0  0  0
   -7.4125    7.9132   -0.4382 H   0  0  0  0  0  0  0  0  0  0  0  0
   -7.9718    5.2376   -3.2452 H   0  0  0  0  0  0  0  0  0  0  0  0
   -9.3946    6.0572   -3.9738 H   0  0  0  0  0  0  0  0  0  0  0  0
   -7.7926    6.8697   -3.9738 H   0  0  0  0  0  0  0  0  0  0  0  0
  -10.2812    7.8624   -0.9728 H   0  0  0  0  0  0  0  0  0  0  0  0
   -9.8254    8.6388   -2.5272 H   0  0  0  0  0  0  0  0  0  0  0  0
  -10.8417    7.1577   -2.5272 H   0  0  0  0  0  0  0  0  0  0  0  0
   -3.2117    9.3513   -2.1657 H   0  0  0  0  0  0  0  0  0  0  0  0
   -4.1553   10.3888   -0.1986 H   0  0  0  0  0  0  0  0  0  0  0  0
   -3.9879    8.9026    0.7603 H   0  0  0  0  0  0  0  0  0  0  0  0
   -2.3001   11.2009    0.9496 H   0  0  0  0  0  0  0  0  0  0  0  0
   -1.8980    9.6221    1.6203 H   0  0  0  0  0  0  0  0  0  0  0  0
   -1.4761   12.0995   -0.7743 H   0  0  0  0  0  0  0  0  0  0  0  0
   -0.4238   11.3178   -2.0024 H   0  0  0  0  0  0  0  0  0  0  0  0
   -2.1920   11.0015   -2.0024 H   0  0  0  0  0  0  0  0  0  0  0  0
    0.3346    9.0927    0.8424 H   0  0  0  0  0  0  0  0  0  0  0  0
    0.0589   11.6095    1.3192 H   0  0  0  0  0  0  0  0  0  0  0  0
    1.6928   10.7788    1.4948 H   0  0  0  0  0  0  0  0  0  0  0  0
    1.7110   13.1581    0.3657 H   0  0  0  0  0  0  0  0  0  0  0  0
    1.0668   10.6258   -2.7135 H   0  0  0  0  0  0  0  0  0  0  0  0
    4.0129   10.1569   -1.9395 H   0  0  0  0  0  0  0  0  0  0  0  0
    3.0828    9.3166   -3.2584 H   0  0  0  0  0  0  0  0  0  0  0  0
    4.5871   11.0690   -4.1441 H   0  0  0  0  0  0  0  0  0  0  0  0
    2.8408   11.4094   -4.4630 H   0  0  0  0  0  0  0  0  0  0  0  0
    3.9119   13.4467   -3.7830 H   0  0  0  0  0  0  0  0  0  0  0  0
    5.6080   13.0870   -2.5220 H   0  0  0  0  0  0  0  0  0  0  0  0
    0.4333   13.7410   -2.6996 H   0  0  0  0  0  0  0  0  0  0  0  0
    1.6697   14.2990   -3.8771 H   0  0  0  0  0  0  0  0  0  0  0  0
    1.1395   12.5828   -3.8771 H   0  0  0  0  0  0  0  0  0  0  0  0
    2.7332   14.2376   -0.3832 H   0  0  0  0  0  0  0  0  0  0  0  0
    3.7847   14.7778   -1.7356 H   0  0  0  0  0  0  0  0  0  0  0  0
    2.0371   15.1931   -1.7356 H   0  0  0  0  0  0  0  0  0  0  0  0
    2.4629    8.8710    0.8175 H   0  0  0  0  0  0  0  0  0  0  0  0
    2.7464    7.7315   -0.5418 H   0  0  0  0  0  0  0  0  0  0  0  0
    3.5376    9.3442   -0.5418 H   0  0  0  0  0  0  0  0  0  0  0  0
    1.3776    8.2060   -2.8510 H   0  0  0  0  0  0  0  0  0  0  0  0
    0.9154    7.3199   -1.2904 H   0  0  0  0  0  0  0  0  0  0  0  0
   -0.8375    9.1252   -2.9803 H   0  0  0  0  0  0  0  0  0  0  0  0
   -0.9976    7.3489   -2.6875 H   0  0  0  0  0  0  0  0  0  0  0  0
   -1.3963    7.7227    1.0066 H   0  0  0  0  0  0  0  0  0  0  0  0
   -2.1431    6.6356   -0.2128 H   0  0  0  0  0  0  0  0  0  0  0  0
   -0.3662    6.8988   -0.2128 H   0  0  0  0  0  0  0  0  0  0  0  0
  1  2  1  0
  2  3  1  0
  3  4  1  0
  4  5  1  0
  5  6  1  0
  6  7  1  0
  7  8  1  0
  7  9  1  0
  2 10  1  0
 10 11  1  0
 11 12  1  0
 12 13  1  0
 13 14  1  6
 13 15  1  0
 15 16  1  0
 16 17  1  0
 17 18  2  0
 18 19  1  0
 19 20  1  0
 20 21  1  0
 21 22  1  0
 22 23  1  0
 22 24  1  0
 24 25  1  0
 24 26  1  0
 19 27  1  0
 27 28  1  1
 27 29  1  0
 29 30  1  0
 30 31  1  0
 31 32  1  1
  7  5  1  0
 31 10  1  0
 31 13  1  0
 27 15  1  0
 24 18  1  0
  1 33  1  0
  1 34  1  0
  1 35  1  0
  2 36  1  1
  3 37  1  0
  3 38  1  0
  4 39  1  0
  4 40  1  0
  5 41  1  1
  8 42  1  0
  8 43  1  0
  8 44  1  0
  9 45  1  0
  9 46  1  0
  9 47  1  0
 10 48  1  6
 11 49  1  0
 11 50  1  0
 12 51  1  0
 12 52  1  0
 14 53  1  0
 14 54  1  0
 14 55  1  0
 15 56  1  1
 16 57  1  0
 16 58  1  0
 17 59  1  0
 19 60  1  6
 20 61  1  0
 20 62  1  0
 21 63  1  0
 21 64  1  0
 22 65  1  6
 23 66  1  0
 25 67  1  0
 25 68  1  0
 25 69  1  0
 26 70  1  0
 26 71  1  0
 26 72  1  0
 28 73  1  0
 28 74  1  0
 28 75  1  0
 29 76  1  0
 29 77  1  0
 30 78  1  0
 30 79  1  0
 32 80  1  0
 32 81  1  0
 32 82  1  0
M  END
>  <meeko>  (13) 
{"is_sidechain": [false], "intermolecular_energy": 2.731, "internal_energy": -0.839}

$$$$
EPH_relaxed_0001_pdb2pqr_Repair_256_r2_0001_out
     RDKit          3D

 82 86  0  0  0  0  0  0  0  0999 V2000
    3.9870   17.3300   -0.3110 C   0  0  0  0  0  0  0  0  0  0  0  0
    2.6390   17.0010   -0.9590 C   0  0  2  0  0  0  0  0  0  0  0  0
    1.4530   17.3460   -0.0370 C   0  0  0  0  0  0  0  0  0  0  0  0
    1.1050   18.8370   -0.0120 C   0  0  0  0  0  0  0  0  0  0  0  0
   -0.2920   19.0730    0.4760 C   0  0  2  0  0  0  0  0  0  0  0  0
   -1.2640   18.1440   -0.0200 O   0  0  0  0  0  0  0  0  0  0  0  0
   -1.4300   19.5120   -0.4260 C   0  0  0  0  0  0  0  0  0  0  0  0
   -1.2210   19.7410   -1.8900 C   0  0  0  0  0  0  0  0  0  0  0  0
   -2.6150   20.1850    0.1930 C   0  0  0  0  0  0  0  0  0  0  0  0
    2.5920   15.5260   -1.3390 C   0  0  1  0  0  0  0  0  0  0  0  0
    3.9640   14.9910   -1.8300 C   0  0  0  0  0  0  0  0  0  0  0  0
    4.0700   13.5220   -1.3460 C   0  0  0  0  0  0  0  0  0  0  0  0
    2.6380   13.1570   -0.8890 C   0  0  1  0  0  0  0  0  0  0  0  0
    1.8760   12.8010   -2.2030 C   0  0  0  0  0  0  0  0  0  0  0  0
    2.5220   12.0160    0.1730 C   0  0  2  0  0  0  0  0  0  0  0  0
    3.0360   10.6410   -0.2880 C   0  0  0  0  0  0  0  0  0  0  0  0
    2.0160    9.7620   -0.9320 C   0  0  0  0  0  0  0  0  0  0  0  0
    0.6830    9.9420   -0.8800 C   0  0  0  0  0  0  0  0  0  0  0  0
    0.0730   11.0670   -0.0340 C   0  0  1  0  0  0  0  0  0  0  0  0
   -1.1120   10.5070    0.7960 C   0  0  0  0  0  0  0  0  0  0  0  0
   -2.1500    9.8000   -0.0700 C   0  0  0  0  0  0  0  0  0  0  0  0
   -1.5170    8.6510   -0.8510 C   0  0  2  0  0  0  0  0  0  0  0  0
   -1.1050    7.6390    0.0720 O   0  0  0  0  0  0  0  0  0  0  0  0
   -0.3050    9.0940   -1.7180 C   0  0  0  0  0  0  0  0  0  0  0  0
   -0.8010    9.9560   -2.9050 C   0  0  0  0  0  0  0  0  0  0  0  0
    0.3270    7.8200   -2.3410 C   0  0  0  0  0  0  0  0  0  0  0  0
    1.0960   11.9030    0.8500 C   0  0  1  0  0  0  0  0  0  0  0  0
    1.3100   11.1980    2.2250 C   0  0  0  0  0  0  0  0  0  0  0  0
    0.4710   13.3120    1.1660 C   0  0  0  0  0  0  0  0  0  0  0  0
    0.7210   14.4310    0.1370 C   0  0  0  0  0  0  0  0  0  0  0  0
    2.2060   14.5170   -0.2280 C   0  0  2  0  0  0  0  0  0  0  0  0
    2.9970   14.8960    1.0700 C   0  0  0  0  0  0  0  0  0  0  0  0
    3.8834   17.3047    0.7838 H   0  0  0  0  0  0  0  0  0  0  0  0
    4.7359   16.5883   -0.6257 H   0  0  0  0  0  0  0  0  0  0  0  0
    4.3100   18.3333   -0.6257 H   0  0  0  0  0  0  0  0  0  0  0  0
    2.5454   17.6208   -1.8630 H   0  0  0  0  0  0  0  0  0  0  0  0
    0.5701   16.7893   -0.3841 H   0  0  0  0  0  0  0  0  0  0  0  0
    1.7497   17.0684    0.9852 H   0  0  0  0  0  0  0  0  0  0  0  0
    1.8082   19.3558    0.6561 H   0  0  0  0  0  0  0  0  0  0  0  0
    1.1787   19.2231   -1.0394 H   0  0  0  0  0  0  0  0  0  0  0  0
    0.0831   19.4634    1.4335 H   0  0  0  0  0  0  0  0  0  0  0  0
   -0.4858   20.5465   -2.0338 H   0  0  0  0  0  0  0  0  0  0  0  0
   -0.8484   18.8170   -2.3561 H   0  0  0  0  0  0  0  0  0  0  0  0
   -2.1752   20.0279   -2.3561 H   0  0  0  0  0  0  0  0  0  0  0  0
   -2.5323   20.1381    1.2889 H   0  0  0  0  0  0  0  0  0  0  0  0
   -2.6482   21.2368   -0.1275 H   0  0  0  0  0  0  0  0  0  0  0  0
   -3.5353   19.6748   -0.1275 H   0  0  0  0  0  0  0  0  0  0  0  0
    1.8054   15.5589   -2.1072 H   0  0  0  0  0  0  0  0  0  0  0  0
    4.0160   15.0328   -2.9280 H   0  0  0  0  0  0  0  0  0  0  0  0
    4.7903   15.5986   -1.4324 H   0  0  0  0  0  0  0  0  0  0  0  0
    4.3949   12.8654   -2.1665 H   0  0  0  0  0  0  0  0  0  0  0  0
    4.8086   13.4008   -0.5399 H   0  0  0  0  0  0  0  0  0  0  0  0
    0.9055   12.3476   -1.9527 H   0  0  0  0  0  0  0  0  0  0  0  0
    1.7124   13.7159   -2.7914 H   0  0  0  0  0  0  0  0  0  0  0  0
    2.4728   12.0885   -2.7914 H   0  0  0  0  0  0  0  0  0  0  0  0
    3.2206   12.3493    0.9546 H   0  0  0  0  0  0  0  0  0  0  0  0
    3.8475   10.8068   -1.0119 H   0  0  0  0  0  0  0  0  0  0  0  0
    3.3586   10.1157    0.6230 H   0  0  0  0  0  0  0  0  0  0  0  0
    2.3849    8.8933   -1.4971 H   0  0  0  0  0  0  0  0  0  0  0  0
   -0.2939   11.8190   -0.7480 H   0  0  0  0  0  0  0  0  0  0  0  0
   -0.7193    9.7900    1.5320 H   0  0  0  0  0  0  0  0  0  0  0  0
   -1.6088   11.3579    1.2851 H   0  0  0  0  0  0  0  0  0  0  0  0
   -2.9461    9.4009    0.5757 H   0  0  0  0  0  0  0  0  0  0  0  0
   -2.5633   10.5257   -0.7859 H   0  0  0  0  0  0  0  0  0  0  0  0
   -2.2766    8.2671   -1.5479 H   0  0  0  0  0  0  0  0  0  0  0  0
   -0.7480    8.0850    0.8580 H   0  0  0  0  0  0  0  0  0  0  0  0
   -1.3149   10.8491   -2.5200 H   0  0  0  0  0  0  0  0  0  0  0  0
    0.0583   10.2635   -3.5191 H   0  0  0  0  0  0  0  0  0  0  0  0
   -1.4987    9.3677   -3.5191 H   0  0  0  0  0  0  0  0  0  0  0  0
    0.6612    7.1463   -1.5382 H   0  0  0  0  0  0  0  0  0  0  0  0
   -0.4208    7.3064   -2.9631 H   0  0  0  0  0  0  0  0  0  0  0  0
    1.1884    8.1047   -2.9631 H   0  0  0  0  0  0  0  0  0  0  0  0
    1.0948   11.9070    3.0380 H   0  0  0  0  0  0  0  0  0  0  0  0
    0.6336   10.3341    2.3033 H   0  0  0  0  0  0  0  0  0  0  0  0
    2.3525   10.8558    2.3033 H   0  0  0  0  0  0  0  0  0  0  0  0
   -0.6174   13.1803    1.2562 H   0  0  0  0  0  0  0  0  0  0  0  0
    0.9731   13.6493    2.0848 H   0  0  0  0  0  0  0  0  0  0  0  0
    0.1384   14.2209   -0.7721 H   0  0  0  0  0  0  0  0  0  0  0  0
    0.4119   15.3898    0.5788 H   0  0  0  0  0  0  0  0  0  0  0  0
    2.4072   14.6134    1.9545 H   0  0  0  0  0  0  0  0  0  0  0  0
    3.9577   14.3604    1.0835 H   0  0  0  0  0  0  0  0  0  0  0  0
    3.1815   15.9803    1.0835 H   0  0  0  0  0  0  0  0  0  0  0  0
  1  2  1  0
  2  3  1  0
  3  4  1  0
  4  5  1  0
  5  6  1  0
  6  7  1  0
  7  8  1  0
  7  9  1  0
  2 10  1  0
 10 11  1  0
 11 12  1  0
 12 13  1  0
 13 14  1  6
 13 15  1  0
 15 16  1  0
 16 17  1  0
 17 18  2  0
 18 19  1  0
 19 20  1  0
 20 21  1  0
 21 22  1  0
 22 23  1  0
 22 24  1  0
 24 25  1  0
 24 26  1  0
 19 27  1  0
 27 28  1  1
 27 29  1  0
 29 30  1  0
 30 31  1  0
 31 32  1  1
  7  5  1  0
 31 10  1  0
 31 13  1  0
 27 15  1  0
 24 18  1  0
  1 33  1  0
  1 34  1  0
  1 35  1  0
  2 36  1  6
  3 37  1  0
  3 38  1  0
  4 39  1  0
  4 40  1  0
  5 41  1  1
  8 42  1  0
  8 43  1  0
  8 44  1  0
  9 45  1  0
  9 46  1  0
  9 47  1  0
 10 48  1  6
 11 49  1  0
 11 50  1  0
 12 51  1  0
 12 52  1  0
 14 53  1  0
 14 54  1  0
 14 55  1  0
 15 56  1  1
 16 57  1  0
 16 58  1  0
 17 59  1  0
 19 60  1  6
 20 61  1  0
 20 62  1  0
 21 63  1  0
 21 64  1  0
 22 65  1  6
 23 66  1  0
 25 67  1  0
 25 68  1  0
 25 69  1  0
 26 70  1  0
 26 71  1  0
 26 72  1  0
 28 73  1  0
 28 74  1  0
 28 75  1  0
 29 76  1  0
 29 77  1  0
 30 78  1  0
 30 79  1  0
 32 80  1  0
 32 81  1  0
 32 82  1  0
M  END
>  <meeko>  (14) 
{"is_sidechain": [false], "intermolecular_energy": 2.731, "internal_energy": -0.839}

$$$$
EPH_relaxed_0001_pdb2pqr_Repair_256_r2_0001_out
     RDKit          3D

 82 86  0  0  0  0  0  0  0  0999 V2000
   -1.0010   16.5540   -5.8560 C   0  0  0  0  0  0  0  0  0  0  0  0
    0.1330   15.8060   -6.5630 C   0  0  2  0  0  0  0  0  0  0  0  0
   -0.2320   15.4370   -8.0140 C   0  0  0  0  0  0  0  0  0  0  0  0
    0.3450   16.3980   -9.0570 C   0  0  0  0  0  0  0  0  0  0  0  0
    1.7660   16.0600   -9.3960 C   0  0  2  0  0  0  0  0  0  0  0  0
    2.2630   16.6880  -10.5850 O   0  0  0  0  0  0  0  0  0  0  0  0
    2.1660   15.2550  -10.6180 C   0  0  0  0  0  0  0  0  0  0  0  0
    1.1430   14.7360  -11.5800 C   0  0  0  0  0  0  0  0  0  0  0  0
    3.4920   14.5610  -10.6150 C   0  0  0  0  0  0  0  0  0  0  0  0
    0.4930   14.5490   -5.7800 C   0  0  1  0  0  0  0  0  0  0  0  0
    1.3440   13.5510   -6.6100 C   0  0  0  0  0  0  0  0  0  0  0  0
    2.3300   12.8750   -5.6240 C   0  0  0  0  0  0  0  0  0  0  0  0
    1.7990   13.2530   -4.2210 C   0  0  1  0  0  0  0  0  0  0  0  0
    0.6380   12.2460   -3.9470 C   0  0  0  0  0  0  0  0  0  0  0  0
    2.8480   13.2530   -3.0620 C   0  0  2  0  0  0  0  0  0  0  0  0
    3.4950   11.8880   -2.7680 C   0  0  0  0  0  0  0  0  0  0  0  0
    2.7890   11.0540   -1.7510 C   0  0  0  0  0  0  0  0  0  0  0  0
    1.8480   11.4940   -0.8950 C   0  0  0  0  0  0  0  0  0  0  0  0
    1.4760   12.9810   -0.8300 C   0  0  1  0  0  0  0  0  0  0  0  0
    1.4190   13.4360    0.6520 C   0  0  0  0  0  0  0  0  0  0  0  0
    0.4940   12.5660    1.4970 C   0  0  0  0  0  0  0  0  0  0  0  0
    0.9310   11.1040    1.4540 C   0  0  2  0  0  0  0  0  0  0  0  0
    2.1970   10.9820    2.1090 O   0  0  0  0  0  0  0  0  0  0  0  0
    1.0330   10.5370    0.0100 C   0  0  0  0  0  0  0  0  0  0  0  0
   -0.3860   10.3890   -0.5930 C   0  0  0  0  0  0  0  0  0  0  0  0
    1.6180    9.1020    0.1010 C   0  0  0  0  0  0  0  0  0  0  0  0
    2.3480   13.9540   -1.7350 C   0  0  1  0  0  0  0  0  0  0  0  0
    3.6250   14.4000   -0.9590 C   0  0  0  0  0  0  0  0  0  0  0  0
    1.5230   15.2640   -2.0240 C   0  0  0  0  0  0  0  0  0  0  0  0
    0.5940   15.2420   -3.2530 C   0  0  0  0  0  0  0  0  0  0  0  0
    1.3350   14.7300   -4.4920 C   0  0  2  0  0  0  0  0  0  0  0  0
    2.4950   15.7350   -4.8050 C   0  0  0  0  0  0  0  0  0  0  0  0
   -0.8728   16.4695   -4.7668 H   0  0  0  0  0  0  0  0  0  0  0  0
   -0.9778   17.6146   -6.1467 H   0  0  0  0  0  0  0  0  0  0  0  0
   -1.9669   16.1152   -6.1467 H   0  0  0  0  0  0  0  0  0  0  0  0
    1.0011   16.4804   -6.6026 H   0  0  0  0  0  0  0  0  0  0  0  0
    0.1513   14.4272   -8.2225 H   0  0  0  0  0  0  0  0  0  0  0  0
   -1.3275   15.4949   -8.0947 H   0  0  0  0  0  0  0  0  0  0  0  0
   -0.2635   16.3389   -9.9715 H   0  0  0  0  0  0  0  0  0  0  0  0
    0.3252   17.4139   -8.6355 H   0  0  0  0  0  0  0  0  0  0  0  0
    2.0211   15.9596   -8.3307 H   0  0  0  0  0  0  0  0  0  0  0  0
    0.2982   14.3074  -11.0210 H   0  0  0  0  0  0  0  0  0  0  0  0
    0.7832   15.5606  -12.2129 H   0  0  0  0  0  0  0  0  0  0  0  0
    1.5960   13.9587  -12.2129 H   0  0  0  0  0  0  0  0  0  0  0  0
    3.8150   14.3919   -9.5772 H   0  0  0  0  0  0  0  0  0  0  0  0
    3.4013   13.5947  -11.1328 H   0  0  0  0  0  0  0  0  0  0  0  0
    4.2343   15.1862  -11.1328 H   0  0  0  0  0  0  0  0  0  0  0  0
   -0.5169   14.1965   -5.5236 H   0  0  0  0  0  0  0  0  0  0  0  0
    0.6944   12.7944   -7.0743 H   0  0  0  0  0  0  0  0  0  0  0  0
    1.8848   14.0687   -7.4160 H   0  0  0  0  0  0  0  0  0  0  0  0
    2.3272   11.7833   -5.7592 H   0  0  0  0  0  0  0  0  0  0  0  0
    3.3678   13.2045   -5.7801 H   0  0  0  0  0  0  0  0  0  0  0  0
    0.5028   12.1288   -2.8617 H   0  0  0  0  0  0  0  0  0  0  0  0
   -0.2919   12.6283   -4.3931 H   0  0  0  0  0  0  0  0  0  0  0  0
    0.8850   11.2714   -4.3931 H   0  0  0  0  0  0  0  0  0  0  0  0
    3.6518   13.8826   -3.4712 H   0  0  0  0  0  0  0  0  0  0  0  0
    3.5308   11.3190   -3.7087 H   0  0  0  0  0  0  0  0  0  0  0  0
    4.4877   12.1059   -2.3471 H   0  0  0  0  0  0  0  0  0  0  0  0
    3.0608    9.9895   -1.6965 H   0  0  0  0  0  0  0  0  0  0  0  0
    0.4779   13.0653   -1.2846 H   0  0  0  0  0  0  0  0  0  0  0  0
    2.4332   13.3865    1.0751 H   0  0  0  0  0  0  0  0  0  0  0  0
    1.0215   14.4615    0.6708 H   0  0  0  0  0  0  0  0  0  0  0  0
    0.5196   12.9190    2.5385 H   0  0  0  0  0  0  0  0  0  0  0  0
   -0.5257   12.6400    1.0911 H   0  0  0  0  0  0  0  0  0  0  0  0
    0.1587   10.5137    1.9688 H   0  0  0  0  0  0  0  0  0  0  0  0
    2.3940   11.8360    2.5300 H   0  0  0  0  0  0  0  0  0  0  0  0
   -1.1235   10.3121    0.2195 H   0  0  0  0  0  0  0  0  0  0  0  0
   -0.6143   11.2682   -1.2134 H   0  0  0  0  0  0  0  0  0  0  0  0
   -0.4280    9.4816   -1.2134 H   0  0  0  0  0  0  0  0  0  0  0  0
    1.7332    8.8193    1.1578 H   0  0  0  0  0  0  0  0  0  0  0  0
    0.9360    8.3958   -0.3952 H   0  0  0  0  0  0  0  0  0  0  0  0
    2.5993    9.0739   -0.3952 H   0  0  0  0  0  0  0  0  0  0  0  0
    3.4380   14.3347    0.1230 H   0  0  0  0  0  0  0  0  0  0  0  0
    4.4650   13.7420   -1.2263 H   0  0  0  0  0  0  0  0  0  0  0  0
    3.8727   15.4379   -1.2263 H   0  0  0  0  0  0  0  0  0  0  0  0
    0.9008   15.4675   -1.1400 H   0  0  0  0  0  0  0  0  0  0  0  0
    2.2753   16.0355   -2.2452 H   0  0  0  0  0  0  0  0  0  0  0  0
   -0.2606   14.5810   -3.0462 H   0  0  0  0  0  0  0  0  0  0  0  0
    0.2489   16.2677   -3.4499 H   0  0  0  0  0  0  0  0  0  0  0  0
    2.9232   16.1059   -3.8621 H   0  0  0  0  0  0  0  0  0  0  0  0
    3.2763   15.2236   -5.3864 H   0  0  0  0  0  0  0  0  0  0  0  0
    2.1001   16.5812   -5.3864 H   0  0  0  0  0  0  0  0  0  0  0  0
  1  2  1  0
  2  3  1  0
  3  4  1  0
  4  5  1  0
  5  6  1  0
  6  7  1  0
  7  8  1  0
  7  9  1  0
  2 10  1  0
 10 11  1  0
 11 12  1  0
 12 13  1  0
 13 14  1  1
 13 15  1  0
 15 16  1  0
 16 17  1  0
 17 18  2  0
 18 19  1  0
 19 20  1  0
 20 21  1  0
 21 22  1  0
 22 23  1  0
 22 24  1  0
 24 25  1  0
 24 26  1  0
 19 27  1  0
 27 28  1  1
 27 29  1  0
 29 30  1  0
 30 31  1  0
 31 32  1  6
  7  5  1  0
 31 10  1  0
 31 13  1  0
 27 15  1  0
 24 18  1  0
  1 33  1  0
  1 34  1  0
  1 35  1  0
  2 36  1  6
  3 37  1  0
  3 38  1  0
  4 39  1  0
  4 40  1  0
  5 41  1  1
  8 42  1  0
  8 43  1  0
  8 44  1  0
  9 45  1  0
  9 46  1  0
  9 47  1  0
 10 48  1  1
 11 49  1  0
 11 50  1  0
 12 51  1  0
 12 52  1  0
 14 53  1  0
 14 54  1  0
 14 55  1  0
 15 56  1  6
 16 57  1  0
 16 58  1  0
 17 59  1  0
 19 60  1  6
 20 61  1  0
 20 62  1  0
 21 63  1  0
 21 64  1  0
 22 65  1  1
 23 66  1  0
 25 67  1  0
 25 68  1  0
 25 69  1  0
 26 70  1  0
 26 71  1  0
 26 72  1  0
 28 73  1  0
 28 74  1  0
 28 75  1  0
 29 76  1  0
 29 77  1  0
 30 78  1  0
 30 79  1  0
 32 80  1  0
 32 81  1  0
 32 82  1  0
M  END
>  <meeko>  (15) 
{"is_sidechain": [false], "intermolecular_energy": 2.731, "internal_energy": -0.839}

$$$$
EPH_relaxed_0001_pdb2pqr_Repair_256_r2_0001_out
     RDKit          3D

 82 86  0  0  0  0  0  0  0  0999 V2000
    0.4880   20.1940   -0.8890 C   0  0  0  0  0  0  0  0  0  0  0  0
    1.6070   19.2460   -0.4500 C   0  0  2  0  0  0  0  0  0  0  0  0
    2.8510   20.0080    0.0500 C   0  0  0  0  0  0  0  0  0  0  0  0
    3.0160   19.9860    1.5720 C   0  0  0  0  0  0  0  0  0  0  0  0
    4.4260   19.6710    1.9720 C   0  0  2  0  0  0  0  0  0  0  0  0
    4.6020   18.3850    2.5810 O   0  0  0  0  0  0  0  0  0  0  0  0
    4.8730   19.5240    3.4140 C   0  0  0  0  0  0  0  0  0  0  0  0
    3.9120   19.6880    4.5500 C   0  0  0  0  0  0  0  0  0  0  0  0
    6.3230   19.7050    3.7360 C   0  0  0  0  0  0  0  0  0  0  0  0
    1.9880   18.3240   -1.6020 C   0  0  1  0  0  0  0  0  0  0  0  0
    2.8990   17.1500   -1.1510 C   0  0  0  0  0  0  0  0  0  0  0  0
    2.5090   15.9240   -2.0160 C   0  0  0  0  0  0  0  0  0  0  0  0
    1.6330   16.5080   -3.1480 C   0  0  1  0  0  0  0  0  0  0  0  0
    2.6480   17.0760   -4.1890 C   0  0  0  0  0  0  0  0  0  0  0  0
    0.6160   15.5240   -3.8130 C   0  0  2  0  0  0  0  0  0  0  0  0
    1.2480   14.3180   -4.5310 C   0  0  0  0  0  0  0  0  0  0  0  0
    1.5600   14.5280   -5.9760 C   0  0  0  0  0  0  0  0  0  0  0  0
    1.0860   15.5290   -6.7410 C   0  0  0  0  0  0  0  0  0  0  0  0
    0.0640   16.5290   -6.1850 C   0  0  1  0  0  0  0  0  0  0  0  0
   -1.0820   16.7220   -7.2110 C   0  0  0  0  0  0  0  0  0  0  0  0
   -0.5700   17.1180   -8.5930 C   0  0  0  0  0  0  0  0  0  0  0  0
    0.3980   16.0710   -9.1370 C   0  0  2  0  0  0  0  0  0  0  0  0
   -0.3240   14.8590   -9.3810 O   0  0  0  0  0  0  0  0  0  0  0  0
    1.5910   15.7850   -8.1820 C   0  0  0  0  0  0  0  0  0  0  0  0
    2.5400   17.0080   -8.1550 C   0  0  0  0  0  0  0  0  0  0  0  0
    2.4110   14.6110   -8.7820 C   0  0  0  0  0  0  0  0  0  0  0  0
   -0.4720   16.2300   -4.7190 C   0  0  1  0  0  0  0  0  0  0  0  0
   -1.6920   15.2610   -4.7870 C   0  0  0  0  0  0  0  0  0  0  0  0
   -1.0030   17.5690   -4.0830 C   0  0  0  0  0  0  0  0  0  0  0  0
    0.0250   18.4390   -3.3370 C   0  0  0  0  0  0  0  0  0  0  0  0
    0.8370   17.6010   -2.3450 C   0  0  2  0  0  0  0  0  0  0  0  0
   -0.1550   17.0340   -1.2730 C   0  0  0  0  0  0  0  0  0  0  0  0
   -0.0069   20.6133   -0.0006 H   0  0  0  0  0  0  0  0  0  0  0  0
    0.9140   21.0102   -1.4909 H   0  0  0  0  0  0  0  0  0  0  0  0
   -0.2471   19.6397   -1.4909 H   0  0  0  0  0  0  0  0  0  0  0  0
    1.2252   18.6502    0.3921 H   0  0  0  0  0  0  0  0  0  0  0  0
    3.7433   19.5510   -0.4026 H   0  0  0  0  0  0  0  0  0  0  0  0
    2.7231   21.0602   -0.2442 H   0  0  0  0  0  0  0  0  0  0  0  0
    2.7432   20.9727    1.9745 H   0  0  0  0  0  0  0  0  0  0  0  0
    2.3609   19.2005    1.9768 H   0  0  0  0  0  0  0  0  0  0  0  0
    4.8215   20.2635    1.1339 H   0  0  0  0  0  0  0  0  0  0  0  0
    4.4524   19.5958    5.5036 H   0  0  0  0  0  0  0  0  0  0  0  0
    3.4398   20.6797    4.4906 H   0  0  0  0  0  0  0  0  0  0  0  0
    3.1376   18.9090    4.4906 H   0  0  0  0  0  0  0  0  0  0  0  0
    6.4569   19.7217    4.8277 H   0  0  0  0  0  0  0  0  0  0  0  0
    6.9003   18.8719    3.3085 H   0  0  0  0  0  0  0  0  0  0  0  0
    6.6778   20.6544    3.3085 H   0  0  0  0  0  0  0  0  0  0  0  0
    2.4679   19.0534   -2.2711 H   0  0  0  0  0  0  0  0  0  0  0  0
    3.9562   17.4070   -1.3129 H   0  0  0  0  0  0  0  0  0  0  0  0
    2.7668   16.9361   -0.0801 H   0  0  0  0  0  0  0  0  0  0  0  0
    3.4058   15.4396   -2.4296 H   0  0  0  0  0  0  0  0  0  0  0  0
    1.9804   15.1544   -1.4344 H   0  0  0  0  0  0  0  0  0  0  0  0
    3.4900   17.5472   -3.6607 H   0  0  0  0  0  0  0  0  0  0  0  0
    3.0232   16.2568   -4.8199 H   0  0  0  0  0  0  0  0  0  0  0  0
    2.1460   17.8243   -4.8199 H   0  0  0  0  0  0  0  0  0  0  0  0
    0.0865   15.1097   -2.9424 H   0  0  0  0  0  0  0  0  0  0  0  0
    2.1859   14.0676   -4.0136 H   0  0  0  0  0  0  0  0  0  0  0  0
    0.4973   13.5148   -4.4953 H   0  0  0  0  0  0  0  0  0  0  0  0
    2.2342   13.8034   -6.4560 H   0  0  0  0  0  0  0  0  0  0  0  0
    0.6071   17.4760   -6.0502 H   0  0  0  0  0  0  0  0  0  0  0  0
   -1.6394   15.7777   -7.2988 H   0  0  0  0  0  0  0  0  0  0  0  0
   -1.7228   17.5381   -6.8460 H   0  0  0  0  0  0  0  0  0  0  0  0
   -1.4238   17.2104   -9.2803 H   0  0  0  0  0  0  0  0  0  0  0  0
   -0.0384   18.0773   -8.5087 H   0  0  0  0  0  0  0  0  0  0  0  0
    0.8292   16.4711  -10.0665 H   0  0  0  0  0  0  0  0  0  0  0  0
    0.2030   14.3220   -9.9960 H   0  0  0  0  0  0  0  0  0  0  0  0
    2.7537   17.2833   -7.1117 H   0  0  0  0  0  0  0  0  0  0  0  0
    3.4799   16.7542   -8.6671 H   0  0  0  0  0  0  0  0  0  0  0  0
    2.0607   17.8554   -8.6671 H   0  0  0  0  0  0  0  0  0  0  0  0
    2.8341   14.0052   -7.9672 H   0  0  0  0  0  0  0  0  0  0  0  0
    1.7536   13.9837   -9.4020 H   0  0  0  0  0  0  0  0  0  0  0  0
    3.2262   15.0123   -9.4020 H   0  0  0  0  0  0  0  0  0  0  0  0
   -2.0143   15.0050   -3.7669 H   0  0  0  0  0  0  0  0  0  0  0  0
   -2.5197   15.7505   -5.3210 H   0  0  0  0  0  0  0  0  0  0  0  0
   -1.4025   14.3439   -5.3210 H   0  0  0  0  0  0  0  0  0  0  0  0
   -1.4272   18.1778   -4.8951 H   0  0  0  0  0  0  0  0  0  0  0  0
   -1.7260   17.2560   -3.3153 H   0  0  0  0  0  0  0  0  0  0  0  0
    0.7094   18.8938   -4.0683 H   0  0  0  0  0  0  0  0  0  0  0  0
   -0.5149   19.2176   -2.7781 H   0  0  0  0  0  0  0  0  0  0  0  0
    0.2289   17.2534   -0.2658 H   0  0  0  0  0  0  0  0  0  0  0  0
   -1.1409   17.5050   -1.4003 H   0  0  0  0  0  0  0  0  0  0  0  0
   -0.2495   15.9455   -1.4003 H   0  0  0  0  0  0  0  0  0  0  0  0
  1  2  1  0
  2  3  1  0
  3  4  1  0
  4  5  1  0
  5  6  1  0
  6  7  1  0
  7  8  1  0
  7  9  1  0
  2 10  1  0
 10 11  1  0
 11 12  1  0
 12 13  1  0
 13 14  1  6
 13 15  1  0
 15 16  1  0
 16 17  1  0
 17 18  2  0
 18 19  1  0
 19 20  1  0
 20 21  1  0
 21 22  1  0
 22 23  1  0
 22 24  1  0
 24 25  1  0
 24 26  1  0
 19 27  1  0
 27 28  1  6
 27 29  1  0
 29 30  1  0
 30 31  1  0
 31 32  1  1
  7  5  1  0
 31 10  1  0
 31 13  1  0
 27 15  1  0
 24 18  1  0
  1 33  1  0
  1 34  1  0
  1 35  1  0
  2 36  1  1
  3 37  1  0
  3 38  1  0
  4 39  1  0
  4 40  1  0
  5 41  1  6
  8 42  1  0
  8 43  1  0
  8 44  1  0
  9 45  1  0
  9 46  1  0
  9 47  1  0
 10 48  1  6
 11 49  1  0
 11 50  1  0
 12 51  1  0
 12 52  1  0
 14 53  1  0
 14 54  1  0
 14 55  1  0
 15 56  1  1
 16 57  1  0
 16 58  1  0
 17 59  1  0
 19 60  1  1
 20 61  1  0
 20 62  1  0
 21 63  1  0
 21 64  1  0
 22 65  1  6
 23 66  1  0
 25 67  1  0
 25 68  1  0
 25 69  1  0
 26 70  1  0
 26 71  1  0
 26 72  1  0
 28 73  1  0
 28 74  1  0
 28 75  1  0
 29 76  1  0
 29 77  1  0
 30 78  1  0
 30 79  1  0
 32 80  1  0
 32 81  1  0
 32 82  1  0
M  END
>  <meeko>  (16) 
{"is_sidechain": [false], "intermolecular_energy": 2.731, "internal_energy": -0.839}

$$$$
EPH_relaxed_0001_pdb2pqr_Repair_256_r2_0001_out
     RDKit          3D

 82 86  0  0  0  0  0  0  0  0999 V2000
   -7.3160    5.3590   -2.4620 C   0  0  0  0  0  0  0  0  0  0  0  0
   -6.5670    5.7450   -1.1840 C   0  0  2  0  0  0  0  0  0  0  0  0
   -7.2790    6.8740   -0.4120 C   0  0  0  0  0  0  0  0  0  0  0  0
   -8.7290    7.0990   -0.8500 C   0  0  0  0  0  0  0  0  0  0  0  0
   -9.6190    7.4090    0.3160 C   0  0  2  0  0  0  0  0  0  0  0  0
  -10.5990    6.4040    0.6050 O   0  0  0  0  0  0  0  0  0  0  0  0
  -11.1060    7.6810    0.1850 C   0  0  0  0  0  0  0  0  0  0  0  0
  -11.7890    7.6560   -1.1470 C   0  0  0  0  0  0  0  0  0  0  0  0
  -11.7920    8.4450    1.2730 C   0  0  0  0  0  0  0  0  0  0  0  0
   -5.1420    6.1650   -1.5230 C   0  0  1  0  0  0  0  0  0  0  0  0
   -4.7850    5.9160   -3.0130 C   0  0  0  0  0  0  0  0  0  0  0  0
   -3.8380    7.0660   -3.4440 C   0  0  0  0  0  0  0  0  0  0  0  0
   -3.4190    7.7440   -2.1190 C   0  0  1  0  0  0  0  0  0  0  0  0
   -2.2750    6.8460   -1.5530 C   0  0  0  0  0  0  0  0  0  0  0  0
   -2.9820    9.2420   -2.2170 C   0  0  2  0  0  0  0  0  0  0  0  0
   -1.7360    9.5020   -3.0810 C   0  0  0  0  0  0  0  0  0  0  0  0
   -0.4340    9.4620   -2.3500 C   0  0  0  0  0  0  0  0  0  0  0  0
   -0.2860    9.5100   -1.0130 C   0  0  0  0  0  0  0  0  0  0  0  0
   -1.4970    9.7140   -0.0930 C   0  0  1  0  0  0  0  0  0  0  0  0
   -1.1640   10.7930    0.9700 C   0  0  0  0  0  0  0  0  0  0  0  0
    0.1120   10.4770    1.7450 C   0  0  0  0  0  0  0  0  0  0  0  0
    1.3040   10.3400    0.8010 C   0  0  2  0  0  0  0  0  0  0  0  0
    1.5760   11.6160    0.2140 O   0  0  0  0  0  0  0  0  0  0  0  0
    1.0800    9.2860   -0.3190 C   0  0  0  0  0  0  0  0  0  0  0  0
    1.0860    7.8650    0.2950 C   0  0  0  0  0  0  0  0  0  0  0  0
    2.2960    9.3480   -1.2820 C   0  0  0  0  0  0  0  0  0  0  0  0
   -2.8840    9.9810   -0.8220 C   0  0  1  0  0  0  0  0  0  0  0  0
   -3.0470   11.5050   -1.1130 C   0  0  0  0  0  0  0  0  0  0  0  0
   -4.0590    9.5860    0.1490 C   0  0  0  0  0  0  0  0  0  0  0  0
   -4.5260    8.1190    0.1140 C   0  0  0  0  0  0  0  0  0  0  0  0
   -4.7740    7.6570   -1.3250 C   0  0  2  0  0  0  0  0  0  0  0  0
   -5.9360    8.5280   -1.9140 C   0  0  0  0  0  0  0  0  0  0  0  0
   -8.2650    4.8699   -2.1973 H   0  0  0  0  0  0  0  0  0  0  0  0
   -7.5220    6.2632   -3.0536 H   0  0  0  0  0  0  0  0  0  0  0  0
   -6.6991    4.6665   -3.0536 H   0  0  0  0  0  0  0  0  0  0  0  0
   -6.5484    4.8595   -0.5317 H   0  0  0  0  0  0  0  0  0  0  0  0
   -7.2749    6.6193    0.6581 H   0  0  0  0  0  0  0  0  0  0  0  0
   -6.7309    7.8039   -0.6239 H   0  0  0  0  0  0  0  0  0  0  0  0
   -8.7612    7.9412   -1.5568 H   0  0  0  0  0  0  0  0  0  0  0  0
   -9.0920    6.1741   -1.3219 H   0  0  0  0  0  0  0  0  0  0  0  0
   -8.8096    7.9602    0.8170 H   0  0  0  0  0  0  0  0  0  0  0  0
  -12.8784    7.6161   -0.9998 H   0  0  0  0  0  0  0  0  0  0  0  0
  -11.5281    8.5643   -1.7100 H   0  0  0  0  0  0  0  0  0  0  0  0
  -11.4624    6.7692   -1.7100 H   0  0  0  0  0  0  0  0  0  0  0  0
  -11.4562    8.0710    2.2515 H   0  0  0  0  0  0  0  0  0  0  0  0
  -11.5438    9.5129    1.1838 H   0  0  0  0  0  0  0  0  0  0  0  0
  -12.8804    8.3128    1.1838 H   0  0  0  0  0  0  0  0  0  0  0  0
   -4.5898    5.5429   -0.8032 H   0  0  0  0  0  0  0  0  0  0  0  0
   -4.2782    4.9461   -3.1242 H   0  0  0  0  0  0  0  0  0  0  0  0
   -5.6900    5.8943   -3.6378 H   0  0  0  0  0  0  0  0  0  0  0  0
   -2.9586    6.6678   -3.9714 H   0  0  0  0  0  0  0  0  0  0  0  0
   -4.3239    7.7689   -4.1367 H   0  0  0  0  0  0  0  0  0  0  0  0
   -2.3021    6.8673   -0.4535 H   0  0  0  0  0  0  0  0  0  0  0  0
   -2.4128    5.8124   -1.9033 H   0  0  0  0  0  0  0  0  0  0  0  0
   -1.3037    7.2254   -1.9033 H   0  0  0  0  0  0  0  0  0  0  0  0
   -3.8224    9.6986   -2.7604 H   0  0  0  0  0  0  0  0  0  0  0  0
   -1.7054    8.7384   -3.8721 H   0  0  0  0  0  0  0  0  0  0  0  0
   -1.8392   10.5282   -3.4636 H   0  0  0  0  0  0  0  0  0  0  0  0
    0.4813    9.3870   -2.9555 H   0  0  0  0  0  0  0  0  0  0  0  0
   -1.6709    8.7464    0.4005 H   0  0  0  0  0  0  0  0  0  0  0  0
   -1.0378   11.7607    0.4625 H   0  0  0  0  0  0  0  0  0  0  0  0
   -1.9945   10.8190    1.6908 H   0  0  0  0  0  0  0  0  0  0  0  0
    0.3100   11.2898    2.4592 H   0  0  0  0  0  0  0  0  0  0  0  0
   -0.0267    9.5237    2.2760 H   0  0  0  0  0  0  0  0  0  0  0  0
    2.1585    9.9871    1.3971 H   0  0  0  0  0  0  0  0  0  0  0  0
    1.2670   12.2980    0.8350 H   0  0  0  0  0  0  0  0  0  0  0  0
    1.0857    7.9398    1.3925 H   0  0  0  0  0  0  0  0  0  0  0  0
    0.1902    7.3189   -0.0356 H   0  0  0  0  0  0  0  0  0  0  0  0
    1.9864    7.3265   -0.0356 H   0  0  0  0  0  0  0  0  0  0  0  0
    3.2257    9.3954   -0.6960 H   0  0  0  0  0  0  0  0  0  0  0  0
    2.3077    8.4493   -1.9162 H   0  0  0  0  0  0  0  0  0  0  0  0
    2.2162   10.2432   -1.9162 H   0  0  0  0  0  0  0  0  0  0  0  0
   -3.1059   12.0555   -0.1625 H   0  0  0  0  0  0  0  0  0  0  0  0
   -2.1820   11.8625   -1.6908 H   0  0  0  0  0  0  0  0  0  0  0  0
   -3.9681   11.6715   -1.6908 H   0  0  0  0  0  0  0  0  0  0  0  0
   -3.7306    9.8062    1.1755 H   0  0  0  0  0  0  0  0  0  0  0  0
   -4.9247   10.1716   -0.1940 H   0  0  0  0  0  0  0  0  0  0  0  0
   -3.7509    7.4837    0.5674 H   0  0  0  0  0  0  0  0  0  0  0  0
   -5.4681    8.0372    0.6760 H   0  0  0  0  0  0  0  0  0  0  0  0
   -6.5198    8.9656   -1.0908 H   0  0  0  0  0  0  0  0  0  0  0  0
   -5.5132    9.3336   -2.5323 H   0  0  0  0  0  0  0  0  0  0  0  0
   -6.5906    7.8962   -2.5323 H   0  0  0  0  0  0  0  0  0  0  0  0
  1  2  1  0
  2  3  1  0
  3  4  1  0
  4  5  1  0
  5  6  1  0
  6  7  1  0
  7  8  1  0
  7  9  1  0
  2 10  1  0
 10 11  1  0
 11 12  1  0
 12 13  1  0
 13 14  1  1
 13 15  1  0
 15 16  1  0
 16 17  1  0
 17 18  2  0
 18 19  1  0
 19 20  1  0
 20 21  1  0
 21 22  1  0
 22 23  1  0
 22 24  1  0
 24 25  1  0
 24 26  1  0
 19 27  1  0
 27 28  1  6
 27 29  1  0
 29 30  1  0
 30 31  1  0
 31 32  1  6
  7  5  1  0
 31 10  1  0
 31 13  1  0
 27 15  1  0
 24 18  1  0
  1 33  1  0
  1 34  1  0
  1 35  1  0
  2 36  1  1
  3 37  1  0
  3 38  1  0
  4 39  1  0
  4 40  1  0
  5 41  1  1
  8 42  1  0
  8 43  1  0
  8 44  1  0
  9 45  1  0
  9 46  1  0
  9 47  1  0
 10 48  1  1
 11 49  1  0
 11 50  1  0
 12 51  1  0
 12 52  1  0
 14 53  1  0
 14 54  1  0
 14 55  1  0
 15 56  1  6
 16 57  1  0
 16 58  1  0
 17 59  1  0
 19 60  1  1
 20 61  1  0
 20 62  1  0
 21 63  1  0
 21 64  1  0
 22 65  1  1
 23 66  1  0
 25 67  1  0
 25 68  1  0
 25 69  1  0
 26 70  1  0
 26 71  1  0
 26 72  1  0
 28 73  1  0
 28 74  1  0
 28 75  1  0
 29 76  1  0
 29 77  1  0
 30 78  1  0
 30 79  1  0
 32 80  1  0
 32 81  1  0
 32 82  1  0
M  END
>  <meeko>  (17) 
{"is_sidechain": [false], "intermolecular_energy": 2.731, "internal_energy": -0.839}

$$$$
EPH_relaxed_0001_pdb2pqr_Repair_256_r2_0001_out
     RDKit          3D

 82 86  0  0  0  0  0  0  0  0999 V2000
  -14.6370    9.8000    0.7450 C   0  0  0  0  0  0  0  0  0  0  0  0
  -13.8330    9.4070   -0.4970 C   0  0  2  0  0  0  0  0  0  0  0  0
  -14.4380    8.1840   -1.2170 C   0  0  0  0  0  0  0  0  0  0  0  0
  -15.2870    8.5470   -2.4380 C   0  0  0  0  0  0  0  0  0  0  0  0
  -15.0460    7.6080   -3.5810 C   0  0  2  0  0  0  0  0  0  0  0  0
  -13.8260    7.8390   -4.2970 O   0  0  0  0  0  0  0  0  0  0  0  0
  -15.0420    8.0430   -5.0350 C   0  0  0  0  0  0  0  0  0  0  0  0
  -15.2860    9.4670   -5.4240 C   0  0  0  0  0  0  0  0  0  0  0  0
  -15.2880    7.0110   -6.0910 C   0  0  0  0  0  0  0  0  0  0  0  0
  -12.3870    9.1210   -0.1110 C   0  0  1  0  0  0  0  0  0  0  0  0
  -12.2100    8.8880    1.4130 C   0  0  0  0  0  0  0  0  0  0  0  0
  -11.0970    7.8210    1.5760 C   0  0  0  0  0  0  0  0  0  0  0  0
  -10.4450    7.7210    0.1770 C   0  0  1  0  0  0  0  0  0  0  0  0
   -9.4550    8.9260    0.1090 C   0  0  0  0  0  0  0  0  0  0  0  0
   -9.7330    6.3700   -0.1590 C   0  0  2  0  0  0  0  0  0  0  0  0
   -8.5360    6.0210    0.7430 C   0  0  0  0  0  0  0  0  0  0  0  0
   -7.2110    6.5150    0.2630 C   0  0  0  0  0  0  0  0  0  0  0  0
   -6.9460    6.9590   -0.9800 C   0  0  0  0  0  0  0  0  0  0  0  0
   -8.0120    6.9040   -2.0810 C   0  0  1  0  0  0  0  0  0  0  0  0
   -7.3880    6.3280   -3.3790 C   0  0  0  0  0  0  0  0  0  0  0  0
   -6.1390    7.0880   -3.8140 C   0  0  0  0  0  0  0  0  0  0  0  0
   -5.0790    7.0710   -2.7150 C   0  0  2  0  0  0  0  0  0  0  0  0
   -4.6130    5.7290   -2.5460 O   0  0  0  0  0  0  0  0  0  0  0  0
   -5.5970    7.6200   -1.3570 C   0  0  0  0  0  0  0  0  0  0  0  0
   -5.8170    9.1490   -1.4630 C   0  0  0  0  0  0  0  0  0  0  0  0
   -4.4760    7.4160   -0.3010 C   0  0  0  0  0  0  0  0  0  0  0  0
   -9.3760    6.1880   -1.6900 C   0  0  1  0  0  0  0  0  0  0  0  0
   -9.2620    4.6530   -1.9410 C   0  0  0  0  0  0  0  0  0  0  0  0
  -10.5210    6.7090   -2.6370 C   0  0  0  0  0  0  0  0  0  0  0  0
  -11.2670    7.9810   -2.1910 C   0  0  0  0  0  0  0  0  0  0  0  0
  -11.7190    7.8680   -0.7320 C   0  0  2  0  0  0  0  0  0  0  0  0
  -12.7330    6.6780   -0.6360 C   0  0  0  0  0  0  0  0  0  0  0  0
  -14.0736    9.5246    1.6488 H   0  0  0  0  0  0  0  0  0  0  0  0
  -14.8131   10.8858    0.7393 H   0  0  0  0  0  0  0  0  0  0  0  0
  -15.6020    9.2720    0.7393 H   0  0  0  0  0  0  0  0  0  0  0  0
  -13.8701   10.2545   -1.1973 H   0  0  0  0  0  0  0  0  0  0  0  0
  -13.6150    7.5331   -1.5473 H   0  0  0  0  0  0  0  0  0  0  0  0
  -15.1049    7.6851   -0.4984 H   0  0  0  0  0  0  0  0  0  0  0  0
  -16.3500    8.5028   -2.1587 H   0  0  0  0  0  0  0  0  0  0  0  0
  -15.0057    9.5599   -2.7618 H   0  0  0  0  0  0  0  0  0  0  0  0
  -15.5699    6.7959   -3.0557 H   0  0  0  0  0  0  0  0  0  0  0  0
  -15.3913   10.0817   -4.5179 H   0  0  0  0  0  0  0  0  0  0  0  0
  -14.4378    9.8348   -6.0200 H   0  0  0  0  0  0  0  0  0  0  0  0
  -16.2083    9.5314   -6.0200 H   0  0  0  0  0  0  0  0  0  0  0  0
  -15.5179    6.0465   -5.6146 H   0  0  0  0  0  0  0  0  0  0  0  0
  -16.1371    7.3223   -6.7172 H   0  0  0  0  0  0  0  0  0  0  0  0
  -14.3898    6.9058   -6.7172 H   0  0  0  0  0  0  0  0  0  0  0  0
  -11.9093   10.0328   -0.4990 H   0  0  0  0  0  0  0  0  0  0  0  0
  -11.9123    9.8245    1.9073 H   0  0  0  0  0  0  0  0  0  0  0  0
  -13.1507    8.5510    1.8729 H   0  0  0  0  0  0  0  0  0  0  0  0
  -10.3591    8.1410    2.3264 H   0  0  0  0  0  0  0  0  0  0  0  0
  -11.4927    6.8547    1.9220 H   0  0  0  0  0  0  0  0  0  0  0  0
   -9.1938    9.2439    1.1291 H   0  0  0  0  0  0  0  0  0  0  0  0
   -8.5428    8.6214   -0.4250 H   0  0  0  0  0  0  0  0  0  0  0  0
   -9.9308    9.7617   -0.4250 H   0  0  0  0  0  0  0  0  0  0  0  0
  -10.5108    5.6289    0.0772 H   0  0  0  0  0  0  0  0  0  0  0  0
   -8.7211    6.4551    1.7367 H   0  0  0  0  0  0  0  0  0  0  0  0
   -8.4682    4.9231    0.7479 H   0  0  0  0  0  0  0  0  0  0  0  0
   -6.3818    6.5162    0.9858 H   0  0  0  0  0  0  0  0  0  0  0  0
   -8.3285    7.9440   -2.2493 H   0  0  0  0  0  0  0  0  0  0  0  0
   -7.1178    5.2762   -3.2039 H   0  0  0  0  0  0  0  0  0  0  0  0
   -8.1348    6.4257   -4.1807 H   0  0  0  0  0  0  0  0  0  0  0  0
   -5.7274    6.6162   -4.7184 H   0  0  0  0  0  0  0  0  0  0  0  0
   -6.4169    8.1327   -4.0174 H   0  0  0  0  0  0  0  0  0  0  0  0
   -4.2633    7.7376   -3.0317 H   0  0  0  0  0  0  0  0  0  0  0  0
   -4.8260    5.4560   -1.6380 H   0  0  0  0  0  0  0  0  0  0  0  0
   -5.8792    9.5813   -0.4534 H   0  0  0  0  0  0  0  0  0  0  0  0
   -4.9751    9.6039   -2.0054 H   0  0  0  0  0  0  0  0  0  0  0  0
   -6.7530    9.3480   -2.0054 H   0  0  0  0  0  0  0  0  0  0  0  0
   -4.9050    7.4941    0.7089 H   0  0  0  0  0  0  0  0  0  0  0  0
   -4.0254    6.4211   -0.4321 H   0  0  0  0  0  0  0  0  0  0  0  0
   -3.7038    8.1884   -0.4321 H   0  0  0  0  0  0  0  0  0  0  0  0
   -9.2228    4.1257   -0.9764 H   0  0  0  0  0  0  0  0  0  0  0  0
  -10.1371    4.3088   -2.5118 H   0  0  0  0  0  0  0  0  0  0  0  0
   -8.3457    4.4419   -2.5118 H   0  0  0  0  0  0  0  0  0  0  0  0
  -10.0721    6.9140   -3.6201 H   0  0  0  0  0  0  0  0  0  0  0  0
  -11.2810    5.9138   -2.6338 H   0  0  0  0  0  0  0  0  0  0  0  0
  -10.5959    8.8465   -2.2939 H   0  0  0  0  0  0  0  0  0  0  0  0
  -12.1569    8.1064   -2.8253 H   0  0  0  0  0  0  0  0  0  0  0  0
  -12.9291    6.4478    0.4216 H   0  0  0  0  0  0  0  0  0  0  0  0
  -13.6746    6.9578   -1.1311 H   0  0  0  0  0  0  0  0  0  0  0  0
  -12.3074    5.7927   -1.1311 H   0  0  0  0  0  0  0  0  0  0  0  0
  1  2  1  0
  2  3  1  0
  3  4  1  0
  4  5  1  0
  5  6  1  0
  6  7  1  0
  7  8  1  0
  7  9  1  0
  2 10  1  0
 10 11  1  0
 11 12  1  0
 12 13  1  0
 13 14  1  6
 13 15  1  0
 15 16  1  0
 16 17  1  0
 17 18  2  0
 18 19  1  0
 19 20  1  0
 20 21  1  0
 21 22  1  0
 22 23  1  0
 22 24  1  0
 24 25  1  0
 24 26  1  0
 19 27  1  0
 27 28  1  1
 27 29  1  0
 29 30  1  0
 30 31  1  0
 31 32  1  6
  7  5  1  0
 31 10  1  0
 31 13  1  0
 27 15  1  0
 24 18  1  0
  1 33  1  0
  1 34  1  0
  1 35  1  0
  2 36  1  6
  3 37  1  0
  3 38  1  0
  4 39  1  0
  4 40  1  0
  5 41  1  6
  8 42  1  0
  8 43  1  0
  8 44  1  0
  9 45  1  0
  9 46  1  0
  9 47  1  0
 10 48  1  6
 11 49  1  0
 11 50  1  0
 12 51  1  0
 12 52  1  0
 14 53  1  0
 14 54  1  0
 14 55  1  0
 15 56  1  1
 16 57  1  0
 16 58  1  0
 17 59  1  0
 19 60  1  6
 20 61  1  0
 20 62  1  0
 21 63  1  0
 21 64  1  0
 22 65  1  6
 23 66  1  0
 25 67  1  0
 25 68  1  0
 25 69  1  0
 26 70  1  0
 26 71  1  0
 26 72  1  0
 28 73  1  0
 28 74  1  0
 28 75  1  0
 29 76  1  0
 29 77  1  0
 30 78  1  0
 30 79  1  0
 32 80  1  0
 32 81  1  0
 32 82  1  0
M  END
>  <meeko>  (18) 
{"is_sidechain": [false], "intermolecular_energy": 2.731, "internal_energy": -0.839}

$$$$
