EPH_relaxed_0001_pdb2pqr_Repair_155_r2_0001_out
     RDKit          3D

 82 86  0  0  0  0  0  0  0  0999 V2000
   -1.5960    8.5710   -1.8130 C   0  0  0  0  0  0  0  0  0  0  0  0
   -2.0020    9.1560   -0.4570 C   0  0  2  0  0  0  0  0  0  0  0  0
   -3.4890    9.5610   -0.4210 C   0  0  0  0  0  0  0  0  0  0  0  0
   -4.4470    8.3740   -0.2930 C   0  0  0  0  0  0  0  0  0  0  0  0
   -5.0780    8.0270   -1.6070 C   0  0  2  0  0  0  0  0  0  0  0  0
   -6.3470    8.6500   -1.8450 O   0  0  0  0  0  0  0  0  0  0  0  0
   -6.3550    7.2170   -1.7340 C   0  0  0  0  0  0  0  0  0  0  0  0
   -7.0770    6.7050   -0.5280 C   0  0  0  0  0  0  0  0  0  0  0  0
   -6.6310    6.5140   -3.0260 C   0  0  0  0  0  0  0  0  0  0  0  0
   -1.1260   10.3590   -0.1280 C   0  0  1  0  0  0  0  0  0  0  0  0
   -0.0550   10.0410    0.9500 C   0  0  0  0  0  0  0  0  0  0  0  0
    1.2050   10.8680    0.5850 C   0  0  0  0  0  0  0  0  0  0  0  0
    0.7160   11.8750   -0.4810 C   0  0  1  0  0  0  0  0  0  0  0  0
    0.0420   13.0250    0.3320 C   0  0  0  0  0  0  0  0  0  0  0  0
    1.8010   12.4230   -1.4640 C   0  0  2  0  0  0  0  0  0  0  0  0
    2.9320   13.2300   -0.8030 C   0  0  0  0  0  0  0  0  0  0  0  0
    2.6900   14.6990   -0.6970 C   0  0  0  0  0  0  0  0  0  0  0  0
    1.7430   15.3860   -1.3640 C   0  0  0  0  0  0  0  0  0  0  0  0
    0.8570   14.6940   -2.4080 C   0  0  1  0  0  0  0  0  0  0  0  0
    0.7850   15.5680   -3.6870 C   0  0  0  0  0  0  0  0  0  0  0  0
    0.3360   16.9970   -3.3950 C   0  0  0  0  0  0  0  0  0  0  0  0
    1.2750   17.6710   -2.3980 C   0  0  2  0  0  0  0  0  0  0  0  0
    2.5560   17.8410   -3.0140 O   0  0  0  0  0  0  0  0  0  0  0  0
    1.4350   16.8750   -1.0730 C   0  0  0  0  0  0  0  0  0  0  0  0
    0.1180   16.9480   -0.2600 C   0  0  0  0  0  0  0  0  0  0  0  0
    2.5140   17.5880   -0.2140 C   0  0  0  0  0  0  0  0  0  0  0  0
    1.2130   13.1780   -2.7240 C   0  0  1  0  0  0  0  0  0  0  0  0
    2.3050   13.1080   -3.8350 C   0  0  0  0  0  0  0  0  0  0  0  0
   -0.0620   12.4620   -3.3090 C   0  0  0  0  0  0  0  0  0  0  0  0
   -1.0360   11.8370   -2.2920 C   0  0  0  0  0  0  0  0  0  0  0  0
   -0.2860   10.9650   -1.2800 C   0  0  2  0  0  0  0  0  0  0  0  0
    0.3830    9.7870   -2.0670 C   0  0  0  0  0  0  0  0  0  0  0  0
   -0.9753    7.6766   -1.6555 H   0  0  0  0  0  0  0  0  0  0  0  0
   -2.4984    8.2960   -2.3787 H   0  0  0  0  0  0  0  0  0  0  0  0
   -1.0227    9.3202   -2.3787 H   0  0  0  0  0  0  0  0  0  0  0  0
   -1.8559    8.3712    0.2998 H   0  0  0  0  0  0  0  0  0  0  0  0
   -3.6464   10.2286    0.4389 H   0  0  0  0  0  0  0  0  0  0  0  0
   -3.7118   10.0520   -1.3798 H   0  0  0  0  0  0  0  0  0  0  0  0
   -3.8867    7.5018    0.0748 H   0  0  0  0  0  0  0  0  0  0  0  0
   -5.2470    8.6531    0.4085 H   0  0  0  0  0  0  0  0  0  0  0  0
   -4.0906    7.9269   -2.0814 H   0  0  0  0  0  0  0  0  0  0  0  0
   -6.5720    7.0631    0.3812 H   0  0  0  0  0  0  0  0  0  0  0  0
   -8.1145    7.0703   -0.5392 H   0  0  0  0  0  0  0  0  0  0  0  0
   -7.0754    5.6051   -0.5392 H   0  0  0  0  0  0  0  0  0  0  0  0
   -7.0258    5.5083   -2.8192 H   0  0  0  0  0  0  0  0  0  0  0  0
   -7.3710    7.0867   -3.6042 H   0  0  0  0  0  0  0  0  0  0  0  0
   -5.6990    6.4302   -3.6042 H   0  0  0  0  0  0  0  0  0  0  0  0
   -1.9030   11.0718    0.1854 H   0  0  0  0  0  0  0  0  0  0  0  0
   -0.4223   10.3296    1.9459 H   0  0  0  0  0  0  0  0  0  0  0  0
    0.1722    8.9650    0.9762 H   0  0  0  0  0  0  0  0  0  0  0  0
    1.5924   11.3959    1.4689 H   0  0  0  0  0  0  0  0  0  0  0  0
    2.0260   10.2359    0.2158 H   0  0  0  0  0  0  0  0  0  0  0  0
    0.1568   12.8292    1.4083 H   0  0  0  0  0  0  0  0  0  0  0  0
    0.5221   13.9822    0.0802 H   0  0  0  0  0  0  0  0  0  0  0  0
   -1.0277   13.0739    0.0802 H   0  0  0  0  0  0  0  0  0  0  0  0
    2.2697   11.4998   -1.8355 H   0  0  0  0  0  0  0  0  0  0  0  0
    3.0814   12.8361    0.2131 H   0  0  0  0  0  0  0  0  0  0  0  0
    3.8102   13.1128   -1.4549 H   0  0  0  0  0  0  0  0  0  0  0  0
    3.3401   15.2686   -0.0166 H   0  0  0  0  0  0  0  0  0  0  0  0
   -0.1418   14.6139   -1.9541 H   0  0  0  0  0  0  0  0  0  0  0  0
    1.7827   15.5994   -4.1492 H   0  0  0  0  0  0  0  0  0  0  0  0
    0.0413   15.1152   -4.3593 H   0  0  0  0  0  0  0  0  0  0  0  0
    0.3335   17.5722   -4.3326 H   0  0  0  0  0  0  0  0  0  0  0  0
   -0.6739   16.9657   -2.9602 H   0  0  0  0  0  0  0  0  0  0  0  0
    0.8306   18.6409   -2.1299 H   0  0  0  0  0  0  0  0  0  0  0  0
    3.2320   17.6930   -2.3320 H   0  0  0  0  0  0  0  0  0  0  0  0
    0.3497   16.9352    0.8152 H   0  0  0  0  0  0  0  0  0  0  0  0
   -0.4156   17.8771   -0.5090 H   0  0  0  0  0  0  0  0  0  0  0  0
   -0.5150   16.0836   -0.5090 H   0  0  0  0  0  0  0  0  0  0  0  0
    2.2901   17.4400    0.8528 H   0  0  0  0  0  0  0  0  0  0  0  0
    3.5033   17.1652   -0.4431 H   0  0  0  0  0  0  0  0  0  0  0  0
    2.5130   18.6639   -0.4431 H   0  0  0  0  0  0  0  0  0  0  0  0
    3.2991   13.0443   -3.3685 H   0  0  0  0  0  0  0  0  0  0  0  0
    2.1356   12.2189   -4.4601 H   0  0  0  0  0  0  0  0  0  0  0  0
    2.2505   14.0115   -4.4601 H   0  0  0  0  0  0  0  0  0  0  0  0
   -0.6231   13.2064   -3.8930 H   0  0  0  0  0  0  0  0  0  0  0  0
    0.3264   11.6149   -3.8934 H   0  0  0  0  0  0  0  0  0  0  0  0
   -1.5608   12.6410   -1.7552 H   0  0  0  0  0  0  0  0  0  0  0  0
   -1.7537   11.2053   -2.8358 H   0  0  0  0  0  0  0  0  0  0  0  0
    0.7968    9.0583   -1.3544 H   0  0  0  0  0  0  0  0  0  0  0  0
   -0.3701    9.2943   -2.6996 H   0  0  0  0  0  0  0  0  0  0  0  0
    1.1919   10.1813   -2.6996 H   0  0  0  0  0  0  0  0  0  0  0  0
  1  2  1  0
  2  3  1  0
  3  4  1  0
  4  5  1  0
  5  6  1  0
  6  7  1  0
  7  8  1  0
  7  9  1  0
  2 10  1  0
 10 11  1  0
 11 12  1  0
 12 13  1  0
 13 14  1  1
 13 15  1  0
 15 16  1  0
 16 17  1  0
 17 18  2  0
 18 19  1  0
 19 20  1  0
 20 21  1  0
 21 22  1  0
 22 23  1  0
 22 24  1  0
 24 25  1  0
 24 26  1  0
 19 27  1  0
 27 28  1  6
 27 29  1  0
 29 30  1  0
 30 31  1  0
 31 32  1  6
  7  5  1  0
 31 10  1  0
 31 13  1  0
 27 15  1  0
 24 18  1  0
  1 33  1  0
  1 34  1  0
  1 35  1  0
  2 36  1  1
  3 37  1  0
  3 38  1  0
  4 39  1  0
  4 40  1  0
  5 41  1  6
  8 42  1  0
  8 43  1  0
  8 44  1  0
  9 45  1  0
  9 46  1  0
  9 47  1  0
 10 48  1  1
 11 49  1  0
 11 50  1  0
 12 51  1  0
 12 52  1  0
 14 53  1  0
 14 54  1  0
 14 55  1  0
 15 56  1  6
 16 57  1  0
 16 58  1  0
 17 59  1  0
 19 60  1  1
 20 61  1  0
 20 62  1  0
 21 63  1  0
 21 64  1  0
 22 65  1  1
 23 66  1  0
 25 67  1  0
 25 68  1  0
 25 69  1  0
 26 70  1  0
 26 71  1  0
 26 72  1  0
 28 73  1  0
 28 74  1  0
 28 75  1  0
 29 76  1  0
 29 77  1  0
 30 78  1  0
 30 79  1  0
 32 80  1  0
 32 81  1  0
 32 82  1  0
M  END
>  <meeko>  (1) 
{"is_sidechain": [false], "intermolecular_energy": 2.731, "internal_energy": -0.839}

$$$$
EPH_relaxed_0001_pdb2pqr_Repair_155_r2_0001_out
     RDKit          3D

 82 86  0  0  0  0  0  0  0  0999 V2000
    2.0780   19.6240   -0.6440 C   0  0  0  0  0  0  0  0  0  0  0  0
    2.4620   18.4100    0.2070 C   0  0  2  0  0  0  0  0  0  0  0  0
    3.9070   17.9450   -0.0640 C   0  0  0  0  0  0  0  0  0  0  0  0
    4.8760   18.2460    1.0830 C   0  0  0  0  0  0  0  0  0  0  0  0
    4.2050   18.9990    2.1910 C   0  0  2  0  0  0  0  0  0  0  0  0
    4.8980   20.1800    2.6170 O   0  0  0  0  0  0  0  0  0  0  0  0
    4.7850   19.1260    3.5870 C   0  0  0  0  0  0  0  0  0  0  0  0
    6.0910   18.4900    3.9500 C   0  0  0  0  0  0  0  0  0  0  0  0
    3.8610   19.4460    4.7200 C   0  0  0  0  0  0  0  0  0  0  0  0
    1.4900   17.2650   -0.0520 C   0  0  1  0  0  0  0  0  0  0  0  0
    0.2000   17.7290   -0.7800 C   0  0  0  0  0  0  0  0  0  0  0  0
   -0.2220   16.5740   -1.7230 C   0  0  0  0  0  0  0  0  0  0  0  0
    0.6330   15.3670   -1.2690 C   0  0  1  0  0  0  0  0  0  0  0  0
   -0.1140   14.7930   -0.0250 C   0  0  0  0  0  0  0  0  0  0  0  0
    0.8970   14.2640   -2.3450 C   0  0  2  0  0  0  0  0  0  0  0  0
   -0.3610   13.5460   -2.8650 C   0  0  0  0  0  0  0  0  0  0  0  0
   -0.7540   12.3200   -2.1090 C   0  0  0  0  0  0  0  0  0  0  0  0
    0.0270   11.6540   -1.2380 C   0  0  0  0  0  0  0  0  0  0  0  0
    1.4870   12.0680   -1.0130 C   0  0  1  0  0  0  0  0  0  0  0  0
    2.3930   10.8100   -1.0400 C   0  0  0  0  0  0  0  0  0  0  0  0
    1.9330    9.7360   -0.0590 C   0  0  0  0  0  0  0  0  0  0  0  0
    0.4970    9.3080   -0.3520 C   0  0  2  0  0  0  0  0  0  0  0  0
    0.4640    8.6410   -1.6170 O   0  0  0  0  0  0  0  0  0  0  0  0
   -0.5060   10.4950   -0.3600 C   0  0  0  0  0  0  0  0  0  0  0  0
   -0.6960   11.0260    1.0820 C   0  0  0  0  0  0  0  0  0  0  0  0
   -1.8890    9.9480   -0.8060 C   0  0  0  0  0  0  0  0  0  0  0  0
    2.0300   13.2320   -1.9500 C   0  0  1  0  0  0  0  0  0  0  0  0
    2.5700   12.6320   -3.2840 C   0  0  0  0  0  0  0  0  0  0  0  0
    3.2550   13.9280   -1.2470 C   0  0  0  0  0  0  0  0  0  0  0  0
    2.9370   15.0900   -0.2880 C   0  0  0  0  0  0  0  0  0  0  0  0
    1.9860   16.0980   -0.9420 C   0  0  2  0  0  0  0  0  0  0  0  0
    2.7180   16.7090   -2.1850 C   0  0  0  0  0  0  0  0  0  0  0  0
    1.8123   20.4641    0.0145 H   0  0  0  0  0  0  0  0  0  0  0  0
    2.9293   19.9108   -1.2789 H   0  0  0  0  0  0  0  0  0  0  0  0
    1.2166   19.3691   -1.2789 H   0  0  0  0  0  0  0  0  0  0  0  0
    2.4051   18.7146    1.2625 H   0  0  0  0  0  0  0  0  0  0  0  0
    3.8961   16.8581   -0.2332 H   0  0  0  0  0  0  0  0  0  0  0  0
    4.2649   18.5029   -0.9419 H   0  0  0  0  0  0  0  0  0  0  0  0
    5.2637   17.2966    1.4808 H   0  0  0  0  0  0  0  0  0  0  0  0
    5.6915   18.8700    0.6886 H   0  0  0  0  0  0  0  0  0  0  0  0
    3.2121   18.6931    1.8298 H   0  0  0  0  0  0  0  0  0  0  0  0
    6.1848   18.4443    5.0450 H   0  0  0  0  0  0  0  0  0  0  0  0
    6.1306   17.4717    3.5358 H   0  0  0  0  0  0  0  0  0  0  0  0
    6.9171   19.0867    3.5358 H   0  0  0  0  0  0  0  0  0  0  0  0
    4.3765   19.2675    5.6752 H   0  0  0  0  0  0  0  0  0  0  0  0
    3.5576   20.5016    4.6588 H   0  0  0  0  0  0  0  0  0  0  0  0
    2.9698   18.8042    4.6588 H   0  0  0  0  0  0  0  0  0  0  0  0
    1.3402   16.9143    0.9798 H   0  0  0  0  0  0  0  0  0  0  0  0
   -0.5962   17.9305   -0.0482 H   0  0  0  0  0  0  0  0  0  0  0  0
    0.3776   18.6555   -1.3457 H   0  0  0  0  0  0  0  0  0  0  0  0
   -1.2941   16.3541   -1.6120 H   0  0  0  0  0  0  0  0  0  0  0  0
   -0.0638   16.8220   -2.7829 H   0  0  0  0  0  0  0  0  0  0  0  0
    0.3661   15.1619    0.8934 H   0  0  0  0  0  0  0  0  0  0  0  0
   -1.1646   15.1184   -0.0457 H   0  0  0  0  0  0  0  0  0  0  0  0
   -0.0701   13.6941   -0.0457 H   0  0  0  0  0  0  0  0  0  0  0  0
    1.2798   14.8488   -3.1944 H   0  0  0  0  0  0  0  0  0  0  0  0
   -1.2001   14.2559   -2.8212 H   0  0  0  0  0  0  0  0  0  0  0  0
   -0.1204   13.2107   -3.8846 H   0  0  0  0  0  0  0  0  0  0  0  0
   -1.7677   11.9277   -2.2781 H   0  0  0  0  0  0  0  0  0  0  0  0
    1.5212   12.5302   -0.0154 H   0  0  0  0  0  0  0  0  0  0  0  0
    2.3804   10.3882   -2.0559 H   0  0  0  0  0  0  0  0  0  0  0  0
    3.4054   11.1215   -0.7432 H   0  0  0  0  0  0  0  0  0  0  0  0
    2.5943    8.8614   -0.1467 H   0  0  0  0  0  0  0  0  0  0  0  0
    1.9751   10.1496    0.9594 H   0  0  0  0  0  0  0  0  0  0  0  0
    0.1806    8.6359    0.4593 H   0  0  0  0  0  0  0  0  0  0  0  0
    1.3830    8.4640   -1.8810 H   0  0  0  0  0  0  0  0  0  0  0  0
   -0.4156   10.2424    1.8012 H   0  0  0  0  0  0  0  0  0  0  0  0
   -0.0580   11.9090    1.2346 H   0  0  0  0  0  0  0  0  0  0  0  0
   -1.7493   11.3039    1.2346 H   0  0  0  0  0  0  0  0  0  0  0  0
   -2.4926    9.7093    0.0821 H   0  0  0  0  0  0  0  0  0  0  0  0
   -2.4074   10.7088   -1.4080 H   0  0  0  0  0  0  0  0  0  0  0  0
   -1.7468    9.0384   -1.4080 H   0  0  0  0  0  0  0  0  0  0  0  0
    3.2906   11.8314   -3.0608 H   0  0  0  0  0  0  0  0  0  0  0  0
    1.7326   12.2198   -3.8662 H   0  0  0  0  0  0  0  0  0  0  0  0
    3.0678   13.4215   -3.8662 H   0  0  0  0  0  0  0  0  0  0  0  0
    3.7897   13.1582   -0.6712 H   0  0  0  0  0  0  0  0  0  0  0  0
    3.8368   14.3800   -2.0638 H   0  0  0  0  0  0  0  0  0  0  0  0
    2.4651   14.6876    0.6205 H   0  0  0  0  0  0  0  0  0  0  0  0
    3.8763   15.6055   -0.0388 H   0  0  0  0  0  0  0  0  0  0  0  0
    3.5211   17.3793   -1.8447 H   0  0  0  0  0  0  0  0  0  0  0  0
    3.1490   15.8988   -2.7915 H   0  0  0  0  0  0  0  0  0  0  0  0
    1.9979   17.2779   -2.7915 H   0  0  0  0  0  0  0  0  0  0  0  0
  1  2  1  0
  2  3  1  0
  3  4  1  0
  4  5  1  0
  5  6  1  0
  6  7  1  0
  7  8  1  0
  7  9  1  0
  2 10  1  0
 10 11  1  0
 11 12  1  0
 12 13  1  0
 13 14  1  1
 13 15  1  0
 15 16  1  0
 16 17  1  0
 17 18  2  0
 18 19  1  0
 19 20  1  0
 20 21  1  0
 21 22  1  0
 22 23  1  0
 22 24  1  0
 24 25  1  0
 24 26  1  0
 19 27  1  0
 27 28  1  6
 27 29  1  0
 29 30  1  0
 30 31  1  0
 31 32  1  6
  7  5  1  0
 31 10  1  0
 31 13  1  0
 27 15  1  0
 24 18  1  0
  1 33  1  0
  1 34  1  0
  1 35  1  0
  2 36  1  1
  3 37  1  0
  3 38  1  0
  4 39  1  0
  4 40  1  0
  5 41  1  1
  8 42  1  0
  8 43  1  0
  8 44  1  0
  9 45  1  0
  9 46  1  0
  9 47  1  0
 10 48  1  1
 11 49  1  0
 11 50  1  0
 12 51  1  0
 12 52  1  0
 14 53  1  0
 14 54  1  0
 14 55  1  0
 15 56  1  6
 16 57  1  0
 16 58  1  0
 17 59  1  0
 19 60  1  1
 20 61  1  0
 20 62  1  0
 21 63  1  0
 21 64  1  0
 22 65  1  1
 23 66  1  0
 25 67  1  0
 25 68  1  0
 25 69  1  0
 26 70  1  0
 26 71  1  0
 26 72  1  0
 28 73  1  0
 28 74  1  0
 28 75  1  0
 29 76  1  0
 29 77  1  0
 30 78  1  0
 30 79  1  0
 32 80  1  0
 32 81  1  0
 32 82  1  0
M  END
>  <meeko>  (2) 
{"is_sidechain": [false], "intermolecular_energy": 2.731, "internal_energy": -0.839}

$$$$
EPH_relaxed_0001_pdb2pqr_Repair_155_r2_0001_out
     RDKit          3D

 82 86  0  0  0  0  0  0  0  0999 V2000
    2.2090   18.0180   -2.5730 C   0  0  0  0  0  0  0  0  0  0  0  0
    0.6870   17.8730   -2.6510 C   0  0  2  0  0  0  0  0  0  0  0  0
   -0.0100   18.3520   -1.3620 C   0  0  0  0  0  0  0  0  0  0  0  0
    0.7190   17.9410   -0.0800 C   0  0  0  0  0  0  0  0  0  0  0  0
    1.2850   19.1280    0.6410 C   0  0  2  0  0  0  0  0  0  0  0  0
    2.1970   19.9180   -0.1320 O   0  0  0  0  0  0  0  0  0  0  0  0
    2.7480   19.2580    1.0190 C   0  0  0  0  0  0  0  0  0  0  0  0
    3.7380   18.1840    0.6880 C   0  0  0  0  0  0  0  0  0  0  0  0
    3.1210   20.1900    2.1290 C   0  0  0  0  0  0  0  0  0  0  0  0
    0.3180   16.4210   -2.9340 C   0  0  1  0  0  0  0  0  0  0  0  0
    0.3600   16.0780   -4.4470 C   0  0  0  0  0  0  0  0  0  0  0  0
    0.8520   14.6120   -4.5600 C   0  0  0  0  0  0  0  0  0  0  0  0
    0.7580   14.0570   -3.1190 C   0  0  1  0  0  0  0  0  0  0  0  0
   -0.7440   13.6720   -2.9350 C   0  0  0  0  0  0  0  0  0  0  0  0
    1.7060   12.8630   -2.7750 C   0  0  2  0  0  0  0  0  0  0  0  0
    1.4660   11.5820   -3.5930 C   0  0  0  0  0  0  0  0  0  0  0  0
    0.4950   10.6170   -2.9960 C   0  0  0  0  0  0  0  0  0  0  0  0
    0.0590   10.6340   -1.7230 C   0  0  0  0  0  0  0  0  0  0  0  0
    0.6230   11.6380   -0.7090 C   0  0  1  0  0  0  0  0  0  0  0  0
    0.9650   10.9020    0.6130 C   0  0  0  0  0  0  0  0  0  0  0  0
   -0.2180   10.1150    1.1680 C   0  0  0  0  0  0  0  0  0  0  0  0
   -0.7140    9.0880    0.1540 C   0  0  2  0  0  0  0  0  0  0  0  0
    0.2970    8.0910   -0.0240 O   0  0  0  0  0  0  0  0  0  0  0  0
   -1.0800    9.7110   -1.2220 C   0  0  0  0  0  0  0  0  0  0  0  0
   -2.3670   10.5610   -1.0820 C   0  0  0  0  0  0  0  0  0  0  0  0
   -1.4290    8.5520   -2.1940 C   0  0  0  0  0  0  0  0  0  0  0  0
    1.8180   12.5490   -1.2280 C   0  0  1  0  0  0  0  0  0  0  0  0
    3.1770   11.8140   -1.0200 C   0  0  0  0  0  0  0  0  0  0  0  0
    1.8820   13.8570   -0.3550 C   0  0  0  0  0  0  0  0  0  0  0  0
    1.0130   15.0430   -0.8140 C   0  0  0  0  0  0  0  0  0  0  0  0
    1.2130   15.3240   -2.3070 C   0  0  2  0  0  0  0  0  0  0  0  0
    2.7100   15.7360   -2.5190 C   0  0  0  0  0  0  0  0  0  0  0  0
    2.5209   18.0477   -1.5186 H   0  0  0  0  0  0  0  0  0  0  0  0
    2.6850   17.1611   -3.0722 H   0  0  0  0  0  0  0  0  0  0  0  0
    2.5147   18.9493   -3.0722 H   0  0  0  0  0  0  0  0  0  0  0  0
    0.3354   18.5139   -3.4730 H   0  0  0  0  0  0  0  0  0  0  0  0
   -0.0736   19.4498   -1.3888 H   0  0  0  0  0  0  0  0  0  0  0  0
   -1.0009   17.8752   -1.3357 H   0  0  0  0  0  0  0  0  0  0  0  0
    0.0094   17.4256    0.5840 H   0  0  0  0  0  0  0  0  0  0  0  0
    1.5523   17.2784   -0.3567 H   0  0  0  0  0  0  0  0  0  0  0  0
    0.3596   19.2448    1.2240 H   0  0  0  0  0  0  0  0  0  0  0  0
    4.1357   17.7525    1.6184 H   0  0  0  0  0  0  0  0  0  0  0  0
    3.2423   17.3966    0.1012 H   0  0  0  0  0  0  0  0  0  0  0  0
    4.5631   18.6141    0.1012 H   0  0  0  0  0  0  0  0  0  0  0  0
    2.9266   19.7042    3.0966 H   0  0  0  0  0  0  0  0  0  0  0  0
    4.1891   20.4417    2.0531 H   0  0  0  0  0  0  0  0  0  0  0  0
    2.5214   21.1091    2.0531 H   0  0  0  0  0  0  0  0  0  0  0  0
   -0.6834   16.3940   -2.4796 H   0  0  0  0  0  0  0  0  0  0  0  0
   -0.6441   16.1754   -4.8855 H   0  0  0  0  0  0  0  0  0  0  0  0
    1.0298   16.7622   -4.9886 H   0  0  0  0  0  0  0  0  0  0  0  0
    0.2067   14.0371   -5.2405 H   0  0  0  0  0  0  0  0  0  0  0  0
    1.8714   14.5442   -4.9676 H   0  0  0  0  0  0  0  0  0  0  0  0
   -0.9783   13.6119   -1.8619 H   0  0  0  0  0  0  0  0  0  0  0  0
   -1.3789   14.4364   -3.4067 H   0  0  0  0  0  0  0  0  0  0  0  0
   -0.9329   12.6964   -3.4067 H   0  0  0  0  0  0  0  0  0  0  0  0
    2.6877   13.2419   -3.0955 H   0  0  0  0  0  0  0  0  0  0  0  0
    1.0875   11.8766   -4.5829 H   0  0  0  0  0  0  0  0  0  0  0  0
    2.4326   11.0582   -3.6292 H   0  0  0  0  0  0  0  0  0  0  0  0
    0.1032    9.8257   -3.6521 H   0  0  0  0  0  0  0  0  0  0  0  0
   -0.1761   12.3726   -0.5304 H   0  0  0  0  0  0  0  0  0  0  0  0
    1.7946   10.2048    0.4239 H   0  0  0  0  0  0  0  0  0  0  0  0
    1.2379   11.6639    1.3580 H   0  0  0  0  0  0  0  0  0  0  0  0
    0.0947    9.5937    2.0848 H   0  0  0  0  0  0  0  0  0  0  0  0
   -1.0362   10.8175    1.3850 H   0  0  0  0  0  0  0  0  0  0  0  0
   -1.6395    8.6495    0.5555 H   0  0  0  0  0  0  0  0  0  0  0  0
    0.4800    7.6990    0.8470 H   0  0  0  0  0  0  0  0  0  0  0  0
   -2.5935   10.7106   -0.0160 H   0  0  0  0  0  0  0  0  0  0  0  0
   -2.2159   11.5375   -1.5653 H   0  0  0  0  0  0  0  0  0  0  0  0
   -3.2058   10.0386   -1.5653 H   0  0  0  0  0  0  0  0  0  0  0  0
   -1.6987    7.6565   -1.6149 H   0  0  0  0  0  0  0  0  0  0  0  0
   -2.2778    8.8481   -2.8279 H   0  0  0  0  0  0  0  0  0  0  0  0
   -0.5578    8.3302   -2.8279 H   0  0  0  0  0  0  0  0  0  0  0  0
    3.3749   11.7070    0.0567 H   0  0  0  0  0  0  0  0  0  0  0  0
    3.1302   10.8182   -1.4850 H   0  0  0  0  0  0  0  0  0  0  0  0
    3.9848   12.3982   -1.4850 H   0  0  0  0  0  0  0  0  0  0  0  0
    1.5695   13.5912    0.6656 H   0  0  0  0  0  0  0  0  0  0  0  0
    2.9200   14.2105   -0.4428 H   0  0  0  0  0  0  0  0  0  0  0  0
   -0.0454   14.8056   -0.6311 H   0  0  0  0  0  0  0  0  0  0  0  0
    1.3109   15.9366   -0.2459 H   0  0  0  0  0  0  0  0  0  0  0  0
    3.1955   15.8696   -1.5410 H   0  0  0  0  0  0  0  0  0  0  0  0
    3.2310   14.9478   -3.0824 H   0  0  0  0  0  0  0  0  0  0  0  0
    2.7543   16.6797   -3.0824 H   0  0  0  0  0  0  0  0  0  0  0  0
  1  2  1  0
  2  3  1  0
  3  4  1  0
  4  5  1  0
  5  6  1  0
  6  7  1  0
  7  8  1  0
  7  9  1  0
  2 10  1  0
 10 11  1  0
 11 12  1  0
 12 13  1  0
 13 14  1  1
 13 15  1  0
 15 16  1  0
 16 17  1  0
 17 18  2  0
 18 19  1  0
 19 20  1  0
 20 21  1  0
 21 22  1  0
 22 23  1  0
 22 24  1  0
 24 25  1  0
 24 26  1  0
 19 27  1  0
 27 28  1  6
 27 29  1  0
 29 30  1  0
 30 31  1  0
 31 32  1  1
  7  5  1  0
 31 10  1  0
 31 13  1  0
 27 15  1  0
 24 18  1  0
  1 33  1  0
  1 34  1  0
  1 35  1  0
  2 36  1  6
  3 37  1  0
  3 38  1  0
  4 39  1  0
  4 40  1  0
  5 41  1  1
  8 42  1  0
  8 43  1  0
  8 44  1  0
  9 45  1  0
  9 46  1  0
  9 47  1  0
 10 48  1  1
 11 49  1  0
 11 50  1  0
 12 51  1  0
 12 52  1  0
 14 53  1  0
 14 54  1  0
 14 55  1  0
 15 56  1  6
 16 57  1  0
 16 58  1  0
 17 59  1  0
 19 60  1  1
 20 61  1  0
 20 62  1  0
 21 63  1  0
 21 64  1  0
 22 65  1  1
 23 66  1  0
 25 67  1  0
 25 68  1  0
 25 69  1  0
 26 70  1  0
 26 71  1  0
 26 72  1  0
 28 73  1  0
 28 74  1  0
 28 75  1  0
 29 76  1  0
 29 77  1  0
 30 78  1  0
 30 79  1  0
 32 80  1  0
 32 81  1  0
 32 82  1  0
M  END
>  <meeko>  (3) 
{"is_sidechain": [false], "intermolecular_energy": 2.731, "internal_energy": -0.839}

$$$$
EPH_relaxed_0001_pdb2pqr_Repair_155_r2_0001_out
     RDKit          3D

 82 86  0  0  0  0  0  0  0  0999 V2000
    2.0800   18.2700   -2.8270 C   0  0  0  0  0  0  0  0  0  0  0  0
    0.9830   17.7360   -1.9010 C   0  0  2  0  0  0  0  0  0  0  0  0
    1.4340   17.7000   -0.4270 C   0  0  0  0  0  0  0  0  0  0  0  0
    1.3580   19.0590    0.2730 C   0  0  0  0  0  0  0  0  0  0  0  0
    0.1070   19.8010   -0.0910 C   0  0  2  0  0  0  0  0  0  0  0  0
   -0.7020   20.1940    1.0250 O   0  0  0  0  0  0  0  0  0  0  0  0
   -1.2880   19.2430    0.1210 C   0  0  0  0  0  0  0  0  0  0  0  0
   -1.5040   17.8880    0.7190 C   0  0  0  0  0  0  0  0  0  0  0  0
   -2.4130   19.8000   -0.6940 C   0  0  0  0  0  0  0  0  0  0  0  0
    0.5570   16.3430   -2.3500 C   0  0  1  0  0  0  0  0  0  0  0  0
    0.6320   16.1620   -3.8890 C   0  0  0  0  0  0  0  0  0  0  0  0
    1.0590   14.6940   -4.1460 C   0  0  0  0  0  0  0  0  0  0  0  0
    0.8930   13.9940   -2.7770 C   0  0  1  0  0  0  0  0  0  0  0  0
   -0.6290   13.6660   -2.6770 C   0  0  0  0  0  0  0  0  0  0  0  0
    1.7740   12.7240   -2.5390 C   0  0  2  0  0  0  0  0  0  0  0  0
    1.5020   11.5520   -3.4970 C   0  0  0  0  0  0  0  0  0  0  0  0
    0.4690   10.5770   -3.0350 C   0  0  0  0  0  0  0  0  0  0  0  0
   -0.0070   10.4790   -1.7800 C   0  0  0  0  0  0  0  0  0  0  0  0
    0.5700   11.3400   -0.6480 C   0  0  1  0  0  0  0  0  0  0  0  0
    0.8360   10.4510    0.5950 C   0  0  0  0  0  0  0  0  0  0  0  0
   -0.4000    9.6690    1.0300 C   0  0  0  0  0  0  0  0  0  0  0  0
   -0.9090    8.7810   -0.1030 C   0  0  2  0  0  0  0  0  0  0  0  0
    0.0600    7.7600   -0.3600 O   0  0  0  0  0  0  0  0  0  0  0  0
   -1.2020    9.5660   -1.4120 C   0  0  0  0  0  0  0  0  0  0  0  0
   -2.4530   10.4580   -1.2160 C   0  0  0  0  0  0  0  0  0  0  0  0
   -1.5720    8.5360   -2.5130 C   0  0  0  0  0  0  0  0  0  0  0  0
    1.8220   12.2410   -1.0330 C   0  0  1  0  0  0  0  0  0  0  0  0
    3.1380   11.4220   -0.8690 C   0  0  0  0  0  0  0  0  0  0  0  0
    1.9180   13.4440   -0.0220 C   0  0  0  0  0  0  0  0  0  0  0  0
    1.1200   14.7140   -0.3730 C   0  0  0  0  0  0  0  0  0  0  0  0
    1.3810   15.1420   -1.8210 C   0  0  2  0  0  0  0  0  0  0  0  0
    2.9010   15.5000   -1.9470 C   0  0  0  0  0  0  0  0  0  0  0  0
    2.9064   18.6723   -2.2226 H   0  0  0  0  0  0  0  0  0  0  0  0
    2.4538   17.4531   -3.4617 H   0  0  0  0  0  0  0  0  0  0  0  0
    1.6676   19.0682   -3.4617 H   0  0  0  0  0  0  0  0  0  0  0  0
    0.1286   18.4256   -1.9676 H   0  0  0  0  0  0  0  0  0  0  0  0
    0.7896   16.9931    0.1162 H   0  0  0  0  0  0  0  0  0  0  0  0
    2.4906   17.3942   -0.4215 H   0  0  0  0  0  0  0  0  0  0  0  0
    1.3747   18.9008    1.3614 H   0  0  0  0  0  0  0  0  0  0  0  0
    2.2201   19.6604   -0.0512 H   0  0  0  0  0  0  0  0  0  0  0  0
    0.5981   20.2460   -0.9690 H   0  0  0  0  0  0  0  0  0  0  0  0
   -1.4917   17.9652    1.8162 H   0  0  0  0  0  0  0  0  0  0  0  0
   -2.4765   17.4929    0.3901 H   0  0  0  0  0  0  0  0  0  0  0  0
   -0.7026   17.2101    0.3901 H   0  0  0  0  0  0  0  0  0  0  0  0
   -3.1947   20.1870   -0.0238 H   0  0  0  0  0  0  0  0  0  0  0  0
   -2.0370   20.6161   -1.3286 H   0  0  0  0  0  0  0  0  0  0  0  0
   -2.8341   19.0063   -1.3286 H   0  0  0  0  0  0  0  0  0  0  0  0
   -0.4590   16.3168   -1.9292 H   0  0  0  0  0  0  0  0  0  0  0  0
   -0.3518   16.3552   -4.3416 H   0  0  0  0  0  0  0  0  0  0  0  0
    1.3497   16.8661   -4.3351 H   0  0  0  0  0  0  0  0  0  0  0  0
    0.4101   14.2275   -4.9019 H   0  0  0  0  0  0  0  0  0  0  0  0
    2.0869   14.6198   -4.5305 H   0  0  0  0  0  0  0  0  0  0  0  0
   -0.9217   13.6029   -1.6185 H   0  0  0  0  0  0  0  0  0  0  0  0
   -1.2084   14.4599   -3.1710 H   0  0  0  0  0  0  0  0  0  0  0  0
   -0.8300   12.7039   -3.1710 H   0  0  0  0  0  0  0  0  0  0  0  0
    2.7819   13.0863   -2.7899 H   0  0  0  0  0  0  0  0  0  0  0  0
    1.1694   11.9694   -4.4589 H   0  0  0  0  0  0  0  0  0  0  0  0
    2.4443   10.9884   -3.5636 H   0  0  0  0  0  0  0  0  0  0  0  0
    0.0632    9.8805   -3.7835 H   0  0  0  0  0  0  0  0  0  0  0  0
   -0.2001   12.0893   -0.4124 H   0  0  0  0  0  0  0  0  0  0  0  0
    1.6377    9.7376    0.3533 H   0  0  0  0  0  0  0  0  0  0  0  0
    1.1210   11.1141    1.4251 H   0  0  0  0  0  0  0  0  0  0  0  0
   -0.1419    9.0385    1.8936 H   0  0  0  0  0  0  0  0  0  0  0  0
   -1.1916   10.3838    1.2993 H   0  0  0  0  0  0  0  0  0  0  0  0
   -1.8657    8.3467    0.2226 H   0  0  0  0  0  0  0  0  0  0  0  0
   -0.0120    7.1010    0.3500 H   0  0  0  0  0  0  0  0  0  0  0  0
   -2.6423   10.5930   -0.1408 H   0  0  0  0  0  0  0  0  0  0  0  0
   -2.2811   11.4385   -1.6840 H   0  0  0  0  0  0  0  0  0  0  0  0
   -3.3240    9.9760   -1.6840 H   0  0  0  0  0  0  0  0  0  0  0  0
   -1.9080    7.6005   -2.0419 H   0  0  0  0  0  0  0  0  0  0  0  0
   -2.3803    8.9425   -3.1386 H   0  0  0  0  0  0  0  0  0  0  0  0
   -0.6898    8.3352   -3.1386 H   0  0  0  0  0  0  0  0  0  0  0  0
    3.3549   11.2870    0.2009 H   0  0  0  0  0  0  0  0  0  0  0  0
    3.0193   10.4380   -1.3461 H   0  0  0  0  0  0  0  0  0  0  0  0
    3.9685   11.9630   -1.3461 H   0  0  0  0  0  0  0  0  0  0  0  0
    1.5609   13.0864    0.9550 H   0  0  0  0  0  0  0  0  0  0  0  0
    2.9734   13.7532   -0.0432 H   0  0  0  0  0  0  0  0  0  0  0  0
    0.0464   14.5113   -0.2455 H   0  0  0  0  0  0  0  0  0  0  0  0
    1.4402   15.5261    0.2963 H   0  0  0  0  0  0  0  0  0  0  0  0
    3.3379   15.6029   -0.9428 H   0  0  0  0  0  0  0  0  0  0  0  0
    3.4221   14.7000   -2.4934 H   0  0  0  0  0  0  0  0  0  0  0  0
    3.0103   16.4485   -2.4934 H   0  0  0  0  0  0  0  0  0  0  0  0
  1  2  1  0
  2  3  1  0
  3  4  1  0
  4  5  1  0
  5  6  1  0
  6  7  1  0
  7  8  1  0
  7  9  1  0
  2 10  1  0
 10 11  1  0
 11 12  1  0
 12 13  1  0
 13 14  1  1
 13 15  1  0
 15 16  1  0
 16 17  1  0
 17 18  2  0
 18 19  1  0
 19 20  1  0
 20 21  1  0
 21 22  1  0
 22 23  1  0
 22 24  1  0
 24 25  1  0
 24 26  1  0
 19 27  1  0
 27 28  1  6
 27 29  1  0
 29 30  1  0
 30 31  1  0
 31 32  1  1
  7  5  1  0
 31 10  1  0
 31 13  1  0
 27 15  1  0
 24 18  1  0
  1 33  1  0
  1 34  1  0
  1 35  1  0
  2 36  1  1
  3 37  1  0
  3 38  1  0
  4 39  1  0
  4 40  1  0
  5 41  1  6
  8 42  1  0
  8 43  1  0
  8 44  1  0
  9 45  1  0
  9 46  1  0
  9 47  1  0
 10 48  1  1
 11 49  1  0
 11 50  1  0
 12 51  1  0
 12 52  1  0
 14 53  1  0
 14 54  1  0
 14 55  1  0
 15 56  1  6
 16 57  1  0
 16 58  1  0
 17 59  1  0
 19 60  1  1
 20 61  1  0
 20 62  1  0
 21 63  1  0
 21 64  1  0
 22 65  1  1
 23 66  1  0
 25 67  1  0
 25 68  1  0
 25 69  1  0
 26 70  1  0
 26 71  1  0
 26 72  1  0
 28 73  1  0
 28 74  1  0
 28 75  1  0
 29 76  1  0
 29 77  1  0
 30 78  1  0
 30 79  1  0
 32 80  1  0
 32 81  1  0
 32 82  1  0
M  END
>  <meeko>  (4) 
{"is_sidechain": [false], "intermolecular_energy": 2.731, "internal_energy": -0.839}

$$$$
EPH_relaxed_0001_pdb2pqr_Repair_155_r2_0001_out
     RDKit          3D

 82 86  0  0  0  0  0  0  0  0999 V2000
    3.8060   17.8970    0.6970 C   0  0  0  0  0  0  0  0  0  0  0  0
    2.8200   18.2920   -0.4060 C   0  0  2  0  0  0  0  0  0  0  0  0
    2.1130   19.6280   -0.1020 C   0  0  0  0  0  0  0  0  0  0  0  0
    1.0080   19.5130    0.9520 C   0  0  0  0  0  0  0  0  0  0  0  0
   -0.2700   20.1410    0.4860 C   0  0  2  0  0  0  0  0  0  0  0  0
   -1.3090   20.1860    1.4730 O   0  0  0  0  0  0  0  0  0  0  0  0
   -1.5670   19.3720    0.3170 C   0  0  0  0  0  0  0  0  0  0  0  0
   -1.6500   17.9070    0.6110 C   0  0  0  0  0  0  0  0  0  0  0  0
   -2.6170   19.9310   -0.5910 C   0  0  0  0  0  0  0  0  0  0  0  0
    1.7880   17.1880   -0.6010 C   0  0  1  0  0  0  0  0  0  0  0  0
    0.5700   17.6510   -1.4440 C   0  0  0  0  0  0  0  0  0  0  0  0
    0.1190   16.4300   -2.2860 C   0  0  0  0  0  0  0  0  0  0  0  0
    0.8680   15.2290   -1.6630 C   0  0  1  0  0  0  0  0  0  0  0  0
    0.0240   14.8360   -0.4100 C   0  0  0  0  0  0  0  0  0  0  0  0
    1.1100   14.0030   -2.6030 C   0  0  2  0  0  0  0  0  0  0  0  0
   -0.1650   13.3120   -3.1170 C   0  0  0  0  0  0  0  0  0  0  0  0
   -0.6760   12.1990   -2.2630 C   0  0  0  0  0  0  0  0  0  0  0  0
    0.0150   11.5830   -1.2850 C   0  0  0  0  0  0  0  0  0  0  0  0
    1.4860   11.9290   -1.0220 C   0  0  1  0  0  0  0  0  0  0  0  0
    2.3060   10.6220   -0.8690 C   0  0  0  0  0  0  0  0  0  0  0  0
    1.7270    9.6880    0.1900 C   0  0  0  0  0  0  0  0  0  0  0  0
    0.2820    9.3210   -0.1380 C   0  0  2  0  0  0  0  0  0  0  0  0
    0.2680    8.5260   -1.3280 O   0  0  0  0  0  0  0  0  0  0  0  0
   -0.6380   10.5590   -0.3240 C   0  0  0  0  0  0  0  0  0  0  0  0
   -0.8630   11.2510    1.0430 C   0  0  0  0  0  0  0  0  0  0  0  0
   -2.0300   10.0540   -0.7890 C   0  0  0  0  0  0  0  0  0  0  0  0
    2.1510   12.9510   -2.0410 C   0  0  1  0  0  0  0  0  0  0  0  0
    2.7160   12.1820   -3.2740 C   0  0  0  0  0  0  0  0  0  0  0  0
    3.3830   13.6420   -1.3460 C   0  0  0  0  0  0  0  0  0  0  0  0
    3.0960   14.9170   -0.5300 C   0  0  0  0  0  0  0  0  0  0  0  0
    2.2490   15.9050   -1.3370 C   0  0  2  0  0  0  0  0  0  0  0  0
    3.0810   16.3350   -2.5920 C   0  0  0  0  0  0  0  0  0  0  0  0
    3.3486   18.0802    1.6805 H   0  0  0  0  0  0  0  0  0  0  0  0
    4.0548   16.8298    0.6014 H   0  0  0  0  0  0  0  0  0  0  0  0
    4.7228   18.4972    0.6014 H   0  0  0  0  0  0  0  0  0  0  0  0
    3.3972   18.4281   -1.3324 H   0  0  0  0  0  0  0  0  0  0  0  0
    2.8651   20.3446    0.2599 H   0  0  0  0  0  0  0  0  0  0  0  0
    1.6341   19.9583   -1.0356 H   0  0  0  0  0  0  0  0  0  0  0  0
    0.8260   18.4489    1.1630 H   0  0  0  0  0  0  0  0  0  0  0  0
    1.3406   20.0431    1.8566 H   0  0  0  0  0  0  0  0  0  0  0  0
    0.2793   20.8174   -0.1854 H   0  0  0  0  0  0  0  0  0  0  0  0
   -1.6588   17.7515    1.6999 H   0  0  0  0  0  0  0  0  0  0  0  0
   -2.5728   17.4971    0.1746 H   0  0  0  0  0  0  0  0  0  0  0  0
   -0.7794   17.3955    0.1746 H   0  0  0  0  0  0  0  0  0  0  0  0
   -3.4297   20.3637    0.0109 H   0  0  0  0  0  0  0  0  0  0  0  0
   -2.1745   20.7129   -1.2257 H   0  0  0  0  0  0  0  0  0  0  0  0
   -3.0186   19.1273   -1.2257 H   0  0  0  0  0  0  0  0  0  0  0  0
    1.5635   16.9579    0.4510 H   0  0  0  0  0  0  0  0  0  0  0  0
   -0.2462   17.9775   -0.7828 H   0  0  0  0  0  0  0  0  0  0  0  0
    0.8369   18.4999   -2.0906 H   0  0  0  0  0  0  0  0  0  0  0  0
   -0.9695   16.2889   -2.2135 H   0  0  0  0  0  0  0  0  0  0  0  0
    0.3454   16.5539   -3.3553 H   0  0  0  0  0  0  0  0  0  0  0  0
    0.5804   15.0951    0.5028 H   0  0  0  0  0  0  0  0  0  0  0  0
   -0.9307   15.3822   -0.4249 H   0  0  0  0  0  0  0  0  0  0  0  0
   -0.1724   13.7538   -0.4249 H   0  0  0  0  0  0  0  0  0  0  0  0
    1.5721   14.4704   -3.4851 H   0  0  0  0  0  0  0  0  0  0  0  0
   -0.9562   14.0723   -3.1937 H   0  0  0  0  0  0  0  0  0  0  0  0
    0.1036   12.8566   -4.0816 H   0  0  0  0  0  0  0  0  0  0  0  0
   -1.7036   11.8530   -2.4483 H   0  0  0  0  0  0  0  0  0  0  0  0
    1.5014   12.4919   -0.0771 H   0  0  0  0  0  0  0  0  0  0  0  0
    2.3154   10.0965   -1.8353 H   0  0  0  0  0  0  0  0  0  0  0  0
    3.3211   10.9004   -0.5494 H   0  0  0  0  0  0  0  0  0  0  0  0
    2.3316    8.7699    0.2297 H   0  0  0  0  0  0  0  0  0  0  0  0
    1.7466   10.2035    1.1615 H   0  0  0  0  0  0  0  0  0  0  0  0
   -0.1191    8.7602    0.7191 H   0  0  0  0  0  0  0  0  0  0  0  0
    1.0910    8.7080   -1.8130 H   0  0  0  0  0  0  0  0  0  0  0  0
   -0.6332   10.5442    1.8540 H   0  0  0  0  0  0  0  0  0  0  0  0
   -0.2037   12.1279    1.1230 H   0  0  0  0  0  0  0  0  0  0  0  0
   -1.9119   11.5724    1.1230 H   0  0  0  0  0  0  0  0  0  0  0  0
   -2.6509    9.8287    0.0906 H   0  0  0  0  0  0  0  0  0  0  0  0
   -2.5191   10.8320   -1.3936 H   0  0  0  0  0  0  0  0  0  0  0  0
   -1.9065    9.1434   -1.3936 H   0  0  0  0  0  0  0  0  0  0  0  0
    3.3345   11.3402   -2.9292 H   0  0  0  0  0  0  0  0  0  0  0  0
    1.8823   11.7998   -3.8813 H   0  0  0  0  0  0  0  0  0  0  0  0
    3.3299   12.8634   -3.8813 H   0  0  0  0  0  0  0  0  0  0  0  0
    3.8366   12.9065   -0.6654 H   0  0  0  0  0  0  0  0  0  0  0  0
    4.0326   13.9689   -2.1713 H   0  0  0  0  0  0  0  0  0  0  0  0
    2.5534   14.6430    0.3868 H   0  0  0  0  0  0  0  0  0  0  0  0
    4.0538   15.3974   -0.2815 H   0  0  0  0  0  0  0  0  0  0  0  0
    4.0142   16.8173   -2.2656 H   0  0  0  0  0  0  0  0  0  0  0  0
    3.3190   15.4470   -3.1960 H   0  0  0  0  0  0  0  0  0  0  0  0
    2.4943   17.0428   -3.1960 H   0  0  0  0  0  0  0  0  0  0  0  0
  1  2  1  0
  2  3  1  0
  3  4  1  0
  4  5  1  0
  5  6  1  0
  6  7  1  0
  7  8  1  0
  7  9  1  0
  2 10  1  0
 10 11  1  0
 11 12  1  0
 12 13  1  0
 13 14  1  1
 13 15  1  0
 15 16  1  0
 16 17  1  0
 17 18  2  0
 18 19  1  0
 19 20  1  0
 20 21  1  0
 21 22  1  0
 22 23  1  0
 22 24  1  0
 24 25  1  0
 24 26  1  0
 19 27  1  0
 27 28  1  6
 27 29  1  0
 29 30  1  0
 30 31  1  0
 31 32  1  6
  7  5  1  0
 31 10  1  0
 31 13  1  0
 27 15  1  0
 24 18  1  0
  1 33  1  0
  1 34  1  0
  1 35  1  0
  2 36  1  6
  3 37  1  0
  3 38  1  0
  4 39  1  0
  4 40  1  0
  5 41  1  6
  8 42  1  0
  8 43  1  0
  8 44  1  0
  9 45  1  0
  9 46  1  0
  9 47  1  0
 10 48  1  1
 11 49  1  0
 11 50  1  0
 12 51  1  0
 12 52  1  0
 14 53  1  0
 14 54  1  0
 14 55  1  0
 15 56  1  6
 16 57  1  0
 16 58  1  0
 17 59  1  0
 19 60  1  1
 20 61  1  0
 20 62  1  0
 21 63  1  0
 21 64  1  0
 22 65  1  1
 23 66  1  0
 25 67  1  0
 25 68  1  0
 25 69  1  0
 26 70  1  0
 26 71  1  0
 26 72  1  0
 28 73  1  0
 28 74  1  0
 28 75  1  0
 29 76  1  0
 29 77  1  0
 30 78  1  0
 30 79  1  0
 32 80  1  0
 32 81  1  0
 32 82  1  0
M  END
>  <meeko>  (5) 
{"is_sidechain": [false], "intermolecular_energy": 2.731, "internal_energy": -0.839}

$$$$
EPH_relaxed_0001_pdb2pqr_Repair_155_r2_0001_out
     RDKit          3D

 82 86  0  0  0  0  0  0  0  0999 V2000
   -5.1460    5.8470   -1.7670 C   0  0  0  0  0  0  0  0  0  0  0  0
   -5.4540    7.3460   -1.8060 C   0  0  2  0  0  0  0  0  0  0  0  0
   -5.2320    8.0200   -0.4370 C   0  0  0  0  0  0  0  0  0  0  0  0
   -4.1840    9.1360   -0.4630 C   0  0  0  0  0  0  0  0  0  0  0  0
   -2.8350    8.6210   -0.8620 C   0  0  2  0  0  0  0  0  0  0  0  0
   -1.7860    8.8990    0.0760 O   0  0  0  0  0  0  0  0  0  0  0  0
   -1.6660    9.5220   -1.2140 C   0  0  0  0  0  0  0  0  0  0  0  0
   -1.7930   11.0130   -1.1840 C   0  0  0  0  0  0  0  0  0  0  0  0
   -0.5590    8.9630   -2.0520 C   0  0  0  0  0  0  0  0  0  0  0  0
   -6.8880    7.5710   -2.2710 C   0  0  1  0  0  0  0  0  0  0  0  0
   -7.1940    6.8740   -3.6230 C   0  0  0  0  0  0  0  0  0  0  0  0
   -8.6680    6.4000   -3.5590 C   0  0  0  0  0  0  0  0  0  0  0  0
   -9.2560    7.1220   -2.3240 C   0  0  1  0  0  0  0  0  0  0  0  0
   -9.6080    8.5570   -2.8280 C   0  0  0  0  0  0  0  0  0  0  0  0
  -10.4830    6.4340   -1.6400 C   0  0  2  0  0  0  0  0  0  0  0  0
  -11.7360    6.3060   -2.5230 C   0  0  0  0  0  0  0  0  0  0  0  0
  -12.6910    7.4510   -2.4440 C   0  0  0  0  0  0  0  0  0  0  0  0
  -12.6960    8.4010   -1.4900 C   0  0  0  0  0  0  0  0  0  0  0  0
  -11.7320    8.3260   -0.2990 C   0  0  1  0  0  0  0  0  0  0  0  0
  -12.5090    8.6060    1.0140 C   0  0  0  0  0  0  0  0  0  0  0  0
  -13.2800    9.9220    0.9690 C   0  0  0  0  0  0  0  0  0  0  0  0
  -14.2690    9.9350   -0.1940 C   0  0  2  0  0  0  0  0  0  0  0  0
  -15.2860    8.9600    0.0550 O   0  0  0  0  0  0  0  0  0  0  0  0
  -13.6010    9.6550   -1.5690 C   0  0  0  0  0  0  0  0  0  0  0  0
  -12.7240   10.8630   -1.9770 C   0  0  0  0  0  0  0  0  0  0  0  0
  -14.7270    9.5560   -2.6340 C   0  0  0  0  0  0  0  0  0  0  0  0
  -10.8390    7.0140   -0.2120 C   0  0  1  0  0  0  0  0  0  0  0  0
  -11.6130    5.8920    0.5450 C   0  0  0  0  0  0  0  0  0  0  0  0
   -9.5540    7.3230    0.6460 C   0  0  0  0  0  0  0  0  0  0  0  0
   -8.3360    7.8900   -0.1080 C   0  0  0  0  0  0  0  0  0  0  0  0
   -8.0230    7.0530   -1.3520 C   0  0  2  0  0  0  0  0  0  0  0  0
   -7.6440    5.6100   -0.8750 C   0  0  0  0  0  0  0  0  0  0  0  0
   -5.0775    5.5138   -0.7209 H   0  0  0  0  0  0  0  0  0  0  0  0
   -5.9493    5.2942   -2.2760 H   0  0  0  0  0  0  0  0  0  0  0  0
   -4.1898    5.6558   -2.2760 H   0  0  0  0  0  0  0  0  0  0  0  0
   -4.7557    7.8085   -2.5191 H   0  0  0  0  0  0  0  0  0  0  0  0
   -6.1879    8.4490   -0.1021 H   0  0  0  0  0  0  0  0  0  0  0  0
   -4.8579    7.2436    0.2466 H   0  0  0  0  0  0  0  0  0  0  0  0
   -4.4996    9.9045   -1.1840 H   0  0  0  0  0  0  0  0  0  0  0  0
   -4.1046    9.5551    0.5509 H   0  0  0  0  0  0  0  0  0  0  0  0
   -3.2897    7.7653   -1.3826 H   0  0  0  0  0  0  0  0  0  0  0  0
   -1.8223   11.3576   -0.1398 H   0  0  0  0  0  0  0  0  0  0  0  0
   -0.9301   11.4649   -1.6951 H   0  0  0  0  0  0  0  0  0  0  0  0
   -2.7199   11.3124   -1.6951 H   0  0  0  0  0  0  0  0  0  0  0  0
    0.2305    8.5643   -1.3980 H   0  0  0  0  0  0  0  0  0  0  0  0
   -0.9518    8.1552   -2.6869 H   0  0  0  0  0  0  0  0  0  0  0  0
   -0.1421    9.7586   -2.6869 H   0  0  0  0  0  0  0  0  0  0  0  0
   -6.9011    8.6705   -2.3026 H   0  0  0  0  0  0  0  0  0  0  0  0
   -7.0599    7.5829   -4.4534 H   0  0  0  0  0  0  0  0  0  0  0  0
   -6.5139    6.0263   -3.7928 H   0  0  0  0  0  0  0  0  0  0  0  0
   -9.2090    6.6891   -4.4721 H   0  0  0  0  0  0  0  0  0  0  0  0
   -8.7517    5.3059   -3.4820 H   0  0  0  0  0  0  0  0  0  0  0  0
   -9.7704    9.2192   -1.9648 H   0  0  0  0  0  0  0  0  0  0  0  0
   -8.7785    8.9454   -3.4372 H   0  0  0  0  0  0  0  0  0  0  0  0
  -10.5231    8.5175   -3.4372 H   0  0  0  0  0  0  0  0  0  0  0  0
  -10.1206    5.4069   -1.4858 H   0  0  0  0  0  0  0  0  0  0  0  0
  -11.4070    6.2092   -3.5682 H   0  0  0  0  0  0  0  0  0  0  0  0
  -12.2827    5.4272   -2.1503 H   0  0  0  0  0  0  0  0  0  0  0  0
  -13.4551    7.5246   -3.2319 H   0  0  0  0  0  0  0  0  0  0  0  0
  -10.9821    9.1137   -0.4640 H   0  0  0  0  0  0  0  0  0  0  0  0
  -13.2217    7.7855    1.1836 H   0  0  0  0  0  0  0  0  0  0  0  0
  -11.7730    8.6782    1.8283 H   0  0  0  0  0  0  0  0  0  0  0  0
  -13.8317   10.0485    1.9122 H   0  0  0  0  0  0  0  0  0  0  0  0
  -12.5631   10.7445    0.8296 H   0  0  0  0  0  0  0  0  0  0  0  0
  -14.6956   10.9472   -0.2534 H   0  0  0  0  0  0  0  0  0  0  0  0
  -15.0430    8.4820    0.8660 H   0  0  0  0  0  0  0  0  0  0  0  0
  -12.3556   11.3705   -1.0733 H   0  0  0  0  0  0  0  0  0  0  0  0
  -11.8697   10.5109   -2.5739 H   0  0  0  0  0  0  0  0  0  0  0  0
  -13.3233   11.5662   -2.5739 H   0  0  0  0  0  0  0  0  0  0  0  0
  -15.7013    9.4703   -2.1306 H   0  0  0  0  0  0  0  0  0  0  0  0
  -14.7173   10.4585   -3.2629 H   0  0  0  0  0  0  0  0  0  0  0  0
  -14.5600    8.6691   -3.2629 H   0  0  0  0  0  0  0  0  0  0  0  0
  -11.5091    6.0426    1.6297 H   0  0  0  0  0  0  0  0  0  0  0  0
  -12.6773    5.9309    0.2697 H   0  0  0  0  0  0  0  0  0  0  0  0
  -11.1987    4.9109    0.2697 H   0  0  0  0  0  0  0  0  0  0  0  0
   -9.8370    8.0534    1.4183 H   0  0  0  0  0  0  0  0  0  0  0  0
   -9.2247    6.3475    1.0333 H   0  0  0  0  0  0  0  0  0  0  0  0
   -8.5522    8.9239   -0.4150 H   0  0  0  0  0  0  0  0  0  0  0  0
   -7.4642    7.8617    0.5623 H   0  0  0  0  0  0  0  0  0  0  0  0
   -7.6355    5.5777    0.2245 H   0  0  0  0  0  0  0  0  0  0  0  0
   -8.3838    4.8913   -1.2573 H   0  0  0  0  0  0  0  0  0  0  0  0
   -6.6465    5.3476   -1.2573 H   0  0  0  0  0  0  0  0  0  0  0  0
  1  2  1  0
  2  3  1  0
  3  4  1  0
  4  5  1  0
  5  6  1  0
  6  7  1  0
  7  8  1  0
  7  9  1  0
  2 10  1  0
 10 11  1  0
 11 12  1  0
 12 13  1  0
 13 14  1  6
 13 15  1  0
 15 16  1  0
 16 17  1  0
 17 18  2  0
 18 19  1  0
 19 20  1  0
 20 21  1  0
 21 22  1  0
 22 23  1  0
 22 24  1  0
 24 25  1  0
 24 26  1  0
 19 27  1  0
 27 28  1  1
 27 29  1  0
 29 30  1  0
 30 31  1  0
 31 32  1  1
  7  5  1  0
 31 10  1  0
 31 13  1  0
 27 15  1  0
 24 18  1  0
  1 33  1  0
  1 34  1  0
  1 35  1  0
  2 36  1  6
  3 37  1  0
  3 38  1  0
  4 39  1  0
  4 40  1  0
  5 41  1  6
  8 42  1  0
  8 43  1  0
  8 44  1  0
  9 45  1  0
  9 46  1  0
  9 47  1  0
 10 48  1  6
 11 49  1  0
 11 50  1  0
 12 51  1  0
 12 52  1  0
 14 53  1  0
 14 54  1  0
 14 55  1  0
 15 56  1  1
 16 57  1  0
 16 58  1  0
 17 59  1  0
 19 60  1  6
 20 61  1  0
 20 62  1  0
 21 63  1  0
 21 64  1  0
 22 65  1  6
 23 66  1  0
 25 67  1  0
 25 68  1  0
 25 69  1  0
 26 70  1  0
 26 71  1  0
 26 72  1  0
 28 73  1  0
 28 74  1  0
 28 75  1  0
 29 76  1  0
 29 77  1  0
 30 78  1  0
 30 79  1  0
 32 80  1  0
 32 81  1  0
 32 82  1  0
M  END
>  <meeko>  (6) 
{"is_sidechain": [false], "intermolecular_energy": 2.731, "internal_energy": -0.839}

$$$$
EPH_relaxed_0001_pdb2pqr_Repair_155_r2_0001_out
     RDKit          3D

 82 86  0  0  0  0  0  0  0  0999 V2000
    0.4490    8.8280   -2.3390 C   0  0  0  0  0  0  0  0  0  0  0  0
    1.1880    9.9640   -3.0510 C   0  0  2  0  0  0  0  0  0  0  0  0
    2.6910    9.9850   -2.7060 C   0  0  0  0  0  0  0  0  0  0  0  0
    3.5660   10.5940   -3.8050 C   0  0  0  0  0  0  0  0  0  0  0  0
    4.9680   10.8290   -3.3310 C   0  0  2  0  0  0  0  0  0  0  0  0
    5.5710   12.0340   -3.8200 O   0  0  0  0  0  0  0  0  0  0  0  0
    6.1760   10.8030   -4.2480 C   0  0  0  0  0  0  0  0  0  0  0  0
    6.0380   10.5350   -5.7140 C   0  0  0  0  0  0  0  0  0  0  0  0
    7.5250   10.5540   -3.6480 C   0  0  0  0  0  0  0  0  0  0  0  0
    0.5530   11.3020   -2.6920 C   0  0  1  0  0  0  0  0  0  0  0  0
   -0.8130   11.1420   -1.9720 C   0  0  0  0  0  0  0  0  0  0  0  0
   -0.9140   12.2960   -0.9420 C   0  0  0  0  0  0  0  0  0  0  0  0
    0.2290   13.2640   -1.3280 C   0  0  1  0  0  0  0  0  0  0  0  0
   -0.3410   14.1040   -2.5140 C   0  0  0  0  0  0  0  0  0  0  0  0
    0.7760   14.1780   -0.1840 C   0  0  2  0  0  0  0  0  0  0  0  0
   -0.2470   15.1620    0.4120 C   0  0  0  0  0  0  0  0  0  0  0  0
   -0.3030   16.5000   -0.2480 C   0  0  0  0  0  0  0  0  0  0  0  0
    0.6250   16.9980   -1.0860 C   0  0  0  0  0  0  0  0  0  0  0  0
    1.9230   16.2320   -1.3700 C   0  0  1  0  0  0  0  0  0  0  0  0
    3.1300   17.2020   -1.2730 C   0  0  0  0  0  0  0  0  0  0  0  0
    2.9680   18.4270   -2.1670 C   0  0  0  0  0  0  0  0  0  0  0  0
    1.6970   19.1960   -1.8150 C   0  0  2  0  0  0  0  0  0  0  0  0
    1.8430   19.7530   -0.5060 O   0  0  0  0  0  0  0  0  0  0  0  0
    0.4160   18.3170   -1.8700 C   0  0  0  0  0  0  0  0  0  0  0  0
    0.0900   17.9620   -3.3410 C   0  0  0  0  0  0  0  0  0  0  0  0
   -0.7730   19.1750   -1.3570 C   0  0  0  0  0  0  0  0  0  0  0  0
    2.1410   14.9010   -0.5280 C   0  0  1  0  0  0  0  0  0  0  0  0
    2.8220   15.2380    0.8330 C   0  0  0  0  0  0  0  0  0  0  0  0
    3.1380   13.9600   -1.3030 C   0  0  0  0  0  0  0  0  0  0  0  0
    2.5230   12.9960   -2.3350 C   0  0  0  0  0  0  0  0  0  0  0  0
    1.3410   12.2300   -1.7330 C   0  0  2  0  0  0  0  0  0  0  0  0
    1.8870   11.3580   -0.5520 C   0  0  0  0  0  0  0  0  0  0  0  0
    0.5350    8.9602   -1.2504 H   0  0  0  0  0  0  0  0  0  0  0  0
   -0.6124    8.8435   -2.6275 H   0  0  0  0  0  0  0  0  0  0  0  0
    0.8933    7.8640   -2.6275 H   0  0  0  0  0  0  0  0  0  0  0  0
    1.1000    9.7889   -4.1334 H   0  0  0  0  0  0  0  0  0  0  0  0
    2.8282   10.5734   -1.7868 H   0  0  0  0  0  0  0  0  0  0  0  0
    3.0079    8.9386   -2.5855 H   0  0  0  0  0  0  0  0  0  0  0  0
    3.5904    9.9063   -4.6632 H   0  0  0  0  0  0  0  0  0  0  0  0
    3.1331   11.5644   -4.0895 H   0  0  0  0  0  0  0  0  0  0  0  0
    4.7552   10.3249   -2.3767 H   0  0  0  0  0  0  0  0  0  0  0  0
    5.5391    9.5662   -5.8643 H   0  0  0  0  0  0  0  0  0  0  0  0
    5.4382   11.3321   -6.1776 H   0  0  0  0  0  0  0  0  0  0  0  0
    7.0352   10.5097   -6.1776 H   0  0  0  0  0  0  0  0  0  0  0  0
    7.4467   10.5685   -2.5509 H   0  0  0  0  0  0  0  0  0  0  0  0
    7.8967    9.5721   -3.9762 H   0  0  0  0  0  0  0  0  0  0  0  0
    8.2227   11.3385   -3.9762 H   0  0  0  0  0  0  0  0  0  0  0  0
    0.4995   11.7540   -3.6934 H   0  0  0  0  0  0  0  0  0  0  0  0
   -1.6350   11.2108   -2.6997 H   0  0  0  0  0  0  0  0  0  0  0  0
   -0.8856   10.1628   -1.4761 H   0  0  0  0  0  0  0  0  0  0  0  0
   -1.8899   12.7982   -1.0158 H   0  0  0  0  0  0  0  0  0  0  0  0
   -0.8263   11.9389    0.0947 H   0  0  0  0  0  0  0  0  0  0  0  0
   -0.9173   14.9533   -2.1182 H   0  0  0  0  0  0  0  0  0  0  0  0
    0.4895   14.4796   -3.1298 H   0  0  0  0  0  0  0  0  0  0  0  0
   -0.9969   13.4710   -3.1298 H   0  0  0  0  0  0  0  0  0  0  0  0
    0.9916   13.4522    0.6139 H   0  0  0  0  0  0  0  0  0  0  0  0
   -1.2440   14.7034    0.3362 H   0  0  0  0  0  0  0  0  0  0  0  0
    0.0751   15.3463    1.4475 H   0  0  0  0  0  0  0  0  0  0  0  0
   -1.1766   17.1323   -0.0310 H   0  0  0  0  0  0  0  0  0  0  0  0
    1.8321   15.8517   -2.3981 H   0  0  0  0  0  0  0  0  0  0  0  0
    3.2303   17.5371   -0.2301 H   0  0  0  0  0  0  0  0  0  0  0  0
    4.0243   16.6577   -1.6106 H   0  0  0  0  0  0  0  0  0  0  0  0
    3.8371   19.0878   -2.0330 H   0  0  0  0  0  0  0  0  0  0  0  0
    2.8969   18.0916   -3.2122 H   0  0  0  0  0  0  0  0  0  0  0  0
    1.5685   19.9859   -2.5697 H   0  0  0  0  0  0  0  0  0  0  0  0
    2.5380   20.4310   -0.5500 H   0  0  0  0  0  0  0  0  0  0  0  0
   -0.6538   17.1520   -3.3665 H   0  0  0  0  0  0  0  0  0  0  0  0
   -0.3154   18.8483   -3.8509 H   0  0  0  0  0  0  0  0  0  0  0  0
    1.0076   17.6334   -3.8509 H   0  0  0  0  0  0  0  0  0  0  0  0
   -0.7759   19.1771   -0.2570 H   0  0  0  0  0  0  0  0  0  0  0  0
   -0.6670   20.2060   -1.7254 H   0  0  0  0  0  0  0  0  0  0  0  0
   -1.7181   18.7494   -1.7254 H   0  0  0  0  0  0  0  0  0  0  0  0
    2.1706   14.9156    1.6587 H   0  0  0  0  0  0  0  0  0  0  0  0
    3.7863   14.7131    0.9004 H   0  0  0  0  0  0  0  0  0  0  0  0
    2.9896   16.3231    0.9004 H   0  0  0  0  0  0  0  0  0  0  0  0
    3.8566   14.6017   -1.8339 H   0  0  0  0  0  0  0  0  0  0  0  0
    3.5805   13.3122   -0.5320 H   0  0  0  0  0  0  0  0  0  0  0  0
    2.1728   13.5737   -3.2031 H   0  0  0  0  0  0  0  0  0  0  0  0
    3.2921   12.2711   -2.6399 H   0  0  0  0  0  0  0  0  0  0  0  0
    1.5998   11.8166    0.4057 H   0  0  0  0  0  0  0  0  0  0  0  0
    1.4611   10.3458   -0.6161 H   0  0  0  0  0  0  0  0  0  0  0  0
    2.9835   11.2991   -0.6161 H   0  0  0  0  0  0  0  0  0  0  0  0
  1  2  1  0
  2  3  1  0
  3  4  1  0
  4  5  1  0
  5  6  1  0
  6  7  1  0
  7  8  1  0
  7  9  1  0
  2 10  1  0
 10 11  1  0
 11 12  1  0
 12 13  1  0
 13 14  1  6
 13 15  1  0
 15 16  1  0
 16 17  1  0
 17 18  2  0
 18 19  1  0
 19 20  1  0
 20 21  1  0
 21 22  1  0
 22 23  1  0
 22 24  1  0
 24 25  1  0
 24 26  1  0
 19 27  1  0
 27 28  1  1
 27 29  1  0
 29 30  1  0
 30 31  1  0
 31 32  1  1
  7  5  1  0
 31 10  1  0
 31 13  1  0
 27 15  1  0
 24 18  1  0
  1 33  1  0
  1 34  1  0
  1 35  1  0
  2 36  1  6
  3 37  1  0
  3 38  1  0
  4 39  1  0
  4 40  1  0
  5 41  1  1
  8 42  1  0
  8 43  1  0
  8 44  1  0
  9 45  1  0
  9 46  1  0
  9 47  1  0
 10 48  1  6
 11 49  1  0
 11 50  1  0
 12 51  1  0
 12 52  1  0
 14 53  1  0
 14 54  1  0
 14 55  1  0
 15 56  1  1
 16 57  1  0
 16 58  1  0
 17 59  1  0
 19 60  1  6
 20 61  1  0
 20 62  1  0
 21 63  1  0
 21 64  1  0
 22 65  1  6
 23 66  1  0
 25 67  1  0
 25 68  1  0
 25 69  1  0
 26 70  1  0
 26 71  1  0
 26 72  1  0
 28 73  1  0
 28 74  1  0
 28 75  1  0
 29 76  1  0
 29 77  1  0
 30 78  1  0
 30 79  1  0
 32 80  1  0
 32 81  1  0
 32 82  1  0
M  END
>  <meeko>  (7) 
{"is_sidechain": [false], "intermolecular_energy": 2.731, "internal_energy": -0.839}

$$$$
EPH_relaxed_0001_pdb2pqr_Repair_155_r2_0001_out
     RDKit          3D

 82 86  0  0  0  0  0  0  0  0999 V2000
    0.4090   10.5300   -3.8000 C   0  0  0  0  0  0  0  0  0  0  0  0
    1.3330   10.2830   -2.6040 C   0  0  2  0  0  0  0  0  0  0  0  0
    0.9130    9.0420   -1.7920 C   0  0  0  0  0  0  0  0  0  0  0  0
    0.0370    9.3660   -0.5790 C   0  0  0  0  0  0  0  0  0  0  0  0
   -1.2900    8.6720   -0.6520 C   0  0  2  0  0  0  0  0  0  0  0  0
   -2.0180    8.8970   -1.8670 O   0  0  0  0  0  0  0  0  0  0  0  0
   -2.6180    9.4050   -0.6640 C   0  0  0  0  0  0  0  0  0  0  0  0
   -2.6860   10.8980   -0.6010 C   0  0  0  0  0  0  0  0  0  0  0  0
   -3.8490    8.6620   -0.2450 C   0  0  0  0  0  0  0  0  0  0  0  0
    1.3550   11.5120   -1.7020 C   0  0  1  0  0  0  0  0  0  0  0  0
    2.4390   11.4210   -0.5950 C   0  0  0  0  0  0  0  0  0  0  0  0
    2.9750   12.8590   -0.3740 C   0  0  0  0  0  0  0  0  0  0  0  0
    1.9650   13.7690   -1.1100 C   0  0  1  0  0  0  0  0  0  0  0  0
    0.7700   13.9270   -0.1190 C   0  0  0  0  0  0  0  0  0  0  0  0
    2.5050   15.1560   -1.5880 C   0  0  2  0  0  0  0  0  0  0  0  0
    2.9740   16.0960   -0.4640 C   0  0  0  0  0  0  0  0  0  0  0  0
    1.9260   17.0080    0.0830 C   0  0  0  0  0  0  0  0  0  0  0  0
    0.7400   17.2740   -0.4970 C   0  0  0  0  0  0  0  0  0  0  0  0
    0.3940   16.7050   -1.8790 C   0  0  1  0  0  0  0  0  0  0  0  0
   -0.2040   17.8290   -2.7660 C   0  0  0  0  0  0  0  0  0  0  0  0
   -1.3920   18.5240   -2.1070 C   0  0  0  0  0  0  0  0  0  0  0  0
   -0.9930   19.1270   -0.7620 C   0  0  2  0  0  0  0  0  0  0  0  0
   -0.0660   20.1920   -0.9910 O   0  0  0  0  0  0  0  0  0  0  0  0
   -0.3680   18.0900    0.2130 C   0  0  0  0  0  0  0  0  0  0  0  0
   -1.4620   17.1060    0.6970 C   0  0  0  0  0  0  0  0  0  0  0  0
    0.1180   18.8540    1.4740 C   0  0  0  0  0  0  0  0  0  0  0  0
    1.5560   15.9040   -2.6100 C   0  0  1  0  0  0  0  0  0  0  0  0
    2.4570   16.8900   -3.4140 C   0  0  0  0  0  0  0  0  0  0  0  0
    0.9200   14.9230   -3.6640 C   0  0  0  0  0  0  0  0  0  0  0  0
    0.5160   13.5260   -3.1580 C   0  0  0  0  0  0  0  0  0  0  0  0
    1.6580   12.8780   -2.3690 C   0  0  2  0  0  0  0  0  0  0  0  0
    2.8670   12.6860   -3.3470 C   0  0  0  0  0  0  0  0  0  0  0  0
   -0.5947   10.7983   -3.4386 H   0  0  0  0  0  0  0  0  0  0  0  0
    0.8109   11.3522   -4.4102 H   0  0  0  0  0  0  0  0  0  0  0  0
    0.3471    9.6169   -4.4102 H   0  0  0  0  0  0  0  0  0  0  0  0
    2.3418   10.0930   -2.9992 H   0  0  0  0  0  0  0  0  0  0  0  0
    0.3518    8.3671   -2.4550 H   0  0  0  0  0  0  0  0  0  0  0  0
    1.8357    8.5826   -1.4079 H   0  0  0  0  0  0  0  0  0  0  0  0
    0.5586    9.0427    0.3339 H   0  0  0  0  0  0  0  0  0  0  0  0
   -0.1437   10.4510   -0.5666 H   0  0  0  0  0  0  0  0  0  0  0  0
   -0.9133    7.8377   -0.0420 H   0  0  0  0  0  0  0  0  0  0  0  0
   -2.7007   11.2203    0.4506 H   0  0  0  0  0  0  0  0  0  0  0  0
   -1.8064   11.3266   -1.1036 H   0  0  0  0  0  0  0  0  0  0  0  0
   -3.6009   11.2449   -1.1036 H   0  0  0  0  0  0  0  0  0  0  0  0
   -3.9020    8.6300    0.8533 H   0  0  0  0  0  0  0  0  0  0  0  0
   -4.7387    9.1741   -0.6403 H   0  0  0  0  0  0  0  0  0  0  0  0
   -3.8105    7.6362   -0.6403 H   0  0  0  0  0  0  0  0  0  0  0  0
    0.3172   11.4925   -1.3378 H   0  0  0  0  0  0  0  0  0  0  0  0
    1.9984   11.0338    0.3356 H   0  0  0  0  0  0  0  0  0  0  0  0
    3.2494   10.7387   -0.8912 H   0  0  0  0  0  0  0  0  0  0  0  0
    3.0061   13.1013    0.6985 H   0  0  0  0  0  0  0  0  0  0  0  0
    4.0009   12.9843   -0.7506 H   0  0  0  0  0  0  0  0  0  0  0  0
    1.1421   13.8778    0.9150 H   0  0  0  0  0  0  0  0  0  0  0  0
    0.2805   14.8977   -0.2867 H   0  0  0  0  0  0  0  0  0  0  0  0
    0.0450   13.1169   -0.2867 H   0  0  0  0  0  0  0  0  0  0  0  0
    3.4134   14.8773   -2.1422 H   0  0  0  0  0  0  0  0  0  0  0  0
    3.3503   15.4759    0.3629 H   0  0  0  0  0  0  0  0  0  0  0  0
    3.7404   16.7463   -0.9109 H   0  0  0  0  0  0  0  0  0  0  0  0
    2.1408   17.5046    1.0407 H   0  0  0  0  0  0  0  0  0  0  0  0
   -0.3608   15.9237   -1.7063 H   0  0  0  0  0  0  0  0  0  0  0  0
    0.5781   18.5773   -2.9621 H   0  0  0  0  0  0  0  0  0  0  0  0
   -0.5625   17.3651   -3.6967 H   0  0  0  0  0  0  0  0  0  0  0  0
   -1.7525   19.3256   -2.7684 H   0  0  0  0  0  0  0  0  0  0  0  0
   -2.1845   17.7803   -1.9375 H   0  0  0  0  0  0  0  0  0  0  0  0
   -1.9106   19.4962   -0.2808 H   0  0  0  0  0  0  0  0  0  0  0  0
    0.7840   19.7930   -1.2440 H   0  0  0  0  0  0  0  0  0  0  0  0
   -1.4800   17.0898    1.7967 H   0  0  0  0  0  0  0  0  0  0  0  0
   -2.4421   17.4325    0.3190 H   0  0  0  0  0  0  0  0  0  0  0  0
   -1.2408   16.0970    0.3190 H   0  0  0  0  0  0  0  0  0  0  0  0
   -0.2194   18.3237    2.3767 H   0  0  0  0  0  0  0  0  0  0  0  0
    1.2167   18.9078    1.4694 H   0  0  0  0  0  0  0  0  0  0  0  0
   -0.2989   19.8719    1.4694 H   0  0  0  0  0  0  0  0  0  0  0  0
    3.0297   17.5167   -2.7146 H   0  0  0  0  0  0  0  0  0  0  0  0
    3.1515   16.3186   -4.0474 H   0  0  0  0  0  0  0  0  0  0  0  0
    1.8255   17.5304   -4.0474 H   0  0  0  0  0  0  0  0  0  0  0  0
    0.0165   15.4057   -4.0648 H   0  0  0  0  0  0  0  0  0  0  0  0
    1.7136   14.7423   -4.4040 H   0  0  0  0  0  0  0  0  0  0  0  0
   -0.3644   13.6203   -2.5052 H   0  0  0  0  0  0  0  0  0  0  0  0
    0.2849   12.8914   -4.0263 H   0  0  0  0  0  0  0  0  0  0  0  0
    3.7892   12.5395   -2.7656 H   0  0  0  0  0  0  0  0  0  0  0  0
    2.6894   11.8048   -3.9810 H   0  0  0  0  0  0  0  0  0  0  0  0
    2.9711   13.5789   -3.9810 H   0  0  0  0  0  0  0  0  0  0  0  0
  1  2  1  0
  2  3  1  0
  3  4  1  0
  4  5  1  0
  5  6  1  0
  6  7  1  0
  7  8  1  0
  7  9  1  0
  2 10  1  0
 10 11  1  0
 11 12  1  0
 12 13  1  0
 13 14  1  1
 13 15  1  0
 15 16  1  0
 16 17  1  0
 17 18  2  0
 18 19  1  0
 19 20  1  0
 20 21  1  0
 21 22  1  0
 22 23  1  0
 22 24  1  0
 24 25  1  0
 24 26  1  0
 19 27  1  0
 27 28  1  6
 27 29  1  0
 29 30  1  0
 30 31  1  0
 31 32  1  6
  7  5  1  0
 31 10  1  0
 31 13  1  0
 27 15  1  0
 24 18  1  0
  1 33  1  0
  1 34  1  0
  1 35  1  0
  2 36  1  6
  3 37  1  0
  3 38  1  0
  4 39  1  0
  4 40  1  0
  5 41  1  1
  8 42  1  0
  8 43  1  0
  8 44  1  0
  9 45  1  0
  9 46  1  0
  9 47  1  0
 10 48  1  1
 11 49  1  0
 11 50  1  0
 12 51  1  0
 12 52  1  0
 14 53  1  0
 14 54  1  0
 14 55  1  0
 15 56  1  6
 16 57  1  0
 16 58  1  0
 17 59  1  0
 19 60  1  1
 20 61  1  0
 20 62  1  0
 21 63  1  0
 21 64  1  0
 22 65  1  1
 23 66  1  0
 25 67  1  0
 25 68  1  0
 25 69  1  0
 26 70  1  0
 26 71  1  0
 26 72  1  0
 28 73  1  0
 28 74  1  0
 28 75  1  0
 29 76  1  0
 29 77  1  0
 30 78  1  0
 30 79  1  0
 32 80  1  0
 32 81  1  0
 32 82  1  0
M  END
>  <meeko>  (8) 
{"is_sidechain": [false], "intermolecular_energy": 2.731, "internal_energy": -0.839}

$$$$
EPH_relaxed_0001_pdb2pqr_Repair_155_r2_0001_out
     RDKit          3D

 82 86  0  0  0  0  0  0  0  0999 V2000
    3.1740   18.6120   -1.5370 C   0  0  0  0  0  0  0  0  0  0  0  0
    2.6390   17.5280   -2.4760 C   0  0  2  0  0  0  0  0  0  0  0  0
    1.1840   17.8010   -2.9090 C   0  0  0  0  0  0  0  0  0  0  0  0
    0.6320   19.1360   -2.4010 C   0  0  0  0  0  0  0  0  0  0  0  0
   -0.7110   18.9700   -1.7560 C   0  0  2  0  0  0  0  0  0  0  0  0
   -1.4270   20.1940   -1.5430 O   0  0  0  0  0  0  0  0  0  0  0  0
   -1.0370   19.4740   -0.3620 C   0  0  0  0  0  0  0  0  0  0  0  0
   -0.0140   20.1800    0.4710 C   0  0  0  0  0  0  0  0  0  0  0  0
   -2.1840   18.8530    0.3730 C   0  0  0  0  0  0  0  0  0  0  0  0
    2.7350   16.1640   -1.8040 C   0  0  1  0  0  0  0  0  0  0  0  0
    3.4490   16.2250   -0.4270 C   0  0  0  0  0  0  0  0  0  0  0  0
    2.7600   15.1740    0.4810 C   0  0  0  0  0  0  0  0  0  0  0  0
    1.9080   14.3210   -0.4870 C   0  0  1  0  0  0  0  0  0  0  0  0
    2.9120   13.3040   -1.1150 C   0  0  0  0  0  0  0  0  0  0  0  0
    0.6690   13.5980    0.1360 C   0  0  2  0  0  0  0  0  0  0  0  0
    0.9980   12.5600    1.2230 C   0  0  0  0  0  0  0  0  0  0  0  0
    1.2090   11.1670    0.7300 C   0  0  0  0  0  0  0  0  0  0  0  0
    0.8620   10.7060   -0.4860 C   0  0  0  0  0  0  0  0  0  0  0  0
    0.0990   11.5950   -1.4770 C   0  0  1  0  0  0  0  0  0  0  0  0
   -1.0800   10.7950   -2.0880 C   0  0  0  0  0  0  0  0  0  0  0  0
   -0.6320    9.4770   -2.7120 C   0  0  0  0  0  0  0  0  0  0  0  0
    0.0700    8.5960   -1.6820 C   0  0  2  0  0  0  0  0  0  0  0  0
   -0.8840    8.1920   -0.6940 O   0  0  0  0  0  0  0  0  0  0  0  0
    1.2710    9.3000   -0.9910 C   0  0  0  0  0  0  0  0  0  0  0  0
    2.4300    9.4670   -2.0050 C   0  0  0  0  0  0  0  0  0  0  0  0
    1.8010    8.3580    0.1230 C   0  0  0  0  0  0  0  0  0  0  0  0
   -0.3470   13.0180   -0.9290 C   0  0  1  0  0  0  0  0  0  0  0  0
   -1.7270   12.9040   -0.2120 C   0  0  0  0  0  0  0  0  0  0  0  0
   -0.5590   13.9940   -2.1470 C   0  0  0  0  0  0  0  0  0  0  0  0
    0.6770   14.7690   -2.6400 C   0  0  0  0  0  0  0  0  0  0  0  0
    1.4060   15.4390   -1.4710 C   0  0  2  0  0  0  0  0  0  0  0  0
    0.4280   16.4840   -0.8330 C   0  0  0  0  0  0  0  0  0  0  0  0
    3.0206   18.3012   -0.4930 H   0  0  0  0  0  0  0  0  0  0  0  0
    4.2483   18.7594   -1.7216 H   0  0  0  0  0  0  0  0  0  0  0  0
    2.6375   19.5544   -1.7216 H   0  0  0  0  0  0  0  0  0  0  0  0
    3.2612   17.5398   -3.3830 H   0  0  0  0  0  0  0  0  0  0  0  0
    1.1433   17.8038   -4.0082 H   0  0  0  0  0  0  0  0  0  0  0  0
    0.5627   17.0072   -2.4687 H   0  0  0  0  0  0  0  0  0  0  0  0
    1.3327   19.5542   -1.6634 H   0  0  0  0  0  0  0  0  0  0  0  0
    0.5182   19.8106   -3.2624 H   0  0  0  0  0  0  0  0  0  0  0  0
   -0.8484   17.9904   -2.2372 H   0  0  0  0  0  0  0  0  0  0  0  0
   -0.2385   20.0251    1.5366 H   0  0  0  0  0  0  0  0  0  0  0  0
    0.9844   19.7778    0.2444 H   0  0  0  0  0  0  0  0  0  0  0  0
   -0.0359   21.2562    0.2444 H   0  0  0  0  0  0  0  0  0  0  0  0
   -2.0172   18.9433    1.4565 H   0  0  0  0  0  0  0  0  0  0  0  0
   -3.1164   19.3695    0.1013 H   0  0  0  0  0  0  0  0  0  0  0  0
   -2.2612   17.7899    0.1013 H   0  0  0  0  0  0  0  0  0  0  0  0
    3.2790   15.6124   -2.5848 H   0  0  0  0  0  0  0  0  0  0  0  0
    4.5161   15.9844   -0.5426 H   0  0  0  0  0  0  0  0  0  0  0  0
    3.3783   17.2318    0.0103 H   0  0  0  0  0  0  0  0  0  0  0  0
    3.5092   14.5507    0.9911 H   0  0  0  0  0  0  0  0  0  0  0  0
    2.1530   15.6395    1.2715 H   0  0  0  0  0  0  0  0  0  0  0  0
    3.4410   12.7682   -0.3131 H   0  0  0  0  0  0  0  0  0  0  0  0
    2.3621   12.5826   -1.7372 H   0  0  0  0  0  0  0  0  0  0  0  0
    3.6404   13.8446   -1.7372 H   0  0  0  0  0  0  0  0  0  0  0  0
    0.1527   14.4196    0.6540 H   0  0  0  0  0  0  0  0  0  0  0  0
    1.9169   12.8826    1.7343 H   0  0  0  0  0  0  0  0  0  0  0  0
    0.1184   12.5200    1.8824 H   0  0  0  0  0  0  0  0  0  0  0  0
    1.6890   10.4567    1.4192 H   0  0  0  0  0  0  0  0  0  0  0  0
    0.8184   11.8591   -2.2661 H   0  0  0  0  0  0  0  0  0  0  0  0
   -1.8089   10.5789   -1.2930 H   0  0  0  0  0  0  0  0  0  0  0  0
   -1.5217   11.4092   -2.8865 H   0  0  0  0  0  0  0  0  0  0  0  0
   -1.5129    8.9448   -3.1002 H   0  0  0  0  0  0  0  0  0  0  0  0
    0.0747    9.6964   -3.5259 H   0  0  0  0  0  0  0  0  0  0  0  0
    0.4809    7.7268   -2.2165 H   0  0  0  0  0  0  0  0  0  0  0  0
   -1.0560    7.2440   -0.8220 H   0  0  0  0  0  0  0  0  0  0  0  0
    3.3763    9.6034   -1.4610 H   0  0  0  0  0  0  0  0  0  0  0  0
    2.4965    8.5692   -2.6370 H   0  0  0  0  0  0  0  0  0  0  0  0
    2.2403   10.3471   -2.6370 H   0  0  0  0  0  0  0  0  0  0  0  0
    1.5612    8.7842    1.1083 H   0  0  0  0  0  0  0  0  0  0  0  0
    1.3259    7.3707    0.0251 H   0  0  0  0  0  0  0  0  0  0  0  0
    2.8914    8.2515    0.0251 H   0  0  0  0  0  0  0  0  0  0  0  0
   -1.5762   12.9165    0.8775 H   0  0  0  0  0  0  0  0  0  0  0  0
   -2.3631   13.7527   -0.5039 H   0  0  0  0  0  0  0  0  0  0  0  0
   -2.2152   11.9625   -0.5039 H   0  0  0  0  0  0  0  0  0  0  0  0
   -0.9352   13.3965   -2.9905 H   0  0  0  0  0  0  0  0  0  0  0  0
   -1.2539   14.7640   -1.7808 H   0  0  0  0  0  0  0  0  0  0  0  0
    1.3641   14.0703   -3.1397 H   0  0  0  0  0  0  0  0  0  0  0  0
    0.3453   15.5497   -3.3404 H   0  0  0  0  0  0  0  0  0  0  0  0
    0.4877   16.4202    0.2635 H   0  0  0  0  0  0  0  0  0  0  0  0
    0.7107   17.4964   -1.1573 H   0  0  0  0  0  0  0  0  0  0  0  0
   -0.6009   16.2690   -1.1573 H   0  0  0  0  0  0  0  0  0  0  0  0
  1  2  1  0
  2  3  1  0
  3  4  1  0
  4  5  1  0
  5  6  1  0
  6  7  1  0
  7  8  1  0
  7  9  1  0
  2 10  1  0
 10 11  1  0
 11 12  1  0
 12 13  1  0
 13 14  1  6
 13 15  1  0
 15 16  1  0
 16 17  1  0
 17 18  2  0
 18 19  1  0
 19 20  1  0
 20 21  1  0
 21 22  1  0
 22 23  1  0
 22 24  1  0
 24 25  1  0
 24 26  1  0
 19 27  1  0
 27 28  1  1
 27 29  1  0
 29 30  1  0
 30 31  1  0
 31 32  1  1
  7  5  1  0
 31 10  1  0
 31 13  1  0
 27 15  1  0
 24 18  1  0
  1 33  1  0
  1 34  1  0
  1 35  1  0
  2 36  1  6
  3 37  1  0
  3 38  1  0
  4 39  1  0
  4 40  1  0
  5 41  1  6
  8 42  1  0
  8 43  1  0
  8 44  1  0
  9 45  1  0
  9 46  1  0
  9 47  1  0
 10 48  1  6
 11 49  1  0
 11 50  1  0
 12 51  1  0
 12 52  1  0
 14 53  1  0
 14 54  1  0
 14 55  1  0
 15 56  1  1
 16 57  1  0
 16 58  1  0
 17 59  1  0
 19 60  1  6
 20 61  1  0
 20 62  1  0
 21 63  1  0
 21 64  1  0
 22 65  1  6
 23 66  1  0
 25 67  1  0
 25 68  1  0
 25 69  1  0
 26 70  1  0
 26 71  1  0
 26 72  1  0
 28 73  1  0
 28 74  1  0
 28 75  1  0
 29 76  1  0
 29 77  1  0
 30 78  1  0
 30 79  1  0
 32 80  1  0
 32 81  1  0
 32 82  1  0
M  END
>  <meeko>  (9) 
{"is_sidechain": [false], "intermolecular_energy": 2.731, "internal_energy": -0.839}

$$$$
EPH_relaxed_0001_pdb2pqr_Repair_155_r2_0001_out
     RDKit          3D

 82 86  0  0  0  0  0  0  0  0999 V2000
   -0.9500   16.3970   -5.9200 C   0  0  0  0  0  0  0  0  0  0  0  0
    0.1740   15.7140   -6.7020 C   0  0  2  0  0  0  0  0  0  0  0  0
   -0.1900   15.5140   -8.1870 C   0  0  0  0  0  0  0  0  0  0  0  0
    0.4680   16.5310   -9.1240 C   0  0  0  0  0  0  0  0  0  0  0  0
    1.8680   16.1310   -9.4810 C   0  0  2  0  0  0  0  0  0  0  0  0
    2.3520   16.6780  -10.7140 O   0  0  0  0  0  0  0  0  0  0  0  0
    2.2100   15.2490  -10.6670 C   0  0  0  0  0  0  0  0  0  0  0  0
    1.1460   14.7130  -11.5730 C   0  0  0  0  0  0  0  0  0  0  0  0
    3.5140   14.5140  -10.6600 C   0  0  0  0  0  0  0  0  0  0  0  0
    0.5110   14.3720   -6.0630 C   0  0  1  0  0  0  0  0  0  0  0  0
    1.7360   13.6860   -6.7240 C   0  0  0  0  0  0  0  0  0  0  0  0
    2.4930   12.9390   -5.5960 C   0  0  0  0  0  0  0  0  0  0  0  0
    1.5110   12.9400   -4.4010 C   0  0  1  0  0  0  0  0  0  0  0  0
    0.5260   11.7650   -4.6900 C   0  0  0  0  0  0  0  0  0  0  0  0
    2.1520   12.8190   -2.9800 C   0  0  2  0  0  0  0  0  0  0  0  0
    2.9210   11.5120   -2.7200 C   0  0  0  0  0  0  0  0  0  0  0  0
    2.1110   10.4000   -2.1410 C   0  0  0  0  0  0  0  0  0  0  0  0
    0.8950   10.5290   -1.5780 C   0  0  0  0  0  0  0  0  0  0  0  0
    0.2550   11.9110   -1.3940 C   0  0  1  0  0  0  0  0  0  0  0  0
   -0.3190   12.0280    0.0420 C   0  0  0  0  0  0  0  0  0  0  0  0
   -1.2780   10.8910    0.3840 C   0  0  0  0  0  0  0  0  0  0  0  0
   -0.5880    9.5370    0.2450 C   0  0  2  0  0  0  0  0  0  0  0  0
    0.4270    9.4310    1.2480 O   0  0  0  0  0  0  0  0  0  0  0  0
    0.0380    9.3090   -1.1590 C   0  0  0  0  0  0  0  0  0  0  0  0
   -1.0870    9.1220   -2.2070 C   0  0  0  0  0  0  0  0  0  0  0  0
    0.8220    7.9690   -1.1210 C   0  0  0  0  0  0  0  0  0  0  0  0
    1.1620   13.1540   -1.7920 C   0  0  1  0  0  0  0  0  0  0  0  0
    2.0480   13.5750   -0.5790 C   0  0  0  0  0  0  0  0  0  0  0  0
    0.2350   14.3850   -2.1140 C   0  0  0  0  0  0  0  0  0  0  0  0
   -0.2690   14.5150   -3.5640 C   0  0  0  0  0  0  0  0  0  0  0  0
    0.8860   14.3730   -4.5600 C   0  0  2  0  0  0  0  0  0  0  0  0
    1.8830   15.5560   -4.3080 C   0  0  0  0  0  0  0  0  0  0  0  0
   -0.7664   16.2854   -4.8412 H   0  0  0  0  0  0  0  0  0  0  0  0
   -0.9794   17.4658   -6.1783 H   0  0  0  0  0  0  0  0  0  0  0  0
   -1.9122   15.9307   -6.1783 H   0  0  0  0  0  0  0  0  0  0  0  0
    1.0525   16.3749   -6.6636 H   0  0  0  0  0  0  0  0  0  0  0  0
    0.1286   14.5057   -8.4900 H   0  0  0  0  0  0  0  0  0  0  0  0
   -1.2777   15.6539   -8.2732 H   0  0  0  0  0  0  0  0  0  0  0  0
   -0.1279   16.6042  -10.0457 H   0  0  0  0  0  0  0  0  0  0  0  0
    0.5100   17.4994   -8.6039 H   0  0  0  0  0  0  0  0  0  0  0  0
    2.1485   16.0802   -8.4186 H   0  0  0  0  0  0  0  0  0  0  0  0
    0.3247   14.2993  -10.9694 H   0  0  0  0  0  0  0  0  0  0  0  0
    0.7616   15.5250  -12.2077 H   0  0  0  0  0  0  0  0  0  0  0  0
    1.5697   13.9208  -12.2077 H   0  0  0  0  0  0  0  0  0  0  0  0
    3.8292   14.3363   -9.6212 H   0  0  0  0  0  0  0  0  0  0  0  0
    3.3945   13.5504  -11.1768 H   0  0  0  0  0  0  0  0  0  0  0  0
    4.2765   15.1152  -11.1768 H   0  0  0  0  0  0  0  0  0  0  0  0
   -0.4474   13.8527   -6.2109 H   0  0  0  0  0  0  0  0  0  0  0  0
    1.4021   12.9733   -7.4925 H   0  0  0  0  0  0  0  0  0  0  0  0
    2.3865   14.4258   -7.2134 H   0  0  0  0  0  0  0  0  0  0  0  0
    2.7302   11.9097   -5.9030 H   0  0  0  0  0  0  0  0  0  0  0  0
    3.4519   13.4179   -5.3487 H   0  0  0  0  0  0  0  0  0  0  0  0
    0.1711   11.3417   -3.7388 H   0  0  0  0  0  0  0  0  0  0  0  0
   -0.3321   12.1395   -5.2675 H   0  0  0  0  0  0  0  0  0  0  0  0
    1.0445   10.9855   -5.2675 H   0  0  0  0  0  0  0  0  0  0  0  0
    2.9121   13.6140   -2.9956 H   0  0  0  0  0  0  0  0  0  0  0  0
    3.3373   11.1663   -3.6777 H   0  0  0  0  0  0  0  0  0  0  0  0
    3.6868   11.7539   -1.9684 H   0  0  0  0  0  0  0  0  0  0  0  0
    2.5443    9.3896   -2.1774 H   0  0  0  0  0  0  0  0  0  0  0  0
   -0.5618   11.9683   -2.1286 H   0  0  0  0  0  0  0  0  0  0  0  0
    0.5161   12.0121    0.7578 H   0  0  0  0  0  0  0  0  0  0  0  0
   -0.8842   12.9699    0.0997 H   0  0  0  0  0  0  0  0  0  0  0  0
   -1.6265   11.0130    1.4202 H   0  0  0  0  0  0  0  0  0  0  0  0
   -2.1278   10.9259   -0.3135 H   0  0  0  0  0  0  0  0  0  0  0  0
   -1.3566    8.7608    0.3747 H   0  0  0  0  0  0  0  0  0  0  0  0
    0.9530   10.2490    1.2210 H   0  0  0  0  0  0  0  0  0  0  0  0
   -2.0456    8.9627   -1.6915 H   0  0  0  0  0  0  0  0  0  0  0  0
   -1.1545   10.0213   -2.8369 H   0  0  0  0  0  0  0  0  0  0  0  0
   -0.8599    8.2493   -2.8369 H   0  0  0  0  0  0  0  0  0  0  0  0
    0.9943    7.6745   -0.0752 H   0  0  0  0  0  0  0  0  0  0  0  0
    0.2383    7.1881   -1.6304 H   0  0  0  0  0  0  0  0  0  0  0  0
    1.7887    8.0952   -1.6304 H   0  0  0  0  0  0  0  0  0  0  0  0
    1.5279   13.3279    0.3582 H   0  0  0  0  0  0  0  0  0  0  0  0
    3.0059   13.0358   -0.6200 H   0  0  0  0  0  0  0  0  0  0  0  0
    2.2350   14.6582   -0.6200 H   0  0  0  0  0  0  0  0  0  0  0  0
   -0.6469   14.3174   -1.4600 H   0  0  0  0  0  0  0  0  0  0  0  0
    0.8654   15.2710   -1.9481 H   0  0  0  0  0  0  0  0  0  0  0  0
   -1.0114   13.7271   -3.7590 H   0  0  0  0  0  0  0  0  0  0  0  0
   -0.7213   15.5097   -3.6905 H   0  0  0  0  0  0  0  0  0  0  0  0
    2.0088   15.7052   -3.2255 H   0  0  0  0  0  0  0  0  0  0  0  0
    2.8567   15.3177   -4.7609 H   0  0  0  0  0  0  0  0  0  0  0  0
    1.4832   16.4753   -4.7609 H   0  0  0  0  0  0  0  0  0  0  0  0
  1  2  1  0
  2  3  1  0
  3  4  1  0
  4  5  1  0
  5  6  1  0
  6  7  1  0
  7  8  1  0
  7  9  1  0
  2 10  1  0
 10 11  1  0
 11 12  1  0
 12 13  1  0
 13 14  1  6
 13 15  1  0
 15 16  1  0
 16 17  1  0
 17 18  2  0
 18 19  1  0
 19 20  1  0
 20 21  1  0
 21 22  1  0
 22 23  1  0
 22 24  1  0
 24 25  1  0
 24 26  1  0
 19 27  1  0
 27 28  1  1
 27 29  1  0
 29 30  1  0
 30 31  1  0
 31 32  1  6
  7  5  1  0
 31 10  1  0
 31 13  1  0
 27 15  1  0
 24 18  1  0
  1 33  1  0
  1 34  1  0
  1 35  1  0
  2 36  1  6
  3 37  1  0
  3 38  1  0
  4 39  1  0
  4 40  1  0
  5 41  1  1
  8 42  1  0
  8 43  1  0
  8 44  1  0
  9 45  1  0
  9 46  1  0
  9 47  1  0
 10 48  1  1
 11 49  1  0
 11 50  1  0
 12 51  1  0
 12 52  1  0
 14 53  1  0
 14 54  1  0
 14 55  1  0
 15 56  1  6
 16 57  1  0
 16 58  1  0
 17 59  1  0
 19 60  1  6
 20 61  1  0
 20 62  1  0
 21 63  1  0
 21 64  1  0
 22 65  1  1
 23 66  1  0
 25 67  1  0
 25 68  1  0
 25 69  1  0
 26 70  1  0
 26 71  1  0
 26 72  1  0
 28 73  1  0
 28 74  1  0
 28 75  1  0
 29 76  1  0
 29 77  1  0
 30 78  1  0
 30 79  1  0
 32 80  1  0
 32 81  1  0
 32 82  1  0
M  END
>  <meeko>  (10) 
{"is_sidechain": [false], "intermolecular_energy": 2.731, "internal_energy": -0.839}

$$$$
EPH_relaxed_0001_pdb2pqr_Repair_155_r2_0001_out
     RDKit          3D

 82 86  0  0  0  0  0  0  0  0999 V2000
   -3.7080    7.2640   -3.4900 C   0  0  0  0  0  0  0  0  0  0  0  0
   -3.6830    7.3120   -1.9600 C   0  0  2  0  0  0  0  0  0  0  0  0
   -5.0740    7.0500   -1.3480 C   0  0  0  0  0  0  0  0  0  0  0  0
   -6.2150    7.1030   -2.3670 C   0  0  0  0  0  0  0  0  0  0  0  0
   -7.5340    7.3730   -1.7090 C   0  0  2  0  0  0  0  0  0  0  0  0
   -8.1730    6.2180   -1.1510 O   0  0  0  0  0  0  0  0  0  0  0  0
   -8.8570    6.8540   -2.2420 C   0  0  0  0  0  0  0  0  0  0  0  0
   -8.9250    6.0230   -3.4850 C   0  0  0  0  0  0  0  0  0  0  0  0
  -10.1160    7.5550   -1.8380 C   0  0  0  0  0  0  0  0  0  0  0  0
   -3.1530    8.6610   -1.4900 C   0  0  1  0  0  0  0  0  0  0  0  0
   -3.7900    9.1200   -0.1520 C   0  0  0  0  0  0  0  0  0  0  0  0
   -2.6880    9.8810    0.6300 C   0  0  0  0  0  0  0  0  0  0  0  0
   -1.5680   10.1230   -0.4090 C   0  0  1  0  0  0  0  0  0  0  0  0
   -2.0350   11.3740   -1.2180 C   0  0  0  0  0  0  0  0  0  0  0  0
   -0.1240   10.3090    0.1610 C   0  0  2  0  0  0  0  0  0  0  0  0
    0.0630   11.5320    1.0750 C   0  0  0  0  0  0  0  0  0  0  0  0
    0.4770   12.7890    0.3830 C   0  0  0  0  0  0  0  0  0  0  0  0
    0.9640   12.8680   -0.8690 C   0  0  0  0  0  0  0  0  0  0  0  0
    1.2340   11.6000   -1.6900 C   0  0  1  0  0  0  0  0  0  0  0  0
    2.6320   11.7020   -2.3550 C   0  0  0  0  0  0  0  0  0  0  0  0
    2.7980   12.9770   -3.1770 C   0  0  0  0  0  0  0  0  0  0  0  0
    2.5790   14.2150   -2.3130 C   0  0  2  0  0  0  0  0  0  0  0  0
    3.6350   14.2980   -1.3500 O   0  0  0  0  0  0  0  0  0  0  0  0
    1.2060   14.2200   -1.5840 C   0  0  0  0  0  0  0  0  0  0  0  0
    0.0700   14.4340   -2.6150 C   0  0  0  0  0  0  0  0  0  0  0  0
    1.1710   15.4500   -0.6380 C   0  0  0  0  0  0  0  0  0  0  0  0
    1.0190   10.2220   -0.9290 C   0  0  1  0  0  0  0  0  0  0  0  0
    2.3240    9.8220   -0.1750 C   0  0  0  0  0  0  0  0  0  0  0  0
    0.7520    9.0870   -1.9870 C   0  0  0  0  0  0  0  0  0  0  0  0
   -0.7100    8.8720   -2.4210 C   0  0  0  0  0  0  0  0  0  0  0  0
   -1.6340    8.7680   -1.2040 C   0  0  2  0  0  0  0  0  0  0  0  0
   -1.2030    7.5050   -0.3830 C   0  0  0  0  0  0  0  0  0  0  0  0
   -4.1928    6.3333   -3.8198 H   0  0  0  0  0  0  0  0  0  0  0  0
   -4.2712    8.1270   -3.8748 H   0  0  0  0  0  0  0  0  0  0  0  0
   -2.6780    7.2972   -3.8748 H   0  0  0  0  0  0  0  0  0  0  0  0
   -3.0140    6.5098   -1.6152 H   0  0  0  0  0  0  0  0  0  0  0  0
   -5.0675    6.0519   -0.8857 H   0  0  0  0  0  0  0  0  0  0  0  0
   -5.2591    7.8504   -0.6165 H   0  0  0  0  0  0  0  0  0  0  0  0
   -6.0081    7.9036   -3.0925 H   0  0  0  0  0  0  0  0  0  0  0  0
   -6.2747    6.1245   -2.8659 H   0  0  0  0  0  0  0  0  0  0  0  0
   -7.2033    8.3773   -1.4058 H   0  0  0  0  0  0  0  0  0  0  0  0
   -9.0119    4.9610   -3.2118 H   0  0  0  0  0  0  0  0  0  0  0  0
   -9.8017    6.3219   -4.0784 H   0  0  0  0  0  0  0  0  0  0  0  0
   -8.0114    6.1754   -4.0784 H   0  0  0  0  0  0  0  0  0  0  0  0
  -10.1799    7.5906   -0.7404 H   0  0  0  0  0  0  0  0  0  0  0  0
  -10.1098    8.5796   -2.2383 H   0  0  0  0  0  0  0  0  0  0  0  0
  -10.9837    7.0101   -2.2383 H   0  0  0  0  0  0  0  0  0  0  0  0
   -3.4154    9.2763   -2.3632 H   0  0  0  0  0  0  0  0  0  0  0  0
   -4.6439    9.7853   -0.3475 H   0  0  0  0  0  0  0  0  0  0  0  0
   -4.1611    8.2598    0.4245 H   0  0  0  0  0  0  0  0  0  0  0  0
   -3.0742   10.8366    1.0142 H   0  0  0  0  0  0  0  0  0  0  0  0
   -2.3312    9.3160    1.5038 H   0  0  0  0  0  0  0  0  0  0  0  0
   -2.3326   12.1712   -0.5210 H   0  0  0  0  0  0  0  0  0  0  0  0
   -1.2093   11.7302   -1.8515 H   0  0  0  0  0  0  0  0  0  0  0  0
   -2.8921   11.1020   -1.8515 H   0  0  0  0  0  0  0  0  0  0  0  0
   -0.0116    9.4293    0.8117 H   0  0  0  0  0  0  0  0  0  0  0  0
   -0.8923   11.7240    1.5854 H   0  0  0  0  0  0  0  0  0  0  0  0
    0.8853   11.2769    1.7597 H   0  0  0  0  0  0  0  0  0  0  0  0
    0.3753   13.7297    0.9441 H   0  0  0  0  0  0  0  0  0  0  0  0
    0.4536   11.5673   -2.4645 H   0  0  0  0  0  0  0  0  0  0  0  0
    3.3991   11.6884   -1.5668 H   0  0  0  0  0  0  0  0  0  0  0  0
    2.7391   10.8475   -3.0394 H   0  0  0  0  0  0  0  0  0  0  0  0
    3.8148   13.0055   -3.5958 H   0  0  0  0  0  0  0  0  0  0  0  0
    2.0499   12.9748   -3.9834 H   0  0  0  0  0  0  0  0  0  0  0  0
    2.5813   15.0880   -2.9823 H   0  0  0  0  0  0  0  0  0  0  0  0
    4.1420   15.1060   -1.5390 H   0  0  0  0  0  0  0  0  0  0  0  0
   -0.8773   14.6124   -2.0851 H   0  0  0  0  0  0  0  0  0  0  0  0
    0.3065   15.3034   -3.2460 H   0  0  0  0  0  0  0  0  0  0  0  0
   -0.0260   13.5381   -3.2460 H   0  0  0  0  0  0  0  0  0  0  0  0
    1.1807   15.1087    0.4077 H   0  0  0  0  0  0  0  0  0  0  0  0
    2.0515   16.0820   -0.8256 H   0  0  0  0  0  0  0  0  0  0  0  0
    0.2560   16.0309   -0.8256 H   0  0  0  0  0  0  0  0  0  0  0  0
    2.1514    9.8749    0.9101 H   0  0  0  0  0  0  0  0  0  0  0  0
    2.6074    8.7957   -0.4516 H   0  0  0  0  0  0  0  0  0  0  0  0
    3.1338   10.5132   -0.4516 H   0  0  0  0  0  0  0  0  0  0  0  0
    1.3346    9.3285   -2.8883 H   0  0  0  0  0  0  0  0  0  0  0  0
    1.0439    8.1522   -1.4861 H   0  0  0  0  0  0  0  0  0  0  0  0
   -1.0291    9.7210   -3.0434 H   0  0  0  0  0  0  0  0  0  0  0  0
   -0.7723    7.9325   -2.9897 H   0  0  0  0  0  0  0  0  0  0  0  0
   -1.2776    7.7237    0.6924 H   0  0  0  0  0  0  0  0  0  0  0  0
   -1.8644    6.6622   -0.6325 H   0  0  0  0  0  0  0  0  0  0  0  0
   -0.1644    7.2424   -0.6325 H   0  0  0  0  0  0  0  0  0  0  0  0
  1  2  1  0
  2  3  1  0
  3  4  1  0
  4  5  1  0
  5  6  1  0
  6  7  1  0
  7  8  1  0
  7  9  1  0
  2 10  1  0
 10 11  1  0
 11 12  1  0
 12 13  1  0
 13 14  1  6
 13 15  1  0
 15 16  1  0
 16 17  1  0
 17 18  2  0
 18 19  1  0
 19 20  1  0
 20 21  1  0
 21 22  1  0
 22 23  1  0
 22 24  1  0
 24 25  1  0
 24 26  1  0
 19 27  1  0
 27 28  1  1
 27 29  1  0
 29 30  1  0
 30 31  1  0
 31 32  1  1
  7  5  1  0
 31 10  1  0
 31 13  1  0
 27 15  1  0
 24 18  1  0
  1 33  1  0
  1 34  1  0
  1 35  1  0
  2 36  1  1
  3 37  1  0
  3 38  1  0
  4 39  1  0
  4 40  1  0
  5 41  1  1
  8 42  1  0
  8 43  1  0
  8 44  1  0
  9 45  1  0
  9 46  1  0
  9 47  1  0
 10 48  1  6
 11 49  1  0
 11 50  1  0
 12 51  1  0
 12 52  1  0
 14 53  1  0
 14 54  1  0
 14 55  1  0
 15 56  1  1
 16 57  1  0
 16 58  1  0
 17 59  1  0
 19 60  1  6
 20 61  1  0
 20 62  1  0
 21 63  1  0
 21 64  1  0
 22 65  1  6
 23 66  1  0
 25 67  1  0
 25 68  1  0
 25 69  1  0
 26 70  1  0
 26 71  1  0
 26 72  1  0
 28 73  1  0
 28 74  1  0
 28 75  1  0
 29 76  1  0
 29 77  1  0
 30 78  1  0
 30 79  1  0
 32 80  1  0
 32 81  1  0
 32 82  1  0
M  END
>  <meeko>  (11) 
{"is_sidechain": [false], "intermolecular_energy": 2.731, "internal_energy": -0.839}

$$$$
EPH_relaxed_0001_pdb2pqr_Repair_155_r2_0001_out
     RDKit          3D

 82 86  0  0  0  0  0  0  0  0999 V2000
   -2.1020    7.8410   -2.0150 C   0  0  0  0  0  0  0  0  0  0  0  0
   -2.1870    8.5210   -0.6450 C   0  0  2  0  0  0  0  0  0  0  0  0
   -3.6270    8.5380   -0.0940 C   0  0  0  0  0  0  0  0  0  0  0  0
   -4.7010    8.6510   -1.1790 C   0  0  0  0  0  0  0  0  0  0  0  0
   -5.8170    7.6750   -0.9580 C   0  0  2  0  0  0  0  0  0  0  0  0
   -5.4080    6.3040   -0.8840 O   0  0  0  0  0  0  0  0  0  0  0  0
   -6.2530    6.6540   -1.9920 C   0  0  0  0  0  0  0  0  0  0  0  0
   -5.5800    6.5570   -3.3250 C   0  0  0  0  0  0  0  0  0  0  0  0
   -7.6350    6.0870   -1.8990 C   0  0  0  0  0  0  0  0  0  0  0  0
   -1.6480    9.9430   -0.7370 C   0  0  1  0  0  0  0  0  0  0  0  0
   -1.1760   10.4930    0.6350 C   0  0  0  0  0  0  0  0  0  0  0  0
    0.0500   11.4010    0.3560 C   0  0  0  0  0  0  0  0  0  0  0  0
    0.0390   11.6100   -1.1760 C   0  0  1  0  0  0  0  0  0  0  0  0
   -1.0110   12.7380   -1.4200 C   0  0  0  0  0  0  0  0  0  0  0  0
    1.4150   11.9490   -1.8370 C   0  0  2  0  0  0  0  0  0  0  0  0
    2.0550   13.2690   -1.3710 C   0  0  0  0  0  0  0  0  0  0  0  0
    1.6890   14.4730   -2.1740 C   0  0  0  0  0  0  0  0  0  0  0  0
    1.1130   14.4570   -3.3900 C   0  0  0  0  0  0  0  0  0  0  0  0
    0.8580   13.1340   -4.1230 C   0  0  1  0  0  0  0  0  0  0  0  0
    1.3240   13.2600   -5.5980 C   0  0  0  0  0  0  0  0  0  0  0  0
    0.6940   14.4530   -6.3100 C   0  0  0  0  0  0  0  0  0  0  0  0
    1.0180   15.7560   -5.5840 C   0  0  2  0  0  0  0  0  0  0  0  0
    2.4230   16.0060   -5.6910 O   0  0  0  0  0  0  0  0  0  0  0  0
    0.6020   15.7420   -4.0860 C   0  0  0  0  0  0  0  0  0  0  0  0
   -0.9420   15.7750   -3.9740 C   0  0  0  0  0  0  0  0  0  0  0  0
    1.1120   17.0580   -3.4370 C   0  0  0  0  0  0  0  0  0  0  0  0
    1.4240   11.8280   -3.4150 C   0  0  1  0  0  0  0  0  0  0  0  0
    2.9070   11.5950   -3.8350 C   0  0  0  0  0  0  0  0  0  0  0  0
    0.6160   10.5760   -3.9230 C   0  0  0  0  0  0  0  0  0  0  0  0
   -0.6720   10.2210   -3.1550 C   0  0  0  0  0  0  0  0  0  0  0  0
   -0.4150   10.1800   -1.6450 C   0  0  2  0  0  0  0  0  0  0  0  0
    0.6210    9.0380   -1.3670 C   0  0  0  0  0  0  0  0  0  0  0  0
   -1.9666    6.7579   -1.8790 H   0  0  0  0  0  0  0  0  0  0  0  0
   -3.0304    8.0270   -2.5749 H   0  0  0  0  0  0  0  0  0  0  0  0
   -1.2480    8.2498   -2.5749 H   0  0  0  0  0  0  0  0  0  0  0  0
   -1.5727    7.9350    0.0545 H   0  0  0  0  0  0  0  0  0  0  0  0
   -3.7956    7.6060    0.4654 H   0  0  0  0  0  0  0  0  0  0  0  0
   -3.7171    9.4316    0.5411 H   0  0  0  0  0  0  0  0  0  0  0  0
   -5.1123    9.6712   -1.1686 H   0  0  0  0  0  0  0  0  0  0  0  0
   -4.2340    8.4242   -2.1488 H   0  0  0  0  0  0  0  0  0  0  0  0
   -6.3789    8.4156   -0.3699 H   0  0  0  0  0  0  0  0  0  0  0  0
   -4.5007    6.4014   -3.1804 H   0  0  0  0  0  0  0  0  0  0  0  0
   -6.0004    5.7102   -3.8873 H   0  0  0  0  0  0  0  0  0  0  0  0
   -5.7442    7.4881   -3.8873 H   0  0  0  0  0  0  0  0  0  0  0  0
   -7.9139    5.9726   -0.8411 H   0  0  0  0  0  0  0  0  0  0  0  0
   -8.3443    6.7668   -2.3938 H   0  0  0  0  0  0  0  0  0  0  0  0
   -7.6625    5.1049   -2.3938 H   0  0  0  0  0  0  0  0  0  0  0  0
   -2.5296   10.4463   -1.1607 H   0  0  0  0  0  0  0  0  0  0  0  0
   -1.9805   11.0771    1.1059 H   0  0  0  0  0  0  0  0  0  0  0  0
   -0.9124    9.6731    1.3193 H   0  0  0  0  0  0  0  0  0  0  0  0
   -0.0517   12.3628    0.8800 H   0  0  0  0  0  0  0  0  0  0  0  0
    0.9904   10.9529    0.7095 H   0  0  0  0  0  0  0  0  0  0  0  0
   -1.3683   13.1218   -0.4530 H   0  0  0  0  0  0  0  0  0  0  0  0
   -0.5451   13.5557   -1.9895 H   0  0  0  0  0  0  0  0  0  0  0  0
   -1.8599   12.3318   -1.9895 H   0  0  0  0  0  0  0  0  0  0  0  0
    2.0648   11.1492   -1.4521 H   0  0  0  0  0  0  0  0  0  0  0  0
    1.7464   13.4477   -0.3304 H   0  0  0  0  0  0  0  0  0  0  0  0
    3.1407   13.1405   -1.4924 H   0  0  0  0  0  0  0  0  0  0  0  0
    1.9089   15.4570   -1.7343 H   0  0  0  0  0  0  0  0  0  0  0  0
   -0.2295   12.9724   -4.0871 H   0  0  0  0  0  0  0  0  0  0  0  0
    2.4176   13.3772   -5.6136 H   0  0  0  0  0  0  0  0  0  0  0  0
    1.0071   12.3494   -6.1275 H   0  0  0  0  0  0  0  0  0  0  0  0
    1.0846   14.5065   -7.3369 H   0  0  0  0  0  0  0  0  0  0  0  0
   -0.3978   14.3191   -6.3198 H   0  0  0  0  0  0  0  0  0  0  0  0
    0.4347   16.5555   -6.0641 H   0  0  0  0  0  0  0  0  0  0  0  0
    2.7530   15.5070   -6.4570 H   0  0  0  0  0  0  0  0  0  0  0  0
   -1.2326   15.7812   -2.9131 H   0  0  0  0  0  0  0  0  0  0  0  0
   -1.3259   16.6816   -4.4647 H   0  0  0  0  0  0  0  0  0  0  0  0
   -1.3643   14.8857   -4.4647 H   0  0  0  0  0  0  0  0  0  0  0  0
    1.0758   16.9646   -2.3416 H   0  0  0  0  0  0  0  0  0  0  0  0
    2.1481   17.2461   -3.7549 H   0  0  0  0  0  0  0  0  0  0  0  0
    0.4732   17.8952   -3.7549 H   0  0  0  0  0  0  0  0  0  0  0  0
    3.5319   11.4968   -2.9351 H   0  0  0  0  0  0  0  0  0  0  0  0
    2.9784   10.6746   -4.4332 H   0  0  0  0  0  0  0  0  0  0  0  0
    3.2572   12.4491   -4.4332 H   0  0  0  0  0  0  0  0  0  0  0  0
    0.3378   10.7624   -4.9708 H   0  0  0  0  0  0  0  0  0  0  0  0
    1.2878    9.7186   -3.7695 H   0  0  0  0  0  0  0  0  0  0  0  0
   -1.4395   10.9793   -3.3692 H   0  0  0  0  0  0  0  0  0  0  0  0
   -1.0124    9.2269   -3.4805 H   0  0  0  0  0  0  0  0  0  0  0  0
    0.7398    8.9070   -0.2813 H   0  0  0  0  0  0  0  0  0  0  0  0
    0.2601    8.0991   -1.8123 H   0  0  0  0  0  0  0  0  0  0  0  0
    1.5905    9.3061   -1.8123 H   0  0  0  0  0  0  0  0  0  0  0  0
  1  2  1  0
  2  3  1  0
  3  4  1  0
  4  5  1  0
  5  6  1  0
  6  7  1  0
  7  8  1  0
  7  9  1  0
  2 10  1  0
 10 11  1  0
 11 12  1  0
 12 13  1  0
 13 14  1  1
 13 15  1  0
 15 16  1  0
 16 17  1  0
 17 18  2  0
 18 19  1  0
 19 20  1  0
 20 21  1  0
 21 22  1  0
 22 23  1  0
 22 24  1  0
 24 25  1  0
 24 26  1  0
 19 27  1  0
 27 28  1  6
 27 29  1  0
 29 30  1  0
 30 31  1  0
 31 32  1  6
  7  5  1  0
 31 10  1  0
 31 13  1  0
 27 15  1  0
 24 18  1  0
  1 33  1  0
  1 34  1  0
  1 35  1  0
  2 36  1  1
  3 37  1  0
  3 38  1  0
  4 39  1  0
  4 40  1  0
  5 41  1  1
  8 42  1  0
  8 43  1  0
  8 44  1  0
  9 45  1  0
  9 46  1  0
  9 47  1  0
 10 48  1  6
 11 49  1  0
 11 50  1  0
 12 51  1  0
 12 52  1  0
 14 53  1  0
 14 54  1  0
 14 55  1  0
 15 56  1  1
 16 57  1  0
 16 58  1  0
 17 59  1  0
 19 60  1  6
 20 61  1  0
 20 62  1  0
 21 63  1  0
 21 64  1  0
 22 65  1  6
 23 66  1  0
 25 67  1  0
 25 68  1  0
 25 69  1  0
 26 70  1  0
 26 71  1  0
 26 72  1  0
 28 73  1  0
 28 74  1  0
 28 75  1  0
 29 76  1  0
 29 77  1  0
 30 78  1  0
 30 79  1  0
 32 80  1  0
 32 81  1  0
 32 82  1  0
M  END
>  <meeko>  (12) 
{"is_sidechain": [false], "intermolecular_energy": 2.731, "internal_energy": -0.839}

$$$$
EPH_relaxed_0001_pdb2pqr_Repair_155_r2_0001_out
     RDKit          3D

 82 86  0  0  0  0  0  0  0  0999 V2000
    1.5970   10.8250   -4.7320 C   0  0  0  0  0  0  0  0  0  0  0  0
    0.8370   10.6200   -3.4190 C   0  0  2  0  0  0  0  0  0  0  0  0
   -0.2980    9.5860   -3.5610 C   0  0  0  0  0  0  0  0  0  0  0  0
   -0.2170    8.4420   -2.5460 C   0  0  0  0  0  0  0  0  0  0  0  0
    0.1700    8.9350   -1.1850 C   0  0  2  0  0  0  0  0  0  0  0  0
   -0.1940    8.0630   -0.1060 O   0  0  0  0  0  0  0  0  0  0  0  0
   -0.8360    9.3490   -0.1270 C   0  0  0  0  0  0  0  0  0  0  0  0
   -2.3090    9.2900   -0.3860 C   0  0  0  0  0  0  0  0  0  0  0  0
   -0.3860   10.2650    0.9680 C   0  0  0  0  0  0  0  0  0  0  0  0
    0.2710   11.9500   -2.9330 C   0  0  1  0  0  0  0  0  0  0  0  0
   -1.0490   11.7810   -2.1350 C   0  0  0  0  0  0  0  0  0  0  0  0
   -1.0440   12.8670   -1.0280 C   0  0  0  0  0  0  0  0  0  0  0  0
    0.1030   13.8250   -1.4260 C   0  0  1  0  0  0  0  0  0  0  0  0
   -0.5140   14.7590   -2.5140 C   0  0  0  0  0  0  0  0  0  0  0  0
    0.7540   14.6440   -0.2640 C   0  0  2  0  0  0  0  0  0  0  0  0
   -0.1940   15.6150    0.4610 C   0  0  0  0  0  0  0  0  0  0  0  0
   -0.2480   16.9950   -0.1060 C   0  0  0  0  0  0  0  0  0  0  0  0
    0.6400   17.5210   -0.9700 C   0  0  0  0  0  0  0  0  0  0  0  0
    1.8900   16.7370   -1.3890 C   0  0  1  0  0  0  0  0  0  0  0  0
    3.1320   17.6630   -1.3100 C   0  0  0  0  0  0  0  0  0  0  0  0
    2.9550   18.9500   -2.1110 C   0  0  0  0  0  0  0  0  0  0  0  0
    1.7350   19.7300   -1.6260 C   0  0  2  0  0  0  0  0  0  0  0  0
    1.9840   20.1940   -0.2950 O   0  0  0  0  0  0  0  0  0  0  0  0
    0.4240   18.8950   -1.6510 C   0  0  0  0  0  0  0  0  0  0  0  0
   -0.0080   18.6480   -3.1170 C   0  0  0  0  0  0  0  0  0  0  0  0
   -0.6990   19.7510   -1.0060 C   0  0  0  0  0  0  0  0  0  0  0  0
    2.1170   15.3480   -0.6520 C   0  0  1  0  0  0  0  0  0  0  0  0
    2.8960   15.5730    0.6800 C   0  0  0  0  0  0  0  0  0  0  0  0
    3.0290   14.4320   -1.5510 C   0  0  0  0  0  0  0  0  0  0  0  0
    2.3160   13.5570   -2.6000 C   0  0  0  0  0  0  0  0  0  0  0  0
    1.1510   12.7870   -1.9710 C   0  0  2  0  0  0  0  0  0  0  0  0
    1.7430   11.8230   -0.8880 C   0  0  0  0  0  0  0  0  0  0  0  0
    2.6378   11.1057   -4.5132 H   0  0  0  0  0  0  0  0  0  0  0  0
    1.5835    9.8911   -5.3131 H   0  0  0  0  0  0  0  0  0  0  0  0
    1.1157   11.6254   -5.3131 H   0  0  0  0  0  0  0  0  0  0  0  0
    1.5517   10.2275   -2.6806 H   0  0  0  0  0  0  0  0  0  0  0  0
   -1.2589   10.1038   -3.4251 H   0  0  0  0  0  0  0  0  0  0  0  0
   -0.2017    9.1372   -4.5606 H   0  0  0  0  0  0  0  0  0  0  0  0
   -1.1999    7.9523   -2.4816 H   0  0  0  0  0  0  0  0  0  0  0  0
    0.5540    7.7352   -2.8867 H   0  0  0  0  0  0  0  0  0  0  0  0
    1.0588    9.4374   -1.5944 H   0  0  0  0  0  0  0  0  0  0  0  0
   -2.8492    9.2684    0.5720 H   0  0  0  0  0  0  0  0  0  0  0  0
   -2.6161   10.1766   -0.9602 H   0  0  0  0  0  0  0  0  0  0  0  0
   -2.5442    8.3817   -0.9602 H   0  0  0  0  0  0  0  0  0  0  0  0
   -0.6103    9.8084    1.9433 H   0  0  0  0  0  0  0  0  0  0  0  0
    0.6976   10.4338    0.8827 H   0  0  0  0  0  0  0  0  0  0  0  0
   -0.9146   11.2259    0.8827 H   0  0  0  0  0  0  0  0  0  0  0  0
    0.1666   12.4702   -3.8966 H   0  0  0  0  0  0  0  0  0  0  0  0
   -1.9142   11.9214   -2.7996 H   0  0  0  0  0  0  0  0  0  0  0  0
   -1.1215   10.7734   -1.6998 H   0  0  0  0  0  0  0  0  0  0  0  0
   -2.0053   13.4012   -1.0038 H   0  0  0  0  0  0  0  0  0  0  0  0
   -0.9008   12.4392   -0.0248 H   0  0  0  0  0  0  0  0  0  0  0  0
   -1.0573   15.5815   -2.0259 H   0  0  0  0  0  0  0  0  0  0  0  0
    0.2897   15.1719   -3.1414 H   0  0  0  0  0  0  0  0  0  0  0  0
   -1.2091   14.1818   -3.1414 H   0  0  0  0  0  0  0  0  0  0  0  0
    0.9967   13.8609    0.4694 H   0  0  0  0  0  0  0  0  0  0  0  0
   -1.2086   15.1917    0.4228 H   0  0  0  0  0  0  0  0  0  0  0  0
    0.2008   15.7205    1.4823 H   0  0  0  0  0  0  0  0  0  0  0  0
   -1.0844   17.6363    0.2090 H   0  0  0  0  0  0  0  0  0  0  0  0
    1.7200   16.4279   -2.4309 H   0  0  0  0  0  0  0  0  0  0  0  0
    3.3099   17.9251   -0.2566 H   0  0  0  0  0  0  0  0  0  0  0  0
    3.9837   17.1163   -1.7409 H   0  0  0  0  0  0  0  0  0  0  0  0
    3.8526   19.5747   -1.9919 H   0  0  0  0  0  0  0  0  0  0  0  0
    2.8069   18.6880   -3.1690 H   0  0  0  0  0  0  0  0  0  0  0  0
    1.5845   20.5710   -2.3188 H   0  0  0  0  0  0  0  0  0  0  0  0
    2.0930   21.1600   -0.3360 H   0  0  0  0  0  0  0  0  0  0  0  0
   -0.9629   18.1021   -3.1309 H   0  0  0  0  0  0  0  0  0  0  0  0
   -0.1298   19.6129   -3.6309 H   0  0  0  0  0  0  0  0  0  0  0  0
    0.7618   18.0535   -3.6309 H   0  0  0  0  0  0  0  0  0  0  0  0
   -0.6215   19.6920    0.0897 H   0  0  0  0  0  0  0  0  0  0  0  0
   -0.5911   20.7981   -1.3253 H   0  0  0  0  0  0  0  0  0  0  0  0
   -1.6801   19.3695   -1.3253 H   0  0  0  0  0  0  0  0  0  0  0  0
    2.2281   15.3801    1.5325 H   0  0  0  0  0  0  0  0  0  0  0  0
    3.7539   14.8859    0.7236 H   0  0  0  0  0  0  0  0  0  0  0  0
    3.2555   16.6117    0.7236 H   0  0  0  0  0  0  0  0  0  0  0  0
    3.7328   15.0862   -2.0864 H   0  0  0  0  0  0  0  0  0  0  0  0
    3.4984   13.7215   -0.8547 H   0  0  0  0  0  0  0  0  0  0  0  0
    1.9295   14.2014   -3.4034 H   0  0  0  0  0  0  0  0  0  0  0  0
    3.0391   12.8322   -3.0022 H   0  0  0  0  0  0  0  0  0  0  0  0
    1.5063   12.2084    0.1147 H   0  0  0  0  0  0  0  0  0  0  0  0
    1.3039   10.8217   -1.0090 H   0  0  0  0  0  0  0  0  0  0  0  0
    2.8346   11.7617   -1.0090 H   0  0  0  0  0  0  0  0  0  0  0  0
  1  2  1  0
  2  3  1  0
  3  4  1  0
  4  5  1  0
  5  6  1  0
  6  7  1  0
  7  8  1  0
  7  9  1  0
  2 10  1  0
 10 11  1  0
 11 12  1  0
 12 13  1  0
 13 14  1  6
 13 15  1  0
 15 16  1  0
 16 17  1  0
 17 18  2  0
 18 19  1  0
 19 20  1  0
 20 21  1  0
 21 22  1  0
 22 23  1  0
 22 24  1  0
 24 25  1  0
 24 26  1  0
 19 27  1  0
 27 28  1  1
 27 29  1  0
 29 30  1  0
 30 31  1  0
 31 32  1  1
  7  5  1  0
 31 10  1  0
 31 13  1  0
 27 15  1  0
 24 18  1  0
  1 33  1  0
  1 34  1  0
  1 35  1  0
  2 36  1  1
  3 37  1  0
  3 38  1  0
  4 39  1  0
  4 40  1  0
  5 41  1  6
  8 42  1  0
  8 43  1  0
  8 44  1  0
  9 45  1  0
  9 46  1  0
  9 47  1  0
 10 48  1  6
 11 49  1  0
 11 50  1  0
 12 51  1  0
 12 52  1  0
 14 53  1  0
 14 54  1  0
 14 55  1  0
 15 56  1  1
 16 57  1  0
 16 58  1  0
 17 59  1  0
 19 60  1  6
 20 61  1  0
 20 62  1  0
 21 63  1  0
 21 64  1  0
 22 65  1  6
 23 66  1  0
 25 67  1  0
 25 68  1  0
 25 69  1  0
 26 70  1  0
 26 71  1  0
 26 72  1  0
 28 73  1  0
 28 74  1  0
 28 75  1  0
 29 76  1  0
 29 77  1  0
 30 78  1  0
 30 79  1  0
 32 80  1  0
 32 81  1  0
 32 82  1  0
M  END
>  <meeko>  (13) 
{"is_sidechain": [false], "intermolecular_energy": 2.731, "internal_energy": -0.839}

$$$$
EPH_relaxed_0001_pdb2pqr_Repair_155_r2_0001_out
     RDKit          3D

 82 86  0  0  0  0  0  0  0  0999 V2000
   -0.0080    9.3120   -4.1840 C   0  0  0  0  0  0  0  0  0  0  0  0
    0.1200    9.5120   -2.6720 C   0  0  2  0  0  0  0  0  0  0  0  0
   -0.7050    8.4810   -1.8770 C   0  0  0  0  0  0  0  0  0  0  0  0
   -2.2130    8.5790   -2.1210 C   0  0  0  0  0  0  0  0  0  0  0  0
   -2.7660    7.3100   -2.6940 C   0  0  2  0  0  0  0  0  0  0  0  0
   -3.8220    7.4930   -3.6460 O   0  0  0  0  0  0  0  0  0  0  0  0
   -4.1770    6.8170   -2.4290 C   0  0  0  0  0  0  0  0  0  0  0  0
   -5.1210    7.5860   -1.5580 C   0  0  0  0  0  0  0  0  0  0  0  0
   -4.4720    5.3610   -2.6120 C   0  0  0  0  0  0  0  0  0  0  0  0
   -0.3110   10.9250   -2.2960 C   0  0  1  0  0  0  0  0  0  0  0  0
   -1.5160   10.9420   -1.3180 C   0  0  0  0  0  0  0  0  0  0  0  0
   -1.3090   12.1540   -0.3740 C   0  0  0  0  0  0  0  0  0  0  0  0
   -0.1850   12.9810   -1.0420 C   0  0  1  0  0  0  0  0  0  0  0  0
   -0.9030   13.8080   -2.1540 C   0  0  0  0  0  0  0  0  0  0  0  0
    0.6560   13.8960   -0.0940 C   0  0  2  0  0  0  0  0  0  0  0  0
   -0.1380   15.0080    0.6130 C   0  0  0  0  0  0  0  0  0  0  0  0
   -0.2060   16.3070   -0.1190 C   0  0  0  0  0  0  0  0  0  0  0  0
    0.5780   16.6640   -1.1540 C   0  0  0  0  0  0  0  0  0  0  0  0
    1.7210   15.7570   -1.6250 C   0  0  1  0  0  0  0  0  0  0  0  0
    3.0030   16.6050   -1.8330 C   0  0  0  0  0  0  0  0  0  0  0  0
    2.7760   17.7900   -2.7670 C   0  0  0  0  0  0  0  0  0  0  0  0
    1.6720   18.7000   -2.2340 C   0  0  2  0  0  0  0  0  0  0  0  0
    2.1230   19.3110   -1.0210 O   0  0  0  0  0  0  0  0  0  0  0  0
    0.3330   17.9530   -1.9770 C   0  0  0  0  0  0  0  0  0  0  0  0
   -0.3070   17.5520   -3.3290 C   0  0  0  0  0  0  0  0  0  0  0  0
   -0.6510   18.9520   -1.3100 C   0  0  0  0  0  0  0  0  0  0  0  0
    1.9840   14.4590   -0.7460 C   0  0  1  0  0  0  0  0  0  0  0  0
    2.9490   14.8000    0.4300 C   0  0  0  0  0  0  0  0  0  0  0  0
    2.7210   13.3820   -1.6270 C   0  0  0  0  0  0  0  0  0  0  0  0
    1.8310   12.4300   -2.4490 C   0  0  0  0  0  0  0  0  0  0  0  0
    0.7300   11.8200   -1.5770 C   0  0  2  0  0  0  0  0  0  0  0  0
    1.4210   10.9630   -0.4620 C   0  0  0  0  0  0  0  0  0  0  0  0
   -0.5909    8.4012   -4.3853 H   0  0  0  0  0  0  0  0  0  0  0  0
   -0.5190   10.1797   -4.6267 H   0  0  0  0  0  0  0  0  0  0  0  0
    0.9940    9.2114   -4.6267 H   0  0  0  0  0  0  0  0  0  0  0  0
    1.1773    9.3627   -2.4077 H   0  0  0  0  0  0  0  0  0  0  0  0
   -0.3715    7.4731   -2.1649 H   0  0  0  0  0  0  0  0  0  0  0  0
   -0.5380    8.6898   -0.8100 H   0  0  0  0  0  0  0  0  0  0  0  0
   -2.7159    8.7872   -1.1651 H   0  0  0  0  0  0  0  0  0  0  0  0
   -2.3910    9.3879   -2.8449 H   0  0  0  0  0  0  0  0  0  0  0  0
   -1.7852    6.8186   -2.6130 H   0  0  0  0  0  0  0  0  0  0  0  0
   -4.8844    7.3933   -0.5012 H   0  0  0  0  0  0  0  0  0  0  0  0
   -5.0189    8.6612   -1.7664 H   0  0  0  0  0  0  0  0  0  0  0  0
   -6.1534    7.2686   -1.7664 H   0  0  0  0  0  0  0  0  0  0  0  0
   -4.5694    4.8801   -1.6275 H   0  0  0  0  0  0  0  0  0  0  0  0
   -5.4119    5.2448   -3.1715 H   0  0  0  0  0  0  0  0  0  0  0  0
   -3.6514    4.8881   -3.1715 H   0  0  0  0  0  0  0  0  0  0  0  0
   -0.5217   11.3255   -3.2986 H   0  0  0  0  0  0  0  0  0  0  0  0
   -2.4564   11.0540   -1.8776 H   0  0  0  0  0  0  0  0  0  0  0  0
   -1.5752   10.0031   -0.7480 H   0  0  0  0  0  0  0  0  0  0  0  0
   -2.2323   12.7466   -0.2945 H   0  0  0  0  0  0  0  0  0  0  0  0
   -1.0486   11.8461    0.6494 H   0  0  0  0  0  0  0  0  0  0  0  0
   -1.5561   14.5602   -1.6875 H   0  0  0  0  0  0  0  0  0  0  0  0
   -0.1513   14.3121   -2.7791 H   0  0  0  0  0  0  0  0  0  0  0  0
   -1.5077   13.1345   -2.7791 H   0  0  0  0  0  0  0  0  0  0  0  0
    0.9611   13.1968    0.6984 H   0  0  0  0  0  0  0  0  0  0  0  0
   -1.1666   14.6483    0.7632 H   0  0  0  0  0  0  0  0  0  0  0  0
    0.3978   15.2151    1.5511 H   0  0  0  0  0  0  0  0  0  0  0  0
   -0.9605   17.0343    0.2153 H   0  0  0  0  0  0  0  0  0  0  0  0
    1.3949   15.3315   -2.5855 H   0  0  0  0  0  0  0  0  0  0  0  0
    3.3367   16.9849   -0.8561 H   0  0  0  0  0  0  0  0  0  0  0  0
    3.7611   15.9559   -2.2956 H   0  0  0  0  0  0  0  0  0  0  0  0
    3.7090   18.3666   -2.8506 H   0  0  0  0  0  0  0  0  0  0  0  0
    2.4712   17.4076   -3.7523 H   0  0  0  0  0  0  0  0  0  0  0  0
    1.4661   19.4558   -3.0063 H   0  0  0  0  0  0  0  0  0  0  0  0
    1.6880   20.1770   -0.9490 H   0  0  0  0  0  0  0  0  0  0  0  0
   -1.2258   16.9763   -3.1433 H   0  0  0  0  0  0  0  0  0  0  0  0
   -0.5518   18.4585   -3.9020 H   0  0  0  0  0  0  0  0  0  0  0  0
    0.4020   16.9363   -3.9020 H   0  0  0  0  0  0  0  0  0  0  0  0
   -0.5707   18.8705   -0.2160 H   0  0  0  0  0  0  0  0  0  0  0  0
   -0.3998   19.9769   -1.6208 H   0  0  0  0  0  0  0  0  0  0  0  0
   -1.6795   18.7163   -1.6208 H   0  0  0  0  0  0  0  0  0  0  0  0
    2.4383   14.6196    1.3874 H   0  0  0  0  0  0  0  0  0  0  0  0
    3.8440   14.1637    0.3662 H   0  0  0  0  0  0  0  0  0  0  0  0
    3.2455   15.8574    0.3662 H   0  0  0  0  0  0  0  0  0  0  0  0
    3.3739   13.9183   -2.3313 H   0  0  0  0  0  0  0  0  0  0  0  0
    3.2487   12.7357   -0.9101 H   0  0  0  0  0  0  0  0  0  0  0  0
    1.3674   12.9923   -3.2730 H   0  0  0  0  0  0  0  0  0  0  0  0
    2.4577   11.6164   -2.8431 H   0  0  0  0  0  0  0  0  0  0  0  0
    1.1195   11.3370    0.5276 H   0  0  0  0  0  0  0  0  0  0  0  0
    1.1151    9.9115   -0.5654 H   0  0  0  0  0  0  0  0  0  0  0  0
    2.5135   11.0390   -0.5654 H   0  0  0  0  0  0  0  0  0  0  0  0
  1  2  1  0
  2  3  1  0
  3  4  1  0
  4  5  1  0
  5  6  1  0
  6  7  1  0
  7  8  1  0
  7  9  1  0
  2 10  1  0
 10 11  1  0
 11 12  1  0
 12 13  1  0
 13 14  1  6
 13 15  1  0
 15 16  1  0
 16 17  1  0
 17 18  2  0
 18 19  1  0
 19 20  1  0
 20 21  1  0
 21 22  1  0
 22 23  1  0
 22 24  1  0
 24 25  1  0
 24 26  1  0
 19 27  1  0
 27 28  1  1
 27 29  1  0
 29 30  1  0
 30 31  1  0
 31 32  1  1
  7  5  1  0
 31 10  1  0
 31 13  1  0
 27 15  1  0
 24 18  1  0
  1 33  1  0
  1 34  1  0
  1 35  1  0
  2 36  1  1
  3 37  1  0
  3 38  1  0
  4 39  1  0
  4 40  1  0
  5 41  1  6
  8 42  1  0
  8 43  1  0
  8 44  1  0
  9 45  1  0
  9 46  1  0
  9 47  1  0
 10 48  1  6
 11 49  1  0
 11 50  1  0
 12 51  1  0
 12 52  1  0
 14 53  1  0
 14 54  1  0
 14 55  1  0
 15 56  1  1
 16 57  1  0
 16 58  1  0
 17 59  1  0
 19 60  1  6
 20 61  1  0
 20 62  1  0
 21 63  1  0
 21 64  1  0
 22 65  1  6
 23 66  1  0
 25 67  1  0
 25 68  1  0
 25 69  1  0
 26 70  1  0
 26 71  1  0
 26 72  1  0
 28 73  1  0
 28 74  1  0
 28 75  1  0
 29 76  1  0
 29 77  1  0
 30 78  1  0
 30 79  1  0
 32 80  1  0
 32 81  1  0
 32 82  1  0
M  END
>  <meeko>  (14) 
{"is_sidechain": [false], "intermolecular_energy": 2.731, "internal_energy": -0.839}

$$$$
EPH_relaxed_0001_pdb2pqr_Repair_155_r2_0001_out
     RDKit          3D

 82 86  0  0  0  0  0  0  0  0999 V2000
    1.0100   14.9460   -2.7080 C   0  0  0  0  0  0  0  0  0  0  0  0
    1.2170   14.2730   -4.0680 C   0  0  2  0  0  0  0  0  0  0  0  0
    0.4620   15.0020   -5.1980 C   0  0  0  0  0  0  0  0  0  0  0  0
    0.9260   14.6080   -6.6020 C   0  0  0  0  0  0  0  0  0  0  0  0
    0.7290   15.7240   -7.5840 C   0  0  2  0  0  0  0  0  0  0  0  0
    0.3860   15.3000   -8.9100 O   0  0  0  0  0  0  0  0  0  0  0  0
    1.6490   15.9700   -8.7660 C   0  0  0  0  0  0  0  0  0  0  0  0
    2.8350   15.0960   -9.0270 C   0  0  0  0  0  0  0  0  0  0  0  0
    1.6790   17.3370   -9.3750 C   0  0  0  0  0  0  0  0  0  0  0  0
    0.7720   12.8170   -4.0000 C   0  0  1  0  0  0  0  0  0  0  0  0
    1.9020   11.8280   -4.3920 C   0  0  0  0  0  0  0  0  0  0  0  0
    1.7190   10.5670   -3.5090 C   0  0  0  0  0  0  0  0  0  0  0  0
    0.3130   10.7290   -2.8840 C   0  0  1  0  0  0  0  0  0  0  0  0
   -0.6760   10.2500   -3.9930 C   0  0  0  0  0  0  0  0  0  0  0  0
    0.0680    9.9840   -1.5310 C   0  0  2  0  0  0  0  0  0  0  0  0
    0.1770    8.4510   -1.6020 C   0  0  0  0  0  0  0  0  0  0  0  0
   -1.0970    7.7340   -1.9040 C   0  0  0  0  0  0  0  0  0  0  0  0
   -2.3310    8.2670   -1.8300 C   0  0  0  0  0  0  0  0  0  0  0  0
   -2.5420    9.6970   -1.3150 C   0  0  1  0  0  0  0  0  0  0  0  0
   -3.7080    9.7120   -0.2920 C   0  0  0  0  0  0  0  0  0  0  0  0
   -4.9880    9.1000   -0.8550 C   0  0  0  0  0  0  0  0  0  0  0  0
   -4.7520    7.6600   -1.3030 C   0  0  2  0  0  0  0  0  0  0  0  0
   -4.4760    6.8570   -0.1510 O   0  0  0  0  0  0  0  0  0  0  0  0
   -3.5920    7.5190   -2.3280 C   0  0  0  0  0  0  0  0  0  0  0  0
   -4.0190    8.1330   -3.6840 C   0  0  0  0  0  0  0  0  0  0  0  0
   -3.3670    6.0050   -2.5890 C   0  0  0  0  0  0  0  0  0  0  0  0
   -1.2440   10.4360   -0.7710 C   0  0  1  0  0  0  0  0  0  0  0  0
   -1.0270   10.0930    0.7340 C   0  0  0  0  0  0  0  0  0  0  0  0
   -1.4710   11.9930   -0.8430 C   0  0  0  0  0  0  0  0  0  0  0  0
   -1.0980   12.6890   -2.1660 C   0  0  0  0  0  0  0  0  0  0  0  0
    0.3050   12.2790   -2.6240 C   0  0  2  0  0  0  0  0  0  0  0  0
    1.3240   12.7670   -1.5390 C   0  0  0  0  0  0  0  0  0  0  0  0
    1.2312   14.2268   -1.9056 H   0  0  0  0  0  0  0  0  0  0  0  0
    1.6835   15.8113   -2.6208 H   0  0  0  0  0  0  0  0  0  0  0  0
   -0.0334   15.2832   -2.6208 H   0  0  0  0  0  0  0  0  0  0  0  0
    2.2906   14.3236   -4.3022 H   0  0  0  0  0  0  0  0  0  0  0  0
   -0.6089   14.7675   -5.1076 H   0  0  0  0  0  0  0  0  0  0  0  0
    0.6679   16.0762   -5.0811 H   0  0  0  0  0  0  0  0  0  0  0  0
    1.9947   14.3499   -6.5651 H   0  0  0  0  0  0  0  0  0  0  0  0
    0.3246   13.7488   -6.9337 H   0  0  0  0  0  0  0  0  0  0  0  0
    0.3525   16.3874   -6.7915 H   0  0  0  0  0  0  0  0  0  0  0  0
    3.2713   14.7745   -8.0698 H   0  0  0  0  0  0  0  0  0  0  0  0
    2.5200   14.2124   -9.6016 H   0  0  0  0  0  0  0  0  0  0  0  0
    3.5857   15.6585   -9.6016 H   0  0  0  0  0  0  0  0  0  0  0  0
    1.6956   18.0937   -8.5768 H   0  0  0  0  0  0  0  0  0  0  0  0
    2.5796   17.4412   -9.9979 H   0  0  0  0  0  0  0  0  0  0  0  0
    0.7838   17.4806   -9.9979 H   0  0  0  0  0  0  0  0  0  0  0  0
   -0.0773   12.8514   -4.6982 H   0  0  0  0  0  0  0  0  0  0  0  0
    1.8193   11.5607   -5.4558 H   0  0  0  0  0  0  0  0  0  0  0  0
    2.8932   12.2789   -4.2361 H   0  0  0  0  0  0  0  0  0  0  0  0
    1.7693    9.6541   -4.1206 H   0  0  0  0  0  0  0  0  0  0  0  0
    2.5063   10.4738   -2.7465 H   0  0  0  0  0  0  0  0  0  0  0  0
   -1.5713    9.8164   -3.5235 H   0  0  0  0  0  0  0  0  0  0  0  0
   -0.9683   11.1064   -4.6184 H   0  0  0  0  0  0  0  0  0  0  0  0
   -0.1853    9.4897   -4.6184 H   0  0  0  0  0  0  0  0  0  0  0  0
    0.9206   10.3160   -0.9204 H   0  0  0  0  0  0  0  0  0  0  0  0
    0.9038    8.1981   -2.3880 H   0  0  0  0  0  0  0  0  0  0  0  0
    0.4810    8.1209   -0.5977 H   0  0  0  0  0  0  0  0  0  0  0  0
   -1.0211    6.6811   -2.2132 H   0  0  0  0  0  0  0  0  0  0  0  0
   -2.8093   10.3010   -2.1946 H   0  0  0  0  0  0  0  0  0  0  0  0
   -3.4047    9.1395    0.5969 H   0  0  0  0  0  0  0  0  0  0  0  0
   -3.9210   10.7622   -0.0436 H   0  0  0  0  0  0  0  0  0  0  0  0
   -5.7655    9.1123   -0.0770 H   0  0  0  0  0  0  0  0  0  0  0  0
   -5.3067    9.6913   -1.7261 H   0  0  0  0  0  0  0  0  0  0  0  0
   -5.6651    7.3207   -1.8140 H   0  0  0  0  0  0  0  0  0  0  0  0
   -3.7770    7.3030    0.3580 H   0  0  0  0  0  0  0  0  0  0  0  0
   -4.6386    9.0239   -3.5042 H   0  0  0  0  0  0  0  0  0  0  0  0
   -3.1235    8.4184   -4.2555 H   0  0  0  0  0  0  0  0  0  0  0  0
   -4.5982    7.3928   -4.2555 H   0  0  0  0  0  0  0  0  0  0  0  0
   -3.2882    5.4750   -1.6283 H   0  0  0  0  0  0  0  0  0  0  0  0
   -4.2151    5.6017   -3.1618 H   0  0  0  0  0  0  0  0  0  0  0  0
   -2.4383    5.8657   -3.1618 H   0  0  0  0  0  0  0  0  0  0  0  0
   -1.5113   10.8585    1.3581 H   0  0  0  0  0  0  0  0  0  0  0  0
   -1.4673    9.1090    0.9530 H   0  0  0  0  0  0  0  0  0  0  0  0
    0.0507   10.0694    0.9530 H   0  0  0  0  0  0  0  0  0  0  0  0
   -2.5384   12.1826   -0.6566 H   0  0  0  0  0  0  0  0  0  0  0  0
   -0.7892   12.4183   -0.0918 H   0  0  0  0  0  0  0  0  0  0  0  0
   -1.8265   12.4053   -2.9398 H   0  0  0  0  0  0  0  0  0  0  0  0
   -1.1109   13.7772   -2.0059 H   0  0  0  0  0  0  0  0  0  0  0  0
    0.9146   12.5710   -0.5370 H   0  0  0  0  0  0  0  0  0  0  0  0
    2.2744   12.2263   -1.6590 H   0  0  0  0  0  0  0  0  0  0  0  0
    1.4985   13.8464   -1.6590 H   0  0  0  0  0  0  0  0  0  0  0  0
  1  2  1  0
  2  3  1  0
  3  4  1  0
  4  5  1  0
  5  6  1  0
  6  7  1  0
  7  8  1  0
  7  9  1  0
  2 10  1  0
 10 11  1  0
 11 12  1  0
 12 13  1  0
 13 14  1  6
 13 15  1  0
 15 16  1  0
 16 17  1  0
 17 18  2  0
 18 19  1  0
 19 20  1  0
 20 21  1  0
 21 22  1  0
 22 23  1  0
 22 24  1  0
 24 25  1  0
 24 26  1  0
 19 27  1  0
 27 28  1  1
 27 29  1  0
 29 30  1  0
 30 31  1  0
 31 32  1  1
  7  5  1  0
 31 10  1  0
 31 13  1  0
 27 15  1  0
 24 18  1  0
  1 33  1  0
  1 34  1  0
  1 35  1  0
  2 36  1  6
  3 37  1  0
  3 38  1  0
  4 39  1  0
  4 40  1  0
  5 41  1  1
  8 42  1  0
  8 43  1  0
  8 44  1  0
  9 45  1  0
  9 46  1  0
  9 47  1  0
 10 48  1  6
 11 49  1  0
 11 50  1  0
 12 51  1  0
 12 52  1  0
 14 53  1  0
 14 54  1  0
 14 55  1  0
 15 56  1  1
 16 57  1  0
 16 58  1  0
 17 59  1  0
 19 60  1  6
 20 61  1  0
 20 62  1  0
 21 63  1  0
 21 64  1  0
 22 65  1  6
 23 66  1  0
 25 67  1  0
 25 68  1  0
 25 69  1  0
 26 70  1  0
 26 71  1  0
 26 72  1  0
 28 73  1  0
 28 74  1  0
 28 75  1  0
 29 76  1  0
 29 77  1  0
 30 78  1  0
 30 79  1  0
 32 80  1  0
 32 81  1  0
 32 82  1  0
M  END
>  <meeko>  (15) 
{"is_sidechain": [false], "intermolecular_energy": 2.731, "internal_energy": -0.839}

$$$$
EPH_relaxed_0001_pdb2pqr_Repair_155_r2_0001_out
     RDKit          3D

 82 86  0  0  0  0  0  0  0  0999 V2000
   -1.7290   14.8510    0.4090 C   0  0  0  0  0  0  0  0  0  0  0  0
   -0.3670   15.5390    0.2860 C   0  0  2  0  0  0  0  0  0  0  0  0
   -0.3550   16.6100   -0.8230 C   0  0  0  0  0  0  0  0  0  0  0  0
    0.0180   18.0080   -0.3250 C   0  0  0  0  0  0  0  0  0  0  0  0
    1.4790   18.1120   -0.0060 C   0  0  2  0  0  0  0  0  0  0  0  0
    2.1120   19.3070   -0.4810 O   0  0  0  0  0  0  0  0  0  0  0  0
    2.5700   18.0750   -1.0600 C   0  0  0  0  0  0  0  0  0  0  0  0
    2.2460   17.9280   -2.5140 C   0  0  0  0  0  0  0  0  0  0  0  0
    3.9550   17.6910   -0.6430 C   0  0  0  0  0  0  0  0  0  0  0  0
    0.7170   14.5010    0.0200 C   0  0  1  0  0  0  0  0  0  0  0  0
    0.8320   13.4520    1.1580 C   0  0  0  0  0  0  0  0  0  0  0  0
    1.2010   12.1030    0.4870 C   0  0  0  0  0  0  0  0  0  0  0  0
    1.6100   12.4840   -0.9550 C   0  0  1  0  0  0  0  0  0  0  0  0
    3.0870   12.9740   -0.8360 C   0  0  0  0  0  0  0  0  0  0  0  0
    1.4580   11.3640   -2.0350 C   0  0  2  0  0  0  0  0  0  0  0  0
    2.3300   10.1160   -1.8080 C   0  0  0  0  0  0  0  0  0  0  0  0
    3.6800   10.1570   -2.4450 C   0  0  0  0  0  0  0  0  0  0  0  0
    4.0670   11.0220   -3.4010 C   0  0  0  0  0  0  0  0  0  0  0  0
    3.0750   12.0220   -4.0070 C   0  0  1  0  0  0  0  0  0  0  0  0
    3.2110   12.0130   -5.5530 C   0  0  0  0  0  0  0  0  0  0  0  0
    4.6430   12.2580   -6.0160 C   0  0  0  0  0  0  0  0  0  0  0  0
    5.5900   11.2090   -5.4390 C   0  0  2  0  0  0  0  0  0  0  0  0
    5.2680    9.9360   -6.0060 O   0  0  0  0  0  0  0  0  0  0  0  0
    5.5340   11.1200   -3.8880 C   0  0  0  0  0  0  0  0  0  0  0  0
    6.1670   12.3910   -3.2700 C   0  0  0  0  0  0  0  0  0  0  0  0
    6.4280    9.9300   -3.4460 C   0  0  0  0  0  0  0  0  0  0  0  0
    1.5670   11.8820   -3.5260 C   0  0  1  0  0  0  0  0  0  0  0  0
    0.8200   10.8410   -4.4140 C   0  0  0  0  0  0  0  0  0  0  0  0
    0.8300   13.2570   -3.7370 C   0  0  0  0  0  0  0  0  0  0  0  0
    0.9170   14.2760   -2.5850 C   0  0  0  0  0  0  0  0  0  0  0  0
    0.5640   13.6210   -1.2460 C   0  0  2  0  0  0  0  0  0  0  0  0
   -0.9240   13.1380   -1.3270 C   0  0  0  0  0  0  0  0  0  0  0  0
   -1.9808   14.7238    1.4722 H   0  0  0  0  0  0  0  0  0  0  0  0
   -2.4974   15.4691   -0.0784 H   0  0  0  0  0  0  0  0  0  0  0  0
   -1.6875   13.8658   -0.0784 H   0  0  0  0  0  0  0  0  0  0  0  0
   -0.1669   16.0498    1.2395 H   0  0  0  0  0  0  0  0  0  0  0  0
    0.3744   16.3083   -1.5891 H   0  0  0  0  0  0  0  0  0  0  0  0
   -1.3790   16.6730   -1.2197 H   0  0  0  0  0  0  0  0  0  0  0  0
   -0.2294   18.7422   -1.1058 H   0  0  0  0  0  0  0  0  0  0  0  0
   -0.5489   18.2060    0.5966 H   0  0  0  0  0  0  0  0  0  0  0  0
    1.3384   17.5525    0.9306 H   0  0  0  0  0  0  0  0  0  0  0  0
    1.2493   17.4758   -2.6237 H   0  0  0  0  0  0  0  0  0  0  0  0
    2.2542   18.9180   -2.9934 H   0  0  0  0  0  0  0  0  0  0  0  0
    2.9964   17.2822   -2.9934 H   0  0  0  0  0  0  0  0  0  0  0  0
    4.0159   17.6741    0.4552 H   0  0  0  0  0  0  0  0  0  0  0  0
    4.1936   16.6928   -1.0388 H   0  0  0  0  0  0  0  0  0  0  0  0
    4.6735   18.4238   -1.0388 H   0  0  0  0  0  0  0  0  0  0  0  0
    1.5865   15.1662   -0.0871 H   0  0  0  0  0  0  0  0  0  0  0  0
    1.6172   13.7488    1.8689 H   0  0  0  0  0  0  0  0  0  0  0  0
   -0.1119   13.3702    1.7168 H   0  0  0  0  0  0  0  0  0  0  0  0
    2.0387   11.6232    1.0144 H   0  0  0  0  0  0  0  0  0  0  0  0
    0.3682   11.3846    0.5086 H   0  0  0  0  0  0  0  0  0  0  0  0
    3.3589   13.0642    0.2260 H   0  0  0  0  0  0  0  0  0  0  0  0
    3.7543   12.2491   -1.3251 H   0  0  0  0  0  0  0  0  0  0  0  0
    3.1887   13.9540   -1.3251 H   0  0  0  0  0  0  0  0  0  0  0  0
    0.4192   11.0335   -1.8875 H   0  0  0  0  0  0  0  0  0  0  0  0
    2.4692    9.9912   -0.7240 H   0  0  0  0  0  0  0  0  0  0  0  0
    1.7948    9.2803   -2.2824 H   0  0  0  0  0  0  0  0  0  0  0  0
    4.4204    9.4182   -2.1044 H   0  0  0  0  0  0  0  0  0  0  0  0
    3.3587   13.0089   -3.6125 H   0  0  0  0  0  0  0  0  0  0  0  0
    2.8812   11.0337   -5.9302 H   0  0  0  0  0  0  0  0  0  0  0  0
    2.5885   12.8296   -5.9474 H   0  0  0  0  0  0  0  0  0  0  0  0
    4.6793   12.2105   -7.1144 H   0  0  0  0  0  0  0  0  0  0  0  0
    4.9611   13.2501   -5.6632 H   0  0  0  0  0  0  0  0  0  0  0  0
    6.6152   11.5115   -5.6987 H   0  0  0  0  0  0  0  0  0  0  0  0
    4.4690    9.6080   -5.5590 H   0  0  0  0  0  0  0  0  0  0  0  0
    6.1324   12.3215   -2.1727 H   0  0  0  0  0  0  0  0  0  0  0  0
    7.2131   12.4768   -3.5991 H   0  0  0  0  0  0  0  0  0  0  0  0
    5.6052   13.2776   -3.5991 H   0  0  0  0  0  0  0  0  0  0  0  0
    6.4618    9.8850   -2.3474 H   0  0  0  0  0  0  0  0  0  0  0  0
    6.0097    8.9915   -3.8387 H   0  0  0  0  0  0  0  0  0  0  0  0
    7.4459   10.0704   -3.8387 H   0  0  0  0  0  0  0  0  0  0  0  0
    0.2999   10.1162   -3.7705 H   0  0  0  0  0  0  0  0  0  0  0  0
    0.0868   11.3598   -5.0491 H   0  0  0  0  0  0  0  0  0  0  0  0
    1.5462   10.3125   -5.0491 H   0  0  0  0  0  0  0  0  0  0  0  0
    1.2585   13.7302   -4.6328 H   0  0  0  0  0  0  0  0  0  0  0  0
   -0.2372   13.0023   -3.8158 H   0  0  0  0  0  0  0  0  0  0  0  0
    1.9415   14.6731   -2.5324 H   0  0  0  0  0  0  0  0  0  0  0  0
    0.1994   15.0868   -2.7789 H   0  0  0  0  0  0  0  0  0  0  0  0
   -1.3233   13.0084   -0.3103 H   0  0  0  0  0  0  0  0  0  0  0  0
   -1.5241   13.8875   -1.8638 H   0  0  0  0  0  0  0  0  0  0  0  0
   -0.9695   12.1790   -1.8638 H   0  0  0  0  0  0  0  0  0  0  0  0
  1  2  1  0
  2  3  1  0
  3  4  1  0
  4  5  1  0
  5  6  1  0
  6  7  1  0
  7  8  1  0
  7  9  1  0
  2 10  1  0
 10 11  1  0
 11 12  1  0
 12 13  1  0
 13 14  1  1
 13 15  1  0
 15 16  1  0
 16 17  1  0
 17 18  2  0
 18 19  1  0
 19 20  1  0
 20 21  1  0
 21 22  1  0
 22 23  1  0
 22 24  1  0
 24 25  1  0
 24 26  1  0
 19 27  1  0
 27 28  1  6
 27 29  1  0
 29 30  1  0
 30 31  1  0
 31 32  1  6
  7  5  1  0
 31 10  1  0
 31 13  1  0
 27 15  1  0
 24 18  1  0
  1 33  1  0
  1 34  1  0
  1 35  1  0
  2 36  1  1
  3 37  1  0
  3 38  1  0
  4 39  1  0
  4 40  1  0
  5 41  1  1
  8 42  1  0
  8 43  1  0
  8 44  1  0
  9 45  1  0
  9 46  1  0
  9 47  1  0
 10 48  1  6
 11 49  1  0
 11 50  1  0
 12 51  1  0
 12 52  1  0
 14 53  1  0
 14 54  1  0
 14 55  1  0
 15 56  1  6
 16 57  1  0
 16 58  1  0
 17 59  1  0
 19 60  1  1
 20 61  1  0
 20 62  1  0
 21 63  1  0
 21 64  1  0
 22 65  1  1
 23 66  1  0
 25 67  1  0
 25 68  1  0
 25 69  1  0
 26 70  1  0
 26 71  1  0
 26 72  1  0
 28 73  1  0
 28 74  1  0
 28 75  1  0
 29 76  1  0
 29 77  1  0
 30 78  1  0
 30 79  1  0
 32 80  1  0
 32 81  1  0
 32 82  1  0
M  END
>  <meeko>  (16) 
{"is_sidechain": [false], "intermolecular_energy": 2.731, "internal_energy": -0.839}

$$$$
EPH_relaxed_0001_pdb2pqr_Repair_155_r2_0001_out
     RDKit          3D

 82 86  0  0  0  0  0  0  0  0999 V2000
    0.1600    7.8280   -2.4290 C   0  0  0  0  0  0  0  0  0  0  0  0
   -1.2440    8.2480   -1.9830 C   0  0  2  0  0  0  0  0  0  0  0  0
   -2.3350    7.7490   -2.9510 C   0  0  0  0  0  0  0  0  0  0  0  0
   -3.1560    6.5790   -2.4030 C   0  0  0  0  0  0  0  0  0  0  0  0
   -4.4050    6.3570   -3.2020 C   0  0  2  0  0  0  0  0  0  0  0  0
   -5.0320    7.5550   -3.6790 O   0  0  0  0  0  0  0  0  0  0  0  0
   -5.7850    6.7800   -2.7320 C   0  0  0  0  0  0  0  0  0  0  0  0
   -5.9860    7.4580   -1.4130 C   0  0  0  0  0  0  0  0  0  0  0  0
   -6.9810    6.1020   -3.3230 C   0  0  0  0  0  0  0  0  0  0  0  0
   -1.3150    9.7650   -1.8530 C   0  0  1  0  0  0  0  0  0  0  0  0
   -2.7280   10.2630   -1.4480 C   0  0  0  0  0  0  0  0  0  0  0  0
   -2.5210   11.4990   -0.5340 C   0  0  0  0  0  0  0  0  0  0  0  0
   -1.0300   11.8690   -0.7110 C   0  0  1  0  0  0  0  0  0  0  0  0
   -0.9750   12.6850   -2.0410 C   0  0  0  0  0  0  0  0  0  0  0  0
   -0.3660   12.6470    0.4710 C   0  0  2  0  0  0  0  0  0  0  0  0
   -0.9740   14.0300    0.7650 C   0  0  0  0  0  0  0  0  0  0  0  0
   -0.3470   15.1710    0.0340 C   0  0  0  0  0  0  0  0  0  0  0  0
    0.8380   15.1340   -0.6040 C   0  0  0  0  0  0  0  0  0  0  0  0
    1.7250   13.8840   -0.5460 C   0  0  1  0  0  0  0  0  0  0  0  0
    3.1870   14.3010   -0.2390 C   0  0  0  0  0  0  0  0  0  0  0  0
    3.7150   15.3470   -1.2160 C   0  0  0  0  0  0  0  0  0  0  0  0
    2.8400   16.5980   -1.2020 C   0  0  2  0  0  0  0  0  0  0  0  0
    2.9680   17.2350    0.0730 O   0  0  0  0  0  0  0  0  0  0  0  0
    1.3420   16.3000   -1.4900 C   0  0  0  0  0  0  0  0  0  0  0  0
    1.1680   15.8930   -2.9740 C   0  0  0  0  0  0  0  0  0  0  0  0
    0.5490   17.6220   -1.3060 C   0  0  0  0  0  0  0  0  0  0  0  0
    1.2130   12.7130    0.3980 C   0  0  1  0  0  0  0  0  0  0  0  0
    1.7170   12.9460    1.8560 C   0  0  0  0  0  0  0  0  0  0  0  0
    1.8470   11.3540   -0.0780 C   0  0  0  0  0  0  0  0  0  0  0  0
    1.0820   10.5730   -1.1640 C   0  0  0  0  0  0  0  0  0  0  0  0
   -0.3980   10.4320   -0.7980 C   0  0  2  0  0  0  0  0  0  0  0  0
   -0.4870    9.5970    0.5240 C   0  0  0  0  0  0  0  0  0  0  0  0
    0.7853    7.6409   -1.5436 H   0  0  0  0  0  0  0  0  0  0  0  0
    0.0940    6.9103   -3.0318 H   0  0  0  0  0  0  0  0  0  0  0  0
    0.6088    8.6312   -3.0318 H   0  0  0  0  0  0  0  0  0  0  0  0
   -1.4343    7.7819   -1.0050 H   0  0  0  0  0  0  0  0  0  0  0  0
   -3.0191    8.5839   -3.1633 H   0  0  0  0  0  0  0  0  0  0  0  0
   -1.8220    7.3865   -3.8540 H   0  0  0  0  0  0  0  0  0  0  0  0
   -2.5433    5.6661   -2.4379 H   0  0  0  0  0  0  0  0  0  0  0  0
   -3.4475    6.8183   -1.3697 H   0  0  0  0  0  0  0  0  0  0  0  0
   -4.0169    5.4027   -3.5875 H   0  0  0  0  0  0  0  0  0  0  0  0
   -5.7755    6.7478   -0.5998 H   0  0  0  0  0  0  0  0  0  0  0  0
   -5.3040    8.3175   -1.3349 H   0  0  0  0  0  0  0  0  0  0  0  0
   -7.0262    7.8070   -1.3349 H   0  0  0  0  0  0  0  0  0  0  0  0
   -7.6304    5.7339   -2.5150 H   0  0  0  0  0  0  0  0  0  0  0  0
   -7.5388    6.8182   -3.9442 H   0  0  0  0  0  0  0  0  0  0  0  0
   -6.6530    5.2555   -3.9442 H   0  0  0  0  0  0  0  0  0  0  0  0
   -0.9940   10.0529   -2.8650 H   0  0  0  0  0  0  0  0  0  0  0  0
   -3.3013   10.5455   -2.3433 H   0  0  0  0  0  0  0  0  0  0  0  0
   -3.2902    9.4749   -0.9257 H   0  0  0  0  0  0  0  0  0  0  0  0
   -3.1678   12.3300   -0.8520 H   0  0  0  0  0  0  0  0  0  0  0  0
   -2.7775   11.2900    0.5151 H   0  0  0  0  0  0  0  0  0  0  0  0
   -0.9027   13.7581   -1.8101 H   0  0  0  0  0  0  0  0  0  0  0  0
   -0.0957   12.3755   -2.6250 H   0  0  0  0  0  0  0  0  0  0  0  0
   -1.8879   12.4963   -2.6250 H   0  0  0  0  0  0  0  0  0  0  0  0
   -0.6188   12.0192    1.3381 H   0  0  0  0  0  0  0  0  0  0  0  0
   -2.0396   13.9973    0.4941 H   0  0  0  0  0  0  0  0  0  0  0  0
   -0.7966   14.2193    1.8340 H   0  0  0  0  0  0  0  0  0  0  0  0
   -0.8998   16.1218    0.0151 H   0  0  0  0  0  0  0  0  0  0  0  0
    1.6693   13.4251   -1.5441 H   0  0  0  0  0  0  0  0  0  0  0  0
    3.2288   14.7163    0.7787 H   0  0  0  0  0  0  0  0  0  0  0  0
    3.8172   13.4047   -0.3370 H   0  0  0  0  0  0  0  0  0  0  0  0
    4.7408   15.6220   -0.9293 H   0  0  0  0  0  0  0  0  0  0  0  0
    3.7002   14.9197   -2.2295 H   0  0  0  0  0  0  0  0  0  0  0  0
    3.1900   17.2557   -2.0113 H   0  0  0  0  0  0  0  0  0  0  0  0
    2.4700   18.0690    0.0360 H   0  0  0  0  0  0  0  0  0  0  0  0
    0.7361   14.8828   -3.0289 H   0  0  0  0  0  0  0  0  0  0  0  0
    0.4963   16.6066   -3.4736 H   0  0  0  0  0  0  0  0  0  0  0  0
    2.1480   15.9005   -3.4736 H   0  0  0  0  0  0  0  0  0  0  0  0
    0.4249   17.8288   -0.2328 H   0  0  0  0  0  0  0  0  0  0  0  0
    1.1003   18.4489   -1.7774 H   0  0  0  0  0  0  0  0  0  0  0  0
   -0.4401   17.5249   -1.7774 H   0  0  0  0  0  0  0  0  0  0  0  0
    0.9557   12.5941    2.5678 H   0  0  0  0  0  0  0  0  0  0  0  0
    2.6522   12.3889    2.0141 H   0  0  0  0  0  0  0  0  0  0  0  0
    1.8984   14.0194    2.0141 H   0  0  0  0  0  0  0  0  0  0  0  0
    2.8503   11.5746   -0.4712 H   0  0  0  0  0  0  0  0  0  0  0  0
    1.8321   10.7033    0.8088 H   0  0  0  0  0  0  0  0  0  0  0  0
    1.1666   11.1100   -2.1203 H   0  0  0  0  0  0  0  0  0  0  0  0
    1.5200    9.5674   -1.2469 H   0  0  0  0  0  0  0  0  0  0  0  0
   -0.4151   10.2720    1.3896 H   0  0  0  0  0  0  0  0  0  0  0  0
   -1.4473    9.0615    0.5555 H   0  0  0  0  0  0  0  0  0  0  0  0
    0.3389    8.8711    0.5555 H   0  0  0  0  0  0  0  0  0  0  0  0
  1  2  1  0
  2  3  1  0
  3  4  1  0
  4  5  1  0
  5  6  1  0
  6  7  1  0
  7  8  1  0
  7  9  1  0
  2 10  1  0
 10 11  1  0
 11 12  1  0
 12 13  1  0
 13 14  1  6
 13 15  1  0
 15 16  1  0
 16 17  1  0
 17 18  2  0
 18 19  1  0
 19 20  1  0
 20 21  1  0
 21 22  1  0
 22 23  1  0
 22 24  1  0
 24 25  1  0
 24 26  1  0
 19 27  1  0
 27 28  1  1
 27 29  1  0
 29 30  1  0
 30 31  1  0
 31 32  1  1
  7  5  1  0
 31 10  1  0
 31 13  1  0
 27 15  1  0
 24 18  1  0
  1 33  1  0
  1 34  1  0
  1 35  1  0
  2 36  1  1
  3 37  1  0
  3 38  1  0
  4 39  1  0
  4 40  1  0
  5 41  1  6
  8 42  1  0
  8 43  1  0
  8 44  1  0
  9 45  1  0
  9 46  1  0
  9 47  1  0
 10 48  1  6
 11 49  1  0
 11 50  1  0
 12 51  1  0
 12 52  1  0
 14 53  1  0
 14 54  1  0
 14 55  1  0
 15 56  1  1
 16 57  1  0
 16 58  1  0
 17 59  1  0
 19 60  1  6
 20 61  1  0
 20 62  1  0
 21 63  1  0
 21 64  1  0
 22 65  1  6
 23 66  1  0
 25 67  1  0
 25 68  1  0
 25 69  1  0
 26 70  1  0
 26 71  1  0
 26 72  1  0
 28 73  1  0
 28 74  1  0
 28 75  1  0
 29 76  1  0
 29 77  1  0
 30 78  1  0
 30 79  1  0
 32 80  1  0
 32 81  1  0
 32 82  1  0
M  END
>  <meeko>  (17) 
{"is_sidechain": [false], "intermolecular_energy": 2.731, "internal_energy": -0.839}

$$$$
EPH_relaxed_0001_pdb2pqr_Repair_155_r2_0001_out
     RDKit          3D

 82 86  0  0  0  0  0  0  0  0999 V2000
    3.3290   18.0150   -0.6720 C   0  0  0  0  0  0  0  0  0  0  0  0
    2.3100   17.5260   -1.7050 C   0  0  2  0  0  0  0  0  0  0  0  0
    0.8690   17.9320   -1.3370 C   0  0  0  0  0  0  0  0  0  0  0  0
    0.7920   19.0620   -0.3070 C   0  0  0  0  0  0  0  0  0  0  0  0
   -0.5700   19.1560    0.3120 C   0  0  2  0  0  0  0  0  0  0  0  0
   -1.5430   18.2600   -0.2410 O   0  0  0  0  0  0  0  0  0  0  0  0
   -1.7930   19.6630   -0.4290 C   0  0  0  0  0  0  0  0  0  0  0  0
   -1.7120   20.1100   -1.8550 C   0  0  0  0  0  0  0  0  0  0  0  0
   -2.9490   20.1800    0.3690 C   0  0  0  0  0  0  0  0  0  0  0  0
    2.4030   16.0110   -1.8500 C   0  0  1  0  0  0  0  0  0  0  0  0
    3.8690   15.5020   -1.8660 C   0  0  0  0  0  0  0  0  0  0  0  0
    3.8730   14.1270   -1.1500 C   0  0  0  0  0  0  0  0  0  0  0  0
    2.3800   13.7400   -1.0410 C   0  0  1  0  0  0  0  0  0  0  0  0
    2.0160   13.1500   -2.4400 C   0  0  0  0  0  0  0  0  0  0  0  0
    2.0030   12.7570    0.1150 C   0  0  2  0  0  0  0  0  0  0  0  0
    2.6560   11.3660    0.0280 C   0  0  0  0  0  0  0  0  0  0  0  0
    1.8730   10.3400   -0.7220 C   0  0  0  0  0  0  0  0  0  0  0  0
    0.5730   10.4390   -1.0570 C   0  0  0  0  0  0  0  0  0  0  0  0
   -0.2720   11.6310   -0.5910 C   0  0  1  0  0  0  0  0  0  0  0  0
   -1.6260   11.1200   -0.0320 C   0  0  0  0  0  0  0  0  0  0  0  0
   -2.3690   10.2300   -1.0240 C   0  0  0  0  0  0  0  0  0  0  0  0
   -1.5200    9.0250   -1.4190 C   0  0  2  0  0  0  0  0  0  0  0  0
   -1.3530    8.1840   -0.2730 O   0  0  0  0  0  0  0  0  0  0  0  0
   -0.1270    9.4170   -1.9870 C   0  0  0  0  0  0  0  0  0  0  0  0
   -0.2980   10.0660   -3.3820 C   0  0  0  0  0  0  0  0  0  0  0  0
    0.6820    8.1100   -2.2120 C   0  0  0  0  0  0  0  0  0  0  0  0
    0.4490   12.6490    0.3940 C   0  0  1  0  0  0  0  0  0  0  0  0
    0.2940   12.1640    1.8680 C   0  0  0  0  0  0  0  0  0  0  0  0
   -0.2720   14.0460    0.3080 C   0  0  0  0  0  0  0  0  0  0  0  0
    0.2250   15.0190   -0.7780 C   0  0  0  0  0  0  0  0  0  0  0  0
    1.7510   15.1490   -0.7400 C   0  0  2  0  0  0  0  0  0  0  0  0
    2.1460   15.7600    0.6470 C   0  0  0  0  0  0  0  0  0  0  0  0
    2.9422   17.8294    0.3409 H   0  0  0  0  0  0  0  0  0  0  0  0
    4.2770   17.4737   -0.8074 H   0  0  0  0  0  0  0  0  0  0  0  0
    3.4998   19.0932   -0.8074 H   0  0  0  0  0  0  0  0  0  0  0  0
    2.5539   18.0073   -2.6635 H   0  0  0  0  0  0  0  0  0  0  0  0
    0.3564   18.2614   -2.2528 H   0  0  0  0  0  0  0  0  0  0  0  0
    0.3926   17.0504   -0.8833 H   0  0  0  0  0  0  0  0  0  0  0  0
    1.5314   18.8732    0.4853 H   0  0  0  0  0  0  0  0  0  0  0  0
    1.0005   20.0109   -0.8228 H   0  0  0  0  0  0  0  0  0  0  0  0
   -0.1340   19.4235    1.2859 H   0  0  0  0  0  0  0  0  0  0  0  0
   -1.5160   21.1918   -1.8896 H   0  0  0  0  0  0  0  0  0  0  0  0
   -0.8965   19.5732   -2.3618 H   0  0  0  0  0  0  0  0  0  0  0  0
   -2.6640   19.8935   -2.3618 H   0  0  0  0  0  0  0  0  0  0  0  0
   -2.7274   20.0809    1.4419 H   0  0  0  0  0  0  0  0  0  0  0  0
   -3.1179   21.2394    0.1258 H   0  0  0  0  0  0  0  0  0  0  0  0
   -3.8512   19.5996    0.1258 H   0  0  0  0  0  0  0  0  0  0  0  0
    1.8566   15.8820   -2.7960 H   0  0  0  0  0  0  0  0  0  0  0  0
    4.2199   15.3903   -2.9025 H   0  0  0  0  0  0  0  0  0  0  0  0
    4.5393   16.2126   -1.3602 H   0  0  0  0  0  0  0  0  0  0  0  0
    4.4250   13.3823   -1.7423 H   0  0  0  0  0  0  0  0  0  0  0  0
    4.3658   14.1696   -0.1675 H   0  0  0  0  0  0  0  0  0  0  0  0
    1.4426   12.2206   -2.3081 H   0  0  0  0  0  0  0  0  0  0  0  0
    1.4101   13.8785   -2.9988 H   0  0  0  0  0  0  0  0  0  0  0  0
    2.9389   12.9353   -2.9988 H   0  0  0  0  0  0  0  0  0  0  0  0
    2.4518   13.2438    0.9934 H   0  0  0  0  0  0  0  0  0  0  0  0
    3.6313   11.4788   -0.4680 H   0  0  0  0  0  0  0  0  0  0  0  0
    2.7277   10.9982    1.0622 H   0  0  0  0  0  0  0  0  0  0  0  0
    2.4032    9.4256   -1.0267 H   0  0  0  0  0  0  0  0  0  0  0  0
   -0.4464   12.2474   -1.4852 H   0  0  0  0  0  0  0  0  0  0  0  0
   -1.4340   10.5429    0.8846 H   0  0  0  0  0  0  0  0  0  0  0  0
   -2.2579   11.9979    0.1678 H   0  0  0  0  0  0  0  0  0  0  0  0
   -3.3023    9.8765   -0.5613 H   0  0  0  0  0  0  0  0  0  0  0  0
   -2.5860   10.8177   -1.9282 H   0  0  0  0  0  0  0  0  0  0  0  0
   -2.0502    8.4973   -2.2255 H   0  0  0  0  0  0  0  0  0  0  0  0
   -0.5700    7.6280   -0.4280 H   0  0  0  0  0  0  0  0  0  0  0  0
   -0.5766   11.1234   -3.2628 H   0  0  0  0  0  0  0  0  0  0  0  0
    0.6491    9.9967   -3.9372 H   0  0  0  0  0  0  0  0  0  0  0  0
   -1.0880    9.5390   -3.9372 H   0  0  0  0  0  0  0  0  0  0  0  0
    0.9520    7.6738   -1.2389 H   0  0  0  0  0  0  0  0  0  0  0  0
    0.0697    7.3927   -2.7782 H   0  0  0  0  0  0  0  0  0  0  0  0
    1.5971    8.3381   -2.7782 H   0  0  0  0  0  0  0  0  0  0  0  0
    0.5560   12.9837    2.5532 H   0  0  0  0  0  0  0  0  0  0  0  0
   -0.7472   11.8565    2.0453 H   0  0  0  0  0  0  0  0  0  0  0  0
    0.9639   11.3097    2.0453 H   0  0  0  0  0  0  0  0  0  0  0  0
   -1.3400   13.8584    0.1230 H   0  0  0  0  0  0  0  0  0  0  0  0
   -0.0498   14.5436    1.2635 H   0  0  0  0  0  0  0  0  0  0  0  0
   -0.0797   14.6423   -1.7656 H   0  0  0  0  0  0  0  0  0  0  0  0
   -0.2164   16.0090   -0.5909 H   0  0  0  0  0  0  0  0  0  0  0  0
    1.7399   15.1318    1.4535 H   0  0  0  0  0  0  0  0  0  0  0  0
    3.2420   15.8011    0.7308 H   0  0  0  0  0  0  0  0  0  0  0  0
    1.7335   16.7763    0.7308 H   0  0  0  0  0  0  0  0  0  0  0  0
  1  2  1  0
  2  3  1  0
  3  4  1  0
  4  5  1  0
  5  6  1  0
  6  7  1  0
  7  8  1  0
  7  9  1  0
  2 10  1  0
 10 11  1  0
 11 12  1  0
 12 13  1  0
 13 14  1  6
 13 15  1  0
 15 16  1  0
 16 17  1  0
 17 18  2  0
 18 19  1  0
 19 20  1  0
 20 21  1  0
 21 22  1  0
 22 23  1  0
 22 24  1  0
 24 25  1  0
 24 26  1  0
 19 27  1  0
 27 28  1  1
 27 29  1  0
 29 30  1  0
 30 31  1  0
 31 32  1  1
  7  5  1  0
 31 10  1  0
 31 13  1  0
 27 15  1  0
 24 18  1  0
  1 33  1  0
  1 34  1  0
  1 35  1  0
  2 36  1  6
  3 37  1  0
  3 38  1  0
  4 39  1  0
  4 40  1  0
  5 41  1  1
  8 42  1  0
  8 43  1  0
  8 44  1  0
  9 45  1  0
  9 46  1  0
  9 47  1  0
 10 48  1  6
 11 49  1  0
 11 50  1  0
 12 51  1  0
 12 52  1  0
 14 53  1  0
 14 54  1  0
 14 55  1  0
 15 56  1  1
 16 57  1  0
 16 58  1  0
 17 59  1  0
 19 60  1  6
 20 61  1  0
 20 62  1  0
 21 63  1  0
 21 64  1  0
 22 65  1  6
 23 66  1  0
 25 67  1  0
 25 68  1  0
 25 69  1  0
 26 70  1  0
 26 71  1  0
 26 72  1  0
 28 73  1  0
 28 74  1  0
 28 75  1  0
 29 76  1  0
 29 77  1  0
 30 78  1  0
 30 79  1  0
 32 80  1  0
 32 81  1  0
 32 82  1  0
M  END
>  <meeko>  (18) 
{"is_sidechain": [false], "intermolecular_energy": 2.731, "internal_energy": -0.839}

$$$$
EPH_relaxed_0001_pdb2pqr_Repair_155_r2_0001_out
     RDKit          3D

 82 86  0  0  0  0  0  0  0  0999 V2000
   -2.4710    7.8040   -0.0590 C   0  0  0  0  0  0  0  0  0  0  0  0
   -3.1250    9.1880   -0.0980 C   0  0  2  0  0  0  0  0  0  0  0  0
   -4.6000    9.1200   -0.5430 C   0  0  0  0  0  0  0  0  0  0  0  0
   -5.1630    7.6980   -0.5930 C   0  0  0  0  0  0  0  0  0  0  0  0
   -5.9220    7.4470   -1.8610 C   0  0  2  0  0  0  0  0  0  0  0  0
   -6.8720    8.4660   -2.2020 O   0  0  0  0  0  0  0  0  0  0  0  0
   -7.4130    7.1690   -1.9020 C   0  0  0  0  0  0  0  0  0  0  0  0
   -8.2340    7.1260   -0.6520 C   0  0  0  0  0  0  0  0  0  0  0  0
   -7.9760    6.4610   -3.0950 C   0  0  0  0  0  0  0  0  0  0  0  0
   -2.3420   10.1070   -1.0280 C   0  0  1  0  0  0  0  0  0  0  0  0
   -2.9650   11.5250   -1.1300 C   0  0  0  0  0  0  0  0  0  0  0  0
   -1.7870   12.5210   -1.2810 C   0  0  0  0  0  0  0  0  0  0  0  0
   -0.5610   11.6310   -1.5920 C   0  0  1  0  0  0  0  0  0  0  0  0
   -0.6640   11.3280   -3.1200 C   0  0  0  0  0  0  0  0  0  0  0  0
    0.8360   12.2230   -1.2140 C   0  0  2  0  0  0  0  0  0  0  0  0
    1.2210   13.5140   -1.9570 C   0  0  0  0  0  0  0  0  0  0  0  0
    1.9640   13.3160   -3.2370 C   0  0  0  0  0  0  0  0  0  0  0  0
    2.5580   12.1720   -3.6280 C   0  0  0  0  0  0  0  0  0  0  0  0
    2.5990   10.9500   -2.7020 C   0  0  1  0  0  0  0  0  0  0  0  0
    4.0330   10.3580   -2.6900 C   0  0  0  0  0  0  0  0  0  0  0  0
    4.5500   10.0470   -4.0910 C   0  0  0  0  0  0  0  0  0  0  0  0
    4.5480   11.2990   -4.9640 C   0  0  2  0  0  0  0  0  0  0  0  0
    5.5130   12.2210   -4.4480 O   0  0  0  0  0  0  0  0  0  0  0  0
    3.1570   11.9880   -5.0440 C   0  0  0  0  0  0  0  0  0  0  0  0
    2.1880   11.1090   -5.8720 C   0  0  0  0  0  0  0  0  0  0  0  0
    3.3260   13.3130   -5.8360 C   0  0  0  0  0  0  0  0  0  0  0  0
    2.0150   11.1670   -1.2400 C   0  0  1  0  0  0  0  0  0  0  0  0
    3.1290   11.7210   -0.3000 C   0  0  0  0  0  0  0  0  0  0  0  0
    1.5850    9.7740   -0.6460 C   0  0  0  0  0  0  0  0  0  0  0  0
    0.1520    9.3000   -0.9550 C   0  0  0  0  0  0  0  0  0  0  0  0
   -0.8670   10.4040   -0.6590 C   0  0  2  0  0  0  0  0  0  0  0  0
   -0.8020   10.7160    0.8760 C   0  0  0  0  0  0  0  0  0  0  0  0
   -2.3257    7.4965    0.9871 H   0  0  0  0  0  0  0  0  0  0  0  0
   -3.1208    7.0769   -0.5680 H   0  0  0  0  0  0  0  0  0  0  0  0
   -1.4967    7.8444   -0.5680 H   0  0  0  0  0  0  0  0  0  0  0  0
   -3.1068    9.5920    0.9250 H   0  0  0  0  0  0  0  0  0  0  0  0
   -5.2035    9.7077    0.1644 H   0  0  0  0  0  0  0  0  0  0  0  0
   -4.6454    9.5197   -1.5668 H   0  0  0  0  0  0  0  0  0  0  0  0
   -4.3302    6.9823   -0.5283 H   0  0  0  0  0  0  0  0  0  0  0  0
   -5.8560    7.5734    0.2521 H   0  0  0  0  0  0  0  0  0  0  0  0
   -5.0611    6.9218   -2.3004 H   0  0  0  0  0  0  0  0  0  0  0  0
   -7.5699    7.1608    0.2242 H   0  0  0  0  0  0  0  0  0  0  0  0
   -8.9148    7.9897   -0.6306 H   0  0  0  0  0  0  0  0  0  0  0  0
   -8.8209    6.1959   -0.6306 H   0  0  0  0  0  0  0  0  0  0  0  0
   -8.6282    5.6408   -2.7606 H   0  0  0  0  0  0  0  0  0  0  0  0
   -8.5597    7.1700   -3.7005 H   0  0  0  0  0  0  0  0  0  0  0  0
   -7.1537    6.0520   -3.7005 H   0  0  0  0  0  0  0  0  0  0  0  0
   -2.3857    9.5134   -1.9531 H   0  0  0  0  0  0  0  0  0  0  0  0
   -3.6271   11.5857   -2.0063 H   0  0  0  0  0  0  0  0  0  0  0  0
   -3.5668   11.7571   -0.2389 H   0  0  0  0  0  0  0  0  0  0  0  0
   -1.9760   13.2237   -2.1059 H   0  0  0  0  0  0  0  0  0  0  0  0
   -1.6400   13.1331   -0.3789 H   0  0  0  0  0  0  0  0  0  0  0  0
   -1.0149   10.2958   -3.2663 H   0  0  0  0  0  0  0  0  0  0  0  0
   -1.3752   12.0264   -3.5852 H   0  0  0  0  0  0  0  0  0  0  0  0
    0.3255   11.4483   -3.5852 H   0  0  0  0  0  0  0  0  0  0  0  0
    0.6920   12.5158   -0.1635 H   0  0  0  0  0  0  0  0  0  0  0  0
    0.2961   14.0650   -2.1826 H   0  0  0  0  0  0  0  0  0  0  0  0
    1.9055   14.0570   -1.2887 H   0  0  0  0  0  0  0  0  0  0  0  0
    2.0320   14.1770   -3.9182 H   0  0  0  0  0  0  0  0  0  0  0  0
    1.8972   10.2196   -3.1309 H   0  0  0  0  0  0  0  0  0  0  0  0
    4.7104   11.0846   -2.2176 H   0  0  0  0  0  0  0  0  0  0  0  0
    3.9987    9.4121   -2.1295 H   0  0  0  0  0  0  0  0  0  0  0  0
    5.5774    9.6608   -4.0180 H   0  0  0  0  0  0  0  0  0  0  0  0
    3.8889    9.2976   -4.5507 H   0  0  0  0  0  0  0  0  0  0  0  0
    4.8028   10.9883   -5.9880 H   0  0  0  0  0  0  0  0  0  0  0  0
    6.1600   12.3940   -5.1520 H   0  0  0  0  0  0  0  0  0  0  0  0
    1.5477   10.5282   -5.1918 H   0  0  0  0  0  0  0  0  0  0  0  0
    1.5605   11.7524   -6.5063 H   0  0  0  0  0  0  0  0  0  0  0  0
    2.7674   10.4219   -6.5063 H   0  0  0  0  0  0  0  0  0  0  0  0
    3.4328   14.1505   -5.1309 H   0  0  0  0  0  0  0  0  0  0  0  0
    4.2234   13.2499   -6.4690 H   0  0  0  0  0  0  0  0  0  0  0  0
    2.4415   13.4772   -6.4690 H   0  0  0  0  0  0  0  0  0  0  0  0
    2.8312   11.5729    0.7485 H   0  0  0  0  0  0  0  0  0  0  0  0
    4.0708   11.1863   -0.4927 H   0  0  0  0  0  0  0  0  0  0  0  0
    3.2709   12.7947   -0.4927 H   0  0  0  0  0  0  0  0  0  0  0  0
    2.2784    9.0161   -1.0394 H   0  0  0  0  0  0  0  0  0  0  0  0
    1.6161    9.9045    0.4458 H   0  0  0  0  0  0  0  0  0  0  0  0
    0.0855    9.0247   -2.0179 H   0  0  0  0  0  0  0  0  0  0  0  0
   -0.0755    8.4330   -0.3174 H   0  0  0  0  0  0  0  0  0  0  0  0
   -0.9939    9.7949    1.4458 H   0  0  0  0  0  0  0  0  0  0  0  0
    0.1960   11.1028    1.1296 H   0  0  0  0  0  0  0  0  0  0  0  0
   -1.5625   11.4692    1.1296 H   0  0  0  0  0  0  0  0  0  0  0  0
  1  2  1  0
  2  3  1  0
  3  4  1  0
  4  5  1  0
  5  6  1  0
  6  7  1  0
  7  8  1  0
  7  9  1  0
  2 10  1  0
 10 11  1  0
 11 12  1  0
 12 13  1  0
 13 14  1  6
 13 15  1  0
 15 16  1  0
 16 17  1  0
 17 18  2  0
 18 19  1  0
 19 20  1  0
 20 21  1  0
 21 22  1  0
 22 23  1  0
 22 24  1  0
 24 25  1  0
 24 26  1  0
 19 27  1  0
 27 28  1  1
 27 29  1  0
 29 30  1  0
 30 31  1  0
 31 32  1  1
  7  5  1  0
 31 10  1  0
 31 13  1  0
 27 15  1  0
 24 18  1  0
  1 33  1  0
  1 34  1  0
  1 35  1  0
  2 36  1  1
  3 37  1  0
  3 38  1  0
  4 39  1  0
  4 40  1  0
  5 41  1  6
  8 42  1  0
  8 43  1  0
  8 44  1  0
  9 45  1  0
  9 46  1  0
  9 47  1  0
 10 48  1  6
 11 49  1  0
 11 50  1  0
 12 51  1  0
 12 52  1  0
 14 53  1  0
 14 54  1  0
 14 55  1  0
 15 56  1  1
 16 57  1  0
 16 58  1  0
 17 59  1  0
 19 60  1  6
 20 61  1  0
 20 62  1  0
 21 63  1  0
 21 64  1  0
 22 65  1  6
 23 66  1  0
 25 67  1  0
 25 68  1  0
 25 69  1  0
 26 70  1  0
 26 71  1  0
 26 72  1  0
 28 73  1  0
 28 74  1  0
 28 75  1  0
 29 76  1  0
 29 77  1  0
 30 78  1  0
 30 79  1  0
 32 80  1  0
 32 81  1  0
 32 82  1  0
M  END
>  <meeko>  (19) 
{"is_sidechain": [false], "intermolecular_energy": 2.731, "internal_energy": -0.839}

$$$$
