EPH_relaxed_0001_pdb2pqr_Repair_308_r2_0001_out
     RDKit          3D

 82 86  0  0  0  0  0  0  0  0999 V2000
    4.5660   17.2670   -0.8750 C   0  0  0  0  0  0  0  0  0  0  0  0
    3.1970   17.8930   -0.5910 C   0  0  2  0  0  0  0  0  0  0  0  0
    3.2080   18.7590    0.6840 C   0  0  0  0  0  0  0  0  0  0  0  0
    4.3500   18.4230    1.6470 C   0  0  0  0  0  0  0  0  0  0  0  0
    4.1630   19.0810    2.9800 C   0  0  2  0  0  0  0  0  0  0  0  0
    5.0820   20.1470    3.2560 O   0  0  0  0  0  0  0  0  0  0  0  0
    5.1770   18.9930    4.1060 C   0  0  0  0  0  0  0  0  0  0  0  0
    6.4520   18.2260    3.9500 C   0  0  0  0  0  0  0  0  0  0  0  0
    4.7110   19.2380    5.5080 C   0  0  0  0  0  0  0  0  0  0  0  0
    2.1410   16.8000   -0.4700 C   0  0  1  0  0  0  0  0  0  0  0  0
    0.6960   17.3650   -0.4600 C   0  0  0  0  0  0  0  0  0  0  0  0
   -0.1930   16.3320   -1.1980 C   0  0  0  0  0  0  0  0  0  0  0  0
    0.6910   15.0690   -1.3140 C   0  0  1  0  0  0  0  0  0  0  0  0
    0.5720   14.3670    0.0750 C   0  0  0  0  0  0  0  0  0  0  0  0
    0.3500   14.0910   -2.4860 C   0  0  2  0  0  0  0  0  0  0  0  0
   -1.0500   13.4570   -2.4200 C   0  0  0  0  0  0  0  0  0  0  0  0
   -1.1290   12.1590   -1.6870 C   0  0  0  0  0  0  0  0  0  0  0  0
   -0.0790   11.3850   -1.3520 C   0  0  0  0  0  0  0  0  0  0  0  0
    1.3420   11.7490   -1.8000 C   0  0  1  0  0  0  0  0  0  0  0  0
    2.0450   10.4880   -2.3680 C   0  0  0  0  0  0  0  0  0  0  0  0
    2.0230    9.3160   -1.3910 C   0  0  0  0  0  0  0  0  0  0  0  0
    0.5900    8.9470   -1.0150 C   0  0  2  0  0  0  0  0  0  0  0  0
   -0.0720    8.4300   -2.1730 O   0  0  0  0  0  0  0  0  0  0  0  0
   -0.2200   10.1420   -0.4390 C   0  0  0  0  0  0  0  0  0  0  0  0
    0.3190   10.5080    0.9660 C   0  0  0  0  0  0  0  0  0  0  0  0
   -1.6850    9.6710   -0.2340 C   0  0  0  0  0  0  0  0  0  0  0  0
    1.4640   13.0040   -2.7680 C   0  0  1  0  0  0  0  0  0  0  0  0
    1.2810   12.5520   -4.2500 C   0  0  0  0  0  0  0  0  0  0  0  0
    2.9190   13.5960   -2.6610 C   0  0  0  0  0  0  0  0  0  0  0  0
    3.1630   14.6450   -1.5600 C   0  0  0  0  0  0  0  0  0  0  0  0
    2.0870   15.7350   -1.5940 C   0  0  2  0  0  0  0  0  0  0  0  0
    2.1980   16.4740   -2.9710 C   0  0  0  0  0  0  0  0  0  0  0  0
    5.0685   17.0372    0.0761 H   0  0  0  0  0  0  0  0  0  0  0  0
    4.4328   16.3403   -1.4525 H   0  0  0  0  0  0  0  0  0  0  0  0
    5.1797   17.9739   -1.4525 H   0  0  0  0  0  0  0  0  0  0  0  0
    2.9531   18.5535   -1.4361 H   0  0  0  0  0  0  0  0  0  0  0  0
    3.3037   19.8137    0.3865 H   0  0  0  0  0  0  0  0  0  0  0  0
    2.2677   18.5568    1.2178 H   0  0  0  0  0  0  0  0  0  0  0  0
    4.3868   17.3329    1.7897 H   0  0  0  0  0  0  0  0  0  0  0  0
    5.2880   18.7954    1.2095 H   0  0  0  0  0  0  0  0  0  0  0  0
    3.0794   18.8950    2.9463 H   0  0  0  0  0  0  0  0  0  0  0  0
    6.8571   17.9823    4.9432 H   0  0  0  0  0  0  0  0  0  0  0  0
    6.2552   17.2963    3.3960 H   0  0  0  0  0  0  0  0  0  0  0  0
    7.1811   18.8355    3.3960 H   0  0  0  0  0  0  0  0  0  0  0  0
    5.4563   18.8462    6.2158 H   0  0  0  0  0  0  0  0  0  0  0  0
    4.5852   20.3189    5.6690 H   0  0  0  0  0  0  0  0  0  0  0  0
    3.7493   18.7289    5.6690 H   0  0  0  0  0  0  0  0  0  0  0  0
    2.4641   16.3350    0.4731 H   0  0  0  0  0  0  0  0  0  0  0  0
    0.3469   17.4942    0.5751 H   0  0  0  0  0  0  0  0  0  0  0  0
    0.6525   18.3473   -0.9531 H   0  0  0  0  0  0  0  0  0  0  0  0
   -1.1025   16.1175   -0.6176 H   0  0  0  0  0  0  0  0  0  0  0  0
   -0.5297   16.6971   -2.1795 H   0  0  0  0  0  0  0  0  0  0  0  0
    0.6983   15.1120    0.8744 H   0  0  0  0  0  0  0  0  0  0  0  0
   -0.4186   13.8972    0.1648 H   0  0  0  0  0  0  0  0  0  0  0  0
    1.3524   13.5970    0.1648 H   0  0  0  0  0  0  0  0  0  0  0  0
    0.3327   14.7632   -3.3566 H   0  0  0  0  0  0  0  0  0  0  0  0
   -1.7228   14.1703   -1.9214 H   0  0  0  0  0  0  0  0  0  0  0  0
   -1.3332   13.2366   -3.4598 H   0  0  0  0  0  0  0  0  0  0  0  0
   -2.1290   11.8049   -1.3960 H   0  0  0  0  0  0  0  0  0  0  0  0
    1.8666   12.0937   -0.8967 H   0  0  0  0  0  0  0  0  0  0  0  0
    1.5329   10.1854   -3.2933 H   0  0  0  0  0  0  0  0  0  0  0  0
    3.0975   10.7478   -2.5543 H   0  0  0  0  0  0  0  0  0  0  0  0
    2.5074    8.4469   -1.8601 H   0  0  0  0  0  0  0  0  0  0  0  0
    2.5615    9.6095   -0.4778 H   0  0  0  0  0  0  0  0  0  0  0  0
    0.6427    8.1913   -0.2174 H   0  0  0  0  0  0  0  0  0  0  0  0
    0.2530    7.5250   -2.3190 H   0  0  0  0  0  0  0  0  0  0  0  0
   -0.3318   10.0661    1.7349 H   0  0  0  0  0  0  0  0  0  0  0  0
    1.3403   10.1159    1.0805 H   0  0  0  0  0  0  0  0  0  0  0  0
    0.3313   11.6020    1.0805 H   0  0  0  0  0  0  0  0  0  0  0  0
   -1.9006    9.6017    0.8424 H   0  0  0  0  0  0  0  0  0  0  0  0
   -2.3711   10.3938   -0.6996 H   0  0  0  0  0  0  0  0  0  0  0  0
   -1.8213    8.6838   -0.6996 H   0  0  0  0  0  0  0  0  0  0  0  0
    0.8683   11.5326   -4.2741 H   0  0  0  0  0  0  0  0  0  0  0  0
    0.5903   13.2394   -4.7604 H   0  0  0  0  0  0  0  0  0  0  0  0
    2.2553   12.5653   -4.7604 H   0  0  0  0  0  0  0  0  0  0  0  0
    3.6070   12.7571   -2.4796 H   0  0  0  0  0  0  0  0  0  0  0  0
    3.0827   14.1301   -3.6086 H   0  0  0  0  0  0  0  0  0  0  0  0
    3.1416   14.1485   -0.5787 H   0  0  0  0  0  0  0  0  0  0  0  0
    4.1431   15.1137   -1.7327 H   0  0  0  0  0  0  0  0  0  0  0  0
    2.3594   17.5484   -2.7986 H   0  0  0  0  0  0  0  0  0  0  0  0
    3.0445   16.0628   -3.5406 H   0  0  0  0  0  0  0  0  0  0  0  0
    1.2681   16.3297   -3.5406 H   0  0  0  0  0  0  0  0  0  0  0  0
  1  2  1  0
  2  3  1  0
  3  4  1  0
  4  5  1  0
  5  6  1  0
  6  7  1  0
  7  8  1  0
  7  9  1  0
  2 10  1  0
 10 11  1  0
 11 12  1  0
 12 13  1  0
 13 14  1  1
 13 15  1  0
 15 16  1  0
 16 17  1  0
 17 18  2  0
 18 19  1  0
 19 20  1  0
 20 21  1  0
 21 22  1  0
 22 23  1  0
 22 24  1  0
 24 25  1  0
 24 26  1  0
 19 27  1  0
 27 28  1  6
 27 29  1  0
 29 30  1  0
 30 31  1  0
 31 32  1  6
  7  5  1  0
 31 10  1  0
 31 13  1  0
 27 15  1  0
 24 18  1  0
  1 33  1  0
  1 34  1  0
  1 35  1  0
  2 36  1  6
  3 37  1  0
  3 38  1  0
  4 39  1  0
  4 40  1  0
  5 41  1  1
  8 42  1  0
  8 43  1  0
  8 44  1  0
  9 45  1  0
  9 46  1  0
  9 47  1  0
 10 48  1  1
 11 49  1  0
 11 50  1  0
 12 51  1  0
 12 52  1  0
 14 53  1  0
 14 54  1  0
 14 55  1  0
 15 56  1  6
 16 57  1  0
 16 58  1  0
 17 59  1  0
 19 60  1  1
 20 61  1  0
 20 62  1  0
 21 63  1  0
 21 64  1  0
 22 65  1  1
 23 66  1  0
 25 67  1  0
 25 68  1  0
 25 69  1  0
 26 70  1  0
 26 71  1  0
 26 72  1  0
 28 73  1  0
 28 74  1  0
 28 75  1  0
 29 76  1  0
 29 77  1  0
 30 78  1  0
 30 79  1  0
 32 80  1  0
 32 81  1  0
 32 82  1  0
M  END
>  <meeko>  (1) 
{"is_sidechain": [false], "intermolecular_energy": 2.731, "internal_energy": -0.839}

$$$$
EPH_relaxed_0001_pdb2pqr_Repair_308_r2_0001_out
     RDKit          3D

 82 86  0  0  0  0  0  0  0  0999 V2000
    2.3970   17.2370   -0.4460 C   0  0  0  0  0  0  0  0  0  0  0  0
    1.8820   17.3620   -1.8830 C   0  0  2  0  0  0  0  0  0  0  0  0
    0.9500   18.5770   -2.0620 C   0  0  0  0  0  0  0  0  0  0  0  0
    1.0290   19.5880   -0.9150 C   0  0  0  0  0  0  0  0  0  0  0  0
   -0.3190   20.1510   -0.5780 C   0  0  2  0  0  0  0  0  0  0  0  0
   -0.6180   20.1890    0.8240 O   0  0  0  0  0  0  0  0  0  0  0  0
   -1.4430   19.3270    0.0230 C   0  0  0  0  0  0  0  0  0  0  0  0
   -1.2700   17.8710    0.3210 C   0  0  0  0  0  0  0  0  0  0  0  0
   -2.8490   19.8140   -0.1340 C   0  0  0  0  0  0  0  0  0  0  0  0
    1.1560   16.0840   -2.2870 C   0  0  1  0  0  0  0  0  0  0  0  0
    0.7690   16.0670   -3.7900 C   0  0  0  0  0  0  0  0  0  0  0  0
    0.8960   14.5980   -4.2680 C   0  0  0  0  0  0  0  0  0  0  0  0
    1.0260   13.7740   -2.9660 C   0  0  1  0  0  0  0  0  0  0  0  0
   -0.4360   13.6100   -2.4470 C   0  0  0  0  0  0  0  0  0  0  0  0
    1.7520   12.3940   -3.0910 C   0  0  2  0  0  0  0  0  0  0  0  0
    1.0600   11.3730   -4.0100 C   0  0  0  0  0  0  0  0  0  0  0  0
    0.0740   10.4760   -3.3370 C   0  0  0  0  0  0  0  0  0  0  0  0
   -0.0380   10.2940   -2.0090 C   0  0  0  0  0  0  0  0  0  0  0  0
    0.9480   10.9540   -1.0370 C   0  0  1  0  0  0  0  0  0  0  0  0
    1.4260    9.9090    0.0050 C   0  0  0  0  0  0  0  0  0  0  0  0
    0.2660    9.2270    0.7250 C   0  0  0  0  0  0  0  0  0  0  0  0
   -0.6610    8.5330   -0.2700 C   0  0  2  0  0  0  0  0  0  0  0  0
    0.0440    7.4450   -0.8750 O   0  0  0  0  0  0  0  0  0  0  0  0
   -1.1980    9.4860   -1.3750 C   0  0  0  0  0  0  0  0  0  0  0  0
   -2.2050   10.4860   -0.7550 C   0  0  0  0  0  0  0  0  0  0  0  0
   -2.0030    8.6320   -2.3910 C   0  0  0  0  0  0  0  0  0  0  0  0
    2.1540   11.7460   -1.7040 C   0  0  1  0  0  0  0  0  0  0  0  0
    3.3350   10.7700   -1.9950 C   0  0  0  0  0  0  0  0  0  0  0  0
    2.6990   12.8110   -0.6810 C   0  0  0  0  0  0  0  0  0  0  0  0
    2.0190   14.1930   -0.6880 C   0  0  0  0  0  0  0  0  0  0  0  0
    1.9190   14.7470   -2.1130 C   0  0  2  0  0  0  0  0  0  0  0  0
    3.3760   14.9430   -2.6530 C   0  0  0  0  0  0  0  0  0  0  0  0
    1.5747   17.4366    0.2569 H   0  0  0  0  0  0  0  0  0  0  0  0
    2.7812   16.2195   -0.2814 H   0  0  0  0  0  0  0  0  0  0  0  0
    3.2049   17.9651   -0.2814 H   0  0  0  0  0  0  0  0  0  0  0  0
    2.7540   17.5165   -2.5355 H   0  0  0  0  0  0  0  0  0  0  0  0
    1.2233   19.0896   -2.9961 H   0  0  0  0  0  0  0  0  0  0  0  0
   -0.0802   18.1918   -2.0803 H   0  0  0  0  0  0  0  0  0  0  0  0
    1.4384   19.0867   -0.0256 H   0  0  0  0  0  0  0  0  0  0  0  0
    1.6772   20.4177   -1.2334 H   0  0  0  0  0  0  0  0  0  0  0  0
   -0.2813   20.8252   -1.4464 H   0  0  0  0  0  0  0  0  0  0  0  0
   -1.2520   17.7193    1.4103 H   0  0  0  0  0  0  0  0  0  0  0  0
   -2.1073   17.3057   -0.1141 H   0  0  0  0  0  0  0  0  0  0  0  0
   -0.3235   17.5176   -0.1141 H   0  0  0  0  0  0  0  0  0  0  0  0
   -3.2964   19.9690    0.8589 H   0  0  0  0  0  0  0  0  0  0  0  0
   -2.8482   20.7642   -0.6882 H   0  0  0  0  0  0  0  0  0  0  0  0
   -3.4361   19.0669   -0.6882 H   0  0  0  0  0  0  0  0  0  0  0  0
    0.3066   16.1260   -1.5893 H   0  0  0  0  0  0  0  0  0  0  0  0
   -0.2651   16.4192   -3.9189 H   0  0  0  0  0  0  0  0  0  0  0  0
    1.4240   16.7303   -4.3740 H   0  0  0  0  0  0  0  0  0  0  0  0
    0.0017   14.2945   -4.8320 H   0  0  0  0  0  0  0  0  0  0  0  0
    1.7529   14.4512   -4.9419 H   0  0  0  0  0  0  0  0  0  0  0  0
   -0.4367   13.6099   -1.3470 H   0  0  0  0  0  0  0  0  0  0  0  0
   -1.0512   14.4448   -2.8140 H   0  0  0  0  0  0  0  0  0  0  0  0
   -0.8509   12.6597   -2.8140 H   0  0  0  0  0  0  0  0  0  0  0  0
    2.6887   12.6651   -3.6001 H   0  0  0  0  0  0  0  0  0  0  0  0
    0.5313   11.9287   -4.7985 H   0  0  0  0  0  0  0  0  0  0  0  0
    1.8567   10.7178   -4.3921 H   0  0  0  0  0  0  0  0  0  0  0  0
   -0.6196    9.9166   -3.9820 H   0  0  0  0  0  0  0  0  0  0  0  0
    0.3874   11.7548   -0.5325 H   0  0  0  0  0  0  0  0  0  0  0  0
    2.0199    9.1413   -0.5126 H   0  0  0  0  0  0  0  0  0  0  0  0
    2.0220   10.4405    0.7614 H   0  0  0  0  0  0  0  0  0  0  0  0
    0.6666    8.4795    1.4256 H   0  0  0  0  0  0  0  0  0  0  0  0
   -0.3096    9.9920    1.2667 H   0  0  0  0  0  0  0  0  0  0  0  0
   -1.5380    8.1762    0.2900 H   0  0  0  0  0  0  0  0  0  0  0  0
   -0.3990    7.2370   -1.7140 H   0  0  0  0  0  0  0  0  0  0  0  0
   -2.1488   10.4302    0.3421 H   0  0  0  0  0  0  0  0  0  0  0  0
   -1.9579   11.5063   -1.0834 H   0  0  0  0  0  0  0  0  0  0  0  0
   -3.2236   10.2317   -1.0834 H   0  0  0  0  0  0  0  0  0  0  0  0
   -2.6587    7.9363   -1.8469 H   0  0  0  0  0  0  0  0  0  0  0  0
   -2.6139    9.2933   -3.0230 H   0  0  0  0  0  0  0  0  0  0  0  0
   -1.3068    8.0612   -3.0230 H   0  0  0  0  0  0  0  0  0  0  0  0
    3.7618   10.4172   -1.0445 H   0  0  0  0  0  0  0  0  0  0  0  0
    2.9659    9.9098   -2.5729 H   0  0  0  0  0  0  0  0  0  0  0  0
    4.1102   11.2945   -2.5729 H   0  0  0  0  0  0  0  0  0  0  0  0
    2.5866   12.3900    0.3290 H   0  0  0  0  0  0  0  0  0  0  0  0
    3.7379   13.0001   -0.9889 H   0  0  0  0  0  0  0  0  0  0  0  0
    1.0073   14.0985   -0.2667 H   0  0  0  0  0  0  0  0  0  0  0  0
    2.6242   14.8851   -0.0840 H   0  0  0  0  0  0  0  0  0  0  0  0
    4.0715   15.0366   -1.8059 H   0  0  0  0  0  0  0  0  0  0  0  0
    3.6597   14.0749   -3.2662 H   0  0  0  0  0  0  0  0  0  0  0  0
    3.4202   15.8552   -3.2662 H   0  0  0  0  0  0  0  0  0  0  0  0
  1  2  1  0
  2  3  1  0
  3  4  1  0
  4  5  1  0
  5  6  1  0
  6  7  1  0
  7  8  1  0
  7  9  1  0
  2 10  1  0
 10 11  1  0
 11 12  1  0
 12 13  1  0
 13 14  1  1
 13 15  1  0
 15 16  1  0
 16 17  1  0
 17 18  2  0
 18 19  1  0
 19 20  1  0
 20 21  1  0
 21 22  1  0
 22 23  1  0
 22 24  1  0
 24 25  1  0
 24 26  1  0
 19 27  1  0
 27 28  1  6
 27 29  1  0
 29 30  1  0
 30 31  1  0
 31 32  1  6
  7  5  1  0
 31 10  1  0
 31 13  1  0
 27 15  1  0
 24 18  1  0
  1 33  1  0
  1 34  1  0
  1 35  1  0
  2 36  1  6
  3 37  1  0
  3 38  1  0
  4 39  1  0
  4 40  1  0
  5 41  1  6
  8 42  1  0
  8 43  1  0
  8 44  1  0
  9 45  1  0
  9 46  1  0
  9 47  1  0
 10 48  1  1
 11 49  1  0
 11 50  1  0
 12 51  1  0
 12 52  1  0
 14 53  1  0
 14 54  1  0
 14 55  1  0
 15 56  1  6
 16 57  1  0
 16 58  1  0
 17 59  1  0
 19 60  1  1
 20 61  1  0
 20 62  1  0
 21 63  1  0
 21 64  1  0
 22 65  1  1
 23 66  1  0
 25 67  1  0
 25 68  1  0
 25 69  1  0
 26 70  1  0
 26 71  1  0
 26 72  1  0
 28 73  1  0
 28 74  1  0
 28 75  1  0
 29 76  1  0
 29 77  1  0
 30 78  1  0
 30 79  1  0
 32 80  1  0
 32 81  1  0
 32 82  1  0
M  END
>  <meeko>  (2) 
{"is_sidechain": [false], "intermolecular_energy": 2.731, "internal_energy": -0.839}

$$$$
EPH_relaxed_0001_pdb2pqr_Repair_308_r2_0001_out
     RDKit          3D

 82 86  0  0  0  0  0  0  0  0999 V2000
   -0.9530    8.2110   -1.5760 C   0  0  0  0  0  0  0  0  0  0  0  0
   -1.0830    9.1850   -0.4030 C   0  0  2  0  0  0  0  0  0  0  0  0
   -2.4460    9.9050   -0.3930 C   0  0  0  0  0  0  0  0  0  0  0  0
   -3.6250    8.9860   -0.0620 C   0  0  0  0  0  0  0  0  0  0  0  0
   -4.4460    8.6790   -1.2770 C   0  0  2  0  0  0  0  0  0  0  0  0
   -5.8410    8.9870   -1.1510 O   0  0  0  0  0  0  0  0  0  0  0  0
   -5.5110    7.5980   -1.3160 C   0  0  0  0  0  0  0  0  0  0  0  0
   -5.8110    6.7550   -0.1160 C   0  0  0  0  0  0  0  0  0  0  0  0
   -5.9130    7.0360   -2.6440 C   0  0  0  0  0  0  0  0  0  0  0  0
    0.0460   10.2080   -0.4500 C   0  0  1  0  0  0  0  0  0  0  0  0
    1.4510    9.5510   -0.3880 C   0  0  0  0  0  0  0  0  0  0  0  0
    2.3870   10.4110   -1.2750 C   0  0  0  0  0  0  0  0  0  0  0  0
    1.5850   11.7050   -1.5480 C   0  0  1  0  0  0  0  0  0  0  0  0
    1.7870   12.5790   -0.2700 C   0  0  0  0  0  0  0  0  0  0  0  0
    1.9590   12.4890   -2.8480 C   0  0  2  0  0  0  0  0  0  0  0  0
    3.4000   13.0280   -2.8930 C   0  0  0  0  0  0  0  0  0  0  0  0
    3.5830   14.4050   -2.3470 C   0  0  0  0  0  0  0  0  0  0  0  0
    2.5970   15.2870   -2.1020 C   0  0  0  0  0  0  0  0  0  0  0  0
    1.1430   14.9660   -2.4720 C   0  0  1  0  0  0  0  0  0  0  0  0
    0.5110   16.1840   -3.1950 C   0  0  0  0  0  0  0  0  0  0  0  0
    0.6370   17.4730   -2.3880 C   0  0  0  0  0  0  0  0  0  0  0  0
    2.1000   17.7890   -2.0900 C   0  0  2  0  0  0  0  0  0  0  0  0
    2.7640   18.0980   -3.3200 O   0  0  0  0  0  0  0  0  0  0  0  0
    2.8440   16.6300   -1.3710 C   0  0  0  0  0  0  0  0  0  0  0  0
    2.3190   16.4960    0.0800 C   0  0  0  0  0  0  0  0  0  0  0  0
    4.3420   17.0210   -1.2570 C   0  0  0  0  0  0  0  0  0  0  0  0
    0.9130   13.6030   -3.2570 C   0  0  1  0  0  0  0  0  0  0  0  0
    1.0860   13.8360   -4.7890 C   0  0  0  0  0  0  0  0  0  0  0  0
   -0.5750   13.1330   -3.0450 C   0  0  0  0  0  0  0  0  0  0  0  0
   -0.8590   12.2620   -1.8070 C   0  0  0  0  0  0  0  0  0  0  0  0
    0.1410   11.1050   -1.7090 C   0  0  2  0  0  0  0  0  0  0  0  0
   -0.0540   10.1970   -2.9710 C   0  0  0  0  0  0  0  0  0  0  0  0
   -0.8167    7.1896   -1.1911 H   0  0  0  0  0  0  0  0  0  0  0  0
   -1.8647    8.2528   -2.1901 H   0  0  0  0  0  0  0  0  0  0  0  0
   -0.0842    8.4904   -2.1901 H   0  0  0  0  0  0  0  0  0  0  0  0
   -1.0144    8.5969    0.5241 H   0  0  0  0  0  0  0  0  0  0  0  0
   -2.4094   10.7074    0.3586 H   0  0  0  0  0  0  0  0  0  0  0  0
   -2.6138   10.2897   -1.4098 H   0  0  0  0  0  0  0  0  0  0  0  0
   -3.2372    8.0442    0.3536 H   0  0  0  0  0  0  0  0  0  0  0  0
   -4.2686    9.5023    0.6655 H   0  0  0  0  0  0  0  0  0  0  0  0
   -3.5944    8.9001   -1.9372 H   0  0  0  0  0  0  0  0  0  0  0  0
   -5.6057    7.3318    0.7979 H   0  0  0  0  0  0  0  0  0  0  0  0
   -6.8700    6.4580   -0.1320 H   0  0  0  0  0  0  0  0  0  0  0  0
   -5.1777    5.8557   -0.1320 H   0  0  0  0  0  0  0  0  0  0  0  0
   -6.5467    6.1501   -2.4906 H   0  0  0  0  0  0  0  0  0  0  0  0
   -6.4743    7.7950   -3.2086 H   0  0  0  0  0  0  0  0  0  0  0  0
   -5.0133    6.7500   -3.2086 H   0  0  0  0  0  0  0  0  0  0  0  0
   -0.2207   10.8166    0.4266 H   0  0  0  0  0  0  0  0  0  0  0  0
    1.8179    9.5387    0.6489 H   0  0  0  0  0  0  0  0  0  0  0  0
    1.4163    8.5106   -0.7436 H   0  0  0  0  0  0  0  0  0  0  0  0
    3.3233   10.6390   -0.7446 H   0  0  0  0  0  0  0  0  0  0  0  0
    2.6736    9.8942   -2.2028 H   0  0  0  0  0  0  0  0  0  0  0  0
    1.6433   11.9572    0.6259 H   0  0  0  0  0  0  0  0  0  0  0  0
    2.8051   12.9955   -0.2678 H   0  0  0  0  0  0  0  0  0  0  0  0
    1.0549   13.4000   -0.2678 H   0  0  0  0  0  0  0  0  0  0  0  0
    1.9083   11.7055   -3.6184 H   0  0  0  0  0  0  0  0  0  0  0  0
    4.0368   12.3446   -2.3121 H   0  0  0  0  0  0  0  0  0  0  0  0
    3.6707   13.0844   -3.9577 H   0  0  0  0  0  0  0  0  0  0  0  0
    4.6116   14.7261   -2.1261 H   0  0  0  0  0  0  0  0  0  0  0  0
    0.6200   14.7847   -1.5214 H   0  0  0  0  0  0  0  0  0  0  0  0
    1.0175   16.3221   -4.1616 H   0  0  0  0  0  0  0  0  0  0  0  0
   -0.5610   15.9754   -3.3261 H   0  0  0  0  0  0  0  0  0  0  0  0
    0.1996   18.3022   -2.9634 H   0  0  0  0  0  0  0  0  0  0  0  0
    0.1044   17.3437   -1.4343 H   0  0  0  0  0  0  0  0  0  0  0  0
    2.1185   18.6467   -1.4016 H   0  0  0  0  0  0  0  0  0  0  0  0
    2.4370   18.9620   -3.6220 H   0  0  0  0  0  0  0  0  0  0  0  0
    3.1361   16.7046    0.7863 H   0  0  0  0  0  0  0  0  0  0  0  0
    1.5019   17.2144    0.2421 H   0  0  0  0  0  0  0  0  0  0  0  0
    1.9461   15.4739    0.2421 H   0  0  0  0  0  0  0  0  0  0  0  0
    4.6221   17.0941   -0.1958 H   0  0  0  0  0  0  0  0  0  0  0  0
    4.9595   16.2539   -1.7472 H   0  0  0  0  0  0  0  0  0  0  0  0
    4.5058   17.9920   -1.7472 H   0  0  0  0  0  0  0  0  0  0  0  0
    1.7341   14.7089   -4.9562 H   0  0  0  0  0  0  0  0  0  0  0  0
    1.5441   12.9463   -5.2458 H   0  0  0  0  0  0  0  0  0  0  0  0
    0.1019   14.0171   -5.2458 H   0  0  0  0  0  0  0  0  0  0  0  0
   -1.2008   14.0344   -2.9683 H   0  0  0  0  0  0  0  0  0  0  0  0
   -0.7986   12.4882   -3.9077 H   0  0  0  0  0  0  0  0  0  0  0  0
   -0.7791   12.8841   -0.9034 H   0  0  0  0  0  0  0  0  0  0  0  0
   -1.8721   11.8431   -1.8979 H   0  0  0  0  0  0  0  0  0  0  0  0
   -0.2750    9.1678   -2.6516 H   0  0  0  0  0  0  0  0  0  0  0  0
   -0.8901   10.5814   -3.5737 H   0  0  0  0  0  0  0  0  0  0  0  0
    0.8662   10.2043   -3.5737 H   0  0  0  0  0  0  0  0  0  0  0  0
  1  2  1  0
  2  3  1  0
  3  4  1  0
  4  5  1  0
  5  6  1  0
  6  7  1  0
  7  8  1  0
  7  9  1  0
  2 10  1  0
 10 11  1  0
 11 12  1  0
 12 13  1  0
 13 14  1  1
 13 15  1  0
 15 16  1  0
 16 17  1  0
 17 18  2  0
 18 19  1  0
 19 20  1  0
 20 21  1  0
 21 22  1  0
 22 23  1  0
 22 24  1  0
 24 25  1  0
 24 26  1  0
 19 27  1  0
 27 28  1  6
 27 29  1  0
 29 30  1  0
 30 31  1  0
 31 32  1  6
  7  5  1  0
 31 10  1  0
 31 13  1  0
 27 15  1  0
 24 18  1  0
  1 33  1  0
  1 34  1  0
  1 35  1  0
  2 36  1  1
  3 37  1  0
  3 38  1  0
  4 39  1  0
  4 40  1  0
  5 41  1  6
  8 42  1  0
  8 43  1  0
  8 44  1  0
  9 45  1  0
  9 46  1  0
  9 47  1  0
 10 48  1  1
 11 49  1  0
 11 50  1  0
 12 51  1  0
 12 52  1  0
 14 53  1  0
 14 54  1  0
 14 55  1  0
 15 56  1  6
 16 57  1  0
 16 58  1  0
 17 59  1  0
 19 60  1  1
 20 61  1  0
 20 62  1  0
 21 63  1  0
 21 64  1  0
 22 65  1  1
 23 66  1  0
 25 67  1  0
 25 68  1  0
 25 69  1  0
 26 70  1  0
 26 71  1  0
 26 72  1  0
 28 73  1  0
 28 74  1  0
 28 75  1  0
 29 76  1  0
 29 77  1  0
 30 78  1  0
 30 79  1  0
 32 80  1  0
 32 81  1  0
 32 82  1  0
M  END
>  <meeko>  (3) 
{"is_sidechain": [false], "intermolecular_energy": 2.731, "internal_energy": -0.839}

$$$$
EPH_relaxed_0001_pdb2pqr_Repair_308_r2_0001_out
     RDKit          3D

 82 86  0  0  0  0  0  0  0  0999 V2000
    3.8630   18.3610    0.8370 C   0  0  0  0  0  0  0  0  0  0  0  0
    2.9260   18.8100   -0.2880 C   0  0  2  0  0  0  0  0  0  0  0  0
    2.1040   20.0540    0.1030 C   0  0  0  0  0  0  0  0  0  0  0  0
    0.9320   19.7480    1.0400 C   0  0  0  0  0  0  0  0  0  0  0  0
   -0.3750   20.1940    0.4570 C   0  0  2  0  0  0  0  0  0  0  0  0
   -1.4730   20.1940    1.3780 O   0  0  0  0  0  0  0  0  0  0  0  0
   -1.5690   19.2750    0.2780 C   0  0  0  0  0  0  0  0  0  0  0  0
   -1.5120   17.8350    0.6810 C   0  0  0  0  0  0  0  0  0  0  0  0
   -2.6130   19.6460   -0.7280 C   0  0  0  0  0  0  0  0  0  0  0  0
    1.9930   17.6690   -0.6740 C   0  0  1  0  0  0  0  0  0  0  0  0
    0.8710   18.1180   -1.6480 C   0  0  0  0  0  0  0  0  0  0  0  0
    0.6050   16.9270   -2.6040 C   0  0  0  0  0  0  0  0  0  0  0  0
    1.3330   15.7300   -1.9480 C   0  0  1  0  0  0  0  0  0  0  0  0
    0.3560   15.2240   -0.8400 C   0  0  0  0  0  0  0  0  0  0  0  0
    1.7660   14.5750   -2.9080 C   0  0  2  0  0  0  0  0  0  0  0  0
    0.6110   13.8520   -3.6220 C   0  0  0  0  0  0  0  0  0  0  0  0
    0.0570   12.6680   -2.9010 C   0  0  0  0  0  0  0  0  0  0  0  0
    0.6480   12.0310   -1.8730 C   0  0  0  0  0  0  0  0  0  0  0  0
    2.0490   12.4350   -1.3980 C   0  0  1  0  0  0  0  0  0  0  0  0
    2.9160   11.1630   -1.2030 C   0  0  0  0  0  0  0  0  0  0  0  0
    2.2580   10.1420   -0.2790 C   0  0  0  0  0  0  0  0  0  0  0  0
    0.8920    9.7220   -0.8150 C   0  0  2  0  0  0  0  0  0  0  0  0
    1.0790    8.9980   -2.0360 O   0  0  0  0  0  0  0  0  0  0  0  0
   -0.0650   10.9220   -1.0600 C   0  0  0  0  0  0  0  0  0  0  0  0
   -0.5060   11.5210    0.2980 C   0  0  0  0  0  0  0  0  0  0  0  0
   -1.3530   10.3750   -1.7330 C   0  0  0  0  0  0  0  0  0  0  0  0
    2.7830   13.5460   -2.2660 C   0  0  1  0  0  0  0  0  0  0  0  0
    3.5470   12.8780   -3.4490 C   0  0  0  0  0  0  0  0  0  0  0  0
    3.8720   14.2560   -1.3780 C   0  0  0  0  0  0  0  0  0  0  0  0
    3.4080   15.4650   -0.5440 C   0  0  0  0  0  0  0  0  0  0  0  0
    2.6190   16.4550   -1.4060 C   0  0  2  0  0  0  0  0  0  0  0  0
    3.5820   16.9980   -2.5160 C   0  0  0  0  0  0  0  0  0  0  0  0
    3.4003   18.5827    1.8100 H   0  0  0  0  0  0  0  0  0  0  0  0
    4.0428   17.2789    0.7545 H   0  0  0  0  0  0  0  0  0  0  0  0
    4.8190   18.8988    0.7545 H   0  0  0  0  0  0  0  0  0  0  0  0
    3.5518   19.0856   -1.1496 H   0  0  0  0  0  0  0  0  0  0  0  0
    2.7728   20.7684    0.6053 H   0  0  0  0  0  0  0  0  0  0  0  0
    1.6759   20.4610   -0.8249 H   0  0  0  0  0  0  0  0  0  0  0  0
    0.8914   18.6632    1.2176 H   0  0  0  0  0  0  0  0  0  0  0  0
    1.0927   20.2957    1.9803 H   0  0  0  0  0  0  0  0  0  0  0  0
    0.1403   20.8773   -0.2341 H   0  0  0  0  0  0  0  0  0  0  0  0
   -1.5091   17.7612    1.7785 H   0  0  0  0  0  0  0  0  0  0  0  0
   -2.3900   17.3071    0.2804 H   0  0  0  0  0  0  0  0  0  0  0  0
   -0.5951   17.3781    0.2804 H   0  0  0  0  0  0  0  0  0  0  0  0
   -3.5257   19.9703   -0.2067 H   0  0  0  0  0  0  0  0  0  0  0  0
   -2.2396   20.4665   -1.3584 H   0  0  0  0  0  0  0  0  0  0  0  0
   -2.8411   18.7739   -1.3584 H   0  0  0  0  0  0  0  0  0  0  0  0
    1.6465   17.3681    0.3257 H   0  0  0  0  0  0  0  0  0  0  0  0
   -0.0422   18.3640   -1.0862 H   0  0  0  0  0  0  0  0  0  0  0  0
    1.1711   19.0153   -2.2091 H   0  0  0  0  0  0  0  0  0  0  0  0
   -0.4738   16.7280   -2.6857 H   0  0  0  0  0  0  0  0  0  0  0  0
    0.9627   17.1240   -3.6254 H   0  0  0  0  0  0  0  0  0  0  0  0
    0.7800   15.4436    0.1509 H   0  0  0  0  0  0  0  0  0  0  0  0
   -0.6132   15.7335   -0.9452 H   0  0  0  0  0  0  0  0  0  0  0  0
    0.2129   14.1384   -0.9452 H   0  0  0  0  0  0  0  0  0  0  0  0
    2.3120   15.1151   -3.6955 H   0  0  0  0  0  0  0  0  0  0  0  0
   -0.2054   14.5750   -3.7657 H   0  0  0  0  0  0  0  0  0  0  0  0
    1.0291   13.4666   -4.5636 H   0  0  0  0  0  0  0  0  0  0  0  0
   -0.9168   12.2835   -3.2385 H   0  0  0  0  0  0  0  0  0  0  0  0
    1.9076   12.9430   -0.4326 H   0  0  0  0  0  0  0  0  0  0  0  0
    3.0813   10.6951   -2.1847 H   0  0  0  0  0  0  0  0  0  0  0  0
    3.8632   11.4728   -0.7374 H   0  0  0  0  0  0  0  0  0  0  0  0
    2.9039    9.2547   -0.2048 H   0  0  0  0  0  0  0  0  0  0  0  0
    2.1206   10.6016    0.7109 H   0  0  0  0  0  0  0  0  0  0  0  0
    0.4157    9.0926   -0.0488 H   0  0  0  0  0  0  0  0  0  0  0  0
    1.7820    9.4440   -2.5370 H   0  0  0  0  0  0  0  0  0  0  0  0
   -0.0712   10.9304    1.1178 H   0  0  0  0  0  0  0  0  0  0  0  0
   -0.1568   12.5616    0.3705 H   0  0  0  0  0  0  0  0  0  0  0  0
   -1.6033   11.4966    0.3705 H   0  0  0  0  0  0  0  0  0  0  0  0
   -2.0709   10.0701   -0.9573 H   0  0  0  0  0  0  0  0  0  0  0  0
   -1.8014   11.1604   -2.3592 H   0  0  0  0  0  0  0  0  0  0  0  0
   -1.0992    9.5070   -2.3592 H   0  0  0  0  0  0  0  0  0  0  0  0
    4.3193   12.2027   -3.0520 H   0  0  0  0  0  0  0  0  0  0  0  0
    2.8393   12.3038   -4.0649 H   0  0  0  0  0  0  0  0  0  0  0  0
    4.0216   13.6561   -4.0649 H   0  0  0  0  0  0  0  0  0  0  0  0
    4.2740   13.5057   -0.6812 H   0  0  0  0  0  0  0  0  0  0  0  0
    4.6044   14.6624   -2.0910 H   0  0  0  0  0  0  0  0  0  0  0  0
    2.7663   15.1113    0.2765 H   0  0  0  0  0  0  0  0  0  0  0  0
    4.2958   15.9774   -0.1449 H   0  0  0  0  0  0  0  0  0  0  0  0
    4.4475   17.4860   -2.0439 H   0  0  0  0  0  0  0  0  0  0  0  0
    3.9285   16.1623   -3.1417 H   0  0  0  0  0  0  0  0  0  0  0  0
    3.0462   17.7270   -3.1417 H   0  0  0  0  0  0  0  0  0  0  0  0
  1  2  1  0
  2  3  1  0
  3  4  1  0
  4  5  1  0
  5  6  1  0
  6  7  1  0
  7  8  1  0
  7  9  1  0
  2 10  1  0
 10 11  1  0
 11 12  1  0
 12 13  1  0
 13 14  1  1
 13 15  1  0
 15 16  1  0
 16 17  1  0
 17 18  2  0
 18 19  1  0
 19 20  1  0
 20 21  1  0
 21 22  1  0
 22 23  1  0
 22 24  1  0
 24 25  1  0
 24 26  1  0
 19 27  1  0
 27 28  1  6
 27 29  1  0
 29 30  1  0
 30 31  1  0
 31 32  1  6
  7  5  1  0
 31 10  1  0
 31 13  1  0
 27 15  1  0
 24 18  1  0
  1 33  1  0
  1 34  1  0
  1 35  1  0
  2 36  1  6
  3 37  1  0
  3 38  1  0
  4 39  1  0
  4 40  1  0
  5 41  1  6
  8 42  1  0
  8 43  1  0
  8 44  1  0
  9 45  1  0
  9 46  1  0
  9 47  1  0
 10 48  1  1
 11 49  1  0
 11 50  1  0
 12 51  1  0
 12 52  1  0
 14 53  1  0
 14 54  1  0
 14 55  1  0
 15 56  1  6
 16 57  1  0
 16 58  1  0
 17 59  1  0
 19 60  1  1
 20 61  1  0
 20 62  1  0
 21 63  1  0
 21 64  1  0
 22 65  1  1
 23 66  1  0
 25 67  1  0
 25 68  1  0
 25 69  1  0
 26 70  1  0
 26 71  1  0
 26 72  1  0
 28 73  1  0
 28 74  1  0
 28 75  1  0
 29 76  1  0
 29 77  1  0
 30 78  1  0
 30 79  1  0
 32 80  1  0
 32 81  1  0
 32 82  1  0
M  END
>  <meeko>  (4) 
{"is_sidechain": [false], "intermolecular_energy": 2.731, "internal_energy": -0.839}

$$$$
EPH_relaxed_0001_pdb2pqr_Repair_308_r2_0001_out
     RDKit          3D

 82 86  0  0  0  0  0  0  0  0999 V2000
   -1.1320    8.7220   -1.8720 C   0  0  0  0  0  0  0  0  0  0  0  0
   -1.5600    9.1440   -0.4640 C   0  0  2  0  0  0  0  0  0  0  0  0
   -3.0880    9.3120   -0.3470 C   0  0  0  0  0  0  0  0  0  0  0  0
   -3.8810    8.3880   -1.2740 C   0  0  0  0  0  0  0  0  0  0  0  0
   -5.2370    8.0740   -0.7170 C   0  0  2  0  0  0  0  0  0  0  0  0
   -5.4840    6.6790   -0.4940 O   0  0  0  0  0  0  0  0  0  0  0  0
   -6.3030    7.3180   -1.4870 C   0  0  0  0  0  0  0  0  0  0  0  0
   -6.0610    6.8300   -2.8810 C   0  0  0  0  0  0  0  0  0  0  0  0
   -7.7340    7.4800   -1.0760 C   0  0  0  0  0  0  0  0  0  0  0  0
   -0.8620   10.4430   -0.0770 C   0  0  1  0  0  0  0  0  0  0  0  0
    0.0710   10.2760    1.1520 C   0  0  0  0  0  0  0  0  0  0  0  0
    1.2830   11.2170    0.9240 C   0  0  0  0  0  0  0  0  0  0  0  0
    0.8530   12.1300   -0.2480 C   0  0  1  0  0  0  0  0  0  0  0  0
   -0.0390   13.2300    0.4080 C   0  0  0  0  0  0  0  0  0  0  0  0
    2.0080   12.7530   -1.0980 C   0  0  2  0  0  0  0  0  0  0  0  0
    2.9490   13.6960   -0.3280 C   0  0  0  0  0  0  0  0  0  0  0  0
    2.5500   15.1350   -0.3290 C   0  0  0  0  0  0  0  0  0  0  0  0
    1.6450   15.6950   -1.1530 C   0  0  0  0  0  0  0  0  0  0  0  0
    0.9880   14.8790   -2.2740 C   0  0  1  0  0  0  0  0  0  0  0  0
    1.0130   15.6950   -3.5920 C   0  0  0  0  0  0  0  0  0  0  0  0
    0.3890   17.0780   -3.4360 C   0  0  0  0  0  0  0  0  0  0  0  0
    1.1060   17.8810   -2.3530 C   0  0  2  0  0  0  0  0  0  0  0  0
    2.4380   18.1620   -2.7940 O   0  0  0  0  0  0  0  0  0  0  0  0
    1.1530   17.1530   -0.9810 C   0  0  0  0  0  0  0  0  0  0  0  0
   -0.2660   17.1170   -0.3620 C   0  0  0  0  0  0  0  0  0  0  0  0
    2.0250   18.0050   -0.0180 C   0  0  0  0  0  0  0  0  0  0  0  0
    1.5330   13.3970   -2.4630 C   0  0  1  0  0  0  0  0  0  0  0  0
    2.7730   13.4030   -3.4080 C   0  0  0  0  0  0  0  0  0  0  0  0
    0.4310   12.5320   -3.1810 C   0  0  0  0  0  0  0  0  0  0  0  0
   -0.6110   11.8450   -2.2780 C   0  0  0  0  0  0  0  0  0  0  0  0
    0.0690   11.0920   -1.1310 C   0  0  2  0  0  0  0  0  0  0  0  0
    0.9560    9.9630   -1.7590 C   0  0  0  0  0  0  0  0  0  0  0  0
   -0.3503    7.9513   -1.8020 H   0  0  0  0  0  0  0  0  0  0  0  0
   -1.9997    8.3162   -2.4128 H   0  0  0  0  0  0  0  0  0  0  0  0
   -0.7385    9.5953   -2.4128 H   0  0  0  0  0  0  0  0  0  0  0  0
   -1.2628    8.3413    0.2270 H   0  0  0  0  0  0  0  0  0  0  0  0
   -3.3824    9.0984    0.6911 H   0  0  0  0  0  0  0  0  0  0  0  0
   -3.3218   10.3446   -0.6454 H   0  0  0  0  0  0  0  0  0  0  0  0
   -4.0020    8.8807   -2.2500 H   0  0  0  0  0  0  0  0  0  0  0  0
   -3.3249    7.4443   -1.3748 H   0  0  0  0  0  0  0  0  0  0  0  0
   -5.2593    9.0280   -0.1698 H   0  0  0  0  0  0  0  0  0  0  0  0
   -5.5726    5.8450   -2.8451 H   0  0  0  0  0  0  0  0  0  0  0  0
   -7.0209    6.7441   -3.4112 H   0  0  0  0  0  0  0  0  0  0  0  0
   -5.4116    7.5422   -3.4112 H   0  0  0  0  0  0  0  0  0  0  0  0
   -7.8015    7.4876    0.0219 H   0  0  0  0  0  0  0  0  0  0  0  0
   -8.1247    8.4281   -1.4740 H   0  0  0  0  0  0  0  0  0  0  0  0
   -8.3268    6.6432   -1.4740 H   0  0  0  0  0  0  0  0  0  0  0  0
   -1.7416   11.0818    0.0914 H   0  0  0  0  0  0  0  0  0  0  0  0
   -0.4606   10.5590    2.0725 H   0  0  0  0  0  0  0  0  0  0  0  0
    0.3970    9.2312    1.2617 H   0  0  0  0  0  0  0  0  0  0  0  0
    1.4870   11.8129    1.8258 H   0  0  0  0  0  0  0  0  0  0  0  0
    2.2065   10.6617    0.7031 H   0  0  0  0  0  0  0  0  0  0  0  0
    0.0260   13.1498    1.5031 H   0  0  0  0  0  0  0  0  0  0  0  0
    0.3118   14.2234    0.0916 H   0  0  0  0  0  0  0  0  0  0  0  0
   -1.0834   13.0920    0.0916 H   0  0  0  0  0  0  0  0  0  0  0  0
    2.6140   11.8718   -1.3552 H   0  0  0  0  0  0  0  0  0  0  0  0
    2.9909   13.3555    0.7171 H   0  0  0  0  0  0  0  0  0  0  0  0
    3.9183   13.6484   -0.8458 H   0  0  0  0  0  0  0  0  0  0  0  0
    3.0369   15.7930    0.4058 H   0  0  0  0  0  0  0  0  0  0  0  0
   -0.0526   14.7121   -1.9589 H   0  0  0  0  0  0  0  0  0  0  0  0
    2.0583   15.8141   -3.9132 H   0  0  0  0  0  0  0  0  0  0  0  0
    0.4206   15.1437   -4.3371 H   0  0  0  0  0  0  0  0  0  0  0  0
    0.4635   17.6165   -4.3923 H   0  0  0  0  0  0  0  0  0  0  0  0
   -0.6646   16.9570   -3.1439 H   0  0  0  0  0  0  0  0  0  0  0  0
    0.5349   18.8081   -2.1968 H   0  0  0  0  0  0  0  0  0  0  0  0
    2.8690   18.6980   -2.1070 H   0  0  0  0  0  0  0  0  0  0  0  0
   -0.1876   17.1190    0.7352 H   0  0  0  0  0  0  0  0  0  0  0  0
   -0.8320   18.0011   -0.6907 H   0  0  0  0  0  0  0  0  0  0  0  0
   -0.7864   16.2054   -0.6907 H   0  0  0  0  0  0  0  0  0  0  0  0
    1.7710   17.7568    1.0231 H   0  0  0  0  0  0  0  0  0  0  0  0
    3.0884   17.7883   -0.1976 H   0  0  0  0  0  0  0  0  0  0  0  0
    1.8330   19.0731   -0.1976 H   0  0  0  0  0  0  0  0  0  0  0  0
    3.6932   13.4075   -2.8054 H   0  0  0  0  0  0  0  0  0  0  0  0
    2.7547   12.5048   -4.0427 H   0  0  0  0  0  0  0  0  0  0  0  0
    2.7460   14.3010   -4.0427 H   0  0  0  0  0  0  0  0  0  0  0  0
   -0.1122   13.1927   -3.8727 H   0  0  0  0  0  0  0  0  0  0  0  0
    0.9799   11.7100   -3.6637 H   0  0  0  0  0  0  0  0  0  0  0  0
   -1.2830   12.6084   -1.8589 H   0  0  0  0  0  0  0  0  0  0  0  0
   -1.1785   11.1231   -2.8837 H   0  0  0  0  0  0  0  0  0  0  0  0
    1.4203    9.3720   -0.9558 H   0  0  0  0  0  0  0  0  0  0  0  0
    0.3289    9.3074   -2.3810 H   0  0  0  0  0  0  0  0  0  0  0  0
    1.7414   10.4171   -2.3810 H   0  0  0  0  0  0  0  0  0  0  0  0
  1  2  1  0
  2  3  1  0
  3  4  1  0
  4  5  1  0
  5  6  1  0
  6  7  1  0
  7  8  1  0
  7  9  1  0
  2 10  1  0
 10 11  1  0
 11 12  1  0
 12 13  1  0
 13 14  1  1
 13 15  1  0
 15 16  1  0
 16 17  1  0
 17 18  2  0
 18 19  1  0
 19 20  1  0
 20 21  1  0
 21 22  1  0
 22 23  1  0
 22 24  1  0
 24 25  1  0
 24 26  1  0
 19 27  1  0
 27 28  1  6
 27 29  1  0
 29 30  1  0
 30 31  1  0
 31 32  1  6
  7  5  1  0
 31 10  1  0
 31 13  1  0
 27 15  1  0
 24 18  1  0
  1 33  1  0
  1 34  1  0
  1 35  1  0
  2 36  1  1
  3 37  1  0
  3 38  1  0
  4 39  1  0
  4 40  1  0
  5 41  1  1
  8 42  1  0
  8 43  1  0
  8 44  1  0
  9 45  1  0
  9 46  1  0
  9 47  1  0
 10 48  1  1
 11 49  1  0
 11 50  1  0
 12 51  1  0
 12 52  1  0
 14 53  1  0
 14 54  1  0
 14 55  1  0
 15 56  1  6
 16 57  1  0
 16 58  1  0
 17 59  1  0
 19 60  1  1
 20 61  1  0
 20 62  1  0
 21 63  1  0
 21 64  1  0
 22 65  1  1
 23 66  1  0
 25 67  1  0
 25 68  1  0
 25 69  1  0
 26 70  1  0
 26 71  1  0
 26 72  1  0
 28 73  1  0
 28 74  1  0
 28 75  1  0
 29 76  1  0
 29 77  1  0
 30 78  1  0
 30 79  1  0
 32 80  1  0
 32 81  1  0
 32 82  1  0
M  END
>  <meeko>  (5) 
{"is_sidechain": [false], "intermolecular_energy": 2.731, "internal_energy": -0.839}

$$$$
EPH_relaxed_0001_pdb2pqr_Repair_308_r2_0001_out
     RDKit          3D

 82 86  0  0  0  0  0  0  0  0999 V2000
    2.5530   18.0510   -2.4760 C   0  0  0  0  0  0  0  0  0  0  0  0
    1.8020   17.3760   -1.3250 C   0  0  2  0  0  0  0  0  0  0  0  0
    2.7380   17.0130   -0.1550 C   0  0  0  0  0  0  0  0  0  0  0  0
    3.7620   18.1020    0.1760 C   0  0  0  0  0  0  0  0  0  0  0  0
    3.5040   18.7160    1.5190 C   0  0  2  0  0  0  0  0  0  0  0  0
    3.8870   20.0930    1.6310 O   0  0  0  0  0  0  0  0  0  0  0  0
    4.6060   19.1650    2.4590 C   0  0  0  0  0  0  0  0  0  0  0  0
    6.0500   19.0180    2.0950 C   0  0  0  0  0  0  0  0  0  0  0  0
    4.2950   19.2920    3.9180 C   0  0  0  0  0  0  0  0  0  0  0  0
    1.0910   16.1270   -1.8300 C   0  0  1  0  0  0  0  0  0  0  0  0
    0.6910   16.2310   -3.3260 C   0  0  0  0  0  0  0  0  0  0  0  0
    0.8350   14.8090   -3.9280 C   0  0  0  0  0  0  0  0  0  0  0  0
    0.9870   13.8800   -2.7000 C   0  0  1  0  0  0  0  0  0  0  0  0
   -0.4690   13.6520   -2.1870 C   0  0  0  0  0  0  0  0  0  0  0  0
    1.7310   12.5270   -2.9460 C   0  0  2  0  0  0  0  0  0  0  0  0
    1.0450   11.5770   -3.9430 C   0  0  0  0  0  0  0  0  0  0  0  0
    0.0770   10.6120   -3.3420 C   0  0  0  0  0  0  0  0  0  0  0  0
   -0.0220   10.3170   -2.0320 C   0  0  0  0  0  0  0  0  0  0  0  0
    0.9640   10.9070   -1.0150 C   0  0  1  0  0  0  0  0  0  0  0  0
    1.4650    9.7850   -0.0680 C   0  0  0  0  0  0  0  0  0  0  0  0
    0.3200    9.0290    0.5990 C   0  0  0  0  0  0  0  0  0  0  0  0
   -0.6050    8.4080   -0.4440 C   0  0  2  0  0  0  0  0  0  0  0  0
    0.1100    7.3840   -1.1430 O   0  0  0  0  0  0  0  0  0  0  0  0
   -1.1640    9.4420   -1.4600 C   0  0  0  0  0  0  0  0  0  0  0  0
   -2.1800   10.3720   -0.7510 C   0  0  0  0  0  0  0  0  0  0  0  0
   -1.9660    8.6650   -2.5390 C   0  0  0  0  0  0  0  0  0  0  0  0
    2.1530   11.7690   -1.6220 C   0  0  1  0  0  0  0  0  0  0  0  0
    3.3450   10.8390   -2.0020 C   0  0  0  0  0  0  0  0  0  0  0  0
    2.6920   12.7520   -0.5160 C   0  0  0  0  0  0  0  0  0  0  0  0
    1.9930   14.1210   -0.4030 C   0  0  0  0  0  0  0  0  0  0  0  0
    1.8730   14.7910   -1.7750 C   0  0  2  0  0  0  0  0  0  0  0  0
    3.3230   15.0530   -2.3070 C   0  0  0  0  0  0  0  0  0  0  0  0
    3.3127   18.7338   -2.0677 H   0  0  0  0  0  0  0  0  0  0  0  0
    3.0433   17.2841   -3.0936 H   0  0  0  0  0  0  0  0  0  0  0  0
    1.8425   18.6201   -3.0936 H   0  0  0  0  0  0  0  0  0  0  0  0
    1.0626   18.0963   -0.9449 H   0  0  0  0  0  0  0  0  0  0  0  0
    2.1225   16.8322    0.7386 H   0  0  0  0  0  0  0  0  0  0  0  0
    3.3050   16.1219   -0.4621 H   0  0  0  0  0  0  0  0  0  0  0  0
    4.7682   17.6575    0.1746 H   0  0  0  0  0  0  0  0  0  0  0  0
    3.6794   18.8928   -0.5841 H   0  0  0  0  0  0  0  0  0  0  0  0
    2.6223   18.0755    1.6686 H   0  0  0  0  0  0  0  0  0  0  0  0
    6.6548   18.9564    3.0118 H   0  0  0  0  0  0  0  0  0  0  0  0
    6.1874   18.1012    1.5028 H   0  0  0  0  0  0  0  0  0  0  0  0
    6.3693   19.8883    1.5028 H   0  0  0  0  0  0  0  0  0  0  0  0
    5.1545   18.9410    4.5080 H   0  0  0  0  0  0  0  0  0  0  0  0
    4.0906   20.3456    4.1590 H   0  0  0  0  0  0  0  0  0  0  0  0
    3.4115   18.6827    4.1590 H   0  0  0  0  0  0  0  0  0  0  0  0
    0.2474   16.0981   -1.1246 H   0  0  0  0  0  0  0  0  0  0  0  0
   -0.3492   16.5771   -3.4167 H   0  0  0  0  0  0  0  0  0  0  0  0
    1.3312   16.9511   -3.8567 H   0  0  0  0  0  0  0  0  0  0  0  0
   -0.0594   14.5409   -4.5096 H   0  0  0  0  0  0  0  0  0  0  0  0
    1.6883   14.7321   -4.6179 H   0  0  0  0  0  0  0  0  0  0  0  0
   -0.4743   13.6512   -1.0870 H   0  0  0  0  0  0  0  0  0  0  0  0
   -1.1185   14.4594   -2.5562 H   0  0  0  0  0  0  0  0  0  0  0  0
   -0.8406   12.6847   -2.5562 H   0  0  0  0  0  0  0  0  0  0  0  0
    2.6597   12.8545   -3.4361 H   0  0  0  0  0  0  0  0  0  0  0  0
    0.5022   12.1897   -4.6778 H   0  0  0  0  0  0  0  0  0  0  0  0
    1.8476   10.9678   -4.3842 H   0  0  0  0  0  0  0  0  0  0  0  0
   -0.6136   10.0987   -4.0273 H   0  0  0  0  0  0  0  0  0  0  0  0
    0.3972   11.6546   -0.4406 H   0  0  0  0  0  0  0  0  0  0  0  0
    2.0653    9.0721   -0.6523 H   0  0  0  0  0  0  0  0  0  0  0  0
    2.0601   10.2591    0.7264 H   0  0  0  0  0  0  0  0  0  0  0  0
    0.7359    8.2311    1.2318 H   0  0  0  0  0  0  0  0  0  0  0  0
   -0.2618    9.7380    1.2063 H   0  0  0  0  0  0  0  0  0  0  0  0
   -1.4726    7.9928    0.0898 H   0  0  0  0  0  0  0  0  0  0  0  0
    0.6530    7.8170   -1.8240 H   0  0  0  0  0  0  0  0  0  0  0  0
   -2.0704   10.2716    0.3389 H   0  0  0  0  0  0  0  0  0  0  0  0
   -1.9891   11.4149   -1.0442 H   0  0  0  0  0  0  0  0  0  0  0  0
   -3.2020   10.0899   -1.0442 H   0  0  0  0  0  0  0  0  0  0  0  0
   -2.6730    7.9801   -2.0480 H   0  0  0  0  0  0  0  0  0  0  0  0
   -2.5215    9.3773   -3.1667 H   0  0  0  0  0  0  0  0  0  0  0  0
   -1.2716    8.0872   -3.1667 H   0  0  0  0  0  0  0  0  0  0  0  0
    3.8247   10.4648   -1.0856 H   0  0  0  0  0  0  0  0  0  0  0  0
    2.9732    9.9899   -2.5943 H   0  0  0  0  0  0  0  0  0  0  0  0
    4.0782   11.4061   -2.5943 H   0  0  0  0  0  0  0  0  0  0  0  0
    2.5926   12.2463    0.4558 H   0  0  0  0  0  0  0  0  0  0  0  0
    3.7262   12.9804   -0.8130 H   0  0  0  0  0  0  0  0  0  0  0  0
    0.9863   13.9773    0.0164 H   0  0  0  0  0  0  0  0  0  0  0  0
    2.5945   14.7686    0.2518 H   0  0  0  0  0  0  0  0  0  0  0  0
    4.0090   15.1769   -1.4561 H   0  0  0  0  0  0  0  0  0  0  0  0
    3.6488   14.1992   -2.9192 H   0  0  0  0  0  0  0  0  0  0  0  0
    3.3294   15.9668   -2.9192 H   0  0  0  0  0  0  0  0  0  0  0  0
  1  2  1  0
  2  3  1  0
  3  4  1  0
  4  5  1  0
  5  6  1  0
  6  7  1  0
  7  8  1  0
  7  9  1  0
  2 10  1  0
 10 11  1  0
 11 12  1  0
 12 13  1  0
 13 14  1  1
 13 15  1  0
 15 16  1  0
 16 17  1  0
 17 18  2  0
 18 19  1  0
 19 20  1  0
 20 21  1  0
 21 22  1  0
 22 23  1  0
 22 24  1  0
 24 25  1  0
 24 26  1  0
 19 27  1  0
 27 28  1  6
 27 29  1  0
 29 30  1  0
 30 31  1  0
 31 32  1  6
  7  5  1  0
 31 10  1  0
 31 13  1  0
 27 15  1  0
 24 18  1  0
  1 33  1  0
  1 34  1  0
  1 35  1  0
  2 36  1  1
  3 37  1  0
  3 38  1  0
  4 39  1  0
  4 40  1  0
  5 41  1  1
  8 42  1  0
  8 43  1  0
  8 44  1  0
  9 45  1  0
  9 46  1  0
  9 47  1  0
 10 48  1  1
 11 49  1  0
 11 50  1  0
 12 51  1  0
 12 52  1  0
 14 53  1  0
 14 54  1  0
 14 55  1  0
 15 56  1  6
 16 57  1  0
 16 58  1  0
 17 59  1  0
 19 60  1  1
 20 61  1  0
 20 62  1  0
 21 63  1  0
 21 64  1  0
 22 65  1  1
 23 66  1  0
 25 67  1  0
 25 68  1  0
 25 69  1  0
 26 70  1  0
 26 71  1  0
 26 72  1  0
 28 73  1  0
 28 74  1  0
 28 75  1  0
 29 76  1  0
 29 77  1  0
 30 78  1  0
 30 79  1  0
 32 80  1  0
 32 81  1  0
 32 82  1  0
M  END
>  <meeko>  (6) 
{"is_sidechain": [false], "intermolecular_energy": 2.731, "internal_energy": -0.839}

$$$$
EPH_relaxed_0001_pdb2pqr_Repair_308_r2_0001_out
     RDKit          3D

 82 86  0  0  0  0  0  0  0  0999 V2000
   -2.6030    7.6070   -3.0450 C   0  0  0  0  0  0  0  0  0  0  0  0
   -2.8890    7.8670   -1.5630 C   0  0  2  0  0  0  0  0  0  0  0  0
   -4.3970    7.8220   -1.2460 C   0  0  0  0  0  0  0  0  0  0  0  0
   -5.1250    6.6360   -1.8860 C   0  0  0  0  0  0  0  0  0  0  0  0
   -6.3270    7.0780   -2.6650 C   0  0  2  0  0  0  0  0  0  0  0  0
   -6.8790    8.3350   -2.2530 O   0  0  0  0  0  0  0  0  0  0  0  0
   -7.7180    7.1840   -2.0690 C   0  0  0  0  0  0  0  0  0  0  0  0
   -7.9800    6.8440   -0.6350 C   0  0  0  0  0  0  0  0  0  0  0  0
   -8.8960    7.1430   -2.9910 C   0  0  0  0  0  0  0  0  0  0  0  0
   -2.3110    9.2170   -1.1520 C   0  0  1  0  0  0  0  0  0  0  0  0
   -2.8170    9.6840    0.2390 C   0  0  0  0  0  0  0  0  0  0  0  0
   -1.6430   10.4430    0.9100 C   0  0  0  0  0  0  0  0  0  0  0  0
   -0.6260   10.6750   -0.2320 C   0  0  1  0  0  0  0  0  0  0  0  0
   -1.1610   11.9250   -0.9980 C   0  0  0  0  0  0  0  0  0  0  0  0
    0.8660   10.8580    0.1990 C   0  0  2  0  0  0  0  0  0  0  0  0
    1.1440   12.0840    1.0860 C   0  0  0  0  0  0  0  0  0  0  0  0
    1.4950   13.3360    0.3520 C   0  0  0  0  0  0  0  0  0  0  0  0
    1.8630   13.4070   -0.9400 C   0  0  0  0  0  0  0  0  0  0  0  0
    2.0490   12.1350   -1.7780 C   0  0  1  0  0  0  0  0  0  0  0  0
    3.3790   12.2280   -2.5720 C   0  0  0  0  0  0  0  0  0  0  0  0
    3.4710   13.4990   -3.4120 C   0  0  0  0  0  0  0  0  0  0  0  0
    3.3400   14.7420   -2.5360 C   0  0  2  0  0  0  0  0  0  0  0  0
    4.4820   14.8240   -1.6780 O   0  0  0  0  0  0  0  0  0  0  0  0
    2.0420   14.7550   -1.6810 C   0  0  0  0  0  0  0  0  0  0  0  0
    0.8150   14.9710   -2.6010 C   0  0  0  0  0  0  0  0  0  0  0  0
    2.1010   15.9900   -0.7410 C   0  0  0  0  0  0  0  0  0  0  0  0
    1.9010   10.7610   -0.9940 C   0  0  1  0  0  0  0  0  0  0  0  0
    3.2700   10.3580   -0.3640 C   0  0  0  0  0  0  0  0  0  0  0  0
    1.5310    9.6230   -2.0170 C   0  0  0  0  0  0  0  0  0  0  0  0
    0.0330    9.4130   -2.3100 C   0  0  0  0  0  0  0  0  0  0  0  0
   -0.7720    9.3170   -1.0100 C   0  0  2  0  0  0  0  0  0  0  0  0
   -0.2700    8.0560   -0.2280 C   0  0  0  0  0  0  0  0  0  0  0  0
   -1.7920    6.8697   -3.1381 H   0  0  0  0  0  0  0  0  0  0  0  0
   -3.5100    7.2177   -3.5307 H   0  0  0  0  0  0  0  0  0  0  0  0
   -2.3016    8.5468   -3.5307 H   0  0  0  0  0  0  0  0  0  0  0  0
   -2.4064    7.0639   -0.9867 H   0  0  0  0  0  0  0  0  0  0  0  0
   -4.5208    7.7579   -0.1549 H   0  0  0  0  0  0  0  0  0  0  0  0
   -4.8414    8.7366   -1.6655 H   0  0  0  0  0  0  0  0  0  0  0  0
   -4.4321    6.1162   -2.5641 H   0  0  0  0  0  0  0  0  0  0  0  0
   -5.4648    5.9675   -1.0812 H   0  0  0  0  0  0  0  0  0  0  0  0
   -5.9487    6.5849   -3.5726 H   0  0  0  0  0  0  0  0  0  0  0  0
   -7.4377    7.5477    0.0137 H   0  0  0  0  0  0  0  0  0  0  0  0
   -9.0588    6.9154   -0.4324 H   0  0  0  0  0  0  0  0  0  0  0  0
   -7.6360    5.8190   -0.4324 H   0  0  0  0  0  0  0  0  0  0  0  0
   -9.8232    7.1107   -2.4000 H   0  0  0  0  0  0  0  0  0  0  0  0
   -8.8966    8.0417   -3.6253 H   0  0  0  0  0  0  0  0  0  0  0  0
   -8.8341    6.2465   -3.6253 H   0  0  0  0  0  0  0  0  0  0  0  0
   -2.6515    9.8302   -1.9994 H   0  0  0  0  0  0  0  0  0  0  0  0
   -3.6829   10.3523    0.1224 H   0  0  0  0  0  0  0  0  0  0  0  0
   -3.1353    8.8276    0.8516 H   0  0  0  0  0  0  0  0  0  0  0  0
   -1.9869   11.4020    1.3247 H   0  0  0  0  0  0  0  0  0  0  0  0
   -1.2075    9.8805    1.7490 H   0  0  0  0  0  0  0  0  0  0  0  0
   -1.4870   12.6867   -0.2744 H   0  0  0  0  0  0  0  0  0  0  0  0
   -0.3609   12.3381   -1.6298 H   0  0  0  0  0  0  0  0  0  0  0  0
   -2.0122   11.6313   -1.6298 H   0  0  0  0  0  0  0  0  0  0  0  0
    1.0352    9.9811    0.8413 H   0  0  0  0  0  0  0  0  0  0  0  0
    0.2424   12.2821    1.6842 H   0  0  0  0  0  0  0  0  0  0  0  0
    2.0266   11.8282    1.6907 H   0  0  0  0  0  0  0  0  0  0  0  0
    1.4488   14.2798    0.9151 H   0  0  0  0  0  0  0  0  0  0  0  0
    1.1993   12.1032   -2.4758 H   0  0  0  0  0  0  0  0  0  0  0  0
    4.2169   12.2148   -1.8594 H   0  0  0  0  0  0  0  0  0  0  0  0
    3.4186   11.3699   -3.2591 H   0  0  0  0  0  0  0  0  0  0  0  0
    4.4434   13.5214   -3.9258 H   0  0  0  0  0  0  0  0  0  0  0  0
    2.6496   13.4967   -4.1436 H   0  0  0  0  0  0  0  0  0  0  0  0
    3.2831   15.6128   -3.2057 H   0  0  0  0  0  0  0  0  0  0  0  0
    4.1710   14.7180   -0.7630 H   0  0  0  0  0  0  0  0  0  0  0  0
   -0.0822   15.1289   -1.9845 H   0  0  0  0  0  0  0  0  0  0  0  0
    0.9836   15.8533   -3.2360 H   0  0  0  0  0  0  0  0  0  0  0  0
    0.6722   14.0842   -3.2360 H   0  0  0  0  0  0  0  0  0  0  0  0
    2.0850   15.6546    0.3065 H   0  0  0  0  0  0  0  0  0  0  0  0
    3.0270   16.5522   -0.9319 H   0  0  0  0  0  0  0  0  0  0  0  0
    1.2328   16.6379   -0.9319 H   0  0  0  0  0  0  0  0  0  0  0  0
    3.1900   10.3816    0.7328 H   0  0  0  0  0  0  0  0  0  0  0  0
    3.5390    9.3425   -0.6903 H   0  0  0  0  0  0  0  0  0  0  0  0
    4.0463   11.0657   -0.6903 H   0  0  0  0  0  0  0  0  0  0  0  0
    2.0268    9.8583   -2.9703 H   0  0  0  0  0  0  0  0  0  0  0  0
    1.8653    8.6889   -1.5420 H   0  0  0  0  0  0  0  0  0  0  0  0
   -0.3401   10.2614   -2.9025 H   0  0  0  0  0  0  0  0  0  0  0  0
   -0.0868    8.4720   -2.8670 H   0  0  0  0  0  0  0  0  0  0  0  0
   -0.3440    8.2419    0.8537 H   0  0  0  0  0  0  0  0  0  0  0  0
   -0.8912    7.1881   -0.4943 H   0  0  0  0  0  0  0  0  0  0  0  0
    0.7777    7.8525   -0.4943 H   0  0  0  0  0  0  0  0  0  0  0  0
  1  2  1  0
  2  3  1  0
  3  4  1  0
  4  5  1  0
  5  6  1  0
  6  7  1  0
  7  8  1  0
  7  9  1  0
  2 10  1  0
 10 11  1  0
 11 12  1  0
 12 13  1  0
 13 14  1  6
 13 15  1  0
 15 16  1  0
 16 17  1  0
 17 18  2  0
 18 19  1  0
 19 20  1  0
 20 21  1  0
 21 22  1  0
 22 23  1  0
 22 24  1  0
 24 25  1  0
 24 26  1  0
 19 27  1  0
 27 28  1  1
 27 29  1  0
 29 30  1  0
 30 31  1  0
 31 32  1  1
  7  5  1  0
 31 10  1  0
 31 13  1  0
 27 15  1  0
 24 18  1  0
  1 33  1  0
  1 34  1  0
  1 35  1  0
  2 36  1  1
  3 37  1  0
  3 38  1  0
  4 39  1  0
  4 40  1  0
  5 41  1  6
  8 42  1  0
  8 43  1  0
  8 44  1  0
  9 45  1  0
  9 46  1  0
  9 47  1  0
 10 48  1  6
 11 49  1  0
 11 50  1  0
 12 51  1  0
 12 52  1  0
 14 53  1  0
 14 54  1  0
 14 55  1  0
 15 56  1  1
 16 57  1  0
 16 58  1  0
 17 59  1  0
 19 60  1  6
 20 61  1  0
 20 62  1  0
 21 63  1  0
 21 64  1  0
 22 65  1  6
 23 66  1  0
 25 67  1  0
 25 68  1  0
 25 69  1  0
 26 70  1  0
 26 71  1  0
 26 72  1  0
 28 73  1  0
 28 74  1  0
 28 75  1  0
 29 76  1  0
 29 77  1  0
 30 78  1  0
 30 79  1  0
 32 80  1  0
 32 81  1  0
 32 82  1  0
M  END
>  <meeko>  (7) 
{"is_sidechain": [false], "intermolecular_energy": 2.731, "internal_energy": -0.839}

$$$$
EPH_relaxed_0001_pdb2pqr_Repair_308_r2_0001_out
     RDKit          3D

 82 86  0  0  0  0  0  0  0  0999 V2000
    3.6470   17.7810   -1.3370 C   0  0  0  0  0  0  0  0  0  0  0  0
    2.5580   17.3300   -2.3140 C   0  0  2  0  0  0  0  0  0  0  0  0
    1.1590   17.8210   -1.8910 C   0  0  0  0  0  0  0  0  0  0  0  0
    1.1830   18.8420   -0.7500 C   0  0  0  0  0  0  0  0  0  0  0  0
   -0.0570   19.6840   -0.7330 C   0  0  2  0  0  0  0  0  0  0  0  0
   -0.4280   20.1760    0.5610 O   0  0  0  0  0  0  0  0  0  0  0  0
   -1.3470   19.2600   -0.0560 C   0  0  0  0  0  0  0  0  0  0  0  0
   -1.4620   17.9450    0.6490 C   0  0  0  0  0  0  0  0  0  0  0  0
   -2.6280   19.8960   -0.4970 C   0  0  0  0  0  0  0  0  0  0  0  0
    2.5630   15.8110   -2.4330 C   0  0  1  0  0  0  0  0  0  0  0  0
    3.9880   15.2330   -2.6460 C   0  0  0  0  0  0  0  0  0  0  0  0
    4.0350   13.8740   -1.9020 C   0  0  0  0  0  0  0  0  0  0  0  0
    2.5570   13.5580   -1.5720 C   0  0  1  0  0  0  0  0  0  0  0  0
    1.9700   12.9610   -2.8890 C   0  0  0  0  0  0  0  0  0  0  0  0
    2.3080   12.6160   -0.3490 C   0  0  2  0  0  0  0  0  0  0  0  0
    2.8810   11.1950   -0.4940 C   0  0  0  0  0  0  0  0  0  0  0  0
    1.9540   10.1920   -1.0980 C   0  0  0  0  0  0  0  0  0  0  0  0
    0.6250   10.3460   -1.2460 C   0  0  0  0  0  0  0  0  0  0  0  0
   -0.0920   11.5850   -0.6940 C   0  0  1  0  0  0  0  0  0  0  0  0
   -1.3720   11.1480    0.0650 C   0  0  0  0  0  0  0  0  0  0  0  0
   -2.2880   10.2760   -0.7870 C   0  0  0  0  0  0  0  0  0  0  0  0
   -1.5580    9.0250   -1.2690 C   0  0  2  0  0  0  0  0  0  0  0  0
   -1.2650    8.1980   -0.1380 O   0  0  0  0  0  0  0  0  0  0  0  0
   -0.2460    9.3410   -2.0400 C   0  0  0  0  0  0  0  0  0  0  0  0
   -0.5870    9.9710   -3.4120 C   0  0  0  0  0  0  0  0  0  0  0  0
    0.4640    7.9940   -2.3450 C   0  0  0  0  0  0  0  0  0  0  0  0
    0.8080   12.5860    0.1520 C   0  0  1  0  0  0  0  0  0  0  0  0
    0.8450   12.1370    1.6440 C   0  0  0  0  0  0  0  0  0  0  0  0
    0.1430   14.0140    0.1350 C   0  0  0  0  0  0  0  0  0  0  0  0
    0.5210   14.9420   -1.0350 C   0  0  0  0  0  0  0  0  0  0  0  0
    2.0410   15.0010   -1.2200 C   0  0  2  0  0  0  0  0  0  0  0  0
    2.6570   15.6190    0.0810 C   0  0  0  0  0  0  0  0  0  0  0  0
    3.2963   17.6358   -0.3045 H   0  0  0  0  0  0  0  0  0  0  0  0
    4.5572   17.1858   -1.5022 H   0  0  0  0  0  0  0  0  0  0  0  0
    3.8699   18.8454   -1.5022 H   0  0  0  0  0  0  0  0  0  0  0  0
    2.7839   17.7800   -3.2920 H   0  0  0  0  0  0  0  0  0  0  0  0
    0.6761   18.2862   -2.7630 H   0  0  0  0  0  0  0  0  0  0  0  0
    0.6077   16.9426   -1.5243 H   0  0  0  0  0  0  0  0  0  0  0  0
    1.2626   18.3053    0.2069 H   0  0  0  0  0  0  0  0  0  0  0  0
    2.0464   19.5063   -0.9025 H   0  0  0  0  0  0  0  0  0  0  0  0
    0.1561   20.0604   -1.7444 H   0  0  0  0  0  0  0  0  0  0  0  0
   -1.4476   18.1095    1.7365 H   0  0  0  0  0  0  0  0  0  0  0  0
   -2.4062   17.4577    0.3643 H   0  0  0  0  0  0  0  0  0  0  0  0
   -0.6167   17.3012    0.3643 H   0  0  0  0  0  0  0  0  0  0  0  0
   -3.2155   20.1877    0.3860 H   0  0  0  0  0  0  0  0  0  0  0  0
   -2.4056   20.7883   -1.1006 H   0  0  0  0  0  0  0  0  0  0  0  0
   -3.2044   19.1794   -1.1006 H   0  0  0  0  0  0  0  0  0  0  0  0
    1.8810   15.6909   -3.2876 H   0  0  0  0  0  0  0  0  0  0  0  0
    4.1800   15.0844   -3.7189 H   0  0  0  0  0  0  0  0  0  0  0  0
    4.7550   15.9210   -2.2607 H   0  0  0  0  0  0  0  0  0  0  0  0
    4.4644   13.0930   -2.5468 H   0  0  0  0  0  0  0  0  0  0  0  0
    4.6642   13.9136   -1.0006 H   0  0  0  0  0  0  0  0  0  0  0  0
    1.2185   12.1967   -2.6420 H   0  0  0  0  0  0  0  0  0  0  0  0
    1.4985   13.7625   -3.4766 H   0  0  0  0  0  0  0  0  0  0  0  0
    2.7793   12.5031   -3.4766 H   0  0  0  0  0  0  0  0  0  0  0  0
    2.8987   13.0977    0.4441 H   0  0  0  0  0  0  0  0  0  0  0  0
    3.7783   11.2533   -1.1276 H   0  0  0  0  0  0  0  0  0  0  0  0
    3.0855   10.8436    0.5281 H   0  0  0  0  0  0  0  0  0  0  0  0
    2.3942    9.2480   -1.4517 H   0  0  0  0  0  0  0  0  0  0  0  0
   -0.3671   12.1927   -1.5687 H   0  0  0  0  0  0  0  0  0  0  0  0
   -1.0752   10.5796    0.9588 H   0  0  0  0  0  0  0  0  0  0  0  0
   -1.9297   12.0581    0.3307 H   0  0  0  0  0  0  0  0  0  0  0  0
   -3.1593    9.9754   -0.1867 H   0  0  0  0  0  0  0  0  0  0  0  0
   -2.6074   10.8561   -1.6653 H   0  0  0  0  0  0  0  0  0  0  0  0
   -2.2213    8.5077   -1.9778 H   0  0  0  0  0  0  0  0  0  0  0  0
   -0.4380    8.5230    0.2570 H   0  0  0  0  0  0  0  0  0  0  0  0
   -1.1054   10.9287   -3.2570 H   0  0  0  0  0  0  0  0  0  0  0  0
    0.3409   10.1435   -3.9770 H   0  0  0  0  0  0  0  0  0  0  0  0
   -1.2388    9.2885   -3.9770 H   0  0  0  0  0  0  0  0  0  0  0  0
    0.7266    7.4958   -1.4001 H   0  0  0  0  0  0  0  0  0  0  0  0
   -0.2104    7.3473   -2.9255 H   0  0  0  0  0  0  0  0  0  0  0  0
    1.3787    8.1848   -2.9255 H   0  0  0  0  0  0  0  0  0  0  0  0
    0.7722   13.0208    2.2948 H   0  0  0  0  0  0  0  0  0  0  0  0
   -0.0006   11.4629    1.8451 H   0  0  0  0  0  0  0  0  0  0  0  0
    1.7896   11.6104    1.8451 H   0  0  0  0  0  0  0  0  0  0  0  0
   -0.9476   13.8730    0.1090 H   0  0  0  0  0  0  0  0  0  0  0  0
    0.5211   14.5185    1.0364 H   0  0  0  0  0  0  0  0  0  0  0  0
    0.0606   14.5619   -1.9589 H   0  0  0  0  0  0  0  0  0  0  0  0
    0.1556   15.9551   -0.8110 H   0  0  0  0  0  0  0  0  0  0  0  0
    2.1931   15.1536    0.9632 H   0  0  0  0  0  0  0  0  0  0  0  0
    3.7413   15.4346    0.0967 H   0  0  0  0  0  0  0  0  0  0  0  0
    2.4691   16.7027    0.0967 H   0  0  0  0  0  0  0  0  0  0  0  0
  1  2  1  0
  2  3  1  0
  3  4  1  0
  4  5  1  0
  5  6  1  0
  6  7  1  0
  7  8  1  0
  7  9  1  0
  2 10  1  0
 10 11  1  0
 11 12  1  0
 12 13  1  0
 13 14  1  6
 13 15  1  0
 15 16  1  0
 16 17  1  0
 17 18  2  0
 18 19  1  0
 19 20  1  0
 20 21  1  0
 21 22  1  0
 22 23  1  0
 22 24  1  0
 24 25  1  0
 24 26  1  0
 19 27  1  0
 27 28  1  1
 27 29  1  0
 29 30  1  0
 30 31  1  0
 31 32  1  1
  7  5  1  0
 31 10  1  0
 31 13  1  0
 27 15  1  0
 24 18  1  0
  1 33  1  0
  1 34  1  0
  1 35  1  0
  2 36  1  6
  3 37  1  0
  3 38  1  0
  4 39  1  0
  4 40  1  0
  5 41  1  6
  8 42  1  0
  8 43  1  0
  8 44  1  0
  9 45  1  0
  9 46  1  0
  9 47  1  0
 10 48  1  6
 11 49  1  0
 11 50  1  0
 12 51  1  0
 12 52  1  0
 14 53  1  0
 14 54  1  0
 14 55  1  0
 15 56  1  1
 16 57  1  0
 16 58  1  0
 17 59  1  0
 19 60  1  6
 20 61  1  0
 20 62  1  0
 21 63  1  0
 21 64  1  0
 22 65  1  6
 23 66  1  0
 25 67  1  0
 25 68  1  0
 25 69  1  0
 26 70  1  0
 26 71  1  0
 26 72  1  0
 28 73  1  0
 28 74  1  0
 28 75  1  0
 29 76  1  0
 29 77  1  0
 30 78  1  0
 30 79  1  0
 32 80  1  0
 32 81  1  0
 32 82  1  0
M  END
>  <meeko>  (8) 
{"is_sidechain": [false], "intermolecular_energy": 2.731, "internal_energy": -0.839}

$$$$
EPH_relaxed_0001_pdb2pqr_Repair_308_r2_0001_out
     RDKit          3D

 82 86  0  0  0  0  0  0  0  0999 V2000
    4.9080   15.8400   -1.6500 C   0  0  0  0  0  0  0  0  0  0  0  0
    3.6860   16.6600   -1.2270 C   0  0  2  0  0  0  0  0  0  0  0  0
    3.9960   17.5930   -0.0390 C   0  0  0  0  0  0  0  0  0  0  0  0
    3.0210   18.7670    0.0920 C   0  0  0  0  0  0  0  0  0  0  0  0
    2.1070   18.8640   -1.0920 C   0  0  2  0  0  0  0  0  0  0  0  0
    1.9090   20.1940   -1.5880 O   0  0  0  0  0  0  0  0  0  0  0  0
    0.7490   19.5390   -1.0480 C   0  0  0  0  0  0  0  0  0  0  0  0
    0.2290   20.1630    0.2090 C   0  0  0  0  0  0  0  0  0  0  0  0
   -0.2690   19.1670   -2.0800 C   0  0  0  0  0  0  0  0  0  0  0  0
    2.5330   15.7280   -0.8700 C   0  0  1  0  0  0  0  0  0  0  0  0
    1.2560   16.4970   -0.4390 C   0  0  0  0  0  0  0  0  0  0  0  0
    0.0450   15.6750   -0.9510 C   0  0  0  0  0  0  0  0  0  0  0  0
    0.6460   14.3100   -1.3620 C   0  0  1  0  0  0  0  0  0  0  0  0
    0.7830   13.5130   -0.0270 C   0  0  0  0  0  0  0  0  0  0  0  0
   -0.1490   13.5010   -2.4390 C   0  0  2  0  0  0  0  0  0  0  0  0
   -1.5670   13.0770   -2.0200 C   0  0  0  0  0  0  0  0  0  0  0  0
   -1.6640   11.7440   -1.3540 C   0  0  0  0  0  0  0  0  0  0  0  0
   -0.7060   10.7980   -1.3540 C   0  0  0  0  0  0  0  0  0  0  0  0
    0.5870   10.9870   -2.1580 C   0  0  1  0  0  0  0  0  0  0  0  0
    0.8960    9.6920   -2.9540 C   0  0  0  0  0  0  0  0  0  0  0  0
    0.9390    8.4540   -2.0620 C   0  0  0  0  0  0  0  0  0  0  0  0
   -0.3850    8.2680   -1.3250 C   0  0  2  0  0  0  0  0  0  0  0  0
   -1.4050    7.9580   -2.2790 O   0  0  0  0  0  0  0  0  0  0  0  0
   -0.8050    9.5130   -0.4960 C   0  0  0  0  0  0  0  0  0  0  0  0
    0.1380    9.6700    0.7230 C   0  0  0  0  0  0  0  0  0  0  0  0
   -2.2210    9.2470    0.0820 C   0  0  0  0  0  0  0  0  0  0  0  0
    0.6560   12.2910   -3.0650 C   0  0  1  0  0  0  0  0  0  0  0  0
    0.0170   12.0050   -4.4580 C   0  0  0  0  0  0  0  0  0  0  0  0
    2.1650   12.6510   -3.3340 C   0  0  0  0  0  0  0  0  0  0  0  0
    2.8600   13.5510   -2.2950 C   0  0  0  0  0  0  0  0  0  0  0  0
    2.0100   14.7860   -1.9830 C   0  0  2  0  0  0  0  0  0  0  0  0
    1.8740   15.6200   -3.3030 C   0  0  0  0  0  0  0  0  0  0  0  0
    5.4385   15.4840   -0.7546 H   0  0  0  0  0  0  0  0  0  0  0  0
    4.5812   14.9777   -2.2497 H   0  0  0  0  0  0  0  0  0  0  0  0
    5.5821   16.4693   -2.2497 H   0  0  0  0  0  0  0  0  0  0  0  0
    3.4015   17.2941   -2.0796 H   0  0  0  0  0  0  0  0  0  0  0  0
    3.9539   17.0015    0.8874 H   0  0  0  0  0  0  0  0  0  0  0  0
    4.9932   18.0214   -0.2181 H   0  0  0  0  0  0  0  0  0  0  0  0
    2.4151   18.6275    0.9994 H   0  0  0  0  0  0  0  0  0  0  0  0
    3.6082   19.6954    0.1486 H   0  0  0  0  0  0  0  0  0  0  0  0
    2.4274   17.8743   -1.4497 H   0  0  0  0  0  0  0  0  0  0  0  0
    0.6592   19.6467    1.0798 H   0  0  0  0  0  0  0  0  0  0  0  0
    0.5128   21.2254    0.2355 H   0  0  0  0  0  0  0  0  0  0  0  0
   -0.8672   20.0755    0.2355 H   0  0  0  0  0  0  0  0  0  0  0  0
   -1.1901   18.8304   -1.5818 H   0  0  0  0  0  0  0  0  0  0  0  0
   -0.4908   20.0422   -2.7084 H   0  0  0  0  0  0  0  0  0  0  0  0
    0.1257   18.3550   -2.7084 H   0  0  0  0  0  0  0  0  0  0  0  0
    3.0107   15.1391   -0.0731 H   0  0  0  0  0  0  0  0  0  0  0  0
    1.2183   16.5846    0.6569 H   0  0  0  0  0  0  0  0  0  0  0  0
    1.2477   17.5146   -0.8567 H   0  0  0  0  0  0  0  0  0  0  0  0
   -0.7019   15.5463   -0.1538 H   0  0  0  0  0  0  0  0  0  0  0  0
   -0.4732   16.1709   -1.7850 H   0  0  0  0  0  0  0  0  0  0  0  0
    0.6649   14.2000    0.8239 H   0  0  0  0  0  0  0  0  0  0  0  0
    0.0052   12.7365    0.0180 H   0  0  0  0  0  0  0  0  0  0  0  0
    1.7755   13.0408    0.0180 H   0  0  0  0  0  0  0  0  0  0  0  0
   -0.2838   14.2424   -3.2403 H   0  0  0  0  0  0  0  0  0  0  0  0
   -1.9561   13.8341   -1.3233 H   0  0  0  0  0  0  0  0  0  0  0  0
   -2.1474   12.9948   -2.9508 H   0  0  0  0  0  0  0  0  0  0  0  0
   -2.5971   11.5156   -0.8181 H   0  0  0  0  0  0  0  0  0  0  0  0
    1.3804   11.1693   -1.4182 H   0  0  0  0  0  0  0  0  0  0  0  0
    0.1149    9.5511   -3.7156 H   0  0  0  0  0  0  0  0  0  0  0  0
    1.8897    9.8095   -3.4109 H   0  0  0  0  0  0  0  0  0  0  0  0
    1.1323    7.5680   -2.6845 H   0  0  0  0  0  0  0  0  0  0  0  0
    1.7399    8.5834   -1.3191 H   0  0  0  0  0  0  0  0  0  0  0  0
   -0.2498    7.4452   -0.6076 H   0  0  0  0  0  0  0  0  0  0  0  0
   -0.9980    7.9770   -3.1620 H   0  0  0  0  0  0  0  0  0  0  0  0
   -0.4438    9.5731    1.6515 H   0  0  0  0  0  0  0  0  0  0  0  0
    0.9112    8.8882    0.6915 H   0  0  0  0  0  0  0  0  0  0  0  0
    0.6162   10.6601    0.6915 H   0  0  0  0  0  0  0  0  0  0  0  0
   -2.1759    9.2555    1.1810 H   0  0  0  0  0  0  0  0  0  0  0  0
   -2.9110   10.0312   -0.2627 H   0  0  0  0  0  0  0  0  0  0  0  0
   -2.5794    8.2658   -0.2627 H   0  0  0  0  0  0  0  0  0  0  0  0
   -0.9791   11.5592   -4.3199 H   0  0  0  0  0  0  0  0  0  0  0  0
   -0.0773   12.9468   -5.0185 H   0  0  0  0  0  0  0  0  0  0  0  0
    0.6565   11.3072   -5.0185 H   0  0  0  0  0  0  0  0  0  0  0  0
    2.7280   11.7074   -3.3866 H   0  0  0  0  0  0  0  0  0  0  0  0
    2.1596   13.2371   -4.2649 H   0  0  0  0  0  0  0  0  0  0  0  0
    3.0153   12.9778   -1.3690 H   0  0  0  0  0  0  0  0  0  0  0  0
    3.8236   13.8839   -2.7082 H   0  0  0  0  0  0  0  0  0  0  0  0
    1.7016   16.6772   -3.0527 H   0  0  0  0  0  0  0  0  0  0  0  0
    2.7989   15.5286   -3.8914 H   0  0  0  0  0  0  0  0  0  0  0  0
    1.0260   15.2395   -3.8914 H   0  0  0  0  0  0  0  0  0  0  0  0
  1  2  1  0
  2  3  1  0
  3  4  1  0
  4  5  1  0
  5  6  1  0
  6  7  1  0
  7  8  1  0
  7  9  1  0
  2 10  1  0
 10 11  1  0
 11 12  1  0
 12 13  1  0
 13 14  1  1
 13 15  1  0
 15 16  1  0
 16 17  1  0
 17 18  2  0
 18 19  1  0
 19 20  1  0
 20 21  1  0
 21 22  1  0
 22 23  1  0
 22 24  1  0
 24 25  1  0
 24 26  1  0
 19 27  1  0
 27 28  1  6
 27 29  1  0
 29 30  1  0
 30 31  1  0
 31 32  1  6
  7  5  1  0
 31 10  1  0
 31 13  1  0
 27 15  1  0
 24 18  1  0
  1 33  1  0
  1 34  1  0
  1 35  1  0
  2 36  1  6
  3 37  1  0
  3 38  1  0
  4 39  1  0
  4 40  1  0
  5 41  1  6
  8 42  1  0
  8 43  1  0
  8 44  1  0
  9 45  1  0
  9 46  1  0
  9 47  1  0
 10 48  1  1
 11 49  1  0
 11 50  1  0
 12 51  1  0
 12 52  1  0
 14 53  1  0
 14 54  1  0
 14 55  1  0
 15 56  1  6
 16 57  1  0
 16 58  1  0
 17 59  1  0
 19 60  1  1
 20 61  1  0
 20 62  1  0
 21 63  1  0
 21 64  1  0
 22 65  1  1
 23 66  1  0
 25 67  1  0
 25 68  1  0
 25 69  1  0
 26 70  1  0
 26 71  1  0
 26 72  1  0
 28 73  1  0
 28 74  1  0
 28 75  1  0
 29 76  1  0
 29 77  1  0
 30 78  1  0
 30 79  1  0
 32 80  1  0
 32 81  1  0
 32 82  1  0
M  END
>  <meeko>  (9) 
{"is_sidechain": [false], "intermolecular_energy": 2.731, "internal_energy": -0.839}

$$$$
EPH_relaxed_0001_pdb2pqr_Repair_308_r2_0001_out
     RDKit          3D

 82 86  0  0  0  0  0  0  0  0999 V2000
   -0.8010    8.4660   -2.2580 C   0  0  0  0  0  0  0  0  0  0  0  0
   -0.5350    9.0550   -0.8700 C   0  0  2  0  0  0  0  0  0  0  0  0
   -1.8010    9.6820   -0.2520 C   0  0  0  0  0  0  0  0  0  0  0  0
   -1.5420   10.4260    1.0610 C   0  0  0  0  0  0  0  0  0  0  0  0
   -0.1340   10.9330    1.1420 C   0  0  2  0  0  0  0  0  0  0  0  0
    0.6220   10.4260    2.2500 O   0  0  0  0  0  0  0  0  0  0  0  0
    0.3660   11.8400    2.2510 C   0  0  0  0  0  0  0  0  0  0  0  0
   -0.5380   12.2950    3.3540 C   0  0  0  0  0  0  0  0  0  0  0  0
    1.5840   12.6730    1.9990 C   0  0  0  0  0  0  0  0  0  0  0  0
    0.5750   10.0970   -0.9520 C   0  0  1  0  0  0  0  0  0  0  0  0
    1.9730    9.4630   -1.1810 C   0  0  0  0  0  0  0  0  0  0  0  0
    2.7680   10.4450   -2.0800 C   0  0  0  0  0  0  0  0  0  0  0  0
    1.9350   11.7480   -2.0650 C   0  0  1  0  0  0  0  0  0  0  0  0
    2.3240   12.4580   -0.7300 C   0  0  0  0  0  0  0  0  0  0  0  0
    2.1130   12.6960   -3.2960 C   0  0  2  0  0  0  0  0  0  0  0  0
    3.5310   13.2630   -3.4830 C   0  0  0  0  0  0  0  0  0  0  0  0
    3.7940   14.5630   -2.7990 C   0  0  0  0  0  0  0  0  0  0  0  0
    2.8550   15.3900   -2.3020 C   0  0  0  0  0  0  0  0  0  0  0  0
    1.3620   15.0900   -2.4930 C   0  0  1  0  0  0  0  0  0  0  0  0
    0.6300   16.3780   -2.9540 C   0  0  0  0  0  0  0  0  0  0  0  0
    0.8740   17.5570   -2.0170 C   0  0  0  0  0  0  0  0  0  0  0  0
    2.3660   17.8610   -1.9000 C   0  0  2  0  0  0  0  0  0  0  0  0
    2.8410   18.3330   -3.1640 O   0  0  0  0  0  0  0  0  0  0  0  0
    3.2070   16.6340   -1.4500 C   0  0  0  0  0  0  0  0  0  0  0  0
    2.9030   16.3090    0.0330 C   0  0  0  0  0  0  0  0  0  0  0  0
    4.7060   17.0360   -1.5080 C   0  0  0  0  0  0  0  0  0  0  0  0
    1.0170   13.8330   -3.4020 C   0  0  1  0  0  0  0  0  0  0  0  0
    0.9620   14.2600   -4.9010 C   0  0  0  0  0  0  0  0  0  0  0  0
   -0.4230   13.3130   -3.0350 C   0  0  0  0  0  0  0  0  0  0  0  0
   -0.5200   12.2880   -1.8890 C   0  0  0  0  0  0  0  0  0  0  0  0
    0.4830   11.1470   -2.0880 C   0  0  2  0  0  0  0  0  0  0  0  0
    0.1030   10.4010   -3.4120 C   0  0  0  0  0  0  0  0  0  0  0  0
   -1.2517    7.4681   -2.1526 H   0  0  0  0  0  0  0  0  0  0  0  0
   -1.4898    9.1230   -2.8093 H   0  0  0  0  0  0  0  0  0  0  0  0
    0.1473    8.3837   -2.8093 H   0  0  0  0  0  0  0  0  0  0  0  0
   -0.2226    8.2287   -0.2145 H   0  0  0  0  0  0  0  0  0  0  0  0
   -2.2252   10.3931   -0.9761 H   0  0  0  0  0  0  0  0  0  0  0  0
   -2.4895    8.8554   -0.0224 H   0  0  0  0  0  0  0  0  0  0  0  0
   -2.2327   11.2793    1.1295 H   0  0  0  0  0  0  0  0  0  0  0  0
   -1.7015    9.7223    1.8913 H   0  0  0  0  0  0  0  0  0  0  0  0
   -0.0714   11.0042    0.0461 H   0  0  0  0  0  0  0  0  0  0  0  0
   -0.0768   12.0629    4.3253 H   0  0  0  0  0  0  0  0  0  0  0  0
   -0.6969   13.3805    3.2736 H   0  0  0  0  0  0  0  0  0  0  0  0
   -1.5045   11.7760    3.2736 H   0  0  0  0  0  0  0  0  0  0  0  0
    2.0264   12.9756    2.9596 H   0  0  0  0  0  0  0  0  0  0  0  0
    2.3173   12.0864    1.4261 H   0  0  0  0  0  0  0  0  0  0  0  0
    1.3033   13.5691    1.4261 H   0  0  0  0  0  0  0  0  0  0  0  0
    0.4412   10.5862    0.0241 H   0  0  0  0  0  0  0  0  0  0  0  0
    2.4894    9.3272   -0.2193 H   0  0  0  0  0  0  0  0  0  0  0  0
    1.8854    8.4750   -1.6566 H   0  0  0  0  0  0  0  0  0  0  0  0
    3.7728   10.6216   -1.6686 H   0  0  0  0  0  0  0  0  0  0  0  0
    2.9136   10.0544   -3.0979 H   0  0  0  0  0  0  0  0  0  0  0  0
    1.9893   11.8470    0.1213 H   0  0  0  0  0  0  0  0  0  0  0  0
    3.4161   12.5820   -0.6854 H   0  0  0  0  0  0  0  0  0  0  0  0
    1.8407   13.4451   -0.6854 H   0  0  0  0  0  0  0  0  0  0  0  0
    1.9495   12.0149   -4.1442 H   0  0  0  0  0  0  0  0  0  0  0  0
    4.2465   12.5236   -3.0940 H   0  0  0  0  0  0  0  0  0  0  0  0
    3.6405   13.4586   -4.5599 H   0  0  0  0  0  0  0  0  0  0  0  0
    4.8443   14.8718   -2.6918 H   0  0  0  0  0  0  0  0  0  0  0  0
    0.9861   14.7794   -1.5070 H   0  0  0  0  0  0  0  0  0  0  0  0
    0.9878   16.6464   -3.9590 H   0  0  0  0  0  0  0  0  0  0  0  0
   -0.4497   16.1674   -2.9514 H   0  0  0  0  0  0  0  0  0  0  0  0
    0.3557   18.4435   -2.4113 H   0  0  0  0  0  0  0  0  0  0  0  0
    0.4889   17.2985   -1.0196 H   0  0  0  0  0  0  0  0  0  0  0  0
    2.4867   18.6270   -1.1199 H   0  0  0  0  0  0  0  0  0  0  0  0
    3.7550   18.0210   -3.2700 H   0  0  0  0  0  0  0  0  0  0  0  0
    3.5096   16.9575    0.6823 H   0  0  0  0  0  0  0  0  0  0  0  0
    1.8358   16.4829    0.2352 H   0  0  0  0  0  0  0  0  0  0  0  0
    3.1477   15.2558    0.2352 H   0  0  0  0  0  0  0  0  0  0  0  0
    5.0973   17.1409   -0.4853 H   0  0  0  0  0  0  0  0  0  0  0  0
    5.2738   16.2584   -2.0399 H   0  0  0  0  0  0  0  0  0  0  0  0
    4.8086   17.9934   -2.0399 H   0  0  0  0  0  0  0  0  0  0  0  0
    0.8217   15.3490   -4.9671 H   0  0  0  0  0  0  0  0  0  0  0  0
    1.9035   13.9808   -5.3966 H   0  0  0  0  0  0  0  0  0  0  0  0
    0.1220   13.7513   -5.3966 H   0  0  0  0  0  0  0  0  0  0  0  0
   -1.0302   14.1858   -2.7531 H   0  0  0  0  0  0  0  0  0  0  0  0
   -0.7727   12.7780   -3.9302 H   0  0  0  0  0  0  0  0  0  0  0  0
   -0.3062   12.7930   -0.9354 H   0  0  0  0  0  0  0  0  0  0  0  0
   -1.5355   11.8652   -1.8813 H   0  0  0  0  0  0  0  0  0  0  0  0
   -0.3838    9.4453   -3.1676 H   0  0  0  0  0  0  0  0  0  0  0  0
   -0.5873   11.0246   -3.9990 H   0  0  0  0  0  0  0  0  0  0  0  0
    1.0133   10.2093   -3.9990 H   0  0  0  0  0  0  0  0  0  0  0  0
  1  2  1  0
  2  3  1  0
  3  4  1  0
  4  5  1  0
  5  6  1  0
  6  7  1  0
  7  8  1  0
  7  9  1  0
  2 10  1  0
 10 11  1  0
 11 12  1  0
 12 13  1  0
 13 14  1  1
 13 15  1  0
 15 16  1  0
 16 17  1  0
 17 18  2  0
 18 19  1  0
 19 20  1  0
 20 21  1  0
 21 22  1  0
 22 23  1  0
 22 24  1  0
 24 25  1  0
 24 26  1  0
 19 27  1  0
 27 28  1  6
 27 29  1  0
 29 30  1  0
 30 31  1  0
 31 32  1  6
  7  5  1  0
 31 10  1  0
 31 13  1  0
 27 15  1  0
 24 18  1  0
  1 33  1  0
  1 34  1  0
  1 35  1  0
  2 36  1  1
  3 37  1  0
  3 38  1  0
  4 39  1  0
  4 40  1  0
  5 41  1  6
  8 42  1  0
  8 43  1  0
  8 44  1  0
  9 45  1  0
  9 46  1  0
  9 47  1  0
 10 48  1  1
 11 49  1  0
 11 50  1  0
 12 51  1  0
 12 52  1  0
 14 53  1  0
 14 54  1  0
 14 55  1  0
 15 56  1  6
 16 57  1  0
 16 58  1  0
 17 59  1  0
 19 60  1  1
 20 61  1  0
 20 62  1  0
 21 63  1  0
 21 64  1  0
 22 65  1  1
 23 66  1  0
 25 67  1  0
 25 68  1  0
 25 69  1  0
 26 70  1  0
 26 71  1  0
 26 72  1  0
 28 73  1  0
 28 74  1  0
 28 75  1  0
 29 76  1  0
 29 77  1  0
 30 78  1  0
 30 79  1  0
 32 80  1  0
 32 81  1  0
 32 82  1  0
M  END
>  <meeko>  (10) 
{"is_sidechain": [false], "intermolecular_energy": 2.731, "internal_energy": -0.839}

$$$$
EPH_relaxed_0001_pdb2pqr_Repair_308_r2_0001_out
     RDKit          3D

 82 86  0  0  0  0  0  0  0  0999 V2000
   -1.3300   10.4520    1.4520 C   0  0  0  0  0  0  0  0  0  0  0  0
   -1.9060   10.1330    0.0700 C   0  0  2  0  0  0  0  0  0  0  0  0
   -2.6750    8.7970    0.0550 C   0  0  0  0  0  0  0  0  0  0  0  0
   -4.1320    8.9300   -0.3960 C   0  0  0  0  0  0  0  0  0  0  0  0
   -4.7270    7.6010   -0.7500 C   0  0  2  0  0  0  0  0  0  0  0  0
   -4.8020    7.3340   -2.1560 O   0  0  0  0  0  0  0  0  0  0  0  0
   -6.0560    7.4430   -1.4640 C   0  0  0  0  0  0  0  0  0  0  0  0
   -6.8720    8.6310   -1.8670 C   0  0  0  0  0  0  0  0  0  0  0  0
   -6.7880    6.1430   -1.3340 C   0  0  0  0  0  0  0  0  0  0  0  0
   -0.7880   10.1010   -0.9650 C   0  0  1  0  0  0  0  0  0  0  0  0
   -1.1310    9.2110   -2.1890 C   0  0  0  0  0  0  0  0  0  0  0  0
   -0.4900    9.8870   -3.4280 C   0  0  0  0  0  0  0  0  0  0  0  0
    0.4700   10.9480   -2.8410 C   0  0  1  0  0  0  0  0  0  0  0  0
    1.7560   10.1530   -2.4520 C   0  0  0  0  0  0  0  0  0  0  0  0
    0.8010   12.1660   -3.7630 C   0  0  2  0  0  0  0  0  0  0  0  0
    1.5270   11.8150   -5.0730 C   0  0  0  0  0  0  0  0  0  0  0  0
    3.0180   11.8250   -4.9980 C   0  0  0  0  0  0  0  0  0  0  0  0
    3.7480   12.3780   -4.0120 C   0  0  0  0  0  0  0  0  0  0  0  0
    3.0740   13.1610   -2.8770 C   0  0  1  0  0  0  0  0  0  0  0  0
    3.8350   14.4920   -2.6430 C   0  0  0  0  0  0  0  0  0  0  0  0
    5.3260   14.2780   -2.3990 C   0  0  0  0  0  0  0  0  0  0  0  0
    5.9720   13.5490   -3.5740 C   0  0  2  0  0  0  0  0  0  0  0  0
    5.9390   14.4030   -4.7220 O   0  0  0  0  0  0  0  0  0  0  0  0
    5.2820   12.1970   -3.9100 C   0  0  0  0  0  0  0  0  0  0  0  0
    5.5780   11.1700   -2.7890 C   0  0  0  0  0  0  0  0  0  0  0  0
    5.9390   11.6330   -5.1990 C   0  0  0  0  0  0  0  0  0  0  0  0
    1.5050   13.3710   -3.0170 C   0  0  1  0  0  0  0  0  0  0  0  0
    1.2130   14.6490   -3.8620 C   0  0  0  0  0  0  0  0  0  0  0  0
    0.8920   13.6320   -1.5900 C   0  0  0  0  0  0  0  0  0  0  0  0
    0.4740   12.3920   -0.7770 C   0  0  0  0  0  0  0  0  0  0  0  0
   -0.3860   11.4470   -1.6200 C   0  0  2  0  0  0  0  0  0  0  0  0
   -1.6980   12.2110   -2.0080 C   0  0  0  0  0  0  0  0  0  0  0  0
   -2.0111   10.0748    2.2291 H   0  0  0  0  0  0  0  0  0  0  0  0
   -0.3474    9.9695    1.5600 H   0  0  0  0  0  0  0  0  0  0  0  0
   -1.2176   11.5409    1.5600 H   0  0  0  0  0  0  0  0  0  0  0  0
   -2.6223   10.9293   -0.1807 H   0  0  0  0  0  0  0  0  0  0  0  0
   -2.1607    8.1081   -0.6312 H   0  0  0  0  0  0  0  0  0  0  0  0
   -2.6918    8.4244    1.0898 H   0  0  0  0  0  0  0  0  0  0  0  0
   -4.7183    9.3768    0.4204 H   0  0  0  0  0  0  0  0  0  0  0  0
   -4.1562    9.5660   -1.2932 H   0  0  0  0  0  0  0  0  0  0  0  0
   -4.3251    7.1500    0.1693 H   0  0  0  0  0  0  0  0  0  0  0  0
   -7.2300    9.1523   -0.9670 H   0  0  0  0  0  0  0  0  0  0  0  0
   -6.2525    9.3155   -2.4651 H   0  0  0  0  0  0  0  0  0  0  0  0
   -7.7332    8.2985   -2.4651 H   0  0  0  0  0  0  0  0  0  0  0  0
   -6.9231    5.9032   -0.2690 H   0  0  0  0  0  0  0  0  0  0  0  0
   -7.7719    6.2262   -1.8188 H   0  0  0  0  0  0  0  0  0  0  0  0
   -6.2067    5.3448   -1.8188 H   0  0  0  0  0  0  0  0  0  0  0  0
    0.0337    9.7277   -0.3361 H   0  0  0  0  0  0  0  0  0  0  0  0
   -0.7162    8.2016   -2.0513 H   0  0  0  0  0  0  0  0  0  0  0  0
   -2.2196    9.1120   -2.3124 H   0  0  0  0  0  0  0  0  0  0  0  0
    0.0650    9.1510   -4.0282 H   0  0  0  0  0  0  0  0  0  0  0  0
   -1.2423   10.3300   -4.0972 H   0  0  0  0  0  0  0  0  0  0  0  0
    1.8382   10.1022   -1.3563 H   0  0  0  0  0  0  0  0  0  0  0  0
    1.6957    9.1344   -2.8628 H   0  0  0  0  0  0  0  0  0  0  0  0
    2.6402   10.6623   -2.8628 H   0  0  0  0  0  0  0  0  0  0  0  0
   -0.1989   12.5148   -4.0604 H   0  0  0  0  0  0  0  0  0  0  0  0
    1.2088   10.8073   -5.3785 H   0  0  0  0  0  0  0  0  0  0  0  0
    1.2532   12.6005   -5.7927 H   0  0  0  0  0  0  0  0  0  0  0  0
    3.5665   11.3391   -5.8184 H   0  0  0  0  0  0  0  0  0  0  0  0
    3.1500   12.5260   -1.9820 H   0  0  0  0  0  0  0  0  0  0  0  0
    3.7109   15.1300   -3.5305 H   0  0  0  0  0  0  0  0  0  0  0  0
    3.4136   14.9640   -1.7432 H   0  0  0  0  0  0  0  0  0  0  0  0
    5.8136   15.2555   -2.2699 H   0  0  0  0  0  0  0  0  0  0  0  0
    5.4491   13.6642   -1.4945 H   0  0  0  0  0  0  0  0  0  0  0  0
    7.0065   13.3111   -3.2853 H   0  0  0  0  0  0  0  0  0  0  0  0
    6.8000   14.3290   -5.1680 H   0  0  0  0  0  0  0  0  0  0  0  0
    5.4402   11.6481   -1.8080 H   0  0  0  0  0  0  0  0  0  0  0  0
    4.8890   10.3175   -2.8814 H   0  0  0  0  0  0  0  0  0  0  0  0
    6.6150   10.8150   -2.8814 H   0  0  0  0  0  0  0  0  0  0  0  0
    6.7474   10.9391   -4.9251 H   0  0  0  0  0  0  0  0  0  0  0  0
    5.1825   11.0987   -5.7925 H   0  0  0  0  0  0  0  0  0  0  0  0
    6.3525   12.4617   -5.7925 H   0  0  0  0  0  0  0  0  0  0  0  0
    1.0192   15.4972   -3.1890 H   0  0  0  0  0  0  0  0  0  0  0  0
    2.0825   14.8756   -4.4965 H   0  0  0  0  0  0  0  0  0  0  0  0
    0.3313   14.4755   -4.4965 H   0  0  0  0  0  0  0  0  0  0  0  0
    1.6422   14.1793   -1.0004 H   0  0  0  0  0  0  0  0  0  0  0  0
   -0.0415   14.1841   -1.7739 H   0  0  0  0  0  0  0  0  0  0  0  0
    1.3769   11.8578   -0.4462 H   0  0  0  0  0  0  0  0  0  0  0  0
   -0.1168   12.7241    0.0894 H   0  0  0  0  0  0  0  0  0  0  0  0
   -2.2269   12.5190   -1.0940 H   0  0  0  0  0  0  0  0  0  0  0  0
   -1.4421   13.1013   -2.6012 H   0  0  0  0  0  0  0  0  0  0  0  0
   -2.3460   11.5490   -2.6012 H   0  0  0  0  0  0  0  0  0  0  0  0
  1  2  1  0
  2  3  1  0
  3  4  1  0
  4  5  1  0
  5  6  1  0
  6  7  1  0
  7  8  1  0
  7  9  1  0
  2 10  1  0
 10 11  1  0
 11 12  1  0
 12 13  1  0
 13 14  1  1
 13 15  1  0
 15 16  1  0
 16 17  1  0
 17 18  2  0
 18 19  1  0
 19 20  1  0
 20 21  1  0
 21 22  1  0
 22 23  1  0
 22 24  1  0
 24 25  1  0
 24 26  1  0
 19 27  1  0
 27 28  1  6
 27 29  1  0
 29 30  1  0
 30 31  1  0
 31 32  1  6
  7  5  1  0
 31 10  1  0
 31 13  1  0
 27 15  1  0
 24 18  1  0
  1 33  1  0
  1 34  1  0
  1 35  1  0
  2 36  1  6
  3 37  1  0
  3 38  1  0
  4 39  1  0
  4 40  1  0
  5 41  1  1
  8 42  1  0
  8 43  1  0
  8 44  1  0
  9 45  1  0
  9 46  1  0
  9 47  1  0
 10 48  1  1
 11 49  1  0
 11 50  1  0
 12 51  1  0
 12 52  1  0
 14 53  1  0
 14 54  1  0
 14 55  1  0
 15 56  1  6
 16 57  1  0
 16 58  1  0
 17 59  1  0
 19 60  1  1
 20 61  1  0
 20 62  1  0
 21 63  1  0
 21 64  1  0
 22 65  1  1
 23 66  1  0
 25 67  1  0
 25 68  1  0
 25 69  1  0
 26 70  1  0
 26 71  1  0
 26 72  1  0
 28 73  1  0
 28 74  1  0
 28 75  1  0
 29 76  1  0
 29 77  1  0
 30 78  1  0
 30 79  1  0
 32 80  1  0
 32 81  1  0
 32 82  1  0
M  END
>  <meeko>  (11) 
{"is_sidechain": [false], "intermolecular_energy": 2.731, "internal_energy": -0.839}

$$$$
EPH_relaxed_0001_pdb2pqr_Repair_308_r2_0001_out
     RDKit          3D

 82 86  0  0  0  0  0  0  0  0999 V2000
    0.2750   17.8940   -0.3580 C   0  0  0  0  0  0  0  0  0  0  0  0
    1.2900   17.1260   -1.2090 C   0  0  2  0  0  0  0  0  0  0  0  0
    1.8370   17.9780   -2.3720 C   0  0  0  0  0  0  0  0  0  0  0  0
    3.3240   18.3170   -2.2400 C   0  0  0  0  0  0  0  0  0  0  0  0
    4.1520   17.0930   -1.9890 C   0  0  2  0  0  0  0  0  0  0  0  0
    5.3830   17.3340   -1.2950 O   0  0  0  0  0  0  0  0  0  0  0  0
    5.4990   16.8450   -2.6420 C   0  0  0  0  0  0  0  0  0  0  0  0
    6.0960   17.8300   -3.5970 C   0  0  0  0  0  0  0  0  0  0  0  0
    6.0030   15.4390   -2.7310 C   0  0  0  0  0  0  0  0  0  0  0  0
    0.6540   15.8510   -1.7510 C   0  0  1  0  0  0  0  0  0  0  0  0
    0.3100   15.9510   -3.2610 C   0  0  0  0  0  0  0  0  0  0  0  0
    0.5400   14.5420   -3.8670 C   0  0  0  0  0  0  0  0  0  0  0  0
    0.6840   13.6100   -2.6410 C   0  0  1  0  0  0  0  0  0  0  0  0
   -0.7800   13.3140   -2.1880 C   0  0  0  0  0  0  0  0  0  0  0  0
    1.4960   12.2930   -2.8670 C   0  0  2  0  0  0  0  0  0  0  0  0
    0.8920   11.3230   -3.8970 C   0  0  0  0  0  0  0  0  0  0  0  0
   -0.0560   10.3120   -3.3420 C   0  0  0  0  0  0  0  0  0  0  0  0
   -0.1930   10.0000   -2.0400 C   0  0  0  0  0  0  0  0  0  0  0  0
    0.7240   10.6240   -0.9800 C   0  0  1  0  0  0  0  0  0  0  0  0
    1.2360    9.5160   -0.0220 C   0  0  0  0  0  0  0  0  0  0  0  0
    0.1000    8.7050    0.5940 C   0  0  0  0  0  0  0  0  0  0  0  0
   -0.7550    8.0530   -0.4900 C   0  0  2  0  0  0  0  0  0  0  0  0
    0.0310    7.0680   -1.1670 O   0  0  0  0  0  0  0  0  0  0  0  0
   -1.3180    9.0720   -1.5200 C   0  0  0  0  0  0  0  0  0  0  0  0
   -2.4010    9.9500   -0.8450 C   0  0  0  0  0  0  0  0  0  0  0  0
   -2.0420    8.2710   -2.6360 C   0  0  0  0  0  0  0  0  0  0  0  0
    1.8970   11.5430   -1.5330 C   0  0  1  0  0  0  0  0  0  0  0  0
    3.1430   10.6680   -1.8710 C   0  0  0  0  0  0  0  0  0  0  0  0
    2.3480   12.5380   -0.3990 C   0  0  0  0  0  0  0  0  0  0  0  0
    1.5860   13.8730   -0.3030 C   0  0  0  0  0  0  0  0  0  0  0  0
    1.4920   14.5500   -1.6740 C   0  0  2  0  0  0  0  0  0  0  0  0
    2.9490   14.8800   -2.1460 C   0  0  0  0  0  0  0  0  0  0  0  0
    0.4916   17.7301    0.7079 H   0  0  0  0  0  0  0  0  0  0  0  0
    0.3440   18.9680   -0.5853 H   0  0  0  0  0  0  0  0  0  0  0  0
   -0.7398   17.5356   -0.5853 H   0  0  0  0  0  0  0  0  0  0  0  0
    2.1404   16.8707   -0.5596 H   0  0  0  0  0  0  0  0  0  0  0  0
    1.6895   17.4217   -3.3094 H   0  0  0  0  0  0  0  0  0  0  0  0
    1.2876   18.9309   -2.3586 H   0  0  0  0  0  0  0  0  0  0  0  0
    3.6650   18.7932   -3.1711 H   0  0  0  0  0  0  0  0  0  0  0  0
    3.4461   18.9951   -1.3825 H   0  0  0  0  0  0  0  0  0  0  0  0
    3.2485   16.4715   -1.9030 H   0  0  0  0  0  0  0  0  0  0  0  0
    6.5854   18.6375   -3.0327 H   0  0  0  0  0  0  0  0  0  0  0  0
    6.8388   17.3228   -4.2302 H   0  0  0  0  0  0  0  0  0  0  0  0
    5.3027   18.2539   -4.2302 H   0  0  0  0  0  0  0  0  0  0  0  0
    6.1473   15.0364   -1.7176 H   0  0  0  0  0  0  0  0  0  0  0  0
    5.2706   14.8204   -3.2704 H   0  0  0  0  0  0  0  0  0  0  0  0
    6.9616   15.4266   -3.2704 H   0  0  0  0  0  0  0  0  0  0  0  0
   -0.2153   15.7788   -1.0808 H   0  0  0  0  0  0  0  0  0  0  0  0
   -0.7399   16.2525   -3.3911 H   0  0  0  0  0  0  0  0  0  0  0  0
    0.9388   16.7029   -3.7602 H   0  0  0  0  0  0  0  0  0  0  0  0
   -0.3181   14.2404   -4.4857 H   0  0  0  0  0  0  0  0  0  0  0  0
    1.4224   14.5085   -4.5230 H   0  0  0  0  0  0  0  0  0  0  0  0
   -0.8289   13.3041   -1.0891 H   0  0  0  0  0  0  0  0  0  0  0  0
   -1.4494   14.0950   -2.5778 H   0  0  0  0  0  0  0  0  0  0  0  0
   -1.0935   12.3343   -2.5778 H   0  0  0  0  0  0  0  0  0  0  0  0
    2.4282   12.6644   -3.3175 H   0  0  0  0  0  0  0  0  0  0  0  0
    0.3525   11.9181   -4.6486 H   0  0  0  0  0  0  0  0  0  0  0  0
    1.7372   10.7529   -4.3100 H   0  0  0  0  0  0  0  0  0  0  0  0
   -0.6969    9.7767   -4.0580 H   0  0  0  0  0  0  0  0  0  0  0  0
    0.1027   11.3409   -0.4232 H   0  0  0  0  0  0  0  0  0  0  0  0
    1.8892    8.8351   -0.5874 H   0  0  0  0  0  0  0  0  0  0  0  0
    1.7782   10.0083    0.7987 H   0  0  0  0  0  0  0  0  0  0  0  0
    0.5253    7.9207    1.2374 H   0  0  0  0  0  0  0  0  0  0  0  0
   -0.5360    9.3824    1.1828 H   0  0  0  0  0  0  0  0  0  0  0  0
   -1.6238    7.5949    0.0052 H   0  0  0  0  0  0  0  0  0  0  0  0
    0.8860    7.4760   -1.3900 H   0  0  0  0  0  0  0  0  0  0  0  0
   -2.3063    9.8732    0.2482 H   0  0  0  0  0  0  0  0  0  0  0  0
   -2.2673   10.9978   -1.1519 H   0  0  0  0  0  0  0  0  0  0  0  0
   -3.3985    9.6025   -1.1519 H   0  0  0  0  0  0  0  0  0  0  0  0
   -2.7128    7.5289   -2.1784 H   0  0  0  0  0  0  0  0  0  0  0  0
   -2.6294    8.9606   -3.2601 H   0  0  0  0  0  0  0  0  0  0  0  0
   -1.2968    7.7561   -3.2601 H   0  0  0  0  0  0  0  0  0  0  0  0
    3.6199   10.3331   -0.9380 H   0  0  0  0  0  0  0  0  0  0  0  0
    2.8278    9.7919   -2.4567 H   0  0  0  0  0  0  0  0  0  0  0  0
    3.8601   11.2619   -2.4567 H   0  0  0  0  0  0  0  0  0  0  0  0
    2.2329   12.0191    0.5641 H   0  0  0  0  0  0  0  0  0  0  0  0
    3.3819   12.8144   -0.6531 H   0  0  0  0  0  0  0  0  0  0  0  0
    0.5706   13.6815    0.0742 H   0  0  0  0  0  0  0  0  0  0  0  0
    2.1313   14.5399    0.3811 H   0  0  0  0  0  0  0  0  0  0  0  0
    3.5947   15.0263   -1.2676 H   0  0  0  0  0  0  0  0  0  0  0  0
    3.3360   14.0468   -2.7509 H   0  0  0  0  0  0  0  0  0  0  0  0
    2.9392   15.7987   -2.7509 H   0  0  0  0  0  0  0  0  0  0  0  0
  1  2  1  0
  2  3  1  0
  3  4  1  0
  4  5  1  0
  5  6  1  0
  6  7  1  0
  7  8  1  0
  7  9  1  0
  2 10  1  0
 10 11  1  0
 11 12  1  0
 12 13  1  0
 13 14  1  1
 13 15  1  0
 15 16  1  0
 16 17  1  0
 17 18  2  0
 18 19  1  0
 19 20  1  0
 20 21  1  0
 21 22  1  0
 22 23  1  0
 22 24  1  0
 24 25  1  0
 24 26  1  0
 19 27  1  0
 27 28  1  6
 27 29  1  0
 29 30  1  0
 30 31  1  0
 31 32  1  6
  7  5  1  0
 31 10  1  0
 31 13  1  0
 27 15  1  0
 24 18  1  0
  1 33  1  0
  1 34  1  0
  1 35  1  0
  2 36  1  1
  3 37  1  0
  3 38  1  0
  4 39  1  0
  4 40  1  0
  5 41  1  1
  8 42  1  0
  8 43  1  0
  8 44  1  0
  9 45  1  0
  9 46  1  0
  9 47  1  0
 10 48  1  1
 11 49  1  0
 11 50  1  0
 12 51  1  0
 12 52  1  0
 14 53  1  0
 14 54  1  0
 14 55  1  0
 15 56  1  6
 16 57  1  0
 16 58  1  0
 17 59  1  0
 19 60  1  1
 20 61  1  0
 20 62  1  0
 21 63  1  0
 21 64  1  0
 22 65  1  1
 23 66  1  0
 25 67  1  0
 25 68  1  0
 25 69  1  0
 26 70  1  0
 26 71  1  0
 26 72  1  0
 28 73  1  0
 28 74  1  0
 28 75  1  0
 29 76  1  0
 29 77  1  0
 30 78  1  0
 30 79  1  0
 32 80  1  0
 32 81  1  0
 32 82  1  0
M  END
>  <meeko>  (12) 
{"is_sidechain": [false], "intermolecular_energy": 2.731, "internal_energy": -0.839}

$$$$
EPH_relaxed_0001_pdb2pqr_Repair_308_r2_0001_out
     RDKit          3D

 82 86  0  0  0  0  0  0  0  0999 V2000
   -5.1770    5.9040   -1.7870 C   0  0  0  0  0  0  0  0  0  0  0  0
   -5.4760    7.4020   -1.8920 C   0  0  2  0  0  0  0  0  0  0  0  0
   -5.2150    8.1410   -0.5640 C   0  0  0  0  0  0  0  0  0  0  0  0
   -4.2310    9.3070   -0.6920 C   0  0  0  0  0  0  0  0  0  0  0  0
   -2.8330    8.8930   -0.3420 C   0  0  2  0  0  0  0  0  0  0  0  0
   -2.2410    9.6350    0.7320 O   0  0  0  0  0  0  0  0  0  0  0  0
   -1.6200    9.7790   -0.5560 C   0  0  0  0  0  0  0  0  0  0  0  0
   -1.7490   11.1500   -1.1420 C   0  0  0  0  0  0  0  0  0  0  0  0
   -0.2720    9.1360   -0.6510 C   0  0  0  0  0  0  0  0  0  0  0  0
   -6.9200    7.6140   -2.3320 C   0  0  1  0  0  0  0  0  0  0  0  0
   -7.2440    6.9140   -3.6780 C   0  0  0  0  0  0  0  0  0  0  0  0
   -8.7130    6.4270   -3.5880 C   0  0  0  0  0  0  0  0  0  0  0  0
   -9.2850    7.1450   -2.3430 C   0  0  1  0  0  0  0  0  0  0  0  0
   -9.6580    8.5760   -2.8410 C   0  0  0  0  0  0  0  0  0  0  0  0
  -10.4930    6.4460   -1.6370 C   0  0  2  0  0  0  0  0  0  0  0  0
  -11.7610    6.3080   -2.4980 C   0  0  0  0  0  0  0  0  0  0  0  0
  -12.7240    7.4440   -2.4020 C   0  0  0  0  0  0  0  0  0  0  0  0
  -12.7200    8.3940   -1.4480 C   0  0  0  0  0  0  0  0  0  0  0  0
  -11.7350    8.3280   -0.2740 C   0  0  1  0  0  0  0  0  0  0  0  0
  -12.4910    8.6010    1.0520 C   0  0  0  0  0  0  0  0  0  0  0  0
  -13.2740    9.9110    1.0210 C   0  0  0  0  0  0  0  0  0  0  0  0
  -14.2830    9.9150   -0.1240 C   0  0  2  0  0  0  0  0  0  0  0  0
  -15.2870    8.9310    0.1430 O   0  0  0  0  0  0  0  0  0  0  0  0
  -13.6380    9.6400   -1.5110 C   0  0  0  0  0  0  0  0  0  0  0  0
  -12.7780   10.8560   -1.9360 C   0  0  0  0  0  0  0  0  0  0  0  0
  -14.7810    9.5310   -2.5560 C   0  0  0  0  0  0  0  0  0  0  0  0
  -10.8290    7.0240   -0.2030 C   0  0  1  0  0  0  0  0  0  0  0  0
  -11.5800    5.8960    0.5680 C   0  0  0  0  0  0  0  0  0  0  0  0
   -9.5320    7.3450    0.6320 C   0  0  0  0  0  0  0  0  0  0  0  0
   -8.3320    7.9220   -0.1430 C   0  0  0  0  0  0  0  0  0  0  0  0
   -8.0340    7.0870   -1.3930 C   0  0  2  0  0  0  0  0  0  0  0  0
   -7.6340    5.6470   -0.9220 C   0  0  0  0  0  0  0  0  0  0  0  0
   -5.1193    5.6150   -0.7272 H   0  0  0  0  0  0  0  0  0  0  0  0
   -5.9792    5.3346   -2.2792 H   0  0  0  0  0  0  0  0  0  0  0  0
   -4.2177    5.6862   -2.2792 H   0  0  0  0  0  0  0  0  0  0  0  0
   -4.7928    7.8241   -2.6437 H   0  0  0  0  0  0  0  0  0  0  0  0
   -6.1724    8.5338   -0.1911 H   0  0  0  0  0  0  0  0  0  0  0  0
   -4.7631    7.4130    0.1257 H   0  0  0  0  0  0  0  0  0  0  0  0
   -4.2453    9.6735   -1.7291 H   0  0  0  0  0  0  0  0  0  0  0  0
   -4.5409   10.0961    0.0089 H   0  0  0  0  0  0  0  0  0  0  0  0
   -3.0448    7.8514   -0.6254 H   0  0  0  0  0  0  0  0  0  0  0  0
   -1.8186   11.8902   -0.3313 H   0  0  0  0  0  0  0  0  0  0  0  0
   -0.8674   11.3679   -1.7627 H   0  0  0  0  0  0  0  0  0  0  0  0
   -2.6558   11.1996   -1.7627 H   0  0  0  0  0  0  0  0  0  0  0  0
    0.1177    8.9501    0.3607 H   0  0  0  0  0  0  0  0  0  0  0  0
   -0.3581    8.1820   -1.1918 H   0  0  0  0  0  0  0  0  0  0  0  0
    0.4152    9.8033   -1.1918 H   0  0  0  0  0  0  0  0  0  0  0  0
   -6.9429    8.7133   -2.3640 H   0  0  0  0  0  0  0  0  0  0  0  0
   -7.1308    7.6238   -4.5107 H   0  0  0  0  0  0  0  0  0  0  0  0
   -6.5597    6.0721   -3.8595 H   0  0  0  0  0  0  0  0  0  0  0  0
   -9.2725    6.7108   -4.4915 H   0  0  0  0  0  0  0  0  0  0  0  0
   -8.7861    5.3323   -3.5092 H   0  0  0  0  0  0  0  0  0  0  0  0
   -9.8291    9.2325   -1.9752 H   0  0  0  0  0  0  0  0  0  0  0  0
   -8.8348    8.9787   -3.4494 H   0  0  0  0  0  0  0  0  0  0  0  0
  -10.5730    8.5256   -3.4494 H   0  0  0  0  0  0  0  0  0  0  0  0
  -10.1190    5.4222   -1.4889 H   0  0  0  0  0  0  0  0  0  0  0  0
  -11.4497    6.2143   -3.5489 H   0  0  0  0  0  0  0  0  0  0  0  0
  -12.2936    5.4247   -2.1156 H   0  0  0  0  0  0  0  0  0  0  0  0
  -13.5028    7.5108   -3.1760 H   0  0  0  0  0  0  0  0  0  0  0  0
  -10.9954    9.1226   -0.4517 H   0  0  0  0  0  0  0  0  0  0  0  0
  -13.1938    7.7745    1.2337 H   0  0  0  0  0  0  0  0  0  0  0  0
  -11.7415    8.6791    1.8534 H   0  0  0  0  0  0  0  0  0  0  0  0
  -13.8100   10.0329    1.9738 H   0  0  0  0  0  0  0  0  0  0  0  0
  -12.5668   10.7398    0.8694 H   0  0  0  0  0  0  0  0  0  0  0  0
  -14.7186   10.9237   -0.1757 H   0  0  0  0  0  0  0  0  0  0  0  0
  -14.8740    8.2240    0.6670 H   0  0  0  0  0  0  0  0  0  0  0  0
  -12.4101   11.3762   -1.0393 H   0  0  0  0  0  0  0  0  0  0  0  0
  -11.9233   10.5091   -2.5353 H   0  0  0  0  0  0  0  0  0  0  0  0
  -13.3899   11.5463   -2.5353 H   0  0  0  0  0  0  0  0  0  0  0  0
  -15.7459    9.4390   -2.0358 H   0  0  0  0  0  0  0  0  0  0  0  0
  -14.7888   10.4325   -3.1863 H   0  0  0  0  0  0  0  0  0  0  0  0
  -14.6182    8.6443   -3.1863 H   0  0  0  0  0  0  0  0  0  0  0  0
  -11.4724    6.0576    1.6507 H   0  0  0  0  0  0  0  0  0  0  0  0
  -12.6463    5.9150    0.2986 H   0  0  0  0  0  0  0  0  0  0  0  0
  -11.1511    4.9195    0.2986 H   0  0  0  0  0  0  0  0  0  0  0  0
   -9.8080    8.0735    1.4086 H   0  0  0  0  0  0  0  0  0  0  0  0
   -9.1874    6.3726    1.0137 H   0  0  0  0  0  0  0  0  0  0  0  0
   -8.5619    8.9541   -0.4460 H   0  0  0  0  0  0  0  0  0  0  0  0
   -7.4484    7.9009    0.5119 H   0  0  0  0  0  0  0  0  0  0  0  0
   -7.6238    5.6104    0.1773 H   0  0  0  0  0  0  0  0  0  0  0  0
   -8.3641    4.9195   -1.3064 H   0  0  0  0  0  0  0  0  0  0  0  0
   -6.6333    5.4003   -1.3064 H   0  0  0  0  0  0  0  0  0  0  0  0
  1  2  1  0
  2  3  1  0
  3  4  1  0
  4  5  1  0
  5  6  1  0
  6  7  1  0
  7  8  1  0
  7  9  1  0
  2 10  1  0
 10 11  1  0
 11 12  1  0
 12 13  1  0
 13 14  1  6
 13 15  1  0
 15 16  1  0
 16 17  1  0
 17 18  2  0
 18 19  1  0
 19 20  1  0
 20 21  1  0
 21 22  1  0
 22 23  1  0
 22 24  1  0
 24 25  1  0
 24 26  1  0
 19 27  1  0
 27 28  1  1
 27 29  1  0
 29 30  1  0
 30 31  1  0
 31 32  1  1
  7  5  1  0
 31 10  1  0
 31 13  1  0
 27 15  1  0
 24 18  1  0
  1 33  1  0
  1 34  1  0
  1 35  1  0
  2 36  1  6
  3 37  1  0
  3 38  1  0
  4 39  1  0
  4 40  1  0
  5 41  1  1
  8 42  1  0
  8 43  1  0
  8 44  1  0
  9 45  1  0
  9 46  1  0
  9 47  1  0
 10 48  1  6
 11 49  1  0
 11 50  1  0
 12 51  1  0
 12 52  1  0
 14 53  1  0
 14 54  1  0
 14 55  1  0
 15 56  1  1
 16 57  1  0
 16 58  1  0
 17 59  1  0
 19 60  1  6
 20 61  1  0
 20 62  1  0
 21 63  1  0
 21 64  1  0
 22 65  1  6
 23 66  1  0
 25 67  1  0
 25 68  1  0
 25 69  1  0
 26 70  1  0
 26 71  1  0
 26 72  1  0
 28 73  1  0
 28 74  1  0
 28 75  1  0
 29 76  1  0
 29 77  1  0
 30 78  1  0
 30 79  1  0
 32 80  1  0
 32 81  1  0
 32 82  1  0
M  END
>  <meeko>  (13) 
{"is_sidechain": [false], "intermolecular_energy": 2.731, "internal_energy": -0.839}

$$$$
EPH_relaxed_0001_pdb2pqr_Repair_308_r2_0001_out
     RDKit          3D

 82 86  0  0  0  0  0  0  0  0999 V2000
    0.4320    9.1700   -2.7330 C   0  0  0  0  0  0  0  0  0  0  0  0
    1.2300   10.3660   -3.2580 C   0  0  2  0  0  0  0  0  0  0  0  0
    2.7040   10.3240   -2.8060 C   0  0  0  0  0  0  0  0  0  0  0  0
    3.7000   10.6440   -3.9240 C   0  0  0  0  0  0  0  0  0  0  0  0
    5.0780   10.8840   -3.3870 C   0  0  2  0  0  0  0  0  0  0  0  0
    5.7000   12.0900   -3.8500 O   0  0  0  0  0  0  0  0  0  0  0  0
    6.3280   10.8600   -4.2480 C   0  0  0  0  0  0  0  0  0  0  0  0
    6.2570   10.5890   -5.7180 C   0  0  0  0  0  0  0  0  0  0  0  0
    7.6480   10.6160   -3.5860 C   0  0  0  0  0  0  0  0  0  0  0  0
    0.5810   11.6660   -2.7990 C   0  0  1  0  0  0  0  0  0  0  0  0
   -0.6400   11.4300   -1.8710 C   0  0  0  0  0  0  0  0  0  0  0  0
   -0.6440   12.5830   -0.8350 C   0  0  0  0  0  0  0  0  0  0  0  0
    0.3620   13.6150   -1.3960 C   0  0  1  0  0  0  0  0  0  0  0  0
   -0.4380   14.4120   -2.4730 C   0  0  0  0  0  0  0  0  0  0  0  0
    1.0290   14.5670   -0.3510 C   0  0  2  0  0  0  0  0  0  0  0  0
    0.0580   15.4930    0.4030 C   0  0  0  0  0  0  0  0  0  0  0  0
   -0.1830   16.8200   -0.2360 C   0  0  0  0  0  0  0  0  0  0  0  0
    0.5680   17.3680   -1.2100 C   0  0  0  0  0  0  0  0  0  0  0  0
    1.8480   16.6770   -1.6990 C   0  0  1  0  0  0  0  0  0  0  0  0
    2.9940   17.7180   -1.7930 C   0  0  0  0  0  0  0  0  0  0  0  0
    2.6200   18.9260   -2.6470 C   0  0  0  0  0  0  0  0  0  0  0  0
    1.3770   19.6200   -2.0950 C   0  0  2  0  0  0  0  0  0  0  0  0
    1.6960   20.1940   -0.8240 O   0  0  0  0  0  0  0  0  0  0  0  0
    0.1580   18.6660   -1.9470 C   0  0  0  0  0  0  0  0  0  0  0  0
   -0.3760   18.2820   -3.3490 C   0  0  0  0  0  0  0  0  0  0  0  0
   -0.9830   19.4550   -1.2490 C   0  0  0  0  0  0  0  0  0  0  0  0
    2.2760   15.3680   -0.9070 C   0  0  1  0  0  0  0  0  0  0  0  0
    3.1440   15.7540    0.3300 C   0  0  0  0  0  0  0  0  0  0  0  0
    3.1910   14.4830   -1.8330 C   0  0  0  0  0  0  0  0  0  0  0  0
    2.4780   13.4760   -2.7560 C   0  0  0  0  0  0  0  0  0  0  0  0
    1.4550   12.6450   -1.9760 C   0  0  2  0  0  0  0  0  0  0  0  0
    2.2340   11.8160   -0.8990 C   0  0  0  0  0  0  0  0  0  0  0  0
    0.4383    9.1794   -1.6331 H   0  0  0  0  0  0  0  0  0  0  0  0
   -0.6050    9.2340   -3.0943 H   0  0  0  0  0  0  0  0  0  0  0  0
    0.8892    8.2371   -3.0943 H   0  0  0  0  0  0  0  0  0  0  0  0
    1.2201   10.3138   -4.3567 H   0  0  0  0  0  0  0  0  0  0  0  0
    2.8407   11.0583   -1.9985 H   0  0  0  0  0  0  0  0  0  0  0  0
    2.9101    9.2949   -2.4768 H   0  0  0  0  0  0  0  0  0  0  0  0
    3.7332    9.7970   -4.6250 H   0  0  0  0  0  0  0  0  0  0  0  0
    3.3646   11.5615   -4.4297 H   0  0  0  0  0  0  0  0  0  0  0  0
    4.8227   10.3809   -2.4427 H   0  0  0  0  0  0  0  0  0  0  0  0
    5.9814    9.5371   -5.8840 H   0  0  0  0  0  0  0  0  0  0  0  0
    5.4999   11.2430   -6.1753 H   0  0  0  0  0  0  0  0  0  0  0  0
    7.2375   10.7877   -6.1753 H   0  0  0  0  0  0  0  0  0  0  0  0
    7.5203   10.6396   -2.4937 H   0  0  0  0  0  0  0  0  0  0  0  0
    8.0337    9.6314   -3.8889 H   0  0  0  0  0  0  0  0  0  0  0  0
    8.3602   11.3977   -3.8889 H   0  0  0  0  0  0  0  0  0  0  0  0
    0.3408   12.1071   -3.7776 H   0  0  0  0  0  0  0  0  0  0  0  0
   -1.5703   11.4449   -2.4579 H   0  0  0  0  0  0  0  0  0  0  0  0
   -0.5740   10.4516   -1.3727 H   0  0  0  0  0  0  0  0  0  0  0  0
   -1.6475   13.0254   -0.7502 H   0  0  0  0  0  0  0  0  0  0  0  0
   -0.3700   12.2389    0.1732 H   0  0  0  0  0  0  0  0  0  0  0  0
   -1.1330   15.1044   -1.9756 H   0  0  0  0  0  0  0  0  0  0  0  0
    0.2615   14.9830   -3.1013 H   0  0  0  0  0  0  0  0  0  0  0  0
   -1.0063   13.7104   -3.1013 H   0  0  0  0  0  0  0  0  0  0  0  0
    1.4115   13.8602    0.4001 H   0  0  0  0  0  0  0  0  0  0  0  0
   -0.9090   14.9755    0.4870 H   0  0  0  0  0  0  0  0  0  0  0  0
    0.5305   15.7039    1.3737 H   0  0  0  0  0  0  0  0  0  0  0  0
   -1.0478   17.3998    0.1190 H   0  0  0  0  0  0  0  0  0  0  0  0
    1.6176   16.2834   -2.7000 H   0  0  0  0  0  0  0  0  0  0  0  0
    3.2383   18.0657   -0.7784 H   0  0  0  0  0  0  0  0  0  0  0  0
    3.8537   17.2253   -2.2707 H   0  0  0  0  0  0  0  0  0  0  0  0
    3.4584   19.6381   -2.6504 H   0  0  0  0  0  0  0  0  0  0  0  0
    2.4049   18.5807   -3.6690 H   0  0  0  0  0  0  0  0  0  0  0  0
    1.0828   20.3950   -2.8180 H   0  0  0  0  0  0  0  0  0  0  0  0
    0.9520   20.7630   -0.5630 H   0  0  0  0  0  0  0  0  0  0  0  0
   -1.2647   17.6429   -3.2405 H   0  0  0  0  0  0  0  0  0  0  0  0
   -0.6457   19.1943   -3.9012 H   0  0  0  0  0  0  0  0  0  0  0  0
    0.4031   17.7360   -3.9012 H   0  0  0  0  0  0  0  0  0  0  0  0
   -0.8690   19.3762   -0.1578 H   0  0  0  0  0  0  0  0  0  0  0  0
   -0.9333   20.5126   -1.5474 H   0  0  0  0  0  0  0  0  0  0  0  0
   -1.9549   19.0351   -1.5474 H   0  0  0  0  0  0  0  0  0  0  0  0
    2.5965   15.5105    1.2525 H   0  0  0  0  0  0  0  0  0  0  0  0
    4.0888   15.1912    0.3050 H   0  0  0  0  0  0  0  0  0  0  0  0
    3.3589   16.8325    0.3050 H   0  0  0  0  0  0  0  0  0  0  0  0
    3.7757   15.1626   -2.4705 H   0  0  0  0  0  0  0  0  0  0  0  0
    3.7891   13.8685   -1.1441 H   0  0  0  0  0  0  0  0  0  0  0  0
    1.9601   14.0255   -3.5559 H   0  0  0  0  0  0  0  0  0  0  0  0
    3.2311   12.7959   -3.1806 H   0  0  0  0  0  0  0  0  0  0  0  0
    1.9281   12.1416    0.1062 H   0  0  0  0  0  0  0  0  0  0  0  0
    2.0060   10.7471   -1.0235 H   0  0  0  0  0  0  0  0  0  0  0  0
    3.3150   11.9772   -1.0235 H   0  0  0  0  0  0  0  0  0  0  0  0
  1  2  1  0
  2  3  1  0
  3  4  1  0
  4  5  1  0
  5  6  1  0
  6  7  1  0
  7  8  1  0
  7  9  1  0
  2 10  1  0
 10 11  1  0
 11 12  1  0
 12 13  1  0
 13 14  1  6
 13 15  1  0
 15 16  1  0
 16 17  1  0
 17 18  2  0
 18 19  1  0
 19 20  1  0
 20 21  1  0
 21 22  1  0
 22 23  1  0
 22 24  1  0
 24 25  1  0
 24 26  1  0
 19 27  1  0
 27 28  1  1
 27 29  1  0
 29 30  1  0
 30 31  1  0
 31 32  1  1
  7  5  1  0
 31 10  1  0
 31 13  1  0
 27 15  1  0
 24 18  1  0
  1 33  1  0
  1 34  1  0
  1 35  1  0
  2 36  1  6
  3 37  1  0
  3 38  1  0
  4 39  1  0
  4 40  1  0
  5 41  1  1
  8 42  1  0
  8 43  1  0
  8 44  1  0
  9 45  1  0
  9 46  1  0
  9 47  1  0
 10 48  1  6
 11 49  1  0
 11 50  1  0
 12 51  1  0
 12 52  1  0
 14 53  1  0
 14 54  1  0
 14 55  1  0
 15 56  1  1
 16 57  1  0
 16 58  1  0
 17 59  1  0
 19 60  1  6
 20 61  1  0
 20 62  1  0
 21 63  1  0
 21 64  1  0
 22 65  1  6
 23 66  1  0
 25 67  1  0
 25 68  1  0
 25 69  1  0
 26 70  1  0
 26 71  1  0
 26 72  1  0
 28 73  1  0
 28 74  1  0
 28 75  1  0
 29 76  1  0
 29 77  1  0
 30 78  1  0
 30 79  1  0
 32 80  1  0
 32 81  1  0
 32 82  1  0
M  END
>  <meeko>  (14) 
{"is_sidechain": [false], "intermolecular_energy": 2.731, "internal_energy": -0.839}

$$$$
EPH_relaxed_0001_pdb2pqr_Repair_308_r2_0001_out
     RDKit          3D

 82 86  0  0  0  0  0  0  0  0999 V2000
    0.0960   10.0970    1.5560 C   0  0  0  0  0  0  0  0  0  0  0  0
    0.4120   10.3780    0.0850 C   0  0  2  0  0  0  0  0  0  0  0  0
    0.9480    9.1290   -0.6430 C   0  0  0  0  0  0  0  0  0  0  0  0
    0.0500    8.6500   -1.7870 C   0  0  0  0  0  0  0  0  0  0  0  0
   -1.2920    8.2040   -1.2890 C   0  0  2  0  0  0  0  0  0  0  0  0
   -2.3670    8.3880   -2.2190 O   0  0  0  0  0  0  0  0  0  0  0  0
   -2.4380    9.1570   -1.0070 C   0  0  0  0  0  0  0  0  0  0  0  0
   -2.2960   10.6320   -1.2120 C   0  0  0  0  0  0  0  0  0  0  0  0
   -3.5240    8.7140   -0.0750 C   0  0  0  0  0  0  0  0  0  0  0  0
    1.4200   11.5160   -0.0220 C   0  0  1  0  0  0  0  0  0  0  0  0
    2.7610   11.0680   -0.6610 C   0  0  0  0  0  0  0  0  0  0  0  0
    3.2820   12.2660   -1.4960 C   0  0  0  0  0  0  0  0  0  0  0  0
    2.4080   13.4620   -1.0490 C   0  0  1  0  0  0  0  0  0  0  0  0
    3.0510   13.9500    0.2870 C   0  0  0  0  0  0  0  0  0  0  0  0
    2.2560   14.6290   -2.0770 C   0  0  2  0  0  0  0  0  0  0  0  0
    3.5650   15.3500   -2.4440 C   0  0  0  0  0  0  0  0  0  0  0  0
    3.9080   16.5240   -1.5870 C   0  0  0  0  0  0  0  0  0  0  0  0
    3.0630   17.1550   -0.7510 C   0  0  0  0  0  0  0  0  0  0  0  0
    1.5840   16.7570   -0.6770 C   0  0  1  0  0  0  0  0  0  0  0  0
    0.7020   18.0330   -0.7100 C   0  0  0  0  0  0  0  0  0  0  0  0
    1.0900   19.0400    0.3680 C   0  0  0  0  0  0  0  0  0  0  0  0
    2.5520   19.4560    0.2260 C   0  0  2  0  0  0  0  0  0  0  0  0
    2.7060   20.1920   -0.9910 O   0  0  0  0  0  0  0  0  0  0  0  0
    3.5340   18.2520    0.2360 C   0  0  0  0  0  0  0  0  0  0  0  0
    3.5890   17.6360    1.6570 C   0  0  0  0  0  0  0  0  0  0  0  0
    4.9590   18.7960   -0.0560 C   0  0  0  0  0  0  0  0  0  0  0  0
    1.1080   15.6590   -1.7230 C   0  0  1  0  0  0  0  0  0  0  0  0
    0.6960   16.3440   -3.0620 C   0  0  0  0  0  0  0  0  0  0  0  0
   -0.1840   14.9490   -1.1710 C   0  0  0  0  0  0  0  0  0  0  0  0
    0.0310   13.7280   -0.2560 C   0  0  0  0  0  0  0  0  0  0  0  0
    1.0210   12.7410   -0.8830 C   0  0  2  0  0  0  0  0  0  0  0  0
    0.3910   12.2150   -2.2180 C   0  0  0  0  0  0  0  0  0  0  0  0
    0.7651   10.6920    2.1949 H   0  0  0  0  0  0  0  0  0  0  0  0
   -0.9489   10.3697    1.7651 H   0  0  0  0  0  0  0  0  0  0  0  0
    0.2447    9.0274    1.7651 H   0  0  0  0  0  0  0  0  0  0  0  0
   -0.5289   10.6675   -0.4058 H   0  0  0  0  0  0  0  0  0  0  0  0
    1.9394    9.3666   -1.0560 H   0  0  0  0  0  0  0  0  0  0  0  0
    0.9854    8.3167    0.0978 H   0  0  0  0  0  0  0  0  0  0  0  0
   -0.0907    9.4761   -2.4996 H   0  0  0  0  0  0  0  0  0  0  0  0
    0.5391    7.7914   -2.2704 H   0  0  0  0  0  0  0  0  0  0  0  0
   -0.8304    7.4069   -0.6877 H   0  0  0  0  0  0  0  0  0  0  0  0
   -2.2476   11.1350   -0.2349 H   0  0  0  0  0  0  0  0  0  0  0  0
   -1.3740   10.8367   -1.7759 H   0  0  0  0  0  0  0  0  0  0  0  0
   -3.1620   11.0089   -1.7759 H   0  0  0  0  0  0  0  0  0  0  0  0
   -3.1924    8.8493    0.9651 H   0  0  0  0  0  0  0  0  0  0  0  0
   -4.4277    9.3153   -0.2529 H   0  0  0  0  0  0  0  0  0  0  0  0
   -3.7493    7.6521   -0.2529 H   0  0  0  0  0  0  0  0  0  0  0  0
    1.4845   11.8052    1.0374 H   0  0  0  0  0  0  0  0  0  0  0  0
    3.4868   10.8095    0.1241 H   0  0  0  0  0  0  0  0  0  0  0  0
    2.6194   10.1787   -1.2927 H   0  0  0  0  0  0  0  0  0  0  0  0
    4.3432   12.4581   -1.2795 H   0  0  0  0  0  0  0  0  0  0  0  0
    3.2145   12.0812   -2.5783 H   0  0  0  0  0  0  0  0  0  0  0  0
    2.4950   13.5280    1.1371 H   0  0  0  0  0  0  0  0  0  0  0  0
    4.0986   13.6175    0.3327 H   0  0  0  0  0  0  0  0  0  0  0  0
    3.0126   15.0484    0.3327 H   0  0  0  0  0  0  0  0  0  0  0  0
    1.9406   14.1007   -2.9888 H   0  0  0  0  0  0  0  0  0  0  0  0
    4.3866   14.6224   -2.3686 H   0  0  0  0  0  0  0  0  0  0  0  0
    3.4198   15.7465   -3.4597 H   0  0  0  0  0  0  0  0  0  0  0  0
    4.9383   16.9051   -1.6439 H   0  0  0  0  0  0  0  0  0  0  0  0
    1.4563   16.2397    0.2853 H   0  0  0  0  0  0  0  0  0  0  0  0
    0.8103   18.5112   -1.6947 H   0  0  0  0  0  0  0  0  0  0  0  0
   -0.3372   17.7256   -0.5214 H   0  0  0  0  0  0  0  0  0  0  0  0
    0.4516   19.9309    0.2747 H   0  0  0  0  0  0  0  0  0  0  0  0
    0.9531   18.5698    1.3530 H   0  0  0  0  0  0  0  0  0  0  0  0
    2.8053   20.0753    1.0991 H   0  0  0  0  0  0  0  0  0  0  0  0
    3.4150   19.7680   -1.5040 H   0  0  0  0  0  0  0  0  0  0  0  0
    3.5174   18.4374    2.4071 H   0  0  0  0  0  0  0  0  0  0  0  0
    2.7497   16.9368    1.7863 H   0  0  0  0  0  0  0  0  0  0  0  0
    4.5389   17.0965    1.7863 H   0  0  0  0  0  0  0  0  0  0  0  0
    5.4776   18.9940    0.8937 H   0  0  0  0  0  0  0  0  0  0  0  0
    5.5247   18.0506   -0.6342 H   0  0  0  0  0  0  0  0  0  0  0  0
    4.8840   19.7287   -0.6342 H   0  0  0  0  0  0  0  0  0  0  0  0
    0.1402   17.2681   -2.8452 H   0  0  0  0  0  0  0  0  0  0  0  0
    1.5983   16.5864   -3.6426 H   0  0  0  0  0  0  0  0  0  0  0  0
    0.0590   15.6606   -3.6426 H   0  0  0  0  0  0  0  0  0  0  0  0
   -0.7560   15.6956   -0.6006 H   0  0  0  0  0  0  0  0  0  0  0  0
   -0.6980   14.5552   -2.0602 H   0  0  0  0  0  0  0  0  0  0  0  0
    0.4269   14.0689    0.7120 H   0  0  0  0  0  0  0  0  0  0  0  0
   -0.9339   13.2179   -0.1190 H   0  0  0  0  0  0  0  0  0  0  0  0
   -0.4346   11.5257   -1.9872 H   0  0  0  0  0  0  0  0  0  0  0  0
    0.0071   13.0645   -2.8019 H   0  0  0  0  0  0  0  0  0  0  0  0
    1.1583   11.6856   -2.8019 H   0  0  0  0  0  0  0  0  0  0  0  0
  1  2  1  0
  2  3  1  0
  3  4  1  0
  4  5  1  0
  5  6  1  0
  6  7  1  0
  7  8  1  0
  7  9  1  0
  2 10  1  0
 10 11  1  0
 11 12  1  0
 12 13  1  0
 13 14  1  1
 13 15  1  0
 15 16  1  0
 16 17  1  0
 17 18  2  0
 18 19  1  0
 19 20  1  0
 20 21  1  0
 21 22  1  0
 22 23  1  0
 22 24  1  0
 24 25  1  0
 24 26  1  0
 19 27  1  0
 27 28  1  6
 27 29  1  0
 29 30  1  0
 30 31  1  0
 31 32  1  6
  7  5  1  0
 31 10  1  0
 31 13  1  0
 27 15  1  0
 24 18  1  0
  1 33  1  0
  1 34  1  0
  1 35  1  0
  2 36  1  6
  3 37  1  0
  3 38  1  0
  4 39  1  0
  4 40  1  0
  5 41  1  1
  8 42  1  0
  8 43  1  0
  8 44  1  0
  9 45  1  0
  9 46  1  0
  9 47  1  0
 10 48  1  1
 11 49  1  0
 11 50  1  0
 12 51  1  0
 12 52  1  0
 14 53  1  0
 14 54  1  0
 14 55  1  0
 15 56  1  6
 16 57  1  0
 16 58  1  0
 17 59  1  0
 19 60  1  1
 20 61  1  0
 20 62  1  0
 21 63  1  0
 21 64  1  0
 22 65  1  1
 23 66  1  0
 25 67  1  0
 25 68  1  0
 25 69  1  0
 26 70  1  0
 26 71  1  0
 26 72  1  0
 28 73  1  0
 28 74  1  0
 28 75  1  0
 29 76  1  0
 29 77  1  0
 30 78  1  0
 30 79  1  0
 32 80  1  0
 32 81  1  0
 32 82  1  0
M  END
>  <meeko>  (15) 
{"is_sidechain": [false], "intermolecular_energy": 2.731, "internal_energy": -0.839}

$$$$
EPH_relaxed_0001_pdb2pqr_Repair_308_r2_0001_out
     RDKit          3D

 82 86  0  0  0  0  0  0  0  0999 V2000
    2.3010   19.3190   -0.5110 C   0  0  0  0  0  0  0  0  0  0  0  0
    2.9890   17.9520   -0.5540 C   0  0  2  0  0  0  0  0  0  0  0  0
    3.8400   17.7700   -1.8260 C   0  0  0  0  0  0  0  0  0  0  0  0
    5.2800   17.3320   -1.5460 C   0  0  0  0  0  0  0  0  0  0  0  0
    6.2230   17.8140   -2.6060 C   0  0  2  0  0  0  0  0  0  0  0  0
    5.6820   17.8140   -3.9340 O   0  0  0  0  0  0  0  0  0  0  0  0
    6.7810   16.9200   -3.6980 C   0  0  0  0  0  0  0  0  0  0  0  0
    6.4170   15.4710   -3.7830 C   0  0  0  0  0  0  0  0  0  0  0  0
    8.0490   17.3310   -4.3810 C   0  0  0  0  0  0  0  0  0  0  0  0
    1.9470   16.8430   -0.4620 C   0  0  1  0  0  0  0  0  0  0  0  0
    0.4960   17.3730   -0.6060 C   0  0  0  0  0  0  0  0  0  0  0  0
   -0.3070   16.2800   -1.3580 C   0  0  0  0  0  0  0  0  0  0  0  0
    0.6080   15.0340   -1.3270 C   0  0  1  0  0  0  0  0  0  0  0  0
    0.3840   14.4060    0.0840 C   0  0  0  0  0  0  0  0  0  0  0  0
    0.3880   13.9870   -2.4670 C   0  0  2  0  0  0  0  0  0  0  0  0
   -1.0010   13.3240   -2.4850 C   0  0  0  0  0  0  0  0  0  0  0  0
   -1.1170   12.0660   -1.6890 C   0  0  0  0  0  0  0  0  0  0  0  0
   -0.0860   11.3370   -1.2240 C   0  0  0  0  0  0  0  0  0  0  0  0
    1.3620   11.7090   -1.5690 C   0  0  1  0  0  0  0  0  0  0  0  0
    2.1340   10.4360   -2.0040 C   0  0  0  0  0  0  0  0  0  0  0  0
    2.0510    9.3190   -0.9680 C   0  0  0  0  0  0  0  0  0  0  0  0
    0.5980    8.9370   -0.6940 C   0  0  2  0  0  0  0  0  0  0  0  0
    0.0480    8.3420   -1.8740 O   0  0  0  0  0  0  0  0  0  0  0  0
   -0.2810   10.1420   -0.2580 C   0  0  0  0  0  0  0  0  0  0  0  0
    0.1280   10.5960    1.1660 C   0  0  0  0  0  0  0  0  0  0  0  0
   -1.7490    9.6490   -0.1510 C   0  0  0  0  0  0  0  0  0  0  0  0
    1.5430   12.9120   -2.5920 C   0  0  1  0  0  0  0  0  0  0  0  0
    1.4960   12.3770   -4.0560 C   0  0  0  0  0  0  0  0  0  0  0  0
    2.9710   13.5440   -2.3960 C   0  0  0  0  0  0  0  0  0  0  0  0
    3.1000   14.6570   -1.3380 C   0  0  0  0  0  0  0  0  0  0  0  0
    2.0100   15.7180   -1.5240 C   0  0  2  0  0  0  0  0  0  0  0  0
    2.2240   16.3820   -2.9270 C   0  0  0  0  0  0  0  0  0  0  0  0
    2.1493   19.6204    0.5360 H   0  0  0  0  0  0  0  0  0  0  0  0
    2.9319   20.0632   -1.0190 H   0  0  0  0  0  0  0  0  0  0  0  0
    1.3274   19.2556   -1.0190 H   0  0  0  0  0  0  0  0  0  0  0  0
    3.6690   17.8965    0.3089 H   0  0  0  0  0  0  0  0  0  0  0  0
    3.3616   17.0070   -2.4576 H   0  0  0  0  0  0  0  0  0  0  0  0
    3.8930   18.7513   -2.3203 H   0  0  0  0  0  0  0  0  0  0  0  0
    5.5950   17.7427   -0.5754 H   0  0  0  0  0  0  0  0  0  0  0  0
    5.3079   16.2324   -1.5371 H   0  0  0  0  0  0  0  0  0  0  0  0
    6.7059   18.5024   -1.8968 H   0  0  0  0  0  0  0  0  0  0  0  0
    6.3135   15.0588   -2.7684 H   0  0  0  0  0  0  0  0  0  0  0  0
    5.4639   15.3633   -4.3215 H   0  0  0  0  0  0  0  0  0  0  0  0
    7.2061   14.9257   -4.3215 H   0  0  0  0  0  0  0  0  0  0  0  0
    8.8093   17.5774   -3.6252 H   0  0  0  0  0  0  0  0  0  0  0  0
    8.4114   16.5043   -5.0097 H   0  0  0  0  0  0  0  0  0  0  0  0
    7.8575   18.2131   -5.0097 H   0  0  0  0  0  0  0  0  0  0  0  0
    2.1965   16.4381    0.5299 H   0  0  0  0  0  0  0  0  0  0  0  0
    0.0570   17.5498    0.3870 H   0  0  0  0  0  0  0  0  0  0  0  0
    0.4762   18.3258   -1.1553 H   0  0  0  0  0  0  0  0  0  0  0  0
   -1.2588   16.0758   -0.8458 H   0  0  0  0  0  0  0  0  0  0  0  0
   -0.5651   16.5829   -2.3835 H   0  0  0  0  0  0  0  0  0  0  0  0
    0.6464   15.1416    0.8586 H   0  0  0  0  0  0  0  0  0  0  0  0
   -0.6721   14.1186    0.1940 H   0  0  0  0  0  0  0  0  0  0  0  0
    1.0198   13.5151    0.1940 H   0  0  0  0  0  0  0  0  0  0  0  0
    0.4333   14.6108   -3.3719 H   0  0  0  0  0  0  0  0  0  0  0  0
   -1.7280   14.0469   -2.0863 H   0  0  0  0  0  0  0  0  0  0  0  0
   -1.1899   13.0410   -3.5311 H   0  0  0  0  0  0  0  0  0  0  0  0
   -2.1312   11.7046   -1.4636 H   0  0  0  0  0  0  0  0  0  0  0  0
    1.8009   12.1138   -0.6451 H   0  0  0  0  0  0  0  0  0  0  0  0
    1.7082   10.0715   -2.9505 H   0  0  0  0  0  0  0  0  0  0  0  0
    3.1935   10.7098   -2.1157 H   0  0  0  0  0  0  0  0  0  0  0  0
    2.5903    8.4374   -1.3449 H   0  0  0  0  0  0  0  0  0  0  0  0
    2.5038    9.6746   -0.0307 H   0  0  0  0  0  0  0  0  0  0  0  0
    0.5962    8.2278    0.1469 H   0  0  0  0  0  0  0  0  0  0  0  0
   -0.5200    9.0060   -2.3000 H   0  0  0  0  0  0  0  0  0  0  0  0
   -0.4131    9.9953    1.9119 H   0  0  0  0  0  0  0  0  0  0  0  0
    1.2110   10.4563    1.2985 H   0  0  0  0  0  0  0  0  0  0  0  0
   -0.1236   11.6586    1.2985 H   0  0  0  0  0  0  0  0  0  0  0  0
   -2.0280    9.5553    0.9089 H   0  0  0  0  0  0  0  0  0  0  0  0
   -2.4156   10.3726   -0.6430 H   0  0  0  0  0  0  0  0  0  0  0  0
   -1.8437    8.6698   -0.6430 H   0  0  0  0  0  0  0  0  0  0  0  0
    1.3997   11.2813   -4.0431 H   0  0  0  0  0  0  0  0  0  0  0  0
    0.6329   12.8148   -4.5788 H   0  0  0  0  0  0  0  0  0  0  0  0
    2.4223   12.6576   -4.5788 H   0  0  0  0  0  0  0  0  0  0  0  0
    3.6574   12.7330   -2.1110 H   0  0  0  0  0  0  0  0  0  0  0  0
    3.2041   14.0304   -3.3547 H   0  0  0  0  0  0  0  0  0  0  0  0
    3.0039   14.2139   -0.3358 H   0  0  0  0  0  0  0  0  0  0  0  0
    4.0822   15.1387   -1.4529 H   0  0  0  0  0  0  0  0  0  0  0  0
    2.5589   17.4212   -2.7936 H   0  0  0  0  0  0  0  0  0  0  0  0
    2.9865   15.8199   -3.4862 H   0  0  0  0  0  0  0  0  0  0  0  0
    1.2768   16.3710   -3.4862 H   0  0  0  0  0  0  0  0  0  0  0  0
  1  2  1  0
  2  3  1  0
  3  4  1  0
  4  5  1  0
  5  6  1  0
  6  7  1  0
  7  8  1  0
  7  9  1  0
  2 10  1  0
 10 11  1  0
 11 12  1  0
 12 13  1  0
 13 14  1  1
 13 15  1  0
 15 16  1  0
 16 17  1  0
 17 18  2  0
 18 19  1  0
 19 20  1  0
 20 21  1  0
 21 22  1  0
 22 23  1  0
 22 24  1  0
 24 25  1  0
 24 26  1  0
 19 27  1  0
 27 28  1  6
 27 29  1  0
 29 30  1  0
 30 31  1  0
 31 32  1  6
  7  5  1  0
 31 10  1  0
 31 13  1  0
 27 15  1  0
 24 18  1  0
  1 33  1  0
  1 34  1  0
  1 35  1  0
  2 36  1  1
  3 37  1  0
  3 38  1  0
  4 39  1  0
  4 40  1  0
  5 41  1  1
  8 42  1  0
  8 43  1  0
  8 44  1  0
  9 45  1  0
  9 46  1  0
  9 47  1  0
 10 48  1  1
 11 49  1  0
 11 50  1  0
 12 51  1  0
 12 52  1  0
 14 53  1  0
 14 54  1  0
 14 55  1  0
 15 56  1  6
 16 57  1  0
 16 58  1  0
 17 59  1  0
 19 60  1  1
 20 61  1  0
 20 62  1  0
 21 63  1  0
 21 64  1  0
 22 65  1  1
 23 66  1  0
 25 67  1  0
 25 68  1  0
 25 69  1  0
 26 70  1  0
 26 71  1  0
 26 72  1  0
 28 73  1  0
 28 74  1  0
 28 75  1  0
 29 76  1  0
 29 77  1  0
 30 78  1  0
 30 79  1  0
 32 80  1  0
 32 81  1  0
 32 82  1  0
M  END
>  <meeko>  (16) 
{"is_sidechain": [false], "intermolecular_energy": 2.731, "internal_energy": -0.839}

$$$$
EPH_relaxed_0001_pdb2pqr_Repair_308_r2_0001_out
     RDKit          3D

 82 86  0  0  0  0  0  0  0  0999 V2000
    3.9790   17.6110   -2.2560 C   0  0  0  0  0  0  0  0  0  0  0  0
    2.5460   17.0970   -2.0930 C   0  0  2  0  0  0  0  0  0  0  0  0
    1.9480   17.4720   -0.7220 C   0  0  0  0  0  0  0  0  0  0  0  0
    1.5720   18.9510   -0.5980 C   0  0  0  0  0  0  0  0  0  0  0  0
    2.1080   19.5550    0.6650 C   0  0  2  0  0  0  0  0  0  0  0  0
    3.3840   20.1920    0.5290 O   0  0  0  0  0  0  0  0  0  0  0  0
    3.3400   19.0370    1.3830 C   0  0  0  0  0  0  0  0  0  0  0  0
    4.1120   17.8660    0.8620 C   0  0  0  0  0  0  0  0  0  0  0  0
    3.5080   19.3550    2.8360 C   0  0  0  0  0  0  0  0  0  0  0  0
    2.5120   15.5850   -2.2800 C   0  0  1  0  0  0  0  0  0  0  0  0
    3.9100   14.9910   -2.6020 C   0  0  0  0  0  0  0  0  0  0  0  0
    3.9700   13.5980   -1.9250 C   0  0  0  0  0  0  0  0  0  0  0  0
    2.5080   13.2950   -1.5230 C   0  0  1  0  0  0  0  0  0  0  0  0
    1.8330   12.7710   -2.8300 C   0  0  0  0  0  0  0  0  0  0  0  0
    2.3100   12.3020   -0.3330 C   0  0  2  0  0  0  0  0  0  0  0  0
    2.8420   10.8790   -0.5750 C   0  0  0  0  0  0  0  0  0  0  0  0
    1.8600    9.9230   -1.1680 C   0  0  0  0  0  0  0  0  0  0  0  0
    0.5290   10.1080   -1.2310 C   0  0  0  0  0  0  0  0  0  0  0  0
   -0.1280   11.3340   -0.5820 C   0  0  1  0  0  0  0  0  0  0  0  0
   -1.3710   10.8860    0.2300 C   0  0  0  0  0  0  0  0  0  0  0  0
   -2.3540   10.0720   -0.6060 C   0  0  0  0  0  0  0  0  0  0  0  0
   -1.6790    8.8310   -1.1860 C   0  0  2  0  0  0  0  0  0  0  0  0
   -1.3400    7.9470   -0.1130 O   0  0  0  0  0  0  0  0  0  0  0  0
   -0.4070    9.1570   -2.0170 C   0  0  0  0  0  0  0  0  0  0  0  0
   -0.8140    9.8580   -3.3380 C   0  0  0  0  0  0  0  0  0  0  0  0
    0.2550    7.8130   -2.4250 C   0  0  0  0  0  0  0  0  0  0  0  0
    0.8400   12.2770    0.2540 C   0  0  1  0  0  0  0  0  0  0  0  0
    0.9540   11.7580    1.7190 C   0  0  0  0  0  0  0  0  0  0  0  0
    0.2060   13.7160    0.3400 C   0  0  0  0  0  0  0  0  0  0  0  0
    0.5360   14.6910   -0.8060 C   0  0  0  0  0  0  0  0  0  0  0  0
    2.0430   14.7290   -1.0770 C   0  0  2  0  0  0  0  0  0  0  0  0
    2.7470   15.2740    0.2130 C   0  0  0  0  0  0  0  0  0  0  0  0
    4.4261   17.7714   -1.2638 H   0  0  0  0  0  0  0  0  0  0  0  0
    4.5735   16.8700   -2.8106 H   0  0  0  0  0  0  0  0  0  0  0  0
    3.9670   18.5609   -2.8106 H   0  0  0  0  0  0  0  0  0  0  0  0
    1.9304   17.5809   -2.8656 H   0  0  0  0  0  0  0  0  0  0  0  0
    1.0422   16.8688   -0.5616 H   0  0  0  0  0  0  0  0  0  0  0  0
    2.7238   17.2733    0.0321 H   0  0  0  0  0  0  0  0  0  0  0  0
    1.9860   19.4975   -1.4582 H   0  0  0  0  0  0  0  0  0  0  0  0
    0.4747   19.0253   -0.5750 H   0  0  0  0  0  0  0  0  0  0  0  0
    1.0905   19.7817    1.0161 H   0  0  0  0  0  0  0  0  0  0  0  0
    4.5000   17.2775    1.7065 H   0  0  0  0  0  0  0  0  0  0  0  0
    3.4520   17.2354    0.2482 H   0  0  0  0  0  0  0  0  0  0  0  0
    4.9517   18.2241    0.2482 H   0  0  0  0  0  0  0  0  0  0  0  0
    3.0789   18.5428    3.4411 H   0  0  0  0  0  0  0  0  0  0  0  0
    4.5784   19.4584    3.0673 H   0  0  0  0  0  0  0  0  0  0  0  0
    2.9901   20.2975    3.0673 H   0  0  0  0  0  0  0  0  0  0  0  0
    1.7793   15.5175   -3.0977 H   0  0  0  0  0  0  0  0  0  0  0  0
    4.0371   14.8894   -3.6899 H   0  0  0  0  0  0  0  0  0  0  0  0
    4.7125   15.6456   -2.2311 H   0  0  0  0  0  0  0  0  0  0  0  0
    4.3440   12.8401   -2.6291 H   0  0  0  0  0  0  0  0  0  0  0  0
    4.6511   13.5835   -1.0614 H   0  0  0  0  0  0  0  0  0  0  0  0
    0.9888   12.1157   -2.5694 H   0  0  0  0  0  0  0  0  0  0  0  0
    1.4666   13.6236   -3.4207 H   0  0  0  0  0  0  0  0  0  0  0  0
    2.5681   12.2046   -3.4207 H   0  0  0  0  0  0  0  0  0  0  0  0
    2.9567   12.7350    0.4443 H   0  0  0  0  0  0  0  0  0  0  0  0
    3.7023   10.9492   -1.2569 H   0  0  0  0  0  0  0  0  0  0  0  0
    3.0973   10.4769    0.4165 H   0  0  0  0  0  0  0  0  0  0  0  0
    2.2588    8.9883   -1.5890 H   0  0  0  0  0  0  0  0  0  0  0  0
   -0.4395   11.9871   -1.4105 H   0  0  0  0  0  0  0  0  0  0  0  0
   -1.0353   10.2707    1.0778 H   0  0  0  0  0  0  0  0  0  0  0  0
   -1.8927   11.7930    0.5694 H   0  0  0  0  0  0  0  0  0  0  0  0
   -3.1956    9.7602    0.0300 H   0  0  0  0  0  0  0  0  0  0  0  0
   -2.7115   10.6982   -1.4367 H   0  0  0  0  0  0  0  0  0  0  0  0
   -2.3927    8.3602   -1.8781 H   0  0  0  0  0  0  0  0  0  0  0  0
   -1.4580    8.4360    0.7190 H   0  0  0  0  0  0  0  0  0  0  0  0
   -1.3541   10.7883   -3.1081 H   0  0  0  0  0  0  0  0  0  0  0  0
    0.0883   10.0926   -3.9217 H   0  0  0  0  0  0  0  0  0  0  0  0
   -1.4651    9.1907   -3.9217 H   0  0  0  0  0  0  0  0  0  0  0  0
    0.5317    7.2512   -1.5207 H   0  0  0  0  0  0  0  0  0  0  0  0
   -0.4546    7.2210   -3.0217 H   0  0  0  0  0  0  0  0  0  0  0  0
    1.1568    8.0147   -3.0217 H   0  0  0  0  0  0  0  0  0  0  0  0
    0.7717   12.5881    2.4173 H   0  0  0  0  0  0  0  0  0  0  0  0
    0.2082   10.9671    1.8869 H   0  0  0  0  0  0  0  0  0  0  0  0
    1.9626   11.3525    1.8869 H   0  0  0  0  0  0  0  0  0  0  0  0
   -0.8871   13.5966    0.3707 H   0  0  0  0  0  0  0  0  0  0  0  0
    0.6460   14.1706    1.2398 H   0  0  0  0  0  0  0  0  0  0  0  0
    0.0146   14.3642   -1.7178 H   0  0  0  0  0  0  0  0  0  0  0  0
    0.2067   15.6992   -0.5143 H   0  0  0  0  0  0  0  0  0  0  0  0
    2.2368   14.8790    1.1039 H   0  0  0  0  0  0  0  0  0  0  0  0
    3.7990   14.9525    0.2202 H   0  0  0  0  0  0  0  0  0  0  0  0
    2.6994   16.3729    0.2202 H   0  0  0  0  0  0  0  0  0  0  0  0
  1  2  1  0
  2  3  1  0
  3  4  1  0
  4  5  1  0
  5  6  1  0
  6  7  1  0
  7  8  1  0
  7  9  1  0
  2 10  1  0
 10 11  1  0
 11 12  1  0
 12 13  1  0
 13 14  1  6
 13 15  1  0
 15 16  1  0
 16 17  1  0
 17 18  2  0
 18 19  1  0
 19 20  1  0
 20 21  1  0
 21 22  1  0
 22 23  1  0
 22 24  1  0
 24 25  1  0
 24 26  1  0
 19 27  1  0
 27 28  1  1
 27 29  1  0
 29 30  1  0
 30 31  1  0
 31 32  1  1
  7  5  1  0
 31 10  1  0
 31 13  1  0
 27 15  1  0
 24 18  1  0
  1 33  1  0
  1 34  1  0
  1 35  1  0
  2 36  1  6
  3 37  1  0
  3 38  1  0
  4 39  1  0
  4 40  1  0
  5 41  1  1
  8 42  1  0
  8 43  1  0
  8 44  1  0
  9 45  1  0
  9 46  1  0
  9 47  1  0
 10 48  1  6
 11 49  1  0
 11 50  1  0
 12 51  1  0
 12 52  1  0
 14 53  1  0
 14 54  1  0
 14 55  1  0
 15 56  1  1
 16 57  1  0
 16 58  1  0
 17 59  1  0
 19 60  1  6
 20 61  1  0
 20 62  1  0
 21 63  1  0
 21 64  1  0
 22 65  1  6
 23 66  1  0
 25 67  1  0
 25 68  1  0
 25 69  1  0
 26 70  1  0
 26 71  1  0
 26 72  1  0
 28 73  1  0
 28 74  1  0
 28 75  1  0
 29 76  1  0
 29 77  1  0
 30 78  1  0
 30 79  1  0
 32 80  1  0
 32 81  1  0
 32 82  1  0
M  END
>  <meeko>  (17) 
{"is_sidechain": [false], "intermolecular_energy": 2.731, "internal_energy": -0.839}

$$$$
EPH_relaxed_0001_pdb2pqr_Repair_308_r2_0001_out
     RDKit          3D

 82 86  0  0  0  0  0  0  0  0999 V2000
    0.0200    7.7500   -2.2340 C   0  0  0  0  0  0  0  0  0  0  0  0
   -1.3280    8.2800   -1.7340 C   0  0  2  0  0  0  0  0  0  0  0  0
   -2.5070    7.7520   -2.5760 C   0  0  0  0  0  0  0  0  0  0  0  0
   -3.7740    7.4840   -1.7600 C   0  0  0  0  0  0  0  0  0  0  0  0
   -4.7860    6.7070   -2.5460 C   0  0  2  0  0  0  0  0  0  0  0  0
   -5.3560    7.4170   -3.6540 O   0  0  0  0  0  0  0  0  0  0  0  0
   -6.2600    7.0630   -2.5950 C   0  0  0  0  0  0  0  0  0  0  0  0
   -6.8050    8.2360   -1.8420 C   0  0  0  0  0  0  0  0  0  0  0  0
   -7.2420    5.9970   -2.9710 C   0  0  0  0  0  0  0  0  0  0  0  0
   -1.3230    9.8040   -1.7430 C   0  0  1  0  0  0  0  0  0  0  0  0
   -2.6430   10.4090   -1.1960 C   0  0  0  0  0  0  0  0  0  0  0  0
   -2.2610   11.7100   -0.4430 C   0  0  0  0  0  0  0  0  0  0  0  0
   -0.7970   11.9860   -0.8600 C   0  0  1  0  0  0  0  0  0  0  0  0
   -0.9010   12.6750   -2.2570 C   0  0  0  0  0  0  0  0  0  0  0  0
    0.0580   12.8320    0.1380 C   0  0  2  0  0  0  0  0  0  0  0  0
   -0.4480   14.2650    0.3790 C   0  0  0  0  0  0  0  0  0  0  0  0
    0.1100   15.3010   -0.5400 C   0  0  0  0  0  0  0  0  0  0  0  0
    1.1900   15.1470   -1.3290 C   0  0  0  0  0  0  0  0  0  0  0  0
    2.0280   13.8630   -1.2740 C   0  0  1  0  0  0  0  0  0  0  0  0
    3.5340   14.2300   -1.2150 C   0  0  0  0  0  0  0  0  0  0  0  0
    3.9570   15.1560   -2.3520 C   0  0  0  0  0  0  0  0  0  0  0  0
    3.1400   16.4460   -2.3370 C   0  0  2  0  0  0  0  0  0  0  0  0
    3.4730   17.1880   -1.1600 O   0  0  0  0  0  0  0  0  0  0  0  0
    1.6060   16.2010   -2.3840 C   0  0  0  0  0  0  0  0  0  0  0  0
    1.2060   15.6710   -3.7840 C   0  0  0  0  0  0  0  0  0  0  0  0
    0.8990   17.5730   -2.2210 C   0  0  0  0  0  0  0  0  0  0  0  0
    1.6120   12.8100   -0.1590 C   0  0  1  0  0  0  0  0  0  0  0  0
    2.3270   13.1470    1.1850 C   0  0  0  0  0  0  0  0  0  0  0  0
    2.1200   11.3820   -0.5860 C   0  0  0  0  0  0  0  0  0  0  0  0
    1.1780   10.5470   -1.4750 C   0  0  0  0  0  0  0  0  0  0  0  0
   -0.2390   10.5160   -0.8950 C   0  0  2  0  0  0  0  0  0  0  0  0
   -0.1700    9.8090    0.5010 C   0  0  0  0  0  0  0  0  0  0  0  0
    0.6575    7.4994   -1.3733 H   0  0  0  0  0  0  0  0  0  0  0  0
   -0.1435    6.8492   -2.8438 H   0  0  0  0  0  0  0  0  0  0  0  0
    0.5137    8.5209   -2.8438 H   0  0  0  0  0  0  0  0  0  0  0  0
   -1.4666    7.9150   -0.7056 H   0  0  0  0  0  0  0  0  0  0  0  0
   -2.7431    8.4979   -3.3492 H   0  0  0  0  0  0  0  0  0  0  0  0
   -2.1907    6.7895   -3.0043 H   0  0  0  0  0  0  0  0  0  0  0  0
   -3.5042    6.9105   -0.8609 H   0  0  0  0  0  0  0  0  0  0  0  0
   -4.2196    8.4530   -1.4908 H   0  0  0  0  0  0  0  0  0  0  0  0
   -4.2617    5.7635   -2.3341 H   0  0  0  0  0  0  0  0  0  0  0  0
   -6.7187    8.0502   -0.7613 H   0  0  0  0  0  0  0  0  0  0  0  0
   -6.2339    9.1384   -2.1057 H   0  0  0  0  0  0  0  0  0  0  0  0
   -7.8630    8.3815   -2.1057 H   0  0  0  0  0  0  0  0  0  0  0  0
   -7.6589    5.5444   -2.0592 H   0  0  0  0  0  0  0  0  0  0  0  0
   -8.0548    6.4403   -3.5650 H   0  0  0  0  0  0  0  0  0  0  0  0
   -6.7337    5.2232   -3.5650 H   0  0  0  0  0  0  0  0  0  0  0  0
   -1.1405    9.9819   -2.8131 H   0  0  0  0  0  0  0  0  0  0  0  0
   -3.3269   10.6389   -2.0263 H   0  0  0  0  0  0  0  0  0  0  0  0
   -3.1543    9.7012   -0.5270 H   0  0  0  0  0  0  0  0  0  0  0  0
   -2.9147   12.5409   -0.7469 H   0  0  0  0  0  0  0  0  0  0  0  0
   -2.3728   11.6097    0.6467 H   0  0  0  0  0  0  0  0  0  0  0  0
   -1.0639   13.7545   -2.1222 H   0  0  0  0  0  0  0  0  0  0  0  0
    0.0319   12.5120   -2.8166 H   0  0  0  0  0  0  0  0  0  0  0  0
   -1.7443   12.2439   -2.8166 H   0  0  0  0  0  0  0  0  0  0  0  0
   -0.0927   12.2984    1.0880 H   0  0  0  0  0  0  0  0  0  0  0  0
   -1.5420   14.2629    0.2647 H   0  0  0  0  0  0  0  0  0  0  0  0
   -0.1113   14.5409    1.3892 H   0  0  0  0  0  0  0  0  0  0  0  0
   -0.4049   16.2724   -0.5754 H   0  0  0  0  0  0  0  0  0  0  0  0
    1.8124   13.3193   -2.2056 H   0  0  0  0  0  0  0  0  0  0  0  0
    3.7371   14.7321   -0.2576 H   0  0  0  0  0  0  0  0  0  0  0  0
    4.1085   13.2971   -1.3136 H   0  0  0  0  0  0  0  0  0  0  0  0
    5.0227   15.4033   -2.2375 H   0  0  0  0  0  0  0  0  0  0  0  0
    3.7827   14.6408   -3.3081 H   0  0  0  0  0  0  0  0  0  0  0  0
    3.3950   17.0086   -3.2472 H   0  0  0  0  0  0  0  0  0  0  0  0
    2.8230   16.9610   -0.4750 H   0  0  0  0  0  0  0  0  0  0  0  0
    0.5469   14.7976   -3.6709 H   0  0  0  0  0  0  0  0  0  0  0  0
    0.6767   16.4606   -4.3375 H   0  0  0  0  0  0  0  0  0  0  0  0
    2.1105   15.3785   -4.3375 H   0  0  0  0  0  0  0  0  0  0  0  0
    0.7819   17.8003   -1.1511 H   0  0  0  0  0  0  0  0  0  0  0  0
    1.5054   18.3570   -2.6982 H   0  0  0  0  0  0  0  0  0  0  0  0
   -0.0914   17.5341   -2.6982 H   0  0  0  0  0  0  0  0  0  0  0  0
    1.6865   12.8451    2.0268 H   0  0  0  0  0  0  0  0  0  0  0  0
    3.2824   12.6044    1.2382 H   0  0  0  0  0  0  0  0  0  0  0  0
    2.5165   14.2292    1.2382 H   0  0  0  0  0  0  0  0  0  0  0  0
    3.0643   11.5148   -1.1343 H   0  0  0  0  0  0  0  0  0  0  0  0
    2.2080   10.8151    0.3525 H   0  0  0  0  0  0  0  0  0  0  0  0
    1.1454   10.9908   -2.4810 H   0  0  0  0  0  0  0  0  0  0  0  0
    1.5608    9.5168   -1.5208 H   0  0  0  0  0  0  0  0  0  0  0  0
   -0.2436   10.5634    1.2981 H   0  0  0  0  0  0  0  0  0  0  0  0
   -1.0029    9.0963    0.5926 H   0  0  0  0  0  0  0  0  0  0  0  0
    0.7849    9.2708    0.5926 H   0  0  0  0  0  0  0  0  0  0  0  0
  1  2  1  0
  2  3  1  0
  3  4  1  0
  4  5  1  0
  5  6  1  0
  6  7  1  0
  7  8  1  0
  7  9  1  0
  2 10  1  0
 10 11  1  0
 11 12  1  0
 12 13  1  0
 13 14  1  6
 13 15  1  0
 15 16  1  0
 16 17  1  0
 17 18  2  0
 18 19  1  0
 19 20  1  0
 20 21  1  0
 21 22  1  0
 22 23  1  0
 22 24  1  0
 24 25  1  0
 24 26  1  0
 19 27  1  0
 27 28  1  1
 27 29  1  0
 29 30  1  0
 30 31  1  0
 31 32  1  1
  7  5  1  0
 31 10  1  0
 31 13  1  0
 27 15  1  0
 24 18  1  0
  1 33  1  0
  1 34  1  0
  1 35  1  0
  2 36  1  1
  3 37  1  0
  3 38  1  0
  4 39  1  0
  4 40  1  0
  5 41  1  6
  8 42  1  0
  8 43  1  0
  8 44  1  0
  9 45  1  0
  9 46  1  0
  9 47  1  0
 10 48  1  6
 11 49  1  0
 11 50  1  0
 12 51  1  0
 12 52  1  0
 14 53  1  0
 14 54  1  0
 14 55  1  0
 15 56  1  1
 16 57  1  0
 16 58  1  0
 17 59  1  0
 19 60  1  6
 20 61  1  0
 20 62  1  0
 21 63  1  0
 21 64  1  0
 22 65  1  6
 23 66  1  0
 25 67  1  0
 25 68  1  0
 25 69  1  0
 26 70  1  0
 26 71  1  0
 26 72  1  0
 28 73  1  0
 28 74  1  0
 28 75  1  0
 29 76  1  0
 29 77  1  0
 30 78  1  0
 30 79  1  0
 32 80  1  0
 32 81  1  0
 32 82  1  0
M  END
>  <meeko>  (18) 
{"is_sidechain": [false], "intermolecular_energy": 2.731, "internal_energy": -0.839}

$$$$
EPH_relaxed_0001_pdb2pqr_Repair_308_r2_0001_out
     RDKit          3D

 82 86  0  0  0  0  0  0  0  0999 V2000
    2.6210   10.3640   -3.3480 C   0  0  0  0  0  0  0  0  0  0  0  0
    1.6180   10.1620   -2.2090 C   0  0  2  0  0  0  0  0  0  0  0  0
    0.2210    9.7690   -2.7290 C   0  0  0  0  0  0  0  0  0  0  0  0
   -0.3840    8.5570   -2.0150 C   0  0  0  0  0  0  0  0  0  0  0  0
   -1.7890    8.8220   -1.5660 C   0  0  2  0  0  0  0  0  0  0  0  0
   -2.1640   10.2060   -1.5590 O   0  0  0  0  0  0  0  0  0  0  0  0
   -2.1330    9.5510   -0.2800 C   0  0  0  0  0  0  0  0  0  0  0  0
   -1.0660   10.0600    0.6380 C   0  0  0  0  0  0  0  0  0  0  0  0
   -3.4870    9.3390    0.3220 C   0  0  0  0  0  0  0  0  0  0  0  0
    1.5230   11.4300   -1.3690 C   0  0  1  0  0  0  0  0  0  0  0  0
    2.3430   11.3390   -0.0550 C   0  0  0  0  0  0  0  0  0  0  0  0
    2.9050   12.7570    0.2220 C   0  0  0  0  0  0  0  0  0  0  0  0
    2.1270   13.6800   -0.7450 C   0  0  1  0  0  0  0  0  0  0  0  0
    0.7620   13.9450   -0.0350 C   0  0  0  0  0  0  0  0  0  0  0  0
    2.8360   15.0140   -1.1480 C   0  0  2  0  0  0  0  0  0  0  0  0
    3.1130   15.9820    0.0150 C   0  0  0  0  0  0  0  0  0  0  0  0
    2.0300   16.9710    0.2940 C   0  0  0  0  0  0  0  0  0  0  0  0
    1.0100   17.2670   -0.5340 C   0  0  0  0  0  0  0  0  0  0  0  0
    0.9280   16.6500   -1.9360 C   0  0  1  0  0  0  0  0  0  0  0  0
    0.5960   17.7580   -2.9700 C   0  0  0  0  0  0  0  0  0  0  0  0
   -0.6600   18.5430   -2.6040 C   0  0  0  0  0  0  0  0  0  0  0  0
   -0.5170   19.1890   -1.2280 C   0  0  2  0  0  0  0  0  0  0  0  0
    0.4990   20.1950   -1.2940 O   0  0  0  0  0  0  0  0  0  0  0  0
   -0.1730   18.1710   -0.1060 C   0  0  0  0  0  0  0  0  0  0  0  0
   -1.4000   17.2670    0.1710 C   0  0  0  0  0  0  0  0  0  0  0  0
    0.0820   18.9690    1.2010 C   0  0  0  0  0  0  0  0  0  0  0  0
    2.1690   15.7580   -2.3740 C   0  0  1  0  0  0  0  0  0  0  0  0
    3.2750   16.6580   -3.0050 C   0  0  0  0  0  0  0  0  0  0  0  0
    1.7110   14.7600   -3.5030 C   0  0  0  0  0  0  0  0  0  0  0  0
    1.1280   13.4110   -3.0420 C   0  0  0  0  0  0  0  0  0  0  0  0
    2.0390   12.7450   -2.0060 C   0  0  2  0  0  0  0  0  0  0  0  0
    3.4120   12.4460   -2.6970 C   0  0  0  0  0  0  0  0  0  0  0  0
    3.6175   10.5647   -2.9277 H   0  0  0  0  0  0  0  0  0  0  0  0
    2.6604    9.4557   -3.9673 H   0  0  0  0  0  0  0  0  0  0  0  0
    2.3057   11.2167   -3.9673 H   0  0  0  0  0  0  0  0  0  0  0  0
    1.9851    9.3315   -1.5881 H   0  0  0  0  0  0  0  0  0  0  0  0
   -0.4545   10.6261   -2.5910 H   0  0  0  0  0  0  0  0  0  0  0  0
    0.3383    9.4927   -3.7872 H   0  0  0  0  0  0  0  0  0  0  0  0
   -0.3861    7.7009   -2.7057 H   0  0  0  0  0  0  0  0  0  0  0  0
    0.2259    8.3441   -1.1247 H   0  0  0  0  0  0  0  0  0  0  0  0
   -2.1287    7.8628   -1.9838 H   0  0  0  0  0  0  0  0  0  0  0  0
   -1.3787    9.9108    1.6820 H   0  0  0  0  0  0  0  0  0  0  0  0
   -0.1309    9.5110    0.4533 H   0  0  0  0  0  0  0  0  0  0  0  0
   -0.9043   11.1323    0.4533 H   0  0  0  0  0  0  0  0  0  0  0  0
   -3.4066    9.3516    1.4190 H   0  0  0  0  0  0  0  0  0  0  0  0
   -4.1636   10.1421   -0.0053 H   0  0  0  0  0  0  0  0  0  0  0  0
   -3.8858    8.3675   -0.0053 H   0  0  0  0  0  0  0  0  0  0  0  0
    0.4326   11.4797   -1.2328 H   0  0  0  0  0  0  0  0  0  0  0  0
    1.6948   11.0200    0.7745 H   0  0  0  0  0  0  0  0  0  0  0  0
    3.1558   10.6036   -0.1474 H   0  0  0  0  0  0  0  0  0  0  0  0
    2.7247   13.0490    1.2671 H   0  0  0  0  0  0  0  0  0  0  0  0
    3.9927   12.8125    0.0675 H   0  0  0  0  0  0  0  0  0  0  0  0
    0.9044   13.9174    1.0554 H   0  0  0  0  0  0  0  0  0  0  0  0
    0.3811   14.9339   -0.3301 H   0  0  0  0  0  0  0  0  0  0  0  0
    0.0388   13.1705   -0.3301 H   0  0  0  0  0  0  0  0  0  0  0  0
    3.8224   14.6642   -1.4866 H   0  0  0  0  0  0  0  0  0  0  0  0
    3.2697   15.3840    0.9249 H   0  0  0  0  0  0  0  0  0  0  0  0
    3.9932   16.5708   -0.2826 H   0  0  0  0  0  0  0  0  0  0  0  0
    2.0684   17.5024    1.2564 H   0  0  0  0  0  0  0  0  0  0  0  0
    0.1091   15.9165   -1.8990 H   0  0  0  0  0  0  0  0  0  0  0  0
    1.4447   18.4558   -3.0238 H   0  0  0  0  0  0  0  0  0  0  0  0
    0.4129   17.2676   -3.9375 H   0  0  0  0  0  0  0  0  0  0  0  0
   -0.8252   19.3291   -3.3555 H   0  0  0  0  0  0  0  0  0  0  0  0
   -1.5134   17.8494   -2.5797 H   0  0  0  0  0  0  0  0  0  0  0  0
   -1.4919   19.6261   -0.9660 H   0  0  0  0  0  0  0  0  0  0  0  0
    1.0670   20.0900   -0.5130 H   0  0  0  0  0  0  0  0  0  0  0  0
   -1.5411   17.1630    1.2569 H   0  0  0  0  0  0  0  0  0  0  0  0
   -2.2978   17.7211   -0.2736 H   0  0  0  0  0  0  0  0  0  0  0  0
   -1.2324   16.2749   -0.2736 H   0  0  0  0  0  0  0  0  0  0  0  0
   -0.1235   18.3258    2.0693 H   0  0  0  0  0  0  0  0  0  0  0  0
    1.1306   19.2999    1.2299 H   0  0  0  0  0  0  0  0  0  0  0  0
   -0.5804   19.8467    1.2299 H   0  0  0  0  0  0  0  0  0  0  0  0
    3.8606   17.1345   -2.2050 H   0  0  0  0  0  0  0  0  0  0  0  0
    3.9392   16.0406   -3.6276 H   0  0  0  0  0  0  0  0  0  0  0  0
    2.8054   17.4338   -3.6276 H   0  0  0  0  0  0  0  0  0  0  0  0
    0.9417   15.2673   -4.1037 H   0  0  0  0  0  0  0  0  0  0  0  0
    2.6296   14.5045   -4.0516 H   0  0  0  0  0  0  0  0  0  0  0  0
    0.1379   13.5812   -2.5940 H   0  0  0  0  0  0  0  0  0  0  0  0
    1.0466   12.7474   -3.9155 H   0  0  0  0  0  0  0  0  0  0  0  0
    4.1807   12.2786   -1.9281 H   0  0  0  0  0  0  0  0  0  0  0  0
    3.3188   11.5471   -3.3241 H   0  0  0  0  0  0  0  0  0  0  0  0
    3.7010   13.3023   -3.3241 H   0  0  0  0  0  0  0  0  0  0  0  0
  1  2  1  0
  2  3  1  0
  3  4  1  0
  4  5  1  0
  5  6  1  0
  6  7  1  0
  7  8  1  0
  7  9  1  0
  2 10  1  0
 10 11  1  0
 11 12  1  0
 12 13  1  0
 13 14  1  1
 13 15  1  0
 15 16  1  0
 16 17  1  0
 17 18  2  0
 18 19  1  0
 19 20  1  0
 20 21  1  0
 21 22  1  0
 22 23  1  0
 22 24  1  0
 24 25  1  0
 24 26  1  0
 19 27  1  0
 27 28  1  6
 27 29  1  0
 29 30  1  0
 30 31  1  0
 31 32  1  6
  7  5  1  0
 31 10  1  0
 31 13  1  0
 27 15  1  0
 24 18  1  0
  1 33  1  0
  1 34  1  0
  1 35  1  0
  2 36  1  1
  3 37  1  0
  3 38  1  0
  4 39  1  0
  4 40  1  0
  5 41  1  6
  8 42  1  0
  8 43  1  0
  8 44  1  0
  9 45  1  0
  9 46  1  0
  9 47  1  0
 10 48  1  1
 11 49  1  0
 11 50  1  0
 12 51  1  0
 12 52  1  0
 14 53  1  0
 14 54  1  0
 14 55  1  0
 15 56  1  6
 16 57  1  0
 16 58  1  0
 17 59  1  0
 19 60  1  1
 20 61  1  0
 20 62  1  0
 21 63  1  0
 21 64  1  0
 22 65  1  1
 23 66  1  0
 25 67  1  0
 25 68  1  0
 25 69  1  0
 26 70  1  0
 26 71  1  0
 26 72  1  0
 28 73  1  0
 28 74  1  0
 28 75  1  0
 29 76  1  0
 29 77  1  0
 30 78  1  0
 30 79  1  0
 32 80  1  0
 32 81  1  0
 32 82  1  0
M  END
>  <meeko>  (19) 
{"is_sidechain": [false], "intermolecular_energy": 2.731, "internal_energy": -0.839}

$$$$
