EPH_relaxed_0001_pdb2pqr_Repair_180_r2_0001_out
     RDKit          3D

 82 86  0  0  0  0  0  0  0  0999 V2000
   -0.7790    8.5840   -0.8560 C   0  0  0  0  0  0  0  0  0  0  0  0
   -1.6420    9.5620   -0.0550 C   0  0  2  0  0  0  0  0  0  0  0  0
   -2.9500    9.9190   -0.7900 C   0  0  0  0  0  0  0  0  0  0  0  0
   -4.1920    9.2510   -0.1970 C   0  0  0  0  0  0  0  0  0  0  0  0
   -4.3470    7.8400   -0.6800 C   0  0  2  0  0  0  0  0  0  0  0  0
   -4.4560    7.7040   -2.1030 O   0  0  0  0  0  0  0  0  0  0  0  0
   -5.6090    7.3160   -1.3390 C   0  0  0  0  0  0  0  0  0  0  0  0
   -6.8020    8.1940   -1.5500 C   0  0  0  0  0  0  0  0  0  0  0  0
   -5.8590    5.8400   -1.3320 C   0  0  0  0  0  0  0  0  0  0  0  0
   -0.8500   10.8290    0.2450 C   0  0  1  0  0  0  0  0  0  0  0  0
    0.3440   10.5740    1.2030 C   0  0  0  0  0  0  0  0  0  0  0  0
    1.4840   11.5280    0.7600 C   0  0  0  0  0  0  0  0  0  0  0  0
    0.8050   12.5230   -0.2100 C   0  0  1  0  0  0  0  0  0  0  0  0
    0.1130   13.5740    0.7130 C   0  0  0  0  0  0  0  0  0  0  0  0
    1.7360   13.2050   -1.2650 C   0  0  2  0  0  0  0  0  0  0  0  0
    2.8490   14.0900   -0.6770 C   0  0  0  0  0  0  0  0  0  0  0  0
    2.4870   15.5250   -0.4830 C   0  0  0  0  0  0  0  0  0  0  0  0
    1.4230   16.1430   -1.0280 C   0  0  0  0  0  0  0  0  0  0  0  0
    0.5050   15.4100   -2.0150 C   0  0  1  0  0  0  0  0  0  0  0  0
    0.2310   16.3190   -3.2420 C   0  0  0  0  0  0  0  0  0  0  0  0
   -0.3130   17.6880   -2.8460 C   0  0  0  0  0  0  0  0  0  0  0  0
    0.6540   18.4100   -1.9110 C   0  0  2  0  0  0  0  0  0  0  0  0
    1.8480   18.7210   -2.6350 O   0  0  0  0  0  0  0  0  0  0  0  0
    1.0110   17.5860   -0.6430 C   0  0  0  0  0  0  0  0  0  0  0  0
   -0.2220   17.5060    0.2910 C   0  0  0  0  0  0  0  0  0  0  0  0
    2.1010   18.3660    0.1420 C   0  0  0  0  0  0  0  0  0  0  0  0
    0.9630   13.9460   -2.4300 C   0  0  1  0  0  0  0  0  0  0  0  0
    1.9450   14.0180   -3.6400 C   0  0  0  0  0  0  0  0  0  0  0  0
   -0.2930   13.1350   -2.9250 C   0  0  0  0  0  0  0  0  0  0  0  0
   -1.1030   12.3850   -1.8500 C   0  0  0  0  0  0  0  0  0  0  0  0
   -0.1840   11.5520   -0.9520 C   0  0  2  0  0  0  0  0  0  0  0  0
    0.5090   10.4700   -1.8500 C   0  0  0  0  0  0  0  0  0  0  0  0
   -0.2132    7.9428   -0.1641 H   0  0  0  0  0  0  0  0  0  0  0  0
   -1.4253    7.9589   -1.4898 H   0  0  0  0  0  0  0  0  0  0  0  0
   -0.0784    9.1474   -1.4898 H   0  0  0  0  0  0  0  0  0  0  0  0
   -1.9180    9.0649    0.8867 H   0  0  0  0  0  0  0  0  0  0  0  0
   -3.0872   11.0095   -0.7444 H   0  0  0  0  0  0  0  0  0  0  0  0
   -2.8492    9.5508   -1.8216 H   0  0  0  0  0  0  0  0  0  0  0  0
   -4.1042    9.2448    0.8995 H   0  0  0  0  0  0  0  0  0  0  0  0
   -5.0752    9.8224   -0.5186 H   0  0  0  0  0  0  0  0  0  0  0  0
   -3.7390    7.4616    0.1549 H   0  0  0  0  0  0  0  0  0  0  0  0
   -7.2121    8.4959   -0.5750 H   0  0  0  0  0  0  0  0  0  0  0  0
   -6.5031    9.0892   -2.1151 H   0  0  0  0  0  0  0  0  0  0  0  0
   -7.5678    7.6425   -2.1151 H   0  0  0  0  0  0  0  0  0  0  0  0
   -5.9194    5.4833   -0.2932 H   0  0  0  0  0  0  0  0  0  0  0  0
   -6.8062    5.6261   -1.8488 H   0  0  0  0  0  0  0  0  0  0  0  0
   -5.0351    5.3261   -1.8488 H   0  0  0  0  0  0  0  0  0  0  0  0
   -1.6535   11.4542    0.6615 H   0  0  0  0  0  0  0  0  0  0  0  0
    0.0502   10.7908    2.2406 H   0  0  0  0  0  0  0  0  0  0  0  0
    0.6683    9.5238    1.1595 H   0  0  0  0  0  0  0  0  0  0  0  0
    1.9062   12.0575    1.6268 H   0  0  0  0  0  0  0  0  0  0  0  0
    2.3191   10.9894    0.2882 H   0  0  0  0  0  0  0  0  0  0  0  0
    0.2877   13.3086    1.7661 H   0  0  0  0  0  0  0  0  0  0  0  0
    0.5319   14.5710    0.5117 H   0  0  0  0  0  0  0  0  0  0  0  0
   -0.9684   13.5832    0.5117 H   0  0  0  0  0  0  0  0  0  0  0  0
    2.2474   12.3438   -1.7197 H   0  0  0  0  0  0  0  0  0  0  0  0
    3.1314   13.6754    0.3019 H   0  0  0  0  0  0  0  0  0  0  0  0
    3.6668   14.0793   -1.4126 H   0  0  0  0  0  0  0  0  0  0  0  0
    3.1453   16.1281    0.1595 H   0  0  0  0  0  0  0  0  0  0  0  0
   -0.4342   15.2216   -1.4742 H   0  0  0  0  0  0  0  0  0  0  0  0
    1.1722   16.4597   -3.7938 H   0  0  0  0  0  0  0  0  0  0  0  0
   -0.5311   15.8233   -3.8612 H   0  0  0  0  0  0  0  0  0  0  0  0
   -0.4572   18.2940   -3.7526 H   0  0  0  0  0  0  0  0  0  0  0  0
   -1.2694   17.5472   -2.3212 H   0  0  0  0  0  0  0  0  0  0  0  0
    0.1528   19.3238   -1.5593 H   0  0  0  0  0  0  0  0  0  0  0  0
    2.5880   18.2800   -2.1860 H   0  0  0  0  0  0  0  0  0  0  0  0
    0.1102   17.5276    1.3394 H   0  0  0  0  0  0  0  0  0  0  0  0
   -0.8841   18.3631    0.0984 H   0  0  0  0  0  0  0  0  0  0  0  0
   -0.7678   16.5706    0.0984 H   0  0  0  0  0  0  0  0  0  0  0  0
    1.9321   18.2451    1.2222 H   0  0  0  0  0  0  0  0  0  0  0  0
    3.0941   17.9722   -0.1201 H   0  0  0  0  0  0  0  0  0  0  0  0
    2.0488   19.4330   -0.1201 H   0  0  0  0  0  0  0  0  0  0  0  0
    2.9781   14.0937   -3.2698 H   0  0  0  0  0  0  0  0  0  0  0  0
    1.8404   13.1098   -4.2517 H   0  0  0  0  0  0  0  0  0  0  0  0
    1.7090   14.9013   -4.2517 H   0  0  0  0  0  0  0  0  0  0  0  0
   -0.9731   13.8439   -3.4199 H   0  0  0  0  0  0  0  0  0  0  0  0
    0.1113   12.3499   -3.5809 H   0  0  0  0  0  0  0  0  0  0  0  0
   -1.6437   13.1165   -1.2315 H   0  0  0  0  0  0  0  0  0  0  0  0
   -1.8096   11.7080   -2.3524 H   0  0  0  0  0  0  0  0  0  0  0  0
    0.9915    9.7166   -1.2100 H   0  0  0  0  0  0  0  0  0  0  0  0
   -0.2454    9.9827   -2.4851 H   0  0  0  0  0  0  0  0  0  0  0  0
    1.2672   10.9515   -2.4851 H   0  0  0  0  0  0  0  0  0  0  0  0
  1  2  1  0
  2  3  1  0
  3  4  1  0
  4  5  1  0
  5  6  1  0
  6  7  1  0
  7  8  1  0
  7  9  1  0
  2 10  1  0
 10 11  1  0
 11 12  1  0
 12 13  1  0
 13 14  1  1
 13 15  1  0
 15 16  1  0
 16 17  1  0
 17 18  2  0
 18 19  1  0
 19 20  1  0
 20 21  1  0
 21 22  1  0
 22 23  1  0
 22 24  1  0
 24 25  1  0
 24 26  1  0
 19 27  1  0
 27 28  1  6
 27 29  1  0
 29 30  1  0
 30 31  1  0
 31 32  1  6
  7  5  1  0
 31 10  1  0
 31 13  1  0
 27 15  1  0
 24 18  1  0
  1 33  1  0
  1 34  1  0
  1 35  1  0
  2 36  1  1
  3 37  1  0
  3 38  1  0
  4 39  1  0
  4 40  1  0
  5 41  1  1
  8 42  1  0
  8 43  1  0
  8 44  1  0
  9 45  1  0
  9 46  1  0
  9 47  1  0
 10 48  1  1
 11 49  1  0
 11 50  1  0
 12 51  1  0
 12 52  1  0
 14 53  1  0
 14 54  1  0
 14 55  1  0
 15 56  1  6
 16 57  1  0
 16 58  1  0
 17 59  1  0
 19 60  1  1
 20 61  1  0
 20 62  1  0
 21 63  1  0
 21 64  1  0
 22 65  1  1
 23 66  1  0
 25 67  1  0
 25 68  1  0
 25 69  1  0
 26 70  1  0
 26 71  1  0
 26 72  1  0
 28 73  1  0
 28 74  1  0
 28 75  1  0
 29 76  1  0
 29 77  1  0
 30 78  1  0
 30 79  1  0
 32 80  1  0
 32 81  1  0
 32 82  1  0
M  END
>  <meeko>  (1) 
{"is_sidechain": [false], "intermolecular_energy": 2.731, "internal_energy": -0.839}

$$$$
EPH_relaxed_0001_pdb2pqr_Repair_180_r2_0001_out
     RDKit          3D

 82 86  0  0  0  0  0  0  0  0999 V2000
   -5.1430    5.8650   -1.7320 C   0  0  0  0  0  0  0  0  0  0  0  0
   -5.4450    7.3650   -1.7910 C   0  0  2  0  0  0  0  0  0  0  0  0
   -5.2240    8.0560   -0.4310 C   0  0  0  0  0  0  0  0  0  0  0  0
   -4.1710    9.1660   -0.4680 C   0  0  0  0  0  0  0  0  0  0  0  0
   -2.8110    8.6300   -0.7960 C   0  0  2  0  0  0  0  0  0  0  0  0
   -1.7950    8.9440    0.1670 O   0  0  0  0  0  0  0  0  0  0  0  0
   -1.6250    9.5110   -1.1430 C   0  0  0  0  0  0  0  0  0  0  0  0
   -1.7460   11.0020   -1.1810 C   0  0  0  0  0  0  0  0  0  0  0  0
   -0.4910    8.9130   -1.9160 C   0  0  0  0  0  0  0  0  0  0  0  0
   -6.8770    7.5890   -2.2630 C   0  0  1  0  0  0  0  0  0  0  0  0
   -7.1760    6.8920   -3.6170 C   0  0  0  0  0  0  0  0  0  0  0  0
   -8.6500    6.4160   -3.5600 C   0  0  0  0  0  0  0  0  0  0  0  0
   -9.2450    7.1380   -2.3270 C   0  0  1  0  0  0  0  0  0  0  0  0
   -9.5950    8.5720   -2.8330 C   0  0  0  0  0  0  0  0  0  0  0  0
  -10.4740    6.4480   -1.6500 C   0  0  2  0  0  0  0  0  0  0  0  0
  -11.7230    6.3200   -2.5390 C   0  0  0  0  0  0  0  0  0  0  0  0
  -12.6790    7.4640   -2.4640 C   0  0  0  0  0  0  0  0  0  0  0  0
  -12.6890    8.4140   -1.5100 C   0  0  0  0  0  0  0  0  0  0  0  0
  -11.7310    8.3390   -0.3140 C   0  0  1  0  0  0  0  0  0  0  0  0
  -12.5150    8.6180    0.9960 C   0  0  0  0  0  0  0  0  0  0  0  0
  -13.2860    9.9330    0.9470 C   0  0  0  0  0  0  0  0  0  0  0  0
  -14.2700    9.9460   -0.2200 C   0  0  2  0  0  0  0  0  0  0  0  0
  -15.2870    8.9700    0.0240 O   0  0  0  0  0  0  0  0  0  0  0  0
  -13.5950    9.6670   -1.5930 C   0  0  0  0  0  0  0  0  0  0  0  0
  -12.7170   10.8760   -1.9970 C   0  0  0  0  0  0  0  0  0  0  0  0
  -14.7150    9.5670   -2.6630 C   0  0  0  0  0  0  0  0  0  0  0  0
  -10.8370    7.0280   -0.2230 C   0  0  1  0  0  0  0  0  0  0  0  0
  -11.6140    5.9050    0.5300 C   0  0  0  0  0  0  0  0  0  0  0  0
   -9.5570    7.3380    0.6410 C   0  0  0  0  0  0  0  0  0  0  0  0
   -8.3350    7.9060   -0.1070 C   0  0  0  0  0  0  0  0  0  0  0  0
   -8.0160    7.0700   -1.3500 C   0  0  2  0  0  0  0  0  0  0  0  0
   -7.6380    5.6270   -0.8710 C   0  0  0  0  0  0  0  0  0  0  0  0
   -5.0786    5.5450   -0.6816 H   0  0  0  0  0  0  0  0  0  0  0  0
   -5.9472    5.3090   -2.2360 H   0  0  0  0  0  0  0  0  0  0  0  0
   -4.1863    5.6635   -2.2360 H   0  0  0  0  0  0  0  0  0  0  0  0
   -4.7428    7.8157   -2.5077 H   0  0  0  0  0  0  0  0  0  0  0  0
   -6.1789    8.4941   -0.1050 H   0  0  0  0  0  0  0  0  0  0  0  0
   -4.8556    7.2869    0.2639 H   0  0  0  0  0  0  0  0  0  0  0  0
   -4.4573    9.9034   -1.2324 H   0  0  0  0  0  0  0  0  0  0  0  0
   -4.1256    9.6285    0.5290 H   0  0  0  0  0  0  0  0  0  0  0  0
   -3.2511    7.7548   -1.2963 H   0  0  0  0  0  0  0  0  0  0  0  0
   -1.7778   11.3936   -0.1536 H   0  0  0  0  0  0  0  0  0  0  0  0
   -0.8794   11.4269   -1.7087 H   0  0  0  0  0  0  0  0  0  0  0  0
   -2.6698   11.2816   -1.7087 H   0  0  0  0  0  0  0  0  0  0  0  0
    0.2604    8.5167   -1.2172 H   0  0  0  0  0  0  0  0  0  0  0  0
   -0.8690    8.0970   -2.5494 H   0  0  0  0  0  0  0  0  0  0  0  0
   -0.0311    9.6859   -2.5494 H   0  0  0  0  0  0  0  0  0  0  0  0
   -6.8907    8.6885   -2.2943 H   0  0  0  0  0  0  0  0  0  0  0  0
   -7.0390    7.6014   -4.4464 H   0  0  0  0  0  0  0  0  0  0  0  0
   -6.4940    6.0452   -3.7840 H   0  0  0  0  0  0  0  0  0  0  0  0
   -9.1870    6.7043   -4.4757 H   0  0  0  0  0  0  0  0  0  0  0  0
   -8.7327    5.3218   -3.4833 H   0  0  0  0  0  0  0  0  0  0  0  0
   -9.7570    9.2357   -1.9708 H   0  0  0  0  0  0  0  0  0  0  0  0
   -8.7648    8.9586   -3.4424 H   0  0  0  0  0  0  0  0  0  0  0  0
  -10.5099    8.5326   -3.4424 H   0  0  0  0  0  0  0  0  0  0  0  0
  -10.1121    5.4208   -1.4953 H   0  0  0  0  0  0  0  0  0  0  0  0
  -11.3890    6.2241   -3.5827 H   0  0  0  0  0  0  0  0  0  0  0  0
  -12.2709    5.4408   -2.1692 H   0  0  0  0  0  0  0  0  0  0  0  0
  -13.4397    7.5370   -3.2552 H   0  0  0  0  0  0  0  0  0  0  0  0
  -10.9810    9.1274   -0.4751 H   0  0  0  0  0  0  0  0  0  0  0  0
  -13.2281    7.7970    1.1619 H   0  0  0  0  0  0  0  0  0  0  0  0
  -11.7834    8.6901    1.8142 H   0  0  0  0  0  0  0  0  0  0  0  0
  -13.8418   10.0596    1.8878 H   0  0  0  0  0  0  0  0  0  0  0  0
  -12.5685   10.7555    0.8101 H   0  0  0  0  0  0  0  0  0  0  0  0
  -14.6975   10.9577   -0.2807 H   0  0  0  0  0  0  0  0  0  0  0  0
  -15.8690    9.3190    0.7200 H   0  0  0  0  0  0  0  0  0  0  0  0
  -12.3500   11.3814   -1.0916 H   0  0  0  0  0  0  0  0  0  0  0  0
  -11.8618   10.5251   -2.5933 H   0  0  0  0  0  0  0  0  0  0  0  0
  -13.3153   11.5807   -2.5933 H   0  0  0  0  0  0  0  0  0  0  0  0
  -15.6917    9.4798   -2.1645 H   0  0  0  0  0  0  0  0  0  0  0  0
  -14.7034   10.4698   -3.2914 H   0  0  0  0  0  0  0  0  0  0  0  0
  -14.5437    8.6806   -3.2914 H   0  0  0  0  0  0  0  0  0  0  0  0
  -11.5118    6.0528    1.6152 H   0  0  0  0  0  0  0  0  0  0  0  0
  -12.6778    5.9461    0.2530 H   0  0  0  0  0  0  0  0  0  0  0  0
  -11.2006    4.9240    0.2530 H   0  0  0  0  0  0  0  0  0  0  0  0
   -9.8445    8.0683    1.4117 H   0  0  0  0  0  0  0  0  0  0  0  0
   -9.2289    6.3627    1.0299 H   0  0  0  0  0  0  0  0  0  0  0  0
   -8.5499    8.9401   -0.4143 H   0  0  0  0  0  0  0  0  0  0  0  0
   -7.4665    7.8773    0.5674 H   0  0  0  0  0  0  0  0  0  0  0  0
   -7.6299    5.5960    0.2285 H   0  0  0  0  0  0  0  0  0  0  0  0
   -8.3782    4.9083   -1.2526 H   0  0  0  0  0  0  0  0  0  0  0  0
   -6.6405    5.3635   -1.2526 H   0  0  0  0  0  0  0  0  0  0  0  0
  1  2  1  0
  2  3  1  0
  3  4  1  0
  4  5  1  0
  5  6  1  0
  6  7  1  0
  7  8  1  0
  7  9  1  0
  2 10  1  0
 10 11  1  0
 11 12  1  0
 12 13  1  0
 13 14  1  6
 13 15  1  0
 15 16  1  0
 16 17  1  0
 17 18  2  0
 18 19  1  0
 19 20  1  0
 20 21  1  0
 21 22  1  0
 22 23  1  0
 22 24  1  0
 24 25  1  0
 24 26  1  0
 19 27  1  0
 27 28  1  1
 27 29  1  0
 29 30  1  0
 30 31  1  0
 31 32  1  1
  7  5  1  0
 31 10  1  0
 31 13  1  0
 27 15  1  0
 24 18  1  0
  1 33  1  0
  1 34  1  0
  1 35  1  0
  2 36  1  6
  3 37  1  0
  3 38  1  0
  4 39  1  0
  4 40  1  0
  5 41  1  6
  8 42  1  0
  8 43  1  0
  8 44  1  0
  9 45  1  0
  9 46  1  0
  9 47  1  0
 10 48  1  6
 11 49  1  0
 11 50  1  0
 12 51  1  0
 12 52  1  0
 14 53  1  0
 14 54  1  0
 14 55  1  0
 15 56  1  1
 16 57  1  0
 16 58  1  0
 17 59  1  0
 19 60  1  6
 20 61  1  0
 20 62  1  0
 21 63  1  0
 21 64  1  0
 22 65  1  6
 23 66  1  0
 25 67  1  0
 25 68  1  0
 25 69  1  0
 26 70  1  0
 26 71  1  0
 26 72  1  0
 28 73  1  0
 28 74  1  0
 28 75  1  0
 29 76  1  0
 29 77  1  0
 30 78  1  0
 30 79  1  0
 32 80  1  0
 32 81  1  0
 32 82  1  0
M  END
>  <meeko>  (2) 
{"is_sidechain": [false], "intermolecular_energy": 2.731, "internal_energy": -0.839}

$$$$
EPH_relaxed_0001_pdb2pqr_Repair_180_r2_0001_out
     RDKit          3D

 82 86  0  0  0  0  0  0  0  0999 V2000
   -5.0230    8.5290   -0.5020 C   0  0  0  0  0  0  0  0  0  0  0  0
   -5.3540    7.4490   -1.5360 C   0  0  2  0  0  0  0  0  0  0  0  0
   -4.3530    7.4410   -2.7080 C   0  0  0  0  0  0  0  0  0  0  0  0
   -2.9230    7.0820   -2.2930 C   0  0  0  0  0  0  0  0  0  0  0  0
   -1.9410    8.1290   -2.7250 C   0  0  2  0  0  0  0  0  0  0  0  0
   -0.5930    7.8990   -2.2940 O   0  0  0  0  0  0  0  0  0  0  0  0
   -1.2400    9.0660   -1.7600 C   0  0  0  0  0  0  0  0  0  0  0  0
   -1.4920    9.0010   -0.2860 C   0  0  0  0  0  0  0  0  0  0  0  0
   -0.6890   10.3550   -2.2870 C   0  0  0  0  0  0  0  0  0  0  0  0
   -6.7710    7.6510   -2.0620 C   0  0  1  0  0  0  0  0  0  0  0  0
   -7.0040    6.9560   -3.4300 C   0  0  0  0  0  0  0  0  0  0  0  0
   -8.4710    6.4540   -3.4330 C   0  0  0  0  0  0  0  0  0  0  0  0
   -9.1260    7.1580   -2.2220 C   0  0  1  0  0  0  0  0  0  0  0  0
   -9.4820    8.5890   -2.7340 C   0  0  0  0  0  0  0  0  0  0  0  0
  -10.3680    6.4440   -1.5960 C   0  0  2  0  0  0  0  0  0  0  0  0
  -11.5790    6.2990   -2.5350 C   0  0  0  0  0  0  0  0  0  0  0  0
  -12.5570    7.4250   -2.4920 C   0  0  0  0  0  0  0  0  0  0  0  0
  -12.6220    8.3690   -1.5350 C   0  0  0  0  0  0  0  0  0  0  0  0
  -11.7100    8.3050   -0.3020 C   0  0  1  0  0  0  0  0  0  0  0  0
  -12.5490    8.5630    0.9770 C   0  0  0  0  0  0  0  0  0  0  0  0
  -13.3420    9.8650    0.9040 C   0  0  0  0  0  0  0  0  0  0  0  0
  -14.2790    9.8660   -0.3010 C   0  0  2  0  0  0  0  0  0  0  0  0
  -15.2870    8.8710   -0.1020 O   0  0  0  0  0  0  0  0  0  0  0  0
  -13.5460    9.6070   -1.6470 C   0  0  0  0  0  0  0  0  0  0  0  0
  -12.6740   10.8340   -2.0100 C   0  0  0  0  0  0  0  0  0  0  0  0
  -14.6210    9.4930   -2.7610 C   0  0  0  0  0  0  0  0  0  0  0  0
  -10.7970    7.0100   -0.1820 C   0  0  1  0  0  0  0  0  0  0  0  0
  -11.5830    5.8690    0.5340 C   0  0  0  0  0  0  0  0  0  0  0  0
   -9.5580    7.3370    0.7320 C   0  0  0  0  0  0  0  0  0  0  0  0
   -8.3180    7.9310    0.0360 C   0  0  0  0  0  0  0  0  0  0  0  0
   -7.9350    7.1070   -1.1970 C   0  0  2  0  0  0  0  0  0  0  0  0
   -7.5500    5.6680   -0.7110 C   0  0  0  0  0  0  0  0  0  0  0  0
   -5.1489    8.1181    0.5106 H   0  0  0  0  0  0  0  0  0  0  0  0
   -3.9824    8.8592   -0.6369 H   0  0  0  0  0  0  0  0  0  0  0  0
   -5.6999    9.3855   -0.6369 H   0  0  0  0  0  0  0  0  0  0  0  0
   -5.2795    6.4740   -1.0323 H   0  0  0  0  0  0  0  0  0  0  0  0
   -4.6941    6.7053   -3.4512 H   0  0  0  0  0  0  0  0  0  0  0  0
   -4.3235    8.4633   -3.1129 H   0  0  0  0  0  0  0  0  0  0  0  0
   -2.8831    6.9860   -1.1979 H   0  0  0  0  0  0  0  0  0  0  0  0
   -2.6516    6.1347   -2.7819 H   0  0  0  0  0  0  0  0  0  0  0  0
   -2.5059    8.3113   -3.6511 H   0  0  0  0  0  0  0  0  0  0  0  0
   -0.5648    9.2402    0.2554 H   0  0  0  0  0  0  0  0  0  0  0  0
   -2.2725    9.7272   -0.0151 H   0  0  0  0  0  0  0  0  0  0  0  0
   -1.8239    7.9879   -0.0151 H   0  0  0  0  0  0  0  0  0  0  0  0
   -0.4107   11.0062   -1.4453 H   0  0  0  0  0  0  0  0  0  0  0  0
    0.2000   10.1498   -2.9014 H   0  0  0  0  0  0  0  0  0  0  0  0
   -1.4517   10.8558   -2.9014 H   0  0  0  0  0  0  0  0  0  0  0  0
   -6.8036    8.7502   -2.0879 H   0  0  0  0  0  0  0  0  0  0  0  0
   -6.8470    7.6720   -4.2502 H   0  0  0  0  0  0  0  0  0  0  0  0
   -6.3011    6.1222   -3.5740 H   0  0  0  0  0  0  0  0  0  0  0  0
   -8.9768    6.7379   -4.3676 H   0  0  0  0  0  0  0  0  0  0  0  0
   -8.5373    5.3581   -3.3648 H   0  0  0  0  0  0  0  0  0  0  0  0
   -9.6477    9.2552   -1.8745 H   0  0  0  0  0  0  0  0  0  0  0  0
   -8.6530    8.9769   -3.3441 H   0  0  0  0  0  0  0  0  0  0  0  0
  -10.3961    8.5433   -3.3441 H   0  0  0  0  0  0  0  0  0  0  0  0
   -9.9944    5.4227   -1.4303 H   0  0  0  0  0  0  0  0  0  0  0  0
  -11.2023    6.2151   -3.5651 H   0  0  0  0  0  0  0  0  0  0  0  0
  -12.1253    5.4081   -2.1918 H   0  0  0  0  0  0  0  0  0  0  0  0
  -13.2870    7.4890   -3.3123 H   0  0  0  0  0  0  0  0  0  0  0  0
  -10.9688    9.1077   -0.4299 H   0  0  0  0  0  0  0  0  0  0  0  0
  -13.2529    7.7285    1.1112 H   0  0  0  0  0  0  0  0  0  0  0  0
  -11.8511    8.6441    1.8234 H   0  0  0  0  0  0  0  0  0  0  0  0
  -13.9368    9.9763    1.8226 H   0  0  0  0  0  0  0  0  0  0  0  0
  -12.6351   10.7013    0.7999 H   0  0  0  0  0  0  0  0  0  0  0  0
  -14.7220   10.8702   -0.3739 H   0  0  0  0  0  0  0  0  0  0  0  0
  -16.1230    9.2250   -0.4520 H   0  0  0  0  0  0  0  0  0  0  0  0
  -12.3267   11.3227   -1.0878 H   0  0  0  0  0  0  0  0  0  0  0  0
  -11.8058   10.5052   -2.6001 H   0  0  0  0  0  0  0  0  0  0  0  0
  -13.2700   11.5457   -2.6001 H   0  0  0  0  0  0  0  0  0  0  0  0
  -15.6150    9.3876   -2.3019 H   0  0  0  0  0  0  0  0  0  0  0  0
  -14.5996   10.3985   -3.3853 H   0  0  0  0  0  0  0  0  0  0  0  0
  -14.4102    8.6122   -3.3853 H   0  0  0  0  0  0  0  0  0  0  0  0
  -11.4977    5.9928    1.6237 H   0  0  0  0  0  0  0  0  0  0  0  0
  -12.6425    5.9142    0.2417 H   0  0  0  0  0  0  0  0  0  0  0  0
  -11.1632    4.8952    0.2417 H   0  0  0  0  0  0  0  0  0  0  0  0
   -9.8883    8.0573    1.4949 H   0  0  0  0  0  0  0  0  0  0  0  0
   -9.2279    6.3651    1.1275 H   0  0  0  0  0  0  0  0  0  0  0  0
   -8.5394    8.9626   -0.2750 H   0  0  0  0  0  0  0  0  0  0  0  0
   -7.4765    7.9150    0.7442 H   0  0  0  0  0  0  0  0  0  0  0  0
   -7.5430    5.6420    0.3887 H   0  0  0  0  0  0  0  0  0  0  0  0
   -8.2860    4.9438   -1.0902 H   0  0  0  0  0  0  0  0  0  0  0  0
   -6.5507    5.4080   -1.0902 H   0  0  0  0  0  0  0  0  0  0  0  0
  1  2  1  0
  2  3  1  0
  3  4  1  0
  4  5  1  0
  5  6  1  0
  6  7  1  0
  7  8  1  0
  7  9  1  0
  2 10  1  0
 10 11  1  0
 11 12  1  0
 12 13  1  0
 13 14  1  6
 13 15  1  0
 15 16  1  0
 16 17  1  0
 17 18  2  0
 18 19  1  0
 19 20  1  0
 20 21  1  0
 21 22  1  0
 22 23  1  0
 22 24  1  0
 24 25  1  0
 24 26  1  0
 19 27  1  0
 27 28  1  1
 27 29  1  0
 29 30  1  0
 30 31  1  0
 31 32  1  1
  7  5  1  0
 31 10  1  0
 31 13  1  0
 27 15  1  0
 24 18  1  0
  1 33  1  0
  1 34  1  0
  1 35  1  0
  2 36  1  1
  3 37  1  0
  3 38  1  0
  4 39  1  0
  4 40  1  0
  5 41  1  6
  8 42  1  0
  8 43  1  0
  8 44  1  0
  9 45  1  0
  9 46  1  0
  9 47  1  0
 10 48  1  6
 11 49  1  0
 11 50  1  0
 12 51  1  0
 12 52  1  0
 14 53  1  0
 14 54  1  0
 14 55  1  0
 15 56  1  1
 16 57  1  0
 16 58  1  0
 17 59  1  0
 19 60  1  6
 20 61  1  0
 20 62  1  0
 21 63  1  0
 21 64  1  0
 22 65  1  6
 23 66  1  0
 25 67  1  0
 25 68  1  0
 25 69  1  0
 26 70  1  0
 26 71  1  0
 26 72  1  0
 28 73  1  0
 28 74  1  0
 28 75  1  0
 29 76  1  0
 29 77  1  0
 30 78  1  0
 30 79  1  0
 32 80  1  0
 32 81  1  0
 32 82  1  0
M  END
>  <meeko>  (3) 
{"is_sidechain": [false], "intermolecular_energy": 2.731, "internal_energy": -0.839}

$$$$
EPH_relaxed_0001_pdb2pqr_Repair_180_r2_0001_out
     RDKit          3D

 82 86  0  0  0  0  0  0  0  0999 V2000
    2.1040   20.1940   -0.7940 C   0  0  0  0  0  0  0  0  0  0  0  0
    1.9020   19.3980    0.4990 C   0  0  2  0  0  0  0  0  0  0  0  0
    3.2410   18.9850    1.1420 C   0  0  0  0  0  0  0  0  0  0  0  0
    3.7510   19.9750    2.1930 C   0  0  0  0  0  0  0  0  0  0  0  0
    5.0860   19.5660    2.7380 C   0  0  2  0  0  0  0  0  0  0  0  0
    5.1470   18.2180    3.2230 O   0  0  0  0  0  0  0  0  0  0  0  0
    5.3320   19.2540    4.2020 C   0  0  0  0  0  0  0  0  0  0  0  0
    4.2310   19.3370    5.2140 C   0  0  0  0  0  0  0  0  0  0  0  0
    6.7300   19.3440    4.7280 C   0  0  0  0  0  0  0  0  0  0  0  0
    1.0540   18.1630    0.2210 C   0  0  1  0  0  0  0  0  0  0  0  0
   -0.2370   18.4910   -0.5740 C   0  0  0  0  0  0  0  0  0  0  0  0
   -0.5050   17.2830   -1.5100 C   0  0  0  0  0  0  0  0  0  0  0  0
    0.4370   16.1710   -0.9910 C   0  0  1  0  0  0  0  0  0  0  0  0
   -0.3110   15.5510    0.2310 C   0  0  0  0  0  0  0  0  0  0  0  0
    0.8530   15.0780   -2.0280 C   0  0  2  0  0  0  0  0  0  0  0  0
   -0.3060   14.2360   -2.5890 C   0  0  0  0  0  0  0  0  0  0  0  0
   -0.6180   12.9920   -1.8250 C   0  0  0  0  0  0  0  0  0  0  0  0
    0.1790   12.4180   -0.9050 C   0  0  0  0  0  0  0  0  0  0  0  0
    1.5820   12.9730   -0.6230 C   0  0  1  0  0  0  0  0  0  0  0  0
    2.6020   11.8050   -0.5810 C   0  0  0  0  0  0  0  0  0  0  0  0
    2.1980   10.7100    0.4020 C   0  0  0  0  0  0  0  0  0  0  0  0
    0.8240   10.1440    0.0540 C   0  0  2  0  0  0  0  0  0  0  0  0
    0.9130    9.4540   -1.1970 O   0  0  0  0  0  0  0  0  0  0  0  0
   -0.2840   11.2300   -0.0260 C   0  0  0  0  0  0  0  0  0  0  0  0
   -0.5910   11.7670    1.3940 C   0  0  0  0  0  0  0  0  0  0  0  0
   -1.5870   10.5480   -0.5230 C   0  0  0  0  0  0  0  0  0  0  0  0
    2.0570   14.1650   -1.5600 C   0  0  1  0  0  0  0  0  0  0  0  0
    2.7140   13.5950   -2.8540 C   0  0  0  0  0  0  0  0  0  0  0  0
    3.1770   14.9860   -0.8180 C   0  0  0  0  0  0  0  0  0  0  0  0
    2.7070   16.1300    0.1000 C   0  0  0  0  0  0  0  0  0  0  0  0
    1.6990   17.0320   -0.6190 C   0  0  2  0  0  0  0  0  0  0  0  0
    2.4290   17.6870   -1.8400 C   0  0  0  0  0  0  0  0  0  0  0  0
    2.3677   21.2331   -0.5475 H   0  0  0  0  0  0  0  0  0  0  0  0
    2.9152   19.7394   -1.3815 H   0  0  0  0  0  0  0  0  0  0  0  0
    1.1741   20.1812   -1.3815 H   0  0  0  0  0  0  0  0  0  0  0  0
    1.3818   20.0529    1.2134 H   0  0  0  0  0  0  0  0  0  0  0  0
    3.1071   18.0053    1.6240 H   0  0  0  0  0  0  0  0  0  0  0  0
    3.9894   18.9579    0.3363 H   0  0  0  0  0  0  0  0  0  0  0  0
    3.8439   20.9690    1.7311 H   0  0  0  0  0  0  0  0  0  0  0  0
    3.0317   19.9927    3.0250 H   0  0  0  0  0  0  0  0  0  0  0  0
    5.6048   20.2261    2.0273 H   0  0  0  0  0  0  0  0  0  0  0  0
    4.6602   19.3046    6.2263 H   0  0  0  0  0  0  0  0  0  0  0  0
    3.6796   20.2793    5.0795 H   0  0  0  0  0  0  0  0  0  0  0  0
    3.5446   18.4881    5.0795 H   0  0  0  0  0  0  0  0  0  0  0  0
    6.7088   19.3426    5.8278 H   0  0  0  0  0  0  0  0  0  0  0  0
    7.3122   18.4815    4.3714 H   0  0  0  0  0  0  0  0  0  0  0  0
    7.1968   20.2741    4.3714 H   0  0  0  0  0  0  0  0  0  0  0  0
    0.8878   17.8177    1.2521 H   0  0  0  0  0  0  0  0  0  0  0  0
   -1.0820   18.6301    0.1164 H   0  0  0  0  0  0  0  0  0  0  0  0
   -0.1201   19.4199   -1.1515 H   0  0  0  0  0  0  0  0  0  0  0  0
   -1.5558   16.9648   -1.4422 H   0  0  0  0  0  0  0  0  0  0  0  0
   -0.3215   17.5255   -2.5671 H   0  0  0  0  0  0  0  0  0  0  0  0
    0.1383   15.9234    1.1634 H   0  0  0  0  0  0  0  0  0  0  0  0
   -1.3723   15.8378    0.1953 H   0  0  0  0  0  0  0  0  0  0  0  0
   -0.2260   14.4549    0.1953 H   0  0  0  0  0  0  0  0  0  0  0  0
    1.2195   15.6812   -2.8717 H   0  0  0  0  0  0  0  0  0  0  0  0
   -1.2089   14.8643   -2.5990 H   0  0  0  0  0  0  0  0  0  0  0  0
    0.0128   13.9072   -3.5891 H   0  0  0  0  0  0  0  0  0  0  0  0
   -1.5814   12.5029   -2.0316 H   0  0  0  0  0  0  0  0  0  0  0  0
    1.5259   13.4549    0.3642 H   0  0  0  0  0  0  0  0  0  0  0  0
    2.6767   11.3658   -1.5868 H   0  0  0  0  0  0  0  0  0  0  0  0
    3.5659   12.2155   -0.2457 H   0  0  0  0  0  0  0  0  0  0  0  0
    2.9412    9.8999    0.3638 H   0  0  0  0  0  0  0  0  0  0  0  0
    2.1533   11.1439    1.4118 H   0  0  0  0  0  0  0  0  0  0  0  0
    0.5341    9.4601    0.8653 H   0  0  0  0  0  0  0  0  0  0  0  0
    1.4330   10.0090   -1.8020 H   0  0  0  0  0  0  0  0  0  0  0  0
   -0.1918   11.0687    2.1443 H   0  0  0  0  0  0  0  0  0  0  0  0
   -0.1199   12.7526    1.5231 H   0  0  0  0  0  0  0  0  0  0  0  0
   -1.6793   11.8611    1.5231 H   0  0  0  0  0  0  0  0  0  0  0  0
   -2.1889   10.2329    0.3421 H   0  0  0  0  0  0  0  0  0  0  0  0
   -2.1642   11.2596   -1.1316 H   0  0  0  0  0  0  0  0  0  0  0  0
   -1.3312    9.6682   -1.1316 H   0  0  0  0  0  0  0  0  0  0  0  0
    3.5186   12.8969   -2.5798 H   0  0  0  0  0  0  0  0  0  0  0  0
    1.9549   13.0646   -3.4476 H   0  0  0  0  0  0  0  0  0  0  0  0
    3.1320   14.4214   -3.4476 H   0  0  0  0  0  0  0  0  0  0  0  0
    3.7536   14.2805   -0.2018 H   0  0  0  0  0  0  0  0  0  0  0  0
    3.7516   15.4764   -1.6176 H   0  0  0  0  0  0  0  0  0  0  0  0
    2.2318   15.7012    0.9946 H   0  0  0  0  0  0  0  0  0  0  0  0
    3.5813   16.7357    0.3808 H   0  0  0  0  0  0  0  0  0  0  0  0
    3.2017   18.3803   -1.4764 H   0  0  0  0  0  0  0  0  0  0  0  0
    2.8988   16.9019   -2.4506 H   0  0  0  0  0  0  0  0  0  0  0  0
    1.6992   18.2389   -2.4506 H   0  0  0  0  0  0  0  0  0  0  0  0
  1  2  1  0
  2  3  1  0
  3  4  1  0
  4  5  1  0
  5  6  1  0
  6  7  1  0
  7  8  1  0
  7  9  1  0
  2 10  1  0
 10 11  1  0
 11 12  1  0
 12 13  1  0
 13 14  1  1
 13 15  1  0
 15 16  1  0
 16 17  1  0
 17 18  2  0
 18 19  1  0
 19 20  1  0
 20 21  1  0
 21 22  1  0
 22 23  1  0
 22 24  1  0
 24 25  1  0
 24 26  1  0
 19 27  1  0
 27 28  1  6
 27 29  1  0
 29 30  1  0
 30 31  1  0
 31 32  1  6
  7  5  1  0
 31 10  1  0
 31 13  1  0
 27 15  1  0
 24 18  1  0
  1 33  1  0
  1 34  1  0
  1 35  1  0
  2 36  1  1
  3 37  1  0
  3 38  1  0
  4 39  1  0
  4 40  1  0
  5 41  1  6
  8 42  1  0
  8 43  1  0
  8 44  1  0
  9 45  1  0
  9 46  1  0
  9 47  1  0
 10 48  1  1
 11 49  1  0
 11 50  1  0
 12 51  1  0
 12 52  1  0
 14 53  1  0
 14 54  1  0
 14 55  1  0
 15 56  1  6
 16 57  1  0
 16 58  1  0
 17 59  1  0
 19 60  1  1
 20 61  1  0
 20 62  1  0
 21 63  1  0
 21 64  1  0
 22 65  1  1
 23 66  1  0
 25 67  1  0
 25 68  1  0
 25 69  1  0
 26 70  1  0
 26 71  1  0
 26 72  1  0
 28 73  1  0
 28 74  1  0
 28 75  1  0
 29 76  1  0
 29 77  1  0
 30 78  1  0
 30 79  1  0
 32 80  1  0
 32 81  1  0
 32 82  1  0
M  END
>  <meeko>  (4) 
{"is_sidechain": [false], "intermolecular_energy": 2.731, "internal_energy": -0.839}

$$$$
EPH_relaxed_0001_pdb2pqr_Repair_180_r2_0001_out
     RDKit          3D

 82 86  0  0  0  0  0  0  0  0999 V2000
    3.5950   18.3670   -2.4370 C   0  0  0  0  0  0  0  0  0  0  0  0
    2.2720   17.6270   -2.6520 C   0  0  2  0  0  0  0  0  0  0  0  0
    1.0530   18.5010   -2.2920 C   0  0  0  0  0  0  0  0  0  0  0  0
    1.1720   19.1920   -0.9310 C   0  0  0  0  0  0  0  0  0  0  0  0
   -0.0690   19.9590   -0.5880 C   0  0  2  0  0  0  0  0  0  0  0  0
   -0.2600   20.1940    0.8130 O   0  0  0  0  0  0  0  0  0  0  0  0
   -1.2390   19.3600    0.1710 C   0  0  0  0  0  0  0  0  0  0  0  0
   -1.2230   17.9370    0.6330 C   0  0  0  0  0  0  0  0  0  0  0  0
   -2.5830   20.0040    0.0370 C   0  0  0  0  0  0  0  0  0  0  0  0
    2.2550   16.3440   -1.8300 C   0  0  1  0  0  0  0  0  0  0  0  0
    2.4030   16.6080   -0.3080 C   0  0  0  0  0  0  0  0  0  0  0  0
    1.5410   15.5430    0.4170 C   0  0  0  0  0  0  0  0  0  0  0  0
    1.1960   14.5080   -0.6790 C   0  0  1  0  0  0  0  0  0  0  0  0
    2.4600   13.5970   -0.7830 C   0  0  0  0  0  0  0  0  0  0  0  0
   -0.1030   13.6680   -0.4530 C   0  0  2  0  0  0  0  0  0  0  0  0
   -0.0910   12.7710    0.7960 C   0  0  0  0  0  0  0  0  0  0  0  0
    0.4290   11.3870    0.5820 C   0  0  0  0  0  0  0  0  0  0  0  0
    0.6020   10.7930   -0.6130 C   0  0  0  0  0  0  0  0  0  0  0  0
    0.1680   11.4900   -1.9090 C   0  0  1  0  0  0  0  0  0  0  0  0
   -0.6160   10.4890   -2.7980 C   0  0  0  0  0  0  0  0  0  0  0  0
    0.1630    9.2030   -3.0590 C   0  0  0  0  0  0  0  0  0  0  0  0
    0.5250    8.5090   -1.7480 C   0  0  2  0  0  0  0  0  0  0  0  0
   -0.6770    8.0510   -1.1210 O   0  0  0  0  0  0  0  0  0  0  0  0
    1.3100    9.4240   -0.7670 C   0  0  0  0  0  0  0  0  0  0  0  0
    2.7360    9.6740   -1.3160 C   0  0  0  0  0  0  0  0  0  0  0  0
    1.4880    8.6510    0.5680 C   0  0  0  0  0  0  0  0  0  0  0  0
   -0.5920   12.8740   -1.7310 C   0  0  1  0  0  0  0  0  0  0  0  0
   -2.1190   12.6210   -1.5410 C   0  0  0  0  0  0  0  0  0  0  0  0
   -0.4420   13.7160   -3.0530 C   0  0  0  0  0  0  0  0  0  0  0  0
    0.8030   14.6170   -3.1660 C   0  0  0  0  0  0  0  0  0  0  0  0
    0.9790   15.4680   -1.9050 C   0  0  2  0  0  0  0  0  0  0  0  0
   -0.2670   16.4110   -1.7860 C   0  0  0  0  0  0  0  0  0  0  0  0
    3.7847   18.4731   -1.3587 H   0  0  0  0  0  0  0  0  0  0  0  0
    4.4138   17.7959   -2.8989 H   0  0  0  0  0  0  0  0  0  0  0  0
    3.5370   19.3636   -2.8989 H   0  0  0  0  0  0  0  0  0  0  0  0
    2.1985   17.3833   -3.7221 H   0  0  0  0  0  0  0  0  0  0  0  0
    0.9397   19.2747   -3.0656 H   0  0  0  0  0  0  0  0  0  0  0  0
    0.1820   17.8314   -2.2376 H   0  0  0  0  0  0  0  0  0  0  0  0
    1.3445   18.4289   -0.1577 H   0  0  0  0  0  0  0  0  0  0  0  0
    2.0112   19.9016   -0.9791 H   0  0  0  0  0  0  0  0  0  0  0  0
   -0.0115   20.5204   -1.5322 H   0  0  0  0  0  0  0  0  0  0  0  0
   -1.2227   17.9085    1.7326 H   0  0  0  0  0  0  0  0  0  0  0  0
   -2.1154   17.4181    0.2530 H   0  0  0  0  0  0  0  0  0  0  0  0
   -0.3192   17.4383    0.2530 H   0  0  0  0  0  0  0  0  0  0  0  0
   -2.9961   20.2019    1.0371 H   0  0  0  0  0  0  0  0  0  0  0  0
   -2.4824   20.9517   -0.5123 H   0  0  0  0  0  0  0  0  0  0  0  0
   -3.2586   19.3318   -0.5123 H   0  0  0  0  0  0  0  0  0  0  0  0
    3.1015   15.8165   -2.2940 H   0  0  0  0  0  0  0  0  0  0  0  0
    3.4567   16.5109   -0.0075 H   0  0  0  0  0  0  0  0  0  0  0  0
    2.0733   17.6252   -0.0499 H   0  0  0  0  0  0  0  0  0  0  0  0
    2.1106   15.0711    1.2312 H   0  0  0  0  0  0  0  0  0  0  0  0
    0.6418   15.9776    0.8781 H   0  0  0  0  0  0  0  0  0  0  0  0
    2.8128   13.3427    0.2274 H   0  0  0  0  0  0  0  0  0  0  0  0
    2.2036   12.6747   -1.3248 H   0  0  0  0  0  0  0  0  0  0  0  0
    3.2539   14.1319   -1.3248 H   0  0  0  0  0  0  0  0  0  0  0  0
   -0.8549   14.4458   -0.2540 H   0  0  0  0  0  0  0  0  0  0  0  0
    0.5375   13.2564    1.5572 H   0  0  0  0  0  0  0  0  0  0  0  0
   -1.1421   12.6578    1.0998 H   0  0  0  0  0  0  0  0  0  0  0  0
    0.6928   10.8042    1.4769 H   0  0  0  0  0  0  0  0  0  0  0  0
    1.0956   11.7925   -2.4170 H   0  0  0  0  0  0  0  0  0  0  0  0
   -1.5594   10.2334   -2.2934 H   0  0  0  0  0  0  0  0  0  0  0  0
   -0.7944   10.9740   -3.7691 H   0  0  0  0  0  0  0  0  0  0  0  0
   -0.4544    8.5251   -3.6667 H   0  0  0  0  0  0  0  0  0  0  0  0
    1.0922    9.4569   -3.5902 H   0  0  0  0  0  0  0  0  0  0  0  0
    1.1903    7.6680   -1.9931 H   0  0  0  0  0  0  0  0  0  0  0  0
   -1.3540    8.7390   -1.2450 H   0  0  0  0  0  0  0  0  0  0  0  0
    3.4359    9.7967   -0.4763 H   0  0  0  0  0  0  0  0  0  0  0  0
    3.0477    8.8168   -1.9309 H   0  0  0  0  0  0  0  0  0  0  0  0
    2.7375   10.5861   -1.9309 H   0  0  0  0  0  0  0  0  0  0  0  0
    1.3300    9.3373    1.4130 H   0  0  0  0  0  0  0  0  0  0  0  0
    0.7548    7.8325    0.6183 H   0  0  0  0  0  0  0  0  0  0  0  0
    2.5053    8.2356    0.6183 H   0  0  0  0  0  0  0  0  0  0  0  0
   -2.3534   12.5822   -0.4670 H   0  0  0  0  0  0  0  0  0  0  0  0
   -2.6872   13.4373   -2.0110 H   0  0  0  0  0  0  0  0  0  0  0  0
   -2.3936   11.6651   -2.0110 H   0  0  0  0  0  0  0  0  0  0  0  0
   -0.4194   13.0101   -3.8963 H   0  0  0  0  0  0  0  0  0  0  0  0
   -1.2979   14.4069   -3.0526 H   0  0  0  0  0  0  0  0  0  0  0  0
    1.6934   13.9854   -3.3012 H   0  0  0  0  0  0  0  0  0  0  0  0
    0.6734   15.2886   -4.0275 H   0  0  0  0  0  0  0  0  0  0  0  0
   -0.4957   16.5841   -0.7241 H   0  0  0  0  0  0  0  0  0  0  0  0
   -0.0479   17.3716   -2.2752 H   0  0  0  0  0  0  0  0  0  0  0  0
   -1.1319   15.9392   -2.2752 H   0  0  0  0  0  0  0  0  0  0  0  0
  1  2  1  0
  2  3  1  0
  3  4  1  0
  4  5  1  0
  5  6  1  0
  6  7  1  0
  7  8  1  0
  7  9  1  0
  2 10  1  0
 10 11  1  0
 11 12  1  0
 12 13  1  0
 13 14  1  6
 13 15  1  0
 15 16  1  0
 16 17  1  0
 17 18  2  0
 18 19  1  0
 19 20  1  0
 20 21  1  0
 21 22  1  0
 22 23  1  0
 22 24  1  0
 24 25  1  0
 24 26  1  0
 19 27  1  0
 27 28  1  1
 27 29  1  0
 29 30  1  0
 30 31  1  0
 31 32  1  1
  7  5  1  0
 31 10  1  0
 31 13  1  0
 27 15  1  0
 24 18  1  0
  1 33  1  0
  1 34  1  0
  1 35  1  0
  2 36  1  6
  3 37  1  0
  3 38  1  0
  4 39  1  0
  4 40  1  0
  5 41  1  6
  8 42  1  0
  8 43  1  0
  8 44  1  0
  9 45  1  0
  9 46  1  0
  9 47  1  0
 10 48  1  6
 11 49  1  0
 11 50  1  0
 12 51  1  0
 12 52  1  0
 14 53  1  0
 14 54  1  0
 14 55  1  0
 15 56  1  1
 16 57  1  0
 16 58  1  0
 17 59  1  0
 19 60  1  6
 20 61  1  0
 20 62  1  0
 21 63  1  0
 21 64  1  0
 22 65  1  6
 23 66  1  0
 25 67  1  0
 25 68  1  0
 25 69  1  0
 26 70  1  0
 26 71  1  0
 26 72  1  0
 28 73  1  0
 28 74  1  0
 28 75  1  0
 29 76  1  0
 29 77  1  0
 30 78  1  0
 30 79  1  0
 32 80  1  0
 32 81  1  0
 32 82  1  0
M  END
>  <meeko>  (5) 
{"is_sidechain": [false], "intermolecular_energy": 2.731, "internal_energy": -0.839}

$$$$
EPH_relaxed_0001_pdb2pqr_Repair_180_r2_0001_out
     RDKit          3D

 82 86  0  0  0  0  0  0  0  0999 V2000
    4.1440   17.0940   -0.6180 C   0  0  0  0  0  0  0  0  0  0  0  0
    2.7910   17.7600   -0.3540 C   0  0  2  0  0  0  0  0  0  0  0  0
    2.8370   18.7040    0.8640 C   0  0  0  0  0  0  0  0  0  0  0  0
    4.2120   18.7800    1.5340 C   0  0  0  0  0  0  0  0  0  0  0  0
    4.1180   19.3030    2.9350 C   0  0  2  0  0  0  0  0  0  0  0  0
    5.1750   20.1940    3.3130 O   0  0  0  0  0  0  0  0  0  0  0  0
    5.1100   18.9490    4.0280 C   0  0  0  0  0  0  0  0  0  0  0  0
    6.2660   18.0360    3.7670 C   0  0  0  0  0  0  0  0  0  0  0  0
    4.6830   19.0960    5.4550 C   0  0  0  0  0  0  0  0  0  0  0  0
    1.7190   16.6960   -0.1490 C   0  0  1  0  0  0  0  0  0  0  0  0
    0.2970   17.3010   -0.0040 C   0  0  0  0  0  0  0  0  0  0  0  0
   -0.6840   16.3030   -0.6690 C   0  0  0  0  0  0  0  0  0  0  0  0
    0.1500   15.0160   -0.8760 C   0  0  1  0  0  0  0  0  0  0  0  0
    0.1350   14.3010    0.5110 C   0  0  0  0  0  0  0  0  0  0  0  0
   -0.3230   14.0630   -2.0220 C   0  0  2  0  0  0  0  0  0  0  0  0
   -1.7300   13.4680   -1.8370 C   0  0  0  0  0  0  0  0  0  0  0  0
   -1.7800   12.1640   -1.1130 C   0  0  0  0  0  0  0  0  0  0  0  0
   -0.7280   11.3570   -0.8810 C   0  0  0  0  0  0  0  0  0  0  0  0
    0.6580   11.6860   -1.4510 C   0  0  1  0  0  0  0  0  0  0  0  0
    1.2700   10.4130   -2.0920 C   0  0  0  0  0  0  0  0  0  0  0  0
    1.3010    9.2300   -1.1290 C   0  0  0  0  0  0  0  0  0  0  0  0
   -0.1020    8.8970   -0.6290 C   0  0  2  0  0  0  0  0  0  0  0  0
   -0.8800    8.4130   -1.7280 O   0  0  0  0  0  0  0  0  0  0  0  0
   -0.8220   10.1070    0.0290 C   0  0  0  0  0  0  0  0  0  0  0  0
   -0.1500   10.4400    1.3840 C   0  0  0  0  0  0  0  0  0  0  0  0
   -2.2760    9.6750    0.3610 C   0  0  0  0  0  0  0  0  0  0  0  0
    0.7290   12.9490   -2.4140 C   0  0  1  0  0  0  0  0  0  0  0  0
    0.4010   12.5210   -3.8770 C   0  0  0  0  0  0  0  0  0  0  0  0
    2.2040   13.4980   -2.4320 C   0  0  0  0  0  0  0  0  0  0  0  0
    2.5760   14.5270   -1.3470 C   0  0  0  0  0  0  0  0  0  0  0  0
    1.5340   15.6470   -1.2730 C   0  0  2  0  0  0  0  0  0  0  0  0
    1.5420   16.3990   -2.6480 C   0  0  0  0  0  0  0  0  0  0  0  0
    4.6285   16.8555    0.3403 H   0  0  0  0  0  0  0  0  0  0  0  0
    3.9912   16.1682   -1.1920 H   0  0  0  0  0  0  0  0  0  0  0  0
    4.7845   17.7798   -1.1920 H   0  0  0  0  0  0  0  0  0  0  0  0
    2.5446   18.3703   -1.2354 H   0  0  0  0  0  0  0  0  0  0  0  0
    2.5570   19.7142    0.5308 H   0  0  0  0  0  0  0  0  0  0  0  0
    2.1382   18.2988    1.6106 H   0  0  0  0  0  0  0  0  0  0  0  0
    4.6527   17.7725    1.5585 H   0  0  0  0  0  0  0  0  0  0  0  0
    4.8394   19.4708    0.9516 H   0  0  0  0  0  0  0  0  0  0  0  0
    3.0190   19.2732    2.8981 H   0  0  0  0  0  0  0  0  0  0  0  0
    6.6913   17.7001    4.7242 H   0  0  0  0  0  0  0  0  0  0  0  0
    5.9217   17.1635    3.1924 H   0  0  0  0  0  0  0  0  0  0  0  0
    7.0350   18.5731    3.1924 H   0  0  0  0  0  0  0  0  0  0  0  0
    5.5133   18.8102    6.1175 H   0  0  0  0  0  0  0  0  0  0  0  0
    4.4033   20.1422    5.6481 H   0  0  0  0  0  0  0  0  0  0  0  0
    3.8186   18.4437    5.6481 H   0  0  0  0  0  0  0  0  0  0  0  0
    2.1116   16.2111    0.7570 H   0  0  0  0  0  0  0  0  0  0  0  0
    0.0458   17.4272    1.0595 H   0  0  0  0  0  0  0  0  0  0  0  0
    0.2382   18.2900   -0.4819 H   0  0  0  0  0  0  0  0  0  0  0  0
   -1.5439   16.1071   -0.0115 H   0  0  0  0  0  0  0  0  0  0  0  0
   -1.0965   16.6893   -1.6127 H   0  0  0  0  0  0  0  0  0  0  0  0
    0.1508   15.0546    1.3122 H   0  0  0  0  0  0  0  0  0  0  0  0
   -0.7761   13.6911    0.5993 H   0  0  0  0  0  0  0  0  0  0  0  0
    1.0198   13.6534    0.5993 H   0  0  0  0  0  0  0  0  0  0  0  0
   -0.3986   14.7463   -2.8807 H   0  0  0  0  0  0  0  0  0  0  0  0
   -2.3345   14.1935   -1.2728 H   0  0  0  0  0  0  0  0  0  0  0  0
   -2.1121   13.2692   -2.8492 H   0  0  0  0  0  0  0  0  0  0  0  0
   -2.7598   11.8343   -0.7370 H   0  0  0  0  0  0  0  0  0  0  0  0
    1.2715   12.0042   -0.5952 H   0  0  0  0  0  0  0  0  0  0  0  0
    0.6687   10.1367   -2.9707 H   0  0  0  0  0  0  0  0  0  0  0  0
    2.3089   10.6452   -2.3691 H   0  0  0  0  0  0  0  0  0  0  0  0
    1.7155    8.3535   -1.6486 H   0  0  0  0  0  0  0  0  0  0  0  0
    1.9276    9.4967   -0.2651 H   0  0  0  0  0  0  0  0  0  0  0  0
    0.0001    8.1306    0.1535 H   0  0  0  0  0  0  0  0  0  0  0  0
   -0.3190    8.4430   -2.5210 H   0  0  0  0  0  0  0  0  0  0  0  0
   -0.8039   10.1160    2.2070 H   0  0  0  0  0  0  0  0  0  0  0  0
    0.8144    9.9155    1.4537 H   0  0  0  0  0  0  0  0  0  0  0  0
    0.0168   11.5250    1.4537 H   0  0  0  0  0  0  0  0  0  0  0  0
   -2.4068    9.6361    1.4525 H   0  0  0  0  0  0  0  0  0  0  0  0
   -2.9814   10.4024   -0.0672 H   0  0  0  0  0  0  0  0  0  0  0  0
   -2.4698    8.6805   -0.0672 H   0  0  0  0  0  0  0  0  0  0  0  0
   -0.2680   11.6480   -3.8624 H   0  0  0  0  0  0  0  0  0  0  0  0
   -0.0931   13.3529   -4.4004 H   0  0  0  0  0  0  0  0  0  0  0  0
    1.3327   12.2602   -4.4004 H   0  0  0  0  0  0  0  0  0  0  0  0
    2.8805   12.6378   -2.3207 H   0  0  0  0  0  0  0  0  0  0  0  0
    2.2982   14.0385   -3.3854 H   0  0  0  0  0  0  0  0  0  0  0  0
    2.6284   14.0194   -0.3725 H   0  0  0  0  0  0  0  0  0  0  0  0
    3.5496   14.9703   -1.6032 H   0  0  0  0  0  0  0  0  0  0  0  0
    1.5536   17.4848   -2.4720 H   0  0  0  0  0  0  0  0  0  0  0  0
    2.4371   16.1105   -3.2185 H   0  0  0  0  0  0  0  0  0  0  0  0
    0.6409   16.1296   -3.2185 H   0  0  0  0  0  0  0  0  0  0  0  0
  1  2  1  0
  2  3  1  0
  3  4  1  0
  4  5  1  0
  5  6  1  0
  6  7  1  0
  7  8  1  0
  7  9  1  0
  2 10  1  0
 10 11  1  0
 11 12  1  0
 12 13  1  0
 13 14  1  1
 13 15  1  0
 15 16  1  0
 16 17  1  0
 17 18  2  0
 18 19  1  0
 19 20  1  0
 20 21  1  0
 21 22  1  0
 22 23  1  0
 22 24  1  0
 24 25  1  0
 24 26  1  0
 19 27  1  0
 27 28  1  6
 27 29  1  0
 29 30  1  0
 30 31  1  0
 31 32  1  6
  7  5  1  0
 31 10  1  0
 31 13  1  0
 27 15  1  0
 24 18  1  0
  1 33  1  0
  1 34  1  0
  1 35  1  0
  2 36  1  6
  3 37  1  0
  3 38  1  0
  4 39  1  0
  4 40  1  0
  5 41  1  1
  8 42  1  0
  8 43  1  0
  8 44  1  0
  9 45  1  0
  9 46  1  0
  9 47  1  0
 10 48  1  1
 11 49  1  0
 11 50  1  0
 12 51  1  0
 12 52  1  0
 14 53  1  0
 14 54  1  0
 14 55  1  0
 15 56  1  6
 16 57  1  0
 16 58  1  0
 17 59  1  0
 19 60  1  1
 20 61  1  0
 20 62  1  0
 21 63  1  0
 21 64  1  0
 22 65  1  1
 23 66  1  0
 25 67  1  0
 25 68  1  0
 25 69  1  0
 26 70  1  0
 26 71  1  0
 26 72  1  0
 28 73  1  0
 28 74  1  0
 28 75  1  0
 29 76  1  0
 29 77  1  0
 30 78  1  0
 30 79  1  0
 32 80  1  0
 32 81  1  0
 32 82  1  0
M  END
>  <meeko>  (6) 
{"is_sidechain": [false], "intermolecular_energy": 2.731, "internal_energy": -0.839}

$$$$
EPH_relaxed_0001_pdb2pqr_Repair_180_r2_0001_out
     RDKit          3D

 82 86  0  0  0  0  0  0  0  0999 V2000
   -0.2900   18.5250   -2.5210 C   0  0  0  0  0  0  0  0  0  0  0  0
    0.7140   18.1290   -1.4360 C   0  0  2  0  0  0  0  0  0  0  0  0
    1.9370   19.0680   -1.4060 C   0  0  0  0  0  0  0  0  0  0  0  0
    2.0880   19.8410   -0.0930 C   0  0  0  0  0  0  0  0  0  0  0  0
    3.4660   19.6980    0.4800 C   0  0  2  0  0  0  0  0  0  0  0  0
    3.6390   18.5710    1.3490 O   0  0  0  0  0  0  0  0  0  0  0  0
    3.7800   19.8660    1.9550 C   0  0  0  0  0  0  0  0  0  0  0  0
    2.7110   20.1930    2.9490 C   0  0  0  0  0  0  0  0  0  0  0  0
    5.1850   20.1940    2.3530 C   0  0  0  0  0  0  0  0  0  0  0  0
    1.1680   16.6900   -1.6470 C   0  0  1  0  0  0  0  0  0  0  0  0
    2.7110   16.5590   -1.7480 C   0  0  0  0  0  0  0  0  0  0  0  0
    3.0890   15.2070   -1.0900 C   0  0  0  0  0  0  0  0  0  0  0  0
    1.7440   14.4600   -0.9330 C   0  0  1  0  0  0  0  0  0  0  0  0
    1.4630   13.8410   -2.3380 C   0  0  0  0  0  0  0  0  0  0  0  0
    1.6810   13.3810    0.1970 C   0  0  2  0  0  0  0  0  0  0  0  0
    2.6490   12.1970    0.0240 C   0  0  0  0  0  0  0  0  0  0  0  0
    2.1030   11.0320   -0.7330 C   0  0  0  0  0  0  0  0  0  0  0  0
    0.8030   10.8170   -1.0070 C   0  0  0  0  0  0  0  0  0  0  0  0
   -0.2830   11.7500   -0.4560 C   0  0  1  0  0  0  0  0  0  0  0  0
   -1.4390   10.9040    0.1400 C   0  0  0  0  0  0  0  0  0  0  0  0
   -1.9930    9.8880   -0.8550 C   0  0  0  0  0  0  0  0  0  0  0  0
   -0.8960    8.9420   -1.3360 C   0  0  2  0  0  0  0  0  0  0  0  0
   -0.4680    8.1350   -0.2340 O   0  0  0  0  0  0  0  0  0  0  0  0
    0.3270    9.6820   -1.9470 C   0  0  0  0  0  0  0  0  0  0  0  0
   -0.0700   10.3100   -3.3050 C   0  0  0  0  0  0  0  0  0  0  0  0
    1.4180    8.6230   -2.2610 C   0  0  0  0  0  0  0  0  0  0  0  0
    0.2170   12.8850    0.5380 C   0  0  1  0  0  0  0  0  0  0  0  0
    0.2630   12.3330    1.9960 C   0  0  0  0  0  0  0  0  0  0  0  0
   -0.8280   14.0630    0.5420 C   0  0  0  0  0  0  0  0  0  0  0  0
   -0.6410   15.1600   -0.5230 C   0  0  0  0  0  0  0  0  0  0  0  0
    0.8060   15.6610   -0.5470 C   0  0  2  0  0  0  0  0  0  0  0  0
    1.1110   16.3090    0.8460 C   0  0  0  0  0  0  0  0  0  0  0  0
   -1.2145   18.8897   -2.0496 H   0  0  0  0  0  0  0  0  0  0  0  0
    0.1410   19.3205   -3.1467 H   0  0  0  0  0  0  0  0  0  0  0  0
   -0.5181   17.6495   -3.1467 H   0  0  0  0  0  0  0  0  0  0  0  0
    0.2042   18.2191   -0.4655 H   0  0  0  0  0  0  0  0  0  0  0  0
    2.8430   18.4631   -1.5590 H   0  0  0  0  0  0  0  0  0  0  0  0
    1.7899   19.8127   -2.2021 H   0  0  0  0  0  0  0  0  0  0  0  0
    1.8893   20.9063   -0.2818 H   0  0  0  0  0  0  0  0  0  0  0  0
    1.3709   19.4284    0.6320 H   0  0  0  0  0  0  0  0  0  0  0  0
    3.9132   20.1365   -0.4243 H   0  0  0  0  0  0  0  0  0  0  0  0
    3.1080   20.0716    3.9677 H   0  0  0  0  0  0  0  0  0  0  0  0
    2.3822   21.2328    2.8051 H   0  0  0  0  0  0  0  0  0  0  0  0
    1.8568   19.5151    2.8051 H   0  0  0  0  0  0  0  0  0  0  0  0
    5.2606   20.2117    3.4503 H   0  0  0  0  0  0  0  0  0  0  0  0
    5.8677   19.4311    1.9506 H   0  0  0  0  0  0  0  0  0  0  0  0
    5.4593   21.1803    1.9506 H   0  0  0  0  0  0  0  0  0  0  0  0
    0.6212   16.4586   -2.5730 H   0  0  0  0  0  0  0  0  0  0  0  0
    3.0237   16.5676   -2.8026 H   0  0  0  0  0  0  0  0  0  0  0  0
    3.2125   17.3979   -1.2432 H   0  0  0  0  0  0  0  0  0  0  0  0
    3.7754   14.6394   -1.7355 H   0  0  0  0  0  0  0  0  0  0  0  0
    3.6063   15.3412   -0.1286 H   0  0  0  0  0  0  0  0  0  0  0  0
    1.0111   12.8455   -2.2164 H   0  0  0  0  0  0  0  0  0  0  0  0
    0.7721   14.4919   -2.8939 H   0  0  0  0  0  0  0  0  0  0  0  0
    2.4078   13.7494   -2.8939 H   0  0  0  0  0  0  0  0  0  0  0  0
    2.0430   13.9369    1.0744 H   0  0  0  0  0  0  0  0  0  0  0  0
    3.5397   12.5613   -0.5089 H   0  0  0  0  0  0  0  0  0  0  0  0
    2.8624   11.8279    1.0380 H   0  0  0  0  0  0  0  0  0  0  0  0
    2.8244   10.2860   -1.0978 H   0  0  0  0  0  0  0  0  0  0  0  0
   -0.6496   12.3306   -1.3154 H   0  0  0  0  0  0  0  0  0  0  0  0
   -1.0632   10.3650    1.0222 H   0  0  0  0  0  0  0  0  0  0  0  0
   -2.2553   11.5925    0.4041 H   0  0  0  0  0  0  0  0  0  0  0  0
   -2.7857    9.3017   -0.3672 H   0  0  0  0  0  0  0  0  0  0  0  0
   -2.3950   10.4302   -1.7236 H   0  0  0  0  0  0  0  0  0  0  0  0
   -1.3224    8.3240   -2.1399 H   0  0  0  0  0  0  0  0  0  0  0  0
   -0.8330    8.5270    0.5770 H   0  0  0  0  0  0  0  0  0  0  0  0
   -0.6502   11.2278   -3.1289 H   0  0  0  0  0  0  0  0  0  0  0  0
    0.8382   10.5542   -3.8756 H   0  0  0  0  0  0  0  0  0  0  0  0
   -0.6801    9.5943   -3.8756 H   0  0  0  0  0  0  0  0  0  0  0  0
    1.8262    8.2268   -1.3195 H   0  0  0  0  0  0  0  0  0  0  0  0
    0.9748    7.8015   -2.8430 H   0  0  0  0  0  0  0  0  0  0  0  0
    2.2260    9.0904   -2.8430 H   0  0  0  0  0  0  0  0  0  0  0  0
    0.1933   13.1694    2.7071 H   0  0  0  0  0  0  0  0  0  0  0  0
   -0.5810   11.6456    2.1546 H   0  0  0  0  0  0  0  0  0  0  0  0
    1.2091   11.7947    2.1546 H   0  0  0  0  0  0  0  0  0  0  0  0
   -1.8257   13.6235    0.3956 H   0  0  0  0  0  0  0  0  0  0  0  0
   -0.6857   14.5712    1.5072 H   0  0  0  0  0  0  0  0  0  0  0  0
   -0.8958   14.7492   -1.5111 H   0  0  0  0  0  0  0  0  0  0  0  0
   -1.3002   16.0050   -0.2751 H   0  0  0  0  0  0  0  0  0  0  0  0
    0.7896   15.6262    1.6463 H   0  0  0  0  0  0  0  0  0  0  0  0
    2.1914   16.4955    0.9350 H   0  0  0  0  0  0  0  0  0  0  0  0
    0.5662   17.2604    0.9350 H   0  0  0  0  0  0  0  0  0  0  0  0
  1  2  1  0
  2  3  1  0
  3  4  1  0
  4  5  1  0
  5  6  1  0
  6  7  1  0
  7  8  1  0
  7  9  1  0
  2 10  1  0
 10 11  1  0
 11 12  1  0
 12 13  1  0
 13 14  1  6
 13 15  1  0
 15 16  1  0
 16 17  1  0
 17 18  2  0
 18 19  1  0
 19 20  1  0
 20 21  1  0
 21 22  1  0
 22 23  1  0
 22 24  1  0
 24 25  1  0
 24 26  1  0
 19 27  1  0
 27 28  1  1
 27 29  1  0
 29 30  1  0
 30 31  1  0
 31 32  1  1
  7  5  1  0
 31 10  1  0
 31 13  1  0
 27 15  1  0
 24 18  1  0
  1 33  1  0
  1 34  1  0
  1 35  1  0
  2 36  1  1
  3 37  1  0
  3 38  1  0
  4 39  1  0
  4 40  1  0
  5 41  1  6
  8 42  1  0
  8 43  1  0
  8 44  1  0
  9 45  1  0
  9 46  1  0
  9 47  1  0
 10 48  1  6
 11 49  1  0
 11 50  1  0
 12 51  1  0
 12 52  1  0
 14 53  1  0
 14 54  1  0
 14 55  1  0
 15 56  1  1
 16 57  1  0
 16 58  1  0
 17 59  1  0
 19 60  1  6
 20 61  1  0
 20 62  1  0
 21 63  1  0
 21 64  1  0
 22 65  1  6
 23 66  1  0
 25 67  1  0
 25 68  1  0
 25 69  1  0
 26 70  1  0
 26 71  1  0
 26 72  1  0
 28 73  1  0
 28 74  1  0
 28 75  1  0
 29 76  1  0
 29 77  1  0
 30 78  1  0
 30 79  1  0
 32 80  1  0
 32 81  1  0
 32 82  1  0
M  END
>  <meeko>  (7) 
{"is_sidechain": [false], "intermolecular_energy": 2.731, "internal_energy": -0.839}

$$$$
EPH_relaxed_0001_pdb2pqr_Repair_180_r2_0001_out
     RDKit          3D

 82 86  0  0  0  0  0  0  0  0999 V2000
   -0.6170   18.2160   -0.3200 C   0  0  0  0  0  0  0  0  0  0  0  0
    0.6200   17.5140   -0.8870 C   0  0  2  0  0  0  0  0  0  0  0  0
    1.3520   18.3790   -1.9320 C   0  0  0  0  0  0  0  0  0  0  0  0
    2.2370   19.4680   -1.3190 C   0  0  0  0  0  0  0  0  0  0  0  0
    3.2270   18.8970   -0.3490 C   0  0  2  0  0  0  0  0  0  0  0  0
    2.6640   18.0200    0.6350 O   0  0  0  0  0  0  0  0  0  0  0  0
    3.2430   19.2390    1.1290 C   0  0  0  0  0  0  0  0  0  0  0  0
    2.2490   20.1880    1.7210 C   0  0  0  0  0  0  0  0  0  0  0  0
    4.5110   19.0350    1.8970 C   0  0  0  0  0  0  0  0  0  0  0  0
    0.2220   16.1780   -1.5030 C   0  0  1  0  0  0  0  0  0  0  0  0
    0.3790   16.1620   -3.0470 C   0  0  0  0  0  0  0  0  0  0  0  0
    0.8240   14.7280   -3.4360 C   0  0  0  0  0  0  0  0  0  0  0  0
    0.5880   13.8870   -2.1610 C   0  0  1  0  0  0  0  0  0  0  0  0
   -0.9370   13.5530   -2.1760 C   0  0  0  0  0  0  0  0  0  0  0  0
    1.4590   12.5970   -2.0130 C   0  0  2  0  0  0  0  0  0  0  0  0
    1.2410   11.5340   -3.1040 C   0  0  0  0  0  0  0  0  0  0  0  0
    0.1890   10.5180   -2.8030 C   0  0  0  0  0  0  0  0  0  0  0  0
   -0.3520   10.2880   -1.5920 C   0  0  0  0  0  0  0  0  0  0  0  0
    0.1620   11.0210   -0.3470 C   0  0  1  0  0  0  0  0  0  0  0  0
    0.3640   10.0040    0.8070 C   0  0  0  0  0  0  0  0  0  0  0  0
   -0.8900    9.1830    1.0900 C   0  0  0  0  0  0  0  0  0  0  0  0
   -1.3360    8.4230   -0.1560 C   0  0  2  0  0  0  0  0  0  0  0  0
   -0.3520    7.4330   -0.4700 O   0  0  0  0  0  0  0  0  0  0  0  0
   -1.5630    9.3430   -1.3880 C   0  0  0  0  0  0  0  0  0  0  0  0
   -2.8250   10.2120   -1.1640 C   0  0  0  0  0  0  0  0  0  0  0  0
   -1.8710    8.4380   -2.6110 C   0  0  0  0  0  0  0  0  0  0  0  0
    1.4290   11.9560   -0.5670 C   0  0  1  0  0  0  0  0  0  0  0  0
    2.7370   11.1200   -0.4220 C   0  0  0  0  0  0  0  0  0  0  0  0
    1.4680   13.0440    0.5710 C   0  0  0  0  0  0  0  0  0  0  0  0
    0.6850   14.3450    0.3150 C   0  0  0  0  0  0  0  0  0  0  0  0
    1.0210   14.9250   -1.0620 C   0  0  2  0  0  0  0  0  0  0  0  0
    2.5440   15.2910   -1.0700 C   0  0  0  0  0  0  0  0  0  0  0  0
   -0.5792   18.1946    0.7791 H   0  0  0  0  0  0  0  0  0  0  0  0
   -0.6369   19.2600   -0.6659 H   0  0  0  0  0  0  0  0  0  0  0  0
   -1.5235   17.6978   -0.6659 H   0  0  0  0  0  0  0  0  0  0  0  0
    1.3166   17.3463   -0.0524 H   0  0  0  0  0  0  0  0  0  0  0  0
    1.9854   17.7211   -2.5451 H   0  0  0  0  0  0  0  0  0  0  0  0
    0.5789   18.8893   -2.5252 H   0  0  0  0  0  0  0  0  0  0  0  0
    2.7826   19.9798   -2.1254 H   0  0  0  0  0  0  0  0  0  0  0  0
    1.5889   20.1702   -0.7741 H   0  0  0  0  0  0  0  0  0  0  0  0
    4.0157   18.9012   -1.1157 H   0  0  0  0  0  0  0  0  0  0  0  0
    2.3022   20.1372    2.8185 H   0  0  0  0  0  0  0  0  0  0  0  0
    2.4773   21.2118    1.3898 H   0  0  0  0  0  0  0  0  0  0  0  0
    1.2368   19.9126    1.3898 H   0  0  0  0  0  0  0  0  0  0  0  0
    4.2962   19.0696    2.9753 H   0  0  0  0  0  0  0  0  0  0  0  0
    4.9418   18.0560    1.6401 H   0  0  0  0  0  0  0  0  0  0  0  0
    5.2271   19.8295    1.6401 H   0  0  0  0  0  0  0  0  0  0  0  0
   -0.8146   16.1095   -1.1414 H   0  0  0  0  0  0  0  0  0  0  0  0
   -0.5801   16.4047   -3.5279 H   0  0  0  0  0  0  0  0  0  0  0  0
    1.1170   16.9080   -3.3770 H   0  0  0  0  0  0  0  0  0  0  0  0
    0.2177   14.3463   -4.2707 H   0  0  0  0  0  0  0  0  0  0  0  0
    1.8712   14.6927   -3.7710 H   0  0  0  0  0  0  0  0  0  0  0  0
   -1.3049   13.4724   -1.1425 H   0  0  0  0  0  0  0  0  0  0  0  0
   -1.4824   14.3530   -2.6980 H   0  0  0  0  0  0  0  0  0  0  0  0
   -1.0981   12.5983   -2.6980 H   0  0  0  0  0  0  0  0  0  0  0  0
    2.4776   12.9816   -2.1696 H   0  0  0  0  0  0  0  0  0  0  0  0
    0.9574   12.0523   -4.0319 H   0  0  0  0  0  0  0  0  0  0  0  0
    2.1873   10.9786   -3.1814 H   0  0  0  0  0  0  0  0  0  0  0  0
   -0.1746    9.9059   -3.6415 H   0  0  0  0  0  0  0  0  0  0  0  0
   -0.6215   11.7431   -0.0738 H   0  0  0  0  0  0  0  0  0  0  0  0
    1.1799    9.3186    0.5341 H   0  0  0  0  0  0  0  0  0  0  0  0
    0.6016   10.5747    1.7169 H   0  0  0  0  0  0  0  0  0  0  0  0
   -0.6754    8.4630    1.8935 H   0  0  0  0  0  0  0  0  0  0  0  0
   -1.6969    9.8667    1.3923 H   0  0  0  0  0  0  0  0  0  0  0  0
   -2.3072    7.9595    0.0719 H   0  0  0  0  0  0  0  0  0  0  0  0
   -0.2370    7.4270   -1.4350 H   0  0  0  0  0  0  0  0  0  0  0  0
   -3.0003   10.3327   -0.0848 H   0  0  0  0  0  0  0  0  0  0  0  0
   -2.6762   11.2000   -1.6241 H   0  0  0  0  0  0  0  0  0  0  0  0
   -3.6950    9.7206   -1.6241 H   0  0  0  0  0  0  0  0  0  0  0  0
   -2.2070    7.4507   -2.2612 H   0  0  0  0  0  0  0  0  0  0  0  0
   -2.6624    8.9004   -3.2192 H   0  0  0  0  0  0  0  0  0  0  0  0
   -0.9619    8.3216   -3.2192 H   0  0  0  0  0  0  0  0  0  0  0  0
    2.9633   10.9753    0.6447 H   0  0  0  0  0  0  0  0  0  0  0  0
    2.6016   10.1406   -0.9042 H   0  0  0  0  0  0  0  0  0  0  0  0
    3.5689   11.6542   -0.9042 H   0  0  0  0  0  0  0  0  0  0  0  0
    1.0613   12.5851    1.4842 H   0  0  0  0  0  0  0  0  0  0  0  0
    2.5220   13.3512    0.6394 H   0  0  0  0  0  0  0  0  0  0  0  0
   -0.3930   14.1314    0.3622 H   0  0  0  0  0  0  0  0  0  0  0  0
    0.9658   15.0804    1.0834 H   0  0  0  0  0  0  0  0  0  0  0  0
    2.9057   15.3779   -0.0348 H   0  0  0  0  0  0  0  0  0  0  0  0
    3.1078   14.5028   -1.5904 H   0  0  0  0  0  0  0  0  0  0  0  0
    2.6881   16.2493   -1.5904 H   0  0  0  0  0  0  0  0  0  0  0  0
  1  2  1  0
  2  3  1  0
  3  4  1  0
  4  5  1  0
  5  6  1  0
  6  7  1  0
  7  8  1  0
  7  9  1  0
  2 10  1  0
 10 11  1  0
 11 12  1  0
 12 13  1  0
 13 14  1  1
 13 15  1  0
 15 16  1  0
 16 17  1  0
 17 18  2  0
 18 19  1  0
 19 20  1  0
 20 21  1  0
 21 22  1  0
 22 23  1  0
 22 24  1  0
 24 25  1  0
 24 26  1  0
 19 27  1  0
 27 28  1  1
 27 29  1  0
 29 30  1  0
 30 31  1  0
 31 32  1  1
  7  5  1  0
 31 10  1  0
 31 13  1  0
 27 15  1  0
 24 18  1  0
  1 33  1  0
  1 34  1  0
  1 35  1  0
  2 36  1  1
  3 37  1  0
  3 38  1  0
  4 39  1  0
  4 40  1  0
  5 41  1  6
  8 42  1  0
  8 43  1  0
  8 44  1  0
  9 45  1  0
  9 46  1  0
  9 47  1  0
 10 48  1  6
 11 49  1  0
 11 50  1  0
 12 51  1  0
 12 52  1  0
 14 53  1  0
 14 54  1  0
 14 55  1  0
 15 56  1  6
 16 57  1  0
 16 58  1  0
 17 59  1  0
 19 60  1  1
 20 61  1  0
 20 62  1  0
 21 63  1  0
 21 64  1  0
 22 65  1  1
 23 66  1  0
 25 67  1  0
 25 68  1  0
 25 69  1  0
 26 70  1  0
 26 71  1  0
 26 72  1  0
 28 73  1  0
 28 74  1  0
 28 75  1  0
 29 76  1  0
 29 77  1  0
 30 78  1  0
 30 79  1  0
 32 80  1  0
 32 81  1  0
 32 82  1  0
M  END
>  <meeko>  (8) 
{"is_sidechain": [false], "intermolecular_energy": 2.731, "internal_energy": -0.839}

$$$$
EPH_relaxed_0001_pdb2pqr_Repair_180_r2_0001_out
     RDKit          3D

 82 86  0  0  0  0  0  0  0  0999 V2000
    1.9660   18.2430   -2.6730 C   0  0  0  0  0  0  0  0  0  0  0  0
    0.9120   17.7060   -1.7000 C   0  0  2  0  0  0  0  0  0  0  0  0
    1.4390   17.6400   -0.2520 C   0  0  0  0  0  0  0  0  0  0  0  0
    1.1710   18.9110    0.5590 C   0  0  0  0  0  0  0  0  0  0  0  0
   -0.0030   19.6730    0.0230 C   0  0  2  0  0  0  0  0  0  0  0  0
   -0.8860   20.1940    1.0250 O   0  0  0  0  0  0  0  0  0  0  0  0
   -1.4380   19.1970    0.1500 C   0  0  0  0  0  0  0  0  0  0  0  0
   -1.7750   17.9090    0.8330 C   0  0  0  0  0  0  0  0  0  0  0  0
   -2.4570   19.7330   -0.8070 C   0  0  0  0  0  0  0  0  0  0  0  0
    0.4460   16.3260   -2.1480 C   0  0  1  0  0  0  0  0  0  0  0  0
    0.6060   16.1090   -3.6770 C   0  0  0  0  0  0  0  0  0  0  0  0
    0.9750   14.6170   -3.8800 C   0  0  0  0  0  0  0  0  0  0  0  0
    0.6930   13.9550   -2.5110 C   0  0  1  0  0  0  0  0  0  0  0  0
   -0.8480   13.7020   -2.4980 C   0  0  0  0  0  0  0  0  0  0  0  0
    1.4950   12.6500   -2.1960 C   0  0  2  0  0  0  0  0  0  0  0  0
    1.2230   11.4720   -3.1480 C   0  0  0  0  0  0  0  0  0  0  0  0
    0.1180   10.5580   -2.7320 C   0  0  0  0  0  0  0  0  0  0  0  0
   -0.4370   10.5090   -1.5070 C   0  0  0  0  0  0  0  0  0  0  0  0
    0.1120   11.3650   -0.3580 C   0  0  1  0  0  0  0  0  0  0  0  0
    0.2580   10.4910    0.9150 C   0  0  0  0  0  0  0  0  0  0  0  0
   -1.0390    9.7780    1.2870 C   0  0  0  0  0  0  0  0  0  0  0  0
   -1.5210    8.8920    0.1420 C   0  0  2  0  0  0  0  0  0  0  0  0
   -0.5890    7.8210   -0.0360 O   0  0  0  0  0  0  0  0  0  0  0  0
   -1.6960    9.6620   -1.1970 C   0  0  0  0  0  0  0  0  0  0  0  0
   -2.9110   10.6160   -1.0940 C   0  0  0  0  0  0  0  0  0  0  0  0
   -2.0490    8.6270   -2.3000 C   0  0  0  0  0  0  0  0  0  0  0  0
    1.4270   12.1970   -0.6810 C   0  0  1  0  0  0  0  0  0  0  0  0
    2.6890   11.3200   -0.4220 C   0  0  0  0  0  0  0  0  0  0  0  0
    1.5210   13.4160    0.3120 C   0  0  0  0  0  0  0  0  0  0  0  0
    0.8080   14.7140   -0.1120 C   0  0  0  0  0  0  0  0  0  0  0  0
    1.1770   15.0990   -1.5480 C   0  0  2  0  0  0  0  0  0  0  0  0
    2.7170   15.3810   -1.5870 C   0  0  0  0  0  0  0  0  0  0  0  0
    2.8053   18.6706   -2.1050 H   0  0  0  0  0  0  0  0  0  0  0  0
    2.3325   17.4217   -3.3064 H   0  0  0  0  0  0  0  0  0  0  0  0
    1.5171   19.0223   -3.3064 H   0  0  0  0  0  0  0  0  0  0  0  0
    0.0638   18.4063   -1.7112 H   0  0  0  0  0  0  0  0  0  0  0  0
    0.9525   16.7945    0.2565 H   0  0  0  0  0  0  0  0  0  0  0  0
    2.5309   17.5214   -0.3123 H   0  0  0  0  0  0  0  0  0  0  0  0
    0.9679   18.6314    1.6033 H   0  0  0  0  0  0  0  0  0  0  0  0
    2.0593   19.5560    0.4894 H   0  0  0  0  0  0  0  0  0  0  0  0
    0.5856   20.0198   -0.8392 H   0  0  0  0  0  0  0  0  0  0  0  0
   -1.7378   18.0514    1.9231 H   0  0  0  0  0  0  0  0  0  0  0  0
   -2.7864   17.5917    0.5390 H   0  0  0  0  0  0  0  0  0  0  0  0
   -1.0486   17.1371    0.5390 H   0  0  0  0  0  0  0  0  0  0  0  0
   -3.2933   20.1729   -0.2438 H   0  0  0  0  0  0  0  0  0  0  0  0
   -1.9951   20.5049   -1.4402 H   0  0  0  0  0  0  0  0  0  0  0  0
   -2.8313   18.9151   -1.4402 H   0  0  0  0  0  0  0  0  0  0  0  0
   -0.5936   16.3570   -1.7897 H   0  0  0  0  0  0  0  0  0  0  0  0
   -0.3376   16.3396   -4.1932 H   0  0  0  0  0  0  0  0  0  0  0  0
    1.3834   16.7683   -4.0906 H   0  0  0  0  0  0  0  0  0  0  0  0
    0.3506   14.1660   -4.6653 H   0  0  0  0  0  0  0  0  0  0  0  0
    2.0194   14.4855   -4.1994 H   0  0  0  0  0  0  0  0  0  0  0  0
   -1.2013   13.6440   -1.4579 H   0  0  0  0  0  0  0  0  0  0  0  0
   -1.3596   14.5282   -3.0135 H   0  0  0  0  0  0  0  0  0  0  0  0
   -1.0686   12.7556   -3.0135 H   0  0  0  0  0  0  0  0  0  0  0  0
    2.5330   12.9578   -2.3903 H   0  0  0  0  0  0  0  0  0  0  0  0
    0.9692   11.8847   -4.1356 H   0  0  0  0  0  0  0  0  0  0  0  0
    2.1387   10.8625   -3.1474 H   0  0  0  0  0  0  0  0  0  0  0  0
   -0.2757    9.8661   -3.4911 H   0  0  0  0  0  0  0  0  0  0  0  0
   -0.6332   12.1553   -0.1844 H   0  0  0  0  0  0  0  0  0  0  0  0
    1.0372    9.7353    0.7365 H   0  0  0  0  0  0  0  0  0  0  0  0
    0.5239   11.1573    1.7489 H   0  0  0  0  0  0  0  0  0  0  0  0
   -0.8649    9.1543    2.1762 H   0  0  0  0  0  0  0  0  0  0  0  0
   -1.8096   10.5353    1.4937 H   0  0  0  0  0  0  0  0  0  0  0  0
   -2.5158    8.5108    0.4160 H   0  0  0  0  0  0  0  0  0  0  0  0
   -0.0460    8.0300   -0.8150 H   0  0  0  0  0  0  0  0  0  0  0  0
   -3.1445   10.7993   -0.0348 H   0  0  0  0  0  0  0  0  0  0  0  0
   -2.6712   11.5697   -1.5870 H   0  0  0  0  0  0  0  0  0  0  0  0
   -3.7805   10.1568   -1.5870 H   0  0  0  0  0  0  0  0  0  0  0  0
   -2.3701    7.6856   -1.8302 H   0  0  0  0  0  0  0  0  0  0  0  0
   -2.8635    9.0211   -2.9255 H   0  0  0  0  0  0  0  0  0  0  0  0
   -1.1634    8.4413   -2.9255 H   0  0  0  0  0  0  0  0  0  0  0  0
    2.8444   11.2120    0.6616 H   0  0  0  0  0  0  0  0  0  0  0  0
    2.5441   10.3269   -0.8724 H   0  0  0  0  0  0  0  0  0  0  0  0
    3.5692   11.8020   -0.8724 H   0  0  0  0  0  0  0  0  0  0  0  0
    1.0888   13.0973    1.2720 H   0  0  0  0  0  0  0  0  0  0  0  0
    2.5896   13.6741    0.3505 H   0  0  0  0  0  0  0  0  0  0  0  0
   -0.2799   14.5643   -0.0480 H   0  0  0  0  0  0  0  0  0  0  0  0
    1.1257   15.5242    0.5607 H   0  0  0  0  0  0  0  0  0  0  0  0
    3.1030   15.4517   -0.5594 H   0  0  0  0  0  0  0  0  0  0  0  0
    3.2266   14.5612   -2.1145 H   0  0  0  0  0  0  0  0  0  0  0  0
    2.9031   16.3282   -2.1145 H   0  0  0  0  0  0  0  0  0  0  0  0
  1  2  1  0
  2  3  1  0
  3  4  1  0
  4  5  1  0
  5  6  1  0
  6  7  1  0
  7  8  1  0
  7  9  1  0
  2 10  1  0
 10 11  1  0
 11 12  1  0
 12 13  1  0
 13 14  1  6
 13 15  1  0
 15 16  1  0
 16 17  1  0
 17 18  2  0
 18 19  1  0
 19 20  1  0
 20 21  1  0
 21 22  1  0
 22 23  1  0
 22 24  1  0
 24 25  1  0
 24 26  1  0
 19 27  1  0
 27 28  1  1
 27 29  1  0
 29 30  1  0
 30 31  1  0
 31 32  1  1
  7  5  1  0
 31 10  1  0
 31 13  1  0
 27 15  1  0
 24 18  1  0
  1 33  1  0
  1 34  1  0
  1 35  1  0
  2 36  1  1
  3 37  1  0
  3 38  1  0
  4 39  1  0
  4 40  1  0
  5 41  1  6
  8 42  1  0
  8 43  1  0
  8 44  1  0
  9 45  1  0
  9 46  1  0
  9 47  1  0
 10 48  1  6
 11 49  1  0
 11 50  1  0
 12 51  1  0
 12 52  1  0
 14 53  1  0
 14 54  1  0
 14 55  1  0
 15 56  1  6
 16 57  1  0
 16 58  1  0
 17 59  1  0
 19 60  1  1
 20 61  1  0
 20 62  1  0
 21 63  1  0
 21 64  1  0
 22 65  1  1
 23 66  1  0
 25 67  1  0
 25 68  1  0
 25 69  1  0
 26 70  1  0
 26 71  1  0
 26 72  1  0
 28 73  1  0
 28 74  1  0
 28 75  1  0
 29 76  1  0
 29 77  1  0
 30 78  1  0
 30 79  1  0
 32 80  1  0
 32 81  1  0
 32 82  1  0
M  END
>  <meeko>  (9) 
{"is_sidechain": [false], "intermolecular_energy": 2.731, "internal_energy": -0.839}

$$$$
EPH_relaxed_0001_pdb2pqr_Repair_180_r2_0001_out
     RDKit          3D

 82 86  0  0  0  0  0  0  0  0999 V2000
    0.6410   18.3870   -2.7160 C   0  0  0  0  0  0  0  0  0  0  0  0
    0.8930   17.6810   -1.3800 C   0  0  2  0  0  0  0  0  0  0  0  0
    1.9910   18.3780   -0.5530 C   0  0  0  0  0  0  0  0  0  0  0  0
    1.4590   19.1230    0.6740 C   0  0  0  0  0  0  0  0  0  0  0  0
    0.2560   19.9530    0.3400 C   0  0  2  0  0  0  0  0  0  0  0  0
   -0.6330   20.1890    1.4400 O   0  0  0  0  0  0  0  0  0  0  0  0
   -1.1620   19.4130    0.3520 C   0  0  0  0  0  0  0  0  0  0  0  0
   -1.4520   17.9880    0.7050 C   0  0  0  0  0  0  0  0  0  0  0  0
   -2.2070   20.1290   -0.4460 C   0  0  0  0  0  0  0  0  0  0  0  0
    1.2700   16.2250   -1.6250 C   0  0  1  0  0  0  0  0  0  0  0  0
    2.7980   16.0260   -1.8070 C   0  0  0  0  0  0  0  0  0  0  0  0
    3.1490   14.6530   -1.1790 C   0  0  0  0  0  0  0  0  0  0  0  0
    1.7810   13.9650   -0.9580 C   0  0  1  0  0  0  0  0  0  0  0  0
    1.4010   13.3720   -2.3510 C   0  0  0  0  0  0  0  0  0  0  0  0
    1.7280   12.8790    0.1660 C   0  0  2  0  0  0  0  0  0  0  0  0
    2.6310   11.6560   -0.0650 C   0  0  0  0  0  0  0  0  0  0  0  0
    1.9960   10.5230   -0.8010 C   0  0  0  0  0  0  0  0  0  0  0  0
    0.6750   10.3690   -1.0090 C   0  0  0  0  0  0  0  0  0  0  0  0
   -0.3380   11.3440   -0.3950 C   0  0  1  0  0  0  0  0  0  0  0  0
   -1.4990   10.5450    0.2530 C   0  0  0  0  0  0  0  0  0  0  0  0
   -2.1480    9.5640   -0.7190 C   0  0  0  0  0  0  0  0  0  0  0  0
   -1.1210    8.5740   -1.2630 C   0  0  2  0  0  0  0  0  0  0  0  0
   -0.6740    7.7380   -0.1910 O   0  0  0  0  0  0  0  0  0  0  0  0
    0.1010    9.2650   -1.9310 C   0  0  0  0  0  0  0  0  0  0  0  0
   -0.3370    9.9230   -3.2630 C   0  0  0  0  0  0  0  0  0  0  0  0
    1.1250    8.1610   -2.3090 C   0  0  0  0  0  0  0  0  0  0  0  0
    0.2630   12.4460    0.5790 C   0  0  1  0  0  0  0  0  0  0  0  0
    0.3580   11.8790    2.0290 C   0  0  0  0  0  0  0  0  0  0  0  0
   -0.7270   13.6690    0.6450 C   0  0  0  0  0  0  0  0  0  0  0  0
   -0.5460   14.7670   -0.4200 C   0  0  0  0  0  0  0  0  0  0  0  0
    0.9190   15.2030   -0.5150 C   0  0  2  0  0  0  0  0  0  0  0  0
    1.3240   15.8240    0.8650 C   0  0  0  0  0  0  0  0  0  0  0  0
    0.2766   19.4078   -2.5283 H   0  0  0  0  0  0  0  0  0  0  0  0
    1.5786   18.4320   -3.2895 H   0  0  0  0  0  0  0  0  0  0  0  0
   -0.1132   17.8281   -3.2895 H   0  0  0  0  0  0  0  0  0  0  0  0
   -0.0393   17.7307   -0.7983 H   0  0  0  0  0  0  0  0  0  0  0  0
    2.7063   17.6148   -0.2125 H   0  0  0  0  0  0  0  0  0  0  0  0
    2.4577   19.1291   -1.2073 H   0  0  0  0  0  0  0  0  0  0  0  0
    1.1826   18.3886    1.4449 H   0  0  0  0  0  0  0  0  0  0  0  0
    2.2501   19.7959    1.0364 H   0  0  0  0  0  0  0  0  0  0  0  0
    0.8247   20.5163   -0.4145 H   0  0  0  0  0  0  0  0  0  0  0  0
   -1.4743   17.8786    1.7993 H   0  0  0  0  0  0  0  0  0  0  0  0
   -2.4276   17.6981    0.2876 H   0  0  0  0  0  0  0  0  0  0  0  0
   -0.6673   17.3399    0.2876 H   0  0  0  0  0  0  0  0  0  0  0  0
   -2.9189   20.6168    0.2361 H   0  0  0  0  0  0  0  0  0  0  0  0
   -1.7273   20.8890   -1.0802 H   0  0  0  0  0  0  0  0  0  0  0  0
   -2.7426   19.4072   -1.0802 H   0  0  0  0  0  0  0  0  0  0  0  0
    0.6664   16.0271   -2.5231 H   0  0  0  0  0  0  0  0  0  0  0  0
    3.0557   16.0302   -2.8764 H   0  0  0  0  0  0  0  0  0  0  0  0
    3.3620   16.8370   -1.3231 H   0  0  0  0  0  0  0  0  0  0  0  0
    3.7753   14.0616   -1.8631 H   0  0  0  0  0  0  0  0  0  0  0  0
    3.7209   14.7550   -0.2449 H   0  0  0  0  0  0  0  0  0  0  0  0
    0.8124   12.4535   -2.2103 H   0  0  0  0  0  0  0  0  0  0  0  0
    0.8052   14.1069   -2.9122 H   0  0  0  0  0  0  0  0  0  0  0  0
    2.3176   13.1377   -2.9122 H   0  0  0  0  0  0  0  0  0  0  0  0
    2.1596   13.4097    1.0275 H   0  0  0  0  0  0  0  0  0  0  0  0
    3.5086   11.9856   -0.6405 H   0  0  0  0  0  0  0  0  0  0  0  0
    2.8788   11.2683    0.9341 H   0  0  0  0  0  0  0  0  0  0  0  0
    2.6636    9.7490   -1.2075 H   0  0  0  0  0  0  0  0  0  0  0  0
   -0.7220   11.9489   -1.2297 H   0  0  0  0  0  0  0  0  0  0  0  0
   -1.1036    9.9817    1.1111 H   0  0  0  0  0  0  0  0  0  0  0  0
   -2.2690   11.2669    0.5628 H   0  0  0  0  0  0  0  0  0  0  0  0
   -2.9403    9.0092   -0.1950 H   0  0  0  0  0  0  0  0  0  0  0  0
   -2.5687   10.1318   -1.5620 H   0  0  0  0  0  0  0  0  0  0  0  0
   -1.6155    7.9830   -2.0480 H   0  0  0  0  0  0  0  0  0  0  0  0
    0.2660    7.5420   -0.3430 H   0  0  0  0  0  0  0  0  0  0  0  0
   -0.9349   10.8212   -3.0491 H   0  0  0  0  0  0  0  0  0  0  0  0
    0.5541   10.2052   -3.8430 H   0  0  0  0  0  0  0  0  0  0  0  0
   -0.9412    9.2099   -3.8430 H   0  0  0  0  0  0  0  0  0  0  0  0
    1.5386    7.7151   -1.3924 H   0  0  0  0  0  0  0  0  0  0  0  0
    0.6225    7.3820   -2.9012 H   0  0  0  0  0  0  0  0  0  0  0  0
    1.9395    8.6036   -2.9012 H   0  0  0  0  0  0  0  0  0  0  0  0
    0.2210   12.6965    2.7521 H   0  0  0  0  0  0  0  0  0  0  0  0
   -0.4258   11.1219    2.1787 H   0  0  0  0  0  0  0  0  0  0  0  0
    1.3458   11.4187    2.1787 H   0  0  0  0  0  0  0  0  0  0  0  0
   -1.7494   13.2753    0.5467 H   0  0  0  0  0  0  0  0  0  0  0  0
   -0.5130   14.1612    1.6052 H   0  0  0  0  0  0  0  0  0  0  0  0
   -0.8696   14.3777   -1.3966 H   0  0  0  0  0  0  0  0  0  0  0  0
   -1.1530   15.6380   -0.1321 H   0  0  0  0  0  0  0  0  0  0  0  0
    0.9197   15.2041    1.6788 H   0  0  0  0  0  0  0  0  0  0  0  0
    2.4206   15.8613    0.9426 H   0  0  0  0  0  0  0  0  0  0  0  0
    0.9160   16.8426    0.9426 H   0  0  0  0  0  0  0  0  0  0  0  0
  1  2  1  0
  2  3  1  0
  3  4  1  0
  4  5  1  0
  5  6  1  0
  6  7  1  0
  7  8  1  0
  7  9  1  0
  2 10  1  0
 10 11  1  0
 11 12  1  0
 12 13  1  0
 13 14  1  6
 13 15  1  0
 15 16  1  0
 16 17  1  0
 17 18  2  0
 18 19  1  0
 19 20  1  0
 20 21  1  0
 21 22  1  0
 22 23  1  0
 22 24  1  0
 24 25  1  0
 24 26  1  0
 19 27  1  0
 27 28  1  1
 27 29  1  0
 29 30  1  0
 30 31  1  0
 31 32  1  1
  7  5  1  0
 31 10  1  0
 31 13  1  0
 27 15  1  0
 24 18  1  0
  1 33  1  0
  1 34  1  0
  1 35  1  0
  2 36  1  1
  3 37  1  0
  3 38  1  0
  4 39  1  0
  4 40  1  0
  5 41  1  6
  8 42  1  0
  8 43  1  0
  8 44  1  0
  9 45  1  0
  9 46  1  0
  9 47  1  0
 10 48  1  6
 11 49  1  0
 11 50  1  0
 12 51  1  0
 12 52  1  0
 14 53  1  0
 14 54  1  0
 14 55  1  0
 15 56  1  1
 16 57  1  0
 16 58  1  0
 17 59  1  0
 19 60  1  6
 20 61  1  0
 20 62  1  0
 21 63  1  0
 21 64  1  0
 22 65  1  6
 23 66  1  0
 25 67  1  0
 25 68  1  0
 25 69  1  0
 26 70  1  0
 26 71  1  0
 26 72  1  0
 28 73  1  0
 28 74  1  0
 28 75  1  0
 29 76  1  0
 29 77  1  0
 30 78  1  0
 30 79  1  0
 32 80  1  0
 32 81  1  0
 32 82  1  0
M  END
>  <meeko>  (10) 
{"is_sidechain": [false], "intermolecular_energy": 2.731, "internal_energy": -0.839}

$$$$
EPH_relaxed_0001_pdb2pqr_Repair_180_r2_0001_out
     RDKit          3D

 82 86  0  0  0  0  0  0  0  0999 V2000
  -14.1740    5.4490    0.5100 C   0  0  0  0  0  0  0  0  0  0  0  0
  -13.7120    6.8900    0.2720 C   0  0  2  0  0  0  0  0  0  0  0  0
  -14.8820    7.8210   -0.1030 C   0  0  0  0  0  0  0  0  0  0  0  0
  -14.6030    9.3010    0.1700 C   0  0  0  0  0  0  0  0  0  0  0  0
  -15.2820   10.1870   -0.8300 C   0  0  2  0  0  0  0  0  0  0  0  0
  -15.0110    9.8620   -2.2000 O   0  0  0  0  0  0  0  0  0  0  0  0
  -14.5370   11.1400   -1.7460 C   0  0  0  0  0  0  0  0  0  0  0  0
  -13.0460   11.2560   -1.7040 C   0  0  0  0  0  0  0  0  0  0  0  0
  -15.2810   12.3010   -2.3290 C   0  0  0  0  0  0  0  0  0  0  0  0
  -12.6500    6.9210   -0.8210 C   0  0  1  0  0  0  0  0  0  0  0  0
  -13.0170    7.8820   -1.9830 C   0  0  0  0  0  0  0  0  0  0  0  0
  -11.6880    8.5050   -2.4850 C   0  0  0  0  0  0  0  0  0  0  0  0
  -10.5830    7.6440   -1.8300 C   0  0  1  0  0  0  0  0  0  0  0  0
  -10.4750    6.3750   -2.7330 C   0  0  0  0  0  0  0  0  0  0  0  0
   -9.1930    8.3340   -1.6370 C   0  0  2  0  0  0  0  0  0  0  0  0
   -8.4920    8.7640   -2.9370 C   0  0  0  0  0  0  0  0  0  0  0  0
   -7.5860    7.7420   -3.5410 C   0  0  0  0  0  0  0  0  0  0  0  0
   -7.1220    6.6420   -2.9190 C   0  0  0  0  0  0  0  0  0  0  0  0
   -7.4290    6.3880   -1.4370 C   0  0  1  0  0  0  0  0  0  0  0  0
   -6.1280    5.9660   -0.7050 C   0  0  0  0  0  0  0  0  0  0  0  0
   -5.4400    4.7790   -1.3710 C   0  0  0  0  0  0  0  0  0  0  0  0
   -5.0990    5.0920   -2.8250 C   0  0  2  0  0  0  0  0  0  0  0  0
   -4.1010    6.1170   -2.8550 O   0  0  0  0  0  0  0  0  0  0  0  0
   -6.3310    5.5370   -3.6610 C   0  0  0  0  0  0  0  0  0  0  0  0
   -7.2750    4.3290   -3.8820 C   0  0  0  0  0  0  0  0  0  0  0  0
   -5.8270    5.9580   -5.0680 C   0  0  0  0  0  0  0  0  0  0  0  0
   -8.2070    7.5490   -0.6810 C   0  0  1  0  0  0  0  0  0  0  0  0
   -7.1930    8.5970   -0.1290 C   0  0  0  0  0  0  0  0  0  0  0  0
   -8.9440    6.9430    0.5720 C   0  0  0  0  0  0  0  0  0  0  0  0
  -10.3610    6.3850    0.3410 C   0  0  0  0  0  0  0  0  0  0  0  0
  -11.2290    7.3910   -0.4200 C   0  0  2  0  0  0  0  0  0  0  0  0
  -11.3740    8.6700    0.4740 C   0  0  0  0  0  0  0  0  0  0  0  0
  -14.2354    5.2575    1.5915 H   0  0  0  0  0  0  0  0  0  0  0  0
  -15.1644    5.3016    0.0547 H   0  0  0  0  0  0  0  0  0  0  0  0
  -13.4539    4.7532    0.0547 H   0  0  0  0  0  0  0  0  0  0  0  0
  -13.2854    7.2609    1.2156 H   0  0  0  0  0  0  0  0  0  0  0  0
  -15.0923    7.6995   -1.1758 H   0  0  0  0  0  0  0  0  0  0  0  0
  -15.7362    7.5334    0.5276 H   0  0  0  0  0  0  0  0  0  0  0  0
  -14.9692    9.5531    1.1762 H   0  0  0  0  0  0  0  0  0  0  0  0
  -13.5181    9.4653    0.0926 H   0  0  0  0  0  0  0  0  0  0  0  0
  -16.1390   10.3305   -0.1554 H   0  0  0  0  0  0  0  0  0  0  0  0
  -12.7096   11.2822   -0.6570 H   0  0  0  0  0  0  0  0  0  0  0  0
  -12.5964   10.3901   -2.2120 H   0  0  0  0  0  0  0  0  0  0  0  0
  -12.7357   12.1810   -2.2120 H   0  0  0  0  0  0  0  0  0  0  0  0
  -15.6811   12.9254   -1.5166 H   0  0  0  0  0  0  0  0  0  0  0  0
  -14.5981   12.8999   -2.9494 H   0  0  0  0  0  0  0  0  0  0  0  0
  -16.1105   11.9307   -2.9494 H   0  0  0  0  0  0  0  0  0  0  0  0
  -12.6309    5.8544   -1.0895 H   0  0  0  0  0  0  0  0  0  0  0  0
  -13.5049    7.3244   -2.7960 H   0  0  0  0  0  0  0  0  0  0  0  0
  -13.7159    8.6614   -1.6452 H   0  0  0  0  0  0  0  0  0  0  0  0
  -11.6235    8.4511   -3.5818 H   0  0  0  0  0  0  0  0  0  0  0  0
  -11.5997    9.5692   -2.2210 H   0  0  0  0  0  0  0  0  0  0  0  0
  -10.3988    5.4793   -2.0991 H   0  0  0  0  0  0  0  0  0  0  0  0
  -11.3700    6.2996   -3.3681 H   0  0  0  0  0  0  0  0  0  0  0  0
   -9.5802    6.4520   -3.3681 H   0  0  0  0  0  0  0  0  0  0  0  0
   -9.4627    9.2670   -1.1206 H   0  0  0  0  0  0  0  0  0  0  0  0
   -9.2683    9.0096   -3.6766 H   0  0  0  0  0  0  0  0  0  0  0  0
   -7.8523    9.6180   -2.6698 H   0  0  0  0  0  0  0  0  0  0  0  0
   -7.2710    7.9016   -4.5828 H   0  0  0  0  0  0  0  0  0  0  0  0
   -8.1554    5.5623   -1.4131 H   0  0  0  0  0  0  0  0  0  0  0  0
   -5.4335    6.8190   -0.7007 H   0  0  0  0  0  0  0  0  0  0  0  0
   -6.4032    5.6623    0.3158 H   0  0  0  0  0  0  0  0  0  0  0  0
   -4.5132    4.5476   -0.8256 H   0  0  0  0  0  0  0  0  0  0  0  0
   -6.1246    3.9183   -1.3483 H   0  0  0  0  0  0  0  0  0  0  0  0
   -4.7278    4.1636   -3.2836 H   0  0  0  0  0  0  0  0  0  0  0  0
   -3.9740    6.4300   -1.9430 H   0  0  0  0  0  0  0  0  0  0  0  0
   -7.5896    3.9265   -2.9078 H   0  0  0  0  0  0  0  0  0  0  0  0
   -8.1606    4.6544   -4.4476 H   0  0  0  0  0  0  0  0  0  0  0  0
   -6.7452    3.5483   -4.4476 H   0  0  0  0  0  0  0  0  0  0  0  0
   -4.9867    6.6599   -4.9616 H   0  0  0  0  0  0  0  0  0  0  0  0
   -5.4928    5.0669   -5.6196 H   0  0  0  0  0  0  0  0  0  0  0  0
   -6.6444    6.4455   -5.6196 H   0  0  0  0  0  0  0  0  0  0  0  0
   -7.2099    8.5796    0.9707 H   0  0  0  0  0  0  0  0  0  0  0  0
   -6.1814    8.3509   -0.4842 H   0  0  0  0  0  0  0  0  0  0  0  0
   -7.4724    9.5999   -0.4842 H   0  0  0  0  0  0  0  0  0  0  0  0
   -8.3222    6.1224    0.9593 H   0  0  0  0  0  0  0  0  0  0  0  0
   -9.0763    7.7873    1.2646 H   0  0  0  0  0  0  0  0  0  0  0  0
  -10.2909    5.4557   -0.2434 H   0  0  0  0  0  0  0  0  0  0  0  0
  -10.8252    6.1907    1.3192 H   0  0  0  0  0  0  0  0  0  0  0  0
  -11.3413    8.3814    1.5350 H   0  0  0  0  0  0  0  0  0  0  0  0
  -10.5488    9.3643    0.2573 H   0  0  0  0  0  0  0  0  0  0  0  0
  -12.3337    9.1620    0.2573 H   0  0  0  0  0  0  0  0  0  0  0  0
  1  2  1  0
  2  3  1  0
  3  4  1  0
  4  5  1  0
  5  6  1  0
  6  7  1  0
  7  8  1  0
  7  9  1  0
  2 10  1  0
 10 11  1  0
 11 12  1  0
 12 13  1  0
 13 14  1  6
 13 15  1  0
 15 16  1  0
 16 17  1  0
 17 18  2  0
 18 19  1  0
 19 20  1  0
 20 21  1  0
 21 22  1  0
 22 23  1  0
 22 24  1  0
 24 25  1  0
 24 26  1  0
 19 27  1  0
 27 28  1  1
 27 29  1  0
 29 30  1  0
 30 31  1  0
 31 32  1  1
  7  5  1  0
 31 10  1  0
 31 13  1  0
 27 15  1  0
 24 18  1  0
  1 33  1  0
  1 34  1  0
  1 35  1  0
  2 36  1  1
  3 37  1  0
  3 38  1  0
  4 39  1  0
  4 40  1  0
  5 41  1  6
  8 42  1  0
  8 43  1  0
  8 44  1  0
  9 45  1  0
  9 46  1  0
  9 47  1  0
 10 48  1  6
 11 49  1  0
 11 50  1  0
 12 51  1  0
 12 52  1  0
 14 53  1  0
 14 54  1  0
 14 55  1  0
 15 56  1  1
 16 57  1  0
 16 58  1  0
 17 59  1  0
 19 60  1  6
 20 61  1  0
 20 62  1  0
 21 63  1  0
 21 64  1  0
 22 65  1  6
 23 66  1  0
 25 67  1  0
 25 68  1  0
 25 69  1  0
 26 70  1  0
 26 71  1  0
 26 72  1  0
 28 73  1  0
 28 74  1  0
 28 75  1  0
 29 76  1  0
 29 77  1  0
 30 78  1  0
 30 79  1  0
 32 80  1  0
 32 81  1  0
 32 82  1  0
M  END
>  <meeko>  (11) 
{"is_sidechain": [false], "intermolecular_energy": 2.731, "internal_energy": -0.839}

$$$$
EPH_relaxed_0001_pdb2pqr_Repair_180_r2_0001_out
     RDKit          3D

 82 86  0  0  0  0  0  0  0  0999 V2000
    0.6800    8.0680   -2.4070 C   0  0  0  0  0  0  0  0  0  0  0  0
   -0.7410    8.3880   -1.9360 C   0  0  2  0  0  0  0  0  0  0  0  0
   -1.8110    7.7950   -2.8740 C   0  0  0  0  0  0  0  0  0  0  0  0
   -3.0940    7.3710   -2.1530 C   0  0  0  0  0  0  0  0  0  0  0  0
   -4.0260    6.6350   -3.0670 C   0  0  2  0  0  0  0  0  0  0  0  0
   -4.8620    7.4760   -3.8730 O   0  0  0  0  0  0  0  0  0  0  0  0
   -5.5360    6.6490   -2.9110 C   0  0  0  0  0  0  0  0  0  0  0  0
   -6.1990    7.4140   -1.8080 C   0  0  0  0  0  0  0  0  0  0  0  0
   -6.3290    5.5360   -3.5220 C   0  0  0  0  0  0  0  0  0  0  0  0
   -0.9240    9.8980   -1.8260 C   0  0  1  0  0  0  0  0  0  0  0  0
   -2.3820   10.2990   -1.4770 C   0  0  0  0  0  0  0  0  0  0  0  0
   -2.2960   11.5540   -0.5710 C   0  0  0  0  0  0  0  0  0  0  0  0
   -0.8290   12.0270   -0.6990 C   0  0  1  0  0  0  0  0  0  0  0  0
   -0.7830   12.8330   -2.0350 C   0  0  0  0  0  0  0  0  0  0  0  0
   -0.2650   12.8610    0.4970 C   0  0  2  0  0  0  0  0  0  0  0  0
   -0.9780   14.2000    0.7540 C   0  0  0  0  0  0  0  0  0  0  0  0
   -0.4070   15.3750    0.0310 C   0  0  0  0  0  0  0  0  0  0  0  0
    0.8000   15.4170   -0.5630 C   0  0  0  0  0  0  0  0  0  0  0  0
    1.7700   14.2330   -0.4600 C   0  0  1  0  0  0  0  0  0  0  0  0
    3.1880   14.7550   -0.1060 C   0  0  0  0  0  0  0  0  0  0  0  0
    3.6760   15.8270   -1.0750 C   0  0  0  0  0  0  0  0  0  0  0  0
    2.7150   17.0130   -1.1070 C   0  0  2  0  0  0  0  0  0  0  0  0
    2.7510   17.6690    0.1640 O   0  0  0  0  0  0  0  0  0  0  0  0
    1.2520   16.6080   -1.4440 C   0  0  0  0  0  0  0  0  0  0  0  0
    1.1610   16.1760   -2.9280 C   0  0  0  0  0  0  0  0  0  0  0  0
    0.3620   17.8720   -1.3040 C   0  0  0  0  0  0  0  0  0  0  0  0
    1.3080   13.0380    0.4790 C   0  0  1  0  0  0  0  0  0  0  0  0
    1.7410   13.3190    1.9510 C   0  0  0  0  0  0  0  0  0  0  0  0
    2.0530   11.7220    0.0410 C   0  0  0  0  0  0  0  0  0  0  0  0
    1.3840   10.8790   -1.0620 C   0  0  0  0  0  0  0  0  0  0  0  0
   -0.0950   10.6380   -0.7470 C   0  0  2  0  0  0  0  0  0  0  0  0
   -0.1720    9.8100    0.5810 C   0  0  0  0  0  0  0  0  0  0  0  0
    1.3316    7.9213   -1.5330 H   0  0  0  0  0  0  0  0  0  0  0  0
    0.6674    7.1502   -3.0132 H   0  0  0  0  0  0  0  0  0  0  0  0
    1.0620    8.9026   -3.0132 H   0  0  0  0  0  0  0  0  0  0  0  0
   -0.8747    7.9238   -0.9477 H   0  0  0  0  0  0  0  0  0  0  0  0
   -2.0704    8.5527   -3.6280 H   0  0  0  0  0  0  0  0  0  0  0  0
   -1.3790    6.8881   -3.3222 H   0  0  0  0  0  0  0  0  0  0  0  0
   -2.8293    6.7153   -1.3104 H   0  0  0  0  0  0  0  0  0  0  0  0
   -3.6053    8.2789   -1.8005 H   0  0  0  0  0  0  0  0  0  0  0  0
   -3.3035    5.8134   -3.1808 H   0  0  0  0  0  0  0  0  0  0  0  0
   -5.8610    7.0240   -0.8366 H   0  0  0  0  0  0  0  0  0  0  0  0
   -5.9329    8.4783   -1.8885 H   0  0  0  0  0  0  0  0  0  0  0  0
   -7.2903    7.3018   -1.8885 H   0  0  0  0  0  0  0  0  0  0  0  0
   -6.7689    4.9186   -2.7249 H   0  0  0  0  0  0  0  0  0  0  0  0
   -7.1319    5.9569   -4.1450 H   0  0  0  0  0  0  0  0  0  0  0  0
   -5.6690    4.9146   -4.1450 H   0  0  0  0  0  0  0  0  0  0  0  0
   -0.5881   10.1981   -2.8296 H   0  0  0  0  0  0  0  0  0  0  0  0
   -2.9408   10.5323   -2.3953 H   0  0  0  0  0  0  0  0  0  0  0  0
   -2.9058    9.4779   -0.9657 H   0  0  0  0  0  0  0  0  0  0  0  0
   -2.9877   12.3342   -0.9215 H   0  0  0  0  0  0  0  0  0  0  0  0
   -2.5752   11.3368    0.4706 H   0  0  0  0  0  0  0  0  0  0  0  0
   -0.7216   13.9085   -1.8125 H   0  0  0  0  0  0  0  0  0  0  0  0
    0.0992   12.5281   -2.6170 H   0  0  0  0  0  0  0  0  0  0  0  0
   -1.6942   12.6304   -2.6170 H   0  0  0  0  0  0  0  0  0  0  0  0
   -0.5054   12.2246    1.3614 H   0  0  0  0  0  0  0  0  0  0  0  0
   -2.0287   14.0900    0.4476 H   0  0  0  0  0  0  0  0  0  0  0  0
   -0.8519   14.4114    1.8261 H   0  0  0  0  0  0  0  0  0  0  0  0
   -1.0253   16.2834   -0.0205 H   0  0  0  0  0  0  0  0  0  0  0  0
    1.7825   13.7626   -1.4543 H   0  0  0  0  0  0  0  0  0  0  0  0
    3.1639   15.1809    0.9079 H   0  0  0  0  0  0  0  0  0  0  0  0
    3.8826   13.9046   -0.1718 H   0  0  0  0  0  0  0  0  0  0  0  0
    4.6686   16.1766   -0.7547 H   0  0  0  0  0  0  0  0  0  0  0  0
    3.7284   15.3907   -2.0834 H   0  0  0  0  0  0  0  0  0  0  0  0
    3.0476   17.6853   -1.9116 H   0  0  0  0  0  0  0  0  0  0  0  0
    3.6710   17.9340    0.3320 H   0  0  0  0  0  0  0  0  0  0  0  0
    0.9346   15.1010   -2.9837 H   0  0  0  0  0  0  0  0  0  0  0  0
    0.3630   16.7452   -3.4273 H   0  0  0  0  0  0  0  0  0  0  0  0
    2.1208   16.3749   -3.4273 H   0  0  0  0  0  0  0  0  0  0  0  0
    0.2056   18.0941   -0.2381 H   0  0  0  0  0  0  0  0  0  0  0  0
    0.8592   18.7259   -1.7874 H   0  0  0  0  0  0  0  0  0  0  0  0
   -0.6095   17.6917   -1.7874 H   0  0  0  0  0  0  0  0  0  0  0  0
    1.0218   12.8523    2.6402 H   0  0  0  0  0  0  0  0  0  0  0  0
    2.7422   12.8980    2.1254 H   0  0  0  0  0  0  0  0  0  0  0  0
    1.7643   14.4048    2.1254 H   0  0  0  0  0  0  0  0  0  0  0  0
    3.0518   12.0093   -0.3194 H   0  0  0  0  0  0  0  0  0  0  0  0
    2.0522   11.0800    0.9342 H   0  0  0  0  0  0  0  0  0  0  0  0
    1.4655   11.4115   -2.0211 H   0  0  0  0  0  0  0  0  0  0  0  0
    1.8938    9.9058   -1.1172 H   0  0  0  0  0  0  0  0  0  0  0  0
   -0.1086   10.4914    1.4422 H   0  0  0  0  0  0  0  0  0  0  0  0
   -1.1250    9.2618    0.6166 H   0  0  0  0  0  0  0  0  0  0  0  0
    0.6636    9.0955    0.6166 H   0  0  0  0  0  0  0  0  0  0  0  0
  1  2  1  0
  2  3  1  0
  3  4  1  0
  4  5  1  0
  5  6  1  0
  6  7  1  0
  7  8  1  0
  7  9  1  0
  2 10  1  0
 10 11  1  0
 11 12  1  0
 12 13  1  0
 13 14  1  6
 13 15  1  0
 15 16  1  0
 16 17  1  0
 17 18  2  0
 18 19  1  0
 19 20  1  0
 20 21  1  0
 21 22  1  0
 22 23  1  0
 22 24  1  0
 24 25  1  0
 24 26  1  0
 19 27  1  0
 27 28  1  1
 27 29  1  0
 29 30  1  0
 30 31  1  0
 31 32  1  1
  7  5  1  0
 31 10  1  0
 31 13  1  0
 27 15  1  0
 24 18  1  0
  1 33  1  0
  1 34  1  0
  1 35  1  0
  2 36  1  1
  3 37  1  0
  3 38  1  0
  4 39  1  0
  4 40  1  0
  5 41  1  6
  8 42  1  0
  8 43  1  0
  8 44  1  0
  9 45  1  0
  9 46  1  0
  9 47  1  0
 10 48  1  6
 11 49  1  0
 11 50  1  0
 12 51  1  0
 12 52  1  0
 14 53  1  0
 14 54  1  0
 14 55  1  0
 15 56  1  1
 16 57  1  0
 16 58  1  0
 17 59  1  0
 19 60  1  6
 20 61  1  0
 20 62  1  0
 21 63  1  0
 21 64  1  0
 22 65  1  6
 23 66  1  0
 25 67  1  0
 25 68  1  0
 25 69  1  0
 26 70  1  0
 26 71  1  0
 26 72  1  0
 28 73  1  0
 28 74  1  0
 28 75  1  0
 29 76  1  0
 29 77  1  0
 30 78  1  0
 30 79  1  0
 32 80  1  0
 32 81  1  0
 32 82  1  0
M  END
>  <meeko>  (12) 
{"is_sidechain": [false], "intermolecular_energy": 2.731, "internal_energy": -0.839}

$$$$
EPH_relaxed_0001_pdb2pqr_Repair_180_r2_0001_out
     RDKit          3D

 82 86  0  0  0  0  0  0  0  0999 V2000
   -0.8350    7.1460   -2.9430 C   0  0  0  0  0  0  0  0  0  0  0  0
   -2.1520    7.4810   -2.2380 C   0  0  2  0  0  0  0  0  0  0  0  0
   -3.3670    7.3290   -3.1750 C   0  0  0  0  0  0  0  0  0  0  0  0
   -4.2580    6.1300   -2.8380 C   0  0  0  0  0  0  0  0  0  0  0  0
   -5.6350    6.2850   -3.4080 C   0  0  2  0  0  0  0  0  0  0  0  0
   -6.2120    7.5860   -3.2340 O   0  0  0  0  0  0  0  0  0  0  0  0
   -6.8720    6.5040   -2.5570 C   0  0  0  0  0  0  0  0  0  0  0  0
   -6.7900    6.5800   -1.0640 C   0  0  0  0  0  0  0  0  0  0  0  0
   -8.2090    6.1580   -3.1350 C   0  0  0  0  0  0  0  0  0  0  0  0
   -2.0980    8.9000   -1.6830 C   0  0  1  0  0  0  0  0  0  0  0  0
   -3.1100    9.1280   -0.5280 C   0  0  0  0  0  0  0  0  0  0  0  0
   -2.4370   10.1060    0.4690 C   0  0  0  0  0  0  0  0  0  0  0  0
   -1.2140   10.6640   -0.2960 C   0  0  1  0  0  0  0  0  0  0  0  0
   -1.7920   11.7920   -1.2080 C   0  0  0  0  0  0  0  0  0  0  0  0
   -0.0270   11.1820    0.5800 C   0  0  2  0  0  0  0  0  0  0  0  0
   -0.3630   12.3730    1.4940 C   0  0  0  0  0  0  0  0  0  0  0  0
   -0.1380   13.7210    0.8930 C   0  0  0  0  0  0  0  0  0  0  0  0
    0.5780   13.9720   -0.2180 C   0  0  0  0  0  0  0  0  0  0  0  0
    1.3340   12.8490   -0.9390 C   0  0  1  0  0  0  0  0  0  0  0  0
    2.7720   13.3250   -1.2750 C   0  0  0  0  0  0  0  0  0  0  0  0
    2.7870   14.6340   -2.0580 C   0  0  0  0  0  0  0  0  0  0  0  0
    2.0760   15.7410   -1.2840 C   0  0  2  0  0  0  0  0  0  0  0  0
    2.8370   16.0440   -0.1110 O   0  0  0  0  0  0  0  0  0  0  0  0
    0.6210   15.3710   -0.8820 C   0  0  0  0  0  0  0  0  0  0  0  0
   -0.2750   15.3380   -2.1450 C   0  0  0  0  0  0  0  0  0  0  0  0
    0.0680   16.5120    0.0130 C   0  0  0  0  0  0  0  0  0  0  0  0
    1.3130   11.4290   -0.2240 C   0  0  1  0  0  0  0  0  0  0  0  0
    2.4760   11.3360    0.8100 C   0  0  0  0  0  0  0  0  0  0  0  0
    1.5820   10.3090   -1.2970 C   0  0  0  0  0  0  0  0  0  0  0  0
    0.3550    9.7540   -2.0450 C   0  0  0  0  0  0  0  0  0  0  0  0
   -0.7580    9.3700   -1.0640 C   0  0  2  0  0  0  0  0  0  0  0  0
   -0.2130    8.2220   -0.1480 C   0  0  0  0  0  0  0  0  0  0  0  0
   -0.0567    6.9480   -2.1913 H   0  0  0  0  0  0  0  0  0  0  0  0
   -0.9724    6.2542   -3.5721 H   0  0  0  0  0  0  0  0  0  0  0  0
   -0.5296    7.9951   -3.5721 H   0  0  0  0  0  0  0  0  0  0  0  0
   -2.2780    6.7633   -1.4140 H   0  0  0  0  0  0  0  0  0  0  0  0
   -3.9747    8.2433   -3.1068 H   0  0  0  0  0  0  0  0  0  0  0  0
   -2.9727    7.1618   -4.1882 H   0  0  0  0  0  0  0  0  0  0  0  0
   -3.8013    5.2190   -3.2521 H   0  0  0  0  0  0  0  0  0  0  0  0
   -4.3454    6.0648   -1.7434 H   0  0  0  0  0  0  0  0  0  0  0  0
   -5.4092    5.5682   -4.2113 H   0  0  0  0  0  0  0  0  0  0  0  0
   -7.5284    5.8956   -0.6209 H   0  0  0  0  0  0  0  0  0  0  0  0
   -5.7801    6.2914   -0.7371 H   0  0  0  0  0  0  0  0  0  0  0  0
   -7.0012    7.6088   -0.7371 H   0  0  0  0  0  0  0  0  0  0  0  0
   -8.9241    5.9729   -2.3199 H   0  0  0  0  0  0  0  0  0  0  0  0
   -8.5677    6.9929   -3.7549 H   0  0  0  0  0  0  0  0  0  0  0  0
   -8.1176    5.2539   -3.7549 H   0  0  0  0  0  0  0  0  0  0  0  0
   -2.3076    9.4666   -2.6023 H   0  0  0  0  0  0  0  0  0  0  0  0
   -4.0396    9.5665   -0.9198 H   0  0  0  0  0  0  0  0  0  0  0  0
   -3.3691    8.1787   -0.0364 H   0  0  0  0  0  0  0  0  0  0  0  0
   -3.1273   10.9177    0.7424 H   0  0  0  0  0  0  0  0  0  0  0  0
   -2.1506    9.6115    1.4089 H   0  0  0  0  0  0  0  0  0  0  0  0
   -2.2040   12.5959   -0.5803 H   0  0  0  0  0  0  0  0  0  0  0  0
   -0.9903   12.1969   -1.8431 H   0  0  0  0  0  0  0  0  0  0  0  0
   -2.5889   11.3778   -1.8431 H   0  0  0  0  0  0  0  0  0  0  0  0
    0.1583   10.3320    1.2531 H   0  0  0  0  0  0  0  0  0  0  0  0
   -1.4243   12.2982    1.7735 H   0  0  0  0  0  0  0  0  0  0  0  0
    0.3239   12.3029    2.3503 H   0  0  0  0  0  0  0  0  0  0  0  0
   -0.5965   14.5819    1.4016 H   0  0  0  0  0  0  0  0  0  0  0  0
    0.7780   12.6562   -1.8684 H   0  0  0  0  0  0  0  0  0  0  0  0
    3.3241   13.4702   -0.3347 H   0  0  0  0  0  0  0  0  0  0  0  0
    3.2403   12.5540   -1.9045 H   0  0  0  0  0  0  0  0  0  0  0  0
    3.8299   14.9336   -2.2384 H   0  0  0  0  0  0  0  0  0  0  0  0
    2.2609   14.4787   -3.0115 H   0  0  0  0  0  0  0  0  0  0  0  0
    2.0045   16.6147   -1.9484 H   0  0  0  0  0  0  0  0  0  0  0  0
    2.8200   15.2590    0.4620 H   0  0  0  0  0  0  0  0  0  0  0  0
   -1.3322   15.2991   -1.8436 H   0  0  0  0  0  0  0  0  0  0  0  0
   -0.0976   16.2433   -2.7442 H   0  0  0  0  0  0  0  0  0  0  0  0
   -0.0315   14.4482   -2.7442 H   0  0  0  0  0  0  0  0  0  0  0  0
    0.1982   16.2434    1.0717 H   0  0  0  0  0  0  0  0  0  0  0  0
    0.6152   17.4424   -0.1992 H   0  0  0  0  0  0  0  0  0  0  0  0
   -1.0013   16.6589   -0.1992 H   0  0  0  0  0  0  0  0  0  0  0  0
    2.0639   11.3690    1.8293 H   0  0  0  0  0  0  0  0  0  0  0  0
    3.0208   10.3914    0.6651 H   0  0  0  0  0  0  0  0  0  0  0  0
    3.1640   12.1820    0.6651 H   0  0  0  0  0  0  0  0  0  0  0  0
    2.2690   10.7260   -2.0481 H   0  0  0  0  0  0  0  0  0  0  0  0
    1.9823    9.4565   -0.7287 H   0  0  0  0  0  0  0  0  0  0  0  0
   -0.0232   10.5221   -2.7356 H   0  0  0  0  0  0  0  0  0  0  0  0
    0.6597    8.8542   -2.5995 H   0  0  0  0  0  0  0  0  0  0  0  0
   -0.3455    8.5011    0.9077 H   0  0  0  0  0  0  0  0  0  0  0  0
   -0.7668    7.2942   -0.3543 H   0  0  0  0  0  0  0  0  0  0  0  0
    0.8560    8.0646   -0.3543 H   0  0  0  0  0  0  0  0  0  0  0  0
  1  2  1  0
  2  3  1  0
  3  4  1  0
  4  5  1  0
  5  6  1  0
  6  7  1  0
  7  8  1  0
  7  9  1  0
  2 10  1  0
 10 11  1  0
 11 12  1  0
 12 13  1  0
 13 14  1  6
 13 15  1  0
 15 16  1  0
 16 17  1  0
 17 18  2  0
 18 19  1  0
 19 20  1  0
 20 21  1  0
 21 22  1  0
 22 23  1  0
 22 24  1  0
 24 25  1  0
 24 26  1  0
 19 27  1  0
 27 28  1  1
 27 29  1  0
 29 30  1  0
 30 31  1  0
 31 32  1  1
  7  5  1  0
 31 10  1  0
 31 13  1  0
 27 15  1  0
 24 18  1  0
  1 33  1  0
  1 34  1  0
  1 35  1  0
  2 36  1  1
  3 37  1  0
  3 38  1  0
  4 39  1  0
  4 40  1  0
  5 41  1  6
  8 42  1  0
  8 43  1  0
  8 44  1  0
  9 45  1  0
  9 46  1  0
  9 47  1  0
 10 48  1  6
 11 49  1  0
 11 50  1  0
 12 51  1  0
 12 52  1  0
 14 53  1  0
 14 54  1  0
 14 55  1  0
 15 56  1  1
 16 57  1  0
 16 58  1  0
 17 59  1  0
 19 60  1  6
 20 61  1  0
 20 62  1  0
 21 63  1  0
 21 64  1  0
 22 65  1  6
 23 66  1  0
 25 67  1  0
 25 68  1  0
 25 69  1  0
 26 70  1  0
 26 71  1  0
 26 72  1  0
 28 73  1  0
 28 74  1  0
 28 75  1  0
 29 76  1  0
 29 77  1  0
 30 78  1  0
 30 79  1  0
 32 80  1  0
 32 81  1  0
 32 82  1  0
M  END
>  <meeko>  (13) 
{"is_sidechain": [false], "intermolecular_energy": 2.731, "internal_energy": -0.839}

$$$$
EPH_relaxed_0001_pdb2pqr_Repair_180_r2_0001_out
     RDKit          3D

 82 86  0  0  0  0  0  0  0  0999 V2000
    2.6660   17.6970   -3.5780 C   0  0  0  0  0  0  0  0  0  0  0  0
    2.1410   17.7850   -2.1420 C   0  0  2  0  0  0  0  0  0  0  0  0
    2.9100   18.8280   -1.3060 C   0  0  0  0  0  0  0  0  0  0  0  0
    3.7540   18.2170   -0.1840 C   0  0  0  0  0  0  0  0  0  0  0  0
    3.3990   18.7910    1.1540 C   0  0  2  0  0  0  0  0  0  0  0  0
    3.7550   20.1690    1.3270 O   0  0  0  0  0  0  0  0  0  0  0  0
    4.4310   19.2280    2.1770 C   0  0  0  0  0  0  0  0  0  0  0  0
    5.8980   19.1070    1.9070 C   0  0  0  0  0  0  0  0  0  0  0  0
    4.0210   19.3120    3.6140 C   0  0  0  0  0  0  0  0  0  0  0  0
    2.2240   16.4180   -1.4730 C   0  0  1  0  0  0  0  0  0  0  0  0
    2.5880   16.5100    0.0330 C   0  0  0  0  0  0  0  0  0  0  0  0
    1.8230   15.3670    0.7480 C   0  0  0  0  0  0  0  0  0  0  0  0
    1.3160   14.4600   -0.3980 C   0  0  1  0  0  0  0  0  0  0  0  0
    2.5420   13.5720   -0.7790 C   0  0  0  0  0  0  0  0  0  0  0  0
    0.0510   13.5950   -0.0860 C   0  0  2  0  0  0  0  0  0  0  0  0
    0.2280   12.5630    1.0410 C   0  0  0  0  0  0  0  0  0  0  0  0
    0.6970   11.2150    0.6030 C   0  0  0  0  0  0  0  0  0  0  0  0
    0.6930   10.7580   -0.6630 C   0  0  0  0  0  0  0  0  0  0  0  0
    0.0910   11.5940   -1.8000 C   0  0  1  0  0  0  0  0  0  0  0  0
   -0.8220   10.6960   -2.6750 C   0  0  0  0  0  0  0  0  0  0  0  0
   -0.1030    9.4510   -3.1850 C   0  0  0  0  0  0  0  0  0  0  0  0
    0.4310    8.6160   -2.0240 C   0  0  2  0  0  0  0  0  0  0  0  0
   -0.6770    8.0860   -1.2900 O   0  0  0  0  0  0  0  0  0  0  0  0
    1.3570    9.4190   -1.0670 C   0  0  0  0  0  0  0  0  0  0  0  0
    2.6950    9.7350   -1.7800 C   0  0  0  0  0  0  0  0  0  0  0  0
    1.7110    8.5020    0.1350 C   0  0  0  0  0  0  0  0  0  0  0  0
   -0.6210   12.9470   -1.3640 C   0  0  1  0  0  0  0  0  0  0  0  0
   -2.1090   12.6680   -0.9900 C   0  0  0  0  0  0  0  0  0  0  0  0
   -0.6480   13.9330   -2.5910 C   0  0  0  0  0  0  0  0  0  0  0  0
    0.5790   14.8450   -2.7760 C   0  0  0  0  0  0  0  0  0  0  0  0
    0.9400   15.5510   -1.4660 C   0  0  2  0  0  0  0  0  0  0  0  0
   -0.2660   16.4690   -1.0680 C   0  0  0  0  0  0  0  0  0  0  0  0
    3.7507   17.5152   -3.5613 H   0  0  0  0  0  0  0  0  0  0  0  0
    2.1637   16.8705   -4.1020 H   0  0  0  0  0  0  0  0  0  0  0  0
    2.4606   18.6421   -4.1020 H   0  0  0  0  0  0  0  0  0  0  0  0
    1.0915   18.1106   -2.1928 H   0  0  0  0  0  0  0  0  0  0  0  0
    3.5779   19.3873   -1.9777 H   0  0  0  0  0  0  0  0  0  0  0  0
    2.1587   19.4736   -0.8277 H   0  0  0  0  0  0  0  0  0  0  0  0
    3.5842   17.1304   -0.1619 H   0  0  0  0  0  0  0  0  0  0  0  0
    4.8104   18.4476   -0.3860 H   0  0  0  0  0  0  0  0  0  0  0  0
    2.5181   18.1363    1.2281 H   0  0  0  0  0  0  0  0  0  0  0  0
    6.4439   19.0620    2.8609 H   0  0  0  0  0  0  0  0  0  0  0  0
    6.0904   18.1899    1.3308 H   0  0  0  0  0  0  0  0  0  0  0  0
    6.2380   19.9801    1.3308 H   0  0  0  0  0  0  0  0  0  0  0  0
    4.8960   19.1327    4.2560 H   0  0  0  0  0  0  0  0  0  0  0  0
    3.6131   20.3124    3.8210 H   0  0  0  0  0  0  0  0  0  0  0  0
    3.2526   18.5526    3.8210 H   0  0  0  0  0  0  0  0  0  0  0  0
    2.9911   15.9491   -2.1067 H   0  0  0  0  0  0  0  0  0  0  0  0
    3.6722   16.3834    0.1692 H   0  0  0  0  0  0  0  0  0  0  0  0
    2.3110   17.4906    0.4474 H   0  0  0  0  0  0  0  0  0  0  0  0
    2.4950   14.8089    1.4166 H   0  0  0  0  0  0  0  0  0  0  0  0
    1.0022   15.7436    1.3761 H   0  0  0  0  0  0  0  0  0  0  0  0
    3.0350   13.2149    0.1372 H   0  0  0  0  0  0  0  0  0  0  0  0
    2.2006   12.7103   -1.3714 H   0  0  0  0  0  0  0  0  0  0  0  0
    3.2543   14.1650   -1.3714 H   0  0  0  0  0  0  0  0  0  0  0  0
   -0.6566   14.3421    0.3028 H   0  0  0  0  0  0  0  0  0  0  0  0
    0.9624   12.9628    1.7558 H   0  0  0  0  0  0  0  0  0  0  0  0
   -0.7714   12.4115    1.4748 H   0  0  0  0  0  0  0  0  0  0  0  0
    1.0783   10.5376    1.3812 H   0  0  0  0  0  0  0  0  0  0  0  0
    0.9422   11.9546   -2.3962 H   0  0  0  0  0  0  0  0  0  0  0  0
   -1.6879   10.3816   -2.0738 H   0  0  0  0  0  0  0  0  0  0  0  0
   -1.1298   11.2860   -3.5509 H   0  0  0  0  0  0  0  0  0  0  0  0
   -0.8076    8.8431   -3.7716 H   0  0  0  0  0  0  0  0  0  0  0  0
    0.7453    9.7665   -3.8102 H   0  0  0  0  0  0  0  0  0  0  0  0
    1.0457    7.8103   -2.4517 H   0  0  0  0  0  0  0  0  0  0  0  0
   -0.3400    7.7750   -0.4330 H   0  0  0  0  0  0  0  0  0  0  0  0
    3.4765    9.9196   -1.0282 H   0  0  0  0  0  0  0  0  0  0  0  0
    2.9859    8.8808   -2.4091 H   0  0  0  0  0  0  0  0  0  0  0  0
    2.5730   10.6290   -2.4091 H   0  0  0  0  0  0  0  0  0  0  0  0
    1.5055    9.0344    1.0754 H   0  0  0  0  0  0  0  0  0  0  0  0
    1.1013    7.5875    0.0906 H   0  0  0  0  0  0  0  0  0  0  0  0
    2.7770    8.2344    0.0906 H   0  0  0  0  0  0  0  0  0  0  0  0
   -2.2144   12.6482    0.1048 H   0  0  0  0  0  0  0  0  0  0  0  0
   -2.7466   13.4622   -1.4055 H   0  0  0  0  0  0  0  0  0  0  0  0
   -2.4156   11.6967   -1.4055 H   0  0  0  0  0  0  0  0  0  0  0  0
   -0.7525   13.3267   -3.5029 H   0  0  0  0  0  0  0  0  0  0  0  0
   -1.4871   14.6161   -2.3929 H   0  0  0  0  0  0  0  0  0  0  0  0
    1.4341   14.2356   -3.1038 H   0  0  0  0  0  0  0  0  0  0  0  0
    0.3381   15.6081   -3.5307 H   0  0  0  0  0  0  0  0  0  0  0  0
   -0.3386   16.5243    0.0282 H   0  0  0  0  0  0  0  0  0  0  0  0
   -0.1090   17.4782   -1.4764 H   0  0  0  0  0  0  0  0  0  0  0  0
   -1.1970   16.0489   -1.4764 H   0  0  0  0  0  0  0  0  0  0  0  0
  1  2  1  0
  2  3  1  0
  3  4  1  0
  4  5  1  0
  5  6  1  0
  6  7  1  0
  7  8  1  0
  7  9  1  0
  2 10  1  0
 10 11  1  0
 11 12  1  0
 12 13  1  0
 13 14  1  6
 13 15  1  0
 15 16  1  0
 16 17  1  0
 17 18  2  0
 18 19  1  0
 19 20  1  0
 20 21  1  0
 21 22  1  0
 22 23  1  0
 22 24  1  0
 24 25  1  0
 24 26  1  0
 19 27  1  0
 27 28  1  1
 27 29  1  0
 29 30  1  0
 30 31  1  0
 31 32  1  1
  7  5  1  0
 31 10  1  0
 31 13  1  0
 27 15  1  0
 24 18  1  0
  1 33  1  0
  1 34  1  0
  1 35  1  0
  2 36  1  6
  3 37  1  0
  3 38  1  0
  4 39  1  0
  4 40  1  0
  5 41  1  1
  8 42  1  0
  8 43  1  0
  8 44  1  0
  9 45  1  0
  9 46  1  0
  9 47  1  0
 10 48  1  6
 11 49  1  0
 11 50  1  0
 12 51  1  0
 12 52  1  0
 14 53  1  0
 14 54  1  0
 14 55  1  0
 15 56  1  1
 16 57  1  0
 16 58  1  0
 17 59  1  0
 19 60  1  6
 20 61  1  0
 20 62  1  0
 21 63  1  0
 21 64  1  0
 22 65  1  6
 23 66  1  0
 25 67  1  0
 25 68  1  0
 25 69  1  0
 26 70  1  0
 26 71  1  0
 26 72  1  0
 28 73  1  0
 28 74  1  0
 28 75  1  0
 29 76  1  0
 29 77  1  0
 30 78  1  0
 30 79  1  0
 32 80  1  0
 32 81  1  0
 32 82  1  0
M  END
>  <meeko>  (14) 
{"is_sidechain": [false], "intermolecular_energy": 2.731, "internal_energy": -0.839}

$$$$
EPH_relaxed_0001_pdb2pqr_Repair_180_r2_0001_out
     RDKit          3D

 82 86  0  0  0  0  0  0  0  0999 V2000
  -15.1490    9.0300    0.7790 C   0  0  0  0  0  0  0  0  0  0  0  0
  -14.2740    9.2140   -0.4640 C   0  0  2  0  0  0  0  0  0  0  0  0
  -14.6560    8.2370   -1.5940 C   0  0  0  0  0  0  0  0  0  0  0  0
  -14.5950    8.8580   -2.9920 C   0  0  0  0  0  0  0  0  0  0  0  0
  -15.2650   10.1980   -3.0330 C   0  0  2  0  0  0  0  0  0  0  0  0
  -14.9230   11.0040   -4.1680 O   0  0  0  0  0  0  0  0  0  0  0  0
  -14.5180   11.5110   -2.8870 C   0  0  0  0  0  0  0  0  0  0  0  0
  -13.0350   11.5480   -2.6870 C   0  0  0  0  0  0  0  0  0  0  0  0
  -15.2810   12.7230   -2.4500 C   0  0  0  0  0  0  0  0  0  0  0  0
  -12.8050    9.0370   -0.0970 C   0  0  1  0  0  0  0  0  0  0  0  0
  -12.5780    8.9540    1.4360 C   0  0  0  0  0  0  0  0  0  0  0  0
  -11.4070    7.9640    1.6620 C   0  0  0  0  0  0  0  0  0  0  0  0
  -10.7860    7.7680    0.2590 C   0  0  1  0  0  0  0  0  0  0  0  0
   -9.8620    9.0090    0.0530 C   0  0  0  0  0  0  0  0  0  0  0  0
  -10.0140    6.4280    0.0270 C   0  0  2  0  0  0  0  0  0  0  0  0
   -8.7780    6.2240    0.9200 C   0  0  0  0  0  0  0  0  0  0  0  0
   -7.4930    6.7360    0.3580 C   0  0  0  0  0  0  0  0  0  0  0  0
   -7.2830    7.0770   -0.9270 C   0  0  0  0  0  0  0  0  0  0  0  0
   -8.3720    6.8680   -1.9860 C   0  0  1  0  0  0  0  0  0  0  0  0
   -7.7510    6.2060   -3.2440 C   0  0  0  0  0  0  0  0  0  0  0  0
   -6.5550    6.9840   -3.7840 C   0  0  0  0  0  0  0  0  0  0  0  0
   -5.4680    7.1200   -2.7200 C   0  0  2  0  0  0  0  0  0  0  0  0
   -4.9290    5.8240   -2.4430 O   0  0  0  0  0  0  0  0  0  0  0  0
   -5.9800    7.7660   -1.4020 C   0  0  0  0  0  0  0  0  0  0  0  0
   -6.2820    9.2660   -1.6400 C   0  0  0  0  0  0  0  0  0  0  0  0
   -4.8240    7.7150   -0.3660 C   0  0  0  0  0  0  0  0  0  0  0  0
   -9.6870    6.1240   -1.4910 C   0  0  1  0  0  0  0  0  0  0  0  0
   -9.4990    4.5800   -1.6050 C   0  0  0  0  0  0  0  0  0  0  0  0
  -10.8800    6.4980   -2.4470 C   0  0  0  0  0  0  0  0  0  0  0  0
  -11.6800    7.7680   -2.0970 C   0  0  0  0  0  0  0  0  0  0  0  0
  -12.0890    7.7670   -0.6210 C   0  0  2  0  0  0  0  0  0  0  0  0
  -13.0370    6.5420   -0.3870 C   0  0  0  0  0  0  0  0  0  0  0  0
  -14.5346    9.1592    1.6823 H   0  0  0  0  0  0  0  0  0  0  0  0
  -15.9553    9.7782    0.7739 H   0  0  0  0  0  0  0  0  0  0  0  0
  -15.5856    8.0204    0.7739 H   0  0  0  0  0  0  0  0  0  0  0  0
  -14.4434   10.2342   -0.8389 H   0  0  0  0  0  0  0  0  0  0  0  0
  -13.9638    7.3827   -1.5631 H   0  0  0  0  0  0  0  0  0  0  0  0
  -15.7003    7.9379   -1.4207 H   0  0  0  0  0  0  0  0  0  0  0  0
  -13.5410    8.9774   -3.2834 H   0  0  0  0  0  0  0  0  0  0  0  0
  -15.1230    8.1892   -3.6877 H   0  0  0  0  0  0  0  0  0  0  0  0
  -16.1552    9.7949   -2.5280 H   0  0  0  0  0  0  0  0  0  0  0  0
  -12.8103   11.5536   -1.6102 H   0  0  0  0  0  0  0  0  0  0  0  0
  -12.5801   10.6609   -3.1519 H   0  0  0  0  0  0  0  0  0  0  0  0
  -12.6249   12.4567   -3.1519 H   0  0  0  0  0  0  0  0  0  0  0  0
  -15.3066   12.7636   -1.3510 H   0  0  0  0  0  0  0  0  0  0  0  0
  -14.7884   13.6264   -2.8390 H   0  0  0  0  0  0  0  0  0  0  0  0
  -16.3085   12.6694   -2.8390 H   0  0  0  0  0  0  0  0  0  0  0  0
  -12.3853    9.9317   -0.5801 H   0  0  0  0  0  0  0  0  0  0  0  0
  -12.3178    9.9457    1.8346 H   0  0  0  0  0  0  0  0  0  0  0  0
  -13.4879    8.6137    1.9520 H   0  0  0  0  0  0  0  0  0  0  0  0
  -10.6683    8.3885    2.3578 H   0  0  0  0  0  0  0  0  0  0  0  0
  -11.7425    7.0152    2.1061 H   0  0  0  0  0  0  0  0  0  0  0  0
   -9.5632    9.4103    1.0326 H   0  0  0  0  0  0  0  0  0  0  0  0
   -8.9654    8.7093   -0.5094 H   0  0  0  0  0  0  0  0  0  0  0  0
  -10.4062    9.7820   -0.5094 H   0  0  0  0  0  0  0  0  0  0  0  0
  -10.7455    5.6742    0.3536 H   0  0  0  0  0  0  0  0  0  0  0  0
   -8.9601    6.7386    1.8750 H   0  0  0  0  0  0  0  0  0  0  0  0
   -8.6530    5.1359    1.0223 H   0  0  0  0  0  0  0  0  0  0  0  0
   -6.6468    6.8436    1.0525 H   0  0  0  0  0  0  0  0  0  0  0  0
   -8.7468    7.8708   -2.2386 H   0  0  0  0  0  0  0  0  0  0  0  0
   -7.4214    5.1899   -2.9815 H   0  0  0  0  0  0  0  0  0  0  0  0
   -8.5218    6.1913   -4.0287 H   0  0  0  0  0  0  0  0  0  0  0  0
   -6.1427    6.4523   -4.6542 H   0  0  0  0  0  0  0  0  0  0  0  0
   -6.8919    7.9905   -4.0729 H   0  0  0  0  0  0  0  0  0  0  0  0
   -4.6959    7.7933   -3.1206 H   0  0  0  0  0  0  0  0  0  0  0  0
   -4.8660    5.3450   -3.2870 H   0  0  0  0  0  0  0  0  0  0  0  0
   -6.3850    9.7774   -0.6716 H   0  0  0  0  0  0  0  0  0  0  0  0
   -5.4573    9.7203   -2.2087 H   0  0  0  0  0  0  0  0  0  0  0  0
   -7.2183    9.3658   -2.2087 H   0  0  0  0  0  0  0  0  0  0  0  0
   -5.2422    7.7334    0.6512 H   0  0  0  0  0  0  0  0  0  0  0  0
   -4.2451    6.7904   -0.5077 H   0  0  0  0  0  0  0  0  0  0  0  0
   -4.1659    8.5850   -0.5077 H   0  0  0  0  0  0  0  0  0  0  0  0
   -9.4456    4.1417   -0.5975 H   0  0  0  0  0  0  0  0  0  0  0  0
  -10.3509    4.1461   -2.1490 H   0  0  0  0  0  0  0  0  0  0  0  0
   -8.5678    4.3632   -2.1490 H   0  0  0  0  0  0  0  0  0  0  0  0
  -10.4668    6.6331   -3.4574 H   0  0  0  0  0  0  0  0  0  0  0  0
  -11.5975    5.6700   -2.3488 H   0  0  0  0  0  0  0  0  0  0  0  0
  -11.0575    8.6524   -2.2976 H   0  0  0  0  0  0  0  0  0  0  0  0
  -12.5904    7.7910   -2.7139 H   0  0  0  0  0  0  0  0  0  0  0  0
  -13.1641    6.3778    0.6932 H   0  0  0  0  0  0  0  0  0  0  0  0
  -14.0166    6.7437   -0.8450 H   0  0  0  0  0  0  0  0  0  0  0  0
  -12.5960    5.6443   -0.8450 H   0  0  0  0  0  0  0  0  0  0  0  0
  1  2  1  0
  2  3  1  0
  3  4  1  0
  4  5  1  0
  5  6  1  0
  6  7  1  0
  7  8  1  0
  7  9  1  0
  2 10  1  0
 10 11  1  0
 11 12  1  0
 12 13  1  0
 13 14  1  6
 13 15  1  0
 15 16  1  0
 16 17  1  0
 17 18  2  0
 18 19  1  0
 19 20  1  0
 20 21  1  0
 21 22  1  0
 22 23  1  0
 22 24  1  0
 24 25  1  0
 24 26  1  0
 19 27  1  0
 27 28  1  1
 27 29  1  0
 29 30  1  0
 30 31  1  0
 31 32  1  6
  7  5  1  0
 31 10  1  0
 31 13  1  0
 27 15  1  0
 24 18  1  0
  1 33  1  0
  1 34  1  0
  1 35  1  0
  2 36  1  6
  3 37  1  0
  3 38  1  0
  4 39  1  0
  4 40  1  0
  5 41  1  1
  8 42  1  0
  8 43  1  0
  8 44  1  0
  9 45  1  0
  9 46  1  0
  9 47  1  0
 10 48  1  6
 11 49  1  0
 11 50  1  0
 12 51  1  0
 12 52  1  0
 14 53  1  0
 14 54  1  0
 14 55  1  0
 15 56  1  1
 16 57  1  0
 16 58  1  0
 17 59  1  0
 19 60  1  6
 20 61  1  0
 20 62  1  0
 21 63  1  0
 21 64  1  0
 22 65  1  6
 23 66  1  0
 25 67  1  0
 25 68  1  0
 25 69  1  0
 26 70  1  0
 26 71  1  0
 26 72  1  0
 28 73  1  0
 28 74  1  0
 28 75  1  0
 29 76  1  0
 29 77  1  0
 30 78  1  0
 30 79  1  0
 32 80  1  0
 32 81  1  0
 32 82  1  0
M  END
>  <meeko>  (15) 
{"is_sidechain": [false], "intermolecular_energy": 2.731, "internal_energy": -0.839}

$$$$
EPH_relaxed_0001_pdb2pqr_Repair_180_r2_0001_out
     RDKit          3D

 82 86  0  0  0  0  0  0  0  0999 V2000
    1.6880   18.4390   -2.0340 C   0  0  0  0  0  0  0  0  0  0  0  0
    2.0770   17.2510   -2.9190 C   0  0  2  0  0  0  0  0  0  0  0  0
    1.0780   17.0350   -4.0740 C   0  0  0  0  0  0  0  0  0  0  0  0
    1.5010   15.9410   -5.0570 C   0  0  0  0  0  0  0  0  0  0  0  0
    0.5080   15.7800   -6.1680 C   0  0  2  0  0  0  0  0  0  0  0  0
    0.4750   14.4730   -6.7570 O   0  0  0  0  0  0  0  0  0  0  0  0
    0.9020   15.5430   -7.6150 C   0  0  0  0  0  0  0  0  0  0  0  0
    2.3380   15.4550   -8.0280 C   0  0  0  0  0  0  0  0  0  0  0  0
   -0.0830   15.8840   -8.6890 C   0  0  0  0  0  0  0  0  0  0  0  0
    2.1790   15.9860   -2.0760 C   0  0  1  0  0  0  0  0  0  0  0  0
    2.6420   16.2730   -0.6220 C   0  0  0  0  0  0  0  0  0  0  0  0
    1.9050   15.2580    0.2900 C   0  0  0  0  0  0  0  0  0  0  0  0
    1.3090   14.2170   -0.6860 C   0  0  1  0  0  0  0  0  0  0  0  0
    2.4910   13.2540   -1.0170 C   0  0  0  0  0  0  0  0  0  0  0  0
    0.0520   13.4370   -0.1810 C   0  0  2  0  0  0  0  0  0  0  0  0
    0.2840   12.5630    1.0650 C   0  0  0  0  0  0  0  0  0  0  0  0
    0.6990   11.1560    0.7890 C   0  0  0  0  0  0  0  0  0  0  0  0
    0.6050   10.5320   -0.4000 C   0  0  0  0  0  0  0  0  0  0  0  0
   -0.0560   11.2210   -1.6020 C   0  0  1  0  0  0  0  0  0  0  0  0
   -1.0390   10.2360   -2.2870 C   0  0  0  0  0  0  0  0  0  0  0  0
   -0.3760    8.9150   -2.6640 C   0  0  0  0  0  0  0  0  0  0  0  0
    0.2170    8.2320   -1.4340 C   0  0  2  0  0  0  0  0  0  0  0  0
   -0.8490    7.8360   -0.5670 O   0  0  0  0  0  0  0  0  0  0  0  0
    1.2170    9.1330   -0.6560 C   0  0  0  0  0  0  0  0  0  0  0  0
    2.5110    9.3130   -1.4880 C   0  0  0  0  0  0  0  0  0  0  0  0
    1.6330    8.3790    0.6360 C   0  0  0  0  0  0  0  0  0  0  0  0
   -0.7140   12.6380   -1.3120 C   0  0  1  0  0  0  0  0  0  0  0  0
   -2.1790   12.4530   -0.8130 C   0  0  0  0  0  0  0  0  0  0  0  0
   -0.8030   13.4480   -2.6600 C   0  0  0  0  0  0  0  0  0  0  0  0
    0.4250   14.2940   -3.0450 C   0  0  0  0  0  0  0  0  0  0  0  0
    0.8830   15.1620   -1.8690 C   0  0  2  0  0  0  0  0  0  0  0  0
   -0.2780   16.1570   -1.5280 C   0  0  0  0  0  0  0  0  0  0  0  0
    1.7814   18.1539   -0.9757 H   0  0  0  0  0  0  0  0  0  0  0  0
    2.3552   19.2876   -2.2454 H   0  0  0  0  0  0  0  0  0  0  0  0
    0.6481   18.7287   -2.2454 H   0  0  0  0  0  0  0  0  0  0  0  0
    3.0554   17.4792   -3.3670 H   0  0  0  0  0  0  0  0  0  0  0  0
    0.1044   16.7577   -3.6437 H   0  0  0  0  0  0  0  0  0  0  0  0
    1.0335   17.9767   -4.6408 H   0  0  0  0  0  0  0  0  0  0  0  0
    2.4777   16.2068   -5.4876 H   0  0  0  0  0  0  0  0  0  0  0  0
    1.5582   14.9897   -4.5076 H   0  0  0  0  0  0  0  0  0  0  0  0
   -0.1716   16.5058   -5.6974 H   0  0  0  0  0  0  0  0  0  0  0  0
    2.9754   15.4159   -7.1323 H   0  0  0  0  0  0  0  0  0  0  0  0
    2.4920   14.5457   -8.6276 H   0  0  0  0  0  0  0  0  0  0  0  0
    2.6019   16.3387   -8.6276 H   0  0  0  0  0  0  0  0  0  0  0  0
   -1.0276   16.2110   -8.2298 H   0  0  0  0  0  0  0  0  0  0  0  0
    0.3211   16.6945   -9.3133 H   0  0  0  0  0  0  0  0  0  0  0  0
   -0.2665   14.9971   -9.3133 H   0  0  0  0  0  0  0  0  0  0  0  0
    2.8939   15.4149   -2.6865 H   0  0  0  0  0  0  0  0  0  0  0  0
    3.7304   16.1379   -0.5372 H   0  0  0  0  0  0  0  0  0  0  0  0
    2.4097   17.3078   -0.3302 H   0  0  0  0  0  0  0  0  0  0  0  0
    2.6092   14.7789    0.9861 H   0  0  0  0  0  0  0  0  0  0  0  0
    1.1334   15.7381    0.9098 H   0  0  0  0  0  0  0  0  0  0  0  0
    2.9394   12.8887   -0.0813 H   0  0  0  0  0  0  0  0  0  0  0  0
    2.1162   12.4009   -1.6015 H   0  0  0  0  0  0  0  0  0  0  0  0
    3.2508   13.7935   -1.6015 H   0  0  0  0  0  0  0  0  0  0  0  0
   -0.6150   14.2496    0.1426 H   0  0  0  0  0  0  0  0  0  0  0  0
    1.0706   13.0367    1.6707 H   0  0  0  0  0  0  0  0  0  0  0  0
   -0.6876   12.4987    1.5766 H   0  0  0  0  0  0  0  0  0  0  0  0
    1.1169   10.5805    1.6281 H   0  0  0  0  0  0  0  0  0  0  0  0
    0.7600   11.4750   -2.2946 H   0  0  0  0  0  0  0  0  0  0  0  0
   -1.8695   10.0291   -1.5960 H   0  0  0  0  0  0  0  0  0  0  0  0
   -1.3926   10.7088   -3.2151 H   0  0  0  0  0  0  0  0  0  0  0  0
   -1.1273    8.2515   -3.1172 H   0  0  0  0  0  0  0  0  0  0  0  0
    0.4358    9.1204   -3.3773 H   0  0  0  0  0  0  0  0  0  0  0  0
    0.7879    7.3594   -1.7843 H   0  0  0  0  0  0  0  0  0  0  0  0
   -1.1590    8.6310   -0.0990 H   0  0  0  0  0  0  0  0  0  0  0  0
    3.3691    9.4324   -0.8102 H   0  0  0  0  0  0  0  0  0  0  0  0
    2.6652    8.4277   -2.1223 H   0  0  0  0  0  0  0  0  0  0  0  0
    2.4177   10.2068   -2.1223 H   0  0  0  0  0  0  0  0  0  0  0  0
    1.3144    8.9565    1.5163 H   0  0  0  0  0  0  0  0  0  0  0  0
    1.1533    7.3893    0.6535 H   0  0  0  0  0  0  0  0  0  0  0  0
    2.7261    8.2570    0.6535 H   0  0  0  0  0  0  0  0  0  0  0  0
   -2.1942   12.4511    0.2869 H   0  0  0  0  0  0  0  0  0  0  0  0
   -2.8009   13.2797   -1.1869 H   0  0  0  0  0  0  0  0  0  0  0  0
   -2.5758   11.4976   -1.1869 H   0  0  0  0  0  0  0  0  0  0  0  0
   -0.9769   12.7257   -3.4712 H   0  0  0  0  0  0  0  0  0  0  0  0
   -1.6153   14.1736   -2.5063 H   0  0  0  0  0  0  0  0  0  0  0  0
    1.2461   13.6236   -3.3387 H   0  0  0  0  0  0  0  0  0  0  0  0
    0.1487   14.9533   -3.8810 H   0  0  0  0  0  0  0  0  0  0  0  0
   -0.3783   16.2430   -0.4360 H   0  0  0  0  0  0  0  0  0  0  0  0
   -0.0510   17.1453   -1.9543 H   0  0  0  0  0  0  0  0  0  0  0  0
   -1.2199   15.7814   -1.9543 H   0  0  0  0  0  0  0  0  0  0  0  0
  1  2  1  0
  2  3  1  0
  3  4  1  0
  4  5  1  0
  5  6  1  0
  6  7  1  0
  7  8  1  0
  7  9  1  0
  2 10  1  0
 10 11  1  0
 11 12  1  0
 12 13  1  0
 13 14  1  6
 13 15  1  0
 15 16  1  0
 16 17  1  0
 17 18  2  0
 18 19  1  0
 19 20  1  0
 20 21  1  0
 21 22  1  0
 22 23  1  0
 22 24  1  0
 24 25  1  0
 24 26  1  0
 19 27  1  0
 27 28  1  1
 27 29  1  0
 29 30  1  0
 30 31  1  0
 31 32  1  1
  7  5  1  0
 31 10  1  0
 31 13  1  0
 27 15  1  0
 24 18  1  0
  1 33  1  0
  1 34  1  0
  1 35  1  0
  2 36  1  6
  3 37  1  0
  3 38  1  0
  4 39  1  0
  4 40  1  0
  5 41  1  6
  8 42  1  0
  8 43  1  0
  8 44  1  0
  9 45  1  0
  9 46  1  0
  9 47  1  0
 10 48  1  6
 11 49  1  0
 11 50  1  0
 12 51  1  0
 12 52  1  0
 14 53  1  0
 14 54  1  0
 14 55  1  0
 15 56  1  1
 16 57  1  0
 16 58  1  0
 17 59  1  0
 19 60  1  6
 20 61  1  0
 20 62  1  0
 21 63  1  0
 21 64  1  0
 22 65  1  6
 23 66  1  0
 25 67  1  0
 25 68  1  0
 25 69  1  0
 26 70  1  0
 26 71  1  0
 26 72  1  0
 28 73  1  0
 28 74  1  0
 28 75  1  0
 29 76  1  0
 29 77  1  0
 30 78  1  0
 30 79  1  0
 32 80  1  0
 32 81  1  0
 32 82  1  0
M  END
>  <meeko>  (16) 
{"is_sidechain": [false], "intermolecular_energy": 2.731, "internal_energy": -0.839}

$$$$
EPH_relaxed_0001_pdb2pqr_Repair_180_r2_0001_out
     RDKit          3D

 82 86  0  0  0  0  0  0  0  0999 V2000
  -14.0440    9.7920    0.8500 C   0  0  0  0  0  0  0  0  0  0  0  0
  -13.3920    9.3010   -0.4450 C   0  0  2  0  0  0  0  0  0  0  0  0
  -14.3230    8.3670   -1.2450 C   0  0  0  0  0  0  0  0  0  0  0  0
  -14.5580    8.8220   -2.6880 C   0  0  0  0  0  0  0  0  0  0  0  0
  -15.2630   10.1440   -2.7450 C   0  0  2  0  0  0  0  0  0  0  0  0
  -15.0560   10.8820   -3.9560 O   0  0  0  0  0  0  0  0  0  0  0  0
  -14.5400   11.4780   -2.7550 C   0  0  0  0  0  0  0  0  0  0  0  0
  -13.0460   11.5560   -2.7070 C   0  0  0  0  0  0  0  0  0  0  0  0
  -15.2870   12.7000   -2.3190 C   0  0  0  0  0  0  0  0  0  0  0  0
  -12.0830    8.5860   -0.1290 C   0  0  1  0  0  0  0  0  0  0  0  0
  -12.2490    7.4870    0.9530 C   0  0  0  0  0  0  0  0  0  0  0  0
  -11.2730    6.3410    0.5800 C   0  0  0  0  0  0  0  0  0  0  0  0
  -10.3490    6.9520   -0.5000 C   0  0  1  0  0  0  0  0  0  0  0  0
   -9.2850    7.7690    0.2980 C   0  0  0  0  0  0  0  0  0  0  0  0
   -9.6800    5.9420   -1.4880 C   0  0  2  0  0  0  0  0  0  0  0  0
   -8.7270    4.9250   -0.8360 C   0  0  0  0  0  0  0  0  0  0  0  0
   -7.3000    5.3530   -0.7490 C   0  0  0  0  0  0  0  0  0  0  0  0
   -6.7480    6.3770   -1.4260 C   0  0  0  0  0  0  0  0  0  0  0  0
   -7.5600    7.1650   -2.4620 C   0  0  1  0  0  0  0  0  0  0  0  0
   -6.7180    7.3440   -3.7530 C   0  0  0  0  0  0  0  0  0  0  0  0
   -5.3540    7.9720   -3.4790 C   0  0  0  0  0  0  0  0  0  0  0  0
   -4.5540    7.1290   -2.4890 C   0  0  2  0  0  0  0  0  0  0  0  0
   -4.2300    5.8790   -3.1060 O   0  0  0  0  0  0  0  0  0  0  0  0
   -5.3070    6.8740   -1.1540 C   0  0  0  0  0  0  0  0  0  0  0  0
   -5.3920    8.1910   -0.3440 C   0  0  0  0  0  0  0  0  0  0  0  0
   -4.4510    5.8960   -0.3030 C   0  0  0  0  0  0  0  0  0  0  0  0
   -9.0220    6.6180   -2.7590 C   0  0  1  0  0  0  0  0  0  0  0  0
   -8.9660    5.5230   -3.8670 C   0  0  0  0  0  0  0  0  0  0  0  0
   -9.9020    7.7890   -3.3360 C   0  0  0  0  0  0  0  0  0  0  0  0
  -10.6330    8.6790   -2.3120 C   0  0  0  0  0  0  0  0  0  0  0  0
  -11.3900    7.8270   -1.2890 C   0  0  2  0  0  0  0  0  0  0  0  0
  -12.4830    7.0110   -2.0590 C   0  0  0  0  0  0  0  0  0  0  0  0
  -13.4993    9.3818    1.7132 H   0  0  0  0  0  0  0  0  0  0  0  0
  -14.0103   10.8910    0.8837 H   0  0  0  0  0  0  0  0  0  0  0  0
  -15.0909    9.4561    0.8837 H   0  0  0  0  0  0  0  0  0  0  0  0
  -13.1919   10.1833   -1.0707 H   0  0  0  0  0  0  0  0  0  0  0  0
  -13.8735    7.3632   -1.2661 H   0  0  0  0  0  0  0  0  0  0  0  0
  -15.3006    8.3782   -0.7408 H   0  0  0  0  0  0  0  0  0  0  0  0
  -13.5864    8.9140   -3.1954 H   0  0  0  0  0  0  0  0  0  0  0  0
  -15.1928    8.0733   -3.1845 H   0  0  0  0  0  0  0  0  0  0  0  0
  -16.0883    9.7565   -2.1296 H   0  0  0  0  0  0  0  0  0  0  0  0
  -12.7132   11.5734   -1.6587 H   0  0  0  0  0  0  0  0  0  0  0  0
  -12.6166   10.6791   -3.2135 H   0  0  0  0  0  0  0  0  0  0  0  0
  -12.7102   12.4729   -3.2135 H   0  0  0  0  0  0  0  0  0  0  0  0
  -15.3124   12.7416   -1.2201 H   0  0  0  0  0  0  0  0  0  0  0  0
  -14.7824   13.5966   -2.7083 H   0  0  0  0  0  0  0  0  0  0  0  0
  -16.3150   12.6597   -2.7083 H   0  0  0  0  0  0  0  0  0  0  0  0
  -11.4707    9.4474    0.1760 H   0  0  0  0  0  0  0  0  0  0  0  0
  -11.9977    7.8909    1.9448 H   0  0  0  0  0  0  0  0  0  0  0  0
  -13.2869    7.1248    0.9922 H   0  0  0  0  0  0  0  0  0  0  0  0
  -10.6894    6.0267    1.4579 H   0  0  0  0  0  0  0  0  0  0  0  0
  -11.7997    5.4448    0.2202 H   0  0  0  0  0  0  0  0  0  0  0  0
   -9.4556    7.6380    1.3768 H   0  0  0  0  0  0  0  0  0  0  0  0
   -8.2778    7.4100    0.0398 H   0  0  0  0  0  0  0  0  0  0  0  0
   -9.3718    8.8347    0.0398 H   0  0  0  0  0  0  0  0  0  0  0  0
  -10.5404    5.3578   -1.8462 H   0  0  0  0  0  0  0  0  0  0  0  0
   -9.0859    4.7292    0.1852 H   0  0  0  0  0  0  0  0  0  0  0  0
   -8.7392    4.0371   -1.4853 H   0  0  0  0  0  0  0  0  0  0  0  0
   -6.6438    4.7834   -0.0745 H   0  0  0  0  0  0  0  0  0  0  0  0
   -7.7607    8.1465   -2.0078 H   0  0  0  0  0  0  0  0  0  0  0  0
   -6.5657    6.3572   -4.2145 H   0  0  0  0  0  0  0  0  0  0  0  0
   -7.2700    8.0219   -4.4207 H   0  0  0  0  0  0  0  0  0  0  0  0
   -4.7951    8.0450   -4.4236 H   0  0  0  0  0  0  0  0  0  0  0  0
   -5.5083    8.9709   -3.0450 H   0  0  0  0  0  0  0  0  0  0  0  0
   -3.6450    7.6930   -2.2329 H   0  0  0  0  0  0  0  0  0  0  0  0
   -4.9240    5.2430   -2.8650 H   0  0  0  0  0  0  0  0  0  0  0  0
   -5.3772    7.9615    0.7317 H   0  0  0  0  0  0  0  0  0  0  0  0
   -4.5333    8.8314   -0.5941 H   0  0  0  0  0  0  0  0  0  0  0  0
   -6.3259    8.7157   -0.5941 H   0  0  0  0  0  0  0  0  0  0  0  0
   -4.6231    6.0927    0.7655 H   0  0  0  0  0  0  0  0  0  0  0  0
   -4.7377    4.8599   -0.5360 H   0  0  0  0  0  0  0  0  0  0  0  0
   -3.3860    6.0430   -0.5360 H   0  0  0  0  0  0  0  0  0  0  0  0
   -8.9152    4.5292   -3.3982 H   0  0  0  0  0  0  0  0  0  0  0  0
   -9.8686    5.5877   -4.4924 H   0  0  0  0  0  0  0  0  0  0  0  0
   -8.0747    5.6794   -4.4924 H   0  0  0  0  0  0  0  0  0  0  0  0
   -9.2429    8.4385   -3.9307 H   0  0  0  0  0  0  0  0  0  0  0  0
  -10.7003    7.2938   -3.9083 H   0  0  0  0  0  0  0  0  0  0  0  0
   -9.8955    9.3028   -1.7858 H   0  0  0  0  0  0  0  0  0  0  0  0
  -11.3571    9.3098   -2.8484 H   0  0  0  0  0  0  0  0  0  0  0  0
  -13.1474    6.5150   -1.3361 H   0  0  0  0  0  0  0  0  0  0  0  0
  -13.0719    7.6922   -2.6908 H   0  0  0  0  0  0  0  0  0  0  0  0
  -11.9973    6.2528   -2.6908 H   0  0  0  0  0  0  0  0  0  0  0  0
  1  2  1  0
  2  3  1  0
  3  4  1  0
  4  5  1  0
  5  6  1  0
  6  7  1  0
  7  8  1  0
  7  9  1  0
  2 10  1  0
 10 11  1  0
 11 12  1  0
 12 13  1  0
 13 14  1  1
 13 15  1  0
 15 16  1  0
 16 17  1  0
 17 18  2  0
 18 19  1  0
 19 20  1  0
 20 21  1  0
 21 22  1  0
 22 23  1  0
 22 24  1  0
 24 25  1  0
 24 26  1  0
 19 27  1  0
 27 28  1  6
 27 29  1  0
 29 30  1  0
 30 31  1  0
 31 32  1  6
  7  5  1  0
 31 10  1  0
 31 13  1  0
 27 15  1  0
 24 18  1  0
  1 33  1  0
  1 34  1  0
  1 35  1  0
  2 36  1  6
  3 37  1  0
  3 38  1  0
  4 39  1  0
  4 40  1  0
  5 41  1  1
  8 42  1  0
  8 43  1  0
  8 44  1  0
  9 45  1  0
  9 46  1  0
  9 47  1  0
 10 48  1  1
 11 49  1  0
 11 50  1  0
 12 51  1  0
 12 52  1  0
 14 53  1  0
 14 54  1  0
 14 55  1  0
 15 56  1  6
 16 57  1  0
 16 58  1  0
 17 59  1  0
 19 60  1  1
 20 61  1  0
 20 62  1  0
 21 63  1  0
 21 64  1  0
 22 65  1  1
 23 66  1  0
 25 67  1  0
 25 68  1  0
 25 69  1  0
 26 70  1  0
 26 71  1  0
 26 72  1  0
 28 73  1  0
 28 74  1  0
 28 75  1  0
 29 76  1  0
 29 77  1  0
 30 78  1  0
 30 79  1  0
 32 80  1  0
 32 81  1  0
 32 82  1  0
M  END
>  <meeko>  (17) 
{"is_sidechain": [false], "intermolecular_energy": 2.731, "internal_energy": -0.839}

$$$$
EPH_relaxed_0001_pdb2pqr_Repair_180_r2_0001_out
     RDKit          3D

 82 86  0  0  0  0  0  0  0  0999 V2000
   -3.2320   10.5900   -0.6180 C   0  0  0  0  0  0  0  0  0  0  0  0
   -1.7740   10.6280   -1.0840 C   0  0  2  0  0  0  0  0  0  0  0  0
   -1.0090    9.3440   -0.7050 C   0  0  0  0  0  0  0  0  0  0  0  0
   -0.0140    8.8820   -1.7740 C   0  0  0  0  0  0  0  0  0  0  0  0
    1.2370    9.7070   -1.7610 C   0  0  2  0  0  0  0  0  0  0  0  0
    2.4320    8.9870   -2.0910 O   0  0  0  0  0  0  0  0  0  0  0  0
    2.3570    9.5130   -0.7560 C   0  0  0  0  0  0  0  0  0  0  0  0
    2.2770    8.4630    0.3080 C   0  0  0  0  0  0  0  0  0  0  0  0
    3.2960   10.6510   -0.5020 C   0  0  0  0  0  0  0  0  0  0  0  0
   -1.0720   11.8460   -0.4950 C   0  0  1  0  0  0  0  0  0  0  0  0
    0.0360   11.4630    0.5220 C   0  0  0  0  0  0  0  0  0  0  0  0
    1.1690   12.5100    0.3660 C   0  0  0  0  0  0  0  0  0  0  0  0
    0.5410   13.6390   -0.4860 C   0  0  1  0  0  0  0  0  0  0  0  0
   -0.2820   14.4950    0.5260 C   0  0  0  0  0  0  0  0  0  0  0  0
    1.5380   14.5180   -1.3090 C   0  0  2  0  0  0  0  0  0  0  0  0
    2.5480   15.3190   -0.4700 C   0  0  0  0  0  0  0  0  0  0  0  0
    2.1050   16.6890   -0.0740 C   0  0  0  0  0  0  0  0  0  0  0  0
    1.0710   17.3620   -0.6120 C   0  0  0  0  0  0  0  0  0  0  0  0
    0.2860   16.7840   -1.7960 C   0  0  1  0  0  0  0  0  0  0  0  0
    0.0900   17.8840   -2.8730 C   0  0  0  0  0  0  0  0  0  0  0  0
   -0.5520   19.1480   -2.3090 C   0  0  0  0  0  0  0  0  0  0  0  0
    0.2880   19.7250   -1.1720 C   0  0  2  0  0  0  0  0  0  0  0  0
    1.5310   20.1900   -1.7070 O   0  0  0  0  0  0  0  0  0  0  0  0
    0.5600   18.7040   -0.0320 C   0  0  0  0  0  0  0  0  0  0  0  0
   -0.7520   18.4300    0.7450 C   0  0  0  0  0  0  0  0  0  0  0  0
    1.5330   19.3660    0.9810 C   0  0  0  0  0  0  0  0  0  0  0  0
    0.8470   15.4280   -2.4050 C   0  0  1  0  0  0  0  0  0  0  0  0
    1.9350   15.7360   -3.4780 C   0  0  0  0  0  0  0  0  0  0  0  0
   -0.3180   14.6800   -3.1550 C   0  0  0  0  0  0  0  0  0  0  0  0
   -1.1930   13.7330   -2.3110 C   0  0  0  0  0  0  0  0  0  0  0  0
   -0.3270   12.7830   -1.4790 C   0  0  2  0  0  0  0  0  0  0  0  0
    0.4970   11.8930   -2.4710 C   0  0  0  0  0  0  0  0  0  0  0  0
   -3.2656   10.5891    0.4815 H   0  0  0  0  0  0  0  0  0  0  0  0
   -3.7623   11.4746   -1.0004 H   0  0  0  0  0  0  0  0  0  0  0  0
   -3.7155    9.6789   -1.0004 H   0  0  0  0  0  0  0  0  0  0  0  0
   -1.7792   10.6965   -2.1819 H   0  0  0  0  0  0  0  0  0  0  0  0
   -0.4554    9.5318    0.2268 H   0  0  0  0  0  0  0  0  0  0  0  0
   -1.7568    8.5448   -0.5950 H   0  0  0  0  0  0  0  0  0  0  0  0
    0.2501    7.8311   -1.5846 H   0  0  0  0  0  0  0  0  0  0  0  0
   -0.4906    8.9977   -2.7586 H   0  0  0  0  0  0  0  0  0  0  0  0
    0.6798   10.5997   -2.0812 H   0  0  0  0  0  0  0  0  0  0  0  0
    2.3134    8.9408    1.2981 H   0  0  0  0  0  0  0  0  0  0  0  0
    1.3339    7.9066    0.2038 H   0  0  0  0  0  0  0  0  0  0  0  0
    3.1250    7.7701    0.2038 H   0  0  0  0  0  0  0  0  0  0  0  0
    3.4140   10.7940    0.5823 H   0  0  0  0  0  0  0  0  0  0  0  0
    4.2747   10.4260   -0.9508 H   0  0  0  0  0  0  0  0  0  0  0  0
    2.8892   11.5692   -0.9508 H   0  0  0  0  0  0  0  0  0  0  0  0
   -1.9389   12.3670   -0.0626 H   0  0  0  0  0  0  0  0  0  0  0  0
   -0.3648   11.4885    1.5461 H   0  0  0  0  0  0  0  0  0  0  0  0
    0.4100   10.4458    0.3336 H   0  0  0  0  0  0  0  0  0  0  0  0
    1.4821   12.8930    1.3485 H   0  0  0  0  0  0  0  0  0  0  0  0
    2.0690   12.0848   -0.1022 H   0  0  0  0  0  0  0  0  0  0  0  0
   -0.0092   14.2112    1.5532 H   0  0  0  0  0  0  0  0  0  0  0  0
   -0.0611   15.5611    0.3692 H   0  0  0  0  0  0  0  0  0  0  0  0
   -1.3560   14.3162    0.3692 H   0  0  0  0  0  0  0  0  0  0  0  0
    2.1295   13.7625   -1.8469 H   0  0  0  0  0  0  0  0  0  0  0  0
    2.7539   14.7498    0.4485 H   0  0  0  0  0  0  0  0  0  0  0  0
    3.4318   15.4584   -1.1098 H   0  0  0  0  0  0  0  0  0  0  0  0
    2.6714   17.1903    0.7246 H   0  0  0  0  0  0  0  0  0  0  0  0
   -0.6902   16.4771   -1.3925 H   0  0  0  0  0  0  0  0  0  0  0  0
    1.0725   18.1450   -3.2932 H   0  0  0  0  0  0  0  0  0  0  0  0
   -0.5855   17.4813   -3.6421 H   0  0  0  0  0  0  0  0  0  0  0  0
   -0.6369   19.8971   -3.1101 H   0  0  0  0  0  0  0  0  0  0  0  0
   -1.5468   18.8915   -1.9158 H   0  0  0  0  0  0  0  0  0  0  0  0
   -0.2856   20.5500   -0.7244 H   0  0  0  0  0  0  0  0  0  0  0  0
    2.0300   19.4130   -2.0100 H   0  0  0  0  0  0  0  0  0  0  0  0
   -0.5534   18.4715    1.8261 H   0  0  0  0  0  0  0  0  0  0  0  0
   -1.5007   19.1912    0.4803 H   0  0  0  0  0  0  0  0  0  0  0  0
   -1.1335   17.4328    0.4803 H   0  0  0  0  0  0  0  0  0  0  0  0
    1.2034   19.1417    2.0062 H   0  0  0  0  0  0  0  0  0  0  0  0
    2.5477   18.9700    0.8272 H   0  0  0  0  0  0  0  0  0  0  0  0
    1.5372   20.4552    0.8272 H   0  0  0  0  0  0  0  0  0  0  0  0
    2.8778   16.0029   -2.9781 H   0  0  0  0  0  0  0  0  0  0  0  0
    2.0921   14.8470   -4.1065 H   0  0  0  0  0  0  0  0  0  0  0  0
    1.6028   16.5754   -4.1065 H   0  0  0  0  0  0  0  0  0  0  0  0
   -0.9787   15.4445   -3.5896 H   0  0  0  0  0  0  0  0  0  0  0  0
    0.1823   14.0314   -3.8892 H   0  0  0  0  0  0  0  0  0  0  0  0
   -1.8224   14.3309   -1.6355 H   0  0  0  0  0  0  0  0  0  0  0  0
   -1.8179   13.1343   -2.9900 H   0  0  0  0  0  0  0  0  0  0  0  0
    1.1359   11.2029   -1.9004 H   0  0  0  0  0  0  0  0  0  0  0  0
   -0.1923   11.3155   -3.1045 H   0  0  0  0  0  0  0  0  0  0  0  0
    1.1258   12.5358   -3.1045 H   0  0  0  0  0  0  0  0  0  0  0  0
  1  2  1  0
  2  3  1  0
  3  4  1  0
  4  5  1  0
  5  6  1  0
  6  7  1  0
  7  8  1  0
  7  9  1  0
  2 10  1  0
 10 11  1  0
 11 12  1  0
 12 13  1  0
 13 14  1  1
 13 15  1  0
 15 16  1  0
 16 17  1  0
 17 18  2  0
 18 19  1  0
 19 20  1  0
 20 21  1  0
 21 22  1  0
 22 23  1  0
 22 24  1  0
 24 25  1  0
 24 26  1  0
 19 27  1  0
 27 28  1  6
 27 29  1  0
 29 30  1  0
 30 31  1  0
 31 32  1  6
  7  5  1  0
 31 10  1  0
 31 13  1  0
 27 15  1  0
 24 18  1  0
  1 33  1  0
  1 34  1  0
  1 35  1  0
  2 36  1  6
  3 37  1  0
  3 38  1  0
  4 39  1  0
  4 40  1  0
  5 41  1  6
  8 42  1  0
  8 43  1  0
  8 44  1  0
  9 45  1  0
  9 46  1  0
  9 47  1  0
 10 48  1  1
 11 49  1  0
 11 50  1  0
 12 51  1  0
 12 52  1  0
 14 53  1  0
 14 54  1  0
 14 55  1  0
 15 56  1  6
 16 57  1  0
 16 58  1  0
 17 59  1  0
 19 60  1  1
 20 61  1  0
 20 62  1  0
 21 63  1  0
 21 64  1  0
 22 65  1  1
 23 66  1  0
 25 67  1  0
 25 68  1  0
 25 69  1  0
 26 70  1  0
 26 71  1  0
 26 72  1  0
 28 73  1  0
 28 74  1  0
 28 75  1  0
 29 76  1  0
 29 77  1  0
 30 78  1  0
 30 79  1  0
 32 80  1  0
 32 81  1  0
 32 82  1  0
M  END
>  <meeko>  (18) 
{"is_sidechain": [false], "intermolecular_energy": 2.731, "internal_energy": -0.839}

$$$$
EPH_relaxed_0001_pdb2pqr_Repair_180_r2_0001_out
     RDKit          3D

 82 86  0  0  0  0  0  0  0  0999 V2000
    3.5750   17.9410    0.7510 C   0  0  0  0  0  0  0  0  0  0  0  0
    2.5280   18.2420   -0.3250 C   0  0  2  0  0  0  0  0  0  0  0  0
    1.8510   19.6100   -0.1100 C   0  0  0  0  0  0  0  0  0  0  0  0
    0.8670   19.6330    1.0630 C   0  0  0  0  0  0  0  0  0  0  0  0
   -0.5010   20.0650    0.6310 C   0  0  2  0  0  0  0  0  0  0  0  0
   -1.4560   20.1840    1.6940 O   0  0  0  0  0  0  0  0  0  0  0  0
   -1.7250   19.1720    0.7110 C   0  0  0  0  0  0  0  0  0  0  0  0
   -1.6370   17.7740    1.2380 C   0  0  0  0  0  0  0  0  0  0  0  0
   -2.8960   19.4820   -0.1680 C   0  0  0  0  0  0  0  0  0  0  0  0
    1.4760   17.1390   -0.3490 C   0  0  1  0  0  0  0  0  0  0  0  0
    0.1220   17.6170   -0.9380 C   0  0  0  0  0  0  0  0  0  0  0  0
   -0.4790   16.4140   -1.7090 C   0  0  0  0  0  0  0  0  0  0  0  0
    0.3720   15.2010   -1.2670 C   0  0  1  0  0  0  0  0  0  0  0  0
   -0.2220   14.7760    0.1130 C   0  0  0  0  0  0  0  0  0  0  0  0
    0.4340   13.9990   -2.2640 C   0  0  2  0  0  0  0  0  0  0  0  0
   -0.9160   13.3160   -2.5470 C   0  0  0  0  0  0  0  0  0  0  0  0
   -1.2580   12.1810   -1.6390 C   0  0  0  0  0  0  0  0  0  0  0  0
   -0.3970   11.5440   -0.8240 C   0  0  0  0  0  0  0  0  0  0  0  0
    1.0980   11.8900   -0.8320 C   0  0  1  0  0  0  0  0  0  0  0  0
    1.9310   10.5820   -0.8670 C   0  0  0  0  0  0  0  0  0  0  0  0
    1.5610    9.6220    0.2590 C   0  0  0  0  0  0  0  0  0  0  0  0
    0.0800    9.2560    0.1990 C   0  0  2  0  0  0  0  0  0  0  0  0
   -0.1580    8.4910   -0.9860 O   0  0  0  0  0  0  0  0  0  0  0  0
   -0.8580   10.4950    0.2180 C   0  0  0  0  0  0  0  0  0  0  0  0
   -0.8230   11.1540    1.6190 C   0  0  0  0  0  0  0  0  0  0  0  0
   -2.3130    9.9950    0.0100 C   0  0  0  0  0  0  0  0  0  0  0  0
    1.5600   12.9390   -1.9330 C   0  0  1  0  0  0  0  0  0  0  0  0
    1.8840   12.2010   -3.2680 C   0  0  0  0  0  0  0  0  0  0  0  0
    2.9020   13.6170   -1.4650 C   0  0  0  0  0  0  0  0  0  0  0  0
    2.7740   14.8710   -0.5790 C   0  0  0  0  0  0  0  0  0  0  0  0
    1.7900   15.8750   -1.1890 C   0  0  2  0  0  0  0  0  0  0  0  0
    2.3730   16.3380   -2.5670 C   0  0  0  0  0  0  0  0  0  0  0  0
    3.1253   18.0703    1.7465 H   0  0  0  0  0  0  0  0  0  0  0  0
    3.9278   16.9051    0.6397 H   0  0  0  0  0  0  0  0  0  0  0  0
    4.4241   18.6314    0.6397 H   0  0  0  0  0  0  0  0  0  0  0  0
    3.0497   18.2802   -1.2927 H   0  0  0  0  0  0  0  0  0  0  0  0
    2.6341   20.3590    0.0791 H   0  0  0  0  0  0  0  0  0  0  0  0
    1.2718   19.8282   -1.0194 H   0  0  0  0  0  0  0  0  0  0  0  0
    0.8023   18.6229    1.4938 H   0  0  0  0  0  0  0  0  0  0  0  0
    1.2360   20.3557    1.8057 H   0  0  0  0  0  0  0  0  0  0  0  0
   -0.0777   20.6655   -0.1877 H   0  0  0  0  0  0  0  0  0  0  0  0
   -1.6384   17.7960    2.3378 H   0  0  0  0  0  0  0  0  0  0  0  0
   -2.5003   17.1928    0.8818 H   0  0  0  0  0  0  0  0  0  0  0  0
   -0.7076   17.3057    0.8818 H   0  0  0  0  0  0  0  0  0  0  0  0
   -3.7717   19.7138    0.4560 H   0  0  0  0  0  0  0  0  0  0  0  0
   -2.6586   20.3482   -0.8030 H   0  0  0  0  0  0  0  0  0  0  0  0
   -3.1183   18.6118   -0.8030 H   0  0  0  0  0  0  0  0  0  0  0  0
    1.4520   16.8840    0.7208 H   0  0  0  0  0  0  0  0  0  0  0  0
   -0.5559   17.9250   -0.1283 H   0  0  0  0  0  0  0  0  0  0  0  0
    0.2635   18.4818   -1.6029 H   0  0  0  0  0  0  0  0  0  0  0  0
   -1.5347   16.2671   -1.4371 H   0  0  0  0  0  0  0  0  0  0  0  0
   -0.4561   16.5641   -2.7985 H   0  0  0  0  0  0  0  0  0  0  0  0
    0.3840   15.2096    0.9222 H   0  0  0  0  0  0  0  0  0  0  0  0
   -1.2568   15.1399    0.1945 H   0  0  0  0  0  0  0  0  0  0  0  0
   -0.2116   13.6791    0.1945 H   0  0  0  0  0  0  0  0  0  0  0  0
    0.7246   14.4884   -3.2053 H   0  0  0  0  0  0  0  0  0  0  0  0
   -1.7069   14.0750   -2.4555 H   0  0  0  0  0  0  0  0  0  0  0  0
   -0.8342   12.8853   -3.5559 H   0  0  0  0  0  0  0  0  0  0  0  0
   -2.3025   11.8362   -1.6360 H   0  0  0  0  0  0  0  0  0  0  0  0
    1.2916   12.4302    0.1065 H   0  0  0  0  0  0  0  0  0  0  0  0
    1.7577   10.0794   -1.8300 H   0  0  0  0  0  0  0  0  0  0  0  0
    2.9884   10.8563   -0.7377 H   0  0  0  0  0  0  0  0  0  0  0  0
    2.1624    8.7060    0.1633 H   0  0  0  0  0  0  0  0  0  0  0  0
    1.7622   10.1153    1.2214 H   0  0  0  0  0  0  0  0  0  0  0  0
   -0.1526    8.6724    1.1019 H   0  0  0  0  0  0  0  0  0  0  0  0
   -0.6580    9.0510   -1.6030 H   0  0  0  0  0  0  0  0  0  0  0  0
   -0.8645   10.3731    2.3926 H   0  0  0  0  0  0  0  0  0  0  0  0
    0.1070   11.7308    1.7297 H   0  0  0  0  0  0  0  0  0  0  0  0
   -1.6867   11.8261    1.7297 H   0  0  0  0  0  0  0  0  0  0  0  0
   -2.7880    9.8318    0.9886 H   0  0  0  0  0  0  0  0  0  0  0  0
   -2.8828   10.7489   -0.5530 H   0  0  0  0  0  0  0  0  0  0  0  0
   -2.2990    9.0501   -0.5530 H   0  0  0  0  0  0  0  0  0  0  0  0
    2.3171   11.2145   -3.0459 H   0  0  0  0  0  0  0  0  0  0  0  0
    0.9594   12.0729   -3.8499 H   0  0  0  0  0  0  0  0  0  0  0  0
    2.6041   12.7950   -3.8499 H   0  0  0  0  0  0  0  0  0  0  0  0
    3.4744   12.8669   -0.8995 H   0  0  0  0  0  0  0  0  0  0  0  0
    3.3863   13.9654   -2.3892 H   0  0  0  0  0  0  0  0  0  0  0  0
    2.4133   14.5730    0.4165 H   0  0  0  0  0  0  0  0  0  0  0  0
    3.7616   15.3494   -0.5032 H   0  0  0  0  0  0  0  0  0  0  0  0
    3.2240   17.0138   -2.3966 H   0  0  0  0  0  0  0  0  0  0  0  0
    2.7108   15.4593   -3.1361 H   0  0  0  0  0  0  0  0  0  0  0  0
    1.5937   16.8660   -3.1361 H   0  0  0  0  0  0  0  0  0  0  0  0
  1  2  1  0
  2  3  1  0
  3  4  1  0
  4  5  1  0
  5  6  1  0
  6  7  1  0
  7  8  1  0
  7  9  1  0
  2 10  1  0
 10 11  1  0
 11 12  1  0
 12 13  1  0
 13 14  1  1
 13 15  1  0
 15 16  1  0
 16 17  1  0
 17 18  2  0
 18 19  1  0
 19 20  1  0
 20 21  1  0
 21 22  1  0
 22 23  1  0
 22 24  1  0
 24 25  1  0
 24 26  1  0
 19 27  1  0
 27 28  1  6
 27 29  1  0
 29 30  1  0
 30 31  1  0
 31 32  1  6
  7  5  1  0
 31 10  1  0
 31 13  1  0
 27 15  1  0
 24 18  1  0
  1 33  1  0
  1 34  1  0
  1 35  1  0
  2 36  1  6
  3 37  1  0
  3 38  1  0
  4 39  1  0
  4 40  1  0
  5 41  1  6
  8 42  1  0
  8 43  1  0
  8 44  1  0
  9 45  1  0
  9 46  1  0
  9 47  1  0
 10 48  1  1
 11 49  1  0
 11 50  1  0
 12 51  1  0
 12 52  1  0
 14 53  1  0
 14 54  1  0
 14 55  1  0
 15 56  1  6
 16 57  1  0
 16 58  1  0
 17 59  1  0
 19 60  1  1
 20 61  1  0
 20 62  1  0
 21 63  1  0
 21 64  1  0
 22 65  1  1
 23 66  1  0
 25 67  1  0
 25 68  1  0
 25 69  1  0
 26 70  1  0
 26 71  1  0
 26 72  1  0
 28 73  1  0
 28 74  1  0
 28 75  1  0
 29 76  1  0
 29 77  1  0
 30 78  1  0
 30 79  1  0
 32 80  1  0
 32 81  1  0
 32 82  1  0
M  END
>  <meeko>  (19) 
{"is_sidechain": [false], "intermolecular_energy": 2.731, "internal_energy": -0.839}

$$$$
EPH_relaxed_0001_pdb2pqr_Repair_180_r2_0001_out
     RDKit          3D

 82 86  0  0  0  0  0  0  0  0999 V2000
  -11.4130    9.1140   -2.6010 C   0  0  0  0  0  0  0  0  0  0  0  0
  -10.7640    7.7640   -2.2820 C   0  0  2  0  0  0  0  0  0  0  0  0
  -11.7120    6.8350   -1.4980 C   0  0  0  0  0  0  0  0  0  0  0  0
  -13.1950    7.1710   -1.6820 C   0  0  0  0  0  0  0  0  0  0  0  0
  -13.8530    7.5060   -0.3780 C   0  0  2  0  0  0  0  0  0  0  0  0
  -15.2860    7.4850   -0.4080 O   0  0  0  0  0  0  0  0  0  0  0  0
  -14.6770    8.7610   -0.1550 C   0  0  0  0  0  0  0  0  0  0  0  0
  -14.8850    9.7620   -1.2480 C   0  0  0  0  0  0  0  0  0  0  0  0
  -14.8670    9.2520    1.2460 C   0  0  0  0  0  0  0  0  0  0  0  0
   -9.4760    7.9790   -1.4960 C   0  0  1  0  0  0  0  0  0  0  0  0
   -9.6560    7.7270    0.0250 C   0  0  0  0  0  0  0  0  0  0  0  0
   -8.3290    7.1100    0.5360 C   0  0  0  0  0  0  0  0  0  0  0  0
   -7.3250    7.3320   -0.6190 C   0  0  1  0  0  0  0  0  0  0  0  0
   -6.8470    8.8090   -0.4560 C   0  0  0  0  0  0  0  0  0  0  0  0
   -6.1190    6.3390   -0.6870 C   0  0  2  0  0  0  0  0  0  0  0  0
   -5.1740    6.3760    0.5270 C   0  0  0  0  0  0  0  0  0  0  0  0
   -4.0320    7.3310    0.4170 C   0  0  0  0  0  0  0  0  0  0  0  0
   -3.6090    7.9180   -0.7180 C   0  0  0  0  0  0  0  0  0  0  0  0
   -4.2400    7.5620   -2.0710 C   0  0  1  0  0  0  0  0  0  0  0  0
   -3.1200    7.3230   -3.1170 C   0  0  0  0  0  0  0  0  0  0  0  0
   -2.1520    8.4980   -3.2160 C   0  0  0  0  0  0  0  0  0  0  0  0
   -1.5020    8.7840   -1.8650 C   0  0  2  0  0  0  0  0  0  0  0  0
   -0.6570    7.6820   -1.5180 O   0  0  0  0  0  0  0  0  0  0  0  0
   -2.5330    9.0310   -0.7290 C   0  0  0  0  0  0  0  0  0  0  0  0
   -3.2410   10.3900   -0.9550 C   0  0  0  0  0  0  0  0  0  0  0  0
   -1.7500    9.1660    0.6050 C   0  0  0  0  0  0  0  0  0  0  0  0
   -5.3140    6.3900   -2.0480 C   0  0  1  0  0  0  0  0  0  0  0  0
   -4.6000    5.0120   -2.1950 C   0  0  0  0  0  0  0  0  0  0  0  0
   -6.2600    6.5360   -3.2980 C   0  0  0  0  0  0  0  0  0  0  0  0
   -7.4990    7.4360   -3.1300 C   0  0  0  0  0  0  0  0  0  0  0  0
   -8.2660    7.0810   -1.8530 C   0  0  2  0  0  0  0  0  0  0  0  0
   -8.7780    5.6070   -1.9970 C   0  0  0  0  0  0  0  0  0  0  0  0
  -11.6620    9.6319   -1.6630 H   0  0  0  0  0  0  0  0  0  0  0  0
  -10.7121    9.7290   -3.1845 H   0  0  0  0  0  0  0  0  0  0  0  0
  -12.3310    8.9507   -3.1845 H   0  0  0  0  0  0  0  0  0  0  0  0
  -10.5369    7.2715   -3.2390 H   0  0  0  0  0  0  0  0  0  0  0  0
  -11.5453    5.8021   -1.8376 H   0  0  0  0  0  0  0  0  0  0  0  0
  -11.4823    6.9682   -0.4305 H   0  0  0  0  0  0  0  0  0  0  0  0
  -13.2838    8.0340   -2.3583 H   0  0  0  0  0  0  0  0  0  0  0  0
  -13.6973    6.2874   -2.1027 H   0  0  0  0  0  0  0  0  0  0  0  0
  -13.0189    7.0611    0.1845 H   0  0  0  0  0  0  0  0  0  0  0  0
  -15.0900   10.7488   -0.8073 H   0  0  0  0  0  0  0  0  0  0  0  0
  -13.9796    9.8192   -1.8700 H   0  0  0  0  0  0  0  0  0  0  0  0
  -15.7383    9.4537   -1.8700 H   0  0  0  0  0  0  0  0  0  0  0  0
  -14.5632    8.4669    1.9540 H   0  0  0  0  0  0  0  0  0  0  0  0
  -14.2511   10.1491    1.4068 H   0  0  0  0  0  0  0  0  0  0  0  0
  -15.9263    9.5009    1.4068 H   0  0  0  0  0  0  0  0  0  0  0  0
   -9.2638    9.0224   -1.7720 H   0  0  0  0  0  0  0  0  0  0  0  0
   -9.8578    8.6752    0.5448 H   0  0  0  0  0  0  0  0  0  0  0  0
  -10.5043    7.0533    0.2161 H   0  0  0  0  0  0  0  0  0  0  0  0
   -7.9895    7.6209    1.4491 H   0  0  0  0  0  0  0  0  0  0  0  0
   -8.4366    6.0467    0.7965 H   0  0  0  0  0  0  0  0  0  0  0  0
   -6.7681    9.0529    0.6137 H   0  0  0  0  0  0  0  0  0  0  0  0
   -5.8635    8.9309   -0.9334 H   0  0  0  0  0  0  0  0  0  0  0  0
   -7.5726    9.4840   -0.9334 H   0  0  0  0  0  0  0  0  0  0  0  0
   -6.6174    5.3592   -0.6475 H   0  0  0  0  0  0  0  0  0  0  0  0
   -5.7666    6.6551    1.4107 H   0  0  0  0  0  0  0  0  0  0  0  0
   -4.7268    5.3733    0.5953 H   0  0  0  0  0  0  0  0  0  0  0  0
   -3.4900    7.5759    1.3423 H   0  0  0  0  0  0  0  0  0  0  0  0
   -4.8447    8.4330   -2.3638 H   0  0  0  0  0  0  0  0  0  0  0  0
   -2.5551    6.4239   -2.8297 H   0  0  0  0  0  0  0  0  0  0  0  0
   -3.6004    7.2024   -4.0992 H   0  0  0  0  0  0  0  0  0  0  0  0
   -1.3679    8.2578   -3.9492 H   0  0  0  0  0  0  0  0  0  0  0  0
   -2.7132    9.3899   -3.5316 H   0  0  0  0  0  0  0  0  0  0  0  0
   -0.9215    9.7127   -1.9678 H   0  0  0  0  0  0  0  0  0  0  0  0
   -1.0630    6.8760   -1.8780 H   0  0  0  0  0  0  0  0  0  0  0  0
   -3.4785   10.8459    0.0175 H   0  0  0  0  0  0  0  0  0  0  0  0
   -2.5771   11.0596   -1.5215 H   0  0  0  0  0  0  0  0  0  0  0  0
   -4.1702   10.2296   -1.5215 H   0  0  0  0  0  0  0  0  0  0  0  0
   -2.4432    9.0465    1.4507 H   0  0  0  0  0  0  0  0  0  0  0  0
   -0.9735    8.3885    0.6547 H   0  0  0  0  0  0  0  0  0  0  0  0
   -1.2787   10.1587    0.6547 H   0  0  0  0  0  0  0  0  0  0  0  0
   -4.3871    4.6011   -1.1971 H   0  0  0  0  0  0  0  0  0  0  0  0
   -5.2520    4.3181   -2.7458 H   0  0  0  0  0  0  0  0  0  0  0  0
   -3.6571    5.1445   -2.7458 H   0  0  0  0  0  0  0  0  0  0  0  0
   -5.6599    6.9466   -4.1234 H   0  0  0  0  0  0  0  0  0  0  0  0
   -6.6594    5.5267   -3.4762 H   0  0  0  0  0  0  0  0  0  0  0  0
   -7.1761    8.4861   -3.0755 H   0  0  0  0  0  0  0  0  0  0  0  0
   -8.1639    7.2816   -3.9926 H   0  0  0  0  0  0  0  0  0  0  0  0
   -8.9291    5.1721   -0.9980 H   0  0  0  0  0  0  0  0  0  0  0  0
   -9.7306    5.6018   -2.5470 H   0  0  0  0  0  0  0  0  0  0  0  0
   -8.0337    5.0124   -2.5470 H   0  0  0  0  0  0  0  0  0  0  0  0
  1  2  1  0
  2  3  1  0
  3  4  1  0
  4  5  1  0
  5  6  1  0
  6  7  1  0
  7  8  1  0
  7  9  1  0
  2 10  1  0
 10 11  1  0
 11 12  1  0
 12 13  1  0
 13 14  1  6
 13 15  1  0
 15 16  1  0
 16 17  1  0
 17 18  2  0
 18 19  1  0
 19 20  1  0
 20 21  1  0
 21 22  1  0
 22 23  1  0
 22 24  1  0
 24 25  1  0
 24 26  1  0
 19 27  1  0
 27 28  1  6
 27 29  1  0
 29 30  1  0
 30 31  1  0
 31 32  1  6
  7  5  1  0
 31 10  1  0
 31 13  1  0
 27 15  1  0
 24 18  1  0
  1 33  1  0
  1 34  1  0
  1 35  1  0
  2 36  1  6
  3 37  1  0
  3 38  1  0
  4 39  1  0
  4 40  1  0
  5 41  1  1
  8 42  1  0
  8 43  1  0
  8 44  1  0
  9 45  1  0
  9 46  1  0
  9 47  1  0
 10 48  1  1
 11 49  1  0
 11 50  1  0
 12 51  1  0
 12 52  1  0
 14 53  1  0
 14 54  1  0
 14 55  1  0
 15 56  1  6
 16 57  1  0
 16 58  1  0
 17 59  1  0
 19 60  1  6
 20 61  1  0
 20 62  1  0
 21 63  1  0
 21 64  1  0
 22 65  1  6
 23 66  1  0
 25 67  1  0
 25 68  1  0
 25 69  1  0
 26 70  1  0
 26 71  1  0
 26 72  1  0
 28 73  1  0
 28 74  1  0
 28 75  1  0
 29 76  1  0
 29 77  1  0
 30 78  1  0
 30 79  1  0
 32 80  1  0
 32 81  1  0
 32 82  1  0
M  END
>  <meeko>  (20) 
{"is_sidechain": [false], "intermolecular_energy": 2.731, "internal_energy": -0.839}

$$$$
