EPH_relaxed_0001_pdb2pqr_Repair_140_r2_0001_out
     RDKit          3D

 82 86  0  0  0  0  0  0  0  0999 V2000
   -1.6840    8.5850   -1.8840 C   0  0  0  0  0  0  0  0  0  0  0  0
   -2.0620    9.1020   -0.4940 C   0  0  2  0  0  0  0  0  0  0  0  0
   -3.5570    9.4650   -0.3960 C   0  0  0  0  0  0  0  0  0  0  0  0
   -4.4790    8.2480   -0.2780 C   0  0  0  0  0  0  0  0  0  0  0  0
   -5.1690    7.9490   -1.5750 C   0  0  2  0  0  0  0  0  0  0  0  0
   -6.3590    8.7130   -1.8110 O   0  0  0  0  0  0  0  0  0  0  0  0
   -6.5360    7.2950   -1.6640 C   0  0  0  0  0  0  0  0  0  0  0  0
   -7.2930    6.9000   -0.4350 C   0  0  0  0  0  0  0  0  0  0  0  0
   -6.9150    6.6000   -2.9340 C   0  0  0  0  0  0  0  0  0  0  0  0
   -1.2080   10.3150   -0.1410 C   0  0  1  0  0  0  0  0  0  0  0  0
   -0.1670   10.0090    0.9690 C   0  0  0  0  0  0  0  0  0  0  0  0
    1.0960   10.8470    0.6400 C   0  0  0  0  0  0  0  0  0  0  0  0
    0.6290   11.8470   -0.4430 C   0  0  1  0  0  0  0  0  0  0  0  0
   -0.0790   12.9920    0.3470 C   0  0  0  0  0  0  0  0  0  0  0  0
    1.7380   12.4030   -1.3940 C   0  0  2  0  0  0  0  0  0  0  0  0
    2.8410   13.2220   -0.7020 C   0  0  0  0  0  0  0  0  0  0  0  0
    2.5820   14.6900   -0.6070 C   0  0  0  0  0  0  0  0  0  0  0  0
    1.6500   15.3660   -1.3040 C   0  0  0  0  0  0  0  0  0  0  0  0
    0.8020   14.6630   -2.3720 C   0  0  1  0  0  0  0  0  0  0  0  0
    0.7600   15.5340   -3.6560 C   0  0  0  0  0  0  0  0  0  0  0  0
    0.2890   16.9580   -3.3810 C   0  0  0  0  0  0  0  0  0  0  0  0
    1.1920   17.6430   -2.3580 C   0  0  2  0  0  0  0  0  0  0  0  0
    2.4880   17.8240   -2.9350 O   0  0  0  0  0  0  0  0  0  0  0  0
    1.3180   16.8520   -1.0260 C   0  0  0  0  0  0  0  0  0  0  0  0
   -0.0230   16.9150   -0.2540 C   0  0  0  0  0  0  0  0  0  0  0  0
    2.3650   17.5780   -0.1370 C   0  0  0  0  0  0  0  0  0  0  0  0
    1.1810   13.1490   -2.6740 C   0  0  1  0  0  0  0  0  0  0  0  0
    2.3070   13.0870   -3.7510 C   0  0  0  0  0  0  0  0  0  0  0  0
   -0.0680   12.4200   -3.2950 C   0  0  0  0  0  0  0  0  0  0  0  0
   -1.0660   11.7880   -2.3060 C   0  0  0  0  0  0  0  0  0  0  0  0
   -0.3400   10.9250   -1.2690 C   0  0  2  0  0  0  0  0  0  0  0  0
    0.3640    9.7520   -2.0330 C   0  0  0  0  0  0  0  0  0  0  0  0
   -1.0375    7.7008   -1.7830 H   0  0  0  0  0  0  0  0  0  0  0  0
   -2.5964    8.3112   -2.4340 H   0  0  0  0  0  0  0  0  0  0  0  0
   -1.1464    9.3714   -2.4340 H   0  0  0  0  0  0  0  0  0  0  0  0
   -1.8714    8.2906    0.2238 H   0  0  0  0  0  0  0  0  0  0  0  0
   -3.7031   10.0988    0.4911 H   0  0  0  0  0  0  0  0  0  0  0  0
   -3.8244    9.9819   -1.3295 H   0  0  0  0  0  0  0  0  0  0  0  0
   -3.8800    7.3739    0.0172 H   0  0  0  0  0  0  0  0  0  0  0  0
   -5.2477    8.4712    0.4765 H   0  0  0  0  0  0  0  0  0  0  0  0
   -4.2085    7.7210   -2.0603 H   0  0  0  0  0  0  0  0  0  0  0  0
   -6.7234    7.1972    0.4579 H   0  0  0  0  0  0  0  0  0  0  0  0
   -8.2715    7.4025   -0.4297 H   0  0  0  0  0  0  0  0  0  0  0  0
   -7.4405    5.8100   -0.4297 H   0  0  0  0  0  0  0  0  0  0  0  0
   -7.4292    5.6570   -2.6966 H   0  0  0  0  0  0  0  0  0  0  0  0
   -7.5857    7.2461   -3.5195 H   0  0  0  0  0  0  0  0  0  0  0  0
   -6.0087    6.3861   -3.5195 H   0  0  0  0  0  0  0  0  0  0  0  0
   -2.0000   11.0215    0.1479 H   0  0  0  0  0  0  0  0  0  0  0  0
   -0.5666   10.2961    1.9528 H   0  0  0  0  0  0  0  0  0  0  0  0
    0.0692    8.9352    1.0043 H   0  0  0  0  0  0  0  0  0  0  0  0
    1.4518   11.3805    1.5337 H   0  0  0  0  0  0  0  0  0  0  0  0
    1.9339   10.2220    0.2974 H   0  0  0  0  0  0  0  0  0  0  0  0
    0.0307   12.8145    1.4270 H   0  0  0  0  0  0  0  0  0  0  0  0
    0.3806   13.9565    0.0854 H   0  0  0  0  0  0  0  0  0  0  0  0
   -1.1472   13.0118    0.0854 H   0  0  0  0  0  0  0  0  0  0  0  0
    2.2267   11.4833   -1.7481 H   0  0  0  0  0  0  0  0  0  0  0  0
    2.9639   12.8319    0.3191 H   0  0  0  0  0  0  0  0  0  0  0  0
    3.7393   13.1116   -1.3272 H   0  0  0  0  0  0  0  0  0  0  0  0
    3.2056   15.2673    0.0915 H   0  0  0  0  0  0  0  0  0  0  0  0
   -0.2088   14.5744   -1.9472 H   0  0  0  0  0  0  0  0  0  0  0  0
    1.7707   15.5741   -4.0882 H   0  0  0  0  0  0  0  0  0  0  0  0
    0.0415   15.0725   -4.3493 H   0  0  0  0  0  0  0  0  0  0  0  0
    0.3086   17.5313   -4.3196 H   0  0  0  0  0  0  0  0  0  0  0  0
   -0.7331   16.9179   -2.9763 H   0  0  0  0  0  0  0  0  0  0  0  0
    0.7315   18.6097   -2.1062 H   0  0  0  0  0  0  0  0  0  0  0  0
    3.0230   17.0450   -2.7070 H   0  0  0  0  0  0  0  0  0  0  0  0
    0.1759   16.9057    0.8278 H   0  0  0  0  0  0  0  0  0  0  0  0
   -0.5566   17.8392   -0.5207 H   0  0  0  0  0  0  0  0  0  0  0  0
   -0.6409   16.0449   -0.5207 H   0  0  0  0  0  0  0  0  0  0  0  0
    2.1244   17.4112    0.9233 H   0  0  0  0  0  0  0  0  0  0  0  0
    3.3677   17.1804   -0.3524 H   0  0  0  0  0  0  0  0  0  0  0  0
    2.3442   18.6565   -0.3524 H   0  0  0  0  0  0  0  0  0  0  0  0
    3.2870   13.0330   -3.2542 H   0  0  0  0  0  0  0  0  0  0  0  0
    2.1648   12.1953   -4.3792 H   0  0  0  0  0  0  0  0  0  0  0  0
    2.2635   13.9889   -4.3792 H   0  0  0  0  0  0  0  0  0  0  0  0
   -0.6184   13.1577   -3.8974 H   0  0  0  0  0  0  0  0  0  0  0  0
    0.3458   11.5755   -3.8656 H   0  0  0  0  0  0  0  0  0  0  0  0
   -1.6142   12.5884   -1.7875 H   0  0  0  0  0  0  0  0  0  0  0  0
   -1.7604   11.1479   -2.8701 H   0  0  0  0  0  0  0  0  0  0  0  0
    0.7890    9.0439   -1.3063 H   0  0  0  0  0  0  0  0  0  0  0  0
   -0.3715    9.2321   -2.6645 H   0  0  0  0  0  0  0  0  0  0  0  0
    1.1687   10.1565   -2.6645 H   0  0  0  0  0  0  0  0  0  0  0  0
  1  2  1  0
  2  3  1  0
  3  4  1  0
  4  5  1  0
  5  6  1  0
  6  7  1  0
  7  8  1  0
  7  9  1  0
  2 10  1  0
 10 11  1  0
 11 12  1  0
 12 13  1  0
 13 14  1  1
 13 15  1  0
 15 16  1  0
 16 17  1  0
 17 18  2  0
 18 19  1  0
 19 20  1  0
 20 21  1  0
 21 22  1  0
 22 23  1  0
 22 24  1  0
 24 25  1  0
 24 26  1  0
 19 27  1  0
 27 28  1  6
 27 29  1  0
 29 30  1  0
 30 31  1  0
 31 32  1  6
  7  5  1  0
 31 10  1  0
 31 13  1  0
 27 15  1  0
 24 18  1  0
  1 33  1  0
  1 34  1  0
  1 35  1  0
  2 36  1  1
  3 37  1  0
  3 38  1  0
  4 39  1  0
  4 40  1  0
  5 41  1  6
  8 42  1  0
  8 43  1  0
  8 44  1  0
  9 45  1  0
  9 46  1  0
  9 47  1  0
 10 48  1  1
 11 49  1  0
 11 50  1  0
 12 51  1  0
 12 52  1  0
 14 53  1  0
 14 54  1  0
 14 55  1  0
 15 56  1  6
 16 57  1  0
 16 58  1  0
 17 59  1  0
 19 60  1  1
 20 61  1  0
 20 62  1  0
 21 63  1  0
 21 64  1  0
 22 65  1  1
 23 66  1  0
 25 67  1  0
 25 68  1  0
 25 69  1  0
 26 70  1  0
 26 71  1  0
 26 72  1  0
 28 73  1  0
 28 74  1  0
 28 75  1  0
 29 76  1  0
 29 77  1  0
 30 78  1  0
 30 79  1  0
 32 80  1  0
 32 81  1  0
 32 82  1  0
M  END
>  <meeko>  (1) 
{"is_sidechain": [false], "intermolecular_energy": 2.731, "internal_energy": -0.839}

$$$$
EPH_relaxed_0001_pdb2pqr_Repair_140_r2_0001_out
     RDKit          3D

 82 86  0  0  0  0  0  0  0  0999 V2000
    0.4250   18.3840    0.0080 C   0  0  0  0  0  0  0  0  0  0  0  0
    1.5110   17.3280   -0.2210 C   0  0  2  0  0  0  0  0  0  0  0  0
    2.7200   17.8960   -0.9900 C   0  0  0  0  0  0  0  0  0  0  0  0
    3.9510   18.1360   -0.1120 C   0  0  0  0  0  0  0  0  0  0  0  0
    3.5710   18.6300    1.2510 C   0  0  2  0  0  0  0  0  0  0  0  0
    3.8070   20.0270    1.4690 O   0  0  0  0  0  0  0  0  0  0  0  0
    4.5790   19.1220    2.2730 C   0  0  0  0  0  0  0  0  0  0  0  0
    6.0460   19.1420    1.9760 C   0  0  0  0  0  0  0  0  0  0  0  0
    4.1910   19.1190    3.7190 C   0  0  0  0  0  0  0  0  0  0  0  0
    0.9270   16.1380   -0.9720 C   0  0  1  0  0  0  0  0  0  0  0  0
    0.7900   16.4020   -2.4950 C   0  0  0  0  0  0  0  0  0  0  0  0
    1.0690   15.0540   -3.2100 C   0  0  0  0  0  0  0  0  0  0  0  0
    1.0290   13.9980   -2.0800 C   0  0  1  0  0  0  0  0  0  0  0  0
   -0.4880   13.7090   -1.8560 C   0  0  0  0  0  0  0  0  0  0  0  0
    1.8360   12.6830   -2.3350 C   0  0  2  0  0  0  0  0  0  0  0  0
    1.3550   11.8440   -3.5310 C   0  0  0  0  0  0  0  0  0  0  0  0
    0.3210   10.8150   -3.2140 C   0  0  0  0  0  0  0  0  0  0  0  0
    0.0040   10.3790   -1.9810 C   0  0  0  0  0  0  0  0  0  0  0  0
    0.7850   10.8600   -0.7500 C   0  0  1  0  0  0  0  0  0  0  0  0
    1.1400    9.6440    0.1450 C   0  0  0  0  0  0  0  0  0  0  0  0
   -0.0840    8.8140    0.5180 C   0  0  0  0  0  0  0  0  0  0  0  0
   -0.8000    8.3060   -0.7300 C   0  0  2  0  0  0  0  0  0  0  0  0
    0.0490    7.3680   -1.3990 O   0  0  0  0  0  0  0  0  0  0  0  0
   -1.1990    9.4420   -1.7130 C   0  0  0  0  0  0  0  0  0  0  0  0
   -2.3440   10.2840   -1.0980 C   0  0  0  0  0  0  0  0  0  0  0  0
   -1.7840    8.7830   -2.9920 C   0  0  0  0  0  0  0  0  0  0  0  0
    2.0400   11.7890   -1.0450 C   0  0  1  0  0  0  0  0  0  0  0  0
    3.3020   10.9110   -1.3080 C   0  0  0  0  0  0  0  0  0  0  0  0
    2.3560   12.6480    0.2360 C   0  0  0  0  0  0  0  0  0  0  0  0
    1.6160   13.9930    0.3700 C   0  0  0  0  0  0  0  0  0  0  0  0
    1.7200   14.8070   -0.9230 C   0  0  2  0  0  0  0  0  0  0  0  0
    3.2330   15.1330   -1.1630 C   0  0  0  0  0  0  0  0  0  0  0  0
    0.2762   18.5287    1.0882 H   0  0  0  0  0  0  0  0  0  0  0  0
    0.7356   19.3347   -0.4499 H   0  0  0  0  0  0  0  0  0  0  0  0
   -0.5166   18.0469   -0.4499 H   0  0  0  0  0  0  0  0  0  0  0  0
    1.8717   17.0037    0.7663 H   0  0  0  0  0  0  0  0  0  0  0  0
    2.9926   17.1841   -1.7830 H   0  0  0  0  0  0  0  0  0  0  0  0
    2.4153   18.8742   -1.3903 H   0  0  0  0  0  0  0  0  0  0  0  0
    4.5042   17.1910   -0.0074 H   0  0  0  0  0  0  0  0  0  0  0  0
    4.5723   18.9047   -0.5948 H   0  0  0  0  0  0  0  0  0  0  0  0
    2.7528   17.8975    1.3144 H   0  0  0  0  0  0  0  0  0  0  0  0
    6.6111   19.1497    2.9197 H   0  0  0  0  0  0  0  0  0  0  0  0
    6.3147   18.2474    1.3950 H   0  0  0  0  0  0  0  0  0  0  0  0
    6.2902   20.0436    1.3950 H   0  0  0  0  0  0  0  0  0  0  0  0
    5.0976   19.1260    4.3419 H   0  0  0  0  0  0  0  0  0  0  0  0
    3.5882   20.0125    3.9388 H   0  0  0  0  0  0  0  0  0  0  0  0
    3.6021   18.2163    3.9388 H   0  0  0  0  0  0  0  0  0  0  0  0
   -0.0254   16.0287   -0.4325 H   0  0  0  0  0  0  0  0  0  0  0  0
   -0.2264   16.7515   -2.7289 H   0  0  0  0  0  0  0  0  0  0  0  0
    1.4956   17.1781   -2.8263 H   0  0  0  0  0  0  0  0  0  0  0  0
    0.2948   14.8463   -3.9633 H   0  0  0  0  0  0  0  0  0  0  0  0
    2.0300   15.0565   -3.7452 H   0  0  0  0  0  0  0  0  0  0  0  0
   -0.6982   13.6690   -0.7770 H   0  0  0  0  0  0  0  0  0  0  0  0
   -1.0857   14.5094   -2.3165 H   0  0  0  0  0  0  0  0  0  0  0  0
   -0.7495   12.7449   -2.3165 H   0  0  0  0  0  0  0  0  0  0  0  0
    2.8277   13.0648   -2.6191 H   0  0  0  0  0  0  0  0  0  0  0  0
    0.9329   12.5304   -4.2798 H   0  0  0  0  0  0  0  0  0  0  0  0
    2.2359   11.2901   -3.8877 H   0  0  0  0  0  0  0  0  0  0  0  0
   -0.2283   10.3760   -4.0599 H   0  0  0  0  0  0  0  0  0  0  0  0
    0.1104   11.5383   -0.2070 H   0  0  0  0  0  0  0  0  0  0  0  0
    1.8491    9.0019   -0.3979 H   0  0  0  0  0  0  0  0  0  0  0  0
    1.5764   10.0321    1.0772 H   0  0  0  0  0  0  0  0  0  0  0  0
    0.2357    7.9539    1.1247 H   0  0  0  0  0  0  0  0  0  0  0  0
   -0.7787    9.4494    1.0869 H   0  0  0  0  0  0  0  0  0  0  0  0
   -1.7366    7.8313   -0.4022 H   0  0  0  0  0  0  0  0  0  0  0  0
   -0.3480    7.1770   -2.2660 H   0  0  0  0  0  0  0  0  0  0  0  0
   -2.2833   10.2394   -0.0006 H   0  0  0  0  0  0  0  0  0  0  0  0
   -2.2489   11.3289   -1.4283 H   0  0  0  0  0  0  0  0  0  0  0  0
   -3.3131    9.8818   -1.4283 H   0  0  0  0  0  0  0  0  0  0  0  0
   -2.4891    7.9888   -2.7055 H   0  0  0  0  0  0  0  0  0  0  0  0
   -2.3103    9.5430   -3.5881 H   0  0  0  0  0  0  0  0  0  0  0  0
   -0.9670    8.3505   -3.5881 H   0  0  0  0  0  0  0  0  0  0  0  0
    3.7422   10.6047   -0.3476 H   0  0  0  0  0  0  0  0  0  0  0  0
    3.0140   10.0173   -1.8809 H   0  0  0  0  0  0  0  0  0  0  0  0
    4.0398   11.4918   -1.8809 H   0  0  0  0  0  0  0  0  0  0  0  0
    2.1018   12.0391    1.1161 H   0  0  0  0  0  0  0  0  0  0  0  0
    3.4204   12.9121    0.1503 H   0  0  0  0  0  0  0  0  0  0  0  0
    0.5555   13.8000    0.5894 H   0  0  0  0  0  0  0  0  0  0  0  0
    2.0792   14.5685    1.1850 H   0  0  0  0  0  0  0  0  0  0  0  0
    3.7426   15.2428   -0.1943 H   0  0  0  0  0  0  0  0  0  0  0  0
    3.6987   14.3146   -1.7316 H   0  0  0  0  0  0  0  0  0  0  0  0
    3.3204   16.0706   -1.7316 H   0  0  0  0  0  0  0  0  0  0  0  0
  1  2  1  0
  2  3  1  0
  3  4  1  0
  4  5  1  0
  5  6  1  0
  6  7  1  0
  7  8  1  0
  7  9  1  0
  2 10  1  0
 10 11  1  0
 11 12  1  0
 12 13  1  0
 13 14  1  1
 13 15  1  0
 15 16  1  0
 16 17  1  0
 17 18  2  0
 18 19  1  0
 19 20  1  0
 20 21  1  0
 21 22  1  0
 22 23  1  0
 22 24  1  0
 24 25  1  0
 24 26  1  0
 19 27  1  0
 27 28  1  6
 27 29  1  0
 29 30  1  0
 30 31  1  0
 31 32  1  6
  7  5  1  0
 31 10  1  0
 31 13  1  0
 27 15  1  0
 24 18  1  0
  1 33  1  0
  1 34  1  0
  1 35  1  0
  2 36  1  1
  3 37  1  0
  3 38  1  0
  4 39  1  0
  4 40  1  0
  5 41  1  1
  8 42  1  0
  8 43  1  0
  8 44  1  0
  9 45  1  0
  9 46  1  0
  9 47  1  0
 10 48  1  1
 11 49  1  0
 11 50  1  0
 12 51  1  0
 12 52  1  0
 14 53  1  0
 14 54  1  0
 14 55  1  0
 15 56  1  6
 16 57  1  0
 16 58  1  0
 17 59  1  0
 19 60  1  1
 20 61  1  0
 20 62  1  0
 21 63  1  0
 21 64  1  0
 22 65  1  1
 23 66  1  0
 25 67  1  0
 25 68  1  0
 25 69  1  0
 26 70  1  0
 26 71  1  0
 26 72  1  0
 28 73  1  0
 28 74  1  0
 28 75  1  0
 29 76  1  0
 29 77  1  0
 30 78  1  0
 30 79  1  0
 32 80  1  0
 32 81  1  0
 32 82  1  0
M  END
>  <meeko>  (2) 
{"is_sidechain": [false], "intermolecular_energy": 2.731, "internal_energy": -0.839}

$$$$
EPH_relaxed_0001_pdb2pqr_Repair_140_r2_0001_out
     RDKit          3D

 82 86  0  0  0  0  0  0  0  0999 V2000
    1.9240   19.6570   -0.5750 C   0  0  0  0  0  0  0  0  0  0  0  0
    2.3440   18.4230    0.2290 C   0  0  2  0  0  0  0  0  0  0  0  0
    3.7960   18.0000   -0.0740 C   0  0  0  0  0  0  0  0  0  0  0  0
    4.7150   18.0340    1.1500 C   0  0  0  0  0  0  0  0  0  0  0  0
    4.1500   18.8900    2.2440 C   0  0  2  0  0  0  0  0  0  0  0  0
    4.9440   20.0350    2.5780 O   0  0  0  0  0  0  0  0  0  0  0  0
    4.8000   19.0420    3.6060 C   0  0  0  0  0  0  0  0  0  0  0  0
    6.0720   18.3310    3.9480 C   0  0  0  0  0  0  0  0  0  0  0  0
    3.9520   19.4860    4.7580 C   0  0  0  0  0  0  0  0  0  0  0  0
    1.3940   17.2670   -0.0590 C   0  0  1  0  0  0  0  0  0  0  0  0
    0.1270   17.7150   -0.8360 C   0  0  0  0  0  0  0  0  0  0  0  0
   -0.2490   16.5500   -1.7870 C   0  0  0  0  0  0  0  0  0  0  0  0
    0.6010   15.3550   -1.2960 C   0  0  1  0  0  0  0  0  0  0  0  0
   -0.1840   14.7790   -0.0760 C   0  0  0  0  0  0  0  0  0  0  0  0
    0.9150   14.2480   -2.3540 C   0  0  2  0  0  0  0  0  0  0  0  0
   -0.3150   13.5140   -2.9160 C   0  0  0  0  0  0  0  0  0  0  0  0
   -0.7230   12.2880   -2.1680 C   0  0  0  0  0  0  0  0  0  0  0  0
    0.0330   11.6350   -1.2660 C   0  0  0  0  0  0  0  0  0  0  0  0
    1.4790   12.0660   -0.9900 C   0  0  1  0  0  0  0  0  0  0  0  0
    2.3990   10.8170   -0.9770 C   0  0  0  0  0  0  0  0  0  0  0  0
    1.9140    9.7440   -0.0070 C   0  0  0  0  0  0  0  0  0  0  0  0
    0.4950    9.2990   -0.3490 C   0  0  2  0  0  0  0  0  0  0  0  0
    0.5140    8.6250   -1.6120 O   0  0  0  0  0  0  0  0  0  0  0  0
   -0.5200   10.4760   -0.4010 C   0  0  0  0  0  0  0  0  0  0  0  0
   -0.7680   11.0120    1.0310 C   0  0  0  0  0  0  0  0  0  0  0  0
   -1.8800    9.9120   -0.8940 C   0  0  0  0  0  0  0  0  0  0  0  0
    2.0440   13.2300   -1.9130 C   0  0  1  0  0  0  0  0  0  0  0  0
    2.6390   12.6290   -3.2230 C   0  0  0  0  0  0  0  0  0  0  0  0
    3.2350   13.9430   -1.1700 C   0  0  0  0  0  0  0  0  0  0  0  0
    2.8710   15.1070   -0.2290 C   0  0  0  0  0  0  0  0  0  0  0  0
    1.9340   16.1010   -0.9230 C   0  0  2  0  0  0  0  0  0  0  0  0
    2.7050   16.7130   -2.1420 C   0  0  0  0  0  0  0  0  0  0  0  0
    1.6480   20.4678    0.1152 H   0  0  0  0  0  0  0  0  0  0  0  0
    2.7614   19.9841   -1.2088 H   0  0  0  0  0  0  0  0  0  0  0  0
    1.0609   19.4053   -1.2088 H   0  0  0  0  0  0  0  0  0  0  0  0
    2.2929   18.6890    1.2951 H   0  0  0  0  0  0  0  0  0  0  0  0
    3.7833   16.9740   -0.4704 H   0  0  0  0  0  0  0  0  0  0  0  0
    4.1976   18.7245   -0.7977 H   0  0  0  0  0  0  0  0  0  0  0  0
    4.8422   17.0092    1.5289 H   0  0  0  0  0  0  0  0  0  0  0  0
    5.6800   18.4631    0.8425 H   0  0  0  0  0  0  0  0  0  0  0  0
    3.1223   18.6417    1.9405 H   0  0  0  0  0  0  0  0  0  0  0  0
    6.1768   18.2724    5.0414 H   0  0  0  0  0  0  0  0  0  0  0  0
    6.0488   17.3150    3.5269 H   0  0  0  0  0  0  0  0  0  0  0  0
    6.9252   18.8830    3.5269 H   0  0  0  0  0  0  0  0  0  0  0  0
    4.4511   19.2247    5.7028 H   0  0  0  0  0  0  0  0  0  0  0  0
    3.8077   20.5754    4.7086 H   0  0  0  0  0  0  0  0  0  0  0  0
    2.9745   18.9840    4.7086 H   0  0  0  0  0  0  0  0  0  0  0  0
    1.2097   16.9194    0.9682 H   0  0  0  0  0  0  0  0  0  0  0  0
   -0.6972   17.9129   -0.1349 H   0  0  0  0  0  0  0  0  0  0  0  0
    0.3159   18.6403   -1.4001 H   0  0  0  0  0  0  0  0  0  0  0  0
   -1.3220   16.3195   -1.7132 H   0  0  0  0  0  0  0  0  0  0  0  0
   -0.0552   16.7939   -2.8420 H   0  0  0  0  0  0  0  0  0  0  0  0
    0.2851   15.1232    0.8575 H   0  0  0  0  0  0  0  0  0  0  0  0
   -1.2265   15.1280   -0.1129 H   0  0  0  0  0  0  0  0  0  0  0  0
   -0.1638   13.6798   -0.1129 H   0  0  0  0  0  0  0  0  0  0  0  0
    1.3224   14.8328   -3.1918 H   0  0  0  0  0  0  0  0  0  0  0  0
   -1.1625   14.2152   -2.9074 H   0  0  0  0  0  0  0  0  0  0  0  0
   -0.0332   13.1757   -3.9240 H   0  0  0  0  0  0  0  0  0  0  0  0
   -1.7259   11.8844   -2.3712 H   0  0  0  0  0  0  0  0  0  0  0  0
    1.4713   12.5341    0.0054 H   0  0  0  0  0  0  0  0  0  0  0  0
    2.4278   10.3896   -1.9902 H   0  0  0  0  0  0  0  0  0  0  0  0
    3.3969   11.1404   -0.6458 H   0  0  0  0  0  0  0  0  0  0  0  0
    2.5871    8.8759   -0.0649 H   0  0  0  0  0  0  0  0  0  0  0  0
    1.9141   10.1644    1.0095 H   0  0  0  0  0  0  0  0  0  0  0  0
    0.1575    8.6277    0.4544 H   0  0  0  0  0  0  0  0  0  0  0  0
    1.4260    8.3290   -1.7730 H   0  0  0  0  0  0  0  0  0  0  0  0
   -0.4241   10.2687    1.7654 H   0  0  0  0  0  0  0  0  0  0  0  0
   -0.2129   11.9511    1.1723 H   0  0  0  0  0  0  0  0  0  0  0  0
   -1.8431   11.1968    1.1723 H   0  0  0  0  0  0  0  0  0  0  0  0
   -2.5053    9.6527   -0.0270 H   0  0  0  0  0  0  0  0  0  0  0  0
   -2.3931   10.6715   -1.5021 H   0  0  0  0  0  0  0  0  0  0  0  0
   -1.7050    9.0122   -1.5021 H   0  0  0  0  0  0  0  0  0  0  0  0
    3.3919   11.8685   -2.9686 H   0  0  0  0  0  0  0  0  0  0  0  0
    1.8342   12.1654   -3.8123 H   0  0  0  0  0  0  0  0  0  0  0  0
    3.1107   13.4292   -3.8123 H   0  0  0  0  0  0  0  0  0  0  0  0
    3.7566   13.1819   -0.5711 H   0  0  0  0  0  0  0  0  0  0  0  0
    3.8405   14.3974   -1.9680 H   0  0  0  0  0  0  0  0  0  0  0  0
    2.3709   14.7046    0.6643 H   0  0  0  0  0  0  0  0  0  0  0  0
    3.7953   15.6335    0.0514 H   0  0  0  0  0  0  0  0  0  0  0  0
    3.5174   17.3579   -1.7757 H   0  0  0  0  0  0  0  0  0  0  0  0
    3.1278   15.9019   -2.7531 H   0  0  0  0  0  0  0  0  0  0  0  0
    2.0111   17.3089   -2.7531 H   0  0  0  0  0  0  0  0  0  0  0  0
  1  2  1  0
  2  3  1  0
  3  4  1  0
  4  5  1  0
  5  6  1  0
  6  7  1  0
  7  8  1  0
  7  9  1  0
  2 10  1  0
 10 11  1  0
 11 12  1  0
 12 13  1  0
 13 14  1  1
 13 15  1  0
 15 16  1  0
 16 17  1  0
 17 18  2  0
 18 19  1  0
 19 20  1  0
 20 21  1  0
 21 22  1  0
 22 23  1  0
 22 24  1  0
 24 25  1  0
 24 26  1  0
 19 27  1  0
 27 28  1  6
 27 29  1  0
 29 30  1  0
 30 31  1  0
 31 32  1  6
  7  5  1  0
 31 10  1  0
 31 13  1  0
 27 15  1  0
 24 18  1  0
  1 33  1  0
  1 34  1  0
  1 35  1  0
  2 36  1  1
  3 37  1  0
  3 38  1  0
  4 39  1  0
  4 40  1  0
  5 41  1  1
  8 42  1  0
  8 43  1  0
  8 44  1  0
  9 45  1  0
  9 46  1  0
  9 47  1  0
 10 48  1  1
 11 49  1  0
 11 50  1  0
 12 51  1  0
 12 52  1  0
 14 53  1  0
 14 54  1  0
 14 55  1  0
 15 56  1  6
 16 57  1  0
 16 58  1  0
 17 59  1  0
 19 60  1  1
 20 61  1  0
 20 62  1  0
 21 63  1  0
 21 64  1  0
 22 65  1  1
 23 66  1  0
 25 67  1  0
 25 68  1  0
 25 69  1  0
 26 70  1  0
 26 71  1  0
 26 72  1  0
 28 73  1  0
 28 74  1  0
 28 75  1  0
 29 76  1  0
 29 77  1  0
 30 78  1  0
 30 79  1  0
 32 80  1  0
 32 81  1  0
 32 82  1  0
M  END
>  <meeko>  (3) 
{"is_sidechain": [false], "intermolecular_energy": 2.731, "internal_energy": -0.839}

$$$$
EPH_relaxed_0001_pdb2pqr_Repair_140_r2_0001_out
     RDKit          3D

 82 86  0  0  0  0  0  0  0  0999 V2000
    2.0060   18.2060   -2.8020 C   0  0  0  0  0  0  0  0  0  0  0  0
    0.8700   17.6880   -1.9160 C   0  0  2  0  0  0  0  0  0  0  0  0
    1.2530   17.6850   -0.4230 C   0  0  0  0  0  0  0  0  0  0  0  0
    1.2400   19.0750    0.2190 C   0  0  0  0  0  0  0  0  0  0  0  0
   -0.0280   19.8140   -0.0840 C   0  0  2  0  0  0  0  0  0  0  0  0
   -0.7920   20.1890    1.0700 O   0  0  0  0  0  0  0  0  0  0  0  0
   -1.4100   19.2460    0.1800 C   0  0  0  0  0  0  0  0  0  0  0  0
   -1.5940   17.8830    0.7700 C   0  0  0  0  0  0  0  0  0  0  0  0
   -2.5710   19.8060   -0.5810 C   0  0  0  0  0  0  0  0  0  0  0  0
    0.4680   16.2840   -2.3540 C   0  0  1  0  0  0  0  0  0  0  0  0
    0.6000   16.0760   -3.8860 C   0  0  0  0  0  0  0  0  0  0  0  0
    1.0450   14.6060   -4.1010 C   0  0  0  0  0  0  0  0  0  0  0  0
    0.8340   13.9300   -2.7260 C   0  0  1  0  0  0  0  0  0  0  0  0
   -0.6900   13.5940   -2.6740 C   0  0  0  0  0  0  0  0  0  0  0  0
    1.7130   12.6710   -2.4330 C   0  0  2  0  0  0  0  0  0  0  0  0
    1.4820   11.4790   -3.3780 C   0  0  0  0  0  0  0  0  0  0  0  0
    0.4400   10.5070   -2.9350 C   0  0  0  0  0  0  0  0  0  0  0  0
   -0.0800   10.4280   -1.6970 C   0  0  0  0  0  0  0  0  0  0  0  0
    0.4500   11.3130   -0.5620 C   0  0  1  0  0  0  0  0  0  0  0  0
    0.6760   10.4490    0.7070 C   0  0  0  0  0  0  0  0  0  0  0  0
   -0.5690    9.6660    1.1110 C   0  0  0  0  0  0  0  0  0  0  0  0
   -1.0320    8.7550   -0.0220 C   0  0  2  0  0  0  0  0  0  0  0  0
   -0.0480    7.7360   -0.2260 O   0  0  0  0  0  0  0  0  0  0  0  0
   -1.2830    9.5140   -1.3560 C   0  0  0  0  0  0  0  0  0  0  0  0
   -2.5450   10.4010   -1.2200 C   0  0  0  0  0  0  0  0  0  0  0  0
   -1.6070    8.4610   -2.4500 C   0  0  0  0  0  0  0  0  0  0  0  0
    1.7090   12.2160   -0.9170 C   0  0  1  0  0  0  0  0  0  0  0  0
    3.0240   11.4080   -0.6910 C   0  0  0  0  0  0  0  0  0  0  0  0
    1.7620   13.4380    0.0750 C   0  0  0  0  0  0  0  0  0  0  0  0
    0.9690   14.6950   -0.3290 C   0  0  0  0  0  0  0  0  0  0  0  0
    1.2790   15.0990   -1.7740 C   0  0  2  0  0  0  0  0  0  0  0  0
    2.8010   15.4650   -1.8520 C   0  0  0  0  0  0  0  0  0  0  0  0
    2.8242   18.5791   -2.1684 H   0  0  0  0  0  0  0  0  0  0  0  0
    2.3777   17.3884   -3.4371 H   0  0  0  0  0  0  0  0  0  0  0  0
    1.6324   19.0228   -3.4371 H   0  0  0  0  0  0  0  0  0  0  0  0
    0.0179   18.3732   -2.0363 H   0  0  0  0  0  0  0  0  0  0  0  0
    0.5388   17.0463    0.1174 H   0  0  0  0  0  0  0  0  0  0  0  0
    2.2851   17.3102   -0.3568 H   0  0  0  0  0  0  0  0  0  0  0  0
    1.3366   18.9650    1.3092 H   0  0  0  0  0  0  0  0  0  0  0  0
    2.0802   19.6517   -0.1952 H   0  0  0  0  0  0  0  0  0  0  0  0
    0.4235   20.2719   -0.9764 H   0  0  0  0  0  0  0  0  0  0  0  0
   -1.5844   17.9542    1.8676 H   0  0  0  0  0  0  0  0  0  0  0  0
   -2.5565   17.4666    0.4380 H   0  0  0  0  0  0  0  0  0  0  0  0
   -0.7764   17.2263    0.4380 H   0  0  0  0  0  0  0  0  0  0  0  0
   -3.3303   20.1722    0.1257 H   0  0  0  0  0  0  0  0  0  0  0  0
   -2.2278   20.6376   -1.2139 H   0  0  0  0  0  0  0  0  0  0  0  0
   -3.0081   19.0197   -1.2139 H   0  0  0  0  0  0  0  0  0  0  0  0
   -0.5623   16.2585   -1.9696 H   0  0  0  0  0  0  0  0  0  0  0  0
   -0.3678   16.2546   -4.3773 H   0  0  0  0  0  0  0  0  0  0  0  0
    1.3293   16.7768   -4.3184 H   0  0  0  0  0  0  0  0  0  0  0  0
    0.4265   14.1216   -4.8710 H   0  0  0  0  0  0  0  0  0  0  0  0
    2.0864   14.5316   -4.4472 H   0  0  0  0  0  0  0  0  0  0  0  0
   -1.0141   13.5225   -1.6253 H   0  0  0  0  0  0  0  0  0  0  0  0
   -1.2581   14.3885   -3.1800 H   0  0  0  0  0  0  0  0  0  0  0  0
   -0.8714   12.6343   -3.1800 H   0  0  0  0  0  0  0  0  0  0  0  0
    2.7271   13.0352   -2.6545 H   0  0  0  0  0  0  0  0  0  0  0  0
    1.1814   11.8761   -4.3588 H   0  0  0  0  0  0  0  0  0  0  0  0
    2.4293   10.9204   -3.4004 H   0  0  0  0  0  0  0  0  0  0  0  0
    0.0653    9.7945   -3.6846 H   0  0  0  0  0  0  0  0  0  0  0  0
   -0.3331   12.0611   -0.3695 H   0  0  0  0  0  0  0  0  0  0  0  0
    1.4910    9.7374    0.5085 H   0  0  0  0  0  0  0  0  0  0  0  0
    0.9253   11.1298    1.5343 H   0  0  0  0  0  0  0  0  0  0  0  0
   -0.3376    9.0527    1.9943 H   0  0  0  0  0  0  0  0  0  0  0  0
   -1.3742   10.3800    1.3386 H   0  0  0  0  0  0  0  0  0  0  0  0
   -1.9972    8.3209    0.2779 H   0  0  0  0  0  0  0  0  0  0  0  0
    0.7720    8.0290    0.2060 H   0  0  0  0  0  0  0  0  0  0  0  0
   -2.7693   10.5587   -0.1547 H   0  0  0  0  0  0  0  0  0  0  0  0
   -2.3646   11.3720   -1.7043 H   0  0  0  0  0  0  0  0  0  0  0  0
   -3.3975    9.9024   -1.7043 H   0  0  0  0  0  0  0  0  0  0  0  0
   -1.8984    7.5139   -1.9724 H   0  0  0  0  0  0  0  0  0  0  0  0
   -2.4345    8.8257   -3.0763 H   0  0  0  0  0  0  0  0  0  0  0  0
   -0.7176    8.2974   -3.0763 H   0  0  0  0  0  0  0  0  0  0  0  0
    3.2051   11.2967    0.3883 H   0  0  0  0  0  0  0  0  0  0  0  0
    2.9269   10.4135   -1.1509 H   0  0  0  0  0  0  0  0  0  0  0  0
    3.8673   11.9440   -1.1509 H   0  0  0  0  0  0  0  0  0  0  0  0
    1.3723   13.0962    1.0452 H   0  0  0  0  0  0  0  0  0  0  0  0
    2.8156   13.7537    0.0869 H   0  0  0  0  0  0  0  0  0  0  0  0
   -0.1071   14.4865   -0.2368 H   0  0  0  0  0  0  0  0  0  0  0  0
    1.2598   15.5215    0.3360 H   0  0  0  0  0  0  0  0  0  0  0  0
    3.2072   15.5627   -0.8344 H   0  0  0  0  0  0  0  0  0  0  0  0
    3.3420   14.6713   -2.3882 H   0  0  0  0  0  0  0  0  0  0  0  0
    2.9220   16.4178   -2.3882 H   0  0  0  0  0  0  0  0  0  0  0  0
  1  2  1  0
  2  3  1  0
  3  4  1  0
  4  5  1  0
  5  6  1  0
  6  7  1  0
  7  8  1  0
  7  9  1  0
  2 10  1  0
 10 11  1  0
 11 12  1  0
 12 13  1  0
 13 14  1  1
 13 15  1  0
 15 16  1  0
 16 17  1  0
 17 18  2  0
 18 19  1  0
 19 20  1  0
 20 21  1  0
 21 22  1  0
 22 23  1  0
 22 24  1  0
 24 25  1  0
 24 26  1  0
 19 27  1  0
 27 28  1  6
 27 29  1  0
 29 30  1  0
 30 31  1  0
 31 32  1  1
  7  5  1  0
 31 10  1  0
 31 13  1  0
 27 15  1  0
 24 18  1  0
  1 33  1  0
  1 34  1  0
  1 35  1  0
  2 36  1  1
  3 37  1  0
  3 38  1  0
  4 39  1  0
  4 40  1  0
  5 41  1  6
  8 42  1  0
  8 43  1  0
  8 44  1  0
  9 45  1  0
  9 46  1  0
  9 47  1  0
 10 48  1  1
 11 49  1  0
 11 50  1  0
 12 51  1  0
 12 52  1  0
 14 53  1  0
 14 54  1  0
 14 55  1  0
 15 56  1  6
 16 57  1  0
 16 58  1  0
 17 59  1  0
 19 60  1  1
 20 61  1  0
 20 62  1  0
 21 63  1  0
 21 64  1  0
 22 65  1  1
 23 66  1  0
 25 67  1  0
 25 68  1  0
 25 69  1  0
 26 70  1  0
 26 71  1  0
 26 72  1  0
 28 73  1  0
 28 74  1  0
 28 75  1  0
 29 76  1  0
 29 77  1  0
 30 78  1  0
 30 79  1  0
 32 80  1  0
 32 81  1  0
 32 82  1  0
M  END
>  <meeko>  (4) 
{"is_sidechain": [false], "intermolecular_energy": 2.731, "internal_energy": -0.839}

$$$$
EPH_relaxed_0001_pdb2pqr_Repair_140_r2_0001_out
     RDKit          3D

 82 86  0  0  0  0  0  0  0  0999 V2000
   -3.4280    9.3180    0.5340 C   0  0  0  0  0  0  0  0  0  0  0  0
   -2.5920    9.6750   -0.6980 C   0  0  2  0  0  0  0  0  0  0  0  0
   -1.9190    8.4360   -1.3220 C   0  0  0  0  0  0  0  0  0  0  0  0
   -2.8280    7.6580   -2.2770 C   0  0  0  0  0  0  0  0  0  0  0  0
   -4.2680    7.7480   -1.8690 C   0  0  2  0  0  0  0  0  0  0  0  0
   -4.8140    6.5380   -1.3290 O   0  0  0  0  0  0  0  0  0  0  0  0
   -5.3840    6.9940   -2.5660 C   0  0  0  0  0  0  0  0  0  0  0  0
   -5.1090    6.0950   -3.7310 C   0  0  0  0  0  0  0  0  0  0  0  0
   -6.7850    7.5050   -2.4330 C   0  0  0  0  0  0  0  0  0  0  0  0
   -1.5350   10.7090   -0.3260 C   0  0  1  0  0  0  0  0  0  0  0  0
   -0.4370   10.1330    0.6070 C   0  0  0  0  0  0  0  0  0  0  0  0
    0.8920   10.8290    0.2160 C   0  0  0  0  0  0  0  0  0  0  0  0
    0.4640   12.0080   -0.6880 C   0  0  1  0  0  0  0  0  0  0  0  0
    0.0210   13.1320    0.3020 C   0  0  0  0  0  0  0  0  0  0  0  0
    1.5340   12.5240   -1.7040 C   0  0  2  0  0  0  0  0  0  0  0  0
    2.8140   13.0970   -1.0700 C   0  0  0  0  0  0  0  0  0  0  0  0
    2.7850   14.5620   -0.7880 C   0  0  0  0  0  0  0  0  0  0  0  0
    1.8930   15.4380   -1.2880 C   0  0  0  0  0  0  0  0  0  0  0  0
    0.8410   14.9920   -2.3110 C   0  0  1  0  0  0  0  0  0  0  0  0
    0.7900   16.0120   -3.4790 C   0  0  0  0  0  0  0  0  0  0  0  0
    0.5660   17.4420   -2.9970 C   0  0  0  0  0  0  0  0  0  0  0  0
    1.6640   17.8690   -2.0270 C   0  0  2  0  0  0  0  0  0  0  0  0
    2.9040   17.9450   -2.7380 O   0  0  0  0  0  0  0  0  0  0  0  0
    1.8160   16.9100   -0.8130 C   0  0  0  0  0  0  0  0  0  0  0  0
    0.5890   17.0550    0.1220 C   0  0  0  0  0  0  0  0  0  0  0  0
    3.0470   17.3730    0.0110 C   0  0  0  0  0  0  0  0  0  0  0  0
    0.9580   13.4900   -2.8170 C   0  0  1  0  0  0  0  0  0  0  0  0
    1.9400   13.4110   -4.0260 C   0  0  0  0  0  0  0  0  0  0  0  0
   -0.4440   13.0160   -3.3530 C   0  0  0  0  0  0  0  0  0  0  0  0
   -1.4120   12.4060   -2.3220 C   0  0  0  0  0  0  0  0  0  0  0  0
   -0.7130   11.3330   -1.4810 C   0  0  2  0  0  0  0  0  0  0  0  0
   -0.2760   10.1790   -2.4470 C   0  0  0  0  0  0  0  0  0  0  0  0
   -2.8607    9.5602    1.4448 H   0  0  0  0  0  0  0  0  0  0  0  0
   -4.3647    9.8946    0.5212 H   0  0  0  0  0  0  0  0  0  0  0  0
   -3.6592    8.2427    0.5212 H   0  0  0  0  0  0  0  0  0  0  0  0
   -3.2749   10.0945   -1.4514 H   0  0  0  0  0  0  0  0  0  0  0  0
   -1.0310    8.7672   -1.8803 H   0  0  0  0  0  0  0  0  0  0  0  0
   -1.6652    7.7569   -0.4947 H   0  0  0  0  0  0  0  0  0  0  0  0
   -2.7181    8.0719   -3.2902 H   0  0  0  0  0  0  0  0  0  0  0  0
   -2.5292    6.5997   -2.2488 H   0  0  0  0  0  0  0  0  0  0  0  0
   -4.1496    8.8081   -1.6005 H   0  0  0  0  0  0  0  0  0  0  0  0
   -4.8056    5.1030   -3.3651 H   0  0  0  0  0  0  0  0  0  0  0  0
   -6.0185    5.9980   -4.3420 H   0  0  0  0  0  0  0  0  0  0  0  0
   -4.3008    6.5234   -4.3420 H   0  0  0  0  0  0  0  0  0  0  0  0
   -7.0416    7.5986   -1.3674 H   0  0  0  0  0  0  0  0  0  0  0  0
   -6.8636    8.4897   -2.9169 H   0  0  0  0  0  0  0  0  0  0  0  0
   -7.4791    6.8022   -2.9169 H   0  0  0  0  0  0  0  0  0  0  0  0
   -2.1793   11.4732    0.1331 H   0  0  0  0  0  0  0  0  0  0  0  0
   -0.6820   10.3473    1.6577 H   0  0  0  0  0  0  0  0  0  0  0  0
   -0.3584    9.0413    0.4976 H   0  0  0  0  0  0  0  0  0  0  0  0
    1.4159   11.1961    1.1108 H   0  0  0  0  0  0  0  0  0  0  0  0
    1.5872   10.1447   -0.2924 H   0  0  0  0  0  0  0  0  0  0  0  0
    0.1580   12.7843    1.3366 H   0  0  0  0  0  0  0  0  0  0  0  0
    0.6321   14.0310    0.1333 H   0  0  0  0  0  0  0  0  0  0  0  0
   -1.0391   13.3723    0.1333 H   0  0  0  0  0  0  0  0  0  0  0  0
    1.8416   11.5983   -2.2125 H   0  0  0  0  0  0  0  0  0  0  0  0
    2.9872   12.5713   -0.1194 H   0  0  0  0  0  0  0  0  0  0  0  0
    3.6141   12.9453   -1.8095 H   0  0  0  0  0  0  0  0  0  0  0  0
    3.5581   14.9602   -0.1144 H   0  0  0  0  0  0  0  0  0  0  0  0
   -0.1203   14.9879   -1.7763 H   0  0  0  0  0  0  0  0  0  0  0  0
    1.7433   15.9695   -4.0262 H   0  0  0  0  0  0  0  0  0  0  0  0
   -0.0589   15.7398   -4.1234 H   0  0  0  0  0  0  0  0  0  0  0  0
    0.5686   18.1187   -3.8642 H   0  0  0  0  0  0  0  0  0  0  0  0
   -0.4012   17.4891   -2.4752 H   0  0  0  0  0  0  0  0  0  0  0  0
    1.3796   18.8499   -1.6184 H   0  0  0  0  0  0  0  0  0  0  0  0
    3.6200   17.9350   -2.0810 H   0  0  0  0  0  0  0  0  0  0  0  0
    0.9201   17.0159    1.1702 H   0  0  0  0  0  0  0  0  0  0  0  0
    0.0933   18.0180   -0.0702 H   0  0  0  0  0  0  0  0  0  0  0  0
   -0.1175   16.2341   -0.0702 H   0  0  0  0  0  0  0  0  0  0  0  0
    2.8225   17.2885    1.0845 H   0  0  0  0  0  0  0  0  0  0  0  0
    3.9117   16.7387   -0.2337 H   0  0  0  0  0  0  0  0  0  0  0  0
    3.2793   18.4200   -0.2337 H   0  0  0  0  0  0  0  0  0  0  0  0
    2.9723   13.3280   -3.6551 H   0  0  0  0  0  0  0  0  0  0  0  0
    1.6982   12.5294   -4.6378 H   0  0  0  0  0  0  0  0  0  0  0  0
    1.8422   14.3199   -4.6378 H   0  0  0  0  0  0  0  0  0  0  0  0
   -0.9415   13.8890   -3.8006 H   0  0  0  0  0  0  0  0  0  0  0  0
   -0.2221   12.2004   -4.0569 H   0  0  0  0  0  0  0  0  0  0  0  0
   -1.7782   13.2022   -1.6572 H   0  0  0  0  0  0  0  0  0  0  0  0
   -2.2494   11.9387   -2.8609 H   0  0  0  0  0  0  0  0  0  0  0  0
    0.0526    9.3111   -1.8564 H   0  0  0  0  0  0  0  0  0  0  0  0
   -1.1269    9.8898   -3.0813 H   0  0  0  0  0  0  0  0  0  0  0  0
    0.5530   10.5260   -3.0813 H   0  0  0  0  0  0  0  0  0  0  0  0
  1  2  1  0
  2  3  1  0
  3  4  1  0
  4  5  1  0
  5  6  1  0
  6  7  1  0
  7  8  1  0
  7  9  1  0
  2 10  1  0
 10 11  1  0
 11 12  1  0
 12 13  1  0
 13 14  1  1
 13 15  1  0
 15 16  1  0
 16 17  1  0
 17 18  2  0
 18 19  1  0
 19 20  1  0
 20 21  1  0
 21 22  1  0
 22 23  1  0
 22 24  1  0
 24 25  1  0
 24 26  1  0
 19 27  1  0
 27 28  1  6
 27 29  1  0
 29 30  1  0
 30 31  1  0
 31 32  1  6
  7  5  1  0
 31 10  1  0
 31 13  1  0
 27 15  1  0
 24 18  1  0
  1 33  1  0
  1 34  1  0
  1 35  1  0
  2 36  1  6
  3 37  1  0
  3 38  1  0
  4 39  1  0
  4 40  1  0
  5 41  1  1
  8 42  1  0
  8 43  1  0
  8 44  1  0
  9 45  1  0
  9 46  1  0
  9 47  1  0
 10 48  1  1
 11 49  1  0
 11 50  1  0
 12 51  1  0
 12 52  1  0
 14 53  1  0
 14 54  1  0
 14 55  1  0
 15 56  1  6
 16 57  1  0
 16 58  1  0
 17 59  1  0
 19 60  1  1
 20 61  1  0
 20 62  1  0
 21 63  1  0
 21 64  1  0
 22 65  1  1
 23 66  1  0
 25 67  1  0
 25 68  1  0
 25 69  1  0
 26 70  1  0
 26 71  1  0
 26 72  1  0
 28 73  1  0
 28 74  1  0
 28 75  1  0
 29 76  1  0
 29 77  1  0
 30 78  1  0
 30 79  1  0
 32 80  1  0
 32 81  1  0
 32 82  1  0
M  END
>  <meeko>  (5) 
{"is_sidechain": [false], "intermolecular_energy": 2.731, "internal_energy": -0.839}

$$$$
EPH_relaxed_0001_pdb2pqr_Repair_140_r2_0001_out
     RDKit          3D

 82 86  0  0  0  0  0  0  0  0999 V2000
    3.6900   18.1010    0.7720 C   0  0  0  0  0  0  0  0  0  0  0  0
    2.6410   18.5350   -0.2550 C   0  0  2  0  0  0  0  0  0  0  0  0
    1.8870   19.8060    0.1860 C   0  0  0  0  0  0  0  0  0  0  0  0
    0.6730   19.5240    1.0750 C   0  0  0  0  0  0  0  0  0  0  0  0
   -0.5770   20.1310    0.5150 C   0  0  2  0  0  0  0  0  0  0  0  0
   -1.6760   20.1940    1.4340 O   0  0  0  0  0  0  0  0  0  0  0  0
   -1.8570   19.3490    0.2860 C   0  0  0  0  0  0  0  0  0  0  0  0
   -1.9500   17.8920    0.6120 C   0  0  0  0  0  0  0  0  0  0  0  0
   -2.8520   19.8780   -0.7000 C   0  0  0  0  0  0  0  0  0  0  0  0
    1.6520   17.4020   -0.4990 C   0  0  1  0  0  0  0  0  0  0  0  0
    0.4520   17.8350   -1.3830 C   0  0  0  0  0  0  0  0  0  0  0  0
    0.0710   16.6100   -2.2530 C   0  0  0  0  0  0  0  0  0  0  0  0
    0.8350   15.4260   -1.6150 C   0  0  1  0  0  0  0  0  0  0  0  0
   -0.0420   14.9930   -0.3990 C   0  0  0  0  0  0  0  0  0  0  0  0
    1.1510   14.2200   -2.5580 C   0  0  2  0  0  0  0  0  0  0  0  0
   -0.0820   13.4950   -3.1260 C   0  0  0  0  0  0  0  0  0  0  0  0
   -0.5880   12.3570   -2.3030 C   0  0  0  0  0  0  0  0  0  0  0  0
    0.0860   11.7510   -1.3080 C   0  0  0  0  0  0  0  0  0  0  0  0
    1.5340   12.1410   -0.9860 C   0  0  1  0  0  0  0  0  0  0  0  0
    2.3900   10.8580   -0.8160 C   0  0  0  0  0  0  0  0  0  0  0  0
    1.8030    9.8950    0.2110 C   0  0  0  0  0  0  0  0  0  0  0  0
    0.3830    9.4850   -0.1740 C   0  0  2  0  0  0  0  0  0  0  0  0
    0.4380    8.7050   -1.3720 O   0  0  0  0  0  0  0  0  0  0  0  0
   -0.5690   10.6960   -0.3820 C   0  0  0  0  0  0  0  0  0  0  0  0
   -0.8660   11.3650    0.9830 C   0  0  0  0  0  0  0  0  0  0  0  0
   -1.9260   10.1520   -0.9040 C   0  0  0  0  0  0  0  0  0  0  0  0
    2.2030   13.1950   -1.9690 C   0  0  1  0  0  0  0  0  0  0  0  0
    2.8370   12.4580   -3.1880 C   0  0  0  0  0  0  0  0  0  0  0  0
    3.3860   13.9160   -1.2210 C   0  0  0  0  0  0  0  0  0  0  0  0
    3.0290   15.1720   -0.4030 C   0  0  0  0  0  0  0  0  0  0  0  0
    2.1800   16.1420   -1.2310 C   0  0  2  0  0  0  0  0  0  0  0  0
    3.0440   16.6130   -2.4500 C   0  0  0  0  0  0  0  0  0  0  0  0
    3.2983   18.2630    1.7871 H   0  0  0  0  0  0  0  0  0  0  0  0
    3.9193   17.0341    0.6334 H   0  0  0  0  0  0  0  0  0  0  0  0
    4.6061   18.6940    0.6334 H   0  0  0  0  0  0  0  0  0  0  0  0
    3.1717   18.7729   -1.1887 H   0  0  0  0  0  0  0  0  0  0  0  0
    2.5847   20.4476    0.7442 H   0  0  0  0  0  0  0  0  0  0  0  0
    1.5111   20.2900   -0.7275 H   0  0  0  0  0  0  0  0  0  0  0  0
    0.5355   18.4356    1.1558 H   0  0  0  0  0  0  0  0  0  0  0  0
    0.8594   19.9722    2.0621 H   0  0  0  0  0  0  0  0  0  0  0  0
    0.0095   20.7939   -0.1381 H   0  0  0  0  0  0  0  0  0  0  0  0
   -1.9584   17.7604    1.7041 H   0  0  0  0  0  0  0  0  0  0  0  0
   -2.8763   17.4793    0.1858 H   0  0  0  0  0  0  0  0  0  0  0  0
   -1.0837   17.3649    0.1858 H   0  0  0  0  0  0  0  0  0  0  0  0
   -3.6986   20.3281   -0.1609 H   0  0  0  0  0  0  0  0  0  0  0  0
   -2.3725   20.6403   -1.3317 H   0  0  0  0  0  0  0  0  0  0  0  0
   -3.2158   19.0542   -1.3317 H   0  0  0  0  0  0  0  0  0  0  0  0
    1.3963   17.1545    0.5418 H   0  0  0  0  0  0  0  0  0  0  0  0
   -0.3981   18.1288   -0.7498 H   0  0  0  0  0  0  0  0  0  0  0  0
    0.7162   18.6983   -2.0114 H   0  0  0  0  0  0  0  0  0  0  0  0
   -1.0144   16.4339   -2.2217 H   0  0  0  0  0  0  0  0  0  0  0  0
    0.3320   16.7529   -3.3120 H   0  0  0  0  0  0  0  0  0  0  0  0
    0.4766   15.2490    0.5367 H   0  0  0  0  0  0  0  0  0  0  0  0
   -1.0080   15.5177   -0.4383 H   0  0  0  0  0  0  0  0  0  0  0  0
   -0.2128   13.9070   -0.4383 H   0  0  0  0  0  0  0  0  0  0  0  0
    1.6306   14.7120   -3.4170 H   0  0  0  0  0  0  0  0  0  0  0  0
   -0.8937   14.2309   -3.2240 H   0  0  0  0  0  0  0  0  0  0  0  0
    0.2360   13.0594   -4.0847 H   0  0  0  0  0  0  0  0  0  0  0  0
   -1.5971   11.9820   -2.5289 H   0  0  0  0  0  0  0  0  0  0  0  0
    1.4962   12.6933   -0.0355 H   0  0  0  0  0  0  0  0  0  0  0  0
    2.4515   10.3440   -1.7866 H   0  0  0  0  0  0  0  0  0  0  0  0
    3.3834   11.1646   -0.4566 H   0  0  0  0  0  0  0  0  0  0  0  0
    2.4352    8.9964    0.2643 H   0  0  0  0  0  0  0  0  0  0  0  0
    1.7698   10.4005    1.1874 H   0  0  0  0  0  0  0  0  0  0  0  0
   -0.0304    8.9013    0.6617 H   0  0  0  0  0  0  0  0  0  0  0  0
    0.5980    7.7810   -1.1150 H   0  0  0  0  0  0  0  0  0  0  0  0
   -0.5655   10.6880    1.7962 H   0  0  0  0  0  0  0  0  0  0  0  0
   -0.3008   12.3055    1.0611 H   0  0  0  0  0  0  0  0  0  0  0  0
   -1.9426   11.5766    1.0611 H   0  0  0  0  0  0  0  0  0  0  0  0
   -2.5702    9.8937   -0.0506 H   0  0  0  0  0  0  0  0  0  0  0  0
   -2.4189   10.9220   -1.5156 H   0  0  0  0  0  0  0  0  0  0  0  0
   -1.7505    9.2547   -1.5156 H   0  0  0  0  0  0  0  0  0  0  0  0
    3.5149   11.6700   -2.8280 H   0  0  0  0  0  0  0  0  0  0  0  0
    2.0408   12.0063   -3.7980 H   0  0  0  0  0  0  0  0  0  0  0  0
    3.4026   13.1777   -3.7980 H   0  0  0  0  0  0  0  0  0  0  0  0
    3.8370   13.1871   -0.5315 H   0  0  0  0  0  0  0  0  0  0  0  0
    4.0551   14.2726   -2.0179 H   0  0  0  0  0  0  0  0  0  0  0  0
    2.4627   14.8706    0.4906 H   0  0  0  0  0  0  0  0  0  0  0  0
    3.9612   15.6797   -0.1146 H   0  0  0  0  0  0  0  0  0  0  0  0
    3.9547   17.1095   -2.0839 H   0  0  0  0  0  0  0  0  0  0  0  0
    3.3218   15.7415   -3.0610 H   0  0  0  0  0  0  0  0  0  0  0  0
    2.4621   17.3187   -3.0610 H   0  0  0  0  0  0  0  0  0  0  0  0
  1  2  1  0
  2  3  1  0
  3  4  1  0
  4  5  1  0
  5  6  1  0
  6  7  1  0
  7  8  1  0
  7  9  1  0
  2 10  1  0
 10 11  1  0
 11 12  1  0
 12 13  1  0
 13 14  1  1
 13 15  1  0
 15 16  1  0
 16 17  1  0
 17 18  2  0
 18 19  1  0
 19 20  1  0
 20 21  1  0
 21 22  1  0
 22 23  1  0
 22 24  1  0
 24 25  1  0
 24 26  1  0
 19 27  1  0
 27 28  1  6
 27 29  1  0
 29 30  1  0
 30 31  1  0
 31 32  1  6
  7  5  1  0
 31 10  1  0
 31 13  1  0
 27 15  1  0
 24 18  1  0
  1 33  1  0
  1 34  1  0
  1 35  1  0
  2 36  1  6
  3 37  1  0
  3 38  1  0
  4 39  1  0
  4 40  1  0
  5 41  1  6
  8 42  1  0
  8 43  1  0
  8 44  1  0
  9 45  1  0
  9 46  1  0
  9 47  1  0
 10 48  1  1
 11 49  1  0
 11 50  1  0
 12 51  1  0
 12 52  1  0
 14 53  1  0
 14 54  1  0
 14 55  1  0
 15 56  1  6
 16 57  1  0
 16 58  1  0
 17 59  1  0
 19 60  1  1
 20 61  1  0
 20 62  1  0
 21 63  1  0
 21 64  1  0
 22 65  1  1
 23 66  1  0
 25 67  1  0
 25 68  1  0
 25 69  1  0
 26 70  1  0
 26 71  1  0
 26 72  1  0
 28 73  1  0
 28 74  1  0
 28 75  1  0
 29 76  1  0
 29 77  1  0
 30 78  1  0
 30 79  1  0
 32 80  1  0
 32 81  1  0
 32 82  1  0
M  END
>  <meeko>  (6) 
{"is_sidechain": [false], "intermolecular_energy": 2.731, "internal_energy": -0.839}

$$$$
EPH_relaxed_0001_pdb2pqr_Repair_140_r2_0001_out
     RDKit          3D

 82 86  0  0  0  0  0  0  0  0999 V2000
    3.5010   17.6260    0.6090 C   0  0  0  0  0  0  0  0  0  0  0  0
    3.2630   16.8150   -0.6680 C   0  0  2  0  0  0  0  0  0  0  0  0
    2.9360   17.7160   -1.8760 C   0  0  0  0  0  0  0  0  0  0  0  0
    2.2720   19.0410   -1.4930 C   0  0  0  0  0  0  0  0  0  0  0  0
    0.7770   18.9410   -1.5230 C   0  0  2  0  0  0  0  0  0  0  0  0
    0.0960   20.1940   -1.6720 O   0  0  0  0  0  0  0  0  0  0  0  0
   -0.1210   19.4980   -0.4340 C   0  0  0  0  0  0  0  0  0  0  0  0
    0.4450   20.1940    0.7630 C   0  0  0  0  0  0  0  0  0  0  0  0
   -1.5030   18.9390   -0.2910 C   0  0  0  0  0  0  0  0  0  0  0  0
    2.1360   15.8130   -0.4440 C   0  0  1  0  0  0  0  0  0  0  0  0
    0.7700   16.5000   -0.1800 C   0  0  0  0  0  0  0  0  0  0  0  0
   -0.3150   15.6020   -0.8280 C   0  0  0  0  0  0  0  0  0  0  0  0
    0.4160   14.2770   -1.1480 C   0  0  1  0  0  0  0  0  0  0  0  0
    0.4380   13.4940    0.2030 C   0  0  0  0  0  0  0  0  0  0  0  0
   -0.1890   13.4160   -2.3040 C   0  0  2  0  0  0  0  0  0  0  0  0
   -1.6180   12.9030   -2.0570 C   0  0  0  0  0  0  0  0  0  0  0  0
   -1.7120   11.5700   -1.3930 C   0  0  0  0  0  0  0  0  0  0  0  0
   -0.7040   10.6860   -1.2670 C   0  0  0  0  0  0  0  0  0  0  0  0
    0.6630   10.9540   -1.9080 C   0  0  1  0  0  0  0  0  0  0  0  0
    1.1480    9.6780   -2.6460 C   0  0  0  0  0  0  0  0  0  0  0  0
    1.1580    8.4490   -1.7430 C   0  0  0  0  0  0  0  0  0  0  0  0
   -0.2310    8.1810   -1.1700 C   0  0  2  0  0  0  0  0  0  0  0  0
   -1.1060    7.8050   -2.2380 O   0  0  0  0  0  0  0  0  0  0  0  0
   -0.8270    9.4010   -0.4120 C   0  0  0  0  0  0  0  0  0  0  0  0
   -0.0520    9.6200    0.9110 C   0  0  0  0  0  0  0  0  0  0  0  0
   -2.2840    9.0470   -0.0090 C   0  0  0  0  0  0  0  0  0  0  0  0
    0.7610   12.2570   -2.8140 C   0  0  1  0  0  0  0  0  0  0  0  0
    0.3160   11.9260   -4.2710 C   0  0  0  0  0  0  0  0  0  0  0  0
    2.2660   12.7110   -2.9010 C   0  0  0  0  0  0  0  0  0  0  0  0
    2.7710   13.6570   -1.7950 C   0  0  0  0  0  0  0  0  0  0  0  0
    1.8130   14.8370   -1.6020 C   0  0  2  0  0  0  0  0  0  0  0  0
    1.7880   15.6550   -2.9380 C   0  0  0  0  0  0  0  0  0  0  0  0
    3.3145   16.9904    1.4872 H   0  0  0  0  0  0  0  0  0  0  0  0
    4.5416   17.9822    0.6286 H   0  0  0  0  0  0  0  0  0  0  0  0
    2.8179   18.4880    0.6286 H   0  0  0  0  0  0  0  0  0  0  0  0
    4.1958   16.2798   -0.8994 H   0  0  0  0  0  0  0  0  0  0  0  0
    3.8731   17.9380   -2.4075 H   0  0  0  0  0  0  0  0  0  0  0  0
    2.2185   17.1660   -2.5026 H   0  0  0  0  0  0  0  0  0  0  0  0
    2.5904   19.3188   -0.4774 H   0  0  0  0  0  0  0  0  0  0  0  0
    2.5794   19.8026   -2.2247 H   0  0  0  0  0  0  0  0  0  0  0  0
    0.8293   17.9522   -2.0022 H   0  0  0  0  0  0  0  0  0  0  0  0
    0.0601   19.7207    1.6784 H   0  0  0  0  0  0  0  0  0  0  0  0
    1.5424   20.1199    0.7454 H   0  0  0  0  0  0  0  0  0  0  0  0
    0.1487   21.2532    0.7454 H   0  0  0  0  0  0  0  0  0  0  0  0
   -1.7496   18.8393    0.7764 H   0  0  0  0  0  0  0  0  0  0  0  0
   -2.2240   19.6162   -0.7722 H   0  0  0  0  0  0  0  0  0  0  0  0
   -1.5505   17.9510   -0.7722 H   0  0  0  0  0  0  0  0  0  0  0  0
    2.5489   15.2584    0.4115 H   0  0  0  0  0  0  0  0  0  0  0  0
    0.5927   16.5872    0.9021 H   0  0  0  0  0  0  0  0  0  0  0  0
    0.7492   17.5141   -0.6056 H   0  0  0  0  0  0  0  0  0  0  0  0
   -1.1448   15.4283   -0.1271 H   0  0  0  0  0  0  0  0  0  0  0  0
   -0.7567   16.0620   -1.7243 H   0  0  0  0  0  0  0  0  0  0  0  0
    0.4180   14.2070    1.0404 H   0  0  0  0  0  0  0  0  0  0  0  0
   -0.4420   12.8365    0.2601 H   0  0  0  0  0  0  0  0  0  0  0  0
    1.3536   12.8870    0.2601 H   0  0  0  0  0  0  0  0  0  0  0  0
   -0.2714   14.1457   -3.1230 H   0  0  0  0  0  0  0  0  0  0  0  0
   -2.1371   13.6361   -1.4221 H   0  0  0  0  0  0  0  0  0  0  0  0
   -2.0727   12.7800   -3.0511 H   0  0  0  0  0  0  0  0  0  0  0  0
   -2.6871   11.2854   -0.9708 H   0  0  0  0  0  0  0  0  0  0  0  0
    1.3467   11.1887   -1.0788 H   0  0  0  0  0  0  0  0  0  0  0  0
    0.4769    9.4856   -3.4961 H   0  0  0  0  0  0  0  0  0  0  0  0
    2.1812    9.8567   -2.9786 H   0  0  0  0  0  0  0  0  0  0  0  0
    1.4807    7.5752   -2.3281 H   0  0  0  0  0  0  0  0  0  0  0  0
    1.8521    8.6318   -0.9094 H   0  0  0  0  0  0  0  0  0  0  0  0
   -0.1326    7.3705   -0.4328 H   0  0  0  0  0  0  0  0  0  0  0  0
   -1.1720    6.8350   -2.2360 H   0  0  0  0  0  0  0  0  0  0  0  0
   -0.7210    9.4309    1.7635 H   0  0  0  0  0  0  0  0  0  0  0  0
    0.8019    8.9280    0.9546 H   0  0  0  0  0  0  0  0  0  0  0  0
    0.3135   10.6566    0.9546 H   0  0  0  0  0  0  0  0  0  0  0  0
   -2.3665    9.0270    1.0877 H   0  0  0  0  0  0  0  0  0  0  0  0
   -2.9709    9.8044   -0.4146 H   0  0  0  0  0  0  0  0  0  0  0  0
   -2.5468    8.0589   -0.4146 H   0  0  0  0  0  0  0  0  0  0  0  0
   -0.5664   11.2697   -4.2447 H   0  0  0  0  0  0  0  0  0  0  0  0
    0.0642   12.8580   -4.7982 H   0  0  0  0  0  0  0  0  0  0  0  0
    1.1362   11.4167   -4.7982 H   0  0  0  0  0  0  0  0  0  0  0  0
    2.8891   11.8049   -2.8740 H   0  0  0  0  0  0  0  0  0  0  0  0
    2.3380   13.2923   -3.8321 H   0  0  0  0  0  0  0  0  0  0  0  0
    2.8478   13.0979   -0.8508 H   0  0  0  0  0  0  0  0  0  0  0  0
    3.7549   14.0493   -2.0917 H   0  0  0  0  0  0  0  0  0  0  0  0
    1.7551   16.7304   -2.7089 H   0  0  0  0  0  0  0  0  0  0  0  0
    2.6934   15.4319   -3.5215 H   0  0  0  0  0  0  0  0  0  0  0  0
    0.8979   15.3770   -3.5215 H   0  0  0  0  0  0  0  0  0  0  0  0
  1  2  1  0
  2  3  1  0
  3  4  1  0
  4  5  1  0
  5  6  1  0
  6  7  1  0
  7  8  1  0
  7  9  1  0
  2 10  1  0
 10 11  1  0
 11 12  1  0
 12 13  1  0
 13 14  1  1
 13 15  1  0
 15 16  1  0
 16 17  1  0
 17 18  2  0
 18 19  1  0
 19 20  1  0
 20 21  1  0
 21 22  1  0
 22 23  1  0
 22 24  1  0
 24 25  1  0
 24 26  1  0
 19 27  1  0
 27 28  1  6
 27 29  1  0
 29 30  1  0
 30 31  1  0
 31 32  1  6
  7  5  1  0
 31 10  1  0
 31 13  1  0
 27 15  1  0
 24 18  1  0
  1 33  1  0
  1 34  1  0
  1 35  1  0
  2 36  1  6
  3 37  1  0
  3 38  1  0
  4 39  1  0
  4 40  1  0
  5 41  1  6
  8 42  1  0
  8 43  1  0
  8 44  1  0
  9 45  1  0
  9 46  1  0
  9 47  1  0
 10 48  1  1
 11 49  1  0
 11 50  1  0
 12 51  1  0
 12 52  1  0
 14 53  1  0
 14 54  1  0
 14 55  1  0
 15 56  1  6
 16 57  1  0
 16 58  1  0
 17 59  1  0
 19 60  1  1
 20 61  1  0
 20 62  1  0
 21 63  1  0
 21 64  1  0
 22 65  1  1
 23 66  1  0
 25 67  1  0
 25 68  1  0
 25 69  1  0
 26 70  1  0
 26 71  1  0
 26 72  1  0
 28 73  1  0
 28 74  1  0
 28 75  1  0
 29 76  1  0
 29 77  1  0
 30 78  1  0
 30 79  1  0
 32 80  1  0
 32 81  1  0
 32 82  1  0
M  END
>  <meeko>  (7) 
{"is_sidechain": [false], "intermolecular_energy": 2.731, "internal_energy": -0.839}

$$$$
EPH_relaxed_0001_pdb2pqr_Repair_140_r2_0001_out
     RDKit          3D

 82 86  0  0  0  0  0  0  0  0999 V2000
   -5.2370    5.8140   -1.4800 C   0  0  0  0  0  0  0  0  0  0  0  0
   -5.4560    7.3100   -1.7270 C   0  0  2  0  0  0  0  0  0  0  0  0
   -5.1710    8.1530   -0.4680 C   0  0  0  0  0  0  0  0  0  0  0  0
   -4.1710    9.2880   -0.7020 C   0  0  0  0  0  0  0  0  0  0  0  0
   -2.7780    8.8870   -0.3210 C   0  0  2  0  0  0  0  0  0  0  0  0
   -2.1880    9.6810    0.7170 O   0  0  0  0  0  0  0  0  0  0  0  0
   -1.5590    9.7540   -0.5730 C   0  0  0  0  0  0  0  0  0  0  0  0
   -1.6760   11.0920   -1.2320 C   0  0  0  0  0  0  0  0  0  0  0  0
   -0.2130    9.0990   -0.6250 C   0  0  0  0  0  0  0  0  0  0  0  0
   -6.8820    7.5540   -2.2060 C   0  0  1  0  0  0  0  0  0  0  0  0
   -7.1820    6.8660   -3.5640 C   0  0  0  0  0  0  0  0  0  0  0  0
   -8.6630    6.4090   -3.5170 C   0  0  0  0  0  0  0  0  0  0  0  0
   -9.2560    7.1330   -2.2850 C   0  0  1  0  0  0  0  0  0  0  0  0
   -9.5850    8.5740   -2.7870 C   0  0  0  0  0  0  0  0  0  0  0  0
  -10.4970    6.4570   -1.6170 C   0  0  2  0  0  0  0  0  0  0  0  0
  -11.7430    6.3490   -2.5140 C   0  0  0  0  0  0  0  0  0  0  0  0
  -12.6840    7.5050   -2.4400 C   0  0  0  0  0  0  0  0  0  0  0  0
  -12.6880    8.4510   -1.4830 C   0  0  0  0  0  0  0  0  0  0  0  0
  -11.7380    8.3590   -0.2820 C   0  0  1  0  0  0  0  0  0  0  0  0
  -12.5250    8.6430    1.0240 C   0  0  0  0  0  0  0  0  0  0  0  0
  -13.2790    9.9690    0.9770 C   0  0  0  0  0  0  0  0  0  0  0  0
  -14.2560    9.9990   -0.1960 C   0  0  2  0  0  0  0  0  0  0  0  0
  -15.2870    9.0350    0.0380 O   0  0  0  0  0  0  0  0  0  0  0  0
  -13.5770    9.7160   -1.5660 C   0  0  0  0  0  0  0  0  0  0  0  0
  -12.6810   10.9150   -1.9600 C   0  0  0  0  0  0  0  0  0  0  0  0
  -14.6920    9.6350   -2.6430 C   0  0  0  0  0  0  0  0  0  0  0  0
  -10.8610    7.0370   -0.1900 C   0  0  1  0  0  0  0  0  0  0  0  0
  -11.6570    5.9210    0.5540 C   0  0  0  0  0  0  0  0  0  0  0  0
   -9.5830    7.3270    0.6810 C   0  0  0  0  0  0  0  0  0  0  0  0
   -8.3490    7.8820   -0.0570 C   0  0  0  0  0  0  0  0  0  0  0  0
   -8.0330    7.0460   -1.3010 C   0  0  2  0  0  0  0  0  0  0  0  0
   -7.6770    5.5960   -0.8260 C   0  0  0  0  0  0  0  0  0  0  0  0
   -5.2088    5.6214   -0.3974 H   0  0  0  0  0  0  0  0  0  0  0  0
   -6.0611    5.2431   -1.9326 H   0  0  0  0  0  0  0  0  0  0  0  0
   -4.2838    5.5033   -1.9326 H   0  0  0  0  0  0  0  0  0  0  0  0
   -4.7442    7.6257   -2.5039 H   0  0  0  0  0  0  0  0  0  0  0  0
   -6.1186    8.5908   -0.1212 H   0  0  0  0  0  0  0  0  0  0  0  0
   -4.7236    7.4783    0.2767 H   0  0  0  0  0  0  0  0  0  0  0  0
   -4.1845    9.5610   -1.7675 H   0  0  0  0  0  0  0  0  0  0  0  0
   -4.4666   10.1405   -0.0728 H   0  0  0  0  0  0  0  0  0  0  0  0
   -2.9941    7.8332   -0.5507 H   0  0  0  0  0  0  0  0  0  0  0  0
   -1.7445   11.8750   -0.4625 H   0  0  0  0  0  0  0  0  0  0  0  0
   -0.7900   11.2706   -1.8590 H   0  0  0  0  0  0  0  0  0  0  0  0
   -2.5795   11.1141   -1.8590 H   0  0  0  0  0  0  0  0  0  0  0  0
    0.1489    8.9229    0.3987 H   0  0  0  0  0  0  0  0  0  0  0  0
   -0.2927    8.1389   -1.1560 H   0  0  0  0  0  0  0  0  0  0  0  0
    0.4933    9.7541   -1.1560 H   0  0  0  0  0  0  0  0  0  0  0  0
   -6.8816    8.6537   -2.2332 H   0  0  0  0  0  0  0  0  0  0  0  0
   -7.0310    7.5765   -4.3900 H   0  0  0  0  0  0  0  0  0  0  0  0
   -6.5101    6.0110   -3.7303 H   0  0  0  0  0  0  0  0  0  0  0  0
   -9.1910    6.7080   -4.4345 H   0  0  0  0  0  0  0  0  0  0  0  0
   -8.7601    5.3157   -3.4450 H   0  0  0  0  0  0  0  0  0  0  0  0
   -9.7365    9.2376   -1.9229 H   0  0  0  0  0  0  0  0  0  0  0  0
   -8.7495    8.9498   -3.3959 H   0  0  0  0  0  0  0  0  0  0  0  0
  -10.5008    8.5500   -3.3959 H   0  0  0  0  0  0  0  0  0  0  0  0
  -10.1491    5.4249   -1.4632 H   0  0  0  0  0  0  0  0  0  0  0  0
  -11.4043    6.2527   -3.5561 H   0  0  0  0  0  0  0  0  0  0  0  0
  -12.3047    5.4757   -2.1507 H   0  0  0  0  0  0  0  0  0  0  0  0
  -13.4387    7.5911   -3.2356 H   0  0  0  0  0  0  0  0  0  0  0  0
  -10.9773    9.1383   -0.4369 H   0  0  0  0  0  0  0  0  0  0  0  0
  -13.2497    7.8308    1.1825 H   0  0  0  0  0  0  0  0  0  0  0  0
  -11.7967    8.7023    1.8462 H   0  0  0  0  0  0  0  0  0  0  0  0
  -13.8385   10.0986    1.9151 H   0  0  0  0  0  0  0  0  0  0  0  0
  -12.5505   10.7831    0.8485 H   0  0  0  0  0  0  0  0  0  0  0  0
  -14.6697   11.0165   -0.2550 H   0  0  0  0  0  0  0  0  0  0  0  0
  -15.9000    9.0710   -0.7160 H   0  0  0  0  0  0  0  0  0  0  0  0
  -12.3107   11.4105   -1.0504 H   0  0  0  0  0  0  0  0  0  0  0  0
  -11.8283   10.5557   -2.5548 H   0  0  0  0  0  0  0  0  0  0  0  0
  -13.2672   11.6309   -2.5548 H   0  0  0  0  0  0  0  0  0  0  0  0
  -15.6730    9.5637   -2.1505 H   0  0  0  0  0  0  0  0  0  0  0  0
  -14.6616   10.5377   -3.2708 H   0  0  0  0  0  0  0  0  0  0  0  0
  -14.5315    8.7461   -3.2708 H   0  0  0  0  0  0  0  0  0  0  0  0
  -11.5569    6.0614    1.6404 H   0  0  0  0  0  0  0  0  0  0  0  0
  -12.7190    5.9788    0.2732 H   0  0  0  0  0  0  0  0  0  0  0  0
  -11.2566    4.9357    0.2732 H   0  0  0  0  0  0  0  0  0  0  0  0
   -9.8655    8.0580    1.4529 H   0  0  0  0  0  0  0  0  0  0  0  0
   -9.2697    6.3458    1.0671 H   0  0  0  0  0  0  0  0  0  0  0  0
   -8.5486    8.9199   -0.3620 H   0  0  0  0  0  0  0  0  0  0  0  0
   -7.4852    7.8401    0.6228 H   0  0  0  0  0  0  0  0  0  0  0  0
   -7.6687    5.5620    0.2734 H   0  0  0  0  0  0  0  0  0  0  0  0
   -8.4284    4.8898   -1.2090 H   0  0  0  0  0  0  0  0  0  0  0  0
   -6.6840    5.3181   -1.2090 H   0  0  0  0  0  0  0  0  0  0  0  0
  1  2  1  0
  2  3  1  0
  3  4  1  0
  4  5  1  0
  5  6  1  0
  6  7  1  0
  7  8  1  0
  7  9  1  0
  2 10  1  0
 10 11  1  0
 11 12  1  0
 12 13  1  0
 13 14  1  6
 13 15  1  0
 15 16  1  0
 16 17  1  0
 17 18  2  0
 18 19  1  0
 19 20  1  0
 20 21  1  0
 21 22  1  0
 22 23  1  0
 22 24  1  0
 24 25  1  0
 24 26  1  0
 19 27  1  0
 27 28  1  1
 27 29  1  0
 29 30  1  0
 30 31  1  0
 31 32  1  1
  7  5  1  0
 31 10  1  0
 31 13  1  0
 27 15  1  0
 24 18  1  0
  1 33  1  0
  1 34  1  0
  1 35  1  0
  2 36  1  6
  3 37  1  0
  3 38  1  0
  4 39  1  0
  4 40  1  0
  5 41  1  1
  8 42  1  0
  8 43  1  0
  8 44  1  0
  9 45  1  0
  9 46  1  0
  9 47  1  0
 10 48  1  6
 11 49  1  0
 11 50  1  0
 12 51  1  0
 12 52  1  0
 14 53  1  0
 14 54  1  0
 14 55  1  0
 15 56  1  1
 16 57  1  0
 16 58  1  0
 17 59  1  0
 19 60  1  6
 20 61  1  0
 20 62  1  0
 21 63  1  0
 21 64  1  0
 22 65  1  6
 23 66  1  0
 25 67  1  0
 25 68  1  0
 25 69  1  0
 26 70  1  0
 26 71  1  0
 26 72  1  0
 28 73  1  0
 28 74  1  0
 28 75  1  0
 29 76  1  0
 29 77  1  0
 30 78  1  0
 30 79  1  0
 32 80  1  0
 32 81  1  0
 32 82  1  0
M  END
>  <meeko>  (8) 
{"is_sidechain": [false], "intermolecular_energy": 2.731, "internal_energy": -0.839}

$$$$
EPH_relaxed_0001_pdb2pqr_Repair_140_r2_0001_out
     RDKit          3D

 82 86  0  0  0  0  0  0  0  0999 V2000
   -0.2260   10.5430   -4.0320 C   0  0  0  0  0  0  0  0  0  0  0  0
    0.9580   10.3630   -3.0770 C   0  0  2  0  0  0  0  0  0  0  0  0
    0.8900    9.0250   -2.3140 C   0  0  0  0  0  0  0  0  0  0  0  0
   -0.5230    8.6410   -1.8680 C   0  0  0  0  0  0  0  0  0  0  0  0
   -0.7610    8.9780   -0.4280 C   0  0  2  0  0  0  0  0  0  0  0  0
   -2.1400    8.9900   -0.0350 O   0  0  0  0  0  0  0  0  0  0  0  0
   -1.4510   10.2490    0.0310 C   0  0  0  0  0  0  0  0  0  0  0  0
   -1.9460   11.2660   -0.9490 C   0  0  0  0  0  0  0  0  0  0  0  0
   -1.2090   10.7300    1.4280 C   0  0  0  0  0  0  0  0  0  0  0  0
    1.0100   11.5240   -2.0900 C   0  0  1  0  0  0  0  0  0  0  0  0
    2.0500   11.3010   -0.9600 C   0  0  0  0  0  0  0  0  0  0  0  0
    2.6480   12.6910   -0.6220 C   0  0  0  0  0  0  0  0  0  0  0  0
    1.7080   13.7000   -1.3220 C   0  0  1  0  0  0  0  0  0  0  0  0
    0.4900   13.8490   -0.3570 C   0  0  0  0  0  0  0  0  0  0  0  0
    2.3310   15.0880   -1.6830 C   0  0  2  0  0  0  0  0  0  0  0  0
    2.8070   15.9230   -0.4820 C   0  0  0  0  0  0  0  0  0  0  0  0
    1.7870   16.8470    0.0970 C   0  0  0  0  0  0  0  0  0  0  0  0
    0.6360   17.2120   -0.4980 C   0  0  0  0  0  0  0  0  0  0  0  0
    0.3090   16.7590   -1.9270 C   0  0  1  0  0  0  0  0  0  0  0  0
   -0.2040   17.9700   -2.7490 C   0  0  0  0  0  0  0  0  0  0  0  0
   -1.3770   18.6780   -2.0780 C   0  0  0  0  0  0  0  0  0  0  0  0
   -0.9950   19.1640   -0.6830 C   0  0  2  0  0  0  0  0  0  0  0  0
   -0.0100   20.1940   -0.8080 O   0  0  0  0  0  0  0  0  0  0  0  0
   -0.4550   18.0320    0.2340 C   0  0  0  0  0  0  0  0  0  0  0  0
   -1.6100   17.0740    0.6140 C   0  0  0  0  0  0  0  0  0  0  0  0
    0.0260   18.6810    1.5610 C   0  0  0  0  0  0  0  0  0  0  0  0
    1.4550   15.9530   -2.6770 C   0  0  1  0  0  0  0  0  0  0  0  0
    2.4290   16.9450   -3.3820 C   0  0  0  0  0  0  0  0  0  0  0  0
    0.8070   15.0810   -3.8170 C   0  0  0  0  0  0  0  0  0  0  0  0
    0.3190   13.6740   -3.4240 C   0  0  0  0  0  0  0  0  0  0  0  0
    1.4010   12.9150   -2.6480 C   0  0  2  0  0  0  0  0  0  0  0  0
    2.6310   12.7300   -3.6010 C   0  0  0  0  0  0  0  0  0  0  0  0
   -1.1487   10.6833   -3.4498 H   0  0  0  0  0  0  0  0  0  0  0  0
   -0.0548   11.4254   -4.6660 H   0  0  0  0  0  0  0  0  0  0  0  0
   -0.3248    9.6496   -4.6660 H   0  0  0  0  0  0  0  0  0  0  0  0
    1.8749   10.3500   -3.6845 H   0  0  0  0  0  0  0  0  0  0  0  0
    1.2744    8.2309   -2.9710 H   0  0  0  0  0  0  0  0  0  0  0  0
    1.4932    9.1446   -1.4019 H   0  0  0  0  0  0  0  0  0  0  0  0
   -1.2521    9.1850   -2.4865 H   0  0  0  0  0  0  0  0  0  0  0  0
   -0.6367    7.5536   -1.9887 H   0  0  0  0  0  0  0  0  0  0  0  0
    0.1901    8.5083   -0.1370 H   0  0  0  0  0  0  0  0  0  0  0  0
   -2.3645   12.1258   -0.4053 H   0  0  0  0  0  0  0  0  0  0  0  0
   -1.1111   11.6029   -1.5810 H   0  0  0  0  0  0  0  0  0  0  0  0
   -2.7262   10.8168   -1.5810 H   0  0  0  0  0  0  0  0  0  0  0  0
   -1.5847    9.9833    2.1431 H   0  0  0  0  0  0  0  0  0  0  0  0
   -0.1299   10.8764    1.5836 H   0  0  0  0  0  0  0  0  0  0  0  0
   -1.7346   11.6837    1.5836 H   0  0  0  0  0  0  0  0  0  0  0  0
   -0.0393   11.5324   -1.7600 H   0  0  0  0  0  0  0  0  0  0  0  0
    1.5597   10.8736   -0.0729 H   0  0  0  0  0  0  0  0  0  0  0  0
    2.8355   10.6000   -1.2788 H   0  0  0  0  0  0  0  0  0  0  0  0
    2.6552   12.8568    0.4654 H   0  0  0  0  0  0  0  0  0  0  0  0
    3.6908   12.7897   -0.9579 H   0  0  0  0  0  0  0  0  0  0  0  0
    0.8403   13.8062    0.6849 H   0  0  0  0  0  0  0  0  0  0  0  0
   -0.0052   14.8144   -0.5379 H   0  0  0  0  0  0  0  0  0  0  0  0
   -0.2233   13.0314   -0.5379 H   0  0  0  0  0  0  0  0  0  0  0  0
    3.2430   14.8015   -2.2272 H   0  0  0  0  0  0  0  0  0  0  0  0
    3.1251   15.2289    0.3098 H   0  0  0  0  0  0  0  0  0  0  0  0
    3.6182   16.5632   -0.8590 H   0  0  0  0  0  0  0  0  0  0  0  0
    1.9935   17.2645    1.0935 H   0  0  0  0  0  0  0  0  0  0  0  0
   -0.4885   16.0072   -1.8337 H   0  0  0  0  0  0  0  0  0  0  0  0
    0.6198   18.6890   -2.8691 H   0  0  0  0  0  0  0  0  0  0  0  0
   -0.5546   17.5900   -3.7199 H   0  0  0  0  0  0  0  0  0  0  0  0
   -1.6747   19.5415   -2.6910 H   0  0  0  0  0  0  0  0  0  0  0  0
   -2.2105   17.9661   -1.9857 H   0  0  0  0  0  0  0  0  0  0  0  0
   -1.9093   19.5447   -0.2043 H   0  0  0  0  0  0  0  0  0  0  0  0
    0.1520   20.3340   -1.7560 H   0  0  0  0  0  0  0  0  0  0  0  0
   -1.6876   17.0096    1.7094 H   0  0  0  0  0  0  0  0  0  0  0  0
   -2.5550   17.4571    0.2013 H   0  0  0  0  0  0  0  0  0  0  0  0
   -1.4082   16.0745    0.2013 H   0  0  0  0  0  0  0  0  0  0  0  0
   -0.3879   18.1225    2.4135 H   0  0  0  0  0  0  0  0  0  0  0  0
    1.1248   18.6552    1.6046 H   0  0  0  0  0  0  0  0  0  0  0  0
   -0.3183   19.7248    1.6046 H   0  0  0  0  0  0  0  0  0  0  0  0
    2.9867   17.5130   -2.6229 H   0  0  0  0  0  0  0  0  0  0  0  0
    3.1347   16.3818   -4.0103 H   0  0  0  0  0  0  0  0  0  0  0  0
    1.8529   17.6402   -4.0103 H   0  0  0  0  0  0  0  0  0  0  0  0
   -0.0583   15.6357   -4.2089 H   0  0  0  0  0  0  0  0  0  0  0  0
    1.6149   14.9123   -4.5442 H   0  0  0  0  0  0  0  0  0  0  0  0
   -0.5776   13.7671   -2.7935 H   0  0  0  0  0  0  0  0  0  0  0  0
    0.0876   13.1139   -4.3420 H   0  0  0  0  0  0  0  0  0  0  0  0
    3.5425   12.5929   -3.0008 H   0  0  0  0  0  0  0  0  0  0  0  0
    2.4734   11.8455   -4.2356 H   0  0  0  0  0  0  0  0  0  0  0  0
    2.7405   13.6218   -4.2356 H   0  0  0  0  0  0  0  0  0  0  0  0
  1  2  1  0
  2  3  1  0
  3  4  1  0
  4  5  1  0
  5  6  1  0
  6  7  1  0
  7  8  1  0
  7  9  1  0
  2 10  1  0
 10 11  1  0
 11 12  1  0
 12 13  1  0
 13 14  1  1
 13 15  1  0
 15 16  1  0
 16 17  1  0
 17 18  2  0
 18 19  1  0
 19 20  1  0
 20 21  1  0
 21 22  1  0
 22 23  1  0
 22 24  1  0
 24 25  1  0
 24 26  1  0
 19 27  1  0
 27 28  1  6
 27 29  1  0
 29 30  1  0
 30 31  1  0
 31 32  1  6
  7  5  1  0
 31 10  1  0
 31 13  1  0
 27 15  1  0
 24 18  1  0
  1 33  1  0
  1 34  1  0
  1 35  1  0
  2 36  1  6
  3 37  1  0
  3 38  1  0
  4 39  1  0
  4 40  1  0
  5 41  1  1
  8 42  1  0
  8 43  1  0
  8 44  1  0
  9 45  1  0
  9 46  1  0
  9 47  1  0
 10 48  1  1
 11 49  1  0
 11 50  1  0
 12 51  1  0
 12 52  1  0
 14 53  1  0
 14 54  1  0
 14 55  1  0
 15 56  1  6
 16 57  1  0
 16 58  1  0
 17 59  1  0
 19 60  1  1
 20 61  1  0
 20 62  1  0
 21 63  1  0
 21 64  1  0
 22 65  1  1
 23 66  1  0
 25 67  1  0
 25 68  1  0
 25 69  1  0
 26 70  1  0
 26 71  1  0
 26 72  1  0
 28 73  1  0
 28 74  1  0
 28 75  1  0
 29 76  1  0
 29 77  1  0
 30 78  1  0
 30 79  1  0
 32 80  1  0
 32 81  1  0
 32 82  1  0
M  END
>  <meeko>  (9) 
{"is_sidechain": [false], "intermolecular_energy": 2.731, "internal_energy": -0.839}

$$$$
EPH_relaxed_0001_pdb2pqr_Repair_140_r2_0001_out
     RDKit          3D

 82 86  0  0  0  0  0  0  0  0999 V2000
    3.0480   18.6680   -1.0850 C   0  0  0  0  0  0  0  0  0  0  0  0
    2.7020   17.6230   -2.1500 C   0  0  2  0  0  0  0  0  0  0  0  0
    1.3150   17.8690   -2.7750 C   0  0  0  0  0  0  0  0  0  0  0  0
    0.6760   19.1950   -2.3540 C   0  0  0  0  0  0  0  0  0  0  0  0
   -0.6790   18.9900   -1.7480 C   0  0  2  0  0  0  0  0  0  0  0  0
   -1.4290   20.1930   -1.5360 O   0  0  0  0  0  0  0  0  0  0  0  0
   -1.0530   19.4640   -0.3560 C   0  0  0  0  0  0  0  0  0  0  0  0
   -0.0690   20.1810    0.5150 C   0  0  0  0  0  0  0  0  0  0  0  0
   -2.2050   18.8070    0.3390 C   0  0  0  0  0  0  0  0  0  0  0  0
    2.7610   16.2260   -1.5450 C   0  0  1  0  0  0  0  0  0  0  0  0
    3.3930   16.2140   -0.1270 C   0  0  0  0  0  0  0  0  0  0  0  0
    2.6530   15.1190    0.6830 C   0  0  0  0  0  0  0  0  0  0  0  0
    1.8620   14.3170   -0.3770 C   0  0  1  0  0  0  0  0  0  0  0  0
    2.9030   13.3340   -0.9970 C   0  0  0  0  0  0  0  0  0  0  0  0
    0.5900   13.5650    0.1340 C   0  0  2  0  0  0  0  0  0  0  0  0
    0.8560   12.4710    1.1820 C   0  0  0  0  0  0  0  0  0  0  0  0
    1.0990   11.1050    0.6310 C   0  0  0  0  0  0  0  0  0  0  0  0
    0.8250   10.7090   -0.6260 C   0  0  0  0  0  0  0  0  0  0  0  0
    0.1200   11.6490   -1.6120 C   0  0  1  0  0  0  0  0  0  0  0  0
   -1.0200   10.8830   -2.3330 C   0  0  0  0  0  0  0  0  0  0  0  0
   -0.5330    9.5990   -2.9970 C   0  0  0  0  0  0  0  0  0  0  0  0
    0.1090    8.6650   -1.9740 C   0  0  2  0  0  0  0  0  0  0  0  0
   -0.9010    8.2110   -1.0670 O   0  0  0  0  0  0  0  0  0  0  0  0
    1.2660    9.3310   -1.1780 C   0  0  0  0  0  0  0  0  0  0  0  0
    2.4820    9.5480   -2.1120 C   0  0  0  0  0  0  0  0  0  0  0  0
    1.7310    8.3310   -0.0860 C   0  0  0  0  0  0  0  0  0  0  0  0
   -0.3610   13.0420   -1.0180 C   0  0  1  0  0  0  0  0  0  0  0  0
   -1.7800   12.8920   -0.3910 C   0  0  0  0  0  0  0  0  0  0  0  0
   -0.5030   14.0800   -2.1940 C   0  0  0  0  0  0  0  0  0  0  0  0
    0.7600   14.8790   -2.5720 C   0  0  0  0  0  0  0  0  0  0  0  0
    1.4170   15.4860   -1.3290 C   0  0  2  0  0  0  0  0  0  0  0  0
    0.4010   16.4970   -0.6970 C   0  0  0  0  0  0  0  0  0  0  0  0
    2.9042   18.2336   -0.0847 H   0  0  0  0  0  0  0  0  0  0  0  0
    4.0968   18.9781   -1.2027 H   0  0  0  0  0  0  0  0  0  0  0  0
    2.3915   19.5428   -1.2027 H   0  0  0  0  0  0  0  0  0  0  0  0
    3.4466   17.7110   -2.9549 H   0  0  0  0  0  0  0  0  0  0  0  0
    1.4223   17.8675   -3.8698 H   0  0  0  0  0  0  0  0  0  0  0  0
    0.6542   17.0659   -2.4166 H   0  0  0  0  0  0  0  0  0  0  0  0
    1.3265   19.6853   -1.6148 H   0  0  0  0  0  0  0  0  0  0  0  0
    0.5589   19.8194   -3.2520 H   0  0  0  0  0  0  0  0  0  0  0  0
   -0.7808   18.0154   -2.2479 H   0  0  0  0  0  0  0  0  0  0  0  0
   -0.3157   20.0013    1.5718 H   0  0  0  0  0  0  0  0  0  0  0  0
    0.9448   19.8084    0.3066 H   0  0  0  0  0  0  0  0  0  0  0  0
   -0.1131   21.2602    0.3066 H   0  0  0  0  0  0  0  0  0  0  0  0
   -2.0689   18.8846    1.4278 H   0  0  0  0  0  0  0  0  0  0  0  0
   -3.1412   19.3070    0.0499 H   0  0  0  0  0  0  0  0  0  0  0  0
   -2.2513   17.7467    0.0499 H   0  0  0  0  0  0  0  0  0  0  0  0
    3.3512   15.7156   -2.3203 H   0  0  0  0  0  0  0  0  0  0  0  0
    4.4653   15.9774   -0.1922 H   0  0  0  0  0  0  0  0  0  0  0  0
    3.2958   17.1970    0.3571 H   0  0  0  0  0  0  0  0  0  0  0  0
    3.3715   14.4697    1.2047 H   0  0  0  0  0  0  0  0  0  0  0  0
    1.9986   15.5442    1.4582 H   0  0  0  0  0  0  0  0  0  0  0  0
    3.4473   12.8201   -0.1910 H   0  0  0  0  0  0  0  0  0  0  0  0
    2.3812   12.5914   -1.6186 H   0  0  0  0  0  0  0  0  0  0  0  0
    3.6145   13.8975   -1.6186 H   0  0  0  0  0  0  0  0  0  0  0  0
    0.0435   14.3596    0.6631 H   0  0  0  0  0  0  0  0  0  0  0  0
    1.7422   12.7655    1.7632 H   0  0  0  0  0  0  0  0  0  0  0  0
   -0.0616   12.3972    1.7841 H   0  0  0  0  0  0  0  0  0  0  0  0
    1.5390   10.3592    1.3094 H   0  0  0  0  0  0  0  0  0  0  0  0
    0.8846   11.9532   -2.3420 H   0  0  0  0  0  0  0  0  0  0  0  0
   -1.7943   10.6266   -1.5950 H   0  0  0  0  0  0  0  0  0  0  0  0
   -1.4151   11.5385   -3.1231 H   0  0  0  0  0  0  0  0  0  0  0  0
   -1.3882    9.0884   -3.4637 H   0  0  0  0  0  0  0  0  0  0  0  0
    0.2200    9.8598   -3.7553 H   0  0  0  0  0  0  0  0  0  0  0  0
    0.5529    7.8242   -2.5272 H   0  0  0  0  0  0  0  0  0  0  0  0
   -1.1630    7.3170   -1.3430 H   0  0  0  0  0  0  0  0  0  0  0  0
    3.3857    9.7093   -1.5059 H   0  0  0  0  0  0  0  0  0  0  0  0
    2.6198    8.6603   -2.7468 H   0  0  0  0  0  0  0  0  0  0  0  0
    2.3042   10.4286   -2.7468 H   0  0  0  0  0  0  0  0  0  0  0  0
    1.5332    8.7564    0.9089 H   0  0  0  0  0  0  0  0  0  0  0  0
    1.1803    7.3852   -0.1965 H   0  0  0  0  0  0  0  0  0  0  0  0
    2.8091    8.1426   -0.1965 H   0  0  0  0  0  0  0  0  0  0  0  0
   -1.6989   12.9006    0.7060 H   0  0  0  0  0  0  0  0  0  0  0  0
   -2.4157   13.7280   -0.7182 H   0  0  0  0  0  0  0  0  0  0  0  0
   -2.2269   11.9416   -0.7182 H   0  0  0  0  0  0  0  0  0  0  0  0
   -0.8273   13.5275   -3.0882 H   0  0  0  0  0  0  0  0  0  0  0  0
   -1.2204   14.8305   -1.8305 H   0  0  0  0  0  0  0  0  0  0  0  0
    1.4769   14.2065   -3.0658 H   0  0  0  0  0  0  0  0  0  0  0  0
    0.4689   15.6956   -3.2490 H   0  0  0  0  0  0  0  0  0  0  0  0
    0.4598   16.4385    0.3999 H   0  0  0  0  0  0  0  0  0  0  0  0
    0.6484   17.5179   -1.0235 H   0  0  0  0  0  0  0  0  0  0  0  0
   -0.6186   16.2446   -1.0235 H   0  0  0  0  0  0  0  0  0  0  0  0
  1  2  1  0
  2  3  1  0
  3  4  1  0
  4  5  1  0
  5  6  1  0
  6  7  1  0
  7  8  1  0
  7  9  1  0
  2 10  1  0
 10 11  1  0
 11 12  1  0
 12 13  1  0
 13 14  1  6
 13 15  1  0
 15 16  1  0
 16 17  1  0
 17 18  2  0
 18 19  1  0
 19 20  1  0
 20 21  1  0
 21 22  1  0
 22 23  1  0
 22 24  1  0
 24 25  1  0
 24 26  1  0
 19 27  1  0
 27 28  1  1
 27 29  1  0
 29 30  1  0
 30 31  1  0
 31 32  1  1
  7  5  1  0
 31 10  1  0
 31 13  1  0
 27 15  1  0
 24 18  1  0
  1 33  1  0
  1 34  1  0
  1 35  1  0
  2 36  1  6
  3 37  1  0
  3 38  1  0
  4 39  1  0
  4 40  1  0
  5 41  1  6
  8 42  1  0
  8 43  1  0
  8 44  1  0
  9 45  1  0
  9 46  1  0
  9 47  1  0
 10 48  1  6
 11 49  1  0
 11 50  1  0
 12 51  1  0
 12 52  1  0
 14 53  1  0
 14 54  1  0
 14 55  1  0
 15 56  1  1
 16 57  1  0
 16 58  1  0
 17 59  1  0
 19 60  1  6
 20 61  1  0
 20 62  1  0
 21 63  1  0
 21 64  1  0
 22 65  1  6
 23 66  1  0
 25 67  1  0
 25 68  1  0
 25 69  1  0
 26 70  1  0
 26 71  1  0
 26 72  1  0
 28 73  1  0
 28 74  1  0
 28 75  1  0
 29 76  1  0
 29 77  1  0
 30 78  1  0
 30 79  1  0
 32 80  1  0
 32 81  1  0
 32 82  1  0
M  END
>  <meeko>  (10) 
{"is_sidechain": [false], "intermolecular_energy": 2.731, "internal_energy": -0.839}

$$$$
EPH_relaxed_0001_pdb2pqr_Repair_140_r2_0001_out
     RDKit          3D

 82 86  0  0  0  0  0  0  0  0999 V2000
   -3.7930    7.2000   -3.3880 C   0  0  0  0  0  0  0  0  0  0  0  0
   -3.8240    7.2930   -1.8600 C   0  0  2  0  0  0  0  0  0  0  0  0
   -5.2460    7.1040   -1.2950 C   0  0  0  0  0  0  0  0  0  0  0  0
   -6.3550    7.3910   -2.3110 C   0  0  0  0  0  0  0  0  0  0  0  0
   -7.6880    7.5510   -1.6450 C   0  0  2  0  0  0  0  0  0  0  0  0
   -8.2310    6.3440   -1.0940 O   0  0  0  0  0  0  0  0  0  0  0  0
   -8.9680    6.9330   -2.1770 C   0  0  0  0  0  0  0  0  0  0  0  0
   -8.9770    6.1090   -3.4260 C   0  0  0  0  0  0  0  0  0  0  0  0
  -10.2770    7.5290   -1.7610 C   0  0  0  0  0  0  0  0  0  0  0  0
   -3.2590    8.6350   -1.4100 C   0  0  1  0  0  0  0  0  0  0  0  0
   -3.8700    9.1210   -0.0690 C   0  0  0  0  0  0  0  0  0  0  0  0
   -2.7430    9.8650    0.6930 C   0  0  0  0  0  0  0  0  0  0  0  0
   -1.6300   10.0720   -0.3610 C   0  0  1  0  0  0  0  0  0  0  0  0
   -2.0780   11.3250   -1.1760 C   0  0  0  0  0  0  0  0  0  0  0  0
   -0.1760   10.2320    0.1910 C   0  0  2  0  0  0  0  0  0  0  0  0
    0.0480   11.4590    1.0920 C   0  0  0  0  0  0  0  0  0  0  0  0
    0.4820   12.6990    0.3820 C   0  0  0  0  0  0  0  0  0  0  0  0
    0.9570   12.7550   -0.8760 C   0  0  0  0  0  0  0  0  0  0  0  0
    1.1890   11.4750   -1.6880 C   0  0  1  0  0  0  0  0  0  0  0  0
    2.5820   11.5390   -2.3690 C   0  0  0  0  0  0  0  0  0  0  0  0
    2.7660   12.8020   -3.2050 C   0  0  0  0  0  0  0  0  0  0  0  0
    2.5840   14.0540   -2.3500 C   0  0  2  0  0  0  0  0  0  0  0  0
    3.6520   14.1220   -1.4010 O   0  0  0  0  0  0  0  0  0  0  0  0
    1.2200   14.0950   -1.6070 C   0  0  0  0  0  0  0  0  0  0  0  0
    0.0780   14.3240   -2.6270 C   0  0  0  0  0  0  0  0  0  0  0  0
    1.2230   15.3350   -0.6730 C   0  0  0  0  0  0  0  0  0  0  0  0
    0.9530   10.1090   -0.9100 C   0  0  1  0  0  0  0  0  0  0  0  0
    2.2570    9.6870   -0.1660 C   0  0  0  0  0  0  0  0  0  0  0  0
    0.6490    8.9700   -1.9540 C   0  0  0  0  0  0  0  0  0  0  0  0
   -0.8230    8.7830   -2.3700 C   0  0  0  0  0  0  0  0  0  0  0  0
   -1.7350    8.7110   -1.1410 C   0  0  2  0  0  0  0  0  0  0  0  0
   -1.3220    7.4470   -0.3130 C   0  0  0  0  0  0  0  0  0  0  0  0
   -3.4583    6.1959   -3.6875 H   0  0  0  0  0  0  0  0  0  0  0  0
   -4.8013    7.3846   -3.7871 H   0  0  0  0  0  0  0  0  0  0  0  0
   -3.0972    7.9527   -3.7871 H   0  0  0  0  0  0  0  0  0  0  0  0
   -3.2015    6.4761   -1.4661 H   0  0  0  0  0  0  0  0  0  0  0  0
   -5.3486    6.0634   -0.9536 H   0  0  0  0  0  0  0  0  0  0  0  0
   -5.3653    7.8282   -0.4756 H   0  0  0  0  0  0  0  0  0  0  0  0
   -6.1126    8.3181   -2.8511 H   0  0  0  0  0  0  0  0  0  0  0  0
   -6.4168    6.5373   -3.0020 H   0  0  0  0  0  0  0  0  0  0  0  0
   -7.4365    8.5759   -1.3346 H   0  0  0  0  0  0  0  0  0  0  0  0
   -8.9887    5.0415   -3.1609 H   0  0  0  0  0  0  0  0  0  0  0  0
   -9.8726    6.3497   -4.0176 H   0  0  0  0  0  0  0  0  0  0  0  0
   -8.0764    6.3301   -4.0176 H   0  0  0  0  0  0  0  0  0  0  0  0
  -10.3353    7.5556   -0.6629 H   0  0  0  0  0  0  0  0  0  0  0  0
  -10.3565    8.5521   -2.1573 H   0  0  0  0  0  0  0  0  0  0  0  0
  -11.1009    6.9173   -2.1573 H   0  0  0  0  0  0  0  0  0  0  0  0
   -3.5177    9.2469   -2.2867 H   0  0  0  0  0  0  0  0  0  0  0  0
   -4.7113    9.8031   -0.2613 H   0  0  0  0  0  0  0  0  0  0  0  0
   -4.2528    8.2746    0.5202 H   0  0  0  0  0  0  0  0  0  0  0  0
   -3.1037   10.8326    1.0719 H   0  0  0  0  0  0  0  0  0  0  0  0
   -2.3887    9.3010    1.5684 H   0  0  0  0  0  0  0  0  0  0  0  0
   -2.3656   12.1295   -0.4831 H   0  0  0  0  0  0  0  0  0  0  0  0
   -1.2464   11.6668   -1.8097 H   0  0  0  0  0  0  0  0  0  0  0  0
   -2.9378   11.0620   -1.8097 H   0  0  0  0  0  0  0  0  0  0  0  0
   -0.0758    9.3560    0.8487 H   0  0  0  0  0  0  0  0  0  0  0  0
   -0.8971   11.6772    1.6109 H   0  0  0  0  0  0  0  0  0  0  0  0
    0.8711   11.1925    1.7713 H   0  0  0  0  0  0  0  0  0  0  0  0
    0.4071   13.6474    0.9342 H   0  0  0  0  0  0  0  0  0  0  0  0
    0.3997   11.4531   -2.4538 H   0  0  0  0  0  0  0  0  0  0  0  0
    3.3574   11.5161   -1.5891 H   0  0  0  0  0  0  0  0  0  0  0  0
    2.6634   10.6755   -3.0455 H   0  0  0  0  0  0  0  0  0  0  0  0
    3.7782   12.8043   -3.6357 H   0  0  0  0  0  0  0  0  0  0  0  0
    2.0085   12.8085   -4.0026 H   0  0  0  0  0  0  0  0  0  0  0  0
    2.5979   14.9214   -3.0264 H   0  0  0  0  0  0  0  0  0  0  0  0
    3.4070   14.7810   -0.7290 H   0  0  0  0  0  0  0  0  0  0  0  0
   -0.8624   14.5126   -2.0884 H   0  0  0  0  0  0  0  0  0  0  0  0
    0.3191   15.1917   -3.2587 H   0  0  0  0  0  0  0  0  0  0  0  0
   -0.0341   13.4305   -3.2587 H   0  0  0  0  0  0  0  0  0  0  0  0
    1.2222   15.0039    0.3760 H   0  0  0  0  0  0  0  0  0  0  0  0
    2.1226   15.9377   -0.8666 H   0  0  0  0  0  0  0  0  0  0  0  0
    0.3263   15.9420   -0.8666 H   0  0  0  0  0  0  0  0  0  0  0  0
    2.0929    9.7401    0.9204 H   0  0  0  0  0  0  0  0  0  0  0  0
    2.5224    8.6571   -0.4468 H   0  0  0  0  0  0  0  0  0  0  0  0
    3.0755   10.3661   -0.4468 H   0  0  0  0  0  0  0  0  0  0  0  0
    1.2265    9.1900   -2.8640 H   0  0  0  0  0  0  0  0  0  0  0  0
    0.9258    8.0338   -1.4471 H   0  0  0  0  0  0  0  0  0  0  0  0
   -1.1305    9.6328   -2.9971 H   0  0  0  0  0  0  0  0  0  0  0  0
   -0.9125    7.8399   -2.9291 H   0  0  0  0  0  0  0  0  0  0  0  0
   -1.3956    7.6722    0.7612 H   0  0  0  0  0  0  0  0  0  0  0  0
   -1.9939    6.6116   -0.5594 H   0  0  0  0  0  0  0  0  0  0  0  0
   -0.2865    7.1695   -0.5594 H   0  0  0  0  0  0  0  0  0  0  0  0
  1  2  1  0
  2  3  1  0
  3  4  1  0
  4  5  1  0
  5  6  1  0
  6  7  1  0
  7  8  1  0
  7  9  1  0
  2 10  1  0
 10 11  1  0
 11 12  1  0
 12 13  1  0
 13 14  1  6
 13 15  1  0
 15 16  1  0
 16 17  1  0
 17 18  2  0
 18 19  1  0
 19 20  1  0
 20 21  1  0
 21 22  1  0
 22 23  1  0
 22 24  1  0
 24 25  1  0
 24 26  1  0
 19 27  1  0
 27 28  1  1
 27 29  1  0
 29 30  1  0
 30 31  1  0
 31 32  1  1
  7  5  1  0
 31 10  1  0
 31 13  1  0
 27 15  1  0
 24 18  1  0
  1 33  1  0
  1 34  1  0
  1 35  1  0
  2 36  1  1
  3 37  1  0
  3 38  1  0
  4 39  1  0
  4 40  1  0
  5 41  1  1
  8 42  1  0
  8 43  1  0
  8 44  1  0
  9 45  1  0
  9 46  1  0
  9 47  1  0
 10 48  1  6
 11 49  1  0
 11 50  1  0
 12 51  1  0
 12 52  1  0
 14 53  1  0
 14 54  1  0
 14 55  1  0
 15 56  1  1
 16 57  1  0
 16 58  1  0
 17 59  1  0
 19 60  1  6
 20 61  1  0
 20 62  1  0
 21 63  1  0
 21 64  1  0
 22 65  1  6
 23 66  1  0
 25 67  1  0
 25 68  1  0
 25 69  1  0
 26 70  1  0
 26 71  1  0
 26 72  1  0
 28 73  1  0
 28 74  1  0
 28 75  1  0
 29 76  1  0
 29 77  1  0
 30 78  1  0
 30 79  1  0
 32 80  1  0
 32 81  1  0
 32 82  1  0
M  END
>  <meeko>  (11) 
{"is_sidechain": [false], "intermolecular_energy": 2.731, "internal_energy": -0.839}

$$$$
EPH_relaxed_0001_pdb2pqr_Repair_140_r2_0001_out
     RDKit          3D

 82 86  0  0  0  0  0  0  0  0999 V2000
   -0.8150   16.3310   -5.8110 C   0  0  0  0  0  0  0  0  0  0  0  0
    0.2560   15.6130   -6.6370 C   0  0  2  0  0  0  0  0  0  0  0  0
   -0.1670   15.4370   -8.1090 C   0  0  0  0  0  0  0  0  0  0  0  0
    0.4400   16.4790   -9.0530 C   0  0  0  0  0  0  0  0  0  0  0  0
    1.8390   16.1180   -9.4510 C   0  0  2  0  0  0  0  0  0  0  0  0
    2.2810   16.7030  -10.6830 O   0  0  0  0  0  0  0  0  0  0  0  0
    2.1710   15.2710  -10.6650 C   0  0  0  0  0  0  0  0  0  0  0  0
    1.0980   14.7310  -11.5570 C   0  0  0  0  0  0  0  0  0  0  0  0
    3.4910   14.5640  -10.7050 C   0  0  0  0  0  0  0  0  0  0  0  0
    0.5660   14.2550   -6.0180 C   0  0  1  0  0  0  0  0  0  0  0  0
    1.8180   13.5850   -6.6450 C   0  0  0  0  0  0  0  0  0  0  0  0
    2.5280   12.8100   -5.5050 C   0  0  0  0  0  0  0  0  0  0  0  0
    1.4980   12.7820   -4.3520 C   0  0  1  0  0  0  0  0  0  0  0  0
    0.5250   11.6150   -4.7110 C   0  0  0  0  0  0  0  0  0  0  0  0
    2.0800   12.6260   -2.9090 C   0  0  2  0  0  0  0  0  0  0  0  0
    2.8370   11.3120   -2.6500 C   0  0  0  0  0  0  0  0  0  0  0  0
    2.0040   10.1860   -2.1330 C   0  0  0  0  0  0  0  0  0  0  0  0
    0.7660   10.3030   -1.6180 C   0  0  0  0  0  0  0  0  0  0  0  0
    0.1190   11.6800   -1.4260 C   0  0  1  0  0  0  0  0  0  0  0  0
   -0.5150   11.7620   -0.0120 C   0  0  0  0  0  0  0  0  0  0  0  0
   -1.4860   10.6180    0.2620 C   0  0  0  0  0  0  0  0  0  0  0  0
   -0.7910    9.2670    0.1180 C   0  0  2  0  0  0  0  0  0  0  0  0
    0.1820    9.1360    1.1580 O   0  0  0  0  0  0  0  0  0  0  0  0
   -0.1070    9.0730   -1.2650 C   0  0  0  0  0  0  0  0  0  0  0  0
   -1.1880    8.9130   -2.3620 C   0  0  0  0  0  0  0  0  0  0  0  0
    0.6750    7.7320   -1.2270 C   0  0  0  0  0  0  0  0  0  0  0  0
    1.0410   12.9320   -1.7550 C   0  0  1  0  0  0  0  0  0  0  0  0
    1.8760   13.3220   -0.4970 C   0  0  0  0  0  0  0  0  0  0  0  0
    0.1280   14.1710   -2.0840 C   0  0  0  0  0  0  0  0  0  0  0  0
   -0.3160   14.3370   -3.5500 C   0  0  0  0  0  0  0  0  0  0  0  0
    0.8790   14.2200   -4.5010 C   0  0  2  0  0  0  0  0  0  0  0  0
    1.8640   15.3940   -4.1790 C   0  0  0  0  0  0  0  0  0  0  0  0
   -0.6068   16.1914   -4.7399 H   0  0  0  0  0  0  0  0  0  0  0  0
   -0.8037   17.4047   -6.0498 H   0  0  0  0  0  0  0  0  0  0  0  0
   -1.8039   15.9127   -6.0498 H   0  0  0  0  0  0  0  0  0  0  0  0
    1.1588   16.2413   -6.6261 H   0  0  0  0  0  0  0  0  0  0  0  0
    0.1498   14.4384   -8.4443 H   0  0  0  0  0  0  0  0  0  0  0  0
   -1.2587   15.5660   -8.1473 H   0  0  0  0  0  0  0  0  0  0  0  0
   -0.1821   16.5457   -9.9578 H   0  0  0  0  0  0  0  0  0  0  0  0
    0.4718   17.4432   -8.5246 H   0  0  0  0  0  0  0  0  0  0  0  0
    2.1463   16.0495   -8.3970 H   0  0  0  0  0  0  0  0  0  0  0  0
    0.2828   14.3207  -10.9430 H   0  0  0  0  0  0  0  0  0  0  0  0
    0.7074   15.5399  -12.1919 H   0  0  0  0  0  0  0  0  0  0  0  0
    1.5149   13.9354  -12.1919 H   0  0  0  0  0  0  0  0  0  0  0  0
    3.8385   14.3779   -9.6781 H   0  0  0  0  0  0  0  0  0  0  0  0
    3.3778   13.6057  -11.2332 H   0  0  0  0  0  0  0  0  0  0  0  0
    4.2260   15.1892  -11.2332 H   0  0  0  0  0  0  0  0  0  0  0  0
   -0.3849   13.7393   -6.2177 H   0  0  0  0  0  0  0  0  0  0  0  0
    1.5166   12.8917   -7.4440 H   0  0  0  0  0  0  0  0  0  0  0  0
    2.4877   14.3363   -7.0889 H   0  0  0  0  0  0  0  0  0  0  0  0
    2.7782   11.7884   -5.8271 H   0  0  0  0  0  0  0  0  0  0  0  0
    3.4755   13.2824   -5.2066 H   0  0  0  0  0  0  0  0  0  0  0  0
    0.1438   11.1578   -3.7860 H   0  0  0  0  0  0  0  0  0  0  0  0
   -0.3170   12.0077   -5.3000 H   0  0  0  0  0  0  0  0  0  0  0  0
    1.0627   10.8574   -5.3000 H   0  0  0  0  0  0  0  0  0  0  0  0
    2.8399   13.4205   -2.8732 H   0  0  0  0  0  0  0  0  0  0  0  0
    3.2927   10.9900   -3.5980 H   0  0  0  0  0  0  0  0  0  0  0  0
    3.5705   11.5344   -1.8610 H   0  0  0  0  0  0  0  0  0  0  0  0
    2.4384    9.1763   -2.1766 H   0  0  0  0  0  0  0  0  0  0  0  0
   -0.6665   11.7559   -2.1923 H   0  0  0  0  0  0  0  0  0  0  0  0
    0.2895   11.7285    0.7374 H   0  0  0  0  0  0  0  0  0  0  0  0
   -1.0830   12.7023    0.0447 H   0  0  0  0  0  0  0  0  0  0  0  0
   -1.8766   10.7147    1.2857 H   0  0  0  0  0  0  0  0  0  0  0  0
   -2.3063   10.6708   -0.4690 H   0  0  0  0  0  0  0  0  0  0  0  0
   -1.5644    8.4888    0.1969 H   0  0  0  0  0  0  0  0  0  0  0  0
    0.1490    9.9450    1.6960 H   0  0  0  0  0  0  0  0  0  0  0  0
   -2.1708    8.7675   -1.8899 H   0  0  0  0  0  0  0  0  0  0  0  0
   -1.2121    9.8174   -2.9877 H   0  0  0  0  0  0  0  0  0  0  0  0
   -0.9491    8.0404   -2.9877 H   0  0  0  0  0  0  0  0  0  0  0  0
    0.8469    7.4373   -0.1812 H   0  0  0  0  0  0  0  0  0  0  0  0
    0.0902    6.9519   -1.7364 H   0  0  0  0  0  0  0  0  0  0  0  0
    1.6419    7.8568   -1.7364 H   0  0  0  0  0  0  0  0  0  0  0  0
    1.3143   13.0597    0.4117 H   0  0  0  0  0  0  0  0  0  0  0  0
    2.8314   12.7770   -0.5077 H   0  0  0  0  0  0  0  0  0  0  0  0
    2.0713   14.4045   -0.5077 H   0  0  0  0  0  0  0  0  0  0  0  0
   -0.7800   14.0880   -1.4687 H   0  0  0  0  0  0  0  0  0  0  0  0
    0.7507   15.0522   -1.8703 H   0  0  0  0  0  0  0  0  0  0  0  0
   -1.0489   13.5541   -3.7949 H   0  0  0  0  0  0  0  0  0  0  0  0
   -0.7637   15.3345   -3.6702 H   0  0  0  0  0  0  0  0  0  0  0  0
    1.9576   15.5055   -3.0887 H   0  0  0  0  0  0  0  0  0  0  0  0
    2.8512   15.1733   -4.6111 H   0  0  0  0  0  0  0  0  0  0  0  0
    1.4751   16.3279   -4.6111 H   0  0  0  0  0  0  0  0  0  0  0  0
  1  2  1  0
  2  3  1  0
  3  4  1  0
  4  5  1  0
  5  6  1  0
  6  7  1  0
  7  8  1  0
  7  9  1  0
  2 10  1  0
 10 11  1  0
 11 12  1  0
 12 13  1  0
 13 14  1  6
 13 15  1  0
 15 16  1  0
 16 17  1  0
 17 18  2  0
 18 19  1  0
 19 20  1  0
 20 21  1  0
 21 22  1  0
 22 23  1  0
 22 24  1  0
 24 25  1  0
 24 26  1  0
 19 27  1  0
 27 28  1  1
 27 29  1  0
 29 30  1  0
 30 31  1  0
 31 32  1  1
  7  5  1  0
 31 10  1  0
 31 13  1  0
 27 15  1  0
 24 18  1  0
  1 33  1  0
  1 34  1  0
  1 35  1  0
  2 36  1  6
  3 37  1  0
  3 38  1  0
  4 39  1  0
  4 40  1  0
  5 41  1  1
  8 42  1  0
  8 43  1  0
  8 44  1  0
  9 45  1  0
  9 46  1  0
  9 47  1  0
 10 48  1  1
 11 49  1  0
 11 50  1  0
 12 51  1  0
 12 52  1  0
 14 53  1  0
 14 54  1  0
 14 55  1  0
 15 56  1  6
 16 57  1  0
 16 58  1  0
 17 59  1  0
 19 60  1  6
 20 61  1  0
 20 62  1  0
 21 63  1  0
 21 64  1  0
 22 65  1  1
 23 66  1  0
 25 67  1  0
 25 68  1  0
 25 69  1  0
 26 70  1  0
 26 71  1  0
 26 72  1  0
 28 73  1  0
 28 74  1  0
 28 75  1  0
 29 76  1  0
 29 77  1  0
 30 78  1  0
 30 79  1  0
 32 80  1  0
 32 81  1  0
 32 82  1  0
M  END
>  <meeko>  (12) 
{"is_sidechain": [false], "intermolecular_energy": 2.731, "internal_energy": -0.839}

$$$$
EPH_relaxed_0001_pdb2pqr_Repair_140_r2_0001_out
     RDKit          3D

 82 86  0  0  0  0  0  0  0  0999 V2000
   -0.3080   15.0850   -7.6380 C   0  0  0  0  0  0  0  0  0  0  0  0
    1.0700   15.0650   -6.9710 C   0  0  2  0  0  0  0  0  0  0  0  0
    2.2150   15.1480   -8.0010 C   0  0  0  0  0  0  0  0  0  0  0  0
    2.2490   16.4660   -8.7790 C   0  0  0  0  0  0  0  0  0  0  0  0
    1.8310   16.2790  -10.2060 C   0  0  2  0  0  0  0  0  0  0  0  0
    1.1680   15.0360  -10.4770 O   0  0  0  0  0  0  0  0  0  0  0  0
    2.4360   15.2330  -11.1240 C   0  0  0  0  0  0  0  0  0  0  0  0
    3.5110   14.3070  -10.6500 C   0  0  0  0  0  0  0  0  0  0  0  0
    2.3320   15.4350  -12.6040 C   0  0  0  0  0  0  0  0  0  0  0  0
    1.2210   13.8060   -6.1250 C   0  0  1  0  0  0  0  0  0  0  0  0
    2.6560   13.2190   -6.1780 C   0  0  0  0  0  0  0  0  0  0  0  0
    2.9480   12.6250   -4.7760 C   0  0  0  0  0  0  0  0  0  0  0  0
    1.5710   12.5890   -4.0730 C   0  0  1  0  0  0  0  0  0  0  0  0
    0.8770   11.3000   -4.6150 C   0  0  0  0  0  0  0  0  0  0  0  0
    1.5920   12.6210   -2.5100 C   0  0  2  0  0  0  0  0  0  0  0  0
    2.2860   11.4210   -1.8430 C   0  0  0  0  0  0  0  0  0  0  0  0
    1.3980   10.2640   -1.5280 C   0  0  0  0  0  0  0  0  0  0  0  0
    0.0520   10.2930   -1.5070 C   0  0  0  0  0  0  0  0  0  0  0  0
   -0.7100   11.6070   -1.7250 C   0  0  1  0  0  0  0  0  0  0  0  0
   -1.8220   11.7450   -0.6520 C   0  0  0  0  0  0  0  0  0  0  0  0
   -2.7480   10.5330   -0.6100 C   0  0  0  0  0  0  0  0  0  0  0  0
   -1.9610    9.2550   -0.3340 C   0  0  2  0  0  0  0  0  0  0  0  0
   -1.4310    9.3170    0.9940 O   0  0  0  0  0  0  0  0  0  0  0  0
   -0.8060    9.0150   -1.3460 C   0  0  0  0  0  0  0  0  0  0  0  0
   -1.3960    8.6480   -2.7310 C   0  0  0  0  0  0  0  0  0  0  0  0
   -0.0060    7.7720   -0.8720 C   0  0  0  0  0  0  0  0  0  0  0  0
    0.1840   12.9150   -1.8490 C   0  0  1  0  0  0  0  0  0  0  0  0
    0.4720   13.4990   -0.4320 C   0  0  0  0  0  0  0  0  0  0  0  0
   -0.6240   14.0190   -2.6280 C   0  0  0  0  0  0  0  0  0  0  0  0
   -0.5090   14.0090   -4.1650 C   0  0  0  0  0  0  0  0  0  0  0  0
    0.9570   13.9350   -4.6040 C   0  0  2  0  0  0  0  0  0  0  0  0
    1.6750   15.2310   -4.0930 C   0  0  0  0  0  0  0  0  0  0  0  0
   -1.0898   15.0963   -6.8642 H   0  0  0  0  0  0  0  0  0  0  0  0
   -0.3991   15.9846   -8.2645 H   0  0  0  0  0  0  0  0  0  0  0  0
   -0.4252   14.1885   -8.2645 H   0  0  0  0  0  0  0  0  0  0  0  0
    1.1387   15.9549   -6.3280 H   0  0  0  0  0  0  0  0  0  0  0  0
    3.1705   15.0348   -7.4679 H   0  0  0  0  0  0  0  0  0  0  0  0
    2.0459   14.3461   -8.7347 H   0  0  0  0  0  0  0  0  0  0  0  0
    1.5655   17.1813   -8.2983 H   0  0  0  0  0  0  0  0  0  0  0  0
    3.2828   16.8419   -8.7712 H   0  0  0  0  0  0  0  0  0  0  0  0
    1.6682   17.3603  -10.3256 H   0  0  0  0  0  0  0  0  0  0  0  0
    3.5255   14.2945   -9.5502 H   0  0  0  0  0  0  0  0  0  0  0  0
    3.3128   13.2923  -11.0256 H   0  0  0  0  0  0  0  0  0  0  0  0
    4.4852   14.6533  -11.0256 H   0  0  0  0  0  0  0  0  0  0  0  0
    1.8373   16.3958  -12.8091 H   0  0  0  0  0  0  0  0  0  0  0  0
    3.3397   15.4399  -13.0451 H   0  0  0  0  0  0  0  0  0  0  0  0
    1.7426   14.6177  -13.0451 H   0  0  0  0  0  0  0  0  0  0  0  0
    0.4460   13.1784   -6.5893 H   0  0  0  0  0  0  0  0  0  0  0  0
    2.7149   12.4309   -6.9431 H   0  0  0  0  0  0  0  0  0  0  0  0
    3.3908   13.9948   -6.4393 H   0  0  0  0  0  0  0  0  0  0  0  0
    3.3661   11.6113   -4.8632 H   0  0  0  0  0  0  0  0  0  0  0  0
    3.6863   13.2186   -4.2170 H   0  0  0  0  0  0  0  0  0  0  0  0
    0.5433   10.6802   -3.7697 H   0  0  0  0  0  0  0  0  0  0  0  0
    0.0085   11.5815   -5.2286 H   0  0  0  0  0  0  0  0  0  0  0  0
    1.5901   10.7300   -5.2286 H   0  0  0  0  0  0  0  0  0  0  0  0
    2.2313   13.4911   -2.2998 H   0  0  0  0  0  0  0  0  0  0  0  0
    3.0776   11.0672   -2.5198 H   0  0  0  0  0  0  0  0  0  0  0  0
    2.6628   11.7867   -0.8764 H   0  0  0  0  0  0  0  0  0  0  0  0
    1.8844    9.3058   -1.2929 H   0  0  0  0  0  0  0  0  0  0  0  0
   -1.1629   11.5333   -2.7247 H   0  0  0  0  0  0  0  0  0  0  0  0
   -1.3482   11.8611    0.3339 H   0  0  0  0  0  0  0  0  0  0  0  0
   -2.4318   12.6222   -0.9139 H   0  0  0  0  0  0  0  0  0  0  0  0
   -3.4928   10.6764    0.1867 H   0  0  0  0  0  0  0  0  0  0  0  0
   -3.2440   10.4359   -1.5870 H   0  0  0  0  0  0  0  0  0  0  0  0
   -2.6564    8.4100   -0.4456 H   0  0  0  0  0  0  0  0  0  0  0  0
   -1.8080   10.1030    1.4240 H   0  0  0  0  0  0  0  0  0  0  0  0
   -2.3227    8.0715   -2.5937 H   0  0  0  0  0  0  0  0  0  0  0  0
   -1.6164    9.5686   -3.2913 H   0  0  0  0  0  0  0  0  0  0  0  0
   -0.6677    8.0433   -3.2913 H   0  0  0  0  0  0  0  0  0  0  0  0
    0.0116    7.7447    0.2275 H   0  0  0  0  0  0  0  0  0  0  0  0
   -0.4866    6.8592   -1.2538 H   0  0  0  0  0  0  0  0  0  0  0  0
    1.0239    7.8313   -1.2538 H   0  0  0  0  0  0  0  0  0  0  0  0
    0.1229   12.7911    0.3342 H   0  0  0  0  0  0  0  0  0  0  0  0
    1.5536   13.6617   -0.3153 H   0  0  0  0  0  0  0  0  0  0  0  0
   -0.0574   14.4561   -0.3153 H   0  0  0  0  0  0  0  0  0  0  0  0
   -1.6869   13.8957   -2.3729 H   0  0  0  0  0  0  0  0  0  0  0  0
   -0.1824   14.9757   -2.3123 H   0  0  0  0  0  0  0  0  0  0  0  0
   -1.0478   13.1354   -4.5606 H   0  0  0  0  0  0  0  0  0  0  0  0
   -0.9459   14.9398   -4.5558 H   0  0  0  0  0  0  0  0  0  0  0  0
    1.6791   15.2384   -2.9930 H   0  0  0  0  0  0  0  0  0  0  0  0
    2.7105   15.2468   -4.4637 H   0  0  0  0  0  0  0  0  0  0  0  0
    1.1393   16.1174   -4.4637 H   0  0  0  0  0  0  0  0  0  0  0  0
  1  2  1  0
  2  3  1  0
  3  4  1  0
  4  5  1  0
  5  6  1  0
  6  7  1  0
  7  8  1  0
  7  9  1  0
  2 10  1  0
 10 11  1  0
 11 12  1  0
 12 13  1  0
 13 14  1  1
 13 15  1  0
 15 16  1  0
 16 17  1  0
 17 18  2  0
 18 19  1  0
 19 20  1  0
 20 21  1  0
 21 22  1  0
 22 23  1  0
 22 24  1  0
 24 25  1  0
 24 26  1  0
 19 27  1  0
 27 28  1  1
 27 29  1  0
 29 30  1  0
 30 31  1  0
 31 32  1  1
  7  5  1  0
 31 10  1  0
 31 13  1  0
 27 15  1  0
 24 18  1  0
  1 33  1  0
  1 34  1  0
  1 35  1  0
  2 36  1  1
  3 37  1  0
  3 38  1  0
  4 39  1  0
  4 40  1  0
  5 41  1  6
  8 42  1  0
  8 43  1  0
  8 44  1  0
  9 45  1  0
  9 46  1  0
  9 47  1  0
 10 48  1  6
 11 49  1  0
 11 50  1  0
 12 51  1  0
 12 52  1  0
 14 53  1  0
 14 54  1  0
 14 55  1  0
 15 56  1  6
 16 57  1  0
 16 58  1  0
 17 59  1  0
 19 60  1  6
 20 61  1  0
 20 62  1  0
 21 63  1  0
 21 64  1  0
 22 65  1  1
 23 66  1  0
 25 67  1  0
 25 68  1  0
 25 69  1  0
 26 70  1  0
 26 71  1  0
 26 72  1  0
 28 73  1  0
 28 74  1  0
 28 75  1  0
 29 76  1  0
 29 77  1  0
 30 78  1  0
 30 79  1  0
 32 80  1  0
 32 81  1  0
 32 82  1  0
M  END
>  <meeko>  (13) 
{"is_sidechain": [false], "intermolecular_energy": 2.731, "internal_energy": -0.839}

$$$$
EPH_relaxed_0001_pdb2pqr_Repair_140_r2_0001_out
     RDKit          3D

 82 86  0  0  0  0  0  0  0  0999 V2000
   -2.0650    7.8360   -1.9940 C   0  0  0  0  0  0  0  0  0  0  0  0
   -2.1400    8.5200   -0.6260 C   0  0  2  0  0  0  0  0  0  0  0  0
   -3.5750    8.5360   -0.0620 C   0  0  0  0  0  0  0  0  0  0  0  0
   -4.6570    8.3490   -1.1290 C   0  0  0  0  0  0  0  0  0  0  0  0
   -5.7170    7.3880   -0.6800 C   0  0  2  0  0  0  0  0  0  0  0  0
   -6.0220    6.3510   -1.6210 O   0  0  0  0  0  0  0  0  0  0  0  0
   -7.0800    7.2800   -1.3360 C   0  0  0  0  0  0  0  0  0  0  0  0
   -7.4590    8.1460   -2.4960 C   0  0  0  0  0  0  0  0  0  0  0  0
   -8.2080    6.6870   -0.5500 C   0  0  0  0  0  0  0  0  0  0  0  0
   -1.6040    9.9440   -0.7280 C   0  0  1  0  0  0  0  0  0  0  0  0
   -1.1070   10.4930    0.6360 C   0  0  0  0  0  0  0  0  0  0  0  0
    0.1120   11.4030    0.3340 C   0  0  0  0  0  0  0  0  0  0  0  0
    0.0720   11.6120   -1.1980 C   0  0  1  0  0  0  0  0  0  0  0  0
   -0.9840   12.7390   -1.4220 C   0  0  0  0  0  0  0  0  0  0  0  0
    1.4350   11.9530   -1.8840 C   0  0  2  0  0  0  0  0  0  0  0  0
    2.0820   13.2730   -1.4300 C   0  0  0  0  0  0  0  0  0  0  0  0
    1.7010   14.4770   -2.2260 C   0  0  0  0  0  0  0  0  0  0  0  0
    1.1020   14.4600   -3.4310 C   0  0  0  0  0  0  0  0  0  0  0  0
    0.8350   13.1370   -4.1600 C   0  0  1  0  0  0  0  0  0  0  0  0
    1.2730   13.2650   -5.6420 C   0  0  0  0  0  0  0  0  0  0  0  0
    0.6280   14.4570   -6.3430 C   0  0  0  0  0  0  0  0  0  0  0  0
    0.9640   15.7600   -5.6220 C   0  0  2  0  0  0  0  0  0  0  0  0
    2.3660   16.0120   -5.7550 O   0  0  0  0  0  0  0  0  0  0  0  0
    0.5760   15.7460   -4.1170 C   0  0  0  0  0  0  0  0  0  0  0  0
   -0.9660   15.7760   -3.9770 C   0  0  0  0  0  0  0  0  0  0  0  0
    1.0960   17.0610   -3.4780 C   0  0  0  0  0  0  0  0  0  0  0  0
    1.4150   11.8320   -3.4620 C   0  0  1  0  0  0  0  0  0  0  0  0
    2.8900   11.6010   -3.9100 C   0  0  0  0  0  0  0  0  0  0  0  0
    0.5990   10.5790   -3.9550 C   0  0  0  0  0  0  0  0  0  0  0  0
   -0.6730   10.2230   -3.1630 C   0  0  0  0  0  0  0  0  0  0  0  0
   -0.3890   10.1810   -1.6590 C   0  0  2  0  0  0  0  0  0  0  0  0
    0.6540    9.0410   -1.4000 C   0  0  0  0  0  0  0  0  0  0  0  0
   -1.9461    6.7513   -1.8555 H   0  0  0  0  0  0  0  0  0  0  0  0
   -2.9903    8.0348   -2.5546 H   0  0  0  0  0  0  0  0  0  0  0  0
   -1.2047    8.2306   -2.5546 H   0  0  0  0  0  0  0  0  0  0  0  0
   -1.5190    7.9373    0.0703 H   0  0  0  0  0  0  0  0  0  0  0  0
   -3.6683    7.7234    0.6735 H   0  0  0  0  0  0  0  0  0  0  0  0
   -3.7334    9.5278    0.3866 H   0  0  0  0  0  0  0  0  0  0  0  0
   -5.1238    9.3228   -1.3381 H   0  0  0  0  0  0  0  0  0  0  0  0
   -4.1815    7.9384   -2.0320 H   0  0  0  0  0  0  0  0  0  0  0  0
   -5.4109    7.5044    0.3701 H   0  0  0  0  0  0  0  0  0  0  0  0
   -7.8742    9.0947   -2.1251 H   0  0  0  0  0  0  0  0  0  0  0  0
   -6.5679    8.3500   -3.1078 H   0  0  0  0  0  0  0  0  0  0  0  0
   -8.2135    7.6299   -3.1078 H   0  0  0  0  0  0  0  0  0  0  0  0
   -8.0023    6.7951    0.5252 H   0  0  0  0  0  0  0  0  0  0  0  0
   -9.1431    7.2101   -0.7989 H   0  0  0  0  0  0  0  0  0  0  0  0
   -8.3073    5.6201   -0.7989 H   0  0  0  0  0  0  0  0  0  0  0  0
   -2.4930   10.4481   -1.1348 H   0  0  0  0  0  0  0  0  0  0  0  0
   -1.9032   11.0753    1.1229 H   0  0  0  0  0  0  0  0  0  0  0  0
   -0.8295    9.6730    1.3146 H   0  0  0  0  0  0  0  0  0  0  0  0
    0.0186   12.3647    0.8598 H   0  0  0  0  0  0  0  0  0  0  0  0
    1.0596   10.9565    0.6698 H   0  0  0  0  0  0  0  0  0  0  0  0
   -1.3339   13.1124   -0.4483 H   0  0  0  0  0  0  0  0  0  0  0  0
   -0.5258   13.5636   -1.9878 H   0  0  0  0  0  0  0  0  0  0  0  0
   -1.8366   12.3354   -1.9878 H   0  0  0  0  0  0  0  0  0  0  0  0
    2.0927   11.1541   -1.5109 H   0  0  0  0  0  0  0  0  0  0  0  0
    1.7921   13.4514   -0.3840 H   0  0  0  0  0  0  0  0  0  0  0  0
    3.1654   13.1452   -1.5714 H   0  0  0  0  0  0  0  0  0  0  0  0
    1.9291   15.4612   -1.7909 H   0  0  0  0  0  0  0  0  0  0  0  0
   -0.2513   12.9730   -4.1053 H   0  0  0  0  0  0  0  0  0  0  0  0
    2.3659   13.3844   -5.6774 H   0  0  0  0  0  0  0  0  0  0  0  0
    0.9476   12.3541   -6.1657 H   0  0  0  0  0  0  0  0  0  0  0  0
    0.9998   14.5112   -7.3769 H   0  0  0  0  0  0  0  0  0  0  0  0
   -0.4636   14.3216   -6.3339 H   0  0  0  0  0  0  0  0  0  0  0  0
    0.3704   16.5586   -6.0909 H   0  0  0  0  0  0  0  0  0  0  0  0
    2.5410   16.9000   -5.4010 H   0  0  0  0  0  0  0  0  0  0  0  0
   -1.2374   15.7813   -2.9110 H   0  0  0  0  0  0  0  0  0  0  0  0
   -1.3605   16.6820   -4.4603 H   0  0  0  0  0  0  0  0  0  0  0  0
   -1.3954   14.8860   -4.4603 H   0  0  0  0  0  0  0  0  0  0  0  0
    1.0618   16.9746   -2.3819 H   0  0  0  0  0  0  0  0  0  0  0  0
    2.1326   17.2400   -3.7995 H   0  0  0  0  0  0  0  0  0  0  0  0
    0.4622   17.9006   -3.7995 H   0  0  0  0  0  0  0  0  0  0  0  0
    3.5314   11.5005   -3.0220 H   0  0  0  0  0  0  0  0  0  0  0  0
    2.9508   10.6824   -4.5121 H   0  0  0  0  0  0  0  0  0  0  0  0
    3.2287   12.4570   -4.5121 H   0  0  0  0  0  0  0  0  0  0  0  0
    0.3008   10.7652   -4.9973 H   0  0  0  0  0  0  0  0  0  0  0  0
    1.2745    9.7223   -3.8147 H   0  0  0  0  0  0  0  0  0  0  0  0
   -1.4448   10.9810   -3.3623 H   0  0  0  0  0  0  0  0  0  0  0  0
   -1.0180    9.2286   -3.4825 H   0  0  0  0  0  0  0  0  0  0  0  0
    0.7824    8.9007   -0.3166 H   0  0  0  0  0  0  0  0  0  0  0  0
    0.2933    8.1047   -1.8508 H   0  0  0  0  0  0  0  0  0  0  0  0
    1.6186    9.3172   -1.8508 H   0  0  0  0  0  0  0  0  0  0  0  0
  1  2  1  0
  2  3  1  0
  3  4  1  0
  4  5  1  0
  5  6  1  0
  6  7  1  0
  7  8  1  0
  7  9  1  0
  2 10  1  0
 10 11  1  0
 11 12  1  0
 12 13  1  0
 13 14  1  1
 13 15  1  0
 15 16  1  0
 16 17  1  0
 17 18  2  0
 18 19  1  0
 19 20  1  0
 20 21  1  0
 21 22  1  0
 22 23  1  0
 22 24  1  0
 24 25  1  0
 24 26  1  0
 19 27  1  0
 27 28  1  6
 27 29  1  0
 29 30  1  0
 30 31  1  0
 31 32  1  6
  7  5  1  0
 31 10  1  0
 31 13  1  0
 27 15  1  0
 24 18  1  0
  1 33  1  0
  1 34  1  0
  1 35  1  0
  2 36  1  1
  3 37  1  0
  3 38  1  0
  4 39  1  0
  4 40  1  0
  5 41  1  1
  8 42  1  0
  8 43  1  0
  8 44  1  0
  9 45  1  0
  9 46  1  0
  9 47  1  0
 10 48  1  6
 11 49  1  0
 11 50  1  0
 12 51  1  0
 12 52  1  0
 14 53  1  0
 14 54  1  0
 14 55  1  0
 15 56  1  1
 16 57  1  0
 16 58  1  0
 17 59  1  0
 19 60  1  6
 20 61  1  0
 20 62  1  0
 21 63  1  0
 21 64  1  0
 22 65  1  6
 23 66  1  0
 25 67  1  0
 25 68  1  0
 25 69  1  0
 26 70  1  0
 26 71  1  0
 26 72  1  0
 28 73  1  0
 28 74  1  0
 28 75  1  0
 29 76  1  0
 29 77  1  0
 30 78  1  0
 30 79  1  0
 32 80  1  0
 32 81  1  0
 32 82  1  0
M  END
>  <meeko>  (14) 
{"is_sidechain": [false], "intermolecular_energy": 2.731, "internal_energy": -0.839}

$$$$
EPH_relaxed_0001_pdb2pqr_Repair_140_r2_0001_out
     RDKit          3D

 82 86  0  0  0  0  0  0  0  0999 V2000
    2.8420   11.3520   -5.3950 C   0  0  0  0  0  0  0  0  0  0  0  0
    1.8450   11.0470   -4.2730 C   0  0  2  0  0  0  0  0  0  0  0  0
    0.7240   10.0950   -4.7370 C   0  0  0  0  0  0  0  0  0  0  0  0
   -0.3420    9.8340   -3.6690 C   0  0  0  0  0  0  0  0  0  0  0  0
    0.2040    9.0350   -2.5240 C   0  0  2  0  0  0  0  0  0  0  0  0
   -0.6220    7.9380   -2.1130 O   0  0  0  0  0  0  0  0  0  0  0  0
   -0.4410    8.9910   -1.1520 C   0  0  0  0  0  0  0  0  0  0  0  0
   -1.6890    9.7610   -0.8510 C   0  0  0  0  0  0  0  0  0  0  0  0
    0.4000    8.5980    0.0220 C   0  0  0  0  0  0  0  0  0  0  0  0
    1.2430   12.3440   -3.7460 C   0  0  1  0  0  0  0  0  0  0  0  0
   -0.2980   12.2610   -3.5780 C   0  0  0  0  0  0  0  0  0  0  0  0
   -0.6580   13.1130   -2.3340 C   0  0  0  0  0  0  0  0  0  0  0  0
    0.6260   13.9190   -2.0270 C   0  0  1  0  0  0  0  0  0  0  0  0
    0.5900   15.1240   -3.0190 C   0  0  0  0  0  0  0  0  0  0  0  0
    0.8080   14.3940   -0.5490 C   0  0  2  0  0  0  0  0  0  0  0  0
   -0.2700   15.3660   -0.0380 C   0  0  0  0  0  0  0  0  0  0  0  0
    0.0280   16.8140   -0.2440 C   0  0  0  0  0  0  0  0  0  0  0  0
    1.2330   17.3280   -0.5540 C   0  0  0  0  0  0  0  0  0  0  0  0
    2.4750   16.4320   -0.6320 C   0  0  1  0  0  0  0  0  0  0  0  0
    3.6470   17.1040    0.1290 C   0  0  0  0  0  0  0  0  0  0  0  0
    3.9210   18.5250   -0.3550 C   0  0  0  0  0  0  0  0  0  0  0  0
    2.6800   19.4000   -0.2070 C   0  0  2  0  0  0  0  0  0  0  0  0
    2.3980   19.5690    1.1850 O   0  0  0  0  0  0  0  0  0  0  0  0
    1.4300   18.8180   -0.9260 C   0  0  0  0  0  0  0  0  0  0  0  0
    1.6200   18.9150   -2.4600 C   0  0  0  0  0  0  0  0  0  0  0  0
    0.2170   19.7220   -0.5810 C   0  0  0  0  0  0  0  0  0  0  0  0
    2.2630   14.9140   -0.2100 C   0  0  1  0  0  0  0  0  0  0  0  0
    2.4420   14.7610    1.3320 C   0  0  0  0  0  0  0  0  0  0  0  0
    3.3850   14.0330   -0.8770 C   0  0  0  0  0  0  0  0  0  0  0  0
    3.0960   13.4950   -2.2910 C   0  0  0  0  0  0  0  0  0  0  0  0
    1.7150   12.8340   -2.3550 C   0  0  2  0  0  0  0  0  0  0  0  0
    1.7290   11.6040   -1.3830 C   0  0  0  0  0  0  0  0  0  0  0  0
    3.8072   11.6473   -4.9576 H   0  0  0  0  0  0  0  0  0  0  0  0
    2.9802   10.4550   -6.0166 H   0  0  0  0  0  0  0  0  0  0  0  0
    2.4547   12.1727   -6.0166 H   0  0  0  0  0  0  0  0  0  0  0  0
    2.3967   10.5400   -3.4676 H   0  0  0  0  0  0  0  0  0  0  0  0
    0.2337   10.5381   -5.6163 H   0  0  0  0  0  0  0  0  0  0  0  0
    1.1964    9.1277   -4.9634 H   0  0  0  0  0  0  0  0  0  0  0  0
   -0.7084   10.7986   -3.2879 H   0  0  0  0  0  0  0  0  0  0  0  0
   -1.1568    9.2577   -4.1315 H   0  0  0  0  0  0  0  0  0  0  0  0
    1.2367    9.2326   -2.8473 H   0  0  0  0  0  0  0  0  0  0  0  0
   -1.8172    9.8401    0.2386 H   0  0  0  0  0  0  0  0  0  0  0  0
   -1.6118   10.7687   -1.2852 H   0  0  0  0  0  0  0  0  0  0  0  0
   -2.5550    9.2400   -1.2852 H   0  0  0  0  0  0  0  0  0  0  0  0
   -0.1310    8.8461    0.9529 H   0  0  0  0  0  0  0  0  0  0  0  0
    0.5943    7.5158   -0.0120 H   0  0  0  0  0  0  0  0  0  0  0  0
    1.3548    9.1432   -0.0120 H   0  0  0  0  0  0  0  0  0  0  0  0
    1.5887   13.0383   -4.5260 H   0  0  0  0  0  0  0  0  0  0  0  0
   -0.7987   12.6636   -4.4708 H   0  0  0  0  0  0  0  0  0  0  0  0
   -0.6263   11.2187   -3.4517 H   0  0  0  0  0  0  0  0  0  0  0  0
   -1.4969   13.7890   -2.5561 H   0  0  0  0  0  0  0  0  0  0  0  0
   -0.9749   12.4935   -1.4821 H   0  0  0  0  0  0  0  0  0  0  0  0
    0.5619   16.0657   -2.4512 H   0  0  0  0  0  0  0  0  0  0  0  0
    1.4891   15.1045   -3.6524 H   0  0  0  0  0  0  0  0  0  0  0  0
   -0.3064   15.0508   -3.6524 H   0  0  0  0  0  0  0  0  0  0  0  0
    0.6621   13.4624    0.0175 H   0  0  0  0  0  0  0  0  0  0  0  0
   -1.2106   15.1350   -0.5594 H   0  0  0  0  0  0  0  0  0  0  0  0
   -0.3220   15.2178    1.0507 H   0  0  0  0  0  0  0  0  0  0  0  0
   -0.8075   17.5208   -0.1332 H   0  0  0  0  0  0  0  0  0  0  0  0
    2.7231   16.3488   -1.7004 H   0  0  0  0  0  0  0  0  0  0  0  0
    3.3985   17.1381    1.2000 H   0  0  0  0  0  0  0  0  0  0  0  0
    4.5520   16.5074   -0.0579 H   0  0  0  0  0  0  0  0  0  0  0  0
    4.7390   18.9567    0.2404 H   0  0  0  0  0  0  0  0  0  0  0  0
    4.1986   18.4863   -1.4187 H   0  0  0  0  0  0  0  0  0  0  0  0
    2.8981   20.3648   -0.6883 H   0  0  0  0  0  0  0  0  0  0  0  0
    1.4320   19.6040    1.2880 H   0  0  0  0  0  0  0  0  0  0  0  0
    2.5799   19.4050   -2.6803 H   0  0  0  0  0  0  0  0  0  0  0  0
    1.6159   17.9045   -2.8946 H   0  0  0  0  0  0  0  0  0  0  0  0
    0.7992   19.5044   -2.8946 H   0  0  0  0  0  0  0  0  0  0  0  0
    0.1153   19.7978    0.5117 H   0  0  0  0  0  0  0  0  0  0  0  0
    0.3746   20.7247   -1.0050 H   0  0  0  0  0  0  0  0  0  0  0  0
   -0.6988   19.2844   -1.0050 H   0  0  0  0  0  0  0  0  0  0  0  0
    1.7048   15.3912    1.8510 H   0  0  0  0  0  0  0  0  0  0  0  0
    2.2902   13.7092    1.6162 H   0  0  0  0  0  0  0  0  0  0  0  0
    3.4573   15.0747    1.6162 H   0  0  0  0  0  0  0  0  0  0  0  0
    4.2982   14.6437   -0.9334 H   0  0  0  0  0  0  0  0  0  0  0  0
    3.4666   13.1399   -0.2401 H   0  0  0  0  0  0  0  0  0  0  0  0
    3.1291   14.3293   -3.0071 H   0  0  0  0  0  0  0  0  0  0  0  0
    3.8573   12.7416   -2.5419 H   0  0  0  0  0  0  0  0  0  0  0  0
    1.7250   11.9593   -0.3420 H   0  0  0  0  0  0  0  0  0  0  0  0
    0.8378   10.9846   -1.5625 H   0  0  0  0  0  0  0  0  0  0  0  0
    2.6340   11.0051   -1.5625 H   0  0  0  0  0  0  0  0  0  0  0  0
  1  2  1  0
  2  3  1  0
  3  4  1  0
  4  5  1  0
  5  6  1  0
  6  7  1  0
  7  8  1  0
  7  9  1  0
  2 10  1  0
 10 11  1  0
 11 12  1  0
 12 13  1  0
 13 14  1  6
 13 15  1  0
 15 16  1  0
 16 17  1  0
 17 18  2  0
 18 19  1  0
 19 20  1  0
 20 21  1  0
 21 22  1  0
 22 23  1  0
 22 24  1  0
 24 25  1  0
 24 26  1  0
 19 27  1  0
 27 28  1  1
 27 29  1  0
 29 30  1  0
 30 31  1  0
 31 32  1  1
  7  5  1  0
 31 10  1  0
 31 13  1  0
 27 15  1  0
 24 18  1  0
  1 33  1  0
  1 34  1  0
  1 35  1  0
  2 36  1  1
  3 37  1  0
  3 38  1  0
  4 39  1  0
  4 40  1  0
  5 41  1  1
  8 42  1  0
  8 43  1  0
  8 44  1  0
  9 45  1  0
  9 46  1  0
  9 47  1  0
 10 48  1  6
 11 49  1  0
 11 50  1  0
 12 51  1  0
 12 52  1  0
 14 53  1  0
 14 54  1  0
 14 55  1  0
 15 56  1  1
 16 57  1  0
 16 58  1  0
 17 59  1  0
 19 60  1  6
 20 61  1  0
 20 62  1  0
 21 63  1  0
 21 64  1  0
 22 65  1  6
 23 66  1  0
 25 67  1  0
 25 68  1  0
 25 69  1  0
 26 70  1  0
 26 71  1  0
 26 72  1  0
 28 73  1  0
 28 74  1  0
 28 75  1  0
 29 76  1  0
 29 77  1  0
 30 78  1  0
 30 79  1  0
 32 80  1  0
 32 81  1  0
 32 82  1  0
M  END
>  <meeko>  (15) 
{"is_sidechain": [false], "intermolecular_energy": 2.731, "internal_energy": -0.839}

$$$$
EPH_relaxed_0001_pdb2pqr_Repair_140_r2_0001_out
     RDKit          3D

 82 86  0  0  0  0  0  0  0  0999 V2000
    0.9400   14.8980   -2.6350 C   0  0  0  0  0  0  0  0  0  0  0  0
    1.1840   14.2280   -3.9910 C   0  0  2  0  0  0  0  0  0  0  0  0
    0.4650   14.9630   -5.1390 C   0  0  0  0  0  0  0  0  0  0  0  0
    1.0070   14.6140   -6.5280 C   0  0  0  0  0  0  0  0  0  0  0  0
    0.7820   15.7270   -7.5070 C   0  0  2  0  0  0  0  0  0  0  0  0
    0.3370   15.3040   -8.8020 O   0  0  0  0  0  0  0  0  0  0  0  0
    1.6290   15.9310   -8.7490 C   0  0  0  0  0  0  0  0  0  0  0  0
    2.7650   15.0150   -9.0790 C   0  0  0  0  0  0  0  0  0  0  0  0
    1.6640   17.2910   -9.3750 C   0  0  0  0  0  0  0  0  0  0  0  0
    0.7320   12.7730   -3.9400 C   0  0  1  0  0  0  0  0  0  0  0  0
    1.8610   11.7830   -4.3320 C   0  0  0  0  0  0  0  0  0  0  0  0
    1.6660   10.5150   -3.4620 C   0  0  0  0  0  0  0  0  0  0  0  0
    0.2560   10.6770   -2.8480 C   0  0  1  0  0  0  0  0  0  0  0  0
   -0.7260   10.2130   -3.9690 C   0  0  0  0  0  0  0  0  0  0  0  0
   -0.0030    9.9200   -1.5040 C   0  0  2  0  0  0  0  0  0  0  0  0
    0.1000    8.3870   -1.5880 C   0  0  0  0  0  0  0  0  0  0  0  0
   -1.1750    7.6790   -1.9070 C   0  0  0  0  0  0  0  0  0  0  0  0
   -2.4070    8.2170   -1.8390 C   0  0  0  0  0  0  0  0  0  0  0  0
   -2.6160    9.6420   -1.3110 C   0  0  1  0  0  0  0  0  0  0  0  0
   -3.7910    9.6520   -0.2980 C   0  0  0  0  0  0  0  0  0  0  0  0
   -5.0680    9.0510   -0.8770 C   0  0  0  0  0  0  0  0  0  0  0  0
   -4.8350    7.6140   -1.3370 C   0  0  2  0  0  0  0  0  0  0  0  0
   -4.5710    6.8000   -0.1900 O   0  0  0  0  0  0  0  0  0  0  0  0
   -3.6670    7.4780   -2.3540 C   0  0  0  0  0  0  0  0  0  0  0  0
   -4.0800    8.1070   -3.7070 C   0  0  0  0  0  0  0  0  0  0  0  0
   -3.4460    5.9660   -2.6270 C   0  0  0  0  0  0  0  0  0  0  0  0
   -1.3200   10.3710   -0.7500 C   0  0  1  0  0  0  0  0  0  0  0  0
   -1.1170   10.0120    0.7540 C   0  0  0  0  0  0  0  0  0  0  0  0
   -1.5400   11.9290   -0.8090 C   0  0  0  0  0  0  0  0  0  0  0  0
   -1.1530   12.6360   -2.1220 C   0  0  0  0  0  0  0  0  0  0  0  0
    0.2520   12.2250   -2.5730 C   0  0  2  0  0  0  0  0  0  0  0  0
    1.2640   12.6980   -1.4750 C   0  0  0  0  0  0  0  0  0  0  0  0
    1.1957   14.1958   -1.8278 H   0  0  0  0  0  0  0  0  0  0  0  0
    1.5685   15.7969   -2.5518 H   0  0  0  0  0  0  0  0  0  0  0  0
   -0.1194   15.1823   -2.5518 H   0  0  0  0  0  0  0  0  0  0  0  0
    2.2640   14.2751   -4.1943 H   0  0  0  0  0  0  0  0  0  0  0  0
   -0.6022   14.6986   -5.1061 H   0  0  0  0  0  0  0  0  0  0  0  0
    0.6355   16.0392   -4.9884 H   0  0  0  0  0  0  0  0  0  0  0  0
    2.0870   14.4201   -6.4508 H   0  0  0  0  0  0  0  0  0  0  0  0
    0.4716   13.7244   -6.8913 H   0  0  0  0  0  0  0  0  0  0  0  0
    0.4812   16.4097   -6.6986 H   0  0  0  0  0  0  0  0  0  0  0  0
    3.2215   14.6469   -8.1483 H   0  0  0  0  0  0  0  0  0  0  0  0
    2.3906   14.1631   -9.6657 H   0  0  0  0  0  0  0  0  0  0  0  0
    3.5181   15.5615   -9.6657 H   0  0  0  0  0  0  0  0  0  0  0  0
    1.6837   18.0574   -8.5861 H   0  0  0  0  0  0  0  0  0  0  0  0
    2.5648   17.3842   -9.9993 H   0  0  0  0  0  0  0  0  0  0  0  0
    0.7691   17.4304   -9.9993 H   0  0  0  0  0  0  0  0  0  0  0  0
   -0.1116   12.8170   -4.6446 H   0  0  0  0  0  0  0  0  0  0  0  0
    1.7856   11.5257   -5.3988 H   0  0  0  0  0  0  0  0  0  0  0  0
    2.8527   12.2284   -4.1642 H   0  0  0  0  0  0  0  0  0  0  0  0
    1.7181    9.6073   -4.0812 H   0  0  0  0  0  0  0  0  0  0  0  0
    2.4465   10.4119   -2.6937 H   0  0  0  0  0  0  0  0  0  0  0  0
   -1.6301    9.7858   -3.5107 H   0  0  0  0  0  0  0  0  0  0  0  0
   -1.0037   11.0752   -4.5932 H   0  0  0  0  0  0  0  0  0  0  0  0
   -0.2363    9.4510   -4.5932 H   0  0  0  0  0  0  0  0  0  0  0  0
    0.8464   10.2423   -0.8838 H   0  0  0  0  0  0  0  0  0  0  0  0
    0.8321    8.1378   -2.3703 H   0  0  0  0  0  0  0  0  0  0  0  0
    0.3946    8.0462   -0.5845 H   0  0  0  0  0  0  0  0  0  0  0  0
   -1.1014    6.6284   -2.2246 H   0  0  0  0  0  0  0  0  0  0  0  0
   -2.8732   10.2558   -2.1868 H   0  0  0  0  0  0  0  0  0  0  0  0
   -3.4976    9.0699    0.5880 H   0  0  0  0  0  0  0  0  0  0  0  0
   -4.0020   10.7008   -0.0419 H   0  0  0  0  0  0  0  0  0  0  0  0
   -5.8518    9.0593   -0.1053 H   0  0  0  0  0  0  0  0  0  0  0  0
   -5.3765    9.6519   -1.7452 H   0  0  0  0  0  0  0  0  0  0  0  0
   -5.7452    7.2828   -1.8584 H   0  0  0  0  0  0  0  0  0  0  0  0
   -4.0940    6.0100   -0.4930 H   0  0  0  0  0  0  0  0  0  0  0  0
   -4.6753    9.0136   -3.5234 H   0  0  0  0  0  0  0  0  0  0  0  0
   -3.1783    8.3701   -4.2795 H   0  0  0  0  0  0  0  0  0  0  0  0
   -4.6799    7.3842   -4.2795 H   0  0  0  0  0  0  0  0  0  0  0  0
   -3.3674    5.4284   -1.6706 H   0  0  0  0  0  0  0  0  0  0  0  0
   -4.2957    5.5692   -3.2020 H   0  0  0  0  0  0  0  0  0  0  0  0
   -2.5183    5.8290   -3.2020 H   0  0  0  0  0  0  0  0  0  0  0  0
   -1.5616   10.7982    1.3819 H   0  0  0  0  0  0  0  0  0  0  0  0
   -1.6049    9.0502    0.9705 H   0  0  0  0  0  0  0  0  0  0  0  0
   -0.0413    9.9344    0.9705 H   0  0  0  0  0  0  0  0  0  0  0  0
   -2.6081   12.1213   -0.6298 H   0  0  0  0  0  0  0  0  0  0  0  0
   -0.8629   12.3443   -0.0481 H   0  0  0  0  0  0  0  0  0  0  0  0
   -1.8763   12.3628   -2.9044 H   0  0  0  0  0  0  0  0  0  0  0  0
   -1.1625   13.7226   -1.9510 H   0  0  0  0  0  0  0  0  0  0  0  0
    0.8423   12.5009   -0.4783 H   0  0  0  0  0  0  0  0  0  0  0  0
    2.2105   12.1490   -1.5878 H   0  0  0  0  0  0  0  0  0  0  0  0
    1.4499   13.7763   -1.5878 H   0  0  0  0  0  0  0  0  0  0  0  0
  1  2  1  0
  2  3  1  0
  3  4  1  0
  4  5  1  0
  5  6  1  0
  6  7  1  0
  7  8  1  0
  7  9  1  0
  2 10  1  0
 10 11  1  0
 11 12  1  0
 12 13  1  0
 13 14  1  6
 13 15  1  0
 15 16  1  0
 16 17  1  0
 17 18  2  0
 18 19  1  0
 19 20  1  0
 20 21  1  0
 21 22  1  0
 22 23  1  0
 22 24  1  0
 24 25  1  0
 24 26  1  0
 19 27  1  0
 27 28  1  1
 27 29  1  0
 29 30  1  0
 30 31  1  0
 31 32  1  1
  7  5  1  0
 31 10  1  0
 31 13  1  0
 27 15  1  0
 24 18  1  0
  1 33  1  0
  1 34  1  0
  1 35  1  0
  2 36  1  6
  3 37  1  0
  3 38  1  0
  4 39  1  0
  4 40  1  0
  5 41  1  1
  8 42  1  0
  8 43  1  0
  8 44  1  0
  9 45  1  0
  9 46  1  0
  9 47  1  0
 10 48  1  6
 11 49  1  0
 11 50  1  0
 12 51  1  0
 12 52  1  0
 14 53  1  0
 14 54  1  0
 14 55  1  0
 15 56  1  1
 16 57  1  0
 16 58  1  0
 17 59  1  0
 19 60  1  6
 20 61  1  0
 20 62  1  0
 21 63  1  0
 21 64  1  0
 22 65  1  6
 23 66  1  0
 25 67  1  0
 25 68  1  0
 25 69  1  0
 26 70  1  0
 26 71  1  0
 26 72  1  0
 28 73  1  0
 28 74  1  0
 28 75  1  0
 29 76  1  0
 29 77  1  0
 30 78  1  0
 30 79  1  0
 32 80  1  0
 32 81  1  0
 32 82  1  0
M  END
>  <meeko>  (16) 
{"is_sidechain": [false], "intermolecular_energy": 2.731, "internal_energy": -0.839}

$$$$
EPH_relaxed_0001_pdb2pqr_Repair_140_r2_0001_out
     RDKit          3D

 82 86  0  0  0  0  0  0  0  0999 V2000
   -2.1350    9.6860   -0.1610 C   0  0  0  0  0  0  0  0  0  0  0  0
   -1.5180   10.5250   -1.2830 C   0  0  2  0  0  0  0  0  0  0  0  0
   -0.5400    9.7060   -2.1490 C   0  0  0  0  0  0  0  0  0  0  0  0
    0.8970    9.7030   -1.6200 C   0  0  0  0  0  0  0  0  0  0  0  0
    1.8820   10.0700   -2.6880 C   0  0  2  0  0  0  0  0  0  0  0  0
    2.9990    9.1790   -2.8050 O   0  0  0  0  0  0  0  0  0  0  0  0
    3.3010   10.5240   -2.3980 C   0  0  0  0  0  0  0  0  0  0  0  0
    3.8130   10.6350   -0.9960 C   0  0  0  0  0  0  0  0  0  0  0  0
    4.0240   11.3200   -3.4390 C   0  0  0  0  0  0  0  0  0  0  0  0
   -0.8030   11.7360   -0.6940 C   0  0  1  0  0  0  0  0  0  0  0  0
    0.3880   11.3410    0.2190 C   0  0  0  0  0  0  0  0  0  0  0  0
    1.4790   12.4250    0.0250 C   0  0  0  0  0  0  0  0  0  0  0  0
    0.7610   13.5710   -0.7260 C   0  0  1  0  0  0  0  0  0  0  0  0
   -0.0040   14.3590    0.3830 C   0  0  0  0  0  0  0  0  0  0  0  0
    1.6700   14.5130   -1.5810 C   0  0  2  0  0  0  0  0  0  0  0  0
    2.7210   15.3050   -0.7850 C   0  0  0  0  0  0  0  0  0  0  0  0
    2.2750   16.6430   -0.2960 C   0  0  0  0  0  0  0  0  0  0  0  0
    1.1870   17.3100   -0.7240 C   0  0  0  0  0  0  0  0  0  0  0  0
    0.3280   16.7620   -1.8710 C   0  0  1  0  0  0  0  0  0  0  0  0
    0.0230   17.9000   -2.8790 C   0  0  0  0  0  0  0  0  0  0  0  0
   -0.6040   19.1200   -2.2120 C   0  0  0  0  0  0  0  0  0  0  0  0
    0.3060   19.6710   -1.1170 C   0  0  2  0  0  0  0  0  0  0  0  0
    1.4920   20.1940   -1.7220 O   0  0  0  0  0  0  0  0  0  0  0  0
    0.6890   18.6100   -0.0470 C   0  0  0  0  0  0  0  0  0  0  0  0
   -0.5530   18.2660    0.8130 C   0  0  0  0  0  0  0  0  0  0  0  0
    1.7190   19.2560    0.9180 C   0  0  0  0  0  0  0  0  0  0  0  0
    0.8750   15.4480   -2.5800 C   0  0  1  0  0  0  0  0  0  0  0  0
    1.8700   15.8330   -3.7170 C   0  0  0  0  0  0  0  0  0  0  0  0
   -0.3250   14.7010   -3.2730 C   0  0  0  0  0  0  0  0  0  0  0  0
   -1.1090   13.6950   -2.4100 C   0  0  0  0  0  0  0  0  0  0  0  0
   -0.1590   12.7350   -1.6880 C   0  0  2  0  0  0  0  0  0  0  0  0
    0.6080   11.9120   -2.7780 C   0  0  0  0  0  0  0  0  0  0  0  0
   -1.8325   10.0974    0.8133 H   0  0  0  0  0  0  0  0  0  0  0  0
   -3.2315    9.7110   -0.2450 H   0  0  0  0  0  0  0  0  0  0  0  0
   -1.7844    8.6468   -0.2450 H   0  0  0  0  0  0  0  0  0  0  0  0
   -2.3380   10.8587   -1.9359 H   0  0  0  0  0  0  0  0  0  0  0  0
   -0.8977    8.6665   -2.1881 H   0  0  0  0  0  0  0  0  0  0  0  0
   -0.5160   10.1795   -3.1416 H   0  0  0  0  0  0  0  0  0  0  0  0
    0.9756   10.4295   -0.7978 H   0  0  0  0  0  0  0  0  0  0  0  0
    1.1319    8.6863   -1.2719 H   0  0  0  0  0  0  0  0  0  0  0  0
    1.0826   10.4991   -3.3099 H   0  0  0  0  0  0  0  0  0  0  0  0
    2.9890   10.4564   -0.2895 H   0  0  0  0  0  0  0  0  0  0  0  0
    4.6034    9.8874   -0.8340 H   0  0  0  0  0  0  0  0  0  0  0  0
    4.2229   11.6429   -0.8340 H   0  0  0  0  0  0  0  0  0  0  0  0
    4.6861   12.0490   -2.9489 H   0  0  0  0  0  0  0  0  0  0  0  0
    4.6235   10.6442   -4.0666 H   0  0  0  0  0  0  0  0  0  0  0  0
    3.2938   11.8519   -4.0666 H   0  0  0  0  0  0  0  0  0  0  0  0
   -1.6470   12.2135   -0.1747 H   0  0  0  0  0  0  0  0  0  0  0  0
    0.0659   11.3117    1.2704 H   0  0  0  0  0  0  0  0  0  0  0  0
    0.7716   10.3435   -0.0416 H   0  0  0  0  0  0  0  0  0  0  0  0
    1.8565   12.7745    0.9973 H   0  0  0  0  0  0  0  0  0  0  0  0
    2.3506   12.0454   -0.5283 H   0  0  0  0  0  0  0  0  0  0  0  0
    0.3296   14.0154    1.3733 H   0  0  0  0  0  0  0  0  0  0  0  0
    0.2041   15.4341    0.2787 H   0  0  0  0  0  0  0  0  0  0  0  0
   -1.0848   14.1829    0.2787 H   0  0  0  0  0  0  0  0  0  0  0  0
    2.2380   13.7990   -2.1954 H   0  0  0  0  0  0  0  0  0  0  0  0
    3.0104   14.7028    0.0889 H   0  0  0  0  0  0  0  0  0  0  0  0
    3.5501   15.4965   -1.4820 H   0  0  0  0  0  0  0  0  0  0  0  0
    2.8876   17.1249    0.4802 H   0  0  0  0  0  0  0  0  0  0  0  0
   -0.6074   16.4118   -1.4102 H   0  0  0  0  0  0  0  0  0  0  0  0
    0.9635   18.2059   -3.3606 H   0  0  0  0  0  0  0  0  0  0  0  0
   -0.6997   17.5119   -3.6119 H   0  0  0  0  0  0  0  0  0  0  0  0
   -0.7683   19.9001   -2.9700 H   0  0  0  0  0  0  0  0  0  0  0  0
   -1.5590   18.8192   -1.7565 H   0  0  0  0  0  0  0  0  0  0  0  0
   -0.2519   20.4597   -0.5910 H   0  0  0  0  0  0  0  0  0  0  0  0
    1.7660   20.9730   -1.2090 H   0  0  0  0  0  0  0  0  0  0  0  0
   -0.2922   18.3382    1.8792 H   0  0  0  0  0  0  0  0  0  0  0  0
   -1.3641   18.9733    0.5852 H   0  0  0  0  0  0  0  0  0  0  0  0
   -0.8846   17.2422    0.5852 H   0  0  0  0  0  0  0  0  0  0  0  0
    1.4161   19.0660    1.9583 H   0  0  0  0  0  0  0  0  0  0  0  0
    2.7126   18.8190    0.7398 H   0  0  0  0  0  0  0  0  0  0  0  0
    1.7582   20.3408    0.7398 H   0  0  0  0  0  0  0  0  0  0  0  0
    2.8093   16.1965   -3.2747 H   0  0  0  0  0  0  0  0  0  0  0  0
    2.0754   14.9495   -4.3392 H   0  0  0  0  0  0  0  0  0  0  0  0
    1.4272   16.6247   -4.3392 H   0  0  0  0  0  0  0  0  0  0  0  0
   -1.0356   15.4649   -3.6216 H   0  0  0  0  0  0  0  0  0  0  0  0
    0.1336   14.0989   -4.0712 H   0  0  0  0  0  0  0  0  0  0  0  0
   -1.7003   14.2454   -1.6634 H   0  0  0  0  0  0  0  0  0  0  0  0
   -1.7681   13.1083   -3.0668 H   0  0  0  0  0  0  0  0  0  0  0  0
    1.2795   11.1914   -2.2883 H   0  0  0  0  0  0  0  0  0  0  0  0
   -0.1155   11.3710   -3.4056 H   0  0  0  0  0  0  0  0  0  0  0  0
    1.1986   12.5957   -3.4056 H   0  0  0  0  0  0  0  0  0  0  0  0
  1  2  1  0
  2  3  1  0
  3  4  1  0
  4  5  1  0
  5  6  1  0
  6  7  1  0
  7  8  1  0
  7  9  1  0
  2 10  1  0
 10 11  1  0
 11 12  1  0
 12 13  1  0
 13 14  1  1
 13 15  1  0
 15 16  1  0
 16 17  1  0
 17 18  2  0
 18 19  1  0
 19 20  1  0
 20 21  1  0
 21 22  1  0
 22 23  1  0
 22 24  1  0
 24 25  1  0
 24 26  1  0
 19 27  1  0
 27 28  1  6
 27 29  1  0
 29 30  1  0
 30 31  1  0
 31 32  1  6
  7  5  1  0
 31 10  1  0
 31 13  1  0
 27 15  1  0
 24 18  1  0
  1 33  1  0
  1 34  1  0
  1 35  1  0
  2 36  1  6
  3 37  1  0
  3 38  1  0
  4 39  1  0
  4 40  1  0
  5 41  1  6
  8 42  1  0
  8 43  1  0
  8 44  1  0
  9 45  1  0
  9 46  1  0
  9 47  1  0
 10 48  1  1
 11 49  1  0
 11 50  1  0
 12 51  1  0
 12 52  1  0
 14 53  1  0
 14 54  1  0
 14 55  1  0
 15 56  1  6
 16 57  1  0
 16 58  1  0
 17 59  1  0
 19 60  1  1
 20 61  1  0
 20 62  1  0
 21 63  1  0
 21 64  1  0
 22 65  1  1
 23 66  1  0
 25 67  1  0
 25 68  1  0
 25 69  1  0
 26 70  1  0
 26 71  1  0
 26 72  1  0
 28 73  1  0
 28 74  1  0
 28 75  1  0
 29 76  1  0
 29 77  1  0
 30 78  1  0
 30 79  1  0
 32 80  1  0
 32 81  1  0
 32 82  1  0
M  END
>  <meeko>  (17) 
{"is_sidechain": [false], "intermolecular_energy": 2.731, "internal_energy": -0.839}

$$$$
EPH_relaxed_0001_pdb2pqr_Repair_140_r2_0001_out
     RDKit          3D

 82 86  0  0  0  0  0  0  0  0999 V2000
    2.6540   16.1050   -7.5200 C   0  0  0  0  0  0  0  0  0  0  0  0
    1.4180   15.2170   -7.3590 C   0  0  2  0  0  0  0  0  0  0  0  0
    0.2080   15.7570   -8.1470 C   0  0  0  0  0  0  0  0  0  0  0  0
    0.5870   16.4570   -9.4540 C   0  0  0  0  0  0  0  0  0  0  0  0
    1.9690   16.0870   -9.9010 C   0  0  2  0  0  0  0  0  0  0  0  0
    2.3290   16.5740  -11.2000 O   0  0  0  0  0  0  0  0  0  0  0  0
    2.2510   15.1470  -11.0580 C   0  0  0  0  0  0  0  0  0  0  0  0
    1.1410   14.5180  -11.8400 C   0  0  0  0  0  0  0  0  0  0  0  0
    3.5800   14.4610  -11.1150 C   0  0  0  0  0  0  0  0  0  0  0  0
    1.0620   15.0840   -5.8830 C   0  0  1  0  0  0  0  0  0  0  0  0
   -0.2330   15.8530   -5.5090 C   0  0  0  0  0  0  0  0  0  0  0  0
   -0.9500   15.0190   -4.4170 C   0  0  0  0  0  0  0  0  0  0  0  0
    0.1050   13.9830   -3.9630 C   0  0  1  0  0  0  0  0  0  0  0  0
    1.0160   14.7530   -2.9550 C   0  0  0  0  0  0  0  0  0  0  0  0
   -0.4490   12.6580   -3.3440 C   0  0  2  0  0  0  0  0  0  0  0  0
   -1.2580   12.8320   -2.0470 C   0  0  0  0  0  0  0  0  0  0  0  0
   -0.4640   12.7590   -0.7850 C   0  0  0  0  0  0  0  0  0  0  0  0
    0.7890   12.2820   -0.6770 C   0  0  0  0  0  0  0  0  0  0  0  0
    1.5020   11.6580   -1.8840 C   0  0  1  0  0  0  0  0  0  0  0  0
    2.1720   10.3250   -1.4580 C   0  0  0  0  0  0  0  0  0  0  0  0
    3.0970   10.4930   -0.2560 C   0  0  0  0  0  0  0  0  0  0  0  0
    2.3390   11.0610    0.9410 C   0  0  2  0  0  0  0  0  0  0  0  0
    1.3860   10.0910    1.3850 O   0  0  0  0  0  0  0  0  0  0  0  0
    1.6150   12.4000    0.6280 C   0  0  0  0  0  0  0  0  0  0  0  0
    2.6610   13.5260    0.4420 C   0  0  0  0  0  0  0  0  0  0  0  0
    0.7740   12.7900    1.8740 C   0  0  0  0  0  0  0  0  0  0  0  0
    0.6290   11.5080   -3.2030 C   0  0  1  0  0  0  0  0  0  0  0  0
   -0.1580   10.1620   -3.1700 C   0  0  0  0  0  0  0  0  0  0  0  0
    1.5890   11.4310   -4.4490 C   0  0  0  0  0  0  0  0  0  0  0  0
    2.0050   12.7700   -5.0890 C   0  0  0  0  0  0  0  0  0  0  0  0
    0.7840   13.6590   -5.3430 C   0  0  2  0  0  0  0  0  0  0  0  0
   -0.1400   12.9200   -6.3710 C   0  0  0  0  0  0  0  0  0  0  0  0
    3.0387   16.3814   -6.5272 H   0  0  0  0  0  0  0  0  0  0  0  0
    3.4299   15.5565   -8.0742 H   0  0  0  0  0  0  0  0  0  0  0  0
    2.3818   17.0153   -8.0742 H   0  0  0  0  0  0  0  0  0  0  0  0
    1.6653   14.2279   -7.7720 H   0  0  0  0  0  0  0  0  0  0  0  0
   -0.4559   14.9129   -8.3851 H   0  0  0  0  0  0  0  0  0  0  0  0
   -0.2806   16.5089   -7.5099 H   0  0  0  0  0  0  0  0  0  0  0  0
   -0.1303   16.1656  -10.2354 H   0  0  0  0  0  0  0  0  0  0  0  0
    0.5620   17.5430   -9.2809 H   0  0  0  0  0  0  0  0  0  0  0  0
    2.3358   16.1119   -8.8643 H   0  0  0  0  0  0  0  0  0  0  0  0
    0.3975   14.0967  -11.1474 H   0  0  0  0  0  0  0  0  0  0  0  0
    0.6620   15.2789  -12.4737 H   0  0  0  0  0  0  0  0  0  0  0  0
    1.5476   13.7161  -12.4737 H   0  0  0  0  0  0  0  0  0  0  0  0
    3.9407   14.2748  -10.0926 H   0  0  0  0  0  0  0  0  0  0  0  0
    3.4761   13.5039  -11.6471 H   0  0  0  0  0  0  0  0  0  0  0  0
    4.3000   15.1001  -11.6471 H   0  0  0  0  0  0  0  0  0  0  0  0
    1.9844   15.4825   -5.4353 H   0  0  0  0  0  0  0  0  0  0  0  0
    0.0182   16.8506   -5.1195 H   0  0  0  0  0  0  0  0  0  0  0  0
   -0.8789   15.9894   -6.3889 H   0  0  0  0  0  0  0  0  0  0  0  0
   -1.2529   15.6594   -3.5754 H   0  0  0  0  0  0  0  0  0  0  0  0
   -1.8685   14.5431   -4.7910 H   0  0  0  0  0  0  0  0  0  0  0  0
    0.7186   14.5017   -1.9262 H   0  0  0  0  0  0  0  0  0  0  0  0
    2.0653   14.4639   -3.1144 H   0  0  0  0  0  0  0  0  0  0  0  0
    0.9057   15.8358   -3.1144 H   0  0  0  0  0  0  0  0  0  0  0  0
   -1.1715   12.3267   -4.1044 H   0  0  0  0  0  0  0  0  0  0  0  0
   -1.7498   13.8153   -2.0826 H   0  0  0  0  0  0  0  0  0  0  0  0
   -1.9623   11.9878   -2.0124 H   0  0  0  0  0  0  0  0  0  0  0  0
   -0.9441   13.1262    0.1341 H   0  0  0  0  0  0  0  0  0  0  0  0
    2.2722   12.3814   -2.1896 H   0  0  0  0  0  0  0  0  0  0  0  0
    1.3848    9.6017   -1.1988 H   0  0  0  0  0  0  0  0  0  0  0  0
    2.7826    9.9733   -2.3027 H   0  0  0  0  0  0  0  0  0  0  0  0
    3.5160    9.5128    0.0155 H   0  0  0  0  0  0  0  0  0  0  0  0
    3.9007   11.1934   -0.5269 H   0  0  0  0  0  0  0  0  0  0  0  0
    3.0778   11.2802    1.7259 H   0  0  0  0  0  0  0  0  0  0  0  0
    1.8340    9.5080    2.0220 H   0  0  0  0  0  0  0  0  0  0  0  0
    2.9935   13.8840    1.4275 H   0  0  0  0  0  0  0  0  0  0  0  0
    3.5244   13.1358   -0.1168 H   0  0  0  0  0  0  0  0  0  0  0  0
    2.2083   14.3583   -0.1168 H   0  0  0  0  0  0  0  0  0  0  0  0
    1.3303   12.5320    2.7872 H   0  0  0  0  0  0  0  0  0  0  0  0
    0.5759   13.8719    1.8587 H   0  0  0  0  0  0  0  0  0  0  0  0
   -0.1798   12.2423    1.8587 H   0  0  0  0  0  0  0  0  0  0  0  0
   -0.3320    9.8645   -2.1254 H   0  0  0  0  0  0  0  0  0  0  0  0
   -1.1239   10.2894   -3.6807 H   0  0  0  0  0  0  0  0  0  0  0  0
    0.4268    9.3827   -3.6807 H   0  0  0  0  0  0  0  0  0  0  0  0
    2.5068   10.9149   -4.1307 H   0  0  0  0  0  0  0  0  0  0  0  0
    1.0117   10.9077   -5.2255 H   0  0  0  0  0  0  0  0  0  0  0  0
    2.6963   13.2931   -4.4119 H   0  0  0  0  0  0  0  0  0  0  0  0
    2.4935   12.5615   -6.0523 H   0  0  0  0  0  0  0  0  0  0  0  0
   -0.8874   12.3223   -5.8286 H   0  0  0  0  0  0  0  0  0  0  0  0
   -0.6515   13.6610   -7.0029 H   0  0  0  0  0  0  0  0  0  0  0  0
    0.4704   12.2581   -7.0029 H   0  0  0  0  0  0  0  0  0  0  0  0
  1  2  1  0
  2  3  1  0
  3  4  1  0
  4  5  1  0
  5  6  1  0
  6  7  1  0
  7  8  1  0
  7  9  1  0
  2 10  1  0
 10 11  1  0
 11 12  1  0
 12 13  1  0
 13 14  1  1
 13 15  1  0
 15 16  1  0
 16 17  1  0
 17 18  2  0
 18 19  1  0
 19 20  1  0
 20 21  1  0
 21 22  1  0
 22 23  1  0
 22 24  1  0
 24 25  1  0
 24 26  1  0
 19 27  1  0
 27 28  1  1
 27 29  1  0
 29 30  1  0
 30 31  1  0
 31 32  1  6
  7  5  1  0
 31 10  1  0
 31 13  1  0
 27 15  1  0
 24 18  1  0
  1 33  1  0
  1 34  1  0
  1 35  1  0
  2 36  1  6
  3 37  1  0
  3 38  1  0
  4 39  1  0
  4 40  1  0
  5 41  1  1
  8 42  1  0
  8 43  1  0
  8 44  1  0
  9 45  1  0
  9 46  1  0
  9 47  1  0
 10 48  1  1
 11 49  1  0
 11 50  1  0
 12 51  1  0
 12 52  1  0
 14 53  1  0
 14 54  1  0
 14 55  1  0
 15 56  1  6
 16 57  1  0
 16 58  1  0
 17 59  1  0
 19 60  1  6
 20 61  1  0
 20 62  1  0
 21 63  1  0
 21 64  1  0
 22 65  1  1
 23 66  1  0
 25 67  1  0
 25 68  1  0
 25 69  1  0
 26 70  1  0
 26 71  1  0
 26 72  1  0
 28 73  1  0
 28 74  1  0
 28 75  1  0
 29 76  1  0
 29 77  1  0
 30 78  1  0
 30 79  1  0
 32 80  1  0
 32 81  1  0
 32 82  1  0
M  END
>  <meeko>  (18) 
{"is_sidechain": [false], "intermolecular_energy": 2.731, "internal_energy": -0.839}

$$$$
EPH_relaxed_0001_pdb2pqr_Repair_140_r2_0001_out
     RDKit          3D

 82 86  0  0  0  0  0  0  0  0999 V2000
   -0.4970    8.7670   -2.0220 C   0  0  0  0  0  0  0  0  0  0  0  0
    0.3140    9.8250   -2.7750 C   0  0  2  0  0  0  0  0  0  0  0  0
    1.8250    9.7100   -2.4900 C   0  0  0  0  0  0  0  0  0  0  0  0
    2.7060   10.2990   -3.5950 C   0  0  0  0  0  0  0  0  0  0  0  0
    4.0880   10.6000   -3.1010 C   0  0  2  0  0  0  0  0  0  0  0  0
    4.7110   11.7350   -3.7170 O   0  0  0  0  0  0  0  0  0  0  0  0
    5.3330   10.4620   -3.9580 C   0  0  0  0  0  0  0  0  0  0  0  0
    5.2530   10.0050   -5.3810 C   0  0  0  0  0  0  0  0  0  0  0  0
    6.6560   10.2990   -3.2780 C   0  0  0  0  0  0  0  0  0  0  0  0
   -0.1810   11.2190   -2.4060 C   0  0  1  0  0  0  0  0  0  0  0  0
   -1.4590   11.1850   -1.5250 C   0  0  0  0  0  0  0  0  0  0  0  0
   -1.3570   12.3810   -0.5440 C   0  0  0  0  0  0  0  0  0  0  0  0
   -0.2050   13.2480   -1.1040 C   0  0  1  0  0  0  0  0  0  0  0  0
   -0.8540   14.0830   -2.2520 C   0  0  0  0  0  0  0  0  0  0  0  0
    0.5360   14.1610   -0.0730 C   0  0  2  0  0  0  0  0  0  0  0  0
   -0.3390   15.2380    0.5920 C   0  0  0  0  0  0  0  0  0  0  0  0
   -0.3820   16.5520   -0.1170 C   0  0  0  0  0  0  0  0  0  0  0  0
    0.4710   16.9500   -1.0790 C   0  0  0  0  0  0  0  0  0  0  0  0
    1.6710   16.0800   -1.4770 C   0  0  1  0  0  0  0  0  0  0  0  0
    2.9440   16.9630   -1.5650 C   0  0  0  0  0  0  0  0  0  0  0  0
    2.7610   18.1630   -2.4890 C   0  0  0  0  0  0  0  0  0  0  0  0
    1.5960   19.0340   -2.0270 C   0  0  2  0  0  0  0  0  0  0  0  0
    1.9350   19.6280   -0.7700 O   0  0  0  0  0  0  0  0  0  0  0  0
    0.2600   18.2510   -1.8920 C   0  0  0  0  0  0  0  0  0  0  0  0
   -0.2620   17.8660   -3.2980 C   0  0  0  0  0  0  0  0  0  0  0  0
   -0.7980   19.2110   -1.2850 C   0  0  0  0  0  0  0  0  0  0  0  0
    1.8960   14.7690   -0.6070 C   0  0  1  0  0  0  0  0  0  0  0  0
    2.7560   15.1060    0.6490 C   0  0  0  0  0  0  0  0  0  0  0  0
    2.7270   13.7300   -1.4490 C   0  0  0  0  0  0  0  0  0  0  0  0
    1.9280   12.7760   -2.3580 C   0  0  0  0  0  0  0  0  0  0  0  0
    0.7770   12.1210   -1.5890 C   0  0  2  0  0  0  0  0  0  0  0  0
    1.4000   11.2560   -0.4400 C   0  0  0  0  0  0  0  0  0  0  0  0
   -0.3809    8.9184   -0.9387 H   0  0  0  0  0  0  0  0  0  0  0  0
   -1.5592    8.8576   -2.2932 H   0  0  0  0  0  0  0  0  0  0  0  0
   -0.1336    7.7648   -2.2932 H   0  0  0  0  0  0  0  0  0  0  0  0
    0.1669    9.6508   -3.8511 H   0  0  0  0  0  0  0  0  0  0  0  0
    2.0429   10.2413   -1.5518 H   0  0  0  0  0  0  0  0  0  0  0  0
    2.0600    8.6371   -2.4289 H   0  0  0  0  0  0  0  0  0  0  0  0
    2.7725    9.5759   -4.4213 H   0  0  0  0  0  0  0  0  0  0  0  0
    2.2494   11.2415   -3.9315 H   0  0  0  0  0  0  0  0  0  0  0  0
    3.8365   10.2218   -2.0991 H   0  0  0  0  0  0  0  0  0  0  0  0
    5.0634    8.9218   -5.4081 H   0  0  0  0  0  0  0  0  0  0  0  0
    4.4337   10.5335   -5.8903 H   0  0  0  0  0  0  0  0  0  0  0  0
    6.2031   10.2238   -5.8903 H   0  0  0  0  0  0  0  0  0  0  0  0
    6.5124   10.3167   -2.1876 H   0  0  0  0  0  0  0  0  0  0  0  0
    7.1042    9.3388   -3.5733 H   0  0  0  0  0  0  0  0  0  0  0  0
    7.3239   11.1217   -3.5733 H   0  0  0  0  0  0  0  0  0  0  0  0
   -0.3229   11.6370   -3.4135 H   0  0  0  0  0  0  0  0  0  0  0  0
   -2.3557   11.2863   -2.1541 H   0  0  0  0  0  0  0  0  0  0  0  0
   -1.5383   10.2326   -0.9803 H   0  0  0  0  0  0  0  0  0  0  0  0
   -2.2981   12.9501   -0.5264 H   0  0  0  0  0  0  0  0  0  0  0  0
   -1.1704   12.0571    0.4905 H   0  0  0  0  0  0  0  0  0  0  0  0
   -1.4745   14.8814   -1.8190 H   0  0  0  0  0  0  0  0  0  0  0  0
   -0.0633   14.5292   -2.8730 H   0  0  0  0  0  0  0  0  0  0  0  0
   -1.4815   13.4269   -2.8730 H   0  0  0  0  0  0  0  0  0  0  0  0
    0.7955   13.4520    0.7270 H   0  0  0  0  0  0  0  0  0  0  0  0
   -1.3668   14.8509    0.6531 H   0  0  0  0  0  0  0  0  0  0  0  0
    0.1160   15.4365    1.5736 H   0  0  0  0  0  0  0  0  0  0  0  0
   -1.1783   17.2539    0.1716 H   0  0  0  0  0  0  0  0  0  0  0  0
    1.4329   15.6685   -2.4690 H   0  0  0  0  0  0  0  0  0  0  0  0
    3.1900   17.3284   -0.5571 H   0  0  0  0  0  0  0  0  0  0  0  0
    3.7525   16.3428   -1.9794 H   0  0  0  0  0  0  0  0  0  0  0  0
    3.6827   18.7634   -2.4863 H   0  0  0  0  0  0  0  0  0  0  0  0
    2.5445   17.7957   -3.5030 H   0  0  0  0  0  0  0  0  0  0  0  0
    1.4322   19.8013   -2.7980 H   0  0  0  0  0  0  0  0  0  0  0  0
    1.1800   19.4990   -0.1710 H   0  0  0  0  0  0  0  0  0  0  0  0
   -1.1435   17.2159   -3.1965 H   0  0  0  0  0  0  0  0  0  0  0  0
   -0.5398   18.7771   -3.8482 H   0  0  0  0  0  0  0  0  0  0  0  0
    0.5264   17.3315   -3.8482 H   0  0  0  0  0  0  0  0  0  0  0  0
   -0.7476   19.1652   -0.1871 H   0  0  0  0  0  0  0  0  0  0  0  0
   -0.5946   20.2392   -1.6189 H   0  0  0  0  0  0  0  0  0  0  0  0
   -1.8016   18.9089   -1.6189 H   0  0  0  0  0  0  0  0  0  0  0  0
    2.1804   14.8804    1.5588 H   0  0  0  0  0  0  0  0  0  0  0  0
    3.6749   14.5014    0.6372 H   0  0  0  0  0  0  0  0  0  0  0  0
    3.0195   16.1739    0.6372 H   0  0  0  0  0  0  0  0  0  0  0  0
    3.4193   14.2973   -2.0885 H   0  0  0  0  0  0  0  0  0  0  0  0
    3.2135   13.0805   -0.7064 H   0  0  0  0  0  0  0  0  0  0  0  0
    1.5169   13.3457   -3.2044 H   0  0  0  0  0  0  0  0  0  0  0  0
    2.6039   11.9860   -2.7172 H   0  0  0  0  0  0  0  0  0  0  0  0
    1.1014   11.6706    0.5342 H   0  0  0  0  0  0  0  0  0  0  0  0
    1.0391   10.2203   -0.5239 H   0  0  0  0  0  0  0  0  0  0  0  0
    2.4967   11.2701   -0.5239 H   0  0  0  0  0  0  0  0  0  0  0  0
  1  2  1  0
  2  3  1  0
  3  4  1  0
  4  5  1  0
  5  6  1  0
  6  7  1  0
  7  8  1  0
  7  9  1  0
  2 10  1  0
 10 11  1  0
 11 12  1  0
 12 13  1  0
 13 14  1  6
 13 15  1  0
 15 16  1  0
 16 17  1  0
 17 18  2  0
 18 19  1  0
 19 20  1  0
 20 21  1  0
 21 22  1  0
 22 23  1  0
 22 24  1  0
 24 25  1  0
 24 26  1  0
 19 27  1  0
 27 28  1  1
 27 29  1  0
 29 30  1  0
 30 31  1  0
 31 32  1  1
  7  5  1  0
 31 10  1  0
 31 13  1  0
 27 15  1  0
 24 18  1  0
  1 33  1  0
  1 34  1  0
  1 35  1  0
  2 36  1  6
  3 37  1  0
  3 38  1  0
  4 39  1  0
  4 40  1  0
  5 41  1  1
  8 42  1  0
  8 43  1  0
  8 44  1  0
  9 45  1  0
  9 46  1  0
  9 47  1  0
 10 48  1  6
 11 49  1  0
 11 50  1  0
 12 51  1  0
 12 52  1  0
 14 53  1  0
 14 54  1  0
 14 55  1  0
 15 56  1  1
 16 57  1  0
 16 58  1  0
 17 59  1  0
 19 60  1  6
 20 61  1  0
 20 62  1  0
 21 63  1  0
 21 64  1  0
 22 65  1  6
 23 66  1  0
 25 67  1  0
 25 68  1  0
 25 69  1  0
 26 70  1  0
 26 71  1  0
 26 72  1  0
 28 73  1  0
 28 74  1  0
 28 75  1  0
 29 76  1  0
 29 77  1  0
 30 78  1  0
 30 79  1  0
 32 80  1  0
 32 81  1  0
 32 82  1  0
M  END
>  <meeko>  (19) 
{"is_sidechain": [false], "intermolecular_energy": 2.731, "internal_energy": -0.839}

$$$$
EPH_relaxed_0001_pdb2pqr_Repair_140_r2_0001_out
     RDKit          3D

 82 86  0  0  0  0  0  0  0  0999 V2000
    0.6640    8.0380   -2.6430 C   0  0  0  0  0  0  0  0  0  0  0  0
   -0.7030    8.3400   -2.0230 C   0  0  2  0  0  0  0  0  0  0  0  0
   -1.8600    7.7350   -2.8430 C   0  0  0  0  0  0  0  0  0  0  0  0
   -3.1990    7.7220   -2.1010 C   0  0  0  0  0  0  0  0  0  0  0  0
   -4.1690    6.7640   -2.7250 C   0  0  2  0  0  0  0  0  0  0  0  0
   -5.0670    7.3540   -3.6740 O   0  0  0  0  0  0  0  0  0  0  0  0
   -5.6660    6.8150   -2.4850 C   0  0  0  0  0  0  0  0  0  0  0  0
   -6.2790    7.8460   -1.5900 C   0  0  0  0  0  0  0  0  0  0  0  0
   -6.4710    5.5760   -2.7250 C   0  0  0  0  0  0  0  0  0  0  0  0
   -0.8920    9.8470   -1.8890 C   0  0  1  0  0  0  0  0  0  0  0  0
   -2.3470   10.2350   -1.5130 C   0  0  0  0  0  0  0  0  0  0  0  0
   -2.2540   11.4780   -0.5910 C   0  0  0  0  0  0  0  0  0  0  0  0
   -0.7910   11.9610   -0.7320 C   0  0  1  0  0  0  0  0  0  0  0  0
   -0.7670   12.7860   -2.0570 C   0  0  0  0  0  0  0  0  0  0  0  0
   -0.2140   12.7790    0.4680 C   0  0  2  0  0  0  0  0  0  0  0  0
   -0.9300   14.1110    0.7540 C   0  0  0  0  0  0  0  0  0  0  0  0
   -0.3750   15.2990    0.0410 C   0  0  0  0  0  0  0  0  0  0  0  0
    0.8230   15.3560   -0.5700 C   0  0  0  0  0  0  0  0  0  0  0  0
    1.8010   14.1760   -0.4970 C   0  0  1  0  0  0  0  0  0  0  0  0
    3.2200   14.7000   -0.1550 C   0  0  0  0  0  0  0  0  0  0  0  0
    3.6900   15.7880   -1.1160 C   0  0  0  0  0  0  0  0  0  0  0  0
    2.7230   16.9690   -1.1170 C   0  0  2  0  0  0  0  0  0  0  0  0
    2.7740   17.6070    0.1630 O   0  0  0  0  0  0  0  0  0  0  0  0
    1.2580   16.5610   -1.4390 C   0  0  0  0  0  0  0  0  0  0  0  0
    1.1480   16.1510   -2.9290 C   0  0  0  0  0  0  0  0  0  0  0  0
    0.3640   17.8190   -1.2690 C   0  0  0  0  0  0  0  0  0  0  0  0
    1.3570   12.9640    0.4310 C   0  0  1  0  0  0  0  0  0  0  0  0
    1.8090   13.2260    1.9000 C   0  0  0  0  0  0  0  0  0  0  0  0
    2.1020   11.6590   -0.0360 C   0  0  0  0  0  0  0  0  0  0  0  0
    1.4220   10.8290   -1.1420 C   0  0  0  0  0  0  0  0  0  0  0  0
   -0.0510   10.5760   -0.8100 C   0  0  2  0  0  0  0  0  0  0  0  0
   -0.1060    9.7280    0.5060 C   0  0  0  0  0  0  0  0  0  0  0  0
    1.4014    7.8751   -1.8432 H   0  0  0  0  0  0  0  0  0  0  0  0
    0.5926    7.1340   -3.2656 H   0  0  0  0  0  0  0  0  0  0  0  0
    0.9801    8.8880   -3.2656 H   0  0  0  0  0  0  0  0  0  0  0  0
   -0.7246    7.8724   -1.0276 H   0  0  0  0  0  0  0  0  0  0  0  0
   -1.9789    8.3251   -3.7637 H   0  0  0  0  0  0  0  0  0  0  0  0
   -1.5955    6.6870   -3.0475 H   0  0  0  0  0  0  0  0  0  0  0  0
   -3.0250    7.4236   -1.0566 H   0  0  0  0  0  0  0  0  0  0  0  0
   -3.6312    8.7321   -2.1554 H   0  0  0  0  0  0  0  0  0  0  0  0
   -3.4384    5.9443   -2.6588 H   0  0  0  0  0  0  0  0  0  0  0  0
   -6.1122    7.5655   -0.5395 H   0  0  0  0  0  0  0  0  0  0  0  0
   -5.8157    8.8242   -1.7863 H   0  0  0  0  0  0  0  0  0  0  0  0
   -7.3597    7.9061   -1.7863 H   0  0  0  0  0  0  0  0  0  0  0  0
   -6.7588    5.1331   -1.7601 H   0  0  0  0  0  0  0  0  0  0  0  0
   -7.3760    5.8316   -3.2956 H   0  0  0  0  0  0  0  0  0  0  0  0
   -5.8697    4.8529   -3.2956 H   0  0  0  0  0  0  0  0  0  0  0  0
   -0.5722   10.1635   -2.8928 H   0  0  0  0  0  0  0  0  0  0  0  0
   -2.9207   10.4778   -2.4196 H   0  0  0  0  0  0  0  0  0  0  0  0
   -2.8589    9.4041   -1.0056 H   0  0  0  0  0  0  0  0  0  0  0  0
   -2.9543   12.2594   -0.9211 H   0  0  0  0  0  0  0  0  0  0  0  0
   -2.5172   11.2445    0.4512 H   0  0  0  0  0  0  0  0  0  0  0  0
   -0.7358   13.8597   -1.8199 H   0  0  0  0  0  0  0  0  0  0  0  0
    0.1236   12.5137   -2.6424 H   0  0  0  0  0  0  0  0  0  0  0  0
   -1.6719   12.5659   -2.6424 H   0  0  0  0  0  0  0  0  0  0  0  0
   -0.4385   12.1285    1.3262 H   0  0  0  0  0  0  0  0  0  0  0  0
   -1.9842   14.0001    0.4602 H   0  0  0  0  0  0  0  0  0  0  0  0
   -0.7901   14.3074    1.8272 H   0  0  0  0  0  0  0  0  0  0  0  0
   -0.9980   16.2051    0.0124 H   0  0  0  0  0  0  0  0  0  0  0  0
    1.8033   13.7202   -1.4981 H   0  0  0  0  0  0  0  0  0  0  0  0
    3.2073   15.1120    0.8649 H   0  0  0  0  0  0  0  0  0  0  0  0
    3.9179   13.8541   -0.2417 H   0  0  0  0  0  0  0  0  0  0  0  0
    4.6854   16.1379   -0.8049 H   0  0  0  0  0  0  0  0  0  0  0  0
    3.7308   15.3664   -2.1312 H   0  0  0  0  0  0  0  0  0  0  0  0
    3.0405   17.6549   -1.9162 H   0  0  0  0  0  0  0  0  0  0  0  0
    2.5410   18.5420    0.0350 H   0  0  0  0  0  0  0  0  0  0  0  0
    0.8635   15.0906   -2.9975 H   0  0  0  0  0  0  0  0  0  0  0  0
    0.3837   16.7684   -3.4237 H   0  0  0  0  0  0  0  0  0  0  0  0
    2.1187   16.3029   -3.4237 H   0  0  0  0  0  0  0  0  0  0  0  0
    0.2187   18.0235   -0.1980 H   0  0  0  0  0  0  0  0  0  0  0  0
    0.8521   18.6826   -1.7443 H   0  0  0  0  0  0  0  0  0  0  0  0
   -0.6121   17.6421   -1.7443 H   0  0  0  0  0  0  0  0  0  0  0  0
    1.0699   12.7976    2.5930 H   0  0  0  0  0  0  0  0  0  0  0  0
    2.7884   12.7556    2.0717 H   0  0  0  0  0  0  0  0  0  0  0  0
    1.8876   14.3097    2.0717 H   0  0  0  0  0  0  0  0  0  0  0  0
    3.0944   11.9565   -0.4057 H   0  0  0  0  0  0  0  0  0  0  0  0
    2.1167   11.0040    0.8476 H   0  0  0  0  0  0  0  0  0  0  0  0
    1.4875   11.3760   -2.0941 H   0  0  0  0  0  0  0  0  0  0  0  0
    1.9358    9.8594   -1.2189 H   0  0  0  0  0  0  0  0  0  0  0  0
   -0.0625   10.3989    1.3766 H   0  0  0  0  0  0  0  0  0  0  0  0
   -1.0433    9.1529    0.5327 H   0  0  0  0  0  0  0  0  0  0  0  0
    0.7492    9.0367    0.5327 H   0  0  0  0  0  0  0  0  0  0  0  0
  1  2  1  0
  2  3  1  0
  3  4  1  0
  4  5  1  0
  5  6  1  0
  6  7  1  0
  7  8  1  0
  7  9  1  0
  2 10  1  0
 10 11  1  0
 11 12  1  0
 12 13  1  0
 13 14  1  6
 13 15  1  0
 15 16  1  0
 16 17  1  0
 17 18  2  0
 18 19  1  0
 19 20  1  0
 20 21  1  0
 21 22  1  0
 22 23  1  0
 22 24  1  0
 24 25  1  0
 24 26  1  0
 19 27  1  0
 27 28  1  1
 27 29  1  0
 29 30  1  0
 30 31  1  0
 31 32  1  1
  7  5  1  0
 31 10  1  0
 31 13  1  0
 27 15  1  0
 24 18  1  0
  1 33  1  0
  1 34  1  0
  1 35  1  0
  2 36  1  1
  3 37  1  0
  3 38  1  0
  4 39  1  0
  4 40  1  0
  5 41  1  6
  8 42  1  0
  8 43  1  0
  8 44  1  0
  9 45  1  0
  9 46  1  0
  9 47  1  0
 10 48  1  6
 11 49  1  0
 11 50  1  0
 12 51  1  0
 12 52  1  0
 14 53  1  0
 14 54  1  0
 14 55  1  0
 15 56  1  1
 16 57  1  0
 16 58  1  0
 17 59  1  0
 19 60  1  6
 20 61  1  0
 20 62  1  0
 21 63  1  0
 21 64  1  0
 22 65  1  6
 23 66  1  0
 25 67  1  0
 25 68  1  0
 25 69  1  0
 26 70  1  0
 26 71  1  0
 26 72  1  0
 28 73  1  0
 28 74  1  0
 28 75  1  0
 29 76  1  0
 29 77  1  0
 30 78  1  0
 30 79  1  0
 32 80  1  0
 32 81  1  0
 32 82  1  0
M  END
>  <meeko>  (20) 
{"is_sidechain": [false], "intermolecular_energy": 2.731, "internal_energy": -0.839}

$$$$
