EPH_relaxed_0001_pdb2pqr_Repair_82_r2_0001_out
     RDKit          3D

 82 86  0  0  0  0  0  0  0  0999 V2000
   -1.4730    8.5390   -1.7360 C   0  0  0  0  0  0  0  0  0  0  0  0
   -1.8790    9.1400   -0.3880 C   0  0  2  0  0  0  0  0  0  0  0  0
   -3.3690    9.5340   -0.3530 C   0  0  0  0  0  0  0  0  0  0  0  0
   -4.3180    8.3430   -0.1990 C   0  0  0  0  0  0  0  0  0  0  0  0
   -5.0730    8.0680   -1.4640 C   0  0  2  0  0  0  0  0  0  0  0  0
   -6.4840    8.3090   -1.3830 O   0  0  0  0  0  0  0  0  0  0  0  0
   -6.0850    6.9470   -1.6070 C   0  0  0  0  0  0  0  0  0  0  0  0
   -6.3960    6.0260   -0.4690 C   0  0  0  0  0  0  0  0  0  0  0  0
   -6.4050    6.4430   -2.9800 C   0  0  0  0  0  0  0  0  0  0  0  0
   -1.0110   10.3540   -0.0770 C   0  0  1  0  0  0  0  0  0  0  0  0
    0.0960   10.0460    0.9650 C   0  0  0  0  0  0  0  0  0  0  0  0
    1.3320   10.8930    0.5690 C   0  0  0  0  0  0  0  0  0  0  0  0
    0.7970   11.8990   -0.4770 C   0  0  1  0  0  0  0  0  0  0  0  0
    0.1310   13.0340    0.3630 C   0  0  0  0  0  0  0  0  0  0  0  0
    1.8440   12.4680   -1.4890 C   0  0  2  0  0  0  0  0  0  0  0  0
    2.9830   13.2880   -0.8570 C   0  0  0  0  0  0  0  0  0  0  0  0
    2.7220   14.7530   -0.7360 C   0  0  0  0  0  0  0  0  0  0  0  0
    1.7460   15.4290   -1.3700 C   0  0  0  0  0  0  0  0  0  0  0  0
    0.8390   14.7300   -2.3910 C   0  0  1  0  0  0  0  0  0  0  0  0
    0.7160   15.6100   -3.6630 C   0  0  0  0  0  0  0  0  0  0  0  0
    0.2550   17.0300   -3.3490 C   0  0  0  0  0  0  0  0  0  0  0  0
    1.2140   17.7120   -2.3770 C   0  0  2  0  0  0  0  0  0  0  0  0
    2.4730   17.9050   -3.0290 O   0  0  0  0  0  0  0  0  0  0  0  0
    1.4240   16.9120   -1.0610 C   0  0  0  0  0  0  0  0  0  0  0  0
    0.1320   16.9610   -0.2090 C   0  0  0  0  0  0  0  0  0  0  0  0
    2.5190   17.6360   -0.2310 C   0  0  0  0  0  0  0  0  0  0  0  0
    1.2070   13.2210   -2.7260 C   0  0  1  0  0  0  0  0  0  0  0  0
    2.2670   13.1730   -3.8700 C   0  0  0  0  0  0  0  0  0  0  0  0
   -0.0740   12.4890   -3.2770 C   0  0  0  0  0  0  0  0  0  0  0  0
   -1.0070   11.8440   -2.2350 C   0  0  0  0  0  0  0  0  0  0  0  0
   -0.2150   10.9780   -1.2510 C   0  0  2  0  0  0  0  0  0  0  0  0
    0.4480    9.8140   -2.0640 C   0  0  0  0  0  0  0  0  0  0  0  0
   -0.8645    7.6383   -1.5675 H   0  0  0  0  0  0  0  0  0  0  0  0
   -2.3756    8.2707   -2.3046 H   0  0  0  0  0  0  0  0  0  0  0  0
   -0.8871    9.2762   -2.3046 H   0  0  0  0  0  0  0  0  0  0  0  0
   -1.7243    8.3668    0.3789 H   0  0  0  0  0  0  0  0  0  0  0  0
   -3.5278   10.2162    0.4951 H   0  0  0  0  0  0  0  0  0  0  0  0
   -3.5993   10.0050   -1.3200 H   0  0  0  0  0  0  0  0  0  0  0  0
   -3.7309    7.4515    0.0666 H   0  0  0  0  0  0  0  0  0  0  0  0
   -5.0463    8.5849    0.5891 H   0  0  0  0  0  0  0  0  0  0  0  0
   -4.2055    8.3609   -2.0736 H   0  0  0  0  0  0  0  0  0  0  0  0
   -6.2199    6.5475    0.4834 H   0  0  0  0  0  0  0  0  0  0  0  0
   -7.4493    5.7141   -0.5270 H   0  0  0  0  0  0  0  0  0  0  0  0
   -5.7474    5.1395   -0.5270 H   0  0  0  0  0  0  0  0  0  0  0  0
   -6.9932    5.5167   -2.9027 H   0  0  0  0  0  0  0  0  0  0  0  0
   -6.9867    7.2024   -3.5230 H   0  0  0  0  0  0  0  0  0  0  0  0
   -5.4703    6.2396   -3.5230 H   0  0  0  0  0  0  0  0  0  0  0  0
   -1.7880   11.0534    0.2653 H   0  0  0  0  0  0  0  0  0  0  0  0
   -0.2455   10.3229    1.9733 H   0  0  0  0  0  0  0  0  0  0  0  0
    0.3398    8.9734    0.9764 H   0  0  0  0  0  0  0  0  0  0  0  0
    1.7371   11.4217    1.4445 H   0  0  0  0  0  0  0  0  0  0  0  0
    2.1513   10.2752    0.1725 H   0  0  0  0  0  0  0  0  0  0  0  0
    0.2570   12.8193    1.4345 H   0  0  0  0  0  0  0  0  0  0  0  0
    0.6080   13.9957    0.1232 H   0  0  0  0  0  0  0  0  0  0  0  0
   -0.9412   13.0867    0.1232 H   0  0  0  0  0  0  0  0  0  0  0  0
    2.3151   11.5542   -1.8802 H   0  0  0  0  0  0  0  0  0  0  0  0
    3.1683   12.8911    0.1520 H   0  0  0  0  0  0  0  0  0  0  0  0
    3.8435   13.1868   -1.5347 H   0  0  0  0  0  0  0  0  0  0  0  0
    3.3836   15.3289   -0.0722 H   0  0  0  0  0  0  0  0  0  0  0  0
   -0.1446   14.6333   -1.9080 H   0  0  0  0  0  0  0  0  0  0  0  0
    1.6989   15.6588   -4.1545 H   0  0  0  0  0  0  0  0  0  0  0  0
   -0.0404   15.1498   -4.3158 H   0  0  0  0  0  0  0  0  0  0  0  0
    0.2154   17.6104   -4.2826 H   0  0  0  0  0  0  0  0  0  0  0  0
   -0.7407   16.9813   -2.8840 H   0  0  0  0  0  0  0  0  0  0  0  0
    0.7640   18.6741   -2.0909 H   0  0  0  0  0  0  0  0  0  0  0  0
    2.7580   18.8180   -2.8550 H   0  0  0  0  0  0  0  0  0  0  0  0
    0.3963   16.9510    0.8587 H   0  0  0  0  0  0  0  0  0  0  0  0
   -0.4250   17.8809   -0.4402 H   0  0  0  0  0  0  0  0  0  0  0  0
   -0.4931   16.0859   -0.4402 H   0  0  0  0  0  0  0  0  0  0  0  0
    2.3152   17.5012    0.8415 H   0  0  0  0  0  0  0  0  0  0  0  0
    3.5040   17.2106   -0.4733 H   0  0  0  0  0  0  0  0  0  0  0  0
    2.5133   18.7090   -0.4733 H   0  0  0  0  0  0  0  0  0  0  0  0
    3.2757   13.1273   -3.4336 H   0  0  0  0  0  0  0  0  0  0  0  0
    2.0957   12.2817   -4.4915 H   0  0  0  0  0  0  0  0  0  0  0  0
    2.1769   14.0761   -4.4915 H   0  0  0  0  0  0  0  0  0  0  0  0
   -0.6636   13.2280   -3.8394 H   0  0  0  0  0  0  0  0  0  0  0  0
    0.3092   11.6513   -3.8781 H   0  0  0  0  0  0  0  0  0  0  0  0
   -1.5273   12.6372   -1.6781 H   0  0  0  0  0  0  0  0  0  0  0  0
   -1.7309   11.2042   -2.7610 H   0  0  0  0  0  0  0  0  0  0  0  0
    0.8694    9.0741   -1.3677 H   0  0  0  0  0  0  0  0  0  0  0  0
   -0.3104    9.3309   -2.6975 H   0  0  0  0  0  0  0  0  0  0  0  0
    1.2504   10.2199   -2.6975 H   0  0  0  0  0  0  0  0  0  0  0  0
  1  2  1  0
  2  3  1  0
  3  4  1  0
  4  5  1  0
  5  6  1  0
  6  7  1  0
  7  8  1  0
  7  9  1  0
  2 10  1  0
 10 11  1  0
 11 12  1  0
 12 13  1  0
 13 14  1  1
 13 15  1  0
 15 16  1  0
 16 17  1  0
 17 18  2  0
 18 19  1  0
 19 20  1  0
 20 21  1  0
 21 22  1  0
 22 23  1  0
 22 24  1  0
 24 25  1  0
 24 26  1  0
 19 27  1  0
 27 28  1  6
 27 29  1  0
 29 30  1  0
 30 31  1  0
 31 32  1  6
  7  5  1  0
 31 10  1  0
 31 13  1  0
 27 15  1  0
 24 18  1  0
  1 33  1  0
  1 34  1  0
  1 35  1  0
  2 36  1  1
  3 37  1  0
  3 38  1  0
  4 39  1  0
  4 40  1  0
  5 41  1  6
  8 42  1  0
  8 43  1  0
  8 44  1  0
  9 45  1  0
  9 46  1  0
  9 47  1  0
 10 48  1  1
 11 49  1  0
 11 50  1  0
 12 51  1  0
 12 52  1  0
 14 53  1  0
 14 54  1  0
 14 55  1  0
 15 56  1  6
 16 57  1  0
 16 58  1  0
 17 59  1  0
 19 60  1  1
 20 61  1  0
 20 62  1  0
 21 63  1  0
 21 64  1  0
 22 65  1  1
 23 66  1  0
 25 67  1  0
 25 68  1  0
 25 69  1  0
 26 70  1  0
 26 71  1  0
 26 72  1  0
 28 73  1  0
 28 74  1  0
 28 75  1  0
 29 76  1  0
 29 77  1  0
 30 78  1  0
 30 79  1  0
 32 80  1  0
 32 81  1  0
 32 82  1  0
M  END
>  <meeko>  (1) 
{"is_sidechain": [false], "intermolecular_energy": 2.731, "internal_energy": -0.839}

$$$$
EPH_relaxed_0001_pdb2pqr_Repair_82_r2_0001_out
     RDKit          3D

 82 86  0  0  0  0  0  0  0  0999 V2000
    2.3250   18.0670   -2.6740 C   0  0  0  0  0  0  0  0  0  0  0  0
    1.0170   17.6910   -1.9720 C   0  0  2  0  0  0  0  0  0  0  0  0
    1.1390   17.7640   -0.4370 C   0  0  0  0  0  0  0  0  0  0  0  0
    0.7830   19.1350    0.1440 C   0  0  0  0  0  0  0  0  0  0  0  0
   -0.6610   19.2130    0.5380 C   0  0  2  0  0  0  0  0  0  0  0  0
   -1.5190   18.2920   -0.1480 O   0  0  0  0  0  0  0  0  0  0  0  0
   -1.7580   19.6860   -0.3970 C   0  0  0  0  0  0  0  0  0  0  0  0
   -1.4580   20.1150   -1.7990 C   0  0  0  0  0  0  0  0  0  0  0  0
   -3.0350   20.1940    0.1980 C   0  0  0  0  0  0  0  0  0  0  0  0
    0.5850   16.2920   -2.3950 C   0  0  1  0  0  0  0  0  0  0  0  0
    0.7040   16.0660   -3.9250 C   0  0  0  0  0  0  0  0  0  0  0  0
    1.1180   14.5860   -4.1280 C   0  0  0  0  0  0  0  0  0  0  0  0
    0.9010   13.9270   -2.7460 C   0  0  1  0  0  0  0  0  0  0  0  0
   -0.6290   13.6220   -2.6820 C   0  0  0  0  0  0  0  0  0  0  0  0
    1.7560   12.6530   -2.4460 C   0  0  2  0  0  0  0  0  0  0  0  0
    1.4960   11.4570   -3.3780 C   0  0  0  0  0  0  0  0  0  0  0  0
    0.4370   10.5100   -2.9210 C   0  0  0  0  0  0  0  0  0  0  0  0
   -0.0780   10.4540   -1.6780 C   0  0  0  0  0  0  0  0  0  0  0  0
    0.4770   11.3390   -0.5550 C   0  0  1  0  0  0  0  0  0  0  0  0
    0.6920   10.4820    0.7210 C   0  0  0  0  0  0  0  0  0  0  0  0
   -0.5660    9.7290    1.1390 C   0  0  0  0  0  0  0  0  0  0  0  0
   -1.0540    8.8160    0.0170 C   0  0  2  0  0  0  0  0  0  0  0  0
   -0.0920    7.7760   -0.1820 O   0  0  0  0  0  0  0  0  0  0  0  0
   -1.2970    9.5670   -1.3220 C   0  0  0  0  0  0  0  0  0  0  0  0
   -2.5400   10.4810   -1.1890 C   0  0  0  0  0  0  0  0  0  0  0  0
   -1.6480    8.5110   -2.4050 C   0  0  0  0  0  0  0  0  0  0  0  0
    1.7520   12.2130   -0.9260 C   0  0  1  0  0  0  0  0  0  0  0  0
    3.0510   11.3810   -0.6990 C   0  0  0  0  0  0  0  0  0  0  0  0
    1.8350   13.4420    0.0540 C   0  0  0  0  0  0  0  0  0  0  0  0
    1.0650   14.7120   -0.3570 C   0  0  0  0  0  0  0  0  0  0  0  0
    1.3750   15.0950   -1.8070 C   0  0  2  0  0  0  0  0  0  0  0  0
    2.9030   15.4300   -1.8970 C   0  0  0  0  0  0  0  0  0  0  0  0
    3.0951   18.2884   -1.9204 H   0  0  0  0  0  0  0  0  0  0  0  0
    2.6579   17.2282   -3.3029 H   0  0  0  0  0  0  0  0  0  0  0  0
    2.1616   18.9545   -3.3029 H   0  0  0  0  0  0  0  0  0  0  0  0
    0.2552   18.4238   -2.2765 H   0  0  0  0  0  0  0  0  0  0  0  0
    0.4630   17.0150    0.0011 H   0  0  0  0  0  0  0  0  0  0  0  0
    2.1936   17.5736   -0.1889 H   0  0  0  0  0  0  0  0  0  0  0  0
    1.4052   19.3179    1.0325 H   0  0  0  0  0  0  0  0  0  0  0  0
    0.9682   19.8938   -0.6305 H   0  0  0  0  0  0  0  0  0  0  0  0
   -0.3903   19.5023    1.5642 H   0  0  0  0  0  0  0  0  0  0  0  0
   -0.8277   21.0163   -1.7797 H   0  0  0  0  0  0  0  0  0  0  0  0
   -0.9269   19.3073   -2.3239 H   0  0  0  0  0  0  0  0  0  0  0  0
   -2.3989   20.3367   -2.3239 H   0  0  0  0  0  0  0  0  0  0  0  0
   -2.9648   20.1661    1.2954 H   0  0  0  0  0  0  0  0  0  0  0  0
   -3.2071   21.2291   -0.1322 H   0  0  0  0  0  0  0  0  0  0  0  0
   -3.8711   19.5600   -0.1322 H   0  0  0  0  0  0  0  0  0  0  0  0
   -0.4437   16.2920   -2.0054 H   0  0  0  0  0  0  0  0  0  0  0  0
   -0.2629   16.2591   -4.4127 H   0  0  0  0  0  0  0  0  0  0  0  0
    1.4449   16.7476   -4.3683 H   0  0  0  0  0  0  0  0  0  0  0  0
    0.4858   14.1070   -4.8902 H   0  0  0  0  0  0  0  0  0  0  0  0
    2.1560   14.4876   -4.4786 H   0  0  0  0  0  0  0  0  0  0  0  0
   -0.9466   13.5587   -1.6308 H   0  0  0  0  0  0  0  0  0  0  0  0
   -1.1847   14.4270   -3.1851 H   0  0  0  0  0  0  0  0  0  0  0  0
   -0.8335   12.6654   -3.1851 H   0  0  0  0  0  0  0  0  0  0  0  0
    2.7758   12.9945   -2.6771 H   0  0  0  0  0  0  0  0  0  0  0  0
    1.1984   11.8508   -4.3610 H   0  0  0  0  0  0  0  0  0  0  0  0
    2.4318   10.8792   -3.3992 H   0  0  0  0  0  0  0  0  0  0  0  0
    0.0441    9.7979   -3.6617 H   0  0  0  0  0  0  0  0  0  0  0  0
   -0.2887   12.1056   -0.3652 H   0  0  0  0  0  0  0  0  0  0  0  0
    1.4910    9.7519    0.5248 H   0  0  0  0  0  0  0  0  0  0  0  0
    0.9597   11.1651    1.5405 H   0  0  0  0  0  0  0  0  0  0  0  0
   -0.3424    9.1198    2.0272 H   0  0  0  0  0  0  0  0  0  0  0  0
   -1.3552   10.4616    1.3636 H   0  0  0  0  0  0  0  0  0  0  0  0
   -2.0260    8.4040    0.3259 H   0  0  0  0  0  0  0  0  0  0  0  0
    0.7880    8.1890   -0.2040 H   0  0  0  0  0  0  0  0  0  0  0  0
   -2.7625   10.6446   -0.1242 H   0  0  0  0  0  0  0  0  0  0  0  0
   -2.3381   11.4474   -1.6741 H   0  0  0  0  0  0  0  0  0  0  0  0
   -3.4023   10.0002   -1.6741 H   0  0  0  0  0  0  0  0  0  0  0  0
   -1.9590    7.5753   -1.9175 H   0  0  0  0  0  0  0  0  0  0  0  0
   -2.4691    8.8881   -3.0323 H   0  0  0  0  0  0  0  0  0  0  0  0
   -0.7645    8.3215   -3.0323 H   0  0  0  0  0  0  0  0  0  0  0  0
    3.2293   11.2668    0.3804 H   0  0  0  0  0  0  0  0  0  0  0  0
    2.9356   10.3883   -1.1586 H   0  0  0  0  0  0  0  0  0  0  0  0
    3.9045   11.9009   -1.1586 H   0  0  0  0  0  0  0  0  0  0  0  0
    1.4439   13.1168    1.0294 H   0  0  0  0  0  0  0  0  0  0  0  0
    2.8948   13.7365    0.0570 H   0  0  0  0  0  0  0  0  0  0  0  0
   -0.0146   14.5267   -0.2566 H   0  0  0  0  0  0  0  0  0  0  0  0
    1.3761   15.5387    0.2986 H   0  0  0  0  0  0  0  0  0  0  0  0
    3.3188   15.5212   -0.8827 H   0  0  0  0  0  0  0  0  0  0  0  0
    3.4238   14.6247   -2.4358 H   0  0  0  0  0  0  0  0  0  0  0  0
    3.0391   16.3793   -2.4358 H   0  0  0  0  0  0  0  0  0  0  0  0
  1  2  1  0
  2  3  1  0
  3  4  1  0
  4  5  1  0
  5  6  1  0
  6  7  1  0
  7  8  1  0
  7  9  1  0
  2 10  1  0
 10 11  1  0
 11 12  1  0
 12 13  1  0
 13 14  1  1
 13 15  1  0
 15 16  1  0
 16 17  1  0
 17 18  2  0
 18 19  1  0
 19 20  1  0
 20 21  1  0
 21 22  1  0
 22 23  1  0
 22 24  1  0
 24 25  1  0
 24 26  1  0
 19 27  1  0
 27 28  1  6
 27 29  1  0
 29 30  1  0
 30 31  1  0
 31 32  1  1
  7  5  1  0
 31 10  1  0
 31 13  1  0
 27 15  1  0
 24 18  1  0
  1 33  1  0
  1 34  1  0
  1 35  1  0
  2 36  1  6
  3 37  1  0
  3 38  1  0
  4 39  1  0
  4 40  1  0
  5 41  1  1
  8 42  1  0
  8 43  1  0
  8 44  1  0
  9 45  1  0
  9 46  1  0
  9 47  1  0
 10 48  1  1
 11 49  1  0
 11 50  1  0
 12 51  1  0
 12 52  1  0
 14 53  1  0
 14 54  1  0
 14 55  1  0
 15 56  1  6
 16 57  1  0
 16 58  1  0
 17 59  1  0
 19 60  1  1
 20 61  1  0
 20 62  1  0
 21 63  1  0
 21 64  1  0
 22 65  1  1
 23 66  1  0
 25 67  1  0
 25 68  1  0
 25 69  1  0
 26 70  1  0
 26 71  1  0
 26 72  1  0
 28 73  1  0
 28 74  1  0
 28 75  1  0
 29 76  1  0
 29 77  1  0
 30 78  1  0
 30 79  1  0
 32 80  1  0
 32 81  1  0
 32 82  1  0
M  END
>  <meeko>  (2) 
{"is_sidechain": [false], "intermolecular_energy": 2.731, "internal_energy": -0.839}

$$$$
EPH_relaxed_0001_pdb2pqr_Repair_82_r2_0001_out
     RDKit          3D

 82 86  0  0  0  0  0  0  0  0999 V2000
    0.4010   18.4120   -0.0560 C   0  0  0  0  0  0  0  0  0  0  0  0
    1.4870   17.3510   -0.2570 C   0  0  2  0  0  0  0  0  0  0  0  0
    2.7090   17.9080   -1.0150 C   0  0  0  0  0  0  0  0  0  0  0  0
    3.9420   18.1090   -0.1300 C   0  0  0  0  0  0  0  0  0  0  0  0
    3.5690   18.5920    1.2390 C   0  0  2  0  0  0  0  0  0  0  0  0
    3.8000   19.9890    1.4650 O   0  0  0  0  0  0  0  0  0  0  0  0
    4.5810   19.0810    2.2580 C   0  0  0  0  0  0  0  0  0  0  0  0
    6.0460   19.1110    1.9520 C   0  0  0  0  0  0  0  0  0  0  0  0
    4.2030   19.0680    3.7060 C   0  0  0  0  0  0  0  0  0  0  0  0
    0.9120   16.1540   -1.0050 C   0  0  1  0  0  0  0  0  0  0  0  0
    0.7820   16.4090   -2.5300 C   0  0  0  0  0  0  0  0  0  0  0  0
    1.0700   15.0580   -3.2350 C   0  0  0  0  0  0  0  0  0  0  0  0
    1.0270   14.0090   -2.1000 C   0  0  1  0  0  0  0  0  0  0  0  0
   -0.4900   13.7150   -1.8820 C   0  0  0  0  0  0  0  0  0  0  0  0
    1.8410   12.6960   -2.3420 C   0  0  2  0  0  0  0  0  0  0  0  0
    1.3690   11.8470   -3.5370 C   0  0  0  0  0  0  0  0  0  0  0  0
    0.3370   10.8160   -3.2190 C   0  0  0  0  0  0  0  0  0  0  0  0
    0.0160   10.3860   -1.9840 C   0  0  0  0  0  0  0  0  0  0  0  0
    0.7880   10.8770   -0.7530 C   0  0  1  0  0  0  0  0  0  0  0  0
    1.1440    9.6680    0.1510 C   0  0  0  0  0  0  0  0  0  0  0  0
   -0.0790    8.8360    0.5230 C   0  0  0  0  0  0  0  0  0  0  0  0
   -0.7870    8.3170   -0.7260 C   0  0  2  0  0  0  0  0  0  0  0  0
    0.0690    7.3780   -1.3850 O   0  0  0  0  0  0  0  0  0  0  0  0
   -1.1850    9.4460   -1.7180 C   0  0  0  0  0  0  0  0  0  0  0  0
   -2.3360   10.2870   -1.1130 C   0  0  0  0  0  0  0  0  0  0  0  0
   -1.7610    8.7780   -2.9960 C   0  0  0  0  0  0  0  0  0  0  0  0
    2.0410   11.8090   -1.0470 C   0  0  1  0  0  0  0  0  0  0  0  0
    3.3080   10.9340   -1.2980 C   0  0  0  0  0  0  0  0  0  0  0  0
    2.3470   12.6770    0.2300 C   0  0  0  0  0  0  0  0  0  0  0  0
    1.6010   14.0200    0.3530 C   0  0  0  0  0  0  0  0  0  0  0  0
    1.7090   14.8270   -0.9440 C   0  0  2  0  0  0  0  0  0  0  0  0
    3.2230   15.1570   -1.1780 C   0  0  0  0  0  0  0  0  0  0  0  0
    0.2384   18.5709    1.0202 H   0  0  0  0  0  0  0  0  0  0  0  0
    0.7200   19.3560   -0.5219 H   0  0  0  0  0  0  0  0  0  0  0  0
   -0.5353   18.0711   -0.5219 H   0  0  0  0  0  0  0  0  0  0  0  0
    1.8311   17.0365    0.7393 H   0  0  0  0  0  0  0  0  0  0  0  0
    2.9695   17.2041   -1.8191 H   0  0  0  0  0  0  0  0  0  0  0  0
    2.4247   18.8982   -1.4004 H   0  0  0  0  0  0  0  0  0  0  0  0
    4.4742   17.1508   -0.0372 H   0  0  0  0  0  0  0  0  0  0  0  0
    4.5810   18.8710   -0.6002 H   0  0  0  0  0  0  0  0  0  0  0  0
    2.7546   17.8553    1.3026 H   0  0  0  0  0  0  0  0  0  0  0  0
    6.6168   19.1227    2.8922 H   0  0  0  0  0  0  0  0  0  0  0  0
    6.3173   18.2182    1.3694 H   0  0  0  0  0  0  0  0  0  0  0  0
    6.2805   20.0141    1.3694 H   0  0  0  0  0  0  0  0  0  0  0  0
    5.1132   19.0993    4.3229 H   0  0  0  0  0  0  0  0  0  0  0  0
    3.5781   19.9452    3.9297 H   0  0  0  0  0  0  0  0  0  0  0  0
    3.6398   18.1500    3.9297 H   0  0  0  0  0  0  0  0  0  0  0  0
   -0.0428   16.0440   -0.4700 H   0  0  0  0  0  0  0  0  0  0  0  0
   -0.2345   16.7532   -2.7713 H   0  0  0  0  0  0  0  0  0  0  0  0
    1.4861   17.1861   -2.8622 H   0  0  0  0  0  0  0  0  0  0  0  0
    0.3011   14.8432   -3.9917 H   0  0  0  0  0  0  0  0  0  0  0  0
    2.0343   15.0608   -3.7642 H   0  0  0  0  0  0  0  0  0  0  0  0
   -0.7042   13.6735   -0.8039 H   0  0  0  0  0  0  0  0  0  0  0  0
   -1.0884   14.5139   -2.3442 H   0  0  0  0  0  0  0  0  0  0  0  0
   -0.7467   12.7504   -2.3442 H   0  0  0  0  0  0  0  0  0  0  0  0
    2.8328   13.0813   -2.6211 H   0  0  0  0  0  0  0  0  0  0  0  0
    0.9483   12.5273   -4.2921 H   0  0  0  0  0  0  0  0  0  0  0  0
    2.2538   11.2943   -3.8859 H   0  0  0  0  0  0  0  0  0  0  0  0
   -0.2069   10.3701   -4.0648 H   0  0  0  0  0  0  0  0  0  0  0  0
    0.1074   11.5555   -0.2178 H   0  0  0  0  0  0  0  0  0  0  0  0
    1.8581    9.0253   -0.3847 H   0  0  0  0  0  0  0  0  0  0  0  0
    1.5751   10.0631    1.0827 H   0  0  0  0  0  0  0  0  0  0  0  0
    0.2405    7.9811    1.1370 H   0  0  0  0  0  0  0  0  0  0  0  0
   -0.7790    9.4726    1.0841 H   0  0  0  0  0  0  0  0  0  0  0  0
   -1.7234    7.8404   -0.4002 H   0  0  0  0  0  0  0  0  0  0  0  0
    0.2870    7.7420   -2.2600 H   0  0  0  0  0  0  0  0  0  0  0  0
   -2.2814   10.2471   -0.0151 H   0  0  0  0  0  0  0  0  0  0  0  0
   -2.2422   11.3308   -1.4471 H   0  0  0  0  0  0  0  0  0  0  0  0
   -3.3020    9.8805   -1.4471 H   0  0  0  0  0  0  0  0  0  0  0  0
   -2.4544    7.9739   -2.7087 H   0  0  0  0  0  0  0  0  0  0  0  0
   -2.2985    9.5300   -3.5923 H   0  0  0  0  0  0  0  0  0  0  0  0
   -0.9381    8.3570   -3.5923 H   0  0  0  0  0  0  0  0  0  0  0  0
    3.7431   10.6335   -0.3334 H   0  0  0  0  0  0  0  0  0  0  0  0
    3.0268   10.0367   -1.8688 H   0  0  0  0  0  0  0  0  0  0  0  0
    4.0475   11.5148   -1.8688 H   0  0  0  0  0  0  0  0  0  0  0  0
    2.0911   12.0722    1.1125 H   0  0  0  0  0  0  0  0  0  0  0  0
    3.4106   12.9453    0.1473 H   0  0  0  0  0  0  0  0  0  0  0  0
    0.5401   13.8241    0.5678 H   0  0  0  0  0  0  0  0  0  0  0  0
    2.0574   14.6017    1.1674 H   0  0  0  0  0  0  0  0  0  0  0  0
    3.7285   15.2672   -0.2073 H   0  0  0  0  0  0  0  0  0  0  0  0
    3.6929   14.3402   -1.7455 H   0  0  0  0  0  0  0  0  0  0  0  0
    3.3103   16.0953   -1.7455 H   0  0  0  0  0  0  0  0  0  0  0  0
  1  2  1  0
  2  3  1  0
  3  4  1  0
  4  5  1  0
  5  6  1  0
  6  7  1  0
  7  8  1  0
  7  9  1  0
  2 10  1  0
 10 11  1  0
 11 12  1  0
 12 13  1  0
 13 14  1  1
 13 15  1  0
 15 16  1  0
 16 17  1  0
 17 18  2  0
 18 19  1  0
 19 20  1  0
 20 21  1  0
 21 22  1  0
 22 23  1  0
 22 24  1  0
 24 25  1  0
 24 26  1  0
 19 27  1  0
 27 28  1  6
 27 29  1  0
 29 30  1  0
 30 31  1  0
 31 32  1  6
  7  5  1  0
 31 10  1  0
 31 13  1  0
 27 15  1  0
 24 18  1  0
  1 33  1  0
  1 34  1  0
  1 35  1  0
  2 36  1  1
  3 37  1  0
  3 38  1  0
  4 39  1  0
  4 40  1  0
  5 41  1  1
  8 42  1  0
  8 43  1  0
  8 44  1  0
  9 45  1  0
  9 46  1  0
  9 47  1  0
 10 48  1  1
 11 49  1  0
 11 50  1  0
 12 51  1  0
 12 52  1  0
 14 53  1  0
 14 54  1  0
 14 55  1  0
 15 56  1  6
 16 57  1  0
 16 58  1  0
 17 59  1  0
 19 60  1  1
 20 61  1  0
 20 62  1  0
 21 63  1  0
 21 64  1  0
 22 65  1  1
 23 66  1  0
 25 67  1  0
 25 68  1  0
 25 69  1  0
 26 70  1  0
 26 71  1  0
 26 72  1  0
 28 73  1  0
 28 74  1  0
 28 75  1  0
 29 76  1  0
 29 77  1  0
 30 78  1  0
 30 79  1  0
 32 80  1  0
 32 81  1  0
 32 82  1  0
M  END
>  <meeko>  (3) 
{"is_sidechain": [false], "intermolecular_energy": 2.731, "internal_energy": -0.839}

$$$$
EPH_relaxed_0001_pdb2pqr_Repair_82_r2_0001_out
     RDKit          3D

 82 86  0  0  0  0  0  0  0  0999 V2000
   -3.4630    8.9410   -0.2940 C   0  0  0  0  0  0  0  0  0  0  0  0
   -3.5590    7.7990   -1.3090 C   0  0  2  0  0  0  0  0  0  0  0  0
   -2.5270    7.9430   -2.4450 C   0  0  0  0  0  0  0  0  0  0  0  0
   -1.1130    8.2650   -1.9550 C   0  0  0  0  0  0  0  0  0  0  0  0
   -0.6860    9.6430   -2.3620 C   0  0  2  0  0  0  0  0  0  0  0  0
    0.7010    9.9290   -2.1410 O   0  0  0  0  0  0  0  0  0  0  0  0
   -0.2350   10.7040   -1.3760 C   0  0  0  0  0  0  0  0  0  0  0  0
   -0.1900   10.4340    0.0960 C   0  0  0  0  0  0  0  0  0  0  0  0
   -0.3080   12.1420   -1.7880 C   0  0  0  0  0  0  0  0  0  0  0  0
   -4.9670    7.7360   -1.8890 C   0  0  1  0  0  0  0  0  0  0  0  0
   -4.9910    7.2010   -3.3450 C   0  0  0  0  0  0  0  0  0  0  0  0
   -6.2950    6.3780   -3.4990 C   0  0  0  0  0  0  0  0  0  0  0  0
   -7.1330    6.7380   -2.2490 C   0  0  1  0  0  0  0  0  0  0  0  0
   -7.8040    8.1040   -2.5960 C   0  0  0  0  0  0  0  0  0  0  0  0
   -8.1860    5.6760   -1.7940 C   0  0  2  0  0  0  0  0  0  0  0  0
   -9.3010    5.3840   -2.8130 C   0  0  0  0  0  0  0  0  0  0  0  0
  -10.5200    6.2360   -2.6860 C   0  0  0  0  0  0  0  0  0  0  0  0
  -10.8340    6.9990   -1.6220 C   0  0  0  0  0  0  0  0  0  0  0  0
   -9.9680    6.9790   -0.3560 C   0  0  1  0  0  0  0  0  0  0  0  0
  -10.8790    6.8570    0.8930 C   0  0  0  0  0  0  0  0  0  0  0  0
  -11.9560    7.9370    0.9390 C   0  0  0  0  0  0  0  0  0  0  0  0
  -12.8330    7.8870   -0.3090 C   0  0  2  0  0  0  0  0  0  0  0  0
  -13.5810    6.6670   -0.2980 O   0  0  0  0  0  0  0  0  0  0  0  0
  -12.0230    7.9910   -1.6310 C   0  0  0  0  0  0  0  0  0  0  0  0
  -11.4570    9.4250   -1.7840 C   0  0  0  0  0  0  0  0  0  0  0  0
  -13.0090    7.7850   -2.8130 C   0  0  0  0  0  0  0  0  0  0  0  0
   -8.7760    5.9270   -0.3470 C   0  0  1  0  0  0  0  0  0  0  0  0
   -9.2880    4.5480    0.1710 C   0  0  0  0  0  0  0  0  0  0  0  0
   -7.6770    6.4050    0.6730 C   0  0  0  0  0  0  0  0  0  0  0  0
   -6.5950    7.3590    0.1330 C   0  0  0  0  0  0  0  0  0  0  0  0
   -5.9930    6.8240   -1.1700 C   0  0  2  0  0  0  0  0  0  0  0  0
   -5.2910    5.4610   -0.8480 C   0  0  0  0  0  0  0  0  0  0  0  0
   -3.4976    8.5293    0.7255 H   0  0  0  0  0  0  0  0  0  0  0  0
   -2.5162    9.4819   -0.4391 H   0  0  0  0  0  0  0  0  0  0  0  0
   -4.3062    9.6324   -0.4391 H   0  0  0  0  0  0  0  0  0  0  0  0
   -3.3343    6.8633   -0.7761 H   0  0  0  0  0  0  0  0  0  0  0  0
   -2.4933    6.9971   -3.0054 H   0  0  0  0  0  0  0  0  0  0  0  0
   -2.8515    8.7891   -3.0686 H   0  0  0  0  0  0  0  0  0  0  0  0
   -1.0913    8.1946   -0.8575 H   0  0  0  0  0  0  0  0  0  0  0  0
   -0.4194    7.5425   -2.4099 H   0  0  0  0  0  0  0  0  0  0  0  0
   -1.4268    9.6584   -3.1750 H   0  0  0  0  0  0  0  0  0  0  0  0
   -0.3466   11.3736    0.6461 H   0  0  0  0  0  0  0  0  0  0  0  0
   -0.9811    9.7174    0.3617 H   0  0  0  0  0  0  0  0  0  0  0  0
    0.7908   10.0127    0.3617 H   0  0  0  0  0  0  0  0  0  0  0  0
   -0.3403   12.7790   -0.8918 H   0  0  0  0  0  0  0  0  0  0  0  0
    0.5783   12.3971   -2.3874 H   0  0  0  0  0  0  0  0  0  0  0  0
   -1.2156   12.3061   -2.3874 H   0  0  0  0  0  0  0  0  0  0  0  0
   -5.2582    8.7909   -1.7778 H   0  0  0  0  0  0  0  0  0  0  0  0
   -4.9865    8.0398   -4.0566 H   0  0  0  0  0  0  0  0  0  0  0  0
   -4.1064    6.5807   -3.5519 H   0  0  0  0  0  0  0  0  0  0  0  0
   -6.8274    6.6623   -4.4186 H   0  0  0  0  0  0  0  0  0  0  0  0
   -6.1005    5.2980   -3.5742 H   0  0  0  0  0  0  0  0  0  0  0  0
   -8.0633    8.6318   -1.6664 H   0  0  0  0  0  0  0  0  0  0  0  0
   -7.1047    8.7174   -3.1831 H   0  0  0  0  0  0  0  0  0  0  0  0
   -8.7169    7.9254   -3.1831 H   0  0  0  0  0  0  0  0  0  0  0  0
   -7.5847    4.7566   -1.7385 H   0  0  0  0  0  0  0  0  0  0  0  0
   -8.8869    5.5313   -3.8214 H   0  0  0  0  0  0  0  0  0  0  0  0
   -9.6291    4.3524   -2.6178 H   0  0  0  0  0  0  0  0  0  0  0  0
  -11.2212    6.2409   -3.5335 H   0  0  0  0  0  0  0  0  0  0  0  0
   -9.4357    7.9415   -0.3372 H   0  0  0  0  0  0  0  0  0  0  0  0
  -11.3679    5.8718    0.8780 H   0  0  0  0  0  0  0  0  0  0  0  0
  -10.2442    6.9802    1.7828 H   0  0  0  0  0  0  0  0  0  0  0  0
  -12.5852    7.7802    1.8275 H   0  0  0  0  0  0  0  0  0  0  0  0
  -11.4651    8.9204    0.9837 H   0  0  0  0  0  0  0  0  0  0  0  0
  -13.4992    8.7618   -0.2796 H   0  0  0  0  0  0  0  0  0  0  0  0
  -14.3420    6.7840   -0.8910 H   0  0  0  0  0  0  0  0  0  0  0  0
  -11.2854    9.8597   -0.7882 H   0  0  0  0  0  0  0  0  0  0  0  0
  -10.5064    9.3870   -2.3362 H   0  0  0  0  0  0  0  0  0  0  0  0
  -12.1773   10.0465   -2.3362 H   0  0  0  0  0  0  0  0  0  0  0  0
  -14.0145    7.5749   -2.4194 H   0  0  0  0  0  0  0  0  0  0  0  0
  -13.0391    8.6962   -3.4284 H   0  0  0  0  0  0  0  0  0  0  0  0
  -12.6718    6.9379   -3.4284 H   0  0  0  0  0  0  0  0  0  0  0  0
   -9.2885    4.5467    1.2710 H   0  0  0  0  0  0  0  0  0  0  0  0
  -10.3103    4.3749   -0.1963 H   0  0  0  0  0  0  0  0  0  0  0  0
   -8.6263    3.7497   -0.1963 H   0  0  0  0  0  0  0  0  0  0  0  0
   -8.1908    6.9183    1.4992 H   0  0  0  0  0  0  0  0  0  0  0  0
   -7.1365    5.4916    0.9622 H   0  0  0  0  0  0  0  0  0  0  0  0
   -7.0461    8.3441   -0.0569 H   0  0  0  0  0  0  0  0  0  0  0  0
   -5.7936    7.4404    0.8821 H   0  0  0  0  0  0  0  0  0  0  0  0
   -5.2243    5.3315    0.2423 H   0  0  0  0  0  0  0  0  0  0  0  0
   -5.8764    4.6360   -1.2801 H   0  0  0  0  0  0  0  0  0  0  0  0
   -4.2794    5.4585   -1.2801 H   0  0  0  0  0  0  0  0  0  0  0  0
  1  2  1  0
  2  3  1  0
  3  4  1  0
  4  5  1  0
  5  6  1  0
  6  7  1  0
  7  8  1  0
  7  9  1  0
  2 10  1  0
 10 11  1  0
 11 12  1  0
 12 13  1  0
 13 14  1  6
 13 15  1  0
 15 16  1  0
 16 17  1  0
 17 18  2  0
 18 19  1  0
 19 20  1  0
 20 21  1  0
 21 22  1  0
 22 23  1  0
 22 24  1  0
 24 25  1  0
 24 26  1  0
 19 27  1  0
 27 28  1  1
 27 29  1  0
 29 30  1  0
 30 31  1  0
 31 32  1  1
  7  5  1  0
 31 10  1  0
 31 13  1  0
 27 15  1  0
 24 18  1  0
  1 33  1  0
  1 34  1  0
  1 35  1  0
  2 36  1  1
  3 37  1  0
  3 38  1  0
  4 39  1  0
  4 40  1  0
  5 41  1  6
  8 42  1  0
  8 43  1  0
  8 44  1  0
  9 45  1  0
  9 46  1  0
  9 47  1  0
 10 48  1  6
 11 49  1  0
 11 50  1  0
 12 51  1  0
 12 52  1  0
 14 53  1  0
 14 54  1  0
 14 55  1  0
 15 56  1  1
 16 57  1  0
 16 58  1  0
 17 59  1  0
 19 60  1  1
 20 61  1  0
 20 62  1  0
 21 63  1  0
 21 64  1  0
 22 65  1  1
 23 66  1  0
 25 67  1  0
 25 68  1  0
 25 69  1  0
 26 70  1  0
 26 71  1  0
 26 72  1  0
 28 73  1  0
 28 74  1  0
 28 75  1  0
 29 76  1  0
 29 77  1  0
 30 78  1  0
 30 79  1  0
 32 80  1  0
 32 81  1  0
 32 82  1  0
M  END
>  <meeko>  (4) 
{"is_sidechain": [false], "intermolecular_energy": 2.731, "internal_energy": -0.839}

$$$$
EPH_relaxed_0001_pdb2pqr_Repair_82_r2_0001_out
     RDKit          3D

 82 86  0  0  0  0  0  0  0  0999 V2000
    0.4180    8.8760   -2.5420 C   0  0  0  0  0  0  0  0  0  0  0  0
    1.1820   10.0370   -3.1850 C   0  0  2  0  0  0  0  0  0  0  0  0
    2.6740   10.0360   -2.7990 C   0  0  0  0  0  0  0  0  0  0  0  0
    3.5900   10.6180   -3.8790 C   0  0  0  0  0  0  0  0  0  0  0  0
    4.9760   10.8590   -3.3600 C   0  0  2  0  0  0  0  0  0  0  0  0
    5.5830   12.0740   -3.8170 O   0  0  0  0  0  0  0  0  0  0  0  0
    6.2120   10.8540   -4.2400 C   0  0  0  0  0  0  0  0  0  0  0  0
    6.1200   10.6000   -5.7120 C   0  0  0  0  0  0  0  0  0  0  0  0
    7.5430   10.6090   -3.6020 C   0  0  0  0  0  0  0  0  0  0  0  0
    0.5420   11.3630   -2.7890 C   0  0  1  0  0  0  0  0  0  0  0  0
   -0.8350   11.1790   -2.0970 C   0  0  0  0  0  0  0  0  0  0  0  0
   -0.9510   12.2950   -1.0270 C   0  0  0  0  0  0  0  0  0  0  0  0
    0.1990   13.2750   -1.3590 C   0  0  1  0  0  0  0  0  0  0  0  0
   -0.3500   14.1590   -2.5230 C   0  0  0  0  0  0  0  0  0  0  0  0
    0.7290   14.1460   -0.1740 C   0  0  2  0  0  0  0  0  0  0  0  0
   -0.3020   15.1090    0.4400 C   0  0  0  0  0  0  0  0  0  0  0  0
   -0.3450   16.4700   -0.1720 C   0  0  0  0  0  0  0  0  0  0  0  0
    0.5970   16.9970   -0.9760 C   0  0  0  0  0  0  0  0  0  0  0  0
    1.8980   16.2390   -1.2670 C   0  0  1  0  0  0  0  0  0  0  0  0
    3.1040   17.2030   -1.1150 C   0  0  0  0  0  0  0  0  0  0  0  0
    2.9590   18.4600   -1.9670 C   0  0  0  0  0  0  0  0  0  0  0  0
    1.6830   19.2170   -1.6080 C   0  0  2  0  0  0  0  0  0  0  0  0
    1.8080   19.7270   -0.2770 O   0  0  0  0  0  0  0  0  0  0  0  0
    0.4010   18.3440   -1.7150 C   0  0  0  0  0  0  0  0  0  0  0  0
    0.0990   18.0420   -3.2030 C   0  0  0  0  0  0  0  0  0  0  0  0
   -0.7940   19.1850   -1.1910 C   0  0  0  0  0  0  0  0  0  0  0  0
    2.1000   14.8780   -0.4700 C   0  0  1  0  0  0  0  0  0  0  0  0
    2.7600   15.1640    0.9130 C   0  0  0  0  0  0  0  0  0  0  0  0
    3.1080   13.9640   -1.2620 C   0  0  0  0  0  0  0  0  0  0  0  0
    2.5090   13.0390   -2.3390 C   0  0  0  0  0  0  0  0  0  0  0  0
    1.3160   12.2530   -1.7840 C   0  0  2  0  0  0  0  0  0  0  0  0
    1.8430   11.3390   -0.6260 C   0  0  0  0  0  0  0  0  0  0  0  0
    0.4744    8.9618   -1.4468 H   0  0  0  0  0  0  0  0  0  0  0  0
   -0.6349    8.9098   -2.8587 H   0  0  0  0  0  0  0  0  0  0  0  0
    0.8657    7.9224   -2.8587 H   0  0  0  0  0  0  0  0  0  0  0  0
    1.1240    9.9070   -4.2757 H   0  0  0  0  0  0  0  0  0  0  0  0
    2.7959   10.6318   -1.8824 H   0  0  0  0  0  0  0  0  0  0  0  0
    2.9690    8.9855   -2.6594 H   0  0  0  0  0  0  0  0  0  0  0  0
    3.6423    9.9116   -4.7206 H   0  0  0  0  0  0  0  0  0  0  0  0
    3.1714   11.5833   -4.1999 H   0  0  0  0  0  0  0  0  0  0  0  0
    4.7387   10.3419   -2.4186 H   0  0  0  0  0  0  0  0  0  0  0  0
    5.7501    9.5787   -5.8854 H   0  0  0  0  0  0  0  0  0  0  0  0
    5.4267   11.3232   -6.1662 H   0  0  0  0  0  0  0  0  0  0  0  0
    7.1156   10.7114   -6.1662 H   0  0  0  0  0  0  0  0  0  0  0  0
    7.4343   10.6290   -2.5076 H   0  0  0  0  0  0  0  0  0  0  0  0
    7.9241    9.6256   -3.9147 H   0  0  0  0  0  0  0  0  0  0  0  0
    8.2492   11.3922   -3.9147 H   0  0  0  0  0  0  0  0  0  0  0  0
    0.5042   11.8514   -3.7739 H   0  0  0  0  0  0  0  0  0  0  0  0
   -1.6454   11.2757   -2.8345 H   0  0  0  0  0  0  0  0  0  0  0  0
   -0.9164   10.1824   -1.6385 H   0  0  0  0  0  0  0  0  0  0  0  0
   -1.9251   12.8011   -1.0978 H   0  0  0  0  0  0  0  0  0  0  0  0
   -0.8798   11.9000   -0.0028 H   0  0  0  0  0  0  0  0  0  0  0  0
   -0.8868   15.0234   -2.1051 H   0  0  0  0  0  0  0  0  0  0  0  0
    0.4880   14.5120   -3.1420 H   0  0  0  0  0  0  0  0  0  0  0  0
   -1.0380   13.5644   -3.1420 H   0  0  0  0  0  0  0  0  0  0  0  0
    0.9313   13.3919    0.6009 H   0  0  0  0  0  0  0  0  0  0  0  0
   -1.2982   14.6554    0.3310 H   0  0  0  0  0  0  0  0  0  0  0  0
    0.0027   15.2549    1.4868 H   0  0  0  0  0  0  0  0  0  0  0  0
   -1.2213   17.0955    0.0534 H   0  0  0  0  0  0  0  0  0  0  0  0
    1.8239   15.8958   -2.3095 H   0  0  0  0  0  0  0  0  0  0  0  0
    3.1869   17.5003   -0.0592 H   0  0  0  0  0  0  0  0  0  0  0  0
    4.0031   16.6696   -1.4572 H   0  0  0  0  0  0  0  0  0  0  0  0
    3.8264   19.1141   -1.7945 H   0  0  0  0  0  0  0  0  0  0  0  0
    2.9059   18.1634   -3.0249 H   0  0  0  0  0  0  0  0  0  0  0  0
    1.5681   20.0329   -2.3368 H   0  0  0  0  0  0  0  0  0  0  0  0
    1.4980   19.0360    0.3330 H   0  0  0  0  0  0  0  0  0  0  0  0
   -0.6774   17.2656   -3.2693 H   0  0  0  0  0  0  0  0  0  0  0  0
   -0.2552   18.9580   -3.6985 H   0  0  0  0  0  0  0  0  0  0  0  0
    1.0150   17.6878   -3.6985 H   0  0  0  0  0  0  0  0  0  0  0  0
   -0.7900   19.1822   -0.0910 H   0  0  0  0  0  0  0  0  0  0  0  0
   -0.7025   20.2189   -1.5553 H   0  0  0  0  0  0  0  0  0  0  0  0
   -1.7363   18.7499   -1.5553 H   0  0  0  0  0  0  0  0  0  0  0  0
    2.0710   14.8654    1.7168 H   0  0  0  0  0  0  0  0  0  0  0  0
    3.6945   14.5901    0.9990 H   0  0  0  0  0  0  0  0  0  0  0  0
    2.9802   16.2383    0.9990 H   0  0  0  0  0  0  0  0  0  0  0  0
    3.8362   14.6232   -1.7572 H   0  0  0  0  0  0  0  0  0  0  0  0
    3.5364   13.2875   -0.5078 H   0  0  0  0  0  0  0  0  0  0  0  0
    2.1735   13.6485   -3.1910 H   0  0  0  0  0  0  0  0  0  0  0  0
    3.2823   12.3247   -2.6580 H   0  0  0  0  0  0  0  0  0  0  0  0
    1.5834   11.7892    0.3435 H   0  0  0  0  0  0  0  0  0  0  0  0
    1.3797   10.3444   -0.7042 H   0  0  0  0  0  0  0  0  0  0  0  0
    2.9359   11.2416   -0.7042 H   0  0  0  0  0  0  0  0  0  0  0  0
  1  2  1  0
  2  3  1  0
  3  4  1  0
  4  5  1  0
  5  6  1  0
  6  7  1  0
  7  8  1  0
  7  9  1  0
  2 10  1  0
 10 11  1  0
 11 12  1  0
 12 13  1  0
 13 14  1  6
 13 15  1  0
 15 16  1  0
 16 17  1  0
 17 18  2  0
 18 19  1  0
 19 20  1  0
 20 21  1  0
 21 22  1  0
 22 23  1  0
 22 24  1  0
 24 25  1  0
 24 26  1  0
 19 27  1  0
 27 28  1  1
 27 29  1  0
 29 30  1  0
 30 31  1  0
 31 32  1  1
  7  5  1  0
 31 10  1  0
 31 13  1  0
 27 15  1  0
 24 18  1  0
  1 33  1  0
  1 34  1  0
  1 35  1  0
  2 36  1  6
  3 37  1  0
  3 38  1  0
  4 39  1  0
  4 40  1  0
  5 41  1  1
  8 42  1  0
  8 43  1  0
  8 44  1  0
  9 45  1  0
  9 46  1  0
  9 47  1  0
 10 48  1  6
 11 49  1  0
 11 50  1  0
 12 51  1  0
 12 52  1  0
 14 53  1  0
 14 54  1  0
 14 55  1  0
 15 56  1  1
 16 57  1  0
 16 58  1  0
 17 59  1  0
 19 60  1  6
 20 61  1  0
 20 62  1  0
 21 63  1  0
 21 64  1  0
 22 65  1  6
 23 66  1  0
 25 67  1  0
 25 68  1  0
 25 69  1  0
 26 70  1  0
 26 71  1  0
 26 72  1  0
 28 73  1  0
 28 74  1  0
 28 75  1  0
 29 76  1  0
 29 77  1  0
 30 78  1  0
 30 79  1  0
 32 80  1  0
 32 81  1  0
 32 82  1  0
M  END
>  <meeko>  (5) 
{"is_sidechain": [false], "intermolecular_energy": 2.731, "internal_energy": -0.839}

$$$$
EPH_relaxed_0001_pdb2pqr_Repair_82_r2_0001_out
     RDKit          3D

 82 86  0  0  0  0  0  0  0  0999 V2000
   -0.8740   16.3570   -5.8480 C   0  0  0  0  0  0  0  0  0  0  0  0
    0.2160   15.6590   -6.6650 C   0  0  2  0  0  0  0  0  0  0  0  0
   -0.1910   15.4770   -8.1410 C   0  0  0  0  0  0  0  0  0  0  0  0
    0.4520   16.4960   -9.0860 C   0  0  0  0  0  0  0  0  0  0  0  0
    1.8560   16.1110   -9.4440 C   0  0  2  0  0  0  0  0  0  0  0  0
    2.3350   16.6730  -10.6730 O   0  0  0  0  0  0  0  0  0  0  0  0
    2.2070   15.2420  -10.6360 C   0  0  0  0  0  0  0  0  0  0  0  0
    1.1490   14.7030  -11.5470 C   0  0  0  0  0  0  0  0  0  0  0  0
    3.5180   14.5190  -10.6340 C   0  0  0  0  0  0  0  0  0  0  0  0
    0.5430   14.3050   -6.0440 C   0  0  1  0  0  0  0  0  0  0  0  0
    1.8050   13.6510   -6.6680 C   0  0  0  0  0  0  0  0  0  0  0  0
    2.5230   12.8860   -5.5270 C   0  0  0  0  0  0  0  0  0  0  0  0
    1.4920   12.8460   -4.3750 C   0  0  1  0  0  0  0  0  0  0  0  0
    0.5350   11.6660   -4.7340 C   0  0  0  0  0  0  0  0  0  0  0  0
    2.0740   12.6990   -2.9310 C   0  0  2  0  0  0  0  0  0  0  0  0
    2.8490   11.3950   -2.6700 C   0  0  0  0  0  0  0  0  0  0  0  0
    2.0300   10.2590   -2.1530 C   0  0  0  0  0  0  0  0  0  0  0  0
    0.7890   10.3600   -1.6390 C   0  0  0  0  0  0  0  0  0  0  0  0
    0.1240   11.7290   -1.4490 C   0  0  1  0  0  0  0  0  0  0  0  0
   -0.5120   11.8040   -0.0370 C   0  0  0  0  0  0  0  0  0  0  0  0
   -1.4690   10.6470    0.2370 C   0  0  0  0  0  0  0  0  0  0  0  0
   -0.7560    9.3050    0.0950 C   0  0  2  0  0  0  0  0  0  0  0  0
    0.2180    9.1880    1.1370 O   0  0  0  0  0  0  0  0  0  0  0  0
   -0.0680    9.1190   -1.2860 C   0  0  0  0  0  0  0  0  0  0  0  0
   -1.1450    8.9440   -2.3850 C   0  0  0  0  0  0  0  0  0  0  0  0
    0.7320    7.7890   -1.2460 C   0  0  0  0  0  0  0  0  0  0  0  0
    1.0300   12.9920   -1.7790 C   0  0  1  0  0  0  0  0  0  0  0  0
    1.8580   13.3950   -0.5200 C   0  0  0  0  0  0  0  0  0  0  0  0
    0.1010   14.2190   -2.1100 C   0  0  0  0  0  0  0  0  0  0  0  0
   -0.3430   14.3780   -3.5770 C   0  0  0  0  0  0  0  0  0  0  0  0
    0.8550   14.2750   -4.5270 C   0  0  2  0  0  0  0  0  0  0  0  0
    1.8240   15.4630   -4.2040 C   0  0  0  0  0  0  0  0  0  0  0  0
   -0.6689   16.2257   -4.7753 H   0  0  0  0  0  0  0  0  0  0  0  0
   -0.8839   17.4298   -6.0908 H   0  0  0  0  0  0  0  0  0  0  0  0
   -1.8526   15.9171   -6.0908 H   0  0  0  0  0  0  0  0  0  0  0  0
    1.1078   16.3027   -6.6459 H   0  0  0  0  0  0  0  0  0  0  0  0
    0.1082   14.4683   -8.4621 H   0  0  0  0  0  0  0  0  0  0  0  0
   -1.2791   15.6289   -8.1959 H   0  0  0  0  0  0  0  0  0  0  0  0
   -0.1470   16.5559  -10.0066 H   0  0  0  0  0  0  0  0  0  0  0  0
    0.4833   17.4681   -8.5722 H   0  0  0  0  0  0  0  0  0  0  0  0
    2.1365   16.0538   -8.3819 H   0  0  0  0  0  0  0  0  0  0  0  0
    0.3273   14.2844  -10.9474 H   0  0  0  0  0  0  0  0  0  0  0  0
    0.7633   15.5145  -12.1816 H   0  0  0  0  0  0  0  0  0  0  0  0
    1.5787   13.9140  -12.1816 H   0  0  0  0  0  0  0  0  0  0  0  0
    3.8379   14.3426   -9.5964 H   0  0  0  0  0  0  0  0  0  0  0  0
    3.4060   13.5551  -11.1521 H   0  0  0  0  0  0  0  0  0  0  0  0
    4.2734   15.1281  -11.1521 H   0  0  0  0  0  0  0  0  0  0  0  0
   -0.4011   13.7773   -6.2448 H   0  0  0  0  0  0  0  0  0  0  0  0
    1.5142   12.9534   -7.4673 H   0  0  0  0  0  0  0  0  0  0  0  0
    2.4657   14.4110   -7.1107 H   0  0  0  0  0  0  0  0  0  0  0  0
    2.7862   11.8674   -5.8481 H   0  0  0  0  0  0  0  0  0  0  0  0
    3.4642   13.3704   -5.2278 H   0  0  0  0  0  0  0  0  0  0  0  0
    0.1600   11.2036   -3.8090 H   0  0  0  0  0  0  0  0  0  0  0  0
   -0.3122   12.0472   -5.3230 H   0  0  0  0  0  0  0  0  0  0  0  0
    1.0829   10.9157   -5.3230 H   0  0  0  0  0  0  0  0  0  0  0  0
    2.8230   13.5038   -2.8946 H   0  0  0  0  0  0  0  0  0  0  0  0
    3.3100   11.0782   -3.6172 H   0  0  0  0  0  0  0  0  0  0  0  0
    3.5791   11.6277   -1.8808 H   0  0  0  0  0  0  0  0  0  0  0  0
    2.4776    9.2551   -2.1953 H   0  0  0  0  0  0  0  0  0  0  0  0
   -0.6619   11.7943   -2.2159 H   0  0  0  0  0  0  0  0  0  0  0  0
    0.2920   11.7816    0.7134 H   0  0  0  0  0  0  0  0  0  0  0  0
   -1.0921   12.7369    0.0183 H   0  0  0  0  0  0  0  0  0  0  0  0
   -1.8622   10.7394    1.2602 H   0  0  0  0  0  0  0  0  0  0  0  0
   -2.2891   10.6884   -0.4950 H   0  0  0  0  0  0  0  0  0  0  0  0
   -1.5191    8.5167    0.1735 H   0  0  0  0  0  0  0  0  0  0  0  0
   -0.1040    8.5200    1.7670 H   0  0  0  0  0  0  0  0  0  0  0  0
   -2.1264    8.7845   -1.9145 H   0  0  0  0  0  0  0  0  0  0  0  0
   -1.1808    9.8481   -3.0106 H   0  0  0  0  0  0  0  0  0  0  0  0
   -0.8927    8.0751   -3.0106 H   0  0  0  0  0  0  0  0  0  0  0  0
    0.9072    7.4978   -0.1998 H   0  0  0  0  0  0  0  0  0  0  0  0
    0.1582    7.0005   -1.7549 H   0  0  0  0  0  0  0  0  0  0  0  0
    1.6975    7.9264   -1.7549 H   0  0  0  0  0  0  0  0  0  0  0  0
    1.3000   13.1234    0.3882 H   0  0  0  0  0  0  0  0  0  0  0  0
    2.8220   12.8653   -0.5302 H   0  0  0  0  0  0  0  0  0  0  0  0
    2.0359   14.4805   -0.5302 H   0  0  0  0  0  0  0  0  0  0  0  0
   -0.8067   14.1244   -1.4959 H   0  0  0  0  0  0  0  0  0  0  0  0
    0.7116   15.1086   -1.8959 H   0  0  0  0  0  0  0  0  0  0  0  0
   -1.0657   13.5858   -3.8221 H   0  0  0  0  0  0  0  0  0  0  0  0
   -0.8028   15.3698   -3.6987 H   0  0  0  0  0  0  0  0  0  0  0  0
    1.9156   15.5753   -3.1136 H   0  0  0  0  0  0  0  0  0  0  0  0
    2.8143   15.2562   -4.6358 H   0  0  0  0  0  0  0  0  0  0  0  0
    1.4224   16.3916   -4.6358 H   0  0  0  0  0  0  0  0  0  0  0  0
  1  2  1  0
  2  3  1  0
  3  4  1  0
  4  5  1  0
  5  6  1  0
  6  7  1  0
  7  8  1  0
  7  9  1  0
  2 10  1  0
 10 11  1  0
 11 12  1  0
 12 13  1  0
 13 14  1  6
 13 15  1  0
 15 16  1  0
 16 17  1  0
 17 18  2  0
 18 19  1  0
 19 20  1  0
 20 21  1  0
 21 22  1  0
 22 23  1  0
 22 24  1  0
 24 25  1  0
 24 26  1  0
 19 27  1  0
 27 28  1  1
 27 29  1  0
 29 30  1  0
 30 31  1  0
 31 32  1  1
  7  5  1  0
 31 10  1  0
 31 13  1  0
 27 15  1  0
 24 18  1  0
  1 33  1  0
  1 34  1  0
  1 35  1  0
  2 36  1  6
  3 37  1  0
  3 38  1  0
  4 39  1  0
  4 40  1  0
  5 41  1  1
  8 42  1  0
  8 43  1  0
  8 44  1  0
  9 45  1  0
  9 46  1  0
  9 47  1  0
 10 48  1  1
 11 49  1  0
 11 50  1  0
 12 51  1  0
 12 52  1  0
 14 53  1  0
 14 54  1  0
 14 55  1  0
 15 56  1  6
 16 57  1  0
 16 58  1  0
 17 59  1  0
 19 60  1  6
 20 61  1  0
 20 62  1  0
 21 63  1  0
 21 64  1  0
 22 65  1  1
 23 66  1  0
 25 67  1  0
 25 68  1  0
 25 69  1  0
 26 70  1  0
 26 71  1  0
 26 72  1  0
 28 73  1  0
 28 74  1  0
 28 75  1  0
 29 76  1  0
 29 77  1  0
 30 78  1  0
 30 79  1  0
 32 80  1  0
 32 81  1  0
 32 82  1  0
M  END
>  <meeko>  (6) 
{"is_sidechain": [false], "intermolecular_energy": 2.731, "internal_energy": -0.839}

$$$$
EPH_relaxed_0001_pdb2pqr_Repair_82_r2_0001_out
     RDKit          3D

 82 86  0  0  0  0  0  0  0  0999 V2000
   -4.0050    7.3590   -3.5460 C   0  0  0  0  0  0  0  0  0  0  0  0
   -3.6730    7.2730   -2.0540 C   0  0  2  0  0  0  0  0  0  0  0  0
   -4.8880    6.8320   -1.2140 C   0  0  0  0  0  0  0  0  0  0  0  0
   -6.0590    6.3090   -2.0510 C   0  0  0  0  0  0  0  0  0  0  0  0
   -7.3780    6.7710   -1.5100 C   0  0  2  0  0  0  0  0  0  0  0  0
   -8.3050    5.7190   -1.2130 O   0  0  0  0  0  0  0  0  0  0  0  0
   -8.6880    6.6240   -2.2610 C   0  0  0  0  0  0  0  0  0  0  0  0
   -8.7430    5.9950   -3.6180 C   0  0  0  0  0  0  0  0  0  0  0  0
   -9.8270    7.5230   -1.8950 C   0  0  0  0  0  0  0  0  0  0  0  0
   -3.1580    8.6190   -1.5570 C   0  0  1  0  0  0  0  0  0  0  0  0
   -3.8130    9.0530   -0.2190 C   0  0  0  0  0  0  0  0  0  0  0  0
   -2.7260    9.8090    0.5870 C   0  0  0  0  0  0  0  0  0  0  0  0
   -1.5960   10.0740   -0.4360 C   0  0  1  0  0  0  0  0  0  0  0  0
   -2.0620   11.3340   -1.2300 C   0  0  0  0  0  0  0  0  0  0  0  0
   -0.1600   10.2620    0.1540 C   0  0  2  0  0  0  0  0  0  0  0  0
    0.0080   11.4720    1.0900 C   0  0  0  0  0  0  0  0  0  0  0  0
    0.4210   12.7410    0.4220 C   0  0  0  0  0  0  0  0  0  0  0  0
    0.9220   12.8430   -0.8230 C   0  0  0  0  0  0  0  0  0  0  0  0
    1.2100   11.5910   -1.6610 C   0  0  1  0  0  0  0  0  0  0  0  0
    2.6150   11.7130   -2.3070 C   0  0  0  0  0  0  0  0  0  0  0  0
    2.7810   13.0010   -3.1080 C   0  0  0  0  0  0  0  0  0  0  0  0
    2.5440   14.2250   -2.2270 C   0  0  2  0  0  0  0  0  0  0  0  0
    3.5880   14.3000   -1.2510 O   0  0  0  0  0  0  0  0  0  0  0  0
    1.1620   14.2080   -1.5140 C   0  0  0  0  0  0  0  0  0  0  0  0
    0.0370   14.4310   -2.5550 C   0  0  0  0  0  0  0  0  0  0  0  0
    1.1080   15.4230   -0.5500 C   0  0  0  0  0  0  0  0  0  0  0  0
    0.9960   10.1990   -0.9240 C   0  0  1  0  0  0  0  0  0  0  0  0
    2.2950    9.7960   -0.1600 C   0  0  0  0  0  0  0  0  0  0  0  0
    0.7500    9.0790   -2.0020 C   0  0  0  0  0  0  0  0  0  0  0  0
   -0.7060    8.8600   -2.4560 C   0  0  0  0  0  0  0  0  0  0  0  0
   -1.6430    8.7310   -1.2520 C   0  0  2  0  0  0  0  0  0  0  0  0
   -1.2130    7.4590   -0.4450 C   0  0  0  0  0  0  0  0  0  0  0  0
   -5.0630    7.6331   -3.6710 H   0  0  0  0  0  0  0  0  0  0  0  0
   -3.3701    8.1223   -4.0195 H   0  0  0  0  0  0  0  0  0  0  0  0
   -3.8205    6.3834   -4.0195 H   0  0  0  0  0  0  0  0  0  0  0  0
   -2.8917    6.5083   -1.9326 H   0  0  0  0  0  0  0  0  0  0  0  0
   -4.5657    6.0327   -0.5304 H   0  0  0  0  0  0  0  0  0  0  0  0
   -5.2486    7.7227   -0.6787 H   0  0  0  0  0  0  0  0  0  0  0  0
   -5.9499    6.6733   -3.0832 H   0  0  0  0  0  0  0  0  0  0  0  0
   -6.0407    5.2097   -2.0165 H   0  0  0  0  0  0  0  0  0  0  0  0
   -6.9015    7.6325   -1.0193 H   0  0  0  0  0  0  0  0  0  0  0  0
   -8.8384    4.9042   -3.5129 H   0  0  0  0  0  0  0  0  0  0  0  0
   -9.6103    6.3875   -4.1692 H   0  0  0  0  0  0  0  0  0  0  0  0
   -7.8208    6.2310   -4.1692 H   0  0  0  0  0  0  0  0  0  0  0  0
   -9.9070    7.5861   -0.7997 H   0  0  0  0  0  0  0  0  0  0  0  0
   -9.6492    8.5268   -2.3081 H   0  0  0  0  0  0  0  0  0  0  0  0
  -10.7621    7.1168   -2.3081 H   0  0  0  0  0  0  0  0  0  0  0  0
   -3.4153    9.2463   -2.4232 H   0  0  0  0  0  0  0  0  0  0  0  0
   -4.6693    9.7154   -0.4139 H   0  0  0  0  0  0  0  0  0  0  0  0
   -4.1841    8.1813    0.3399 H   0  0  0  0  0  0  0  0  0  0  0  0
   -3.1231   10.7561    0.9812 H   0  0  0  0  0  0  0  0  0  0  0  0
   -2.3754    9.2336    1.4565 H   0  0  0  0  0  0  0  0  0  0  0  0
   -2.3545   12.1250   -0.5237 H   0  0  0  0  0  0  0  0  0  0  0  0
   -1.2376   11.6941   -1.8630 H   0  0  0  0  0  0  0  0  0  0  0  0
   -2.9224   11.0711   -1.8630 H   0  0  0  0  0  0  0  0  0  0  0  0
   -0.0489    9.3737    0.7931 H   0  0  0  0  0  0  0  0  0  0  0  0
   -0.9544   11.6497    1.5922 H   0  0  0  0  0  0  0  0  0  0  0  0
    0.8235   11.2119    1.7809 H   0  0  0  0  0  0  0  0  0  0  0  0
    0.3062   13.6723    0.9960 H   0  0  0  0  0  0  0  0  0  0  0  0
    0.4391   11.5657   -2.4453 H   0  0  0  0  0  0  0  0  0  0  0  0
    3.3726   11.6935   -1.5097 H   0  0  0  0  0  0  0  0  0  0  0  0
    2.7371   10.8694   -3.0023 H   0  0  0  0  0  0  0  0  0  0  0  0
    3.8020   13.0427   -3.5153 H   0  0  0  0  0  0  0  0  0  0  0  0
    2.0418   13.0059   -3.9226 H   0  0  0  0  0  0  0  0  0  0  0  0
    2.5485   15.1088   -2.8819 H   0  0  0  0  0  0  0  0  0  0  0  0
    4.4360   14.2530   -1.7230 H   0  0  0  0  0  0  0  0  0  0  0  0
   -0.9130   14.6193   -2.0335 H   0  0  0  0  0  0  0  0  0  0  0  0
    0.2872   15.2970   -3.1854 H   0  0  0  0  0  0  0  0  0  0  0  0
   -0.0621   13.5350   -3.1854 H   0  0  0  0  0  0  0  0  0  0  0  0
    1.1238   15.0665    0.4905 H   0  0  0  0  0  0  0  0  0  0  0  0
    1.9782   16.0717   -0.7286 H   0  0  0  0  0  0  0  0  0  0  0  0
    0.1837   15.9920   -0.7286 H   0  0  0  0  0  0  0  0  0  0  0  0
    2.1152    9.8518    0.9238 H   0  0  0  0  0  0  0  0  0  0  0  0
    2.5768    8.7682   -0.4325 H   0  0  0  0  0  0  0  0  0  0  0  0
    3.1090   10.4838   -0.4325 H   0  0  0  0  0  0  0  0  0  0  0  0
    1.3409    9.3388   -2.8927 H   0  0  0  0  0  0  0  0  0  0  0  0
    1.0435    8.1387   -1.5125 H   0  0  0  0  0  0  0  0  0  0  0  0
   -1.0241    9.7160   -3.0692 H   0  0  0  0  0  0  0  0  0  0  0  0
   -0.7548    7.9286   -3.0392 H   0  0  0  0  0  0  0  0  0  0  0  0
   -1.2834    7.6674    0.6328 H   0  0  0  0  0  0  0  0  0  0  0  0
   -1.8777    6.6206   -0.7006 H   0  0  0  0  0  0  0  0  0  0  0  0
   -0.1760    7.1959   -0.7006 H   0  0  0  0  0  0  0  0  0  0  0  0
  1  2  1  0
  2  3  1  0
  3  4  1  0
  4  5  1  0
  5  6  1  0
  6  7  1  0
  7  8  1  0
  7  9  1  0
  2 10  1  0
 10 11  1  0
 11 12  1  0
 12 13  1  0
 13 14  1  6
 13 15  1  0
 15 16  1  0
 16 17  1  0
 17 18  2  0
 18 19  1  0
 19 20  1  0
 20 21  1  0
 21 22  1  0
 22 23  1  0
 22 24  1  0
 24 25  1  0
 24 26  1  0
 19 27  1  0
 27 28  1  1
 27 29  1  0
 29 30  1  0
 30 31  1  0
 31 32  1  1
  7  5  1  0
 31 10  1  0
 31 13  1  0
 27 15  1  0
 24 18  1  0
  1 33  1  0
  1 34  1  0
  1 35  1  0
  2 36  1  6
  3 37  1  0
  3 38  1  0
  4 39  1  0
  4 40  1  0
  5 41  1  1
  8 42  1  0
  8 43  1  0
  8 44  1  0
  9 45  1  0
  9 46  1  0
  9 47  1  0
 10 48  1  6
 11 49  1  0
 11 50  1  0
 12 51  1  0
 12 52  1  0
 14 53  1  0
 14 54  1  0
 14 55  1  0
 15 56  1  1
 16 57  1  0
 16 58  1  0
 17 59  1  0
 19 60  1  6
 20 61  1  0
 20 62  1  0
 21 63  1  0
 21 64  1  0
 22 65  1  6
 23 66  1  0
 25 67  1  0
 25 68  1  0
 25 69  1  0
 26 70  1  0
 26 71  1  0
 26 72  1  0
 28 73  1  0
 28 74  1  0
 28 75  1  0
 29 76  1  0
 29 77  1  0
 30 78  1  0
 30 79  1  0
 32 80  1  0
 32 81  1  0
 32 82  1  0
M  END
>  <meeko>  (7) 
{"is_sidechain": [false], "intermolecular_energy": 2.731, "internal_energy": -0.839}

$$$$
EPH_relaxed_0001_pdb2pqr_Repair_82_r2_0001_out
     RDKit          3D

 82 86  0  0  0  0  0  0  0  0999 V2000
   -0.2900   15.1010   -7.6430 C   0  0  0  0  0  0  0  0  0  0  0  0
    1.0840   15.0770   -6.9680 C   0  0  2  0  0  0  0  0  0  0  0  0
    2.2350   15.1660   -7.9910 C   0  0  0  0  0  0  0  0  0  0  0  0
    2.2640   16.4820   -8.7720 C   0  0  0  0  0  0  0  0  0  0  0  0
    1.8610   16.2860  -10.2030 C   0  0  2  0  0  0  0  0  0  0  0  0
    1.1980   15.0440  -10.4730 O   0  0  0  0  0  0  0  0  0  0  0  0
    2.4730   15.2330  -11.1080 C   0  0  0  0  0  0  0  0  0  0  0  0
    3.5410   14.3070  -10.6160 C   0  0  0  0  0  0  0  0  0  0  0  0
    2.3870   15.4250  -12.5900 C   0  0  0  0  0  0  0  0  0  0  0  0
    1.2290   13.8130   -6.1300 C   0  0  1  0  0  0  0  0  0  0  0  0
    2.6600   13.2160   -6.1900 C   0  0  0  0  0  0  0  0  0  0  0  0
    2.9530   12.6120   -4.7930 C   0  0  0  0  0  0  0  0  0  0  0  0
    1.5780   12.5830   -4.0850 C   0  0  1  0  0  0  0  0  0  0  0  0
    0.8740   11.3010   -4.6300 C   0  0  0  0  0  0  0  0  0  0  0  0
    1.6050   12.6060   -2.5220 C   0  0  2  0  0  0  0  0  0  0  0  0
    2.2940   11.3980   -1.8630 C   0  0  0  0  0  0  0  0  0  0  0  0
    1.3980   10.2450   -1.5510 C   0  0  0  0  0  0  0  0  0  0  0  0
    0.0530   10.2850   -1.5250 C   0  0  0  0  0  0  0  0  0  0  0  0
   -0.7000   11.6040   -1.7330 C   0  0  1  0  0  0  0  0  0  0  0  0
   -1.8070   11.7440   -0.6550 C   0  0  0  0  0  0  0  0  0  0  0  0
   -2.7410   10.5390   -0.6160 C   0  0  0  0  0  0  0  0  0  0  0  0
   -1.9620    9.2540   -0.3490 C   0  0  2  0  0  0  0  0  0  0  0  0
   -1.4270    9.3060    0.9770 O   0  0  0  0  0  0  0  0  0  0  0  0
   -0.8130    9.0110   -1.3670 C   0  0  0  0  0  0  0  0  0  0  0  0
   -1.4110    8.6550   -2.7510 C   0  0  0  0  0  0  0  0  0  0  0  0
   -0.0200    7.7600   -0.9030 C   0  0  0  0  0  0  0  0  0  0  0  0
    0.2030   12.9070   -1.8540 C   0  0  1  0  0  0  0  0  0  0  0  0
    0.4990   13.4810   -0.4350 C   0  0  0  0  0  0  0  0  0  0  0  0
   -0.6010   14.0200   -2.6250 C   0  0  0  0  0  0  0  0  0  0  0  0
   -0.4920   14.0170   -4.1610 C   0  0  0  0  0  0  0  0  0  0  0  0
    0.9720   13.9360   -4.6070 C   0  0  2  0  0  0  0  0  0  0  0  0
    1.7010   15.2230   -4.0920 C   0  0  0  0  0  0  0  0  0  0  0  0
   -1.0762   15.1147   -6.8738 H   0  0  0  0  0  0  0  0  0  0  0  0
   -0.3748   16.0008   -8.2701 H   0  0  0  0  0  0  0  0  0  0  0  0
   -0.4062   14.2047   -8.2701 H   0  0  0  0  0  0  0  0  0  0  0  0
    1.1496   15.9628   -6.3191 H   0  0  0  0  0  0  0  0  0  0  0  0
    3.1879   15.0613   -7.4515 H   0  0  0  0  0  0  0  0  0  0  0  0
    2.0767   14.3609   -8.7237 H   0  0  0  0  0  0  0  0  0  0  0  0
    1.5692   17.1922   -8.2999 H   0  0  0  0  0  0  0  0  0  0  0  0
    3.2938   16.8683   -8.7553 H   0  0  0  0  0  0  0  0  0  0  0  0
    1.7025   17.3670  -10.3312 H   0  0  0  0  0  0  0  0  0  0  0  0
    3.5451   14.3035   -9.5160 H   0  0  0  0  0  0  0  0  0  0  0  0
    3.3431   13.2899  -10.9852 H   0  0  0  0  0  0  0  0  0  0  0  0
    4.5198   14.6471  -10.9852 H   0  0  0  0  0  0  0  0  0  0  0  0
    1.9462   16.4091  -12.8073 H   0  0  0  0  0  0  0  0  0  0  0  0
    3.3955   15.3706  -13.0259 H   0  0  0  0  0  0  0  0  0  0  0  0
    1.7561   14.6363  -13.0259 H   0  0  0  0  0  0  0  0  0  0  0  0
    0.4481   13.1937   -6.5956 H   0  0  0  0  0  0  0  0  0  0  0  0
    2.7111   12.4318   -6.9597 H   0  0  0  0  0  0  0  0  0  0  0  0
    3.3991   13.9886   -6.4486 H   0  0  0  0  0  0  0  0  0  0  0  0
    3.3628   11.5956   -4.8874 H   0  0  0  0  0  0  0  0  0  0  0  0
    3.6983   13.1964   -4.2335 H   0  0  0  0  0  0  0  0  0  0  0  0
    0.5343   10.6824   -3.7862 H   0  0  0  0  0  0  0  0  0  0  0  0
    0.0085   11.5909   -5.2439 H   0  0  0  0  0  0  0  0  0  0  0  0
    1.5830   10.7262   -5.2439 H   0  0  0  0  0  0  0  0  0  0  0  0
    2.2515   13.4704   -2.3103 H   0  0  0  0  0  0  0  0  0  0  0  0
    3.0811   11.0423   -2.5441 H   0  0  0  0  0  0  0  0  0  0  0  0
    2.6771   11.7562   -0.8961 H   0  0  0  0  0  0  0  0  0  0  0  0
    1.8777    9.2817   -1.3232 H   0  0  0  0  0  0  0  0  0  0  0  0
   -1.1574   11.5387   -2.7313 H   0  0  0  0  0  0  0  0  0  0  0  0
   -1.3287   11.8514    0.3297 H   0  0  0  0  0  0  0  0  0  0  0  0
   -2.4115   12.6269   -0.9099 H   0  0  0  0  0  0  0  0  0  0  0  0
   -3.4821   10.6836    0.1839 H   0  0  0  0  0  0  0  0  0  0  0  0
   -3.2410   10.4504   -1.5918 H   0  0  0  0  0  0  0  0  0  0  0  0
   -2.6633    8.4141   -0.4616 H   0  0  0  0  0  0  0  0  0  0  0  0
   -2.1200    8.9980    1.5860 H   0  0  0  0  0  0  0  0  0  0  0  0
   -2.3487    8.0968   -2.6127 H   0  0  0  0  0  0  0  0  0  0  0  0
   -1.6139    9.5795   -3.3115 H   0  0  0  0  0  0  0  0  0  0  0  0
   -0.6950    8.0360   -3.3115 H   0  0  0  0  0  0  0  0  0  0  0  0
    0.0013    7.7263    0.1963 H   0  0  0  0  0  0  0  0  0  0  0  0
   -0.5083    6.8527   -1.2882 H   0  0  0  0  0  0  0  0  0  0  0  0
    1.0089    7.8144   -1.2882 H   0  0  0  0  0  0  0  0  0  0  0  0
    0.1360   12.7770    0.3283 H   0  0  0  0  0  0  0  0  0  0  0  0
    1.5832   13.6238   -0.3161 H   0  0  0  0  0  0  0  0  0  0  0  0
   -0.0133   14.4471   -0.3161 H   0  0  0  0  0  0  0  0  0  0  0  0
   -1.6637   13.9022   -2.3666 H   0  0  0  0  0  0  0  0  0  0  0  0
   -0.1519   14.9723   -2.3064 H   0  0  0  0  0  0  0  0  0  0  0  0
   -1.0379   13.1488   -4.5588 H   0  0  0  0  0  0  0  0  0  0  0  0
   -0.9243   14.9527   -4.5451 H   0  0  0  0  0  0  0  0  0  0  0  0
    1.7036   15.2276   -2.9920 H   0  0  0  0  0  0  0  0  0  0  0  0
    2.7372   15.2300   -4.4611 H   0  0  0  0  0  0  0  0  0  0  0  0
    1.1742   16.1153   -4.4611 H   0  0  0  0  0  0  0  0  0  0  0  0
  1  2  1  0
  2  3  1  0
  3  4  1  0
  4  5  1  0
  5  6  1  0
  6  7  1  0
  7  8  1  0
  7  9  1  0
  2 10  1  0
 10 11  1  0
 11 12  1  0
 12 13  1  0
 13 14  1  1
 13 15  1  0
 15 16  1  0
 16 17  1  0
 17 18  2  0
 18 19  1  0
 19 20  1  0
 20 21  1  0
 21 22  1  0
 22 23  1  0
 22 24  1  0
 24 25  1  0
 24 26  1  0
 19 27  1  0
 27 28  1  1
 27 29  1  0
 29 30  1  0
 30 31  1  0
 31 32  1  1
  7  5  1  0
 31 10  1  0
 31 13  1  0
 27 15  1  0
 24 18  1  0
  1 33  1  0
  1 34  1  0
  1 35  1  0
  2 36  1  1
  3 37  1  0
  3 38  1  0
  4 39  1  0
  4 40  1  0
  5 41  1  6
  8 42  1  0
  8 43  1  0
  8 44  1  0
  9 45  1  0
  9 46  1  0
  9 47  1  0
 10 48  1  6
 11 49  1  0
 11 50  1  0
 12 51  1  0
 12 52  1  0
 14 53  1  0
 14 54  1  0
 14 55  1  0
 15 56  1  6
 16 57  1  0
 16 58  1  0
 17 59  1  0
 19 60  1  6
 20 61  1  0
 20 62  1  0
 21 63  1  0
 21 64  1  0
 22 65  1  1
 23 66  1  0
 25 67  1  0
 25 68  1  0
 25 69  1  0
 26 70  1  0
 26 71  1  0
 26 72  1  0
 28 73  1  0
 28 74  1  0
 28 75  1  0
 29 76  1  0
 29 77  1  0
 30 78  1  0
 30 79  1  0
 32 80  1  0
 32 81  1  0
 32 82  1  0
M  END
>  <meeko>  (8) 
{"is_sidechain": [false], "intermolecular_energy": 2.731, "internal_energy": -0.839}

$$$$
EPH_relaxed_0001_pdb2pqr_Repair_82_r2_0001_out
     RDKit          3D

 82 86  0  0  0  0  0  0  0  0999 V2000
   -0.0840    9.2820   -2.1960 C   0  0  0  0  0  0  0  0  0  0  0  0
    0.9340   10.2970   -2.7260 C   0  0  2  0  0  0  0  0  0  0  0  0
    2.3360    9.6780   -2.8940 C   0  0  0  0  0  0  0  0  0  0  0  0
    3.2190   10.4210   -3.9000 C   0  0  0  0  0  0  0  0  0  0  0  0
    4.5980   10.6560   -3.3600 C   0  0  2  0  0  0  0  0  0  0  0  0
    5.1940   11.8960   -3.7600 O   0  0  0  0  0  0  0  0  0  0  0  0
    5.8400   10.7020   -4.2300 C   0  0  0  0  0  0  0  0  0  0  0  0
    5.7630   10.5110   -5.7120 C   0  0  0  0  0  0  0  0  0  0  0  0
    7.1700   10.4450   -3.5920 C   0  0  0  0  0  0  0  0  0  0  0  0
    1.0040   11.4990   -1.7910 C   0  0  1  0  0  0  0  0  0  0  0  0
    2.0970   11.3450   -0.7000 C   0  0  0  0  0  0  0  0  0  0  0  0
    2.6790   12.7590   -0.4470 C   0  0  0  0  0  0  0  0  0  0  0  0
    1.6880   13.7190   -1.1460 C   0  0  1  0  0  0  0  0  0  0  0  0
    0.5100   13.8850   -0.1350 C   0  0  0  0  0  0  0  0  0  0  0  0
    2.2640   15.1020   -1.5930 C   0  0  2  0  0  0  0  0  0  0  0  0
    2.7740   15.9970   -0.4490 C   0  0  0  0  0  0  0  0  0  0  0  0
    1.7600   16.9240    0.1350 C   0  0  0  0  0  0  0  0  0  0  0  0
    0.5770   17.2410   -0.4220 C   0  0  0  0  0  0  0  0  0  0  0  0
    0.1980   16.7210   -1.8150 C   0  0  1  0  0  0  0  0  0  0  0  0
   -0.3770   17.8860   -2.6630 C   0  0  0  0  0  0  0  0  0  0  0  0
   -1.5350   18.5980   -1.9710 C   0  0  0  0  0  0  0  0  0  0  0  0
   -1.1030   19.1510   -0.6150 C   0  0  2  0  0  0  0  0  0  0  0  0
   -0.1470   20.1940   -0.8270 O   0  0  0  0  0  0  0  0  0  0  0  0
   -0.4980   18.0700    0.3230 C   0  0  0  0  0  0  0  0  0  0  0  0
   -1.6150   17.1060    0.7940 C   0  0  0  0  0  0  0  0  0  0  0  0
    0.0250   18.7840    1.5990 C   0  0  0  0  0  0  0  0  0  0  0  0
    1.3260   15.9070   -2.5820 C   0  0  1  0  0  0  0  0  0  0  0  0
    2.2470   16.8870   -3.3700 C   0  0  0  0  0  0  0  0  0  0  0  0
    0.6480   14.9740   -3.6540 C   0  0  0  0  0  0  0  0  0  0  0  0
    0.2090   13.5760   -3.1810 C   0  0  0  0  0  0  0  0  0  0  0  0
    1.3400   12.8730   -2.4240 C   0  0  2  0  0  0  0  0  0  0  0  0
    2.5310   12.6720   -3.4220 C   0  0  0  0  0  0  0  0  0  0  0  0
   -0.0736    9.2924   -1.0961 H   0  0  0  0  0  0  0  0  0  0  0  0
   -1.0888    9.5485   -2.5557 H   0  0  0  0  0  0  0  0  0  0  0  0
    0.1795    8.2764   -2.5557 H   0  0  0  0  0  0  0  0  0  0  0  0
    0.5936   10.6194   -3.7211 H   0  0  0  0  0  0  0  0  0  0  0  0
    2.8396    9.6876   -1.9161 H   0  0  0  0  0  0  0  0  0  0  0  0
    2.1935    8.6586   -3.2820 H   0  0  0  0  0  0  0  0  0  0  0  0
    3.2935    9.8219   -4.8195 H   0  0  0  0  0  0  0  0  0  0  0  0
    2.7589   11.3993   -4.1031 H   0  0  0  0  0  0  0  0  0  0  0  0
    4.3598   10.0972   -2.4430 H   0  0  0  0  0  0  0  0  0  0  0  0
    5.3601    9.5115   -5.9324 H   0  0  0  0  0  0  0  0  0  0  0  0
    5.1032   11.2764   -6.1465 H   0  0  0  0  0  0  0  0  0  0  0  0
    6.7692   10.6047   -6.1465 H   0  0  0  0  0  0  0  0  0  0  0  0
    7.0618   10.4659   -2.4975 H   0  0  0  0  0  0  0  0  0  0  0  0
    7.5422    9.4583   -3.9049 H   0  0  0  0  0  0  0  0  0  0  0  0
    7.8830   11.2220   -3.9049 H   0  0  0  0  0  0  0  0  0  0  0  0
   -0.0295   11.5003   -1.4145 H   0  0  0  0  0  0  0  0  0  0  0  0
    1.6552   10.9462    0.2251 H   0  0  0  0  0  0  0  0  0  0  0  0
    2.8828   10.6468   -1.0241 H   0  0  0  0  0  0  0  0  0  0  0  0
    2.7299   12.9709    0.6312 H   0  0  0  0  0  0  0  0  0  0  0  0
    3.7038   12.8637   -0.8327 H   0  0  0  0  0  0  0  0  0  0  0  0
    0.8984   13.8303    0.8927 H   0  0  0  0  0  0  0  0  0  0  0  0
    0.0261   14.8602   -0.2927 H   0  0  0  0  0  0  0  0  0  0  0  0
   -0.2245   13.0815   -0.2927 H   0  0  0  0  0  0  0  0  0  0  0  0
    3.1566   14.8110   -2.1661 H   0  0  0  0  0  0  0  0  0  0  0  0
    3.1409   15.3435    0.3562 H   0  0  0  0  0  0  0  0  0  0  0  0
    3.5545   16.6363   -0.8872 H   0  0  0  0  0  0  0  0  0  0  0  0
    2.0005   17.3874    1.1032 H   0  0  0  0  0  0  0  0  0  0  0  0
   -0.5775   15.9576   -1.6542 H   0  0  0  0  0  0  0  0  0  0  0  0
    0.4248   18.6157   -2.8491 H   0  0  0  0  0  0  0  0  0  0  0  0
   -0.7611   17.4581   -3.6008 H   0  0  0  0  0  0  0  0  0  0  0  0
   -1.8781   19.4283   -2.6057 H   0  0  0  0  0  0  0  0  0  0  0  0
   -2.3479   17.8741   -1.8123 H   0  0  0  0  0  0  0  0  0  0  0  0
   -2.0035   19.5333   -0.1121 H   0  0  0  0  0  0  0  0  0  0  0  0
   -0.5700   20.8740   -1.3790 H   0  0  0  0  0  0  0  0  0  0  0  0
   -1.6407   17.0838    1.8935 H   0  0  0  0  0  0  0  0  0  0  0  0
   -2.5856   17.4547    0.4115 H   0  0  0  0  0  0  0  0  0  0  0  0
   -1.4120   16.0948    0.4115 H   0  0  0  0  0  0  0  0  0  0  0  0
   -0.3551   18.2651    2.4914 H   0  0  0  0  0  0  0  0  0  0  0  0
    1.1248   18.7656    1.6047 H   0  0  0  0  0  0  0  0  0  0  0  0
   -0.3243   19.8271    1.6047 H   0  0  0  0  0  0  0  0  0  0  0  0
    2.8227   17.4996   -2.6606 H   0  0  0  0  0  0  0  0  0  0  0  0
    2.9386   16.3114   -4.0028 H   0  0  0  0  0  0  0  0  0  0  0  0
    1.6296   17.5416   -4.0028 H   0  0  0  0  0  0  0  0  0  0  0  0
   -0.2457   15.4938   -4.0297 H   0  0  0  0  0  0  0  0  0  0  0  0
    1.4268   14.7905   -4.4089 H   0  0  0  0  0  0  0  0  0  0  0  0
   -0.6606   13.6781   -2.5151 H   0  0  0  0  0  0  0  0  0  0  0  0
   -0.0504   12.9726   -4.0634 H   0  0  0  0  0  0  0  0  0  0  0  0
    3.4611   12.5150   -2.8561 H   0  0  0  0  0  0  0  0  0  0  0  0
    2.3346   11.7943   -4.0553 H   0  0  0  0  0  0  0  0  0  0  0  0
    2.6335   13.5655   -4.0553 H   0  0  0  0  0  0  0  0  0  0  0  0
  1  2  1  0
  2  3  1  0
  3  4  1  0
  4  5  1  0
  5  6  1  0
  6  7  1  0
  7  8  1  0
  7  9  1  0
  2 10  1  0
 10 11  1  0
 11 12  1  0
 12 13  1  0
 13 14  1  1
 13 15  1  0
 15 16  1  0
 16 17  1  0
 17 18  2  0
 18 19  1  0
 19 20  1  0
 20 21  1  0
 21 22  1  0
 22 23  1  0
 22 24  1  0
 24 25  1  0
 24 26  1  0
 19 27  1  0
 27 28  1  6
 27 29  1  0
 29 30  1  0
 30 31  1  0
 31 32  1  6
  7  5  1  0
 31 10  1  0
 31 13  1  0
 27 15  1  0
 24 18  1  0
  1 33  1  0
  1 34  1  0
  1 35  1  0
  2 36  1  6
  3 37  1  0
  3 38  1  0
  4 39  1  0
  4 40  1  0
  5 41  1  1
  8 42  1  0
  8 43  1  0
  8 44  1  0
  9 45  1  0
  9 46  1  0
  9 47  1  0
 10 48  1  1
 11 49  1  0
 11 50  1  0
 12 51  1  0
 12 52  1  0
 14 53  1  0
 14 54  1  0
 14 55  1  0
 15 56  1  6
 16 57  1  0
 16 58  1  0
 17 59  1  0
 19 60  1  1
 20 61  1  0
 20 62  1  0
 21 63  1  0
 21 64  1  0
 22 65  1  1
 23 66  1  0
 25 67  1  0
 25 68  1  0
 25 69  1  0
 26 70  1  0
 26 71  1  0
 26 72  1  0
 28 73  1  0
 28 74  1  0
 28 75  1  0
 29 76  1  0
 29 77  1  0
 30 78  1  0
 30 79  1  0
 32 80  1  0
 32 81  1  0
 32 82  1  0
M  END
>  <meeko>  (9) 
{"is_sidechain": [false], "intermolecular_energy": 2.731, "internal_energy": -0.839}

$$$$
EPH_relaxed_0001_pdb2pqr_Repair_82_r2_0001_out
     RDKit          3D

 82 86  0  0  0  0  0  0  0  0999 V2000
   -2.1940    7.8250   -2.1190 C   0  0  0  0  0  0  0  0  0  0  0  0
   -2.2370    8.4760   -0.7340 C   0  0  2  0  0  0  0  0  0  0  0  0
   -3.6590    8.4760   -0.1370 C   0  0  0  0  0  0  0  0  0  0  0  0
   -4.7590    8.2090   -1.1670 C   0  0  0  0  0  0  0  0  0  0  0  0
   -5.5400    6.9730   -0.8370 C   0  0  2  0  0  0  0  0  0  0  0  0
   -5.8540    6.1440   -1.9630 O   0  0  0  0  0  0  0  0  0  0  0  0
   -6.9710    6.7420   -1.2860 C   0  0  0  0  0  0  0  0  0  0  0  0
   -7.7050    7.7580   -2.1040 C   0  0  0  0  0  0  0  0  0  0  0  0
   -7.8100    5.7630   -0.5270 C   0  0  0  0  0  0  0  0  0  0  0  0
   -1.7060    9.9030   -0.8130 C   0  0  1  0  0  0  0  0  0  0  0  0
   -1.2690   10.4550    0.5690 C   0  0  0  0  0  0  0  0  0  0  0  0
   -0.0440   11.3720    0.3180 C   0  0  0  0  0  0  0  0  0  0  0  0
   -0.0210   11.5810   -1.2140 C   0  0  1  0  0  0  0  0  0  0  0  0
   -1.0740   12.7020   -1.4820 C   0  0  0  0  0  0  0  0  0  0  0  0
    1.3670   11.9300   -1.8430 C   0  0  2  0  0  0  0  0  0  0  0  0
    1.9860   13.2540   -1.3630 C   0  0  0  0  0  0  0  0  0  0  0  0
    1.6310   14.4560   -2.1740 C   0  0  0  0  0  0  0  0  0  0  0  0
    1.0830   14.4360   -3.4030 C   0  0  0  0  0  0  0  0  0  0  0  0
    0.8540   13.1110   -4.1420 C   0  0  1  0  0  0  0  0  0  0  0  0
    1.3520   13.2410   -5.6050 C   0  0  0  0  0  0  0  0  0  0  0  0
    0.7300   14.4300   -6.3320 C   0  0  0  0  0  0  0  0  0  0  0  0
    1.0280   15.7350   -5.5980 C   0  0  2  0  0  0  0  0  0  0  0  0
    2.4330   15.9950   -5.6730 O   0  0  0  0  0  0  0  0  0  0  0  0
    0.5790   15.7180   -4.1100 C   0  0  0  0  0  0  0  0  0  0  0  0
   -0.9680   15.7390   -4.0340 C   0  0  0  0  0  0  0  0  0  0  0  0
    1.0640   17.0360   -3.4500 C   0  0  0  0  0  0  0  0  0  0  0  0
    1.4120   11.8090   -3.4210 C   0  0  1  0  0  0  0  0  0  0  0  0
    2.9060   11.5860   -3.8070 C   0  0  0  0  0  0  0  0  0  0  0  0
    0.6250   10.5520   -3.9480 C   0  0  0  0  0  0  0  0  0  0  0  0
   -0.6770   10.1880   -3.2090 C   0  0  0  0  0  0  0  0  0  0  0  0
   -0.4550   10.1480   -1.6940 C   0  0  2  0  0  0  0  0  0  0  0  0
    0.5830    9.0140   -1.3920 C   0  0  0  0  0  0  0  0  0  0  0  0
   -2.1219    6.7329   -2.0087 H   0  0  0  0  0  0  0  0  0  0  0  0
   -3.1108    8.0780   -2.6717 H   0  0  0  0  0  0  0  0  0  0  0  0
   -1.3184    8.1964   -2.6717 H   0  0  0  0  0  0  0  0  0  0  0  0
   -1.5982    7.8781   -0.0674 H   0  0  0  0  0  0  0  0  0  0  0  0
   -3.7108    7.6956    0.6365 H   0  0  0  0  0  0  0  0  0  0  0  0
   -3.8369    9.4826    0.2694 H   0  0  0  0  0  0  0  0  0  0  0  0
   -5.4446    9.0690   -1.1873 H   0  0  0  0  0  0  0  0  0  0  0  0
   -4.2821    8.0615   -2.1472 H   0  0  0  0  0  0  0  0  0  0  0  0
   -5.0551    6.9019    0.1478 H   0  0  0  0  0  0  0  0  0  0  0  0
   -8.2167    8.4663   -1.4359 H   0  0  0  0  0  0  0  0  0  0  0  0
   -6.9908    8.3031   -2.7386 H   0  0  0  0  0  0  0  0  0  0  0  0
   -8.4469    7.2512   -2.7386 H   0  0  0  0  0  0  0  0  0  0  0  0
   -7.6733    5.9226    0.5527 H   0  0  0  0  0  0  0  0  0  0  0  0
   -8.8688    5.9078   -0.7879 H   0  0  0  0  0  0  0  0  0  0  0  0
   -7.5048    4.7389   -0.7879 H   0  0  0  0  0  0  0  0  0  0  0  0
   -2.5812   10.4015   -1.2552 H   0  0  0  0  0  0  0  0  0  0  0  0
   -2.0880   11.0328    1.0222 H   0  0  0  0  0  0  0  0  0  0  0  0
   -1.0147    9.6365    1.2585 H   0  0  0  0  0  0  0  0  0  0  0  0
   -0.1650   12.3330    0.8393 H   0  0  0  0  0  0  0  0  0  0  0  0
    0.8913   10.9309    0.6930 H   0  0  0  0  0  0  0  0  0  0  0  0
   -1.4432   13.0950   -0.5232 H   0  0  0  0  0  0  0  0  0  0  0  0
   -0.6057   13.5153   -2.0558 H   0  0  0  0  0  0  0  0  0  0  0  0
   -1.9150   12.2855   -2.0558 H   0  0  0  0  0  0  0  0  0  0  0  0
    2.0143   11.1355   -1.4432 H   0  0  0  0  0  0  0  0  0  0  0  0
    1.6518   13.4304   -0.3299 H   0  0  0  0  0  0  0  0  0  0  0  0
    3.0750   13.1330   -1.4597 H   0  0  0  0  0  0  0  0  0  0  0  0
    1.8345   15.4414   -1.7295 H   0  0  0  0  0  0  0  0  0  0  0  0
   -0.2328   12.9413   -4.1313 H   0  0  0  0  0  0  0  0  0  0  0  0
    2.4448   13.3660   -5.5956 H   0  0  0  0  0  0  0  0  0  0  0  0
    1.0532   12.3284   -6.1415 H   0  0  0  0  0  0  0  0  0  0  0  0
    1.1441   14.4866   -7.3495 H   0  0  0  0  0  0  0  0  0  0  0  0
   -0.3603   14.2884   -6.3678 H   0  0  0  0  0  0  0  0  0  0  0  0
    0.4493   16.5301   -6.0909 H   0  0  0  0  0  0  0  0  0  0  0  0
    2.8870   15.1390   -5.7620 H   0  0  0  0  0  0  0  0  0  0  0  0
   -1.2833   15.7433   -2.9802 H   0  0  0  0  0  0  0  0  0  0  0  0
   -1.3474   16.6424   -4.5339 H   0  0  0  0  0  0  0  0  0  0  0  0
   -1.3718   14.8463   -4.5339 H   0  0  0  0  0  0  0  0  0  0  0  0
    1.0263   16.9335   -2.3554 H   0  0  0  0  0  0  0  0  0  0  0  0
    2.0977   17.2442   -3.7634 H   0  0  0  0  0  0  0  0  0  0  0  0
    0.4119   17.8646   -3.7634 H   0  0  0  0  0  0  0  0  0  0  0  0
    3.5113   11.4957   -2.8930 H   0  0  0  0  0  0  0  0  0  0  0  0
    2.9978   10.6642   -4.4002 H   0  0  0  0  0  0  0  0  0  0  0  0
    3.2630   12.4408   -4.4002 H   0  0  0  0  0  0  0  0  0  0  0  0
    0.3691   10.7372   -5.0017 H   0  0  0  0  0  0  0  0  0  0  0  0
    1.2992    9.6991   -3.7807 H   0  0  0  0  0  0  0  0  0  0  0  0
   -1.4446   10.9411   -3.4404 H   0  0  0  0  0  0  0  0  0  0  0  0
   -1.0024    9.1914   -3.5421 H   0  0  0  0  0  0  0  0  0  0  0  0
    0.6909    8.8961   -0.3037 H   0  0  0  0  0  0  0  0  0  0  0  0
    0.2309    8.0684   -1.8301 H   0  0  0  0  0  0  0  0  0  0  0  0
    1.5559    9.2813   -1.8301 H   0  0  0  0  0  0  0  0  0  0  0  0
  1  2  1  0
  2  3  1  0
  3  4  1  0
  4  5  1  0
  5  6  1  0
  6  7  1  0
  7  8  1  0
  7  9  1  0
  2 10  1  0
 10 11  1  0
 11 12  1  0
 12 13  1  0
 13 14  1  1
 13 15  1  0
 15 16  1  0
 16 17  1  0
 17 18  2  0
 18 19  1  0
 19 20  1  0
 20 21  1  0
 21 22  1  0
 22 23  1  0
 22 24  1  0
 24 25  1  0
 24 26  1  0
 19 27  1  0
 27 28  1  6
 27 29  1  0
 29 30  1  0
 30 31  1  0
 31 32  1  6
  7  5  1  0
 31 10  1  0
 31 13  1  0
 27 15  1  0
 24 18  1  0
  1 33  1  0
  1 34  1  0
  1 35  1  0
  2 36  1  1
  3 37  1  0
  3 38  1  0
  4 39  1  0
  4 40  1  0
  5 41  1  1
  8 42  1  0
  8 43  1  0
  8 44  1  0
  9 45  1  0
  9 46  1  0
  9 47  1  0
 10 48  1  6
 11 49  1  0
 11 50  1  0
 12 51  1  0
 12 52  1  0
 14 53  1  0
 14 54  1  0
 14 55  1  0
 15 56  1  1
 16 57  1  0
 16 58  1  0
 17 59  1  0
 19 60  1  6
 20 61  1  0
 20 62  1  0
 21 63  1  0
 21 64  1  0
 22 65  1  6
 23 66  1  0
 25 67  1  0
 25 68  1  0
 25 69  1  0
 26 70  1  0
 26 71  1  0
 26 72  1  0
 28 73  1  0
 28 74  1  0
 28 75  1  0
 29 76  1  0
 29 77  1  0
 30 78  1  0
 30 79  1  0
 32 80  1  0
 32 81  1  0
 32 82  1  0
M  END
>  <meeko>  (10) 
{"is_sidechain": [false], "intermolecular_energy": 2.731, "internal_energy": -0.839}

$$$$
EPH_relaxed_0001_pdb2pqr_Repair_82_r2_0001_out
     RDKit          3D

 82 86  0  0  0  0  0  0  0  0999 V2000
  -14.5840    9.4860    0.7790 C   0  0  0  0  0  0  0  0  0  0  0  0
  -13.7010    9.3170   -0.4610 C   0  0  2  0  0  0  0  0  0  0  0  0
  -14.2520    8.2490   -1.4260 C   0  0  0  0  0  0  0  0  0  0  0  0
  -14.4560    8.7570   -2.8550 C   0  0  0  0  0  0  0  0  0  0  0  0
  -15.1900   10.0640   -2.8790 C   0  0  2  0  0  0  0  0  0  0  0  0
  -14.9650   10.8550   -4.0530 O   0  0  0  0  0  0  0  0  0  0  0  0
  -14.4990   11.4130   -2.8140 C   0  0  0  0  0  0  0  0  0  0  0  0
  -13.0100   11.5230   -2.7170 C   0  0  0  0  0  0  0  0  0  0  0  0
  -15.2870   12.5990   -2.3520 C   0  0  0  0  0  0  0  0  0  0  0  0
  -12.2810    8.9570   -0.0410 C   0  0  1  0  0  0  0  0  0  0  0  0
  -12.1720    8.6150    1.4690 C   0  0  0  0  0  0  0  0  0  0  0  0
  -11.1000    7.5020    1.5990 C   0  0  0  0  0  0  0  0  0  0  0  0
  -10.3960    7.4750    0.2220 C   0  0  1  0  0  0  0  0  0  0  0  0
   -9.3670    8.6480    0.2750 C   0  0  0  0  0  0  0  0  0  0  0  0
   -9.7150    6.1260   -0.1790 C   0  0  2  0  0  0  0  0  0  0  0  0
   -8.5660    5.6770    0.7410 C   0  0  0  0  0  0  0  0  0  0  0  0
   -7.2080    6.1560    0.3460 C   0  0  0  0  0  0  0  0  0  0  0  0
   -6.8800    6.6750   -0.8520 C   0  0  0  0  0  0  0  0  0  0  0  0
   -7.9030    6.7310   -1.9940 C   0  0  1  0  0  0  0  0  0  0  0  0
   -7.2460    6.2240   -3.3040 C   0  0  0  0  0  0  0  0  0  0  0  0
   -5.9570    6.9680   -3.6390 C   0  0  0  0  0  0  0  0  0  0  0  0
   -4.9430    6.8410   -2.5050 C   0  0  2  0  0  0  0  0  0  0  0  0
   -4.5260    5.4750   -2.4110 O   0  0  0  0  0  0  0  0  0  0  0  0
   -5.4970    7.3140   -1.1320 C   0  0  0  0  0  0  0  0  0  0  0  0
   -5.6650    8.8530   -1.1400 C   0  0  0  0  0  0  0  0  0  0  0  0
   -4.4260    7.0000   -0.0520 C   0  0  0  0  0  0  0  0  0  0  0  0
   -9.3030    6.0370   -1.7040 C   0  0  1  0  0  0  0  0  0  0  0  0
   -9.2270    4.5200   -2.0570 C   0  0  0  0  0  0  0  0  0  0  0  0
  -10.3920    6.6600   -2.6560 C   0  0  0  0  0  0  0  0  0  0  0  0
  -11.1150    7.9230   -2.1510 C   0  0  0  0  0  0  0  0  0  0  0  0
  -11.6290    7.7270   -0.7210 C   0  0  2  0  0  0  0  0  0  0  0  0
  -12.6830    6.5680   -0.7460 C   0  0  0  0  0  0  0  0  0  0  0  0
  -13.9707    9.3686    1.6846 H   0  0  0  0  0  0  0  0  0  0  0  0
  -15.0389   10.4875    0.7715 H   0  0  0  0  0  0  0  0  0  0  0  0
  -15.3766    8.7232    0.7715 H   0  0  0  0  0  0  0  0  0  0  0  0
  -13.6984   10.2765   -0.9989 H   0  0  0  0  0  0  0  0  0  0  0  0
  -13.5435    7.4080   -1.4543 H   0  0  0  0  0  0  0  0  0  0  0  0
  -15.2409    7.9524   -1.0462 H   0  0  0  0  0  0  0  0  0  0  0  0
  -13.4727    8.8915   -3.3294 H   0  0  0  0  0  0  0  0  0  0  0  0
  -15.0583    8.0153   -3.4001 H   0  0  0  0  0  0  0  0  0  0  0  0
  -16.0233    9.6336   -2.3042 H   0  0  0  0  0  0  0  0  0  0  0  0
  -12.7122   11.5450   -1.6583 H   0  0  0  0  0  0  0  0  0  0  0  0
  -12.5454   10.6567   -3.2107 H   0  0  0  0  0  0  0  0  0  0  0  0
  -12.6777   12.4481   -3.2107 H   0  0  0  0  0  0  0  0  0  0  0  0
  -15.3029   12.6229   -1.2524 H   0  0  0  0  0  0  0  0  0  0  0  0
  -14.8205   13.5198   -2.7321 H   0  0  0  0  0  0  0  0  0  0  0  0
  -16.3167   12.5258   -2.7321 H   0  0  0  0  0  0  0  0  0  0  0  0
  -11.7601    9.8765   -0.3464 H   0  0  0  0  0  0  0  0  0  0  0  0
  -11.8650    9.5050    2.0378 H   0  0  0  0  0  0  0  0  0  0  0  0
  -13.1402    8.2797    1.8691 H   0  0  0  0  0  0  0  0  0  0  0  0
  -10.3829    7.7449    2.3970 H   0  0  0  0  0  0  0  0  0  0  0  0
  -11.5395    6.5284    1.8618 H   0  0  0  0  0  0  0  0  0  0  0  0
   -9.1486    8.8970    1.3239 H   0  0  0  0  0  0  0  0  0  0  0  0
   -8.4386    8.3444   -0.2308 H   0  0  0  0  0  0  0  0  0  0  0  0
   -9.7889    9.5290   -0.2308 H   0  0  0  0  0  0  0  0  0  0  0  0
  -10.5241    5.3971   -0.0239 H   0  0  0  0  0  0  0  0  0  0  0  0
   -8.7765    6.0498    1.7543 H   0  0  0  0  0  0  0  0  0  0  0  0
   -8.5331    4.5796    0.6732 H   0  0  0  0  0  0  0  0  0  0  0  0
   -6.4082    6.0782    1.0972 H   0  0  0  0  0  0  0  0  0  0  0  0
   -8.1803    7.7899   -2.1026 H   0  0  0  0  0  0  0  0  0  0  0  0
   -7.0165    5.1541   -3.1920 H   0  0  0  0  0  0  0  0  0  0  0  0
   -7.9568    6.4023   -4.1243 H   0  0  0  0  0  0  0  0  0  0  0  0
   -5.5249    6.5439   -4.5574 H   0  0  0  0  0  0  0  0  0  0  0  0
   -6.1932    8.0329   -3.7810 H   0  0  0  0  0  0  0  0  0  0  0  0
   -4.0953    7.4998   -2.7446 H   0  0  0  0  0  0  0  0  0  0  0  0
   -5.1990    4.9970   -1.8970 H   0  0  0  0  0  0  0  0  0  0  0  0
   -5.7054    9.2228   -0.1048 H   0  0  0  0  0  0  0  0  0  0  0  0
   -4.8117    9.3123   -1.6604 H   0  0  0  0  0  0  0  0  0  0  0  0
   -6.5973    9.1174   -1.6604 H   0  0  0  0  0  0  0  0  0  0  0  0
   -4.8652    7.1288    0.9483 H   0  0  0  0  0  0  0  0  0  0  0  0
   -4.0798    5.9625   -0.1697 H   0  0  0  0  0  0  0  0  0  0  0  0
   -3.5744    7.6863   -0.1697 H   0  0  0  0  0  0  0  0  0  0  0  0
   -9.1974    3.9288   -1.1298 H   0  0  0  0  0  0  0  0  0  0  0  0
  -10.1120    4.2356   -2.6451 H   0  0  0  0  0  0  0  0  0  0  0  0
   -8.3180    4.3255   -2.6451 H   0  0  0  0  0  0  0  0  0  0  0  0
   -9.8975    6.9164   -3.6045 H   0  0  0  0  0  0  0  0  0  0  0  0
  -11.1760    5.8927   -2.7377 H   0  0  0  0  0  0  0  0  0  0  0  0
  -10.4135    8.7701   -2.1681 H   0  0  0  0  0  0  0  0  0  0  0  0
  -11.9746    8.1210   -2.8082 H   0  0  0  0  0  0  0  0  0  0  0  0
  -12.9408    6.2845    0.2851 H   0  0  0  0  0  0  0  0  0  0  0  0
  -13.5886    6.9072   -1.2703 H   0  0  0  0  0  0  0  0  0  0  0  0
  -12.2596    5.6986   -1.2703 H   0  0  0  0  0  0  0  0  0  0  0  0
  1  2  1  0
  2  3  1  0
  3  4  1  0
  4  5  1  0
  5  6  1  0
  6  7  1  0
  7  8  1  0
  7  9  1  0
  2 10  1  0
 10 11  1  0
 11 12  1  0
 12 13  1  0
 13 14  1  1
 13 15  1  0
 15 16  1  0
 16 17  1  0
 17 18  2  0
 18 19  1  0
 19 20  1  0
 20 21  1  0
 21 22  1  0
 22 23  1  0
 22 24  1  0
 24 25  1  0
 24 26  1  0
 19 27  1  0
 27 28  1  6
 27 29  1  0
 29 30  1  0
 30 31  1  0
 31 32  1  6
  7  5  1  0
 31 10  1  0
 31 13  1  0
 27 15  1  0
 24 18  1  0
  1 33  1  0
  1 34  1  0
  1 35  1  0
  2 36  1  6
  3 37  1  0
  3 38  1  0
  4 39  1  0
  4 40  1  0
  5 41  1  1
  8 42  1  0
  8 43  1  0
  8 44  1  0
  9 45  1  0
  9 46  1  0
  9 47  1  0
 10 48  1  1
 11 49  1  0
 11 50  1  0
 12 51  1  0
 12 52  1  0
 14 53  1  0
 14 54  1  0
 14 55  1  0
 15 56  1  6
 16 57  1  0
 16 58  1  0
 17 59  1  0
 19 60  1  6
 20 61  1  0
 20 62  1  0
 21 63  1  0
 21 64  1  0
 22 65  1  6
 23 66  1  0
 25 67  1  0
 25 68  1  0
 25 69  1  0
 26 70  1  0
 26 71  1  0
 26 72  1  0
 28 73  1  0
 28 74  1  0
 28 75  1  0
 29 76  1  0
 29 77  1  0
 30 78  1  0
 30 79  1  0
 32 80  1  0
 32 81  1  0
 32 82  1  0
M  END
>  <meeko>  (11) 
{"is_sidechain": [false], "intermolecular_energy": 2.731, "internal_energy": -0.839}

$$$$
EPH_relaxed_0001_pdb2pqr_Repair_82_r2_0001_out
     RDKit          3D

 82 86  0  0  0  0  0  0  0  0999 V2000
    2.8870   11.3460   -5.2800 C   0  0  0  0  0  0  0  0  0  0  0  0
    1.8420   11.0440   -4.2020 C   0  0  2  0  0  0  0  0  0  0  0  0
    0.7270   10.1120   -4.7190 C   0  0  0  0  0  0  0  0  0  0  0  0
   -0.3550    9.8110   -3.6780 C   0  0  0  0  0  0  0  0  0  0  0  0
    0.1920    9.0350   -2.5180 C   0  0  2  0  0  0  0  0  0  0  0  0
   -0.6380    7.9540   -2.0760 O   0  0  0  0  0  0  0  0  0  0  0  0
   -0.4450    9.0280   -1.1410 C   0  0  0  0  0  0  0  0  0  0  0  0
   -1.6850    9.8130   -0.8510 C   0  0  0  0  0  0  0  0  0  0  0  0
    0.4010    8.6560    0.0370 C   0  0  0  0  0  0  0  0  0  0  0  0
    1.2360   12.3440   -3.6870 C   0  0  1  0  0  0  0  0  0  0  0  0
   -0.3040   12.2610   -3.5180 C   0  0  0  0  0  0  0  0  0  0  0  0
   -0.6670   13.1230   -2.2820 C   0  0  0  0  0  0  0  0  0  0  0  0
    0.6160   13.9340   -1.9830 C   0  0  1  0  0  0  0  0  0  0  0  0
    0.5780   15.1290   -2.9850 C   0  0  0  0  0  0  0  0  0  0  0  0
    0.7960   14.4220   -0.5080 C   0  0  2  0  0  0  0  0  0  0  0  0
   -0.2840   15.3970   -0.0070 C   0  0  0  0  0  0  0  0  0  0  0  0
    0.0120   16.8430   -0.2260 C   0  0  0  0  0  0  0  0  0  0  0  0
    1.2160   17.3570   -0.5400 C   0  0  0  0  0  0  0  0  0  0  0  0
    2.4600   16.4620   -0.6100 C   0  0  1  0  0  0  0  0  0  0  0  0
    3.6310   17.1440    0.1460 C   0  0  0  0  0  0  0  0  0  0  0  0
    3.9020   18.5610   -0.3510 C   0  0  0  0  0  0  0  0  0  0  0  0
    2.6590   19.4350   -0.2110 C   0  0  2  0  0  0  0  0  0  0  0  0
    2.3770   19.6160    1.1800 O   0  0  0  0  0  0  0  0  0  0  0  0
    1.4110   18.8440   -0.9250 C   0  0  0  0  0  0  0  0  0  0  0  0
    1.6010   18.9280   -2.4600 C   0  0  0  0  0  0  0  0  0  0  0  0
    0.1950   19.7490   -0.5890 C   0  0  0  0  0  0  0  0  0  0  0  0
    2.2510   14.9490   -0.1730 C   0  0  1  0  0  0  0  0  0  0  0  0
    2.4300   14.8100    1.3690 C   0  0  0  0  0  0  0  0  0  0  0  0
    3.3740   14.0640   -0.8320 C   0  0  0  0  0  0  0  0  0  0  0  0
    3.0870   13.5120   -2.2420 C   0  0  0  0  0  0  0  0  0  0  0  0
    1.7080   12.8480   -2.3000 C   0  0  2  0  0  0  0  0  0  0  0  0
    1.7230   11.6270   -1.3170 C   0  0  0  0  0  0  0  0  0  0  0  0
    3.8385   11.6210   -4.8015 H   0  0  0  0  0  0  0  0  0  0  0  0
    3.0359   10.4541   -5.9064 H   0  0  0  0  0  0  0  0  0  0  0  0
    2.5372   12.1798   -5.9064 H   0  0  0  0  0  0  0  0  0  0  0  0
    2.3551   10.5218   -3.3810 H   0  0  0  0  0  0  0  0  0  0  0  0
    0.2501   10.5895   -5.5876 H   0  0  0  0  0  0  0  0  0  0  0  0
    1.2021    9.1536   -4.9755 H   0  0  0  0  0  0  0  0  0  0  0  0
   -0.7681   10.7611   -3.3083 H   0  0  0  0  0  0  0  0  0  0  0  0
   -1.1348    9.2031   -4.1600 H   0  0  0  0  0  0  0  0  0  0  0  0
    1.2239    9.2176   -2.8525 H   0  0  0  0  0  0  0  0  0  0  0  0
   -1.8191    9.8979    0.2375 H   0  0  0  0  0  0  0  0  0  0  0  0
   -1.5935   10.8180   -1.2886 H   0  0  0  0  0  0  0  0  0  0  0  0
   -2.5543    9.3003   -1.2886 H   0  0  0  0  0  0  0  0  0  0  0  0
   -0.1388    8.8933    0.9656 H   0  0  0  0  0  0  0  0  0  0  0  0
    0.6201    7.5785    0.0054 H   0  0  0  0  0  0  0  0  0  0  0  0
    1.3432    9.2229    0.0054 H   0  0  0  0  0  0  0  0  0  0  0  0
    1.5792   13.0311   -4.4745 H   0  0  0  0  0  0  0  0  0  0  0  0
   -0.8050   12.6550   -4.4146 H   0  0  0  0  0  0  0  0  0  0  0  0
   -0.6301   11.2193   -3.3818 H   0  0  0  0  0  0  0  0  0  0  0  0
   -1.5072   13.7952   -2.5103 H   0  0  0  0  0  0  0  0  0  0  0  0
   -0.9836   12.5111   -1.4245 H   0  0  0  0  0  0  0  0  0  0  0  0
    0.5479   16.0757   -2.4257 H   0  0  0  0  0  0  0  0  0  0  0  0
    1.4773   15.1055   -3.6180 H   0  0  0  0  0  0  0  0  0  0  0  0
   -0.3180   15.0484   -3.6180 H   0  0  0  0  0  0  0  0  0  0  0  0
    0.6515   13.4953    0.0668 H   0  0  0  0  0  0  0  0  0  0  0  0
   -1.2238   15.1598   -0.5272 H   0  0  0  0  0  0  0  0  0  0  0  0
   -0.3369   15.2588    1.0830 H   0  0  0  0  0  0  0  0  0  0  0  0
   -0.8249   17.5492   -0.1220 H   0  0  0  0  0  0  0  0  0  0  0  0
    2.7082   16.3688   -1.6776 H   0  0  0  0  0  0  0  0  0  0  0  0
    3.3818   17.1874    1.2165 H   0  0  0  0  0  0  0  0  0  0  0  0
    4.5375   16.5477   -0.0348 H   0  0  0  0  0  0  0  0  0  0  0  0
    4.7191   18.9998    0.2404 H   0  0  0  0  0  0  0  0  0  0  0  0
    4.1796   18.5131   -1.4143 H   0  0  0  0  0  0  0  0  0  0  0  0
    2.8745   20.3961   -0.7008 H   0  0  0  0  0  0  0  0  0  0  0  0
    3.0590   20.2060    1.5440 H   0  0  0  0  0  0  0  0  0  0  0  0
    2.5859   19.3634   -2.6843 H   0  0  0  0  0  0  0  0  0  0  0  0
    1.5392   17.9187   -2.8929 H   0  0  0  0  0  0  0  0  0  0  0  0
    0.8128   19.5616   -2.8929 H   0  0  0  0  0  0  0  0  0  0  0  0
    0.0879   19.8287    0.5029 H   0  0  0  0  0  0  0  0  0  0  0  0
    0.3540   20.7502   -1.0159 H   0  0  0  0  0  0  0  0  0  0  0  0
   -0.7184   19.3092   -1.0159 H   0  0  0  0  0  0  0  0  0  0  0  0
    1.6617   15.4066    1.8826 H   0  0  0  0  0  0  0  0  0  0  0  0
    2.3265   13.7533    1.6564 H   0  0  0  0  0  0  0  0  0  0  0  0
    3.4282   15.1720    1.6564 H   0  0  0  0  0  0  0  0  0  0  0  0
    4.2862   14.6757   -0.8936 H   0  0  0  0  0  0  0  0  0  0  0  0
    3.4561   13.1766   -0.1871 H   0  0  0  0  0  0  0  0  0  0  0  0
    3.1187   14.3396   -2.9659 H   0  0  0  0  0  0  0  0  0  0  0  0
    3.8501   12.7581   -2.4858 H   0  0  0  0  0  0  0  0  0  0  0  0
    1.7185   11.9917   -0.2792 H   0  0  0  0  0  0  0  0  0  0  0  0
    0.8324   11.0052   -1.4910 H   0  0  0  0  0  0  0  0  0  0  0  0
    2.6286   11.0273   -1.4910 H   0  0  0  0  0  0  0  0  0  0  0  0
  1  2  1  0
  2  3  1  0
  3  4  1  0
  4  5  1  0
  5  6  1  0
  6  7  1  0
  7  8  1  0
  7  9  1  0
  2 10  1  0
 10 11  1  0
 11 12  1  0
 12 13  1  0
 13 14  1  6
 13 15  1  0
 15 16  1  0
 16 17  1  0
 17 18  2  0
 18 19  1  0
 19 20  1  0
 20 21  1  0
 21 22  1  0
 22 23  1  0
 22 24  1  0
 24 25  1  0
 24 26  1  0
 19 27  1  0
 27 28  1  1
 27 29  1  0
 29 30  1  0
 30 31  1  0
 31 32  1  1
  7  5  1  0
 31 10  1  0
 31 13  1  0
 27 15  1  0
 24 18  1  0
  1 33  1  0
  1 34  1  0
  1 35  1  0
  2 36  1  1
  3 37  1  0
  3 38  1  0
  4 39  1  0
  4 40  1  0
  5 41  1  1
  8 42  1  0
  8 43  1  0
  8 44  1  0
  9 45  1  0
  9 46  1  0
  9 47  1  0
 10 48  1  6
 11 49  1  0
 11 50  1  0
 12 51  1  0
 12 52  1  0
 14 53  1  0
 14 54  1  0
 14 55  1  0
 15 56  1  1
 16 57  1  0
 16 58  1  0
 17 59  1  0
 19 60  1  6
 20 61  1  0
 20 62  1  0
 21 63  1  0
 21 64  1  0
 22 65  1  6
 23 66  1  0
 25 67  1  0
 25 68  1  0
 25 69  1  0
 26 70  1  0
 26 71  1  0
 26 72  1  0
 28 73  1  0
 28 74  1  0
 28 75  1  0
 29 76  1  0
 29 77  1  0
 30 78  1  0
 30 79  1  0
 32 80  1  0
 32 81  1  0
 32 82  1  0
M  END
>  <meeko>  (12) 
{"is_sidechain": [false], "intermolecular_energy": 2.731, "internal_energy": -0.839}

$$$$
EPH_relaxed_0001_pdb2pqr_Repair_82_r2_0001_out
     RDKit          3D

 82 86  0  0  0  0  0  0  0  0999 V2000
   -0.1380   17.3530   -2.2170 C   0  0  0  0  0  0  0  0  0  0  0  0
   -0.0670   16.6630   -0.8520 C   0  0  2  0  0  0  0  0  0  0  0  0
    0.2030   17.6620    0.2910 C   0  0  0  0  0  0  0  0  0  0  0  0
    0.1510   19.1280   -0.1480 C   0  0  0  0  0  0  0  0  0  0  0  0
    1.2560   19.9300    0.4690 C   0  0  2  0  0  0  0  0  0  0  0  0
    2.3710   20.1790   -0.3970 O   0  0  0  0  0  0  0  0  0  0  0  0
    2.6360   19.3700    0.7600 C   0  0  0  0  0  0  0  0  0  0  0  0
    2.9840   17.9490    0.4430 C   0  0  0  0  0  0  0  0  0  0  0  0
    3.4820   20.0500    1.7910 C   0  0  0  0  0  0  0  0  0  0  0  0
    1.0120   15.5860   -0.8690 C   0  0  1  0  0  0  0  0  0  0  0  0
    1.2080   14.9140    0.5160 C   0  0  0  0  0  0  0  0  0  0  0  0
    1.5530   13.4270    0.2460 C   0  0  0  0  0  0  0  0  0  0  0  0
    1.8700   13.3680   -1.2660 C   0  0  1  0  0  0  0  0  0  0  0  0
    3.3450   13.8630   -1.3870 C   0  0  0  0  0  0  0  0  0  0  0  0
    1.6680   11.9820   -1.9610 C   0  0  2  0  0  0  0  0  0  0  0  0
    2.5670   10.8500   -1.4340 C   0  0  0  0  0  0  0  0  0  0  0  0
    3.8750   10.6960   -2.1360 C   0  0  0  0  0  0  0  0  0  0  0  0
    4.1940   11.2420   -3.3250 C   0  0  0  0  0  0  0  0  0  0  0  0
    3.1550   12.0270   -4.1350 C   0  0  1  0  0  0  0  0  0  0  0  0
    3.1970   11.5670   -5.6160 C   0  0  0  0  0  0  0  0  0  0  0  0
    4.5960   11.6580   -6.2170 C   0  0  0  0  0  0  0  0  0  0  0  0
    5.5890   10.8180   -5.4180 C   0  0  2  0  0  0  0  0  0  0  0  0
    5.2500    9.4360   -5.5690 O   0  0  0  0  0  0  0  0  0  0  0  0
    5.6280   11.1860   -3.9090 C   0  0  0  0  0  0  0  0  0  0  0  0
    6.2810   12.5780   -3.7280 C   0  0  0  0  0  0  0  0  0  0  0  0
    6.5620   10.1720   -3.1940 C   0  0  0  0  0  0  0  0  0  0  0  0
    1.6800   12.0410   -3.5420 C   0  0  1  0  0  0  0  0  0  0  0  0
    0.8940   10.7910   -4.0410 C   0  0  0  0  0  0  0  0  0  0  0  0
    0.9140   13.2990   -4.1000 C   0  0  0  0  0  0  0  0  0  0  0  0
    1.0580   14.6100   -3.3030 C   0  0  0  0  0  0  0  0  0  0  0  0
    0.7940   14.3760   -1.8120 C   0  0  2  0  0  0  0  0  0  0  0  0
   -0.6900   13.8990   -1.6570 C   0  0  0  0  0  0  0  0  0  0  0  0
   -0.2496   18.4379   -2.0740 H   0  0  0  0  0  0  0  0  0  0  0  0
    0.7857   17.1503   -2.7788 H   0  0  0  0  0  0  0  0  0  0  0  0
   -1.0011   16.9665   -2.7788 H   0  0  0  0  0  0  0  0  0  0  0  0
   -1.0481   16.2030   -0.6628 H   0  0  0  0  0  0  0  0  0  0  0  0
   -0.5539   17.5068    1.0739 H   0  0  0  0  0  0  0  0  0  0  0  0
    1.2245   17.4702    0.6511 H   0  0  0  0  0  0  0  0  0  0  0  0
    0.2441   19.1759   -1.2430 H   0  0  0  0  0  0  0  0  0  0  0  0
   -0.8079   19.5521    0.1846 H   0  0  0  0  0  0  0  0  0  0  0  0
    0.5377   20.4826    1.0924 H   0  0  0  0  0  0  0  0  0  0  0  0
    3.1215   17.3876    1.3789 H   0  0  0  0  0  0  0  0  0  0  0  0
    2.1708   17.4939   -0.1414 H   0  0  0  0  0  0  0  0  0  0  0  0
    3.9155   17.9212   -0.1414 H   0  0  0  0  0  0  0  0  0  0  0  0
    3.1325   19.7691    2.7955 H   0  0  0  0  0  0  0  0  0  0  0  0
    4.5302   19.7402    1.6676 H   0  0  0  0  0  0  0  0  0  0  0  0
    3.4049   21.1403    1.6676 H   0  0  0  0  0  0  0  0  0  0  0  0
    1.8655   16.1859   -1.2177 H   0  0  0  0  0  0  0  0  0  0  0  0
    2.0304   15.4010    1.0605 H   0  0  0  0  0  0  0  0  0  0  0  0
    0.3003   15.0038    1.1309 H   0  0  0  0  0  0  0  0  0  0  0  0
    2.4267   13.1174    0.8382 H   0  0  0  0  0  0  0  0  0  0  0  0
    0.7319   12.7509    0.5266 H   0  0  0  0  0  0  0  0  0  0  0  0
    3.7678   14.0049   -0.3815 H   0  0  0  0  0  0  0  0  0  0  0  0
    3.9392   13.1150   -1.9324 H   0  0  0  0  0  0  0  0  0  0  0  0
    3.3677   14.8180   -1.9324 H   0  0  0  0  0  0  0  0  0  0  0  0
    0.6443   11.7151   -1.6596 H   0  0  0  0  0  0  0  0  0  0  0  0
    2.7725   11.0459   -0.3713 H   0  0  0  0  0  0  0  0  0  0  0  0
    2.0147    9.9153   -1.6107 H   0  0  0  0  0  0  0  0  0  0  0  0
    4.6435   10.0848   -1.6403 H   0  0  0  0  0  0  0  0  0  0  0  0
    3.4502   13.0843   -4.0643 H   0  0  0  0  0  0  0  0  0  0  0  0
    2.8570   10.5223   -5.6706 H   0  0  0  0  0  0  0  0  0  0  0  0
    2.5417   12.2365   -6.1924 H   0  0  0  0  0  0  0  0  0  0  0  0
    4.5669   11.2915   -7.2538 H   0  0  0  0  0  0  0  0  0  0  0  0
    4.9223   12.7081   -6.1891 H   0  0  0  0  0  0  0  0  0  0  0  0
    6.5930   11.0260   -5.8165 H   0  0  0  0  0  0  0  0  0  0  0  0
    4.8480    9.3260   -6.4470 H   0  0  0  0  0  0  0  0  0  0  0  0
    6.3842   12.7979   -2.6552 H   0  0  0  0  0  0  0  0  0  0  0  0
    7.2745   12.5811   -4.2001 H   0  0  0  0  0  0  0  0  0  0  0  0
    5.6483   13.3440   -4.2001 H   0  0  0  0  0  0  0  0  0  0  0  0
    6.4590   10.2838   -2.1046 H   0  0  0  0  0  0  0  0  0  0  0  0
    6.2837    9.1485   -3.4855 H   0  0  0  0  0  0  0  0  0  0  0  0
    7.6049   10.3655   -3.4855 H   0  0  0  0  0  0  0  0  0  0  0  0
    0.5324   10.2159   -3.1759 H   0  0  0  0  0  0  0  0  0  0  0  0
    0.0371   11.1156   -4.6496 H   0  0  0  0  0  0  0  0  0  0  0  0
    1.5578   10.1594   -4.6496 H   0  0  0  0  0  0  0  0  0  0  0  0
    1.2816   13.4873   -5.1195 H   0  0  0  0  0  0  0  0  0  0  0  0
   -0.1528   13.0385   -4.0354 H   0  0  0  0  0  0  0  0  0  0  0  0
    2.0789   14.9990   -3.4312 H   0  0  0  0  0  0  0  0  0  0  0  0
    0.3206   15.3335   -3.6809 H   0  0  0  0  0  0  0  0  0  0  0  0
   -0.9397   13.8188   -0.5887 H   0  0  0  0  0  0  0  0  0  0  0  0
   -1.3611   14.6267   -2.1367 H   0  0  0  0  0  0  0  0  0  0  0  0
   -0.8114   12.9166   -2.1367 H   0  0  0  0  0  0  0  0  0  0  0  0
  1  2  1  0
  2  3  1  0
  3  4  1  0
  4  5  1  0
  5  6  1  0
  6  7  1  0
  7  8  1  0
  7  9  1  0
  2 10  1  0
 10 11  1  0
 11 12  1  0
 12 13  1  0
 13 14  1  1
 13 15  1  0
 15 16  1  0
 16 17  1  0
 17 18  2  0
 18 19  1  0
 19 20  1  0
 20 21  1  0
 21 22  1  0
 22 23  1  0
 22 24  1  0
 24 25  1  0
 24 26  1  0
 19 27  1  0
 27 28  1  6
 27 29  1  0
 29 30  1  0
 30 31  1  0
 31 32  1  6
  7  5  1  0
 31 10  1  0
 31 13  1  0
 27 15  1  0
 24 18  1  0
  1 33  1  0
  1 34  1  0
  1 35  1  0
  2 36  1  1
  3 37  1  0
  3 38  1  0
  4 39  1  0
  4 40  1  0
  5 41  1  1
  8 42  1  0
  8 43  1  0
  8 44  1  0
  9 45  1  0
  9 46  1  0
  9 47  1  0
 10 48  1  6
 11 49  1  0
 11 50  1  0
 12 51  1  0
 12 52  1  0
 14 53  1  0
 14 54  1  0
 14 55  1  0
 15 56  1  6
 16 57  1  0
 16 58  1  0
 17 59  1  0
 19 60  1  6
 20 61  1  0
 20 62  1  0
 21 63  1  0
 21 64  1  0
 22 65  1  6
 23 66  1  0
 25 67  1  0
 25 68  1  0
 25 69  1  0
 26 70  1  0
 26 71  1  0
 26 72  1  0
 28 73  1  0
 28 74  1  0
 28 75  1  0
 29 76  1  0
 29 77  1  0
 30 78  1  0
 30 79  1  0
 32 80  1  0
 32 81  1  0
 32 82  1  0
M  END
>  <meeko>  (13) 
{"is_sidechain": [false], "intermolecular_energy": 2.731, "internal_energy": -0.839}

$$$$
EPH_relaxed_0001_pdb2pqr_Repair_82_r2_0001_out
     RDKit          3D

 82 86  0  0  0  0  0  0  0  0999 V2000
    2.3480    9.4060   -1.4700 C   0  0  0  0  0  0  0  0  0  0  0  0
    0.9810   10.0930   -1.5340 C   0  0  2  0  0  0  0  0  0  0  0  0
    0.4860   10.2670   -2.9840 C   0  0  0  0  0  0  0  0  0  0  0  0
   -0.8710    9.6110   -3.2550 C   0  0  0  0  0  0  0  0  0  0  0  0
   -1.3650    8.8470   -2.0640 C   0  0  2  0  0  0  0  0  0  0  0  0
   -2.7850    8.6590   -2.0200 O   0  0  0  0  0  0  0  0  0  0  0  0
   -2.2190    9.4620   -0.9710 C   0  0  0  0  0  0  0  0  0  0  0  0
   -2.6290   10.9000   -1.0180 C   0  0  0  0  0  0  0  0  0  0  0  0
   -2.2450    8.8030    0.3730 C   0  0  0  0  0  0  0  0  0  0  0  0
    1.0460   11.4480   -0.8400 C   0  0  1  0  0  0  0  0  0  0  0  0
    2.0780   11.4760    0.3190 C   0  0  0  0  0  0  0  0  0  0  0  0
    2.6950   12.8980    0.3350 C   0  0  0  0  0  0  0  0  0  0  0  0
    1.7730   13.7330   -0.5850 C   0  0  1  0  0  0  0  0  0  0  0  0
    0.5530   14.1160    0.3100 C   0  0  0  0  0  0  0  0  0  0  0  0
    2.4180   14.9920   -1.2510 C   0  0  2  0  0  0  0  0  0  0  0  0
    2.9010   16.0730   -0.2690 C   0  0  0  0  0  0  0  0  0  0  0  0
    1.8930   17.1190    0.0740 C   0  0  0  0  0  0  0  0  0  0  0  0
    0.7500   17.3540   -0.5970 C   0  0  0  0  0  0  0  0  0  0  0  0
    0.4220   16.5900   -1.8860 C   0  0  1  0  0  0  0  0  0  0  0  0
   -0.0690   17.5870   -2.9680 C   0  0  0  0  0  0  0  0  0  0  0  0
   -1.2350   18.4450   -2.4860 C   0  0  0  0  0  0  0  0  0  0  0  0
   -0.8520   19.2340   -1.2370 C   0  0  2  0  0  0  0  0  0  0  0  0
    0.1490   20.1940   -1.5870 O   0  0  0  0  0  0  0  0  0  0  0  0
   -0.3320   18.3350   -0.0800 C   0  0  0  0  0  0  0  0  0  0  0  0
   -1.5030   17.5050    0.5010 C   0  0  0  0  0  0  0  0  0  0  0  0
    0.1530   19.2640    1.0660 C   0  0  0  0  0  0  0  0  0  0  0  0
    1.5590   15.6170   -2.4230 C   0  0  1  0  0  0  0  0  0  0  0  0
    2.5510   16.4080   -3.3300 C   0  0  0  0  0  0  0  0  0  0  0  0
    0.9030   14.5160   -3.3380 C   0  0  0  0  0  0  0  0  0  0  0  0
    0.3920   13.2430   -2.6350 C   0  0  0  0  0  0  0  0  0  0  0  0
    1.4600   12.6680   -1.6990 C   0  0  2  0  0  0  0  0  0  0  0  0
    2.6910   12.2530   -2.5750 C   0  0  0  0  0  0  0  0  0  0  0  0
    2.6366    9.2610   -0.4185 H   0  0  0  0  0  0  0  0  0  0  0  0
    2.2914    8.4293   -1.9728 H   0  0  0  0  0  0  0  0  0  0  0  0
    3.0980   10.0343   -1.9728 H   0  0  0  0  0  0  0  0  0  0  0  0
    0.2606    9.4441   -1.0145 H   0  0  0  0  0  0  0  0  0  0  0  0
    0.3995   11.3432   -3.1945 H   0  0  0  0  0  0  0  0  0  0  0  0
    1.2192    9.7691   -3.6355 H   0  0  0  0  0  0  0  0  0  0  0  0
   -1.6021   10.3941   -3.5045 H   0  0  0  0  0  0  0  0  0  0  0  0
   -0.7499    8.9046   -4.0895 H   0  0  0  0  0  0  0  0  0  0  0  0
   -0.4391    8.2541   -2.0310 H   0  0  0  0  0  0  0  0  0  0  0  0
   -2.7384   11.2838    0.0071 H   0  0  0  0  0  0  0  0  0  0  0  0
   -1.8613   11.4830   -1.5478 H   0  0  0  0  0  0  0  0  0  0  0  0
   -3.5887   10.9905   -1.5478 H   0  0  0  0  0  0  0  0  0  0  0  0
   -2.2147    9.5719    1.1590 H   0  0  0  0  0  0  0  0  0  0  0  0
   -3.1672    8.2118    0.4737 H   0  0  0  0  0  0  0  0  0  0  0  0
   -1.3723    8.1410    0.4737 H   0  0  0  0  0  0  0  0  0  0  0  0
   -0.0045   11.5464   -0.5289 H   0  0  0  0  0  0  0  0  0  0  0  0
    1.5777   11.2695    1.2766 H   0  0  0  0  0  0  0  0  0  0  0  0
    2.8545   10.7104    0.1746 H   0  0  0  0  0  0  0  0  0  0  0  0
    2.6996   13.3080    1.3557 H   0  0  0  0  0  0  0  0  0  0  0  0
    3.7407   12.9032   -0.0062 H   0  0  0  0  0  0  0  0  0  0  0  0
    0.8338   14.0279    1.3699 H   0  0  0  0  0  0  0  0  0  0  0  0
    0.2517   15.1519    0.0954 H   0  0  0  0  0  0  0  0  0  0  0  0
   -0.2863   13.4381    0.0954 H   0  0  0  0  0  0  0  0  0  0  0  0
    3.3277   14.5771   -1.7096 H   0  0  0  0  0  0  0  0  0  0  0  0
    3.2040   15.5742    0.6634 H   0  0  0  0  0  0  0  0  0  0  0  0
    3.7243   16.5982   -0.7754 H   0  0  0  0  0  0  0  0  0  0  0  0
    2.1019   17.7515    0.9494 H   0  0  0  0  0  0  0  0  0  0  0  0
   -0.3873   15.8910   -1.6283 H   0  0  0  0  0  0  0  0  0  0  0  0
    0.7657   18.2485   -3.2429 H   0  0  0  0  0  0  0  0  0  0  0  0
   -0.4200   16.9995   -3.8292 H   0  0  0  0  0  0  0  0  0  0  0  0
   -1.5182   19.1481   -3.2832 H   0  0  0  0  0  0  0  0  0  0  0  0
   -2.0786   17.7838   -2.2386 H   0  0  0  0  0  0  0  0  0  0  0  0
   -1.7627   19.7271   -0.8662 H   0  0  0  0  0  0  0  0  0  0  0  0
    0.7760   20.2500   -0.8460 H   0  0  0  0  0  0  0  0  0  0  0  0
   -1.4628   17.5335    1.5999 H   0  0  0  0  0  0  0  0  0  0  0  0
   -2.4584   17.9287    0.1579 H   0  0  0  0  0  0  0  0  0  0  0  0
   -1.4197   16.4632    0.1579 H   0  0  0  0  0  0  0  0  0  0  0  0
   -0.0867   18.8049    2.0365 H   0  0  0  0  0  0  0  0  0  0  0  0
    1.2408   19.4069    0.9867 H   0  0  0  0  0  0  0  0  0  0  0  0
   -0.3516   20.2382    0.9867 H   0  0  0  0  0  0  0  0  0  0  0  0
    3.2558   16.9700   -2.6996 H   0  0  0  0  0  0  0  0  0  0  0  0
    3.1084   15.7037   -3.9651 H   0  0  0  0  0  0  0  0  0  0  0  0
    1.9885   17.1082   -3.9651 H   0  0  0  0  0  0  0  0  0  0  0  0
    0.0479   14.9777   -3.8534 H   0  0  0  0  0  0  0  0  0  0  0  0
    1.7109   14.1741   -4.0016 H   0  0  0  0  0  0  0  0  0  0  0  0
   -0.5049   13.4911   -2.0484 H   0  0  0  0  0  0  0  0  0  0  0  0
    0.1546   12.4902   -3.4011 H   0  0  0  0  0  0  0  0  0  0  0  0
    3.5285   11.9707   -1.9201 H   0  0  0  0  0  0  0  0  0  0  0  0
    2.4174   11.3974   -3.2099 H   0  0  0  0  0  0  0  0  0  0  0  0
    2.9913   13.0996   -3.2099 H   0  0  0  0  0  0  0  0  0  0  0  0
  1  2  1  0
  2  3  1  0
  3  4  1  0
  4  5  1  0
  5  6  1  0
  6  7  1  0
  7  8  1  0
  7  9  1  0
  2 10  1  0
 10 11  1  0
 11 12  1  0
 12 13  1  0
 13 14  1  1
 13 15  1  0
 15 16  1  0
 16 17  1  0
 17 18  2  0
 18 19  1  0
 19 20  1  0
 20 21  1  0
 21 22  1  0
 22 23  1  0
 22 24  1  0
 24 25  1  0
 24 26  1  0
 19 27  1  0
 27 28  1  6
 27 29  1  0
 29 30  1  0
 30 31  1  0
 31 32  1  6
  7  5  1  0
 31 10  1  0
 31 13  1  0
 27 15  1  0
 24 18  1  0
  1 33  1  0
  1 34  1  0
  1 35  1  0
  2 36  1  1
  3 37  1  0
  3 38  1  0
  4 39  1  0
  4 40  1  0
  5 41  1  1
  8 42  1  0
  8 43  1  0
  8 44  1  0
  9 45  1  0
  9 46  1  0
  9 47  1  0
 10 48  1  1
 11 49  1  0
 11 50  1  0
 12 51  1  0
 12 52  1  0
 14 53  1  0
 14 54  1  0
 14 55  1  0
 15 56  1  6
 16 57  1  0
 16 58  1  0
 17 59  1  0
 19 60  1  1
 20 61  1  0
 20 62  1  0
 21 63  1  0
 21 64  1  0
 22 65  1  1
 23 66  1  0
 25 67  1  0
 25 68  1  0
 25 69  1  0
 26 70  1  0
 26 71  1  0
 26 72  1  0
 28 73  1  0
 28 74  1  0
 28 75  1  0
 29 76  1  0
 29 77  1  0
 30 78  1  0
 30 79  1  0
 32 80  1  0
 32 81  1  0
 32 82  1  0
M  END
>  <meeko>  (14) 
{"is_sidechain": [false], "intermolecular_energy": 2.731, "internal_energy": -0.839}

$$$$
EPH_relaxed_0001_pdb2pqr_Repair_82_r2_0001_out
     RDKit          3D

 82 86  0  0  0  0  0  0  0  0999 V2000
    0.9300   14.8870   -2.6190 C   0  0  0  0  0  0  0  0  0  0  0  0
    1.1920   14.2130   -3.9690 C   0  0  2  0  0  0  0  0  0  0  0  0
    0.4890   14.9450   -5.1300 C   0  0  0  0  0  0  0  0  0  0  0  0
    1.0590   14.6010   -6.5090 C   0  0  0  0  0  0  0  0  0  0  0  0
    0.8170   15.7010   -7.4980 C   0  0  2  0  0  0  0  0  0  0  0  0
    0.3490   15.2610   -8.7800 O   0  0  0  0  0  0  0  0  0  0  0  0
    1.6420   15.8890   -8.7580 C   0  0  0  0  0  0  0  0  0  0  0  0
    2.7720   14.9680   -9.0960 C   0  0  0  0  0  0  0  0  0  0  0  0
    1.6660   17.2400   -9.4020 C   0  0  0  0  0  0  0  0  0  0  0  0
    0.7390   12.7580   -3.9200 C   0  0  1  0  0  0  0  0  0  0  0  0
    1.8700   11.7670   -4.3000 C   0  0  0  0  0  0  0  0  0  0  0  0
    1.6660   10.5000   -3.4300 C   0  0  0  0  0  0  0  0  0  0  0  0
    0.2500   10.6640   -2.8290 C   0  0  1  0  0  0  0  0  0  0  0  0
   -0.7220   10.1990   -3.9580 C   0  0  0  0  0  0  0  0  0  0  0  0
   -0.0220    9.9100   -1.4860 C   0  0  2  0  0  0  0  0  0  0  0  0
    0.0800    8.3770   -1.5660 C   0  0  0  0  0  0  0  0  0  0  0  0
   -1.1920    7.6690   -1.8960 C   0  0  0  0  0  0  0  0  0  0  0  0
   -2.4240    8.2080   -1.8400 C   0  0  0  0  0  0  0  0  0  0  0  0
   -2.6370    9.6340   -1.3170 C   0  0  1  0  0  0  0  0  0  0  0  0
   -3.8210    9.6470   -0.3150 C   0  0  0  0  0  0  0  0  0  0  0  0
   -5.0930    9.0460   -0.9040 C   0  0  0  0  0  0  0  0  0  0  0  0
   -4.8570    7.6080   -1.3600 C   0  0  2  0  0  0  0  0  0  0  0  0
   -4.6050    6.7960   -0.2090 O   0  0  0  0  0  0  0  0  0  0  0  0
   -3.6800    7.4700   -2.3650 C   0  0  0  0  0  0  0  0  0  0  0  0
   -4.0800    8.0970   -3.7240 C   0  0  0  0  0  0  0  0  0  0  0  0
   -3.4580    5.9570   -2.6340 C   0  0  0  0  0  0  0  0  0  0  0  0
   -1.3450   10.3630   -0.7450 C   0  0  1  0  0  0  0  0  0  0  0  0
   -1.1560   10.0070    0.7610 C   0  0  0  0  0  0  0  0  0  0  0  0
   -1.5630   11.9210   -0.8090 C   0  0  0  0  0  0  0  0  0  0  0  0
   -1.1640   12.6250   -2.1200 C   0  0  0  0  0  0  0  0  0  0  0  0
    0.2450   12.2120   -2.5570 C   0  0  2  0  0  0  0  0  0  0  0  0
    1.2480   12.6870   -1.4500 C   0  0  0  0  0  0  0  0  0  0  0  0
    1.1985   14.1963   -1.8061 H   0  0  0  0  0  0  0  0  0  0  0  0
    1.5388   15.7998   -2.5406 H   0  0  0  0  0  0  0  0  0  0  0  0
   -0.1355   15.1490   -2.5406 H   0  0  0  0  0  0  0  0  0  0  0  0
    2.2748   14.2593   -4.1574 H   0  0  0  0  0  0  0  0  0  0  0  0
   -0.5769   14.6735   -5.1171 H   0  0  0  0  0  0  0  0  0  0  0  0
    0.6494   16.0222   -4.9752 H   0  0  0  0  0  0  0  0  0  0  0  0
    2.1427   14.4369   -6.4162 H   0  0  0  0  0  0  0  0  0  0  0  0
    0.5533   13.6945   -6.8731 H   0  0  0  0  0  0  0  0  0  0  0  0
    0.5307   16.3942   -6.6933 H   0  0  0  0  0  0  0  0  0  0  0  0
    3.2304   14.5943   -8.1685 H   0  0  0  0  0  0  0  0  0  0  0  0
    2.3907   14.1201   -9.6840 H   0  0  0  0  0  0  0  0  0  0  0  0
    3.5255   15.5125   -9.6840 H   0  0  0  0  0  0  0  0  0  0  0  0
    1.6798   18.0171   -8.6236 H   0  0  0  0  0  0  0  0  0  0  0  0
    2.5659   17.3319  -10.0279 H   0  0  0  0  0  0  0  0  0  0  0  0
    0.7699   17.3638  -10.0279 H   0  0  0  0  0  0  0  0  0  0  0  0
   -0.0977   12.8019   -4.6328 H   0  0  0  0  0  0  0  0  0  0  0  0
    1.8042   11.5083   -5.3671 H   0  0  0  0  0  0  0  0  0  0  0  0
    2.8605   12.2118   -4.1236 H   0  0  0  0  0  0  0  0  0  0  0  0
    1.7231    9.5915   -4.0475 H   0  0  0  0  0  0  0  0  0  0  0  0
    2.4393   10.3972   -2.6545 H   0  0  0  0  0  0  0  0  0  0  0  0
   -1.6272    9.7660   -3.5072 H   0  0  0  0  0  0  0  0  0  0  0  0
   -0.9996   11.0618   -4.5813 H   0  0  0  0  0  0  0  0  0  0  0  0
   -0.2244    9.4414   -4.5813 H   0  0  0  0  0  0  0  0  0  0  0  0
    0.8221   10.2332   -0.8591 H   0  0  0  0  0  0  0  0  0  0  0  0
    0.8195    8.1257   -2.3405 H   0  0  0  0  0  0  0  0  0  0  0  0
    0.3639    8.0383   -0.5587 H   0  0  0  0  0  0  0  0  0  0  0  0
   -1.1160    6.6180   -2.2116 H   0  0  0  0  0  0  0  0  0  0  0  0
   -2.8859   10.2463   -2.1963 H   0  0  0  0  0  0  0  0  0  0  0  0
   -3.5361    9.0665    0.5749 H   0  0  0  0  0  0  0  0  0  0  0  0
   -4.0334   10.6965   -0.0632 H   0  0  0  0  0  0  0  0  0  0  0  0
   -5.8835    9.0559   -0.1391 H   0  0  0  0  0  0  0  0  0  0  0  0
   -5.3936    9.6458   -1.7757 H   0  0  0  0  0  0  0  0  0  0  0  0
   -5.7620    7.2763   -1.8900 H   0  0  0  0  0  0  0  0  0  0  0  0
   -4.5410    5.8730   -0.5080 H   0  0  0  0  0  0  0  0  0  0  0  0
   -4.6640    9.0124   -3.5478 H   0  0  0  0  0  0  0  0  0  0  0  0
   -3.1728    8.3450   -4.2946 H   0  0  0  0  0  0  0  0  0  0  0  0
   -4.6872    7.3789   -4.2946 H   0  0  0  0  0  0  0  0  0  0  0  0
   -3.3795    5.4219   -1.6761 H   0  0  0  0  0  0  0  0  0  0  0  0
   -4.3072    5.5582   -3.2082 H   0  0  0  0  0  0  0  0  0  0  0  0
   -2.5300    5.8190   -3.2082 H   0  0  0  0  0  0  0  0  0  0  0  0
   -1.5813   10.8081    1.3833 H   0  0  0  0  0  0  0  0  0  0  0  0
   -1.6699    9.0597    0.9811 H   0  0  0  0  0  0  0  0  0  0  0  0
   -0.0834    9.9020    0.9811 H   0  0  0  0  0  0  0  0  0  0  0  0
   -2.6325   12.1146   -0.6395 H   0  0  0  0  0  0  0  0  0  0  0  0
   -0.8921   12.3372   -0.0431 H   0  0  0  0  0  0  0  0  0  0  0  0
   -1.8803   12.3504   -2.9084 H   0  0  0  0  0  0  0  0  0  0  0  0
   -1.1747   13.7120   -1.9518 H   0  0  0  0  0  0  0  0  0  0  0  0
    0.8207   12.4846   -0.4568 H   0  0  0  0  0  0  0  0  0  0  0  0
    2.1980   12.1431   -1.5582 H   0  0  0  0  0  0  0  0  0  0  0  0
    1.4292   13.7666   -1.5582 H   0  0  0  0  0  0  0  0  0  0  0  0
  1  2  1  0
  2  3  1  0
  3  4  1  0
  4  5  1  0
  5  6  1  0
  6  7  1  0
  7  8  1  0
  7  9  1  0
  2 10  1  0
 10 11  1  0
 11 12  1  0
 12 13  1  0
 13 14  1  6
 13 15  1  0
 15 16  1  0
 16 17  1  0
 17 18  2  0
 18 19  1  0
 19 20  1  0
 20 21  1  0
 21 22  1  0
 22 23  1  0
 22 24  1  0
 24 25  1  0
 24 26  1  0
 19 27  1  0
 27 28  1  1
 27 29  1  0
 29 30  1  0
 30 31  1  0
 31 32  1  1
  7  5  1  0
 31 10  1  0
 31 13  1  0
 27 15  1  0
 24 18  1  0
  1 33  1  0
  1 34  1  0
  1 35  1  0
  2 36  1  6
  3 37  1  0
  3 38  1  0
  4 39  1  0
  4 40  1  0
  5 41  1  1
  8 42  1  0
  8 43  1  0
  8 44  1  0
  9 45  1  0
  9 46  1  0
  9 47  1  0
 10 48  1  6
 11 49  1  0
 11 50  1  0
 12 51  1  0
 12 52  1  0
 14 53  1  0
 14 54  1  0
 14 55  1  0
 15 56  1  1
 16 57  1  0
 16 58  1  0
 17 59  1  0
 19 60  1  6
 20 61  1  0
 20 62  1  0
 21 63  1  0
 21 64  1  0
 22 65  1  6
 23 66  1  0
 25 67  1  0
 25 68  1  0
 25 69  1  0
 26 70  1  0
 26 71  1  0
 26 72  1  0
 28 73  1  0
 28 74  1  0
 28 75  1  0
 29 76  1  0
 29 77  1  0
 30 78  1  0
 30 79  1  0
 32 80  1  0
 32 81  1  0
 32 82  1  0
M  END
>  <meeko>  (15) 
{"is_sidechain": [false], "intermolecular_energy": 2.731, "internal_energy": -0.839}

$$$$
EPH_relaxed_0001_pdb2pqr_Repair_82_r2_0001_out
     RDKit          3D

 82 86  0  0  0  0  0  0  0  0999 V2000
    2.9670   18.9870   -0.9220 C   0  0  0  0  0  0  0  0  0  0  0  0
    2.7130   17.9670   -2.0350 C   0  0  2  0  0  0  0  0  0  0  0  0
    1.3330   18.1610   -2.6960 C   0  0  0  0  0  0  0  0  0  0  0  0
    0.5880   19.4070   -2.2110 C   0  0  0  0  0  0  0  0  0  0  0  0
   -0.7650   19.0660   -1.6630 C   0  0  2  0  0  0  0  0  0  0  0  0
   -1.6160   20.1940   -1.4250 O   0  0  0  0  0  0  0  0  0  0  0  0
   -1.2210   19.4430   -0.2660 C   0  0  0  0  0  0  0  0  0  0  0  0
   -0.3270   20.1950    0.6700 C   0  0  0  0  0  0  0  0  0  0  0  0
   -2.3370   18.6640    0.3570 C   0  0  0  0  0  0  0  0  0  0  0  0
    2.8300   16.5520   -1.4810 C   0  0  1  0  0  0  0  0  0  0  0  0
    3.4390   16.5180   -0.0540 C   0  0  0  0  0  0  0  0  0  0  0  0
    2.7420   15.3590    0.7030 C   0  0  0  0  0  0  0  0  0  0  0  0
    2.0070   14.5610   -0.3990 C   0  0  1  0  0  0  0  0  0  0  0  0
    3.1040   13.6520   -1.0370 C   0  0  0  0  0  0  0  0  0  0  0  0
    0.7650   13.7290    0.0620 C   0  0  2  0  0  0  0  0  0  0  0  0
    1.0680   12.6110    1.0740 C   0  0  0  0  0  0  0  0  0  0  0  0
    1.3860   11.2800    0.4770 C   0  0  0  0  0  0  0  0  0  0  0  0
    1.1510   10.9180   -0.7980 C   0  0  0  0  0  0  0  0  0  0  0  0
    0.4170   11.8600   -1.7610 C   0  0  1  0  0  0  0  0  0  0  0  0
   -0.6730   11.0670   -2.5290 C   0  0  0  0  0  0  0  0  0  0  0  0
   -0.1140    9.8340   -3.2320 C   0  0  0  0  0  0  0  0  0  0  0  0
    0.5560    8.8940   -2.2330 C   0  0  2  0  0  0  0  0  0  0  0  0
   -0.4430    8.3590   -1.3610 O   0  0  0  0  0  0  0  0  0  0  0  0
    1.6670    9.5850   -1.3930 C   0  0  0  0  0  0  0  0  0  0  0  0
    2.8860    9.8950   -2.2970 C   0  0  0  0  0  0  0  0  0  0  0  0
    2.1640    8.5680   -0.3300 C   0  0  0  0  0  0  0  0  0  0  0  0
   -0.1410   13.2050   -1.1250 C   0  0  1  0  0  0  0  0  0  0  0  0
   -1.5610   12.9630   -0.5280 C   0  0  0  0  0  0  0  0  0  0  0  0
   -0.3150   14.2780   -2.2640 C   0  0  0  0  0  0  0  0  0  0  0  0
    0.9130   15.1500   -2.5910 C   0  0  0  0  0  0  0  0  0  0  0  0
    1.5200   15.7420   -1.3160 C   0  0  2  0  0  0  0  0  0  0  0  0
    0.4470   16.6780   -0.6640 C   0  0  0  0  0  0  0  0  0  0  0  0
    2.8456   18.4997    0.0567 H   0  0  0  0  0  0  0  0  0  0  0  0
    3.9905   19.3801   -1.0115 H   0  0  0  0  0  0  0  0  0  0  0  0
    2.2474   19.8141   -1.0115 H   0  0  0  0  0  0  0  0  0  0  0  0
    3.4767   18.1267   -2.8104 H   0  0  0  0  0  0  0  0  0  0  0  0
    1.4774   18.2440   -3.7833 H   0  0  0  0  0  0  0  0  0  0  0  0
    0.7190   17.2913   -2.4192 H   0  0  0  0  0  0  0  0  0  0  0  0
    1.1806   19.8918   -1.4212 H   0  0  0  0  0  0  0  0  0  0  0  0
    0.4503   20.0802   -3.0700 H   0  0  0  0  0  0  0  0  0  0  0  0
   -0.7711   18.1108   -2.2085 H   0  0  0  0  0  0  0  0  0  0  0  0
   -0.6043   19.9618    1.7086 H   0  0  0  0  0  0  0  0  0  0  0  0
    0.7183   19.9006    0.4946 H   0  0  0  0  0  0  0  0  0  0  0  0
   -0.4380   21.2752    0.4946 H   0  0  0  0  0  0  0  0  0  0  0  0
   -2.2564   18.7202    1.4526 H   0  0  0  0  0  0  0  0  0  0  0  0
   -3.3014   19.0861    0.0381 H   0  0  0  0  0  0  0  0  0  0  0  0
   -2.2733   17.6132    0.0381 H   0  0  0  0  0  0  0  0  0  0  0  0
    3.4562   16.0988   -2.2637 H   0  0  0  0  0  0  0  0  0  0  0  0
    4.5226   16.3368   -0.1090 H   0  0  0  0  0  0  0  0  0  0  0  0
    3.2852   17.4763    0.4636 H   0  0  0  0  0  0  0  0  0  0  0  0
    3.4837   14.7259    1.2120 H   0  0  0  0  0  0  0  0  0  0  0  0
    2.0567   15.7222    1.4830 H   0  0  0  0  0  0  0  0  0  0  0  0
    3.6881   13.1680   -0.2403 H   0  0  0  0  0  0  0  0  0  0  0  0
    2.6254   12.8821   -1.6601 H   0  0  0  0  0  0  0  0  0  0  0  0
    3.7715   14.2653   -1.6601 H   0  0  0  0  0  0  0  0  0  0  0  0
    0.1716   14.4752    0.6106 H   0  0  0  0  0  0  0  0  0  0  0  0
    1.9297   12.9261    1.6808 H   0  0  0  0  0  0  0  0  0  0  0  0
    0.1463   12.4706    1.6577 H   0  0  0  0  0  0  0  0  0  0  0  0
    1.8519   10.5316    1.1350 H   0  0  0  0  0  0  0  0  0  0  0  0
    1.1774   12.2284   -2.4654 H   0  0  0  0  0  0  0  0  0  0  0  0
   -1.4447   10.7456   -1.8140 H   0  0  0  0  0  0  0  0  0  0  0  0
   -1.0877   11.7319   -3.3010 H   0  0  0  0  0  0  0  0  0  0  0  0
   -0.9360    9.3011   -3.7324 H   0  0  0  0  0  0  0  0  0  0  0  0
    0.6371   10.1589   -3.9670 H   0  0  0  0  0  0  0  0  0  0  0  0
    1.0477    8.0964   -2.8093 H   0  0  0  0  0  0  0  0  0  0  0  0
   -0.5090    7.4050   -1.5380 H   0  0  0  0  0  0  0  0  0  0  0  0
    3.7611   10.1176   -1.6688 H   0  0  0  0  0  0  0  0  0  0  0  0
    3.1026    9.0234   -2.9321 H   0  0  0  0  0  0  0  0  0  0  0  0
    2.6599   10.7642   -2.9321 H   0  0  0  0  0  0  0  0  0  0  0  0
    1.9696    8.9657    0.6770 H   0  0  0  0  0  0  0  0  0  0  0  0
    1.6303    7.6146   -0.4570 H   0  0  0  0  0  0  0  0  0  0  0  0
    3.2442    8.4033   -0.4570 H   0  0  0  0  0  0  0  0  0  0  0  0
   -1.5035   12.9728    0.5705 H   0  0  0  0  0  0  0  0  0  0  0  0
   -2.2415   13.7581   -0.8666 H   0  0  0  0  0  0  0  0  0  0  0  0
   -1.9397   11.9874   -0.8666 H   0  0  0  0  0  0  0  0  0  0  0  0
   -0.5985   13.7445   -3.1832 H   0  0  0  0  0  0  0  0  0  0  0  0
   -1.0732   14.9792   -1.8853 H   0  0  0  0  0  0  0  0  0  0  0  0
    1.6694   14.5313   -3.0960 H   0  0  0  0  0  0  0  0  0  0  0  0
    0.5930   15.9759   -3.2433 H   0  0  0  0  0  0  0  0  0  0  0  0
    0.5212   16.6133    0.4316 H   0  0  0  0  0  0  0  0  0  0  0  0
    0.6235   17.7159   -0.9828 H   0  0  0  0  0  0  0  0  0  0  0  0
   -0.5573   16.3622   -0.9828 H   0  0  0  0  0  0  0  0  0  0  0  0
  1  2  1  0
  2  3  1  0
  3  4  1  0
  4  5  1  0
  5  6  1  0
  6  7  1  0
  7  8  1  0
  7  9  1  0
  2 10  1  0
 10 11  1  0
 11 12  1  0
 12 13  1  0
 13 14  1  6
 13 15  1  0
 15 16  1  0
 16 17  1  0
 17 18  2  0
 18 19  1  0
 19 20  1  0
 20 21  1  0
 21 22  1  0
 22 23  1  0
 22 24  1  0
 24 25  1  0
 24 26  1  0
 19 27  1  0
 27 28  1  1
 27 29  1  0
 29 30  1  0
 30 31  1  0
 31 32  1  1
  7  5  1  0
 31 10  1  0
 31 13  1  0
 27 15  1  0
 24 18  1  0
  1 33  1  0
  1 34  1  0
  1 35  1  0
  2 36  1  6
  3 37  1  0
  3 38  1  0
  4 39  1  0
  4 40  1  0
  5 41  1  6
  8 42  1  0
  8 43  1  0
  8 44  1  0
  9 45  1  0
  9 46  1  0
  9 47  1  0
 10 48  1  6
 11 49  1  0
 11 50  1  0
 12 51  1  0
 12 52  1  0
 14 53  1  0
 14 54  1  0
 14 55  1  0
 15 56  1  1
 16 57  1  0
 16 58  1  0
 17 59  1  0
 19 60  1  6
 20 61  1  0
 20 62  1  0
 21 63  1  0
 21 64  1  0
 22 65  1  6
 23 66  1  0
 25 67  1  0
 25 68  1  0
 25 69  1  0
 26 70  1  0
 26 71  1  0
 26 72  1  0
 28 73  1  0
 28 74  1  0
 28 75  1  0
 29 76  1  0
 29 77  1  0
 30 78  1  0
 30 79  1  0
 32 80  1  0
 32 81  1  0
 32 82  1  0
M  END
>  <meeko>  (16) 
{"is_sidechain": [false], "intermolecular_energy": 2.731, "internal_energy": -0.839}

$$$$
