EPH_relaxed_0001_pdb2pqr_Repair_76_r2_0001_out
     RDKit          3D

 82 86  0  0  0  0  0  0  0  0999 V2000
    1.9890   19.9500   -0.8550 C   0  0  0  0  0  0  0  0  0  0  0  0
    1.9140   18.8770    0.2350 C   0  0  2  0  0  0  0  0  0  0  0  0
    3.3110   18.4340    0.7110 C   0  0  0  0  0  0  0  0  0  0  0  0
    3.9140   19.3460    1.7840 C   0  0  0  0  0  0  0  0  0  0  0  0
    4.6100   18.5600    2.8530 C   0  0  2  0  0  0  0  0  0  0  0  0
    4.7090   19.2260    4.1180 O   0  0  0  0  0  0  0  0  0  0  0  0
    5.9490   18.9560    3.4450 C   0  0  0  0  0  0  0  0  0  0  0  0
    6.6730   20.1830    2.9870 C   0  0  0  0  0  0  0  0  0  0  0  0
    6.7780   17.9020    4.1100 C   0  0  0  0  0  0  0  0  0  0  0  0
    1.1310   17.6730   -0.2760 C   0  0  1  0  0  0  0  0  0  0  0  0
    0.1270   18.0450   -1.3990 C   0  0  0  0  0  0  0  0  0  0  0  0
    0.0870   16.8440   -2.3790 C   0  0  0  0  0  0  0  0  0  0  0  0
    0.8030   15.7000   -1.6230 C   0  0  1  0  0  0  0  0  0  0  0  0
   -0.2790   15.1140   -0.6620 C   0  0  0  0  0  0  0  0  0  0  0  0
    1.4520   14.5870   -2.5090 C   0  0  2  0  0  0  0  0  0  0  0  0
    0.4650   13.7860   -3.3760 C   0  0  0  0  0  0  0  0  0  0  0  0
   -0.0950   12.5580   -2.7370 C   0  0  0  0  0  0  0  0  0  0  0  0
    0.3920   11.9590   -1.6340 C   0  0  0  0  0  0  0  0  0  0  0  0
    1.6790   12.4620   -0.9680 C   0  0  1  0  0  0  0  0  0  0  0  0
    2.6030   11.2570   -0.6490 C   0  0  0  0  0  0  0  0  0  0  0  0
    1.8990   10.1840    0.1760 C   0  0  0  0  0  0  0  0  0  0  0  0
    0.6570    9.6670   -0.5460 C   0  0  2  0  0  0  0  0  0  0  0  0
    1.0670    8.9680   -1.7250 O   0  0  0  0  0  0  0  0  0  0  0  0
   -0.3430   10.7940   -0.9260 C   0  0  0  0  0  0  0  0  0  0  0  0
   -1.0140   11.3490    0.3540 C   0  0  0  0  0  0  0  0  0  0  0  0
   -1.4800   10.1580   -1.7710 C   0  0  0  0  0  0  0  0  0  0  0  0
    2.4420   13.6310   -1.7280 C   0  0  1  0  0  0  0  0  0  0  0  0
    3.4130   13.0310   -2.7900 C   0  0  0  0  0  0  0  0  0  0  0  0
    3.3400   14.4140   -0.6980 C   0  0  0  0  0  0  0  0  0  0  0  0
    2.6750   15.5790    0.0590 C   0  0  0  0  0  0  0  0  0  0  0  0
    1.9420   16.5140   -0.9080 C   0  0  2  0  0  0  0  0  0  0  0  0
    3.0090   17.1350   -1.8730 C   0  0  0  0  0  0  0  0  0  0  0  0
    2.0584   20.9433   -0.3875 H   0  0  0  0  0  0  0  0  0  0  0  0
    2.8772   19.7761   -1.4802 H   0  0  0  0  0  0  0  0  0  0  0  0
    1.0853   19.9013   -1.4802 H   0  0  0  0  0  0  0  0  0  0  0  0
    1.3964   19.3181    1.0995 H   0  0  0  0  0  0  0  0  0  0  0  0
    3.2310   17.4176    1.1241 H   0  0  0  0  0  0  0  0  0  0  0  0
    3.9780   18.4808   -0.1625 H   0  0  0  0  0  0  0  0  0  0  0  0
    4.6398   20.0228    1.3096 H   0  0  0  0  0  0  0  0  0  0  0  0
    3.0951   19.9115    2.2527 H   0  0  0  0  0  0  0  0  0  0  0  0
    4.2413   17.6141    2.4297 H   0  0  0  0  0  0  0  0  0  0  0  0
    7.0117   20.7570    3.8621 H   0  0  0  0  0  0  0  0  0  0  0  0
    7.5433   19.8905    2.3811 H   0  0  0  0  0  0  0  0  0  0  0  0
    5.9962   20.8034    2.3811 H   0  0  0  0  0  0  0  0  0  0  0  0
    6.6962   18.0060    5.2020 H   0  0  0  0  0  0  0  0  0  0  0  0
    6.4176   16.9075    3.8083 H   0  0  0  0  0  0  0  0  0  0  0  0
    7.8295   18.0180    3.8083 H   0  0  0  0  0  0  0  0  0  0  0  0
    0.6699   17.3402    0.6656 H   0  0  0  0  0  0  0  0  0  0  0  0
   -0.8717   18.2189   -0.9719 H   0  0  0  0  0  0  0  0  0  0  0  0
    0.4353   18.9660   -1.9153 H   0  0  0  0  0  0  0  0  0  0  0  0
   -0.9518   16.5660   -2.6105 H   0  0  0  0  0  0  0  0  0  0  0  0
    0.5686   17.0740   -3.3409 H   0  0  0  0  0  0  0  0  0  0  0  0
    0.0282   15.2804    0.3810 H   0  0  0  0  0  0  0  0  0  0  0  0
   -1.2415   15.6141   -0.8450 H   0  0  0  0  0  0  0  0  0  0  0  0
   -0.3860   14.0346   -0.8450 H   0  0  0  0  0  0  0  0  0  0  0  0
    2.0624   15.1720   -3.2127 H   0  0  0  0  0  0  0  0  0  0  0  0
   -0.3749   14.4478   -3.6343 H   0  0  0  0  0  0  0  0  0  0  0  0
    1.0383   13.4401   -4.2487 H   0  0  0  0  0  0  0  0  0  0  0  0
   -0.9801   12.1046   -3.2072 H   0  0  0  0  0  0  0  0  0  0  0  0
    1.3662   12.9501   -0.0332 H   0  0  0  0  0  0  0  0  0  0  0  0
    2.9394   10.8099   -1.5961 H   0  0  0  0  0  0  0  0  0  0  0  0
    3.4500   11.6327   -0.0561 H   0  0  0  0  0  0  0  0  0  0  0  0
    2.5923    9.3467    0.3440 H   0  0  0  0  0  0  0  0  0  0  0  0
    1.5892   10.6256    1.1347 H   0  0  0  0  0  0  0  0  0  0  0  0
    0.1260    8.9978    0.1470 H   0  0  0  0  0  0  0  0  0  0  0  0
    1.3290    8.0710   -1.4600 H   0  0  0  0  0  0  0  0  0  0  0  0
   -0.5122   10.9339    1.2405 H   0  0  0  0  0  0  0  0  0  0  0  0
   -0.9309   12.4458    0.3655 H   0  0  0  0  0  0  0  0  0  0  0  0
   -2.0757   11.0616    0.3655 H   0  0  0  0  0  0  0  0  0  0  0  0
   -2.2410    9.7323   -1.1004 H   0  0  0  0  0  0  0  0  0  0  0  0
   -1.9407   10.9294   -2.4056 H   0  0  0  0  0  0  0  0  0  0  0  0
   -1.0638    9.3617   -2.4056 H   0  0  0  0  0  0  0  0  0  0  0  0
    4.2423   12.5185   -2.2805 H   0  0  0  0  0  0  0  0  0  0  0  0
    2.8688   12.3115   -3.4194 H   0  0  0  0  0  0  0  0  0  0  0  0
    3.8130   13.8396   -3.4194 H   0  0  0  0  0  0  0  0  0  0  0  0
    3.6955   13.6907    0.0506 H   0  0  0  0  0  0  0  0  0  0  0  0
    4.1324   14.8791   -1.3028 H   0  0  0  0  0  0  0  0  0  0  0  0
    1.9534   15.1725    0.7829 H   0  0  0  0  0  0  0  0  0  0  0  0
    3.4577   16.1532    0.5765 H   0  0  0  0  0  0  0  0  0  0  0  0
    3.8107   17.6016   -1.2817 H   0  0  0  0  0  0  0  0  0  0  0  0
    3.4345   16.3434   -2.5074 H   0  0  0  0  0  0  0  0  0  0  0  0
    2.5309   17.8959   -2.5074 H   0  0  0  0  0  0  0  0  0  0  0  0
  1  2  1  0
  2  3  1  0
  3  4  1  0
  4  5  1  0
  5  6  1  0
  6  7  1  0
  7  8  1  0
  7  9  1  0
  2 10  1  0
 10 11  1  0
 11 12  1  0
 12 13  1  0
 13 14  1  1
 13 15  1  0
 15 16  1  0
 16 17  1  0
 17 18  2  0
 18 19  1  0
 19 20  1  0
 20 21  1  0
 21 22  1  0
 22 23  1  0
 22 24  1  0
 24 25  1  0
 24 26  1  0
 19 27  1  0
 27 28  1  6
 27 29  1  0
 29 30  1  0
 30 31  1  0
 31 32  1  6
  7  5  1  0
 31 10  1  0
 31 13  1  0
 27 15  1  0
 24 18  1  0
  1 33  1  0
  1 34  1  0
  1 35  1  0
  2 36  1  1
  3 37  1  0
  3 38  1  0
  4 39  1  0
  4 40  1  0
  5 41  1  1
  8 42  1  0
  8 43  1  0
  8 44  1  0
  9 45  1  0
  9 46  1  0
  9 47  1  0
 10 48  1  1
 11 49  1  0
 11 50  1  0
 12 51  1  0
 12 52  1  0
 14 53  1  0
 14 54  1  0
 14 55  1  0
 15 56  1  6
 16 57  1  0
 16 58  1  0
 17 59  1  0
 19 60  1  1
 20 61  1  0
 20 62  1  0
 21 63  1  0
 21 64  1  0
 22 65  1  1
 23 66  1  0
 25 67  1  0
 25 68  1  0
 25 69  1  0
 26 70  1  0
 26 71  1  0
 26 72  1  0
 28 73  1  0
 28 74  1  0
 28 75  1  0
 29 76  1  0
 29 77  1  0
 30 78  1  0
 30 79  1  0
 32 80  1  0
 32 81  1  0
 32 82  1  0
M  END
>  <meeko>  (1) 
{"is_sidechain": [false], "intermolecular_energy": 2.731, "internal_energy": -0.839}

$$$$
EPH_relaxed_0001_pdb2pqr_Repair_76_r2_0001_out
     RDKit          3D

 82 86  0  0  0  0  0  0  0  0999 V2000
    1.3730   20.0580   -1.5160 C   0  0  0  0  0  0  0  0  0  0  0  0
    1.1650   18.9980   -0.4310 C   0  0  2  0  0  0  0  0  0  0  0  0
    2.4570   18.7180    0.3640 C   0  0  0  0  0  0  0  0  0  0  0  0
    2.7580   19.7660    1.4390 C   0  0  0  0  0  0  0  0  0  0  0  0
    4.1900   19.7150    1.8770 C   0  0  2  0  0  0  0  0  0  0  0  0
    4.5570   18.5240    2.5860 O   0  0  0  0  0  0  0  0  0  0  0  0
    4.6210   19.7510    3.3320 C   0  0  0  0  0  0  0  0  0  0  0  0
    3.6200   19.8420    4.4400 C   0  0  0  0  0  0  0  0  0  0  0  0
    6.0160   20.1880    3.6540 C   0  0  0  0  0  0  0  0  0  0  0  0
    0.6490   17.7070   -1.0570 C   0  0  1  0  0  0  0  0  0  0  0  0
    0.0830   17.9220   -2.4860 C   0  0  0  0  0  0  0  0  0  0  0  0
    0.4240   16.6460   -3.2980 C   0  0  0  0  0  0  0  0  0  0  0  0
    0.8750   15.6160   -2.2360 C   0  0  1  0  0  0  0  0  0  0  0  0
   -0.4520   15.0390   -1.6490 C   0  0  0  0  0  0  0  0  0  0  0  0
    1.8270   14.4810   -2.7350 C   0  0  2  0  0  0  0  0  0  0  0  0
    1.2290   13.5500   -3.8040 C   0  0  0  0  0  0  0  0  0  0  0  0
    0.5250   12.3430   -3.2770 C   0  0  0  0  0  0  0  0  0  0  0  0
    0.6210   11.8680   -2.0210 C   0  0  0  0  0  0  0  0  0  0  0  0
    1.5810   12.5060   -1.0080 C   0  0  1  0  0  0  0  0  0  0  0  0
    2.3790   11.3930   -0.2780 C   0  0  0  0  0  0  0  0  0  0  0  0
    1.4710   10.3450    0.3580 C   0  0  0  0  0  0  0  0  0  0  0  0
    0.5730    9.6920   -0.6890 C   0  0  2  0  0  0  0  0  0  0  0  0
    1.3880    8.9300   -1.5850 O   0  0  0  0  0  0  0  0  0  0  0  0
   -0.2720   10.7170   -1.4960 C   0  0  0  0  0  0  0  0  0  0  0  0
   -1.3630   11.3270   -0.5810 C   0  0  0  0  0  0  0  0  0  0  0  0
   -1.0250    9.9420   -2.6110 C   0  0  0  0  0  0  0  0  0  0  0  0
    2.5190   13.6580   -1.5730 C   0  0  1  0  0  0  0  0  0  0  0  0
    3.8170   13.0400   -2.1770 C   0  0  0  0  0  0  0  0  0  0  0  0
    2.9790   14.5780   -0.3810 C   0  0  0  0  0  0  0  0  0  0  0  0
    2.0530   15.7540   -0.0130 C   0  0  0  0  0  0  0  0  0  0  0  0
    1.6680   16.5580   -1.2590 C   0  0  2  0  0  0  0  0  0  0  0  0
    2.9800   17.1690   -1.8580 C   0  0  0  0  0  0  0  0  0  0  0  0
    1.5643   21.0331   -1.0441 H   0  0  0  0  0  0  0  0  0  0  0  0
    2.2334   19.7783   -2.1417 H   0  0  0  0  0  0  0  0  0  0  0  0
    0.4707   20.1242   -2.1417 H   0  0  0  0  0  0  0  0  0  0  0  0
    0.4207   19.3917    0.2768 H   0  0  0  0  0  0  0  0  0  0  0  0
    2.3582   17.7376    0.8529 H   0  0  0  0  0  0  0  0  0  0  0  0
    3.2892   18.7469   -0.3548 H   0  0  0  0  0  0  0  0  0  0  0  0
    2.5451   20.7655    1.0320 H   0  0  0  0  0  0  0  0  0  0  0  0
    2.1244   19.5530    2.3126 H   0  0  0  0  0  0  0  0  0  0  0  0
    4.5043   20.2993    0.9996 H   0  0  0  0  0  0  0  0  0  0  0  0
    4.1396   19.7948    5.4084 H   0  0  0  0  0  0  0  0  0  0  0  0
    3.0735   20.7935    4.3632 H   0  0  0  0  0  0  0  0  0  0  0  0
    2.9109   19.0046    4.3632 H   0  0  0  0  0  0  0  0  0  0  0  0
    6.1448   20.2284    4.7457 H   0  0  0  0  0  0  0  0  0  0  0  0
    6.7326   19.4713    3.2265 H   0  0  0  0  0  0  0  0  0  0  0  0
    6.1957   21.1855    3.2265 H   0  0  0  0  0  0  0  0  0  0  0  0
   -0.0965   17.4196   -0.3009 H   0  0  0  0  0  0  0  0  0  0  0  0
   -1.0069   18.0647   -2.4444 H   0  0  0  0  0  0  0  0  0  0  0  0
    0.5199   18.8167   -2.9537 H   0  0  0  0  0  0  0  0  0  0  0  0
   -0.4615   16.2825   -3.8399 H   0  0  0  0  0  0  0  0  0  0  0  0
    1.1992   16.8293   -4.0566 H   0  0  0  0  0  0  0  0  0  0  0  0
   -0.4061   15.0590   -0.5501 H   0  0  0  0  0  0  0  0  0  0  0  0
   -1.3005   15.6494   -1.9917 H   0  0  0  0  0  0  0  0  0  0  0  0
   -0.5842   14.0021   -1.9917 H   0  0  0  0  0  0  0  0  0  0  0  0
    2.6219   15.0466   -3.2432 H   0  0  0  0  0  0  0  0  0  0  0  0
    0.5082   14.1321   -4.3969 H   0  0  0  0  0  0  0  0  0  0  0  0
    2.0801   13.1740   -4.3906 H   0  0  0  0  0  0  0  0  0  0  0  0
   -0.1270   11.7959   -3.9739 H   0  0  0  0  0  0  0  0  0  0  0  0
    0.9484   13.0453   -0.2876 H   0  0  0  0  0  0  0  0  0  0  0  0
    3.0366   10.8952   -1.0058 H   0  0  0  0  0  0  0  0  0  0  0  0
    2.9559   11.8693    0.5284 H   0  0  0  0  0  0  0  0  0  0  0  0
    2.0922    9.5710    0.8324 H   0  0  0  0  0  0  0  0  0  0  0  0
    0.8345   10.8401    1.1061 H   0  0  0  0  0  0  0  0  0  0  0  0
   -0.1408    9.0473   -0.1553 H   0  0  0  0  0  0  0  0  0  0  0  0
    2.3170    9.1480   -1.3950 H   0  0  0  0  0  0  0  0  0  0  0  0
   -1.0866   11.1724    0.4724 H   0  0  0  0  0  0  0  0  0  0  0  0
   -1.4503   12.4048   -0.7828 H   0  0  0  0  0  0  0  0  0  0  0  0
   -2.3269   10.8369   -0.7828 H   0  0  0  0  0  0  0  0  0  0  0  0
   -1.7218    9.2248   -2.1526 H   0  0  0  0  0  0  0  0  0  0  0  0
   -1.5875   10.6519   -3.2352 H   0  0  0  0  0  0  0  0  0  0  0  0
   -0.2992    9.4002   -3.2352 H   0  0  0  0  0  0  0  0  0  0  0  0
    4.4849   12.7220   -1.3629 H   0  0  0  0  0  0  0  0  0  0  0  0
    3.5548   12.1701   -2.7971 H   0  0  0  0  0  0  0  0  0  0  0  0
    4.3270   13.7919   -2.7971 H   0  0  0  0  0  0  0  0  0  0  0  0
    3.0793   13.9418    0.5108 H   0  0  0  0  0  0  0  0  0  0  0  0
    3.9149   15.0446   -0.7223 H   0  0  0  0  0  0  0  0  0  0  0  0
    1.1401   15.3599    0.4575 H   0  0  0  0  0  0  0  0  0  0  0  0
    2.5878   16.4180    0.6820 H   0  0  0  0  0  0  0  0  0  0  0  0
    3.6466   17.4795   -1.0400 H   0  0  0  0  0  0  0  0  0  0  0  0
    3.4865   16.4141   -2.4774 H   0  0  0  0  0  0  0  0  0  0  0  0
    2.7282   18.0425   -2.4774 H   0  0  0  0  0  0  0  0  0  0  0  0
  1  2  1  0
  2  3  1  0
  3  4  1  0
  4  5  1  0
  5  6  1  0
  6  7  1  0
  7  8  1  0
  7  9  1  0
  2 10  1  0
 10 11  1  0
 11 12  1  0
 12 13  1  0
 13 14  1  1
 13 15  1  0
 15 16  1  0
 16 17  1  0
 17 18  2  0
 18 19  1  0
 19 20  1  0
 20 21  1  0
 21 22  1  0
 22 23  1  0
 22 24  1  0
 24 25  1  0
 24 26  1  0
 19 27  1  0
 27 28  1  6
 27 29  1  0
 29 30  1  0
 30 31  1  0
 31 32  1  6
  7  5  1  0
 31 10  1  0
 31 13  1  0
 27 15  1  0
 24 18  1  0
  1 33  1  0
  1 34  1  0
  1 35  1  0
  2 36  1  1
  3 37  1  0
  3 38  1  0
  4 39  1  0
  4 40  1  0
  5 41  1  6
  8 42  1  0
  8 43  1  0
  8 44  1  0
  9 45  1  0
  9 46  1  0
  9 47  1  0
 10 48  1  1
 11 49  1  0
 11 50  1  0
 12 51  1  0
 12 52  1  0
 14 53  1  0
 14 54  1  0
 14 55  1  0
 15 56  1  6
 16 57  1  0
 16 58  1  0
 17 59  1  0
 19 60  1  1
 20 61  1  0
 20 62  1  0
 21 63  1  0
 21 64  1  0
 22 65  1  1
 23 66  1  0
 25 67  1  0
 25 68  1  0
 25 69  1  0
 26 70  1  0
 26 71  1  0
 26 72  1  0
 28 73  1  0
 28 74  1  0
 28 75  1  0
 29 76  1  0
 29 77  1  0
 30 78  1  0
 30 79  1  0
 32 80  1  0
 32 81  1  0
 32 82  1  0
M  END
>  <meeko>  (2) 
{"is_sidechain": [false], "intermolecular_energy": 2.731, "internal_energy": -0.839}

$$$$
EPH_relaxed_0001_pdb2pqr_Repair_76_r2_0001_out
     RDKit          3D

 82 86  0  0  0  0  0  0  0  0999 V2000
    3.6440   18.1680    0.8780 C   0  0  0  0  0  0  0  0  0  0  0  0
    2.6700   18.6240   -0.2120 C   0  0  2  0  0  0  0  0  0  0  0  0
    1.8940   19.8920    0.1960 C   0  0  0  0  0  0  0  0  0  0  0  0
    0.7030   19.6150    1.1170 C   0  0  0  0  0  0  0  0  0  0  0  0
   -0.5730   20.1640    0.5540 C   0  0  2  0  0  0  0  0  0  0  0  0
   -1.6830   20.1480    1.4620 O   0  0  0  0  0  0  0  0  0  0  0  0
   -1.8050   19.3170    0.2960 C   0  0  0  0  0  0  0  0  0  0  0  0
   -1.8210   17.8510    0.5930 C   0  0  0  0  0  0  0  0  0  0  0  0
   -2.8170   19.8090   -0.6920 C   0  0  0  0  0  0  0  0  0  0  0  0
    1.6950   17.5000   -0.5420 C   0  0  1  0  0  0  0  0  0  0  0  0
    0.5700   17.9500   -1.5120 C   0  0  0  0  0  0  0  0  0  0  0  0
    0.2490   16.7350   -2.4190 C   0  0  0  0  0  0  0  0  0  0  0  0
    0.9520   15.5400   -1.7330 C   0  0  1  0  0  0  0  0  0  0  0  0
   -0.0200   15.1040   -0.5920 C   0  0  0  0  0  0  0  0  0  0  0  0
    1.3320   14.3380   -2.6580 C   0  0  2  0  0  0  0  0  0  0  0  0
    0.1420   13.6270   -3.3260 C   0  0  0  0  0  0  0  0  0  0  0  0
   -0.4360   12.4870   -2.5540 C   0  0  0  0  0  0  0  0  0  0  0  0
    0.1540   11.8690   -1.5140 C   0  0  0  0  0  0  0  0  0  0  0  0
    1.5760   12.2440   -1.0780 C   0  0  1  0  0  0  0  0  0  0  0  0
    2.4060   10.9530   -0.8520 C   0  0  0  0  0  0  0  0  0  0  0  0
    1.7340    9.9870    0.1190 C   0  0  0  0  0  0  0  0  0  0  0  0
    0.3460    9.5920   -0.3790 C   0  0  2  0  0  0  0  0  0  0  0  0
    0.4880    8.8200   -1.5750 O   0  0  0  0  0  0  0  0  0  0  0  0
   -0.5780   10.8120   -0.6510 C   0  0  0  0  0  0  0  0  0  0  0  0
   -0.9760   11.4730    0.6920 C   0  0  0  0  0  0  0  0  0  0  0  0
   -1.8950   10.2830   -1.2810 C   0  0  0  0  0  0  0  0  0  0  0  0
    2.3270   13.3000   -1.9970 C   0  0  1  0  0  0  0  0  0  0  0  0
    3.0490   12.5670   -3.1690 C   0  0  0  0  0  0  0  0  0  0  0  0
    3.4540   14.0060   -1.1540 C   0  0  0  0  0  0  0  0  0  0  0  0
    3.0430   15.2590   -0.3570 C   0  0  0  0  0  0  0  0  0  0  0  0
    2.2690   16.2420   -1.2400 C   0  0  2  0  0  0  0  0  0  0  0  0
    3.2290   16.7150   -2.3840 C   0  0  0  0  0  0  0  0  0  0  0  0
    3.2086   18.3718    1.8674 H   0  0  0  0  0  0  0  0  0  0  0  0
    3.8307   17.0889    0.7748 H   0  0  0  0  0  0  0  0  0  0  0  0
    4.5923   18.7157    0.7748 H   0  0  0  0  0  0  0  0  0  0  0  0
    3.2646   18.8735   -1.1032 H   0  0  0  0  0  0  0  0  0  0  0  0
    2.5859   20.5698    0.7174 H   0  0  0  0  0  0  0  0  0  0  0  0
    1.4905   20.3330   -0.7274 H   0  0  0  0  0  0  0  0  0  0  0  0
    0.5971   18.5277    1.2455 H   0  0  0  0  0  0  0  0  0  0  0  0
    0.8930   20.1094    2.0811 H   0  0  0  0  0  0  0  0  0  0  0  0
   -0.0178   20.8711   -0.0798 H   0  0  0  0  0  0  0  0  0  0  0  0
   -1.8227   17.6976    1.6822 H   0  0  0  0  0  0  0  0  0  0  0  0
   -2.7241   17.3985    0.1576 H   0  0  0  0  0  0  0  0  0  0  0  0
   -0.9280   17.3789    0.1576 H   0  0  0  0  0  0  0  0  0  0  0  0
   -3.6802   20.2287   -0.1546 H   0  0  0  0  0  0  0  0  0  0  0  0
   -2.3644   20.5876   -1.3236 H   0  0  0  0  0  0  0  0  0  0  0  0
   -3.1498   18.9721   -1.3236 H   0  0  0  0  0  0  0  0  0  0  0  0
    1.3575   17.2455    0.4736 H   0  0  0  0  0  0  0  0  0  0  0  0
   -0.3244   18.2453   -0.9438 H   0  0  0  0  0  0  0  0  0  0  0  0
    0.8878   18.8165   -2.1105 H   0  0  0  0  0  0  0  0  0  0  0  0
   -0.8368   16.5675   -2.4740 H   0  0  0  0  0  0  0  0  0  0  0  0
    0.5929   16.8838   -3.4532 H   0  0  0  0  0  0  0  0  0  0  0  0
    0.4433   15.3118    0.3838 H   0  0  0  0  0  0  0  0  0  0  0  0
   -0.9617   15.6659   -0.6779 H   0  0  0  0  0  0  0  0  0  0  0  0
   -0.2266   14.0270   -0.6779 H   0  0  0  0  0  0  0  0  0  0  0  0
    1.8811   14.8327   -3.4727 H   0  0  0  0  0  0  0  0  0  0  0  0
   -0.6539   14.3701   -3.4817 H   0  0  0  0  0  0  0  0  0  0  0  0
    0.5311   13.1954   -4.2599 H   0  0  0  0  0  0  0  0  0  0  0  0
   -1.4271   12.1216   -2.8610 H   0  0  0  0  0  0  0  0  0  0  0  0
    1.4692   12.7894   -0.1287 H   0  0  0  0  0  0  0  0  0  0  0  0
    2.5387   10.4455   -1.8189 H   0  0  0  0  0  0  0  0  0  0  0  0
    3.3706   11.2490   -0.4140 H   0  0  0  0  0  0  0  0  0  0  0  0
    2.3533    9.0829    0.2141 H   0  0  0  0  0  0  0  0  0  0  0  0
    1.6291   10.4850    1.0942 H   0  0  0  0  0  0  0  0  0  0  0  0
   -0.1356    9.0058    0.4175 H   0  0  0  0  0  0  0  0  0  0  0  0
    1.1520    9.2600   -2.1320 H   0  0  0  0  0  0  0  0  0  0  0  0
   -0.6064   10.8591    1.5266 H   0  0  0  0  0  0  0  0  0  0  0  0
   -0.5327   12.4780    0.7516 H   0  0  0  0  0  0  0  0  0  0  0  0
   -2.0716   11.5514    0.7516 H   0  0  0  0  0  0  0  0  0  0  0  0
   -2.5964   10.0013   -0.4819 H   0  0  0  0  0  0  0  0  0  0  0  0
   -2.3455   11.0699   -1.9037 H   0  0  0  0  0  0  0  0  0  0  0  0
   -1.6760    9.4031   -1.9037 H   0  0  0  0  0  0  0  0  0  0  0  0
    3.7657   11.8394   -2.7604 H   0  0  0  0  0  0  0  0  0  0  0  0
    2.3054   12.0420   -3.7867 H   0  0  0  0  0  0  0  0  0  0  0  0
    3.5852   13.3026   -3.7867 H   0  0  0  0  0  0  0  0  0  0  0  0
    3.8446   13.2688   -0.4371 H   0  0  0  0  0  0  0  0  0  0  0  0
    4.1862   14.3624   -1.8935 H   0  0  0  0  0  0  0  0  0  0  0  0
    2.4062   14.9555    0.4871 H   0  0  0  0  0  0  0  0  0  0  0  0
    3.9538   15.7572    0.0068 H   0  0  0  0  0  0  0  0  0  0  0  0
    4.1331   17.1604   -1.9433 H   0  0  0  0  0  0  0  0  0  0  0  0
    3.5110   15.8527   -3.0060 H   0  0  0  0  0  0  0  0  0  0  0  0
    2.7171   17.4640   -3.0060 H   0  0  0  0  0  0  0  0  0  0  0  0
  1  2  1  0
  2  3  1  0
  3  4  1  0
  4  5  1  0
  5  6  1  0
  6  7  1  0
  7  8  1  0
  7  9  1  0
  2 10  1  0
 10 11  1  0
 11 12  1  0
 12 13  1  0
 13 14  1  1
 13 15  1  0
 15 16  1  0
 16 17  1  0
 17 18  2  0
 18 19  1  0
 19 20  1  0
 20 21  1  0
 21 22  1  0
 22 23  1  0
 22 24  1  0
 24 25  1  0
 24 26  1  0
 19 27  1  0
 27 28  1  6
 27 29  1  0
 29 30  1  0
 30 31  1  0
 31 32  1  6
  7  5  1  0
 31 10  1  0
 31 13  1  0
 27 15  1  0
 24 18  1  0
  1 33  1  0
  1 34  1  0
  1 35  1  0
  2 36  1  6
  3 37  1  0
  3 38  1  0
  4 39  1  0
  4 40  1  0
  5 41  1  6
  8 42  1  0
  8 43  1  0
  8 44  1  0
  9 45  1  0
  9 46  1  0
  9 47  1  0
 10 48  1  1
 11 49  1  0
 11 50  1  0
 12 51  1  0
 12 52  1  0
 14 53  1  0
 14 54  1  0
 14 55  1  0
 15 56  1  6
 16 57  1  0
 16 58  1  0
 17 59  1  0
 19 60  1  1
 20 61  1  0
 20 62  1  0
 21 63  1  0
 21 64  1  0
 22 65  1  1
 23 66  1  0
 25 67  1  0
 25 68  1  0
 25 69  1  0
 26 70  1  0
 26 71  1  0
 26 72  1  0
 28 73  1  0
 28 74  1  0
 28 75  1  0
 29 76  1  0
 29 77  1  0
 30 78  1  0
 30 79  1  0
 32 80  1  0
 32 81  1  0
 32 82  1  0
M  END
>  <meeko>  (3) 
{"is_sidechain": [false], "intermolecular_energy": 2.731, "internal_energy": -0.839}

$$$$
EPH_relaxed_0001_pdb2pqr_Repair_76_r2_0001_out
     RDKit          3D

 82 86  0  0  0  0  0  0  0  0999 V2000
   -0.5380    7.7990   -2.2530 C   0  0  0  0  0  0  0  0  0  0  0  0
   -1.2550    8.4920   -1.0920 C   0  0  2  0  0  0  0  0  0  0  0  0
   -2.7170    8.8400   -1.4370 C   0  0  0  0  0  0  0  0  0  0  0  0
   -3.4120    7.7860   -2.3030 C   0  0  0  0  0  0  0  0  0  0  0  0
   -4.8690    7.6670   -1.9690 C   0  0  2  0  0  0  0  0  0  0  0  0
   -5.2670    6.3790   -1.4810 O   0  0  0  0  0  0  0  0  0  0  0  0
   -5.8330    6.7830   -2.7380 C   0  0  0  0  0  0  0  0  0  0  0  0
   -5.3790    5.9600   -3.9030 C   0  0  0  0  0  0  0  0  0  0  0  0
   -7.2970    7.0920   -2.6690 C   0  0  0  0  0  0  0  0  0  0  0  0
   -0.5000    9.7550   -0.6930 C   0  0  1  0  0  0  0  0  0  0  0  0
    0.6510    9.4710    0.3090 C   0  0  0  0  0  0  0  0  0  0  0  0
    1.7940   10.4610   -0.0310 C   0  0  0  0  0  0  0  0  0  0  0  0
    1.1470   11.4920   -0.9850 C   0  0  1  0  0  0  0  0  0  0  0  0
    0.3940   12.4880   -0.0490 C   0  0  0  0  0  0  0  0  0  0  0  0
    2.1170   12.2370   -1.9590 C   0  0  2  0  0  0  0  0  0  0  0  0
    3.1850   13.1090   -1.2750 C   0  0  0  0  0  0  0  0  0  0  0  0
    2.7900   14.5280   -1.0320 C   0  0  0  0  0  0  0  0  0  0  0  0
    1.7440   15.1560   -1.5990 C   0  0  0  0  0  0  0  0  0  0  0  0
    0.8880   14.4580   -2.6630 C   0  0  1  0  0  0  0  0  0  0  0  0
    0.6590   15.4210   -3.8580 C   0  0  0  0  0  0  0  0  0  0  0  0
    0.0730   16.7610   -3.4250 C   0  0  0  0  0  0  0  0  0  0  0  0
    0.9810   17.4520   -2.4110 C   0  0  2  0  0  0  0  0  0  0  0  0
    2.2040   17.8150   -3.0590 O   0  0  0  0  0  0  0  0  0  0  0  0
    1.2900   16.5720   -1.1670 C   0  0  0  0  0  0  0  0  0  0  0  0
    0.0150   16.4300   -0.3000 C   0  0  0  0  0  0  0  0  0  0  0  0
    2.3270   17.3290   -0.2930 C   0  0  0  0  0  0  0  0  0  0  0  0
    1.3900   13.0220   -3.1240 C   0  0  1  0  0  0  0  0  0  0  0  0
    2.4280   13.1670   -4.2790 C   0  0  0  0  0  0  0  0  0  0  0  0
    0.1730   12.2190   -3.7190 C   0  0  0  0  0  0  0  0  0  0  0  0
   -0.6760   11.4060   -2.7230 C   0  0  0  0  0  0  0  0  0  0  0  0
    0.2120   10.5440   -1.8210 C   0  0  2  0  0  0  0  0  0  0  0  0
    0.9660    9.5170   -2.7330 C   0  0  0  0  0  0  0  0  0  0  0  0
    0.1995    7.0862   -1.8554 H   0  0  0  0  0  0  0  0  0  0  0  0
   -1.2733    7.2605   -2.8690 H   0  0  0  0  0  0  0  0  0  0  0  0
   -0.0249    8.5522   -2.8690 H   0  0  0  0  0  0  0  0  0  0  0  0
   -1.2732    7.7874   -0.2475 H   0  0  0  0  0  0  0  0  0  0  0  0
   -3.2802    8.9443   -0.4979 H   0  0  0  0  0  0  0  0  0  0  0  0
   -2.6968    9.7728   -2.0197 H   0  0  0  0  0  0  0  0  0  0  0  0
   -3.3108    8.0705   -3.3607 H   0  0  0  0  0  0  0  0  0  0  0  0
   -2.9351    6.8139   -2.1090 H   0  0  0  0  0  0  0  0  0  0  0  0
   -4.9133    8.7260   -1.6749 H   0  0  0  0  0  0  0  0  0  0  0  0
   -4.8779    5.0517   -3.5372 H   0  0  0  0  0  0  0  0  0  0  0  0
   -6.2491    5.6780   -4.5140 H   0  0  0  0  0  0  0  0  0  0  0  0
   -4.6763    6.5456   -4.5140 H   0  0  0  0  0  0  0  0  0  0  0  0
   -7.6086    7.1578   -1.6161 H   0  0  0  0  0  0  0  0  0  0  0  0
   -7.4933    8.0514   -3.1701 H   0  0  0  0  0  0  0  0  0  0  0  0
   -7.8642    6.2938   -3.1701 H   0  0  0  0  0  0  0  0  0  0  0  0
   -1.3329   10.3478   -0.2870 H   0  0  0  0  0  0  0  0  0  0  0  0
    0.3040    9.6327    1.3402 H   0  0  0  0  0  0  0  0  0  0  0  0
    0.9946    8.4290    0.2309 H   0  0  0  0  0  0  0  0  0  0  0  0
    2.1644   10.9540    0.8799 H   0  0  0  0  0  0  0  0  0  0  0  0
    2.6598    9.9578   -0.4862 H   0  0  0  0  0  0  0  0  0  0  0  0
    0.5922   12.2258    1.0007 H   0  0  0  0  0  0  0  0  0  0  0  0
    0.7459   13.5118   -0.2440 H   0  0  0  0  0  0  0  0  0  0  0  0
   -0.6869   12.4285   -0.2440 H   0  0  0  0  0  0  0  0  0  0  0  0
    2.6642   11.4059   -2.4279 H   0  0  0  0  0  0  0  0  0  0  0  0
    3.4257   12.6521   -0.3038 H   0  0  0  0  0  0  0  0  0  0  0  0
    4.0381   13.1452   -1.9685 H   0  0  0  0  0  0  0  0  0  0  0  0
    3.4062   15.1091   -0.3301 H   0  0  0  0  0  0  0  0  0  0  0  0
   -0.0728   14.2301   -2.1784 H   0  0  0  0  0  0  0  0  0  0  0  0
    1.6235   15.6020   -4.3549 H   0  0  0  0  0  0  0  0  0  0  0  0
   -0.0632   14.9445   -4.5373 H   0  0  0  0  0  0  0  0  0  0  0  0
   -0.0379   17.4075   -4.3080 H   0  0  0  0  0  0  0  0  0  0  0  0
   -0.9049   16.5807   -2.9547 H   0  0  0  0  0  0  0  0  0  0  0  0
    0.4480   18.3409   -2.0426 H   0  0  0  0  0  0  0  0  0  0  0  0
    2.8760   17.1570   -2.8100 H   0  0  0  0  0  0  0  0  0  0  0  0
    0.2902   16.4607    0.7646 H   0  0  0  0  0  0  0  0  0  0  0  0
   -0.6749   17.2569   -0.5243 H   0  0  0  0  0  0  0  0  0  0  0  0
   -0.4761   15.4716   -0.5243 H   0  0  0  0  0  0  0  0  0  0  0  0
    2.1004   17.1636    0.7706 H   0  0  0  0  0  0  0  0  0  0  0  0
    3.3370   16.9543   -0.5153 H   0  0  0  0  0  0  0  0  0  0  0  0
    2.2779   18.4052   -0.5153 H   0  0  0  0  0  0  0  0  0  0  0  0
    3.4327   13.3073   -3.8536 H   0  0  0  0  0  0  0  0  0  0  0  0
    2.4160   12.2585   -4.8990 H   0  0  0  0  0  0  0  0  0  0  0  0
    2.1675   14.0375   -4.8990 H   0  0  0  0  0  0  0  0  0  0  0  0
   -0.4936   12.9419   -4.2120 H   0  0  0  0  0  0  0  0  0  0  0  0
    0.6214   11.4728   -4.3913 H   0  0  0  0  0  0  0  0  0  0  0  0
   -1.2589   12.0986   -2.0981 H   0  0  0  0  0  0  0  0  0  0  0  0
   -1.3454   10.7439   -3.2918 H   0  0  0  0  0  0  0  0  0  0  0  0
    1.4997    8.7901   -2.1031 H   0  0  0  0  0  0  0  0  0  0  0  0
    0.2398    8.9884   -3.3681 H   0  0  0  0  0  0  0  0  0  0  0  0
    1.6878   10.0515   -3.3681 H   0  0  0  0  0  0  0  0  0  0  0  0
  1  2  1  0
  2  3  1  0
  3  4  1  0
  4  5  1  0
  5  6  1  0
  6  7  1  0
  7  8  1  0
  7  9  1  0
  2 10  1  0
 10 11  1  0
 11 12  1  0
 12 13  1  0
 13 14  1  1
 13 15  1  0
 15 16  1  0
 16 17  1  0
 17 18  2  0
 18 19  1  0
 19 20  1  0
 20 21  1  0
 21 22  1  0
 22 23  1  0
 22 24  1  0
 24 25  1  0
 24 26  1  0
 19 27  1  0
 27 28  1  6
 27 29  1  0
 29 30  1  0
 30 31  1  0
 31 32  1  6
  7  5  1  0
 31 10  1  0
 31 13  1  0
 27 15  1  0
 24 18  1  0
  1 33  1  0
  1 34  1  0
  1 35  1  0
  2 36  1  1
  3 37  1  0
  3 38  1  0
  4 39  1  0
  4 40  1  0
  5 41  1  1
  8 42  1  0
  8 43  1  0
  8 44  1  0
  9 45  1  0
  9 46  1  0
  9 47  1  0
 10 48  1  1
 11 49  1  0
 11 50  1  0
 12 51  1  0
 12 52  1  0
 14 53  1  0
 14 54  1  0
 14 55  1  0
 15 56  1  6
 16 57  1  0
 16 58  1  0
 17 59  1  0
 19 60  1  1
 20 61  1  0
 20 62  1  0
 21 63  1  0
 21 64  1  0
 22 65  1  1
 23 66  1  0
 25 67  1  0
 25 68  1  0
 25 69  1  0
 26 70  1  0
 26 71  1  0
 26 72  1  0
 28 73  1  0
 28 74  1  0
 28 75  1  0
 29 76  1  0
 29 77  1  0
 30 78  1  0
 30 79  1  0
 32 80  1  0
 32 81  1  0
 32 82  1  0
M  END
>  <meeko>  (4) 
{"is_sidechain": [false], "intermolecular_energy": 2.731, "internal_energy": -0.839}

$$$$
EPH_relaxed_0001_pdb2pqr_Repair_76_r2_0001_out
     RDKit          3D

 82 86  0  0  0  0  0  0  0  0999 V2000
    1.9700   18.3800   -2.6160 C   0  0  0  0  0  0  0  0  0  0  0  0
    0.4490   18.2160   -2.6730 C   0  0  2  0  0  0  0  0  0  0  0  0
   -0.2340   18.6770   -1.3700 C   0  0  0  0  0  0  0  0  0  0  0  0
    0.4750   18.1980   -0.1000 C   0  0  0  0  0  0  0  0  0  0  0  0
    1.1770   19.3220    0.6000 C   0  0  2  0  0  0  0  0  0  0  0  0
    2.1450   20.0140   -0.1990 O   0  0  0  0  0  0  0  0  0  0  0  0
    2.6550   19.3020    0.9410 C   0  0  0  0  0  0  0  0  0  0  0  0
    3.5210   18.1330    0.5910 C   0  0  0  0  0  0  0  0  0  0  0  0
    3.1490   20.1940    2.0370 C   0  0  0  0  0  0  0  0  0  0  0  0
    0.0930   16.7620   -2.9610 C   0  0  1  0  0  0  0  0  0  0  0  0
   -0.2390   16.5120   -4.4560 C   0  0  0  0  0  0  0  0  0  0  0  0
    0.2810   15.0930   -4.7990 C   0  0  0  0  0  0  0  0  0  0  0  0
    0.5910   14.4490   -3.4270 C   0  0  1  0  0  0  0  0  0  0  0  0
   -0.7910   13.9520   -2.8970 C   0  0  0  0  0  0  0  0  0  0  0  0
    1.6550   13.3040   -3.4260 C   0  0  2  0  0  0  0  0  0  0  0  0
    1.2770   12.0600   -4.2490 C   0  0  0  0  0  0  0  0  0  0  0  0
    0.5450   10.9970   -3.4990 C   0  0  0  0  0  0  0  0  0  0  0  0
    0.4510   10.9080   -2.1600 C   0  0  0  0  0  0  0  0  0  0  0  0
    1.2060   11.8870   -1.2510 C   0  0  1  0  0  0  0  0  0  0  0  0
    1.9150   11.0990   -0.1180 C   0  0  0  0  0  0  0  0  0  0  0  0
    0.9570   10.2020    0.6590 C   0  0  0  0  0  0  0  0  0  0  0  0
    0.2700    9.2050   -0.2690 C   0  0  2  0  0  0  0  0  0  0  0  0
    1.2500    8.2920   -0.7720 O   0  0  0  0  0  0  0  0  0  0  0  0
   -0.4710    9.8820   -1.4560 C   0  0  0  0  0  0  0  0  0  0  0  0
   -1.7200   10.6320   -0.9300 C   0  0  0  0  0  0  0  0  0  0  0  0
   -0.9990    8.7620   -2.3920 C   0  0  0  0  0  0  0  0  0  0  0  0
    2.1780   12.9070   -1.9860 C   0  0  1  0  0  0  0  0  0  0  0  0
    3.5810   12.2550   -2.1860 C   0  0  0  0  0  0  0  0  0  0  0  0
    2.4000   14.1630   -1.0630 C   0  0  0  0  0  0  0  0  0  0  0  0
    1.3820   15.3110   -1.1960 C   0  0  0  0  0  0  0  0  0  0  0  0
    1.1760   15.6930   -2.6650 C   0  0  2  0  0  0  0  0  0  0  0  0
    2.5440   16.2180   -3.2200 C   0  0  0  0  0  0  0  0  0  0  0  0
    2.2959   18.4151   -1.5660 H   0  0  0  0  0  0  0  0  0  0  0  0
    2.4498   17.5284   -3.1205 H   0  0  0  0  0  0  0  0  0  0  0  0
    2.2572   19.3143   -3.1205 H   0  0  0  0  0  0  0  0  0  0  0  0
    0.0776   18.8577   -3.4856 H   0  0  0  0  0  0  0  0  0  0  0  0
   -0.2576   19.7767   -1.3607 H   0  0  0  0  0  0  0  0  0  0  0  0
   -1.2414   18.2352   -1.3616 H   0  0  0  0  0  0  0  0  0  0  0  0
   -0.2705   17.7633    0.5822 H   0  0  0  0  0  0  0  0  0  0  0  0
    1.2281   17.4501   -0.3889 H   0  0  0  0  0  0  0  0  0  0  0  0
    0.2832   19.5341    1.2051 H   0  0  0  0  0  0  0  0  0  0  0  0
    3.8776   17.6516    1.5136 H   0  0  0  0  0  0  0  0  0  0  0  0
    2.9393   17.4094    0.0011 H   0  0  0  0  0  0  0  0  0  0  0  0
    4.3827   18.4786    0.0011 H   0  0  0  0  0  0  0  0  0  0  0  0
    2.9021   19.7482    3.0119 H   0  0  0  0  0  0  0  0  0  0  0  0
    4.2396   20.3095    1.9522 H   0  0  0  0  0  0  0  0  0  0  0  0
    2.6682   21.1797    1.9522 H   0  0  0  0  0  0  0  0  0  0  0  0
   -0.7554   16.6402   -2.2716 H   0  0  0  0  0  0  0  0  0  0  0  0
   -1.3258   16.5661   -4.6167 H   0  0  0  0  0  0  0  0  0  0  0  0
    0.2329   17.2710   -5.0973 H   0  0  0  0  0  0  0  0  0  0  0  0
   -0.4880   14.5163   -5.3338 H   0  0  0  0  0  0  0  0  0  0  0  0
    1.1626   15.1193   -5.4563 H   0  0  0  0  0  0  0  0  0  0  0  0
   -0.7843   13.9544   -1.7970 H   0  0  0  0  0  0  0  0  0  0  0  0
   -1.5851   14.6209   -3.2603 H   0  0  0  0  0  0  0  0  0  0  0  0
   -0.9772   12.9306   -3.2603 H   0  0  0  0  0  0  0  0  0  0  0  0
    2.4998   13.7672   -3.9568 H   0  0  0  0  0  0  0  0  0  0  0  0
    0.6403   12.3860   -5.0847 H   0  0  0  0  0  0  0  0  0  0  0  0
    2.2269   11.6070   -4.5692 H   0  0  0  0  0  0  0  0  0  0  0  0
    0.0394   10.2204   -4.0917 H   0  0  0  0  0  0  0  0  0  0  0  0
    0.4435   12.5535   -0.8217 H   0  0  0  0  0  0  0  0  0  0  0  0
    2.7018   10.4724   -0.5634 H   0  0  0  0  0  0  0  0  0  0  0  0
    2.3323   11.8322    0.5879 H   0  0  0  0  0  0  0  0  0  0  0  0
    1.5216    9.6506    1.4252 H   0  0  0  0  0  0  0  0  0  0  0  0
    0.1876   10.8329    1.1279 H   0  0  0  0  0  0  0  0  0  0  0  0
   -0.4962    8.6804    0.3207 H   0  0  0  0  0  0  0  0  0  0  0  0
    1.9170    8.8110   -1.2520 H   0  0  0  0  0  0  0  0  0  0  0  0
   -1.7137   10.6282    0.1700 H   0  0  0  0  0  0  0  0  0  0  0  0
   -1.7043   11.6702   -1.2932 H   0  0  0  0  0  0  0  0  0  0  0  0
   -2.6290   10.1302   -1.2932 H   0  0  0  0  0  0  0  0  0  0  0  0
   -1.3904    7.9318   -1.7858 H   0  0  0  0  0  0  0  0  0  0  0  0
   -1.8028    9.1633   -3.0268 H   0  0  0  0  0  0  0  0  0  0  0  0
   -0.1780    8.3973   -3.0268 H   0  0  0  0  0  0  0  0  0  0  0  0
    4.0313   12.0457   -1.2045 H   0  0  0  0  0  0  0  0  0  0  0  0
    3.4720   11.3153   -2.7473 H   0  0  0  0  0  0  0  0  0  0  0  0
    4.2290   12.9443   -2.7473 H   0  0  0  0  0  0  0  0  0  0  0  0
    2.3770   13.8171   -0.0191 H   0  0  0  0  0  0  0  0  0  0  0  0
    3.3605   14.5912   -1.3856 H   0  0  0  0  0  0  0  0  0  0  0  0
    0.4202   14.9904   -0.7692 H   0  0  0  0  0  0  0  0  0  0  0  0
    1.7693   16.1878   -0.6564 H   0  0  0  0  0  0  0  0  0  0  0  0
    3.2071   16.4725   -2.3800 H   0  0  0  0  0  0  0  0  0  0  0  0
    3.0145   15.4365   -3.8348 H   0  0  0  0  0  0  0  0  0  0  0  0
    2.3709   17.1136   -3.8348 H   0  0  0  0  0  0  0  0  0  0  0  0
  1  2  1  0
  2  3  1  0
  3  4  1  0
  4  5  1  0
  5  6  1  0
  6  7  1  0
  7  8  1  0
  7  9  1  0
  2 10  1  0
 10 11  1  0
 11 12  1  0
 12 13  1  0
 13 14  1  1
 13 15  1  0
 15 16  1  0
 16 17  1  0
 17 18  2  0
 18 19  1  0
 19 20  1  0
 20 21  1  0
 21 22  1  0
 22 23  1  0
 22 24  1  0
 24 25  1  0
 24 26  1  0
 19 27  1  0
 27 28  1  6
 27 29  1  0
 29 30  1  0
 30 31  1  0
 31 32  1  6
  7  5  1  0
 31 10  1  0
 31 13  1  0
 27 15  1  0
 24 18  1  0
  1 33  1  0
  1 34  1  0
  1 35  1  0
  2 36  1  6
  3 37  1  0
  3 38  1  0
  4 39  1  0
  4 40  1  0
  5 41  1  1
  8 42  1  0
  8 43  1  0
  8 44  1  0
  9 45  1  0
  9 46  1  0
  9 47  1  0
 10 48  1  1
 11 49  1  0
 11 50  1  0
 12 51  1  0
 12 52  1  0
 14 53  1  0
 14 54  1  0
 14 55  1  0
 15 56  1  6
 16 57  1  0
 16 58  1  0
 17 59  1  0
 19 60  1  1
 20 61  1  0
 20 62  1  0
 21 63  1  0
 21 64  1  0
 22 65  1  1
 23 66  1  0
 25 67  1  0
 25 68  1  0
 25 69  1  0
 26 70  1  0
 26 71  1  0
 26 72  1  0
 28 73  1  0
 28 74  1  0
 28 75  1  0
 29 76  1  0
 29 77  1  0
 30 78  1  0
 30 79  1  0
 32 80  1  0
 32 81  1  0
 32 82  1  0
M  END
>  <meeko>  (5) 
{"is_sidechain": [false], "intermolecular_energy": 2.731, "internal_energy": -0.839}

$$$$
EPH_relaxed_0001_pdb2pqr_Repair_76_r2_0001_out
     RDKit          3D

 82 86  0  0  0  0  0  0  0  0999 V2000
    0.3740    8.8030   -2.3490 C   0  0  0  0  0  0  0  0  0  0  0  0
    1.1130    9.9410   -3.0590 C   0  0  2  0  0  0  0  0  0  0  0  0
    2.6180    9.9540   -2.7230 C   0  0  0  0  0  0  0  0  0  0  0  0
    3.4870   10.5850   -3.8140 C   0  0  0  0  0  0  0  0  0  0  0  0
    4.8860   10.8330   -3.3350 C   0  0  2  0  0  0  0  0  0  0  0  0
    5.4870   12.0320   -3.8380 O   0  0  0  0  0  0  0  0  0  0  0  0
    6.1000   10.7980   -4.2440 C   0  0  0  0  0  0  0  0  0  0  0  0
    5.9720   10.5060   -5.7060 C   0  0  0  0  0  0  0  0  0  0  0  0
    7.4460   10.5630   -3.6310 C   0  0  0  0  0  0  0  0  0  0  0  0
    0.4860   11.2800   -2.6890 C   0  0  1  0  0  0  0  0  0  0  0  0
   -0.8860   11.1210   -1.9790 C   0  0  0  0  0  0  0  0  0  0  0  0
   -0.9850   12.2630   -0.9360 C   0  0  0  0  0  0  0  0  0  0  0  0
    0.1670   13.2280   -1.3030 C   0  0  1  0  0  0  0  0  0  0  0  0
   -0.3890   14.0860   -2.4830 C   0  0  0  0  0  0  0  0  0  0  0  0
    0.7130   14.1240   -0.1450 C   0  0  2  0  0  0  0  0  0  0  0  0
   -0.3060   15.1080    0.4550 C   0  0  0  0  0  0  0  0  0  0  0  0
   -0.3480   16.4540   -0.1890 C   0  0  0  0  0  0  0  0  0  0  0  0
    0.5890   16.9560   -1.0150 C   0  0  0  0  0  0  0  0  0  0  0  0
    1.8830   16.1830   -1.2990 C   0  0  1  0  0  0  0  0  0  0  0  0
    3.0960   17.1430   -1.1830 C   0  0  0  0  0  0  0  0  0  0  0  0
    2.9490   18.3800   -2.0640 C   0  0  0  0  0  0  0  0  0  0  0  0
    1.6810   19.1540   -1.7110 C   0  0  2  0  0  0  0  0  0  0  0  0
    1.8230   19.6950   -0.3940 O   0  0  0  0  0  0  0  0  0  0  0  0
    0.3940   18.2850   -1.7840 C   0  0  0  0  0  0  0  0  0  0  0  0
    0.0760   17.9490   -3.2620 C   0  0  0  0  0  0  0  0  0  0  0  0
   -0.7920   19.1460   -1.2700 C   0  0  0  0  0  0  0  0  0  0  0  0
    2.0850   14.8410   -0.4720 C   0  0  1  0  0  0  0  0  0  0  0  0
    2.7600   15.1570    0.8980 C   0  0  0  0  0  0  0  0  0  0  0  0
    3.0810   13.9020   -1.2510 C   0  0  0  0  0  0  0  0  0  0  0  0
    2.4650   12.9540   -2.2990 C   0  0  0  0  0  0  0  0  0  0  0  0
    1.2740   12.1900   -1.7140 C   0  0  2  0  0  0  0  0  0  0  0  0
    1.8060   11.3000   -0.5390 C   0  0  0  0  0  0  0  0  0  0  0  0
    0.4589    8.9338   -1.2601 H   0  0  0  0  0  0  0  0  0  0  0  0
   -0.6871    8.8181   -2.6385 H   0  0  0  0  0  0  0  0  0  0  0  0
    0.8194    7.8398   -2.6385 H   0  0  0  0  0  0  0  0  0  0  0  0
    1.0169    9.7725   -4.1418 H   0  0  0  0  0  0  0  0  0  0  0  0
    2.7611   10.5231   -1.7926 H   0  0  0  0  0  0  0  0  0  0  0  0
    2.9348    8.9050   -2.6265 H   0  0  0  0  0  0  0  0  0  0  0  0
    3.5215    9.9064   -4.6791 H   0  0  0  0  0  0  0  0  0  0  0  0
    3.0424   11.5528   -4.0893 H   0  0  0  0  0  0  0  0  0  0  0  0
    4.6691   10.3425   -2.3746 H   0  0  0  0  0  0  0  0  0  0  0  0
    5.5338    9.5064   -5.8433 H   0  0  0  0  0  0  0  0  0  0  0  0
    5.3215   11.2590   -6.1747 H   0  0  0  0  0  0  0  0  0  0  0  0
    6.9666   10.5379   -6.1747 H   0  0  0  0  0  0  0  0  0  0  0  0
    7.3574   10.5785   -2.5347 H   0  0  0  0  0  0  0  0  0  0  0  0
    7.8302    9.5842   -3.9540 H   0  0  0  0  0  0  0  0  0  0  0  0
    8.1391   11.3537   -3.9540 H   0  0  0  0  0  0  0  0  0  0  0  0
    0.4428   11.7445   -3.6852 H   0  0  0  0  0  0  0  0  0  0  0  0
   -1.7031   11.2045   -2.7107 H   0  0  0  0  0  0  0  0  0  0  0  0
   -0.9686   10.1364   -1.4955 H   0  0  0  0  0  0  0  0  0  0  0  0
   -1.9569   12.7729   -1.0096 H   0  0  0  0  0  0  0  0  0  0  0  0
   -0.9057   11.8926    0.0967 H   0  0  0  0  0  0  0  0  0  0  0  0
   -0.9458   14.9453   -2.0810 H   0  0  0  0  0  0  0  0  0  0  0  0
    0.4473   14.4470   -3.0997 H   0  0  0  0  0  0  0  0  0  0  0  0
   -1.0602   13.4702   -3.0997 H   0  0  0  0  0  0  0  0  0  0  0  0
    0.9181   13.3875    0.6458 H   0  0  0  0  0  0  0  0  0  0  0  0
   -1.3058   14.6577    0.3670 H   0  0  0  0  0  0  0  0  0  0  0  0
    0.0107   15.2778    1.4946 H   0  0  0  0  0  0  0  0  0  0  0  0
   -1.2186   17.0897    0.0300 H   0  0  0  0  0  0  0  0  0  0  0  0
    1.7964   15.8145   -2.3318 H   0  0  0  0  0  0  0  0  0  0  0  0
    3.1918   17.4653   -0.1356 H   0  0  0  0  0  0  0  0  0  0  0  0
    3.9884   16.5961   -1.5213 H   0  0  0  0  0  0  0  0  0  0  0  0
    3.8220   19.0328   -1.9165 H   0  0  0  0  0  0  0  0  0  0  0  0
    2.8827   18.0576   -3.1136 H   0  0  0  0  0  0  0  0  0  0  0  0
    1.5627   19.9533   -2.4574 H   0  0  0  0  0  0  0  0  0  0  0  0
    1.2580   20.4850   -0.3390 H   0  0  0  0  0  0  0  0  0  0  0  0
   -0.6796   17.1506   -3.3021 H   0  0  0  0  0  0  0  0  0  0  0  0
   -0.3114   18.8462   -3.7668 H   0  0  0  0  0  0  0  0  0  0  0  0
    0.9932   17.6115   -3.7668 H   0  0  0  0  0  0  0  0  0  0  0  0
   -0.7942   19.1476   -0.1700 H   0  0  0  0  0  0  0  0  0  0  0  0
   -0.6832   20.1769   -1.6380 H   0  0  0  0  0  0  0  0  0  0  0  0
   -1.7385   18.7233   -1.6380 H   0  0  0  0  0  0  0  0  0  0  0  0
    2.0936   14.8450    1.7157 H   0  0  0  0  0  0  0  0  0  0  0  0
    3.7120   14.6110    0.9723 H   0  0  0  0  0  0  0  0  0  0  0  0
    2.9504   16.2378    0.9723 H   0  0  0  0  0  0  0  0  0  0  0  0
    3.8077   14.5446   -1.7696 H   0  0  0  0  0  0  0  0  0  0  0  0
    3.5142   13.2423   -0.4848 H   0  0  0  0  0  0  0  0  0  0  0  0
    2.1247   13.5445   -3.1624 H   0  0  0  0  0  0  0  0  0  0  0  0
    3.2308   12.2270   -2.6074 H   0  0  0  0  0  0  0  0  0  0  0  0
    1.5315   11.7592    0.4221 H   0  0  0  0  0  0  0  0  0  0  0  0
    1.3590   10.2972   -0.6072 H   0  0  0  0  0  0  0  0  0  0  0  0
    2.9009   11.2188   -0.6072 H   0  0  0  0  0  0  0  0  0  0  0  0
  1  2  1  0
  2  3  1  0
  3  4  1  0
  4  5  1  0
  5  6  1  0
  6  7  1  0
  7  8  1  0
  7  9  1  0
  2 10  1  0
 10 11  1  0
 11 12  1  0
 12 13  1  0
 13 14  1  6
 13 15  1  0
 15 16  1  0
 16 17  1  0
 17 18  2  0
 18 19  1  0
 19 20  1  0
 20 21  1  0
 21 22  1  0
 22 23  1  0
 22 24  1  0
 24 25  1  0
 24 26  1  0
 19 27  1  0
 27 28  1  1
 27 29  1  0
 29 30  1  0
 30 31  1  0
 31 32  1  1
  7  5  1  0
 31 10  1  0
 31 13  1  0
 27 15  1  0
 24 18  1  0
  1 33  1  0
  1 34  1  0
  1 35  1  0
  2 36  1  6
  3 37  1  0
  3 38  1  0
  4 39  1  0
  4 40  1  0
  5 41  1  1
  8 42  1  0
  8 43  1  0
  8 44  1  0
  9 45  1  0
  9 46  1  0
  9 47  1  0
 10 48  1  6
 11 49  1  0
 11 50  1  0
 12 51  1  0
 12 52  1  0
 14 53  1  0
 14 54  1  0
 14 55  1  0
 15 56  1  1
 16 57  1  0
 16 58  1  0
 17 59  1  0
 19 60  1  6
 20 61  1  0
 20 62  1  0
 21 63  1  0
 21 64  1  0
 22 65  1  6
 23 66  1  0
 25 67  1  0
 25 68  1  0
 25 69  1  0
 26 70  1  0
 26 71  1  0
 26 72  1  0
 28 73  1  0
 28 74  1  0
 28 75  1  0
 29 76  1  0
 29 77  1  0
 30 78  1  0
 30 79  1  0
 32 80  1  0
 32 81  1  0
 32 82  1  0
M  END
>  <meeko>  (6) 
{"is_sidechain": [false], "intermolecular_energy": 2.731, "internal_energy": -0.839}

$$$$
EPH_relaxed_0001_pdb2pqr_Repair_76_r2_0001_out
     RDKit          3D

 82 86  0  0  0  0  0  0  0  0999 V2000
    2.5160   19.3740   -0.6830 C   0  0  0  0  0  0  0  0  0  0  0  0
    2.5020   18.4470   -1.9020 C   0  0  2  0  0  0  0  0  0  0  0  0
    1.1650   18.5140   -2.6670 C   0  0  0  0  0  0  0  0  0  0  0  0
    0.2600   19.6670   -2.2240 C   0  0  0  0  0  0  0  0  0  0  0  0
   -1.0250   19.1670   -1.6340 C   0  0  2  0  0  0  0  0  0  0  0  0
   -1.9620   20.1940   -1.2840 O   0  0  0  0  0  0  0  0  0  0  0  0
   -1.4370   19.4170   -0.1960 C   0  0  0  0  0  0  0  0  0  0  0  0
   -0.5670   20.1930    0.7420 C   0  0  0  0  0  0  0  0  0  0  0  0
   -2.4420   18.5010    0.4300 C   0  0  0  0  0  0  0  0  0  0  0  0
    2.7820   17.0130   -1.4680 C   0  0  1  0  0  0  0  0  0  0  0  0
    3.5680   16.9360   -0.1320 C   0  0  0  0  0  0  0  0  0  0  0  0
    3.0510   15.6830    0.6200 C   0  0  0  0  0  0  0  0  0  0  0  0
    2.2350   14.9030   -0.4370 C   0  0  1  0  0  0  0  0  0  0  0  0
    3.3000   14.1190   -1.2670 C   0  0  0  0  0  0  0  0  0  0  0  0
    1.1200   13.9540    0.1130 C   0  0  2  0  0  0  0  0  0  0  0  0
    1.6220   12.8010    0.9980 C   0  0  0  0  0  0  0  0  0  0  0  0
    1.9480   11.5370    0.2740 C   0  0  0  0  0  0  0  0  0  0  0  0
    1.5770   11.2380   -0.9850 C   0  0  0  0  0  0  0  0  0  0  0  0
    0.6660   12.1810   -1.7820 C   0  0  1  0  0  0  0  0  0  0  0  0
   -0.4580   11.3590   -2.4650 C   0  0  0  0  0  0  0  0  0  0  0  0
    0.0870   10.2160   -3.3160 C   0  0  0  0  0  0  0  0  0  0  0  0
    0.9400    9.2690   -2.4760 C   0  0  2  0  0  0  0  0  0  0  0  0
    0.0960    8.6080   -1.5270 O   0  0  0  0  0  0  0  0  0  0  0  0
    2.1000    9.9860   -1.7320 C   0  0  0  0  0  0  0  0  0  0  0  0
    3.1710   10.4420   -2.7540 C   0  0  0  0  0  0  0  0  0  0  0  0
    2.7940    8.9450   -0.8120 C   0  0  0  0  0  0  0  0  0  0  0  0
    0.1070   13.4390   -0.9890 C   0  0  1  0  0  0  0  0  0  0  0  0
   -1.2060   13.0560   -0.2410 C   0  0  0  0  0  0  0  0  0  0  0  0
   -0.2810   14.5650   -2.0190 C   0  0  0  0  0  0  0  0  0  0  0  0
    0.8350   15.5440   -2.4310 C   0  0  0  0  0  0  0  0  0  0  0  0
    1.5600   16.0990   -1.2010 C   0  0  2  0  0  0  0  0  0  0  0  0
    0.5180   16.9110   -0.3580 C   0  0  0  0  0  0  0  0  0  0  0  0
    2.5069   18.7706    0.2367 H   0  0  0  0  0  0  0  0  0  0  0  0
    3.4236   19.9951   -0.7051 H   0  0  0  0  0  0  0  0  0  0  0  0
    1.6275   20.0222   -0.7051 H   0  0  0  0  0  0  0  0  0  0  0  0
    3.2919   18.7892   -2.5868 H   0  0  0  0  0  0  0  0  0  0  0  0
    1.3834   18.6357   -3.7382 H   0  0  0  0  0  0  0  0  0  0  0  0
    0.6246   17.5802   -2.4526 H   0  0  0  0  0  0  0  0  0  0  0  0
    0.7897   20.2664   -1.4689 H   0  0  0  0  0  0  0  0  0  0  0  0
    0.0183   20.2734   -3.1093 H   0  0  0  0  0  0  0  0  0  0  0  0
   -0.9733   18.2490   -2.2378 H   0  0  0  0  0  0  0  0  0  0  0  0
   -0.8390   19.9504    1.7799 H   0  0  0  0  0  0  0  0  0  0  0  0
    0.4866   19.9293    0.5678 H   0  0  0  0  0  0  0  0  0  0  0  0
   -0.7091   21.2698    0.5678 H   0  0  0  0  0  0  0  0  0  0  0  0
   -2.3676   18.5688    1.5254 H   0  0  0  0  0  0  0  0  0  0  0  0
   -3.4534   18.7944    0.1123 H   0  0  0  0  0  0  0  0  0  0  0  0
   -2.2434   17.4668    0.1123 H   0  0  0  0  0  0  0  0  0  0  0  0
    3.3322   16.6574   -2.3516 H   0  0  0  0  0  0  0  0  0  0  0  0
    4.6455   16.8402   -0.3315 H   0  0  0  0  0  0  0  0  0  0  0  0
    3.4178   17.8461    0.4674 H   0  0  0  0  0  0  0  0  0  0  0  0
    3.8917   15.0760    0.9871 H   0  0  0  0  0  0  0  0  0  0  0  0
    2.4485   15.9449    1.5023 H   0  0  0  0  0  0  0  0  0  0  0  0
    3.9941   13.6080   -0.5835 H   0  0  0  0  0  0  0  0  0  0  0  0
    2.7957   13.3750   -1.9011 H   0  0  0  0  0  0  0  0  0  0  0  0
    3.8606   14.8216   -1.9011 H   0  0  0  0  0  0  0  0  0  0  0  0
    0.5537   14.6181    0.7826 H   0  0  0  0  0  0  0  0  0  0  0  0
    2.5314   13.1407    1.5153 H   0  0  0  0  0  0  0  0  0  0  0  0
    0.7932   12.5567    1.6787 H   0  0  0  0  0  0  0  0  0  0  0  0
    2.5420   10.7859    0.8153 H   0  0  0  0  0  0  0  0  0  0  0  0
    1.3045   12.6474   -2.5467 H   0  0  0  0  0  0  0  0  0  0  0  0
   -1.1103   10.9382   -1.6856 H   0  0  0  0  0  0  0  0  0  0  0  0
   -1.0096   12.0379   -3.1319 H   0  0  0  0  0  0  0  0  0  0  0  0
   -0.7552    9.6550   -3.7473 H   0  0  0  0  0  0  0  0  0  0  0  0
    0.7150   10.6404   -4.1132 H   0  0  0  0  0  0  0  0  0  0  0  0
    1.4067    8.5481   -3.1634 H   0  0  0  0  0  0  0  0  0  0  0  0
    0.2480    7.6510   -1.6150 H   0  0  0  0  0  0  0  0  0  0  0  0
    4.0541   10.8180   -2.2166 H   0  0  0  0  0  0  0  0  0  0  0  0
    3.4616    9.5896   -3.3856 H   0  0  0  0  0  0  0  0  0  0  0  0
    2.7579   11.2423   -3.3856 H   0  0  0  0  0  0  0  0  0  0  0  0
    2.6171    9.2104    0.2407 H   0  0  0  0  0  0  0  0  0  0  0  0
    2.3810    7.9454   -1.0125 H   0  0  0  0  0  0  0  0  0  0  0  0
    3.8756    8.9418   -1.0125 H   0  0  0  0  0  0  0  0  0  0  0  0
   -1.0371   13.1053    0.8448 H   0  0  0  0  0  0  0  0  0  0  0  0
   -2.0052   13.7585   -0.5200 H   0  0  0  0  0  0  0  0  0  0  0  0
   -1.5022   12.0340   -0.5200 H   0  0  0  0  0  0  0  0  0  0  0  0
   -0.6435   14.0702   -2.9321 H   0  0  0  0  0  0  0  0  0  0  0  0
   -1.0295   15.1830   -1.5015 H   0  0  0  0  0  0  0  0  0  0  0  0
    1.5598   15.0158   -3.0679 H   0  0  0  0  0  0  0  0  0  0  0  0
    0.3807   16.3831   -2.9783 H   0  0  0  0  0  0  0  0  0  0  0  0
    0.7143   16.7581    0.7135 H   0  0  0  0  0  0  0  0  0  0  0  0
    0.6062   17.9809   -0.5979 H   0  0  0  0  0  0  0  0  0  0  0  0
   -0.4979   16.5640   -0.5979 H   0  0  0  0  0  0  0  0  0  0  0  0
  1  2  1  0
  2  3  1  0
  3  4  1  0
  4  5  1  0
  5  6  1  0
  6  7  1  0
  7  8  1  0
  7  9  1  0
  2 10  1  0
 10 11  1  0
 11 12  1  0
 12 13  1  0
 13 14  1  6
 13 15  1  0
 15 16  1  0
 16 17  1  0
 17 18  2  0
 18 19  1  0
 19 20  1  0
 20 21  1  0
 21 22  1  0
 22 23  1  0
 22 24  1  0
 24 25  1  0
 24 26  1  0
 19 27  1  0
 27 28  1  1
 27 29  1  0
 29 30  1  0
 30 31  1  0
 31 32  1  1
  7  5  1  0
 31 10  1  0
 31 13  1  0
 27 15  1  0
 24 18  1  0
  1 33  1  0
  1 34  1  0
  1 35  1  0
  2 36  1  6
  3 37  1  0
  3 38  1  0
  4 39  1  0
  4 40  1  0
  5 41  1  6
  8 42  1  0
  8 43  1  0
  8 44  1  0
  9 45  1  0
  9 46  1  0
  9 47  1  0
 10 48  1  6
 11 49  1  0
 11 50  1  0
 12 51  1  0
 12 52  1  0
 14 53  1  0
 14 54  1  0
 14 55  1  0
 15 56  1  1
 16 57  1  0
 16 58  1  0
 17 59  1  0
 19 60  1  6
 20 61  1  0
 20 62  1  0
 21 63  1  0
 21 64  1  0
 22 65  1  6
 23 66  1  0
 25 67  1  0
 25 68  1  0
 25 69  1  0
 26 70  1  0
 26 71  1  0
 26 72  1  0
 28 73  1  0
 28 74  1  0
 28 75  1  0
 29 76  1  0
 29 77  1  0
 30 78  1  0
 30 79  1  0
 32 80  1  0
 32 81  1  0
 32 82  1  0
M  END
>  <meeko>  (7) 
{"is_sidechain": [false], "intermolecular_energy": 2.731, "internal_energy": -0.839}

$$$$
EPH_relaxed_0001_pdb2pqr_Repair_76_r2_0001_out
     RDKit          3D

 82 86  0  0  0  0  0  0  0  0999 V2000
    1.9730   19.3750   -2.2070 C   0  0  0  0  0  0  0  0  0  0  0  0
    1.5760   19.2510   -0.7330 C   0  0  2  0  0  0  0  0  0  0  0  0
    2.6890   19.7470    0.2120 C   0  0  0  0  0  0  0  0  0  0  0  0
    3.5130   18.6180    0.8380 C   0  0  0  0  0  0  0  0  0  0  0  0
    3.8130   18.8860    2.2820 C   0  0  2  0  0  0  0  0  0  0  0  0
    4.3340   20.1940    2.5520 O   0  0  0  0  0  0  0  0  0  0  0  0
    5.2170   19.0930    2.8200 C   0  0  0  0  0  0  0  0  0  0  0  0
    6.4130   19.0390    1.9210 C   0  0  0  0  0  0  0  0  0  0  0  0
    5.4660   18.8600    4.2770 C   0  0  0  0  0  0  0  0  0  0  0  0
    1.2250   17.8030   -0.4100 C   0  0  1  0  0  0  0  0  0  0  0  0
   -0.0680   17.6770    0.4380 C   0  0  0  0  0  0  0  0  0  0  0  0
   -0.7810   16.3800   -0.0240 C   0  0  0  0  0  0  0  0  0  0  0  0
    0.2740   15.6360   -0.8750 C   0  0  1  0  0  0  0  0  0  0  0  0
    1.1890   14.9130    0.1630 C   0  0  0  0  0  0  0  0  0  0  0  0
   -0.2780   14.6430   -1.9480 C   0  0  2  0  0  0  0  0  0  0  0  0
   -1.0830   13.4570   -1.3870 C   0  0  0  0  0  0  0  0  0  0  0  0
   -0.2850   12.2350   -1.0740 C   0  0  0  0  0  0  0  0  0  0  0  0
    0.9690   11.9910   -1.4980 C   0  0  0  0  0  0  0  0  0  0  0  0
    1.6770   12.9530   -2.4600 C   0  0  1  0  0  0  0  0  0  0  0  0
    2.3470   12.1450   -3.6020 C   0  0  0  0  0  0  0  0  0  0  0  0
    3.2770   11.0540   -3.0780 C   0  0  0  0  0  0  0  0  0  0  0  0
    2.5230   10.0840   -2.1730 C   0  0  2  0  0  0  0  0  0  0  0  0
    1.5710    9.3620   -2.9600 O   0  0  0  0  0  0  0  0  0  0  0  0
    1.7990   10.7860   -0.9900 C   0  0  0  0  0  0  0  0  0  0  0  0
    2.8450   11.3090    0.0240 C   0  0  0  0  0  0  0  0  0  0  0  0
    0.9630    9.7150   -0.2390 C   0  0  0  0  0  0  0  0  0  0  0  0
    0.7990   14.1620   -3.0020 C   0  0  1  0  0  0  0  0  0  0  0  0
    0.0120   13.7200   -4.2730 C   0  0  0  0  0  0  0  0  0  0  0  0
    1.7550   15.3290   -3.4560 C   0  0  0  0  0  0  0  0  0  0  0  0
    2.1690   16.3460   -2.3760 C   0  0  0  0  0  0  0  0  0  0  0  0
    0.9480   16.8550   -1.6040 C   0  0  2  0  0  0  0  0  0  0  0  0
    0.0200   17.6070   -2.6180 C   0  0  0  0  0  0  0  0  0  0  0  0
    3.0208   19.7023   -2.2782 H   0  0  0  0  0  0  0  0  0  0  0  0
    1.8595   18.3986   -2.7007 H   0  0  0  0  0  0  0  0  0  0  0  0
    1.3239   20.1132   -2.7007 H   0  0  0  0  0  0  0  0  0  0  0  0
    0.6967   19.8919   -0.5717 H   0  0  0  0  0  0  0  0  0  0  0  0
    3.3677   20.3958   -0.3611 H   0  0  0  0  0  0  0  0  0  0  0  0
    2.1957   20.2810    1.0375 H   0  0  0  0  0  0  0  0  0  0  0  0
    2.9471   17.6780    0.7599 H   0  0  0  0  0  0  0  0  0  0  0  0
    4.4679   18.5492    0.2963 H   0  0  0  0  0  0  0  0  0  0  0  0
    2.9904   18.2285    2.5998 H   0  0  0  0  0  0  0  0  0  0  0  0
    7.3280   18.9977    2.5301 H   0  0  0  0  0  0  0  0  0  0  0  0
    6.3543   18.1426    1.2862 H   0  0  0  0  0  0  0  0  0  0  0  0
    6.4354   19.9370    1.2862 H   0  0  0  0  0  0  0  0  0  0  0  0
    4.7897   19.4929    4.8704 H   0  0  0  0  0  0  0  0  0  0  0  0
    5.2820   17.8021    4.5158 H   0  0  0  0  0  0  0  0  0  0  0  0
    6.5093   19.1137    4.5158 H   0  0  0  0  0  0  0  0  0  0  0  0
    2.1486   17.4997    0.1047 H   0  0  0  0  0  0  0  0  0  0  0  0
    0.1847   17.6104    1.5065 H   0  0  0  0  0  0  0  0  0  0  0  0
   -0.7170   18.5546    0.3016 H   0  0  0  0  0  0  0  0  0  0  0  0
   -1.0801   15.7717    0.8424 H   0  0  0  0  0  0  0  0  0  0  0  0
   -1.7010   16.5889   -0.5897 H   0  0  0  0  0  0  0  0  0  0  0  0
    0.8629   15.1707    1.1815 H   0  0  0  0  0  0  0  0  0  0  0  0
    1.1176   13.8247    0.0195 H   0  0  0  0  0  0  0  0  0  0  0  0
    2.2312   15.2342    0.0195 H   0  0  0  0  0  0  0  0  0  0  0  0
   -1.0025   15.2655   -2.4934 H   0  0  0  0  0  0  0  0  0  0  0  0
   -1.5748   13.7881   -0.4605 H   0  0  0  0  0  0  0  0  0  0  0  0
   -1.7872   13.1653   -2.1801 H   0  0  0  0  0  0  0  0  0  0  0  0
   -0.7617   11.4696   -0.4440 H   0  0  0  0  0  0  0  0  0  0  0  0
    2.4470   13.4656   -1.8647 H   0  0  0  0  0  0  0  0  0  0  0  0
    1.5602   11.6755   -4.2107 H   0  0  0  0  0  0  0  0  0  0  0  0
    2.9537   12.8449   -4.1954 H   0  0  0  0  0  0  0  0  0  0  0  0
    3.6971   10.4992   -3.9298 H   0  0  0  0  0  0  0  0  0  0  0  0
    4.0801   11.5274   -2.4940 H   0  0  0  0  0  0  0  0  0  0  0  0
    3.2652    9.4051   -1.7277 H   0  0  0  0  0  0  0  0  0  0  0  0
    1.4520    8.4890   -2.5510 H   0  0  0  0  0  0  0  0  0  0  0  0
    2.4851   11.1291    1.0478 H   0  0  0  0  0  0  0  0  0  0  0  0
    3.7983   10.7815   -0.1276 H   0  0  0  0  0  0  0  0  0  0  0  0
    2.9950   12.3881   -0.1276 H   0  0  0  0  0  0  0  0  0  0  0  0
    1.0743    9.8575    0.8460 H   0  0  0  0  0  0  0  0  0  0  0  0
   -0.0968    9.8169   -0.5154 H   0  0  0  0  0  0  0  0  0  0  0  0
    1.3192    8.7116   -0.5154 H   0  0  0  0  0  0  0  0  0  0  0  0
   -0.9104   13.2020   -3.9715 H   0  0  0  0  0  0  0  0  0  0  0  0
   -0.2443   14.6062   -4.8722 H   0  0  0  0  0  0  0  0  0  0  0  0
    0.6353   13.0400   -4.8722 H   0  0  0  0  0  0  0  0  0  0  0  0
    2.6736   14.8718   -3.8525 H   0  0  0  0  0  0  0  0  0  0  0  0
    1.1750   15.9078   -4.1899 H   0  0  0  0  0  0  0  0  0  0  0  0
    2.8627   15.8617   -1.6730 H   0  0  0  0  0  0  0  0  0  0  0  0
    2.6540   17.2019   -2.8683 H   0  0  0  0  0  0  0  0  0  0  0  0
   -0.7186   18.2055   -2.0647 H   0  0  0  0  0  0  0  0  0  0  0  0
    0.6290   18.2695   -3.2506 H   0  0  0  0  0  0  0  0  0  0  0  0
   -0.5019   16.8739   -3.2506 H   0  0  0  0  0  0  0  0  0  0  0  0
  1  2  1  0
  2  3  1  0
  3  4  1  0
  4  5  1  0
  5  6  1  0
  6  7  1  0
  7  8  1  0
  7  9  1  0
  2 10  1  0
 10 11  1  0
 11 12  1  0
 12 13  1  0
 13 14  1  1
 13 15  1  0
 15 16  1  0
 16 17  1  0
 17 18  2  0
 18 19  1  0
 19 20  1  0
 20 21  1  0
 21 22  1  0
 22 23  1  0
 22 24  1  0
 24 25  1  0
 24 26  1  0
 19 27  1  0
 27 28  1  6
 27 29  1  0
 29 30  1  0
 30 31  1  0
 31 32  1  6
  7  5  1  0
 31 10  1  0
 31 13  1  0
 27 15  1  0
 24 18  1  0
  1 33  1  0
  1 34  1  0
  1 35  1  0
  2 36  1  6
  3 37  1  0
  3 38  1  0
  4 39  1  0
  4 40  1  0
  5 41  1  1
  8 42  1  0
  8 43  1  0
  8 44  1  0
  9 45  1  0
  9 46  1  0
  9 47  1  0
 10 48  1  1
 11 49  1  0
 11 50  1  0
 12 51  1  0
 12 52  1  0
 14 53  1  0
 14 54  1  0
 14 55  1  0
 15 56  1  6
 16 57  1  0
 16 58  1  0
 17 59  1  0
 19 60  1  1
 20 61  1  0
 20 62  1  0
 21 63  1  0
 21 64  1  0
 22 65  1  1
 23 66  1  0
 25 67  1  0
 25 68  1  0
 25 69  1  0
 26 70  1  0
 26 71  1  0
 26 72  1  0
 28 73  1  0
 28 74  1  0
 28 75  1  0
 29 76  1  0
 29 77  1  0
 30 78  1  0
 30 79  1  0
 32 80  1  0
 32 81  1  0
 32 82  1  0
M  END
>  <meeko>  (8) 
{"is_sidechain": [false], "intermolecular_energy": 2.731, "internal_energy": -0.839}

$$$$
EPH_relaxed_0001_pdb2pqr_Repair_76_r2_0001_out
     RDKit          3D

 82 86  0  0  0  0  0  0  0  0999 V2000
   -0.2930   10.2990   -3.2380 C   0  0  0  0  0  0  0  0  0  0  0  0
   -0.3520   10.0990   -1.7210 C   0  0  2  0  0  0  0  0  0  0  0  0
   -1.7410    9.6230   -1.2520 C   0  0  0  0  0  0  0  0  0  0  0  0
   -2.1210    8.2320   -1.7650 C   0  0  0  0  0  0  0  0  0  0  0  0
   -3.5250    8.1990   -2.2890 C   0  0  2  0  0  0  0  0  0  0  0  0
   -4.4260    7.3770   -1.5340 O   0  0  0  0  0  0  0  0  0  0  0  0
   -4.1670    6.9600   -2.8850 C   0  0  0  0  0  0  0  0  0  0  0  0
   -3.4190    5.6670   -2.9900 C   0  0  0  0  0  0  0  0  0  0  0  0
   -5.3360    7.1310   -3.8040 C   0  0  0  0  0  0  0  0  0  0  0  0
    0.0230   11.3950   -1.0120 C   0  0  1  0  0  0  0  0  0  0  0  0
    1.1170   11.1890    0.0690 C   0  0  0  0  0  0  0  0  0  0  0  0
    1.9980   12.4650    0.0620 C   0  0  0  0  0  0  0  0  0  0  0  0
    1.1950   13.4880   -0.7740 C   0  0  1  0  0  0  0  0  0  0  0  0
    0.1370   14.0720    0.2130 C   0  0  0  0  0  0  0  0  0  0  0  0
    2.0260   14.6190   -1.4650 C   0  0  2  0  0  0  0  0  0  0  0  0
    2.7760   15.5580   -0.5040 C   0  0  0  0  0  0  0  0  0  0  0  0
    2.0150   16.7670   -0.0710 C   0  0  0  0  0  0  0  0  0  0  0  0
    0.8960   17.2380   -0.6530 C   0  0  0  0  0  0  0  0  0  0  0  0
    0.3390   16.5900   -1.9270 C   0  0  1  0  0  0  0  0  0  0  0  0
   -0.0220   17.6940   -2.9540 C   0  0  0  0  0  0  0  0  0  0  0  0
   -0.9630   18.7460   -2.3750 C   0  0  0  0  0  0  0  0  0  0  0  0
   -0.3500   19.4090   -1.1450 C   0  0  2  0  0  0  0  0  0  0  0  0
    0.7920   20.1690   -1.5520 O   0  0  0  0  0  0  0  0  0  0  0  0
    0.0640   18.3920   -0.0440 C   0  0  0  0  0  0  0  0  0  0  0  0
   -1.2040   17.7870    0.6080 C   0  0  0  0  0  0  0  0  0  0  0  0
    0.7960   19.1760    1.0790 C   0  0  0  0  0  0  0  0  0  0  0  0
    1.2260   15.4330   -2.5610 C   0  0  1  0  0  0  0  0  0  0  0  0
    2.2880   16.0450   -3.5250 C   0  0  0  0  0  0  0  0  0  0  0  0
    0.3080   14.5060   -3.4430 C   0  0  0  0  0  0  0  0  0  0  0  0
   -0.3910   13.3350   -2.7260 C   0  0  0  0  0  0  0  0  0  0  0  0
    0.6060   12.5380   -1.8790 C   0  0  2  0  0  0  0  0  0  0  0  0
    1.6700   11.9200   -2.8490 C   0  0  0  0  0  0  0  0  0  0  0  0
    0.0118   11.3323   -3.4600 H   0  0  0  0  0  0  0  0  0  0  0  0
    0.4372    9.6000   -3.6719 H   0  0  0  0  0  0  0  0  0  0  0  0
   -1.2857   10.1083   -3.6719 H   0  0  0  0  0  0  0  0  0  0  0  0
    0.3706    9.3112   -1.4617 H   0  0  0  0  0  0  0  0  0  0  0  0
   -1.7474    9.6011   -0.1522 H   0  0  0  0  0  0  0  0  0  0  0  0
   -2.4779   10.3291   -1.6624 H   0  0  0  0  0  0  0  0  0  0  0  0
   -1.4316    7.9499   -2.5745 H   0  0  0  0  0  0  0  0  0  0  0  0
   -2.0519    7.5258   -0.9245 H   0  0  0  0  0  0  0  0  0  0  0  0
   -3.4384    9.2330   -2.6543 H   0  0  0  0  0  0  0  0  0  0  0  0
   -3.1994    5.2875   -1.9812 H   0  0  0  0  0  0  0  0  0  0  0  0
   -4.0315    4.9321   -3.5330 H   0  0  0  0  0  0  0  0  0  0  0  0
   -2.4766    5.8316   -3.5330 H   0  0  0  0  0  0  0  0  0  0  0  0
   -6.2524    7.2651   -3.2105 H   0  0  0  0  0  0  0  0  0  0  0  0
   -5.1773    8.0155   -4.4384 H   0  0  0  0  0  0  0  0  0  0  0  0
   -5.4373    6.2381   -4.4384 H   0  0  0  0  0  0  0  0  0  0  0  0
   -0.9646   11.6846   -0.6238 H   0  0  0  0  0  0  0  0  0  0  0  0
    0.6527   11.0546    1.0571 H   0  0  0  0  0  0  0  0  0  0  0  0
    1.7182   10.2926   -0.1430 H   0  0  0  0  0  0  0  0  0  0  0  0
    2.1525   12.8360    1.0860 H   0  0  0  0  0  0  0  0  0  0  0  0
    2.9988   12.2790   -0.3550 H   0  0  0  0  0  0  0  0  0  0  0  0
    0.4627   13.8922    1.2482 H   0  0  0  0  0  0  0  0  0  0  0  0
    0.0352   15.1541    0.0433 H   0  0  0  0  0  0  0  0  0  0  0  0
   -0.8328   13.5814    0.0433 H   0  0  0  0  0  0  0  0  0  0  0  0
    2.8044   14.0499   -1.9943 H   0  0  0  0  0  0  0  0  0  0  0  0
    3.0410   14.9829    0.3955 H   0  0  0  0  0  0  0  0  0  0  0  0
    3.6481   15.9306   -1.0612 H   0  0  0  0  0  0  0  0  0  0  0  0
    2.4014   17.3203    0.7977 H   0  0  0  0  0  0  0  0  0  0  0  0
   -0.5709   16.0523   -1.6220 H   0  0  0  0  0  0  0  0  0  0  0  0
    0.9045   18.1901   -3.2788 H   0  0  0  0  0  0  0  0  0  0  0  0
   -0.5389   17.2107   -3.7961 H   0  0  0  0  0  0  0  0  0  0  0  0
   -1.1577   19.5138   -3.1383 H   0  0  0  0  0  0  0  0  0  0  0  0
   -1.9001   18.2528   -2.0774 H   0  0  0  0  0  0  0  0  0  0  0  0
   -1.1200   20.0567   -0.7005 H   0  0  0  0  0  0  0  0  0  0  0  0
    1.1980   20.5420   -0.7510 H   0  0  0  0  0  0  0  0  0  0  0  0
   -1.1102   17.8318    1.7031 H   0  0  0  0  0  0  0  0  0  0  0  0
   -2.0880   18.3604    0.2920 H   0  0  0  0  0  0  0  0  0  0  0  0
   -1.3144   16.7392    0.2920 H   0  0  0  0  0  0  0  0  0  0  0  0
    0.4570   18.8129    2.0605 H   0  0  0  0  0  0  0  0  0  0  0  0
    1.8812   19.0223    0.9860 H   0  0  0  0  0  0  0  0  0  0  0  0
    0.5683   20.2481    0.9860 H   0  0  0  0  0  0  0  0  0  0  0  0
    3.0932   16.5090   -2.9365 H   0  0  0  0  0  0  0  0  0  0  0  0
    2.7084   15.2507   -4.1593 H   0  0  0  0  0  0  0  0  0  0  0  0
    1.8115   16.8070   -4.1593 H   0  0  0  0  0  0  0  0  0  0  0  0
   -0.4744   15.1386   -3.8875 H   0  0  0  0  0  0  0  0  0  0  0  0
    0.9875   14.0347   -4.1684 H   0  0  0  0  0  0  0  0  0  0  0  0
   -1.1811   13.7332   -2.0724 H   0  0  0  0  0  0  0  0  0  0  0  0
   -0.8211   12.6650   -3.4851 H   0  0  0  0  0  0  0  0  0  0  0  0
    2.4742   11.4529   -2.2615 H   0  0  0  0  0  0  0  0  0  0  0  0
    1.1903   11.1600   -3.4832 H   0  0  0  0  0  0  0  0  0  0  0  0
    2.0925   12.7133   -3.4832 H   0  0  0  0  0  0  0  0  0  0  0  0
  1  2  1  0
  2  3  1  0
  3  4  1  0
  4  5  1  0
  5  6  1  0
  6  7  1  0
  7  8  1  0
  7  9  1  0
  2 10  1  0
 10 11  1  0
 11 12  1  0
 12 13  1  0
 13 14  1  1
 13 15  1  0
 15 16  1  0
 16 17  1  0
 17 18  2  0
 18 19  1  0
 19 20  1  0
 20 21  1  0
 21 22  1  0
 22 23  1  0
 22 24  1  0
 24 25  1  0
 24 26  1  0
 19 27  1  0
 27 28  1  6
 27 29  1  0
 29 30  1  0
 30 31  1  0
 31 32  1  6
  7  5  1  0
 31 10  1  0
 31 13  1  0
 27 15  1  0
 24 18  1  0
  1 33  1  0
  1 34  1  0
  1 35  1  0
  2 36  1  1
  3 37  1  0
  3 38  1  0
  4 39  1  0
  4 40  1  0
  5 41  1  6
  8 42  1  0
  8 43  1  0
  8 44  1  0
  9 45  1  0
  9 46  1  0
  9 47  1  0
 10 48  1  1
 11 49  1  0
 11 50  1  0
 12 51  1  0
 12 52  1  0
 14 53  1  0
 14 54  1  0
 14 55  1  0
 15 56  1  6
 16 57  1  0
 16 58  1  0
 17 59  1  0
 19 60  1  1
 20 61  1  0
 20 62  1  0
 21 63  1  0
 21 64  1  0
 22 65  1  1
 23 66  1  0
 25 67  1  0
 25 68  1  0
 25 69  1  0
 26 70  1  0
 26 71  1  0
 26 72  1  0
 28 73  1  0
 28 74  1  0
 28 75  1  0
 29 76  1  0
 29 77  1  0
 30 78  1  0
 30 79  1  0
 32 80  1  0
 32 81  1  0
 32 82  1  0
M  END
>  <meeko>  (9) 
{"is_sidechain": [false], "intermolecular_energy": 2.731, "internal_energy": -0.839}

$$$$
EPH_relaxed_0001_pdb2pqr_Repair_76_r2_0001_out
     RDKit          3D

 82 86  0  0  0  0  0  0  0  0999 V2000
    0.1370   17.7730   -2.5710 C   0  0  0  0  0  0  0  0  0  0  0  0
   -0.1170   16.8810   -1.3520 C   0  0  2  0  0  0  0  0  0  0  0  0
   -0.1740   17.6910   -0.0420 C   0  0  0  0  0  0  0  0  0  0  0  0
    0.4520   19.0840   -0.1510 C   0  0  0  0  0  0  0  0  0  0  0  0
    1.6040   19.2490    0.7940 C   0  0  2  0  0  0  0  0  0  0  0  0
    2.5950   20.1940    0.3700 O   0  0  0  0  0  0  0  0  0  0  0  0
    3.0240   18.8260    0.4640 C   0  0  0  0  0  0  0  0  0  0  0  0
    3.3660   18.2040   -0.8540 C   0  0  0  0  0  0  0  0  0  0  0  0
    3.9740   18.5680    1.5910 C   0  0  0  0  0  0  0  0  0  0  0  0
    0.9650   15.8120   -1.2570 C   0  0  1  0  0  0  0  0  0  0  0  0
    1.1560   15.2820    0.1890 C   0  0  0  0  0  0  0  0  0  0  0  0
    1.5060   13.7770    0.0720 C   0  0  0  0  0  0  0  0  0  0  0  0
    1.8310   13.5670   -1.4260 C   0  0  1  0  0  0  0  0  0  0  0  0
    3.3060   14.0520   -1.5880 C   0  0  0  0  0  0  0  0  0  0  0  0
    1.6350   12.1180   -1.9790 C   0  0  2  0  0  0  0  0  0  0  0  0
    2.5350   11.0480   -1.3370 C   0  0  0  0  0  0  0  0  0  0  0  0
    3.8470   10.8280   -2.0150 C   0  0  0  0  0  0  0  0  0  0  0  0
    4.1710   11.2530   -3.2500 C   0  0  0  0  0  0  0  0  0  0  0  0
    3.1330   11.9500   -4.1400 C   0  0  1  0  0  0  0  0  0  0  0  0
    3.1840   11.3440   -5.5670 C   0  0  0  0  0  0  0  0  0  0  0  0
    4.5860   11.3790   -6.1680 C   0  0  0  0  0  0  0  0  0  0  0  0
    5.5770   10.6260   -5.2840 C   0  0  2  0  0  0  0  0  0  0  0  0
    5.2420    9.2350   -5.2970 O   0  0  0  0  0  0  0  0  0  0  0  0
    5.6070   11.1430   -3.8190 C   0  0  0  0  0  0  0  0  0  0  0  0
    6.2560   12.5480   -3.7760 C   0  0  0  0  0  0  0  0  0  0  0  0
    6.5400   10.2090   -3.0020 C   0  0  0  0  0  0  0  0  0  0  0  0
    1.6560   12.0190   -3.5590 C   0  0  1  0  0  0  0  0  0  0  0  0
    0.8750   10.7230   -3.9340 C   0  0  0  0  0  0  0  0  0  0  0  0
    0.8890   13.2130   -4.2430 C   0  0  0  0  0  0  0  0  0  0  0  0
    1.0250   14.5970   -3.5800 C   0  0  0  0  0  0  0  0  0  0  0  0
    0.7550   14.5130   -2.0750 C   0  0  2  0  0  0  0  0  0  0  0  0
   -0.7280   14.0490   -1.8800 C   0  0  0  0  0  0  0  0  0  0  0  0
    0.4238   18.7803   -2.2348 H   0  0  0  0  0  0  0  0  0  0  0  0
    0.9486   17.3437   -3.1768 H   0  0  0  0  0  0  0  0  0  0  0  0
   -0.7790   17.8356   -3.1768 H   0  0  0  0  0  0  0  0  0  0  0  0
   -1.0993   16.4050   -1.4884 H   0  0  0  0  0  0  0  0  0  0  0  0
   -1.2285   17.8061    0.2493 H   0  0  0  0  0  0  0  0  0  0  0  0
    0.4100   17.1341    0.7055 H   0  0  0  0  0  0  0  0  0  0  0  0
    0.8105   19.2343   -1.1800 H   0  0  0  0  0  0  0  0  0  0  0  0
   -0.3159   19.8268    0.1110 H   0  0  0  0  0  0  0  0  0  0  0  0
    0.9552   19.0445    1.6584 H   0  0  0  0  0  0  0  0  0  0  0  0
    3.8897   17.2515   -0.6851 H   0  0  0  0  0  0  0  0  0  0  0  0
    2.4428   18.0190   -1.4227 H   0  0  0  0  0  0  0  0  0  0  0  0
    4.0168   18.8844   -1.4227 H   0  0  0  0  0  0  0  0  0  0  0  0
    3.4530   18.7095    2.5494 H   0  0  0  0  0  0  0  0  0  0  0  0
    4.3483   17.5357    1.5260 H   0  0  0  0  0  0  0  0  0  0  0  0
    4.8191   19.2692    1.5260 H   0  0  0  0  0  0  0  0  0  0  0  0
    1.8182   16.3771   -1.6603 H   0  0  0  0  0  0  0  0  0  0  0  0
    1.9745   15.8236    0.6857 H   0  0  0  0  0  0  0  0  0  0  0  0
    0.2447   15.4298    0.7870 H   0  0  0  0  0  0  0  0  0  0  0  0
    2.3775   13.5313    0.6966 H   0  0  0  0  0  0  0  0  0  0  0  0
    0.6853   13.1300    0.4154 H   0  0  0  0  0  0  0  0  0  0  0  0
    3.7547   14.1995   -0.5946 H   0  0  0  0  0  0  0  0  0  0  0  0
    3.8819   13.2959   -2.1418 H   0  0  0  0  0  0  0  0  0  0  0  0
    3.3208   15.0023   -2.1418 H   0  0  0  0  0  0  0  0  0  0  0  0
    0.6105   11.8789   -1.6577 H   0  0  0  0  0  0  0  0  0  0  0  0
    2.7355   11.3508   -0.2987 H   0  0  0  0  0  0  0  0  0  0  0  0
    1.9861   10.0984   -1.4207 H   0  0  0  0  0  0  0  0  0  0  0  0
    4.6142   10.2709   -1.4573 H   0  0  0  0  0  0  0  0  0  0  0  0
    3.4247   13.0101   -4.1740 H   0  0  0  0  0  0  0  0  0  0  0  0
    2.8474   10.2979   -5.5180 H   0  0  0  0  0  0  0  0  0  0  0  0
    2.5297   11.9503   -6.2107 H   0  0  0  0  0  0  0  0  0  0  0  0
    4.5630   10.9106   -7.1630 H   0  0  0  0  0  0  0  0  0  0  0  0
    4.9095   12.4276   -6.2441 H   0  0  0  0  0  0  0  0  0  0  0  0
    6.5823   10.7961   -5.6967 H   0  0  0  0  0  0  0  0  0  0  0  0
    6.0360    8.7430   -5.5650 H   0  0  0  0  0  0  0  0  0  0  0  0
    6.3976   12.8546   -2.7291 H   0  0  0  0  0  0  0  0  0  0  0  0
    7.2311   12.5172   -4.2842 H   0  0  0  0  0  0  0  0  0  0  0  0
    5.6004   13.2705   -4.2842 H   0  0  0  0  0  0  0  0  0  0  0  0
    6.3746   10.3745   -1.9272 H   0  0  0  0  0  0  0  0  0  0  0  0
    6.3178    9.1606   -3.2500 H   0  0  0  0  0  0  0  0  0  0  0  0
    7.5886   10.4301   -3.2500 H   0  0  0  0  0  0  0  0  0  0  0  0
    0.5625   10.2045   -3.0156 H   0  0  0  0  0  0  0  0  0  0  0  0
   -0.0136   10.9886   -4.5255 H   0  0  0  0  0  0  0  0  0  0  0  0
    1.5249   10.0614   -4.5255 H   0  0  0  0  0  0  0  0  0  0  0  0
    1.2611   13.3002   -5.2745 H   0  0  0  0  0  0  0  0  0  0  0  0
   -0.1773   12.9566   -4.1576 H   0  0  0  0  0  0  0  0  0  0  0  0
    2.0453   14.9748   -3.7420 H   0  0  0  0  0  0  0  0  0  0  0  0
    0.2866   15.2761   -4.0313 H   0  0  0  0  0  0  0  0  0  0  0  0
   -0.9520   13.9789   -0.8053 H   0  0  0  0  0  0  0  0  0  0  0  0
   -1.4050   14.7783   -2.3489 H   0  0  0  0  0  0  0  0  0  0  0  0
   -0.8686   13.0639   -2.3489 H   0  0  0  0  0  0  0  0  0  0  0  0
  1  2  1  0
  2  3  1  0
  3  4  1  0
  4  5  1  0
  5  6  1  0
  6  7  1  0
  7  8  1  0
  7  9  1  0
  2 10  1  0
 10 11  1  0
 11 12  1  0
 12 13  1  0
 13 14  1  1
 13 15  1  0
 15 16  1  0
 16 17  1  0
 17 18  2  0
 18 19  1  0
 19 20  1  0
 20 21  1  0
 21 22  1  0
 22 23  1  0
 22 24  1  0
 24 25  1  0
 24 26  1  0
 19 27  1  0
 27 28  1  1
 27 29  1  0
 29 30  1  0
 30 31  1  0
 31 32  1  6
  7  5  1  0
 31 10  1  0
 31 13  1  0
 27 15  1  0
 24 18  1  0
  1 33  1  0
  1 34  1  0
  1 35  1  0
  2 36  1  6
  3 37  1  0
  3 38  1  0
  4 39  1  0
  4 40  1  0
  5 41  1  1
  8 42  1  0
  8 43  1  0
  8 44  1  0
  9 45  1  0
  9 46  1  0
  9 47  1  0
 10 48  1  6
 11 49  1  0
 11 50  1  0
 12 51  1  0
 12 52  1  0
 14 53  1  0
 14 54  1  0
 14 55  1  0
 15 56  1  1
 16 57  1  0
 16 58  1  0
 17 59  1  0
 19 60  1  6
 20 61  1  0
 20 62  1  0
 21 63  1  0
 21 64  1  0
 22 65  1  6
 23 66  1  0
 25 67  1  0
 25 68  1  0
 25 69  1  0
 26 70  1  0
 26 71  1  0
 26 72  1  0
 28 73  1  0
 28 74  1  0
 28 75  1  0
 29 76  1  0
 29 77  1  0
 30 78  1  0
 30 79  1  0
 32 80  1  0
 32 81  1  0
 32 82  1  0
M  END
>  <meeko>  (10) 
{"is_sidechain": [false], "intermolecular_energy": 2.731, "internal_energy": -0.839}

$$$$
EPH_relaxed_0001_pdb2pqr_Repair_76_r2_0001_out
     RDKit          3D

 82 86  0  0  0  0  0  0  0  0999 V2000
    1.8880   17.0100    0.1210 C   0  0  0  0  0  0  0  0  0  0  0  0
    1.5980   17.1600   -1.3750 C   0  0  2  0  0  0  0  0  0  0  0  0
    0.7710   18.4250   -1.6820 C   0  0  0  0  0  0  0  0  0  0  0  0
    0.8840   19.5100   -0.6080 C   0  0  0  0  0  0  0  0  0  0  0  0
   -0.4360   20.1660   -0.3410 C   0  0  2  0  0  0  0  0  0  0  0  0
   -0.8240   20.1930    1.0390 O   0  0  0  0  0  0  0  0  0  0  0  0
   -1.6570   19.4170    0.1610 C   0  0  0  0  0  0  0  0  0  0  0  0
   -1.6140   17.9450    0.4260 C   0  0  0  0  0  0  0  0  0  0  0  0
   -3.0090   20.0150   -0.0710 C   0  0  0  0  0  0  0  0  0  0  0  0
    0.8710   15.9240   -1.8900 C   0  0  1  0  0  0  0  0  0  0  0  0
    0.3590   16.0950   -3.3450 C   0  0  0  0  0  0  0  0  0  0  0  0
    0.4800   14.7080   -4.0270 C   0  0  0  0  0  0  0  0  0  0  0  0
    0.7380   13.7220   -2.8640 C   0  0  1  0  0  0  0  0  0  0  0  0
   -0.6710   13.4400   -2.2570 C   0  0  0  0  0  0  0  0  0  0  0  0
    1.4830   12.3980   -3.2330 C   0  0  2  0  0  0  0  0  0  0  0  0
    0.7400   11.4850   -4.2240 C   0  0  0  0  0  0  0  0  0  0  0  0
   -0.1650   10.4730   -3.6030 C   0  0  0  0  0  0  0  0  0  0  0  0
   -0.1610   10.1110   -2.3070 C   0  0  0  0  0  0  0  0  0  0  0  0
    0.8880   10.6680   -1.3370 C   0  0  1  0  0  0  0  0  0  0  0  0
    1.4760    9.5100   -0.4880 C   0  0  0  0  0  0  0  0  0  0  0  0
    0.3970    8.6990    0.2220 C   0  0  0  0  0  0  0  0  0  0  0  0
   -0.5940    8.1130   -0.7800 C   0  0  2  0  0  0  0  0  0  0  0  0
    0.0830    7.1400   -1.5820 O   0  0  0  0  0  0  0  0  0  0  0  0
   -1.2440    9.1860   -1.6980 C   0  0  0  0  0  0  0  0  0  0  0  0
   -2.2180   10.0590   -0.8690 C   0  0  0  0  0  0  0  0  0  0  0  0
   -2.1120    8.4490   -2.7530 C   0  0  0  0  0  0  0  0  0  0  0  0
    2.0150   11.5830   -1.9850 C   0  0  1  0  0  0  0  0  0  0  0  0
    3.1900   10.6970   -2.4990 C   0  0  0  0  0  0  0  0  0  0  0  0
    2.6190   12.5200   -0.8720 C   0  0  0  0  0  0  0  0  0  0  0  0
    1.9090   13.8670   -0.6370 C   0  0  0  0  0  0  0  0  0  0  0  0
    1.6770   14.6030   -1.9610 C   0  0  2  0  0  0  0  0  0  0  0  0
    3.0790   14.9190   -2.5840 C   0  0  0  0  0  0  0  0  0  0  0  0
    1.0575   17.4396    0.7004 H   0  0  0  0  0  0  0  0  0  0  0  0
    1.9948   15.9436    0.3687 H   0  0  0  0  0  0  0  0  0  0  0  0
    2.8201   17.5391    0.3687 H   0  0  0  0  0  0  0  0  0  0  0  0
    2.5640   17.2643   -1.8907 H   0  0  0  0  0  0  0  0  0  0  0  0
    1.1196   18.8444   -2.6373 H   0  0  0  0  0  0  0  0  0  0  0  0
   -0.2846   18.1178   -1.7187 H   0  0  0  0  0  0  0  0  0  0  0  0
    1.2496   19.0528    0.3233 H   0  0  0  0  0  0  0  0  0  0  0  0
    1.5818   20.2793   -0.9703 H   0  0  0  0  0  0  0  0  0  0  0  0
   -0.2893   20.8565   -1.1846 H   0  0  0  0  0  0  0  0  0  0  0  0
   -1.6088   17.7679    1.5116 H   0  0  0  0  0  0  0  0  0  0  0  0
   -2.4985   17.4663   -0.0194 H   0  0  0  0  0  0  0  0  0  0  0  0
   -0.7030   17.5187   -0.0194 H   0  0  0  0  0  0  0  0  0  0  0  0
   -3.4873   20.2266    0.8967 H   0  0  0  0  0  0  0  0  0  0  0  0
   -2.9035   20.9504   -0.6401 H   0  0  0  0  0  0  0  0  0  0  0  0
   -3.6301   19.3076   -0.6401 H   0  0  0  0  0  0  0  0  0  0  0  0
    0.0823   15.8429   -1.1275 H   0  0  0  0  0  0  0  0  0  0  0  0
   -0.6903   16.4251   -3.3411 H   0  0  0  0  0  0  0  0  0  0  0  0
    0.9462   16.8530   -3.8841 H   0  0  0  0  0  0  0  0  0  0  0  0
   -0.4511   14.4519   -4.5538 H   0  0  0  0  0  0  0  0  0  0  0  0
    1.2808   14.6824   -4.7807 H   0  0  0  0  0  0  0  0  0  0  0  0
   -0.6065   13.4529   -1.1590 H   0  0  0  0  0  0  0  0  0  0  0  0
   -1.3763   14.2148   -2.5920 H   0  0  0  0  0  0  0  0  0  0  0  0
   -1.0238   12.4534   -2.5920 H   0  0  0  0  0  0  0  0  0  0  0  0
    2.3669   12.7688   -3.7727 H   0  0  0  0  0  0  0  0  0  0  0  0
    0.1344   12.1224   -4.8850 H   0  0  0  0  0  0  0  0  0  0  0  0
    1.5171   10.9142   -4.7534 H   0  0  0  0  0  0  0  0  0  0  0  0
   -0.8972    9.9816   -4.2606 H   0  0  0  0  0  0  0  0  0  0  0  0
    0.3537   11.3745   -0.6847 H   0  0  0  0  0  0  0  0  0  0  0  0
    2.0424    8.8393   -1.1508 H   0  0  0  0  0  0  0  0  0  0  0  0
    2.1207    9.9558    0.2838 H   0  0  0  0  0  0  0  0  0  0  0  0
    0.8721    7.8787    0.7800 H   0  0  0  0  0  0  0  0  0  0  0  0
   -0.1488    9.3649    0.9066 H   0  0  0  0  0  0  0  0  0  0  0  0
   -1.4124    7.6547   -0.2054 H   0  0  0  0  0  0  0  0  0  0  0  0
   -0.5940    6.5830   -2.0020 H   0  0  0  0  0  0  0  0  0  0  0  0
   -2.0352    9.8951    0.2033 H   0  0  0  0  0  0  0  0  0  0  0  0
   -2.0559   11.1198   -1.1107 H   0  0  0  0  0  0  0  0  0  0  0  0
   -3.2548    9.7822   -1.1107 H   0  0  0  0  0  0  0  0  0  0  0  0
   -2.8543    7.8187   -2.2414 H   0  0  0  0  0  0  0  0  0  0  0  0
   -2.6297    9.1877   -3.3826 H   0  0  0  0  0  0  0  0  0  0  0  0
   -1.4671    7.8184   -3.3826 H   0  0  0  0  0  0  0  0  0  0  0  0
    3.7394   10.2827   -1.6408 H   0  0  0  0  0  0  0  0  0  0  0  0
    2.7891    9.8744   -3.1095 H   0  0  0  0  0  0  0  0  0  0  0  0
    3.8706   11.3087   -3.1095 H   0  0  0  0  0  0  0  0  0  0  0  0
    2.6004   11.9641    0.0770 H   0  0  0  0  0  0  0  0  0  0  0  0
    3.6243   12.7837   -1.2324 H   0  0  0  0  0  0  0  0  0  0  0  0
    0.9386   13.6827   -0.1529 H   0  0  0  0  0  0  0  0  0  0  0  0
    2.5468   14.4924    0.0049 H   0  0  0  0  0  0  0  0  0  0  0  0
    3.8096   15.0837   -1.7783 H   0  0  0  0  0  0  0  0  0  0  0  0
    3.4035   14.0715   -3.2056 H   0  0  0  0  0  0  0  0  0  0  0  0
    3.0085   15.8238   -3.2056 H   0  0  0  0  0  0  0  0  0  0  0  0
  1  2  1  0
  2  3  1  0
  3  4  1  0
  4  5  1  0
  5  6  1  0
  6  7  1  0
  7  8  1  0
  7  9  1  0
  2 10  1  0
 10 11  1  0
 11 12  1  0
 12 13  1  0
 13 14  1  1
 13 15  1  0
 15 16  1  0
 16 17  1  0
 17 18  2  0
 18 19  1  0
 19 20  1  0
 20 21  1  0
 21 22  1  0
 22 23  1  0
 22 24  1  0
 24 25  1  0
 24 26  1  0
 19 27  1  0
 27 28  1  6
 27 29  1  0
 29 30  1  0
 30 31  1  0
 31 32  1  6
  7  5  1  0
 31 10  1  0
 31 13  1  0
 27 15  1  0
 24 18  1  0
  1 33  1  0
  1 34  1  0
  1 35  1  0
  2 36  1  6
  3 37  1  0
  3 38  1  0
  4 39  1  0
  4 40  1  0
  5 41  1  6
  8 42  1  0
  8 43  1  0
  8 44  1  0
  9 45  1  0
  9 46  1  0
  9 47  1  0
 10 48  1  1
 11 49  1  0
 11 50  1  0
 12 51  1  0
 12 52  1  0
 14 53  1  0
 14 54  1  0
 14 55  1  0
 15 56  1  6
 16 57  1  0
 16 58  1  0
 17 59  1  0
 19 60  1  1
 20 61  1  0
 20 62  1  0
 21 63  1  0
 21 64  1  0
 22 65  1  1
 23 66  1  0
 25 67  1  0
 25 68  1  0
 25 69  1  0
 26 70  1  0
 26 71  1  0
 26 72  1  0
 28 73  1  0
 28 74  1  0
 28 75  1  0
 29 76  1  0
 29 77  1  0
 30 78  1  0
 30 79  1  0
 32 80  1  0
 32 81  1  0
 32 82  1  0
M  END
>  <meeko>  (11) 
{"is_sidechain": [false], "intermolecular_energy": 2.731, "internal_energy": -0.839}

$$$$
EPH_relaxed_0001_pdb2pqr_Repair_76_r2_0001_out
     RDKit          3D

 82 86  0  0  0  0  0  0  0  0999 V2000
    0.0380    9.3290   -2.2220 C   0  0  0  0  0  0  0  0  0  0  0  0
    1.1200   10.3110   -2.6830 C   0  0  2  0  0  0  0  0  0  0  0  0
    2.5140    9.6530   -2.7410 C   0  0  0  0  0  0  0  0  0  0  0  0
    3.4370   10.2610   -3.8010 C   0  0  0  0  0  0  0  0  0  0  0  0
    4.8180   10.4900   -3.2660 C   0  0  2  0  0  0  0  0  0  0  0  0
    5.3280   11.8140   -3.4720 O   0  0  0  0  0  0  0  0  0  0  0  0
    6.0230   10.7560   -4.1490 C   0  0  0  0  0  0  0  0  0  0  0  0
    5.9030   10.8050   -5.6400 C   0  0  0  0  0  0  0  0  0  0  0  0
    7.3880   10.4820   -3.5980 C   0  0  0  0  0  0  0  0  0  0  0  0
    1.1530   11.5200   -1.7550 C   0  0  1  0  0  0  0  0  0  0  0  0
    2.2370   11.3960   -0.6510 C   0  0  0  0  0  0  0  0  0  0  0  0
    2.7850   12.8240   -0.4000 C   0  0  0  0  0  0  0  0  0  0  0  0
    1.7820   13.7590   -1.1170 C   0  0  1  0  0  0  0  0  0  0  0  0
    0.5890   13.9050   -0.1210 C   0  0  0  0  0  0  0  0  0  0  0  0
    2.3340   15.1510   -1.5660 C   0  0  2  0  0  0  0  0  0  0  0  0
    2.8110   16.0630   -0.4220 C   0  0  0  0  0  0  0  0  0  0  0  0
    1.7710   16.9720    0.1440 C   0  0  0  0  0  0  0  0  0  0  0  0
    0.5870   17.2600   -0.4290 C   0  0  0  0  0  0  0  0  0  0  0  0
    0.2360   16.7240   -1.8220 C   0  0  1  0  0  0  0  0  0  0  0  0
   -0.3540   17.8700   -2.6850 C   0  0  0  0  0  0  0  0  0  0  0  0
   -1.5350   18.5610   -2.0110 C   0  0  0  0  0  0  0  0  0  0  0  0
   -1.1310   19.1320   -0.6540 C   0  0  2  0  0  0  0  0  0  0  0  0
   -0.1950   20.1940   -0.8610 O   0  0  0  0  0  0  0  0  0  0  0  0
   -0.5140   18.0700    0.2990 C   0  0  0  0  0  0  0  0  0  0  0  0
   -1.6160   17.0850    0.7630 C   0  0  0  0  0  0  0  0  0  0  0  0
   -0.0210   18.8030    1.5760 C   0  0  0  0  0  0  0  0  0  0  0  0
    1.3900   15.9290   -2.5710 C   0  0  1  0  0  0  0  0  0  0  0  0
    2.2990   16.9240   -3.3550 C   0  0  0  0  0  0  0  0  0  0  0  0
    0.7450   14.9750   -3.6450 C   0  0  0  0  0  0  0  0  0  0  0  0
    0.3300   13.5700   -3.1680 C   0  0  0  0  0  0  0  0  0  0  0  0
    1.4670   12.8970   -2.3930 C   0  0  2  0  0  0  0  0  0  0  0  0
    2.6740   12.7150   -3.3760 C   0  0  0  0  0  0  0  0  0  0  0  0
    0.0101    9.3037   -1.1226 H   0  0  0  0  0  0  0  0  0  0  0  0
   -0.9401    9.6542   -2.6062 H   0  0  0  0  0  0  0  0  0  0  0  0
    0.2671    8.3241   -2.6062 H   0  0  0  0  0  0  0  0  0  0  0  0
    0.8636   10.6321   -3.7034 H   0  0  0  0  0  0  0  0  0  0  0  0
    2.9928    9.7661   -1.7572 H   0  0  0  0  0  0  0  0  0  0  0  0
    2.3611    8.5984   -3.0140 H   0  0  0  0  0  0  0  0  0  0  0  0
    3.4959    9.5748   -4.6587 H   0  0  0  0  0  0  0  0  0  0  0  0
    3.0200   11.2331   -4.1028 H   0  0  0  0  0  0  0  0  0  0  0  0
    4.6455    9.7752   -2.4479 H   0  0  0  0  0  0  0  0  0  0  0  0
    4.9171   11.2076   -5.9155 H   0  0  0  0  0  0  0  0  0  0  0  0
    6.6914   11.4532   -6.0502 H   0  0  0  0  0  0  0  0  0  0  0  0
    6.0123    9.7902   -6.0502 H   0  0  0  0  0  0  0  0  0  0  0  0
    7.3481   10.4900   -2.4988 H   0  0  0  0  0  0  0  0  0  0  0  0
    7.7326    9.4968   -3.9452 H   0  0  0  0  0  0  0  0  0  0  0  0
    8.0861   11.2579   -3.9452 H   0  0  0  0  0  0  0  0  0  0  0  0
    0.1154   11.5016   -1.3902 H   0  0  0  0  0  0  0  0  0  0  0  0
    1.7938   10.9928    0.2715 H   0  0  0  0  0  0  0  0  0  0  0  0
    3.0414   10.7133   -0.9622 H   0  0  0  0  0  0  0  0  0  0  0  0
    2.8182   13.0433    0.6774 H   0  0  0  0  0  0  0  0  0  0  0  0
    3.8118   12.9484   -0.7743 H   0  0  0  0  0  0  0  0  0  0  0  0
    0.9656   13.8589    0.9115 H   0  0  0  0  0  0  0  0  0  0  0  0
    0.0894   14.8710   -0.2863 H   0  0  0  0  0  0  0  0  0  0  0  0
   -0.1288   13.0880   -0.2863 H   0  0  0  0  0  0  0  0  0  0  0  0
    3.2397   14.8767   -2.1267 H   0  0  0  0  0  0  0  0  0  0  0  0
    3.1817   15.4222    0.3916 H   0  0  0  0  0  0  0  0  0  0  0  0
    3.5832   16.7159   -0.8549 H   0  0  0  0  0  0  0  0  0  0  0  0
    1.9905   17.4470    1.1116 H   0  0  0  0  0  0  0  0  0  0  0  0
   -0.5250   15.9455   -1.6642 H   0  0  0  0  0  0  0  0  0  0  0  0
    0.4338   18.6158   -2.8672 H   0  0  0  0  0  0  0  0  0  0  0  0
   -0.7175   17.4276   -3.6242 H   0  0  0  0  0  0  0  0  0  0  0  0
   -1.8887   19.3795   -2.6552 H   0  0  0  0  0  0  0  0  0  0  0  0
   -2.3337   17.8205   -1.8567 H   0  0  0  0  0  0  0  0  0  0  0  0
   -2.0457   19.4982   -0.1649 H   0  0  0  0  0  0  0  0  0  0  0  0
   -0.0510   20.2770   -1.8190 H   0  0  0  0  0  0  0  0  0  0  0  0
   -1.6452   17.0589    1.8623 H   0  0  0  0  0  0  0  0  0  0  0  0
   -2.5912   17.4180    0.3781 H   0  0  0  0  0  0  0  0  0  0  0  0
   -1.3941   16.0787    0.3781 H   0  0  0  0  0  0  0  0  0  0  0  0
   -0.3806   18.2684    2.4675 H   0  0  0  0  0  0  0  0  0  0  0  0
    1.0787   18.8287    1.5825 H   0  0  0  0  0  0  0  0  0  0  0  0
   -0.4118   19.8312    1.5825 H   0  0  0  0  0  0  0  0  0  0  0  0
    2.8645   17.5430   -2.6429 H   0  0  0  0  0  0  0  0  0  0  0  0
    3.0000   16.3597   -3.9876 H   0  0  0  0  0  0  0  0  0  0  0  0
    1.6738   17.5713   -3.9876 H   0  0  0  0  0  0  0  0  0  0  0  0
   -0.1550   15.4732   -4.0346 H   0  0  0  0  0  0  0  0  0  0  0  0
    1.5366   14.8035   -4.3893 H   0  0  0  0  0  0  0  0  0  0  0  0
   -0.5496   13.6573   -2.5133 H   0  0  0  0  0  0  0  0  0  0  0  0
    0.0940   12.9555   -4.0493 H   0  0  0  0  0  0  0  0  0  0  0  0
    3.5996   12.5754   -2.7982 H   0  0  0  0  0  0  0  0  0  0  0  0
    2.5009   11.8328   -4.0098 H   0  0  0  0  0  0  0  0  0  0  0  0
    2.7687   13.6090   -4.0098 H   0  0  0  0  0  0  0  0  0  0  0  0
  1  2  1  0
  2  3  1  0
  3  4  1  0
  4  5  1  0
  5  6  1  0
  6  7  1  0
  7  8  1  0
  7  9  1  0
  2 10  1  0
 10 11  1  0
 11 12  1  0
 12 13  1  0
 13 14  1  1
 13 15  1  0
 15 16  1  0
 16 17  1  0
 17 18  2  0
 18 19  1  0
 19 20  1  0
 20 21  1  0
 21 22  1  0
 22 23  1  0
 22 24  1  0
 24 25  1  0
 24 26  1  0
 19 27  1  0
 27 28  1  6
 27 29  1  0
 29 30  1  0
 30 31  1  0
 31 32  1  6
  7  5  1  0
 31 10  1  0
 31 13  1  0
 27 15  1  0
 24 18  1  0
  1 33  1  0
  1 34  1  0
  1 35  1  0
  2 36  1  6
  3 37  1  0
  3 38  1  0
  4 39  1  0
  4 40  1  0
  5 41  1  1
  8 42  1  0
  8 43  1  0
  8 44  1  0
  9 45  1  0
  9 46  1  0
  9 47  1  0
 10 48  1  1
 11 49  1  0
 11 50  1  0
 12 51  1  0
 12 52  1  0
 14 53  1  0
 14 54  1  0
 14 55  1  0
 15 56  1  6
 16 57  1  0
 16 58  1  0
 17 59  1  0
 19 60  1  1
 20 61  1  0
 20 62  1  0
 21 63  1  0
 21 64  1  0
 22 65  1  1
 23 66  1  0
 25 67  1  0
 25 68  1  0
 25 69  1  0
 26 70  1  0
 26 71  1  0
 26 72  1  0
 28 73  1  0
 28 74  1  0
 28 75  1  0
 29 76  1  0
 29 77  1  0
 30 78  1  0
 30 79  1  0
 32 80  1  0
 32 81  1  0
 32 82  1  0
M  END
>  <meeko>  (12) 
{"is_sidechain": [false], "intermolecular_energy": 2.731, "internal_energy": -0.839}

$$$$
EPH_relaxed_0001_pdb2pqr_Repair_76_r2_0001_out
     RDKit          3D

 82 86  0  0  0  0  0  0  0  0999 V2000
   -0.0390   20.1920   -1.5740 C   0  0  0  0  0  0  0  0  0  0  0  0
    0.0530   19.0050   -0.6120 C   0  0  2  0  0  0  0  0  0  0  0  0
    0.8450   19.3510    0.6650 C   0  0  0  0  0  0  0  0  0  0  0  0
    2.2550   19.8800    0.3890 C   0  0  0  0  0  0  0  0  0  0  0  0
    3.0940   19.8960    1.6310 C   0  0  2  0  0  0  0  0  0  0  0  0
    4.4790   20.1940    1.4140 O   0  0  0  0  0  0  0  0  0  0  0  0
    4.1850   18.8800    1.9160 C   0  0  0  0  0  0  0  0  0  0  0  0
    4.4950   17.7770    0.9540 C   0  0  0  0  0  0  0  0  0  0  0  0
    4.6110   18.6680    3.3350 C   0  0  0  0  0  0  0  0  0  0  0  0
    0.6930   17.8140   -1.3150 C   0  0  1  0  0  0  0  0  0  0  0  0
    2.1560   18.0930   -1.7500 C   0  0  0  0  0  0  0  0  0  0  0  0
    2.9300   16.7580   -1.5970 C   0  0  0  0  0  0  0  0  0  0  0  0
    1.8300   15.6890   -1.4030 C   0  0  1  0  0  0  0  0  0  0  0  0
    1.3180   15.3740   -2.8440 C   0  0  0  0  0  0  0  0  0  0  0  0
    2.2550   14.3900   -0.6440 C   0  0  2  0  0  0  0  0  0  0  0  0
    3.3470   13.5560   -1.3380 C   0  0  0  0  0  0  0  0  0  0  0  0
    2.8490   12.5080   -2.2770 C   0  0  0  0  0  0  0  0  0  0  0  0
    1.5840   12.0530   -2.3420 C   0  0  0  0  0  0  0  0  0  0  0  0
    0.5220   12.5320   -1.3430 C   0  0  1  0  0  0  0  0  0  0  0  0
   -0.2690   11.3120   -0.8040 C   0  0  0  0  0  0  0  0  0  0  0  0
   -0.8630   10.4590   -1.9210 C   0  0  0  0  0  0  0  0  0  0  0  0
    0.2300    9.9540   -2.8600 C   0  0  2  0  0  0  0  0  0  0  0  0
    1.0640    9.0360   -2.1450 O   0  0  0  0  0  0  0  0  0  0  0  0
    1.1000   11.0940   -3.4580 C   0  0  0  0  0  0  0  0  0  0  0  0
    0.2620   11.9120   -4.4710 C   0  0  0  0  0  0  0  0  0  0  0  0
    2.2500   10.4410   -4.2720 C   0  0  0  0  0  0  0  0  0  0  0  0
    1.0430   13.4840   -0.1810 C   0  0  1  0  0  0  0  0  0  0  0  0
    1.5580   12.6280    1.0160 C   0  0  0  0  0  0  0  0  0  0  0  0
   -0.1640   14.3330    0.3670 C   0  0  0  0  0  0  0  0  0  0  0  0
   -0.4590   15.6650   -0.3500 C   0  0  0  0  0  0  0  0  0  0  0  0
    0.8180   16.4950   -0.5110 C   0  0  2  0  0  0  0  0  0  0  0  0
    1.3430   16.8470    0.9230 C   0  0  0  0  0  0  0  0  0  0  0  0
   -0.1114   21.1262   -0.9978 H   0  0  0  0  0  0  0  0  0  0  0  0
    0.8596   20.2208   -2.2078 H   0  0  0  0  0  0  0  0  0  0  0  0
   -0.9313   20.0820   -2.2078 H   0  0  0  0  0  0  0  0  0  0  0  0
   -0.9718   18.7489   -0.3050 H   0  0  0  0  0  0  0  0  0  0  0  0
    0.2884   20.1193    1.2216 H   0  0  0  0  0  0  0  0  0  0  0  0
    0.9574   18.4181    1.2369 H   0  0  0  0  0  0  0  0  0  0  0  0
    2.7379   19.2342   -0.3592 H   0  0  0  0  0  0  0  0  0  0  0  0
    2.1678   20.9128    0.0207 H   0  0  0  0  0  0  0  0  0  0  0  0
    2.2432   20.2529    2.2299 H   0  0  0  0  0  0  0  0  0  0  0  0
    4.7514   16.8647    1.5125 H   0  0  0  0  0  0  0  0  0  0  0  0
    3.6161   17.5847    0.3211 H   0  0  0  0  0  0  0  0  0  0  0  0
    5.3454   18.0707    0.3211 H   0  0  0  0  0  0  0  0  0  0  0  0
    3.8351   19.0541    4.0124 H   0  0  0  0  0  0  0  0  0  0  0  0
    4.7554   17.5929    3.5178 H   0  0  0  0  0  0  0  0  0  0  0  0
    5.5557   19.2011    3.5178 H   0  0  0  0  0  0  0  0  0  0  0  0
   -0.0204   17.6837   -2.1421 H   0  0  0  0  0  0  0  0  0  0  0  0
    2.1825   18.4284   -2.7973 H   0  0  0  0  0  0  0  0  0  0  0  0
    2.6074   18.8844   -1.1336 H   0  0  0  0  0  0  0  0  0  0  0  0
    3.5219   16.5467   -2.4998 H   0  0  0  0  0  0  0  0  0  0  0  0
    3.6408   16.7819   -0.7579 H   0  0  0  0  0  0  0  0  0  0  0  0
    0.3826   14.7985   -2.7831 H   0  0  0  0  0  0  0  0  0  0  0  0
    1.1347   16.3158   -3.3820 H   0  0  0  0  0  0  0  0  0  0  0  0
    2.0760   14.7858   -3.3820 H   0  0  0  0  0  0  0  0  0  0  0  0
    2.7203   14.7916    0.2682 H   0  0  0  0  0  0  0  0  0  0  0  0
    3.9901   14.2439   -1.9066 H   0  0  0  0  0  0  0  0  0  0  0  0
    3.8757   13.0197   -0.5363 H   0  0  0  0  0  0  0  0  0  0  0  0
    3.5778   12.0704   -2.9751 H   0  0  0  0  0  0  0  0  0  0  0  0
   -0.1516   13.1931   -1.9081 H   0  0  0  0  0  0  0  0  0  0  0  0
    0.4111   10.6869   -0.2068 H   0  0  0  0  0  0  0  0  0  0  0  0
   -1.1030   11.6963   -0.1984 H   0  0  0  0  0  0  0  0  0  0  0  0
   -1.3839    9.5973   -1.4781 H   0  0  0  0  0  0  0  0  0  0  0  0
   -1.5658   11.0767   -2.4994 H   0  0  0  0  0  0  0  0  0  0  0  0
   -0.2666    9.4615   -3.7090 H   0  0  0  0  0  0  0  0  0  0  0  0
    1.0350    9.2830   -1.2050 H   0  0  0  0  0  0  0  0  0  0  0  0
   -0.4220   12.5796   -3.9265 H   0  0  0  0  0  0  0  0  0  0  0  0
    0.9337   12.5114   -5.1031 H   0  0  0  0  0  0  0  0  0  0  0  0
   -0.3210   11.2260   -5.1031 H   0  0  0  0  0  0  0  0  0  0  0  0
    2.9943   10.0184   -3.5810 H   0  0  0  0  0  0  0  0  0  0  0  0
    1.8417    9.6400   -4.9058 H   0  0  0  0  0  0  0  0  0  0  0  0
    2.7287   11.2020   -4.9058 H   0  0  0  0  0  0  0  0  0  0  0  0
    1.2686   13.1090    1.9620 H   0  0  0  0  0  0  0  0  0  0  0  0
    1.1148   11.6225    0.9653 H   0  0  0  0  0  0  0  0  0  0  0  0
    2.6540   12.5486    0.9653 H   0  0  0  0  0  0  0  0  0  0  0  0
   -1.0679   13.7101    0.2970 H   0  0  0  0  0  0  0  0  0  0  0  0
    0.1236   14.6147    1.3907 H   0  0  0  0  0  0  0  0  0  0  0  0
   -0.8784   15.4532   -1.3446 H   0  0  0  0  0  0  0  0  0  0  0  0
   -1.1761   16.2383    0.2559 H   0  0  0  0  0  0  0  0  0  0  0  0
    0.6776   16.4009    1.6768 H   0  0  0  0  0  0  0  0  0  0  0  0
    2.3601   16.4476    1.0494 H   0  0  0  0  0  0  0  0  0  0  0  0
    1.3598   17.9396    1.0494 H   0  0  0  0  0  0  0  0  0  0  0  0
  1  2  1  0
  2  3  1  0
  3  4  1  0
  4  5  1  0
  5  6  1  0
  6  7  1  0
  7  8  1  0
  7  9  1  0
  2 10  1  0
 10 11  1  0
 11 12  1  0
 12 13  1  0
 13 14  1  6
 13 15  1  0
 15 16  1  0
 16 17  1  0
 17 18  2  0
 18 19  1  0
 19 20  1  0
 20 21  1  0
 21 22  1  0
 22 23  1  0
 22 24  1  0
 24 25  1  0
 24 26  1  0
 19 27  1  0
 27 28  1  1
 27 29  1  0
 29 30  1  0
 30 31  1  0
 31 32  1  1
  7  5  1  0
 31 10  1  0
 31 13  1  0
 27 15  1  0
 24 18  1  0
  1 33  1  0
  1 34  1  0
  1 35  1  0
  2 36  1  1
  3 37  1  0
  3 38  1  0
  4 39  1  0
  4 40  1  0
  5 41  1  1
  8 42  1  0
  8 43  1  0
  8 44  1  0
  9 45  1  0
  9 46  1  0
  9 47  1  0
 10 48  1  6
 11 49  1  0
 11 50  1  0
 12 51  1  0
 12 52  1  0
 14 53  1  0
 14 54  1  0
 14 55  1  0
 15 56  1  1
 16 57  1  0
 16 58  1  0
 17 59  1  0
 19 60  1  6
 20 61  1  0
 20 62  1  0
 21 63  1  0
 21 64  1  0
 22 65  1  6
 23 66  1  0
 25 67  1  0
 25 68  1  0
 25 69  1  0
 26 70  1  0
 26 71  1  0
 26 72  1  0
 28 73  1  0
 28 74  1  0
 28 75  1  0
 29 76  1  0
 29 77  1  0
 30 78  1  0
 30 79  1  0
 32 80  1  0
 32 81  1  0
 32 82  1  0
M  END
>  <meeko>  (13) 
{"is_sidechain": [false], "intermolecular_energy": 2.731, "internal_energy": -0.839}

$$$$
EPH_relaxed_0001_pdb2pqr_Repair_76_r2_0001_out
     RDKit          3D

 82 86  0  0  0  0  0  0  0  0999 V2000
    2.9340   18.3780   -3.2440 C   0  0  0  0  0  0  0  0  0  0  0  0
    2.1730   18.1330   -1.9380 C   0  0  2  0  0  0  0  0  0  0  0  0
    2.5610   19.1450   -0.8410 C   0  0  0  0  0  0  0  0  0  0  0  0
    3.8070   18.7440   -0.0470 C   0  0  0  0  0  0  0  0  0  0  0  0
    3.6020   18.9110    1.4280 C   0  0  2  0  0  0  0  0  0  0  0  0
    3.9790   20.1940    1.9440 O   0  0  0  0  0  0  0  0  0  0  0  0
    4.7400   19.0720    2.4190 C   0  0  0  0  0  0  0  0  0  0  0  0
    6.1680   19.0720    1.9720 C   0  0  0  0  0  0  0  0  0  0  0  0
    4.4900   18.7390    3.8560 C   0  0  0  0  0  0  0  0  0  0  0  0
    2.4240   16.7120   -1.4480 C   0  0  1  0  0  0  0  0  0  0  0  0
    3.0980   16.6720   -0.0510 C   0  0  0  0  0  0  0  0  0  0  0  0
    2.5260   15.4330    0.6860 C   0  0  0  0  0  0  0  0  0  0  0  0
    1.8060   14.6220   -0.4160 C   0  0  1  0  0  0  0  0  0  0  0  0
    2.9400   13.8280   -1.1360 C   0  0  0  0  0  0  0  0  0  0  0  0
    0.6540   13.6780    0.0610 C   0  0  2  0  0  0  0  0  0  0  0  0
    1.0880   12.5490    1.0130 C   0  0  0  0  0  0  0  0  0  0  0  0
    1.4800   11.2710    0.3480 C   0  0  0  0  0  0  0  0  0  0  0  0
    1.2170   10.9410   -0.9300 C   0  0  0  0  0  0  0  0  0  0  0  0
    0.3690   11.8570   -1.8210 C   0  0  1  0  0  0  0  0  0  0  0  0
   -0.6900   11.0110   -2.5750 C   0  0  0  0  0  0  0  0  0  0  0  0
   -0.0700    9.8530   -3.3510 C   0  0  0  0  0  0  0  0  0  0  0  0
    0.7160    8.9320   -2.4210 C   0  0  2  0  0  0  0  0  0  0  0  0
   -0.2000    8.2870   -1.5310 O   0  0  0  0  0  0  0  0  0  0  0  0
    1.8070    9.6760   -1.6010 C   0  0  0  0  0  0  0  0  0  0  0  0
    2.9560   10.1160   -2.5420 C   0  0  0  0  0  0  0  0  0  0  0  0
    2.4270    8.6620   -0.6030 C   0  0  0  0  0  0  0  0  0  0  0  0
   -0.2610   13.1300   -1.1070 C   0  0  1  0  0  0  0  0  0  0  0  0
   -1.6300   12.7540   -0.4620 C   0  0  0  0  0  0  0  0  0  0  0  0
   -0.5690   14.2280   -2.1920 C   0  0  0  0  0  0  0  0  0  0  0  0
    0.5720   15.2060   -2.5340 C   0  0  0  0  0  0  0  0  0  0  0  0
    1.1890   15.7950   -1.2620 C   0  0  2  0  0  0  0  0  0  0  0  0
    0.0770   16.6180   -0.5270 C   0  0  0  0  0  0  0  0  0  0  0  0
    3.9582   18.7077   -3.0153 H   0  0  0  0  0  0  0  0  0  0  0  0
    2.9705   17.4462   -3.8275 H   0  0  0  0  0  0  0  0  0  0  0  0
    2.4200   19.1561   -3.8275 H   0  0  0  0  0  0  0  0  0  0  0  0
    1.1021   18.2693   -2.1491 H   0  0  0  0  0  0  0  0  0  0  0  0
    2.7511   20.1180   -1.3176 H   0  0  0  0  0  0  0  0  0  0  0  0
    1.7240   19.1833   -0.1283 H   0  0  0  0  0  0  0  0  0  0  0  0
    4.0397   17.6897   -0.2574 H   0  0  0  0  0  0  0  0  0  0  0  0
    4.6351   19.3995   -0.3544 H   0  0  0  0  0  0  0  0  0  0  0  0
    2.7323   18.2379    1.4063 H   0  0  0  0  0  0  0  0  0  0  0  0
    6.5179   18.0349    1.8625 H   0  0  0  0  0  0  0  0  0  0  0  0
    6.2496   19.5905    1.0053 H   0  0  0  0  0  0  0  0  0  0  0  0
    6.7862   19.5905    2.7196 H   0  0  0  0  0  0  0  0  0  0  0  0
    5.0268   19.4540    4.4968 H   0  0  0  0  0  0  0  0  0  0  0  0
    3.4114   18.7983    4.0639 H   0  0  0  0  0  0  0  0  0  0  0  0
    4.8480   17.7199    4.0639 H   0  0  0  0  0  0  0  0  0  0  0  0
    3.0475   16.3398   -2.2742 H   0  0  0  0  0  0  0  0  0  0  0  0
    4.1887   16.5784   -0.1591 H   0  0  0  0  0  0  0  0  0  0  0  0
    2.8954   17.5950    0.5120 H   0  0  0  0  0  0  0  0  0  0  0  0
    3.3361   14.8412    1.1371 H   0  0  0  0  0  0  0  0  0  0  0  0
    1.8501   15.7116    1.5079 H   0  0  0  0  0  0  0  0  0  0  0  0
    3.5985   13.3670   -0.3851 H   0  0  0  0  0  0  0  0  0  0  0  0
    2.4953   13.0429   -1.7652 H   0  0  0  0  0  0  0  0  0  0  0  0
    3.5256   14.5144   -1.7652 H   0  0  0  0  0  0  0  0  0  0  0  0
    0.0296   14.3538    0.6639 H   0  0  0  0  0  0  0  0  0  0  0  0
    1.9495   12.9076    1.5954 H   0  0  0  0  0  0  0  0  0  0  0  0
    0.2074   12.3144    1.6291 H   0  0  0  0  0  0  0  0  0  0  0  0
    2.0306   10.5366    0.9542 H   0  0  0  0  0  0  0  0  0  0  0  0
    1.0659   12.3099   -2.5415 H   0  0  0  0  0  0  0  0  0  0  0  0
   -1.4021   10.6033   -1.8425 H   0  0  0  0  0  0  0  0  0  0  0  0
   -1.1884   11.6702   -3.3010 H   0  0  0  0  0  0  0  0  0  0  0  0
   -0.8704    9.2759   -3.8371 H   0  0  0  0  0  0  0  0  0  0  0  0
    0.6194   10.2636   -4.1034 H   0  0  0  0  0  0  0  0  0  0  0  0
    1.2427    8.1985   -3.0491 H   0  0  0  0  0  0  0  0  0  0  0  0
    0.1040    7.3710   -1.4100 H   0  0  0  0  0  0  0  0  0  0  0  0
    3.8164   10.4455   -1.9410 H   0  0  0  0  0  0  0  0  0  0  0  0
    3.2550    9.2688   -3.1766 H   0  0  0  0  0  0  0  0  0  0  0  0
    2.6126   10.9462   -3.1766 H   0  0  0  0  0  0  0  0  0  0  0  0
    2.2256    8.9914    0.4270 H   0  0  0  0  0  0  0  0  0  0  0  0
    1.9812    7.6694   -0.7643 H   0  0  0  0  0  0  0  0  0  0  0  0
    3.5137    8.6065   -0.7643 H   0  0  0  0  0  0  0  0  0  0  0  0
   -1.5382   12.7792    0.6339 H   0  0  0  0  0  0  0  0  0  0  0  0
   -2.3966   13.4749   -0.7824 H   0  0  0  0  0  0  0  0  0  0  0  0
   -1.9209   11.7427   -0.7824 H   0  0  0  0  0  0  0  0  0  0  0  0
   -0.8518   13.7090   -3.1197 H   0  0  0  0  0  0  0  0  0  0  0  0
   -1.3614   14.8522   -1.7532 H   0  0  0  0  0  0  0  0  0  0  0  0
    1.3502   14.6687   -3.0959 H   0  0  0  0  0  0  0  0  0  0  0  0
    0.1600   16.0284   -3.1372 H   0  0  0  0  0  0  0  0  0  0  0  0
    0.2078   16.5212    0.5609 H   0  0  0  0  0  0  0  0  0  0  0  0
    0.1555   17.6773   -0.8129 H   0  0  0  0  0  0  0  0  0  0  0  0
   -0.9131   16.2334   -0.8129 H   0  0  0  0  0  0  0  0  0  0  0  0
  1  2  1  0
  2  3  1  0
  3  4  1  0
  4  5  1  0
  5  6  1  0
  6  7  1  0
  7  8  1  0
  7  9  1  0
  2 10  1  0
 10 11  1  0
 11 12  1  0
 12 13  1  0
 13 14  1  6
 13 15  1  0
 15 16  1  0
 16 17  1  0
 17 18  2  0
 18 19  1  0
 19 20  1  0
 20 21  1  0
 21 22  1  0
 22 23  1  0
 22 24  1  0
 24 25  1  0
 24 26  1  0
 19 27  1  0
 27 28  1  1
 27 29  1  0
 29 30  1  0
 30 31  1  0
 31 32  1  1
  7  5  1  0
 31 10  1  0
 31 13  1  0
 27 15  1  0
 24 18  1  0
  1 33  1  0
  1 34  1  0
  1 35  1  0
  2 36  1  6
  3 37  1  0
  3 38  1  0
  4 39  1  0
  4 40  1  0
  5 41  1  1
  8 42  1  0
  8 43  1  0
  8 44  1  0
  9 45  1  0
  9 46  1  0
  9 47  1  0
 10 48  1  6
 11 49  1  0
 11 50  1  0
 12 51  1  0
 12 52  1  0
 14 53  1  0
 14 54  1  0
 14 55  1  0
 15 56  1  1
 16 57  1  0
 16 58  1  0
 17 59  1  0
 19 60  1  6
 20 61  1  0
 20 62  1  0
 21 63  1  0
 21 64  1  0
 22 65  1  6
 23 66  1  0
 25 67  1  0
 25 68  1  0
 25 69  1  0
 26 70  1  0
 26 71  1  0
 26 72  1  0
 28 73  1  0
 28 74  1  0
 28 75  1  0
 29 76  1  0
 29 77  1  0
 30 78  1  0
 30 79  1  0
 32 80  1  0
 32 81  1  0
 32 82  1  0
M  END
>  <meeko>  (14) 
{"is_sidechain": [false], "intermolecular_energy": 2.731, "internal_energy": -0.839}

$$$$
EPH_relaxed_0001_pdb2pqr_Repair_76_r2_0001_out
     RDKit          3D

 82 86  0  0  0  0  0  0  0  0999 V2000
   -1.4110   16.6130   -6.2480 C   0  0  0  0  0  0  0  0  0  0  0  0
   -0.1560   15.9900   -6.8650 C   0  0  2  0  0  0  0  0  0  0  0  0
   -0.3490   15.6510   -8.3570 C   0  0  0  0  0  0  0  0  0  0  0  0
    0.3760   16.6110   -9.3040 C   0  0  0  0  0  0  0  0  0  0  0  0
    1.7880   16.1780   -9.5580 C   0  0  2  0  0  0  0  0  0  0  0  0
    2.3600   16.6810  -10.7720 O   0  0  0  0  0  0  0  0  0  0  0  0
    2.1900   15.2570  -10.6950 C   0  0  0  0  0  0  0  0  0  0  0  0
    1.1770   14.7120  -11.6530 C   0  0  0  0  0  0  0  0  0  0  0  0
    3.4770   14.5010  -10.5830 C   0  0  0  0  0  0  0  0  0  0  0  0
    0.2350   14.7350   -6.0930 C   0  0  1  0  0  0  0  0  0  0  0  0
    1.2940   13.8800   -6.8380 C   0  0  0  0  0  0  0  0  0  0  0  0
    2.2090   13.2560   -5.7540 C   0  0  0  0  0  0  0  0  0  0  0  0
    1.4580   13.4970   -4.4240 C   0  0  1  0  0  0  0  0  0  0  0  0
    0.3900   12.3610   -4.3550 C   0  0  0  0  0  0  0  0  0  0  0  0
    2.3380   13.5410   -3.1320 C   0  0  2  0  0  0  0  0  0  0  0  0
    3.0870   12.2370   -2.8070 C   0  0  0  0  0  0  0  0  0  0  0  0
    2.3490   11.2780   -1.9330 C   0  0  0  0  0  0  0  0  0  0  0  0
    1.2590   11.5690   -1.1980 C   0  0  0  0  0  0  0  0  0  0  0  0
    0.7190   13.0030   -1.1240 C   0  0  1  0  0  0  0  0  0  0  0  0
    0.4170   13.3660    0.3540 C   0  0  0  0  0  0  0  0  0  0  0  0
   -0.5110   12.3580    1.0260 C   0  0  0  0  0  0  0  0  0  0  0  0
    0.0870   10.9540    0.9830 C   0  0  2  0  0  0  0  0  0  0  0  0
    1.2610   10.9280    1.8020 O   0  0  0  0  0  0  0  0  0  0  0  0
    0.4430   10.4830   -0.4550 C   0  0  0  0  0  0  0  0  0  0  0  0
   -0.8580   10.2220   -1.2530 C   0  0  0  0  0  0  0  0  0  0  0  0
    1.1660    9.1140   -0.3430 C   0  0  0  0  0  0  0  0  0  0  0  0
    1.5910   14.1110   -1.8580 C   0  0  1  0  0  0  0  0  0  0  0  0
    2.6950   14.6440   -0.8960 C   0  0  0  0  0  0  0  0  0  0  0  0
    0.6720   15.3410   -2.2040 C   0  0  0  0  0  0  0  0  0  0  0  0
   -0.0780   15.2920   -3.5490 C   0  0  0  0  0  0  0  0  0  0  0  0
    0.8730   14.9300   -4.6940 C   0  0  2  0  0  0  0  0  0  0  0  0
    1.9460   16.0670   -4.8020 C   0  0  0  0  0  0  0  0  0  0  0  0
   -1.3372   16.5764   -5.1511 H   0  0  0  0  0  0  0  0  0  0  0  0
   -1.4994   17.6596   -6.5748 H   0  0  0  0  0  0  0  0  0  0  0  0
   -2.2981   16.0507   -6.5748 H   0  0  0  0  0  0  0  0  0  0  0  0
    0.6503   16.7351   -6.7970 H   0  0  0  0  0  0  0  0  0  0  0  0
    0.0317   14.6343   -8.5344 H   0  0  0  0  0  0  0  0  0  0  0  0
   -1.4245   15.7391   -8.5706 H   0  0  0  0  0  0  0  0  0  0  0  0
   -0.1646   16.6434  -10.2614 H   0  0  0  0  0  0  0  0  0  0  0  0
    0.4016   17.6042   -8.8320 H   0  0  0  0  0  0  0  0  0  0  0  0
    1.9984   16.1531   -8.4786 H   0  0  0  0  0  0  0  0  0  0  0  0
    0.3444   14.2641  -11.0907 H   0  0  0  0  0  0  0  0  0  0  0  0
    0.7956   15.5267  -12.2861 H   0  0  0  0  0  0  0  0  0  0  0  0
    1.6466   13.9448  -12.2861 H   0  0  0  0  0  0  0  0  0  0  0  0
    3.7254   14.3551   -9.5214 H   0  0  0  0  0  0  0  0  0  0  0  0
    3.3708   13.5217  -11.0727 H   0  0  0  0  0  0  0  0  0  0  0  0
    4.2806   15.0706  -11.0727 H   0  0  0  0  0  0  0  0  0  0  0  0
   -0.7545   14.2648   -5.9938 H   0  0  0  0  0  0  0  0  0  0  0  0
    0.8001   13.0871   -7.4188 H   0  0  0  0  0  0  0  0  0  0  0  0
    1.8763   14.4959   -7.5391 H   0  0  0  0  0  0  0  0  0  0  0  0
    2.3452   12.1793   -5.9335 H   0  0  0  0  0  0  0  0  0  0  0  0
    3.2153   13.7001   -5.7513 H   0  0  0  0  0  0  0  0  0  0  0  0
    0.1705   12.1275   -3.3027 H   0  0  0  0  0  0  0  0  0  0  0  0
   -0.5310   12.6926   -4.8568 H   0  0  0  0  0  0  0  0  0  0  0  0
    0.7778   11.4622   -4.8568 H   0  0  0  0  0  0  0  0  0  0  0  0
    3.1146   14.2721   -3.4012 H   0  0  0  0  0  0  0  0  0  0  0  0
    3.3112   11.7283   -3.7562 H   0  0  0  0  0  0  0  0  0  0  0  0
    3.9838   12.5338   -2.2434 H   0  0  0  0  0  0  0  0  0  0  0  0
    2.7277   10.2463   -1.8854 H   0  0  0  0  0  0  0  0  0  0  0  0
   -0.2130   13.0080   -1.7083 H   0  0  0  0  0  0  0  0  0  0  0  0
    1.3655   13.3976    0.9103 H   0  0  0  0  0  0  0  0  0  0  0  0
   -0.0892   14.3426    0.3614 H   0  0  0  0  0  0  0  0  0  0  0  0
   -0.6636   12.6525    2.0748 H   0  0  0  0  0  0  0  0  0  0  0  0
   -1.4694   12.3485    0.4862 H   0  0  0  0  0  0  0  0  0  0  0  0
   -0.6769   10.2584    1.3605 H   0  0  0  0  0  0  0  0  0  0  0  0
    1.9360   10.4090    1.3320 H   0  0  0  0  0  0  0  0  0  0  0  0
   -1.6901   10.0551   -0.5532 H   0  0  0  0  0  0  0  0  0  0  0  0
   -1.0807   11.0934   -1.8863 H   0  0  0  0  0  0  0  0  0  0  0  0
   -0.7274    9.3322   -1.8863 H   0  0  0  0  0  0  0  0  0  0  0  0
    1.3018    8.8568    0.7178 H   0  0  0  0  0  0  0  0  0  0  0  0
    0.5601    8.3381   -0.8337 H   0  0  0  0  0  0  0  0  0  0  0  0
    2.1485    9.1770   -0.8337 H   0  0  0  0  0  0  0  0  0  0  0  0
    2.3782   14.4911    0.1462 H   0  0  0  0  0  0  0  0  0  0  0  0
    3.6335   14.0998   -1.0776 H   0  0  0  0  0  0  0  0  0  0  0  0
    2.8526   15.7174   -1.0776 H   0  0  0  0  0  0  0  0  0  0  0  0
   -0.0805   15.4287   -1.4065 H   0  0  0  0  0  0  0  0  0  0  0  0
    1.3573   16.1974   -2.2879 H   0  0  0  0  0  0  0  0  0  0  0  0
   -0.8742   14.5354   -3.4897 H   0  0  0  0  0  0  0  0  0  0  0  0
   -0.5053   16.2857   -3.7488 H   0  0  0  0  0  0  0  0  0  0  0  0
    2.2461   16.3850   -3.7926 H   0  0  0  0  0  0  0  0  0  0  0  0
    2.8257   15.6906   -5.3446 H   0  0  0  0  0  0  0  0  0  0  0  0
    1.5193   16.9235   -5.3446 H   0  0  0  0  0  0  0  0  0  0  0  0
  1  2  1  0
  2  3  1  0
  3  4  1  0
  4  5  1  0
  5  6  1  0
  6  7  1  0
  7  8  1  0
  7  9  1  0
  2 10  1  0
 10 11  1  0
 11 12  1  0
 12 13  1  0
 13 14  1  1
 13 15  1  0
 15 16  1  0
 16 17  1  0
 17 18  2  0
 18 19  1  0
 19 20  1  0
 20 21  1  0
 21 22  1  0
 22 23  1  0
 22 24  1  0
 24 25  1  0
 24 26  1  0
 19 27  1  0
 27 28  1  1
 27 29  1  0
 29 30  1  0
 30 31  1  0
 31 32  1  6
  7  5  1  0
 31 10  1  0
 31 13  1  0
 27 15  1  0
 24 18  1  0
  1 33  1  0
  1 34  1  0
  1 35  1  0
  2 36  1  6
  3 37  1  0
  3 38  1  0
  4 39  1  0
  4 40  1  0
  5 41  1  1
  8 42  1  0
  8 43  1  0
  8 44  1  0
  9 45  1  0
  9 46  1  0
  9 47  1  0
 10 48  1  1
 11 49  1  0
 11 50  1  0
 12 51  1  0
 12 52  1  0
 14 53  1  0
 14 54  1  0
 14 55  1  0
 15 56  1  6
 16 57  1  0
 16 58  1  0
 17 59  1  0
 19 60  1  6
 20 61  1  0
 20 62  1  0
 21 63  1  0
 21 64  1  0
 22 65  1  1
 23 66  1  0
 25 67  1  0
 25 68  1  0
 25 69  1  0
 26 70  1  0
 26 71  1  0
 26 72  1  0
 28 73  1  0
 28 74  1  0
 28 75  1  0
 29 76  1  0
 29 77  1  0
 30 78  1  0
 30 79  1  0
 32 80  1  0
 32 81  1  0
 32 82  1  0
M  END
>  <meeko>  (15) 
{"is_sidechain": [false], "intermolecular_energy": 2.731, "internal_energy": -0.839}

$$$$
EPH_relaxed_0001_pdb2pqr_Repair_76_r2_0001_out
     RDKit          3D

 82 86  0  0  0  0  0  0  0  0999 V2000
   -0.1720    9.2470   -4.1500 C   0  0  0  0  0  0  0  0  0  0  0  0
   -0.0150    9.4650   -2.6430 C   0  0  2  0  0  0  0  0  0  0  0  0
   -0.8320    8.4480   -1.8210 C   0  0  0  0  0  0  0  0  0  0  0  0
   -2.3360    8.4970   -2.1010 C   0  0  0  0  0  0  0  0  0  0  0  0
   -2.8340    7.2080   -2.6820 C   0  0  2  0  0  0  0  0  0  0  0  0
   -3.7870    7.3580   -3.7430 O   0  0  0  0  0  0  0  0  0  0  0  0
   -4.2660    6.7260   -2.5450 C   0  0  0  0  0  0  0  0  0  0  0  0
   -5.2910    7.5260   -1.8030 C   0  0  0  0  0  0  0  0  0  0  0  0
   -4.5480    5.2650   -2.7050 C   0  0  0  0  0  0  0  0  0  0  0  0
   -0.4310   10.8850   -2.2760 C   0  0  1  0  0  0  0  0  0  0  0  0
   -1.6540   10.9210   -1.3210 C   0  0  0  0  0  0  0  0  0  0  0  0
   -1.4460   12.1310   -0.3750 C   0  0  0  0  0  0  0  0  0  0  0  0
   -0.2960   12.9390   -1.0210 C   0  0  1  0  0  0  0  0  0  0  0  0
   -0.9780   13.7770   -2.1470 C   0  0  0  0  0  0  0  0  0  0  0  0
    0.5420   13.8410   -0.0570 C   0  0  2  0  0  0  0  0  0  0  0  0
   -0.2480   14.9660    0.6340 C   0  0  0  0  0  0  0  0  0  0  0  0
   -0.2810   16.2660   -0.1000 C   0  0  0  0  0  0  0  0  0  0  0  0
    0.5290   16.6090   -1.1190 C   0  0  0  0  0  0  0  0  0  0  0  0
    1.6660   15.6830   -1.5680 C   0  0  1  0  0  0  0  0  0  0  0  0
    2.9660   16.5100   -1.7510 C   0  0  0  0  0  0  0  0  0  0  0  0
    2.7760   17.6980   -2.6890 C   0  0  0  0  0  0  0  0  0  0  0  0
    1.6770   18.6260   -2.1780 C   0  0  2  0  0  0  0  0  0  0  0  0
    2.1140   19.2310   -0.9570 O   0  0  0  0  0  0  0  0  0  0  0  0
    0.3210   17.9010   -1.9470 C   0  0  0  0  0  0  0  0  0  0  0  0
   -0.2990   17.5100   -3.3110 C   0  0  0  0  0  0  0  0  0  0  0  0
   -0.6590   18.9170   -1.3000 C   0  0  0  0  0  0  0  0  0  0  0  0
    1.8910   14.3820   -0.6830 C   0  0  1  0  0  0  0  0  0  0  0  0
    2.8380   14.7080    0.5120 C   0  0  0  0  0  0  0  0  0  0  0  0
    2.6270   13.2920   -1.5490 C   0  0  0  0  0  0  0  0  0  0  0  0
    1.7380   12.3540   -2.3880 C   0  0  0  0  0  0  0  0  0  0  0  0
    0.6100   11.7620   -1.5370 C   0  0  2  0  0  0  0  0  0  0  0  0
    1.2660   10.8960   -0.4090 C   0  0  0  0  0  0  0  0  0  0  0  0
   -0.8063    8.3663   -4.3290 H   0  0  0  0  0  0  0  0  0  0  0  0
   -0.6401   10.1339   -4.6020 H   0  0  0  0  0  0  0  0  0  0  0  0
    0.8175    9.0842   -4.6020 H   0  0  0  0  0  0  0  0  0  0  0  0
    1.0461    9.3133   -2.3961 H   0  0  0  0  0  0  0  0  0  0  0  0
   -0.4675    7.4375   -2.0575 H   0  0  0  0  0  0  0  0  0  0  0  0
   -0.6938    8.7066   -0.7608 H   0  0  0  0  0  0  0  0  0  0  0  0
   -2.8680    8.6921   -1.1582 H   0  0  0  0  0  0  0  0  0  0  0  0
   -2.5228    9.2975   -2.8320 H   0  0  0  0  0  0  0  0  0  0  0  0
   -1.8689    6.7189   -2.4839 H   0  0  0  0  0  0  0  0  0  0  0  0
   -5.1368    7.4057   -0.7205 H   0  0  0  0  0  0  0  0  0  0  0  0
   -5.1921    8.5881   -2.0716 H   0  0  0  0  0  0  0  0  0  0  0  0
   -6.2973    7.1721   -2.0716 H   0  0  0  0  0  0  0  0  0  0  0  0
   -4.6381    4.7982   -1.7131 H   0  0  0  0  0  0  0  0  0  0  0  0
   -5.4885    5.1317   -3.2598 H   0  0  0  0  0  0  0  0  0  0  0  0
   -3.7247    4.7913   -3.2598 H   0  0  0  0  0  0  0  0  0  0  0  0
   -0.6165   11.2891   -3.2821 H   0  0  0  0  0  0  0  0  0  0  0  0
   -2.5820   11.0464   -1.8982 H   0  0  0  0  0  0  0  0  0  0  0  0
   -1.7385    9.9838   -0.7514 H   0  0  0  0  0  0  0  0  0  0  0  0
   -2.3611   12.7384   -0.3147 H   0  0  0  0  0  0  0  0  0  0  0  0
   -1.2107   11.8203    0.6536 H   0  0  0  0  0  0  0  0  0  0  0  0
   -1.6106   14.5543   -1.6935 H   0  0  0  0  0  0  0  0  0  0  0  0
   -0.2055   14.2506   -2.7706 H   0  0  0  0  0  0  0  0  0  0  0  0
   -1.5987   13.1168   -2.7706 H   0  0  0  0  0  0  0  0  0  0  0  0
    0.8212   13.1374    0.7412 H   0  0  0  0  0  0  0  0  0  0  0  0
   -1.2849   14.6227    0.7641 H   0  0  0  0  0  0  0  0  0  0  0  0
    0.2725   15.1651    1.5824 H   0  0  0  0  0  0  0  0  0  0  0  0
   -1.0302   17.0056    0.2188 H   0  0  0  0  0  0  0  0  0  0  0  0
    1.3516   15.2625   -2.5346 H   0  0  0  0  0  0  0  0  0  0  0  0
    3.2870   16.8847   -0.7679 H   0  0  0  0  0  0  0  0  0  0  0  0
    3.7224   15.8486   -2.1986 H   0  0  0  0  0  0  0  0  0  0  0  0
    3.7196   18.2594   -2.7546 H   0  0  0  0  0  0  0  0  0  0  0  0
    2.4838   17.3199   -3.6798 H   0  0  0  0  0  0  0  0  0  0  0  0
    1.4986   19.3844   -2.9545 H   0  0  0  0  0  0  0  0  0  0  0  0
    2.2120   18.5230   -0.2980 H   0  0  0  0  0  0  0  0  0  0  0  0
   -1.2185   16.9301   -3.1431 H   0  0  0  0  0  0  0  0  0  0  0  0
   -0.5386   18.4208   -3.8794 H   0  0  0  0  0  0  0  0  0  0  0  0
    0.4196   16.9014   -3.8794 H   0  0  0  0  0  0  0  0  0  0  0  0
   -0.5904   18.8459   -0.2044 H   0  0  0  0  0  0  0  0  0  0  0  0
   -0.3940   19.9359   -1.6186 H   0  0  0  0  0  0  0  0  0  0  0  0
   -1.6868   18.6889   -1.6186 H   0  0  0  0  0  0  0  0  0  0  0  0
    2.3091   14.5259    1.4592 H   0  0  0  0  0  0  0  0  0  0  0  0
    3.7288   14.0648    0.4599 H   0  0  0  0  0  0  0  0  0  0  0  0
    3.1441   15.7633    0.4599 H   0  0  0  0  0  0  0  0  0  0  0  0
    3.3025   13.8169   -2.2406 H   0  0  0  0  0  0  0  0  0  0  0  0
    3.1293   12.6376   -0.8214 H   0  0  0  0  0  0  0  0  0  0  0  0
    1.2997   12.9232   -3.2210 H   0  0  0  0  0  0  0  0  0  0  0  0
    2.3591   11.5302   -2.7696 H   0  0  0  0  0  0  0  0  0  0  0  0
    0.9685   11.2887    0.5745 H   0  0  0  0  0  0  0  0  0  0  0  0
    0.9292    9.8532   -0.5046 H   0  0  0  0  0  0  0  0  0  0  0  0
    2.3610   10.9379   -0.5046 H   0  0  0  0  0  0  0  0  0  0  0  0
  1  2  1  0
  2  3  1  0
  3  4  1  0
  4  5  1  0
  5  6  1  0
  6  7  1  0
  7  8  1  0
  7  9  1  0
  2 10  1  0
 10 11  1  0
 11 12  1  0
 12 13  1  0
 13 14  1  6
 13 15  1  0
 15 16  1  0
 16 17  1  0
 17 18  2  0
 18 19  1  0
 19 20  1  0
 20 21  1  0
 21 22  1  0
 22 23  1  0
 22 24  1  0
 24 25  1  0
 24 26  1  0
 19 27  1  0
 27 28  1  1
 27 29  1  0
 29 30  1  0
 30 31  1  0
 31 32  1  1
  7  5  1  0
 31 10  1  0
 31 13  1  0
 27 15  1  0
 24 18  1  0
  1 33  1  0
  1 34  1  0
  1 35  1  0
  2 36  1  1
  3 37  1  0
  3 38  1  0
  4 39  1  0
  4 40  1  0
  5 41  1  6
  8 42  1  0
  8 43  1  0
  8 44  1  0
  9 45  1  0
  9 46  1  0
  9 47  1  0
 10 48  1  6
 11 49  1  0
 11 50  1  0
 12 51  1  0
 12 52  1  0
 14 53  1  0
 14 54  1  0
 14 55  1  0
 15 56  1  1
 16 57  1  0
 16 58  1  0
 17 59  1  0
 19 60  1  6
 20 61  1  0
 20 62  1  0
 21 63  1  0
 21 64  1  0
 22 65  1  6
 23 66  1  0
 25 67  1  0
 25 68  1  0
 25 69  1  0
 26 70  1  0
 26 71  1  0
 26 72  1  0
 28 73  1  0
 28 74  1  0
 28 75  1  0
 29 76  1  0
 29 77  1  0
 30 78  1  0
 30 79  1  0
 32 80  1  0
 32 81  1  0
 32 82  1  0
M  END
>  <meeko>  (16) 
{"is_sidechain": [false], "intermolecular_energy": 2.731, "internal_energy": -0.839}

$$$$
EPH_relaxed_0001_pdb2pqr_Repair_76_r2_0001_out
     RDKit          3D

 82 86  0  0  0  0  0  0  0  0999 V2000
    2.5510   11.2880   -5.4220 C   0  0  0  0  0  0  0  0  0  0  0  0
    1.6780   11.0390   -4.1890 C   0  0  2  0  0  0  0  0  0  0  0  0
    0.5290   10.0530   -4.4810 C   0  0  0  0  0  0  0  0  0  0  0  0
    0.3300    8.9980   -3.3900 C   0  0  0  0  0  0  0  0  0  0  0  0
   -0.1930    9.6030   -2.1220 C   0  0  2  0  0  0  0  0  0  0  0  0
   -0.2200    8.7120   -1.0000 O   0  0  0  0  0  0  0  0  0  0  0  0
   -1.4950    9.1800   -1.4680 C   0  0  0  0  0  0  0  0  0  0  0  0
   -2.3550    8.1100   -2.0630 C   0  0  0  0  0  0  0  0  0  0  0  0
   -2.1680   10.1340   -0.5310 C   0  0  0  0  0  0  0  0  0  0  0  0
    1.1150   12.3580   -3.6750 C   0  0  1  0  0  0  0  0  0  0  0  0
   -0.4230   12.3130   -3.4720 C   0  0  0  0  0  0  0  0  0  0  0  0
   -0.7370   13.1970   -2.2370 C   0  0  0  0  0  0  0  0  0  0  0  0
    0.5700   13.9800   -1.9750 C   0  0  1  0  0  0  0  0  0  0  0  0
    0.5380   15.1650   -2.9900 C   0  0  0  0  0  0  0  0  0  0  0  0
    0.7950   14.4800   -0.5110 C   0  0  2  0  0  0  0  0  0  0  0  0
   -0.2510   15.4850    0.0030 C   0  0  0  0  0  0  0  0  0  0  0  0
    0.0730   16.9220   -0.2380 C   0  0  0  0  0  0  0  0  0  0  0  0
    1.2810   17.4040   -0.5850 C   0  0  0  0  0  0  0  0  0  0  0  0
    2.5020   16.4790   -0.6720 C   0  0  1  0  0  0  0  0  0  0  0  0
    3.7050   17.1410    0.0500 C   0  0  0  0  0  0  0  0  0  0  0  0
    3.9990   18.5450   -0.4680 C   0  0  0  0  0  0  0  0  0  0  0  0
    2.7790   19.4500   -0.3110 C   0  0  2  0  0  0  0  0  0  0  0  0
    2.5320   19.6530    1.0840 O   0  0  0  0  0  0  0  0  0  0  0  0
    1.5020   18.8810   -0.9910 C   0  0  0  0  0  0  0  0  0  0  0  0
    1.6600   18.9440   -2.5300 C   0  0  0  0  0  0  0  0  0  0  0  0
    0.3160   19.8180   -0.6380 C   0  0  0  0  0  0  0  0  0  0  0  0
    2.2680   14.9750   -0.2140 C   0  0  1  0  0  0  0  0  0  0  0  0
    2.4780   14.8490    1.3260 C   0  0  0  0  0  0  0  0  0  0  0  0
    3.3550   14.0570   -0.8870 C   0  0  0  0  0  0  0  0  0  0  0  0
    3.0240   13.4970   -2.2840 C   0  0  0  0  0  0  0  0  0  0  0  0
    1.6290   12.8650   -2.3040 C   0  0  2  0  0  0  0  0  0  0  0  0
    1.6370   11.6550   -1.3090 C   0  0  0  0  0  0  0  0  0  0  0  0
    3.5632   11.5767   -5.1024 H   0  0  0  0  0  0  0  0  0  0  0  0
    2.6048   10.3694   -6.0247 H   0  0  0  0  0  0  0  0  0  0  0  0
    2.1122   12.0968   -6.0247 H   0  0  0  0  0  0  0  0  0  0  0  0
    2.3166   10.5828   -3.4182 H   0  0  0  0  0  0  0  0  0  0  0  0
   -0.4037   10.6272   -4.5828 H   0  0  0  0  0  0  0  0  0  0  0  0
    0.7941    9.5151   -5.4032 H   0  0  0  0  0  0  0  0  0  0  0  0
   -0.3879    8.2456   -3.7485 H   0  0  0  0  0  0  0  0  0  0  0  0
    1.3065    8.5400   -3.1739 H   0  0  0  0  0  0  0  0  0  0  0  0
    0.2064   10.5894   -2.4005 H   0  0  0  0  0  0  0  0  0  0  0  0
   -2.8241    7.5263   -1.2573 H   0  0  0  0  0  0  0  0  0  0  0  0
   -3.1366    8.5712   -2.6846 H   0  0  0  0  0  0  0  0  0  0  0  0
   -1.7365    7.4458   -2.6846 H   0  0  0  0  0  0  0  0  0  0  0  0
   -1.9586    9.8372    0.5073 H   0  0  0  0  0  0  0  0  0  0  0  0
   -1.7860   11.1506   -0.7059 H   0  0  0  0  0  0  0  0  0  0  0  0
   -3.2538   10.1151   -0.7059 H   0  0  0  0  0  0  0  0  0  0  0  0
    1.4574   13.0289   -4.4767 H   0  0  0  0  0  0  0  0  0  0  0  0
   -0.9343   12.7095   -4.3616 H   0  0  0  0  0  0  0  0  0  0  0  0
   -0.7712   11.2810   -3.3180 H   0  0  0  0  0  0  0  0  0  0  0  0
   -1.5660   13.8867   -2.4539 H   0  0  0  0  0  0  0  0  0  0  0  0
   -1.0480   12.6014   -1.3661 H   0  0  0  0  0  0  0  0  0  0  0  0
    0.5123   16.1177   -2.4407 H   0  0  0  0  0  0  0  0  0  0  0  0
    1.4374   15.1305   -3.6224 H   0  0  0  0  0  0  0  0  0  0  0  0
   -0.3582   15.0820   -3.6224 H   0  0  0  0  0  0  0  0  0  0  0  0
    0.6426   13.5633    0.0775 H   0  0  0  0  0  0  0  0  0  0  0  0
   -1.2073   15.2643   -0.4938 H   0  0  0  0  0  0  0  0  0  0  0  0
   -0.2826   15.3593    1.0953 H   0  0  0  0  0  0  0  0  0  0  0  0
   -0.7446   17.6487   -0.1222 H   0  0  0  0  0  0  0  0  0  0  0  0
    2.7237   16.3687   -1.7438 H   0  0  0  0  0  0  0  0  0  0  0  0
    3.4807   17.2019    1.1252 H   0  0  0  0  0  0  0  0  0  0  0  0
    4.5927   16.5212   -0.1445 H   0  0  0  0  0  0  0  0  0  0  0  0
    4.8387   18.9704    0.1011 H   0  0  0  0  0  0  0  0  0  0  0  0
    4.2531   18.4796   -1.5363 H   0  0  0  0  0  0  0  0  0  0  0  0
    3.0060   20.4002   -0.8165 H   0  0  0  0  0  0  0  0  0  0  0  0
    1.7060   20.1580    1.1660 H   0  0  0  0  0  0  0  0  0  0  0  0
    2.6549   19.3407   -2.7805 H   0  0  0  0  0  0  0  0  0  0  0  0
    1.5513   17.9338   -2.9514 H   0  0  0  0  0  0  0  0  0  0  0  0
    0.8860   19.6023   -2.9514 H   0  0  0  0  0  0  0  0  0  0  0  0
    0.2209   19.8931    0.4553 H   0  0  0  0  0  0  0  0  0  0  0  0
    0.5001   20.8172   -1.0596 H   0  0  0  0  0  0  0  0  0  0  0  0
   -0.6135   19.4077   -1.0596 H   0  0  0  0  0  0  0  0  0  0  0  0
    1.6491   15.3463    1.8510 H   0  0  0  0  0  0  0  0  0  0  0  0
    2.5044   13.7857    1.6067 H   0  0  0  0  0  0  0  0  0  0  0  0
    3.4286   15.3260    1.6067 H   0  0  0  0  0  0  0  0  0  0  0  0
    4.2796   14.6463   -0.9753 H   0  0  0  0  0  0  0  0  0  0  0  0
    3.4307   13.1749   -0.2341 H   0  0  0  0  0  0  0  0  0  0  0  0
    3.0587   14.3159   -3.0176 H   0  0  0  0  0  0  0  0  0  0  0  0
    3.7637   12.7230   -2.5363 H   0  0  0  0  0  0  0  0  0  0  0  0
    1.6345   12.0305   -0.2751 H   0  0  0  0  0  0  0  0  0  0  0  0
    0.7429   11.0365   -1.4766 H   0  0  0  0  0  0  0  0  0  0  0  0
    2.5392   11.0484   -1.4766 H   0  0  0  0  0  0  0  0  0  0  0  0
  1  2  1  0
  2  3  1  0
  3  4  1  0
  4  5  1  0
  5  6  1  0
  6  7  1  0
  7  8  1  0
  7  9  1  0
  2 10  1  0
 10 11  1  0
 11 12  1  0
 12 13  1  0
 13 14  1  6
 13 15  1  0
 15 16  1  0
 16 17  1  0
 17 18  2  0
 18 19  1  0
 19 20  1  0
 20 21  1  0
 21 22  1  0
 22 23  1  0
 22 24  1  0
 24 25  1  0
 24 26  1  0
 19 27  1  0
 27 28  1  1
 27 29  1  0
 29 30  1  0
 30 31  1  0
 31 32  1  1
  7  5  1  0
 31 10  1  0
 31 13  1  0
 27 15  1  0
 24 18  1  0
  1 33  1  0
  1 34  1  0
  1 35  1  0
  2 36  1  1
  3 37  1  0
  3 38  1  0
  4 39  1  0
  4 40  1  0
  5 41  1  1
  8 42  1  0
  8 43  1  0
  8 44  1  0
  9 45  1  0
  9 46  1  0
  9 47  1  0
 10 48  1  6
 11 49  1  0
 11 50  1  0
 12 51  1  0
 12 52  1  0
 14 53  1  0
 14 54  1  0
 14 55  1  0
 15 56  1  1
 16 57  1  0
 16 58  1  0
 17 59  1  0
 19 60  1  6
 20 61  1  0
 20 62  1  0
 21 63  1  0
 21 64  1  0
 22 65  1  6
 23 66  1  0
 25 67  1  0
 25 68  1  0
 25 69  1  0
 26 70  1  0
 26 71  1  0
 26 72  1  0
 28 73  1  0
 28 74  1  0
 28 75  1  0
 29 76  1  0
 29 77  1  0
 30 78  1  0
 30 79  1  0
 32 80  1  0
 32 81  1  0
 32 82  1  0
M  END
>  <meeko>  (17) 
{"is_sidechain": [false], "intermolecular_energy": 2.731, "internal_energy": -0.839}

$$$$
EPH_relaxed_0001_pdb2pqr_Repair_76_r2_0001_out
     RDKit          3D

 82 86  0  0  0  0  0  0  0  0999 V2000
   -0.2200   15.3650   -7.2470 C   0  0  0  0  0  0  0  0  0  0  0  0
    1.2080   15.1270   -6.7480 C   0  0  2  0  0  0  0  0  0  0  0  0
    2.2380   15.1680   -7.8940 C   0  0  0  0  0  0  0  0  0  0  0  0
    2.2340   16.4830   -8.6790 C   0  0  0  0  0  0  0  0  0  0  0  0
    1.8100   16.2770  -10.1010 C   0  0  2  0  0  0  0  0  0  0  0  0
    1.1610   15.0250  -10.3580 O   0  0  0  0  0  0  0  0  0  0  0  0
    2.4230   15.2320  -11.0140 C   0  0  0  0  0  0  0  0  0  0  0  0
    3.5120   14.3230  -10.5390 C   0  0  0  0  0  0  0  0  0  0  0  0
    2.3080   15.4200  -12.4950 C   0  0  0  0  0  0  0  0  0  0  0  0
    1.2880   13.7890   -6.0230 C   0  0  1  0  0  0  0  0  0  0  0  0
    2.6970   13.1450   -6.1110 C   0  0  0  0  0  0  0  0  0  0  0  0
    2.9380   12.4090   -4.7680 C   0  0  0  0  0  0  0  0  0  0  0  0
    1.5490   12.3700   -4.0900 C   0  0  1  0  0  0  0  0  0  0  0  0
    0.8090   11.1700   -4.7600 C   0  0  0  0  0  0  0  0  0  0  0  0
    1.5440   12.2540   -2.5310 C   0  0  2  0  0  0  0  0  0  0  0  0
    2.1730   10.9660   -1.9700 C   0  0  0  0  0  0  0  0  0  0  0  0
    1.2290    9.8260   -1.7780 C   0  0  0  0  0  0  0  0  0  0  0  0
   -0.1140    9.9150   -1.7730 C   0  0  0  0  0  0  0  0  0  0  0  0
   -0.8130   11.2760   -1.8760 C   0  0  1  0  0  0  0  0  0  0  0  0
   -1.9370   11.3630   -0.8090 C   0  0  0  0  0  0  0  0  0  0  0  0
   -2.9160   10.1960   -0.8940 C   0  0  0  0  0  0  0  0  0  0  0  0
   -2.1900    8.8630   -0.7290 C   0  0  2  0  0  0  0  0  0  0  0  0
   -1.6820    8.7770    0.6050 O   0  0  0  0  0  0  0  0  0  0  0  0
   -1.0300    8.6670   -1.7450 C   0  0  0  0  0  0  0  0  0  0  0  0
   -1.6110    8.4580   -3.1650 C   0  0  0  0  0  0  0  0  0  0  0  0
   -0.2930    7.3500   -1.3790 C   0  0  0  0  0  0  0  0  0  0  0  0
    0.1390   12.5480   -1.8630 C   0  0  1  0  0  0  0  0  0  0  0  0
    0.4270   12.9830   -0.3940 C   0  0  0  0  0  0  0  0  0  0  0  0
   -0.6060   13.7550   -2.5460 C   0  0  0  0  0  0  0  0  0  0  0  0
   -0.4650   13.8850   -4.0740 C   0  0  0  0  0  0  0  0  0  0  0  0
    1.0030   13.7860   -4.5000 C   0  0  2  0  0  0  0  0  0  0  0  0
    1.7690   14.9940   -3.8590 C   0  0  0  0  0  0  0  0  0  0  0  0
   -0.8953   15.4775   -6.3860 H   0  0  0  0  0  0  0  0  0  0  0  0
   -0.2476   16.2801   -7.8567 H   0  0  0  0  0  0  0  0  0  0  0  0
   -0.5429   14.5083   -7.8567 H   0  0  0  0  0  0  0  0  0  0  0  0
    1.4562   15.9424   -6.0526 H   0  0  0  0  0  0  0  0  0  0  0  0
    3.2405   15.0226   -7.4652 H   0  0  0  0  0  0  0  0  0  0  0  0
    1.9641   14.3710   -8.6009 H   0  0  0  0  0  0  0  0  0  0  0  0
    1.5368   17.1841   -8.1969 H   0  0  0  0  0  0  0  0  0  0  0  0
    3.2580   16.8849   -8.6808 H   0  0  0  0  0  0  0  0  0  0  0  0
    1.6327   17.3551  -10.2282 H   0  0  0  0  0  0  0  0  0  0  0  0
    3.5261   14.3112   -9.4392 H   0  0  0  0  0  0  0  0  0  0  0  0
    3.3298   13.3052  -10.9143 H   0  0  0  0  0  0  0  0  0  0  0  0
    4.4809   14.6842  -10.9143 H   0  0  0  0  0  0  0  0  0  0  0  0
    1.7446   16.3411  -12.7050 H   0  0  0  0  0  0  0  0  0  0  0  0
    3.3136   15.4972  -12.9340 H   0  0  0  0  0  0  0  0  0  0  0  0
    1.7813   14.5598  -12.9340 H   0  0  0  0  0  0  0  0  0  0  0  0
    0.4944   13.2442   -6.5553 H   0  0  0  0  0  0  0  0  0  0  0  0
    2.7353   12.4305   -6.9465 H   0  0  0  0  0  0  0  0  0  0  0  0
    3.4694   13.9082   -6.2869 H   0  0  0  0  0  0  0  0  0  0  0  0
    3.3123   11.3900   -4.9453 H   0  0  0  0  0  0  0  0  0  0  0  0
    3.6921   12.9130   -4.1456 H   0  0  0  0  0  0  0  0  0  0  0  0
    0.4015   10.5092   -3.9807 H   0  0  0  0  0  0  0  0  0  0  0  0
   -0.0125   11.5490   -5.3857 H   0  0  0  0  0  0  0  0  0  0  0  0
    1.5165   10.6061   -5.3857 H   0  0  0  0  0  0  0  0  0  0  0  0
    2.2174   13.0709   -2.2324 H   0  0  0  0  0  0  0  0  0  0  0  0
    2.9606   10.6414   -2.6660 H   0  0  0  0  0  0  0  0  0  0  0  0
    2.5481   11.2222   -0.9682 H   0  0  0  0  0  0  0  0  0  0  0  0
    1.6680    8.8286   -1.6279 H   0  0  0  0  0  0  0  0  0  0  0  0
   -1.2505   11.3169   -2.8844 H   0  0  0  0  0  0  0  0  0  0  0  0
   -1.4758   11.3643    0.1897 H   0  0  0  0  0  0  0  0  0  0  0  0
   -2.5029   12.2878   -0.9949 H   0  0  0  0  0  0  0  0  0  0  0  0
   -3.6677   10.2977   -0.0974 H   0  0  0  0  0  0  0  0  0  0  0  0
   -3.3988   10.2134   -1.8822 H   0  0  0  0  0  0  0  0  0  0  0  0
   -2.9187    8.0635   -0.9282 H   0  0  0  0  0  0  0  0  0  0  0  0
   -1.2620    7.9050    0.7050 H   0  0  0  0  0  0  0  0  0  0  0  0
   -2.6435    8.0866   -3.0877 H   0  0  0  0  0  0  0  0  0  0  0  0
   -1.6051    9.4146   -3.7080 H   0  0  0  0  0  0  0  0  0  0  0  0
   -0.9971    7.7243   -3.7080 H   0  0  0  0  0  0  0  0  0  0  0  0
   -0.2383    7.2523   -0.2847 H   0  0  0  0  0  0  0  0  0  0  0  0
   -0.8431    6.4938   -1.7965 H   0  0  0  0  0  0  0  0  0  0  0  0
    0.7245    7.3710   -1.7965 H   0  0  0  0  0  0  0  0  0  0  0  0
   -0.0448   12.2704    0.2986 H   0  0  0  0  0  0  0  0  0  0  0  0
    1.5134   12.9969   -0.2220 H   0  0  0  0  0  0  0  0  0  0  0  0
    0.0156   13.9886   -0.2220 H   0  0  0  0  0  0  0  0  0  0  0  0
   -1.6776   13.6561   -2.3182 H   0  0  0  0  0  0  0  0  0  0  0  0
   -0.1279   14.6567   -2.1358 H   0  0  0  0  0  0  0  0  0  0  0  0
   -1.0352   13.0783   -4.5578 H   0  0  0  0  0  0  0  0  0  0  0  0
   -0.8531   14.8679   -4.3795 H   0  0  0  0  0  0  0  0  0  0  0  0
    1.7211   14.9184   -2.7626 H   0  0  0  0  0  0  0  0  0  0  0  0
    2.8203   14.9747   -4.1823 H   0  0  0  0  0  0  0  0  0  0  0  0
    1.3032   15.9366   -4.1823 H   0  0  0  0  0  0  0  0  0  0  0  0
  1  2  1  0
  2  3  1  0
  3  4  1  0
  4  5  1  0
  5  6  1  0
  6  7  1  0
  7  8  1  0
  7  9  1  0
  2 10  1  0
 10 11  1  0
 11 12  1  0
 12 13  1  0
 13 14  1  6
 13 15  1  0
 15 16  1  0
 16 17  1  0
 17 18  2  0
 18 19  1  0
 19 20  1  0
 20 21  1  0
 21 22  1  0
 22 23  1  0
 22 24  1  0
 24 25  1  0
 24 26  1  0
 19 27  1  0
 27 28  1  1
 27 29  1  0
 29 30  1  0
 30 31  1  0
 31 32  1  1
  7  5  1  0
 31 10  1  0
 31 13  1  0
 27 15  1  0
 24 18  1  0
  1 33  1  0
  1 34  1  0
  1 35  1  0
  2 36  1  1
  3 37  1  0
  3 38  1  0
  4 39  1  0
  4 40  1  0
  5 41  1  6
  8 42  1  0
  8 43  1  0
  8 44  1  0
  9 45  1  0
  9 46  1  0
  9 47  1  0
 10 48  1  6
 11 49  1  0
 11 50  1  0
 12 51  1  0
 12 52  1  0
 14 53  1  0
 14 54  1  0
 14 55  1  0
 15 56  1  1
 16 57  1  0
 16 58  1  0
 17 59  1  0
 19 60  1  6
 20 61  1  0
 20 62  1  0
 21 63  1  0
 21 64  1  0
 22 65  1  6
 23 66  1  0
 25 67  1  0
 25 68  1  0
 25 69  1  0
 26 70  1  0
 26 71  1  0
 26 72  1  0
 28 73  1  0
 28 74  1  0
 28 75  1  0
 29 76  1  0
 29 77  1  0
 30 78  1  0
 30 79  1  0
 32 80  1  0
 32 81  1  0
 32 82  1  0
M  END
>  <meeko>  (18) 
{"is_sidechain": [false], "intermolecular_energy": 2.731, "internal_energy": -0.839}

$$$$
EPH_relaxed_0001_pdb2pqr_Repair_76_r2_0001_out
     RDKit          3D

 82 86  0  0  0  0  0  0  0  0999 V2000
   -1.1070    7.4080   -2.5080 C   0  0  0  0  0  0  0  0  0  0  0  0
   -2.0450    8.1580   -1.5580 C   0  0  2  0  0  0  0  0  0  0  0  0
   -3.5250    8.0010   -1.9600 C   0  0  0  0  0  0  0  0  0  0  0  0
   -3.8030    6.7630   -2.8170 C   0  0  0  0  0  0  0  0  0  0  0  0
   -5.1690    6.8090   -3.4320 C   0  0  2  0  0  0  0  0  0  0  0  0
   -6.0530    7.7780   -2.8540 O   0  0  0  0  0  0  0  0  0  0  0  0
   -6.4310    6.4010   -2.6960 C   0  0  0  0  0  0  0  0  0  0  0  0
   -6.3880    5.9160   -1.2810 C   0  0  0  0  0  0  0  0  0  0  0  0
   -7.6330    6.0100   -3.4990 C   0  0  0  0  0  0  0  0  0  0  0  0
   -1.6700    9.6350   -1.5170 C   0  0  1  0  0  0  0  0  0  0  0  0
   -1.4890   10.1650   -0.0700 C   0  0  0  0  0  0  0  0  0  0  0  0
   -0.3510   11.2170   -0.1180 C   0  0  0  0  0  0  0  0  0  0  0  0
   -0.1440   11.4990   -1.6250 C   0  0  1  0  0  0  0  0  0  0  0  0
   -1.2680   12.5140   -2.0020 C   0  0  0  0  0  0  0  0  0  0  0  0
    1.2690   12.0220   -2.0420 C   0  0  2  0  0  0  0  0  0  0  0  0
    1.6670   13.3810   -1.4380 C   0  0  0  0  0  0  0  0  0  0  0  0
    1.2930   14.5750   -2.2520 C   0  0  0  0  0  0  0  0  0  0  0  0
    0.9220   14.5540   -3.5460 C   0  0  0  0  0  0  0  0  0  0  0  0
    0.9450   13.2480   -4.3510 C   0  0  1  0  0  0  0  0  0  0  0  0
    1.6200   13.4990   -5.7250 C   0  0  0  0  0  0  0  0  0  0  0  0
    0.9730   14.6480   -6.4940 C   0  0  0  0  0  0  0  0  0  0  0  0
    1.0220   15.9410   -5.6850 C   0  0  2  0  0  0  0  0  0  0  0  0
    2.3870   16.3520   -5.5540 O   0  0  0  0  0  0  0  0  0  0  0  0
    0.3790   15.8070   -4.2760 C   0  0  0  0  0  0  0  0  0  0  0  0
   -1.1560   15.6610   -4.4160 C   0  0  0  0  0  0  0  0  0  0  0  0
    0.6210   17.1380   -3.5130 C   0  0  0  0  0  0  0  0  0  0  0  0
    1.5420   11.9810   -3.6010 C   0  0  1  0  0  0  0  0  0  0  0  0
    3.0900   11.9360   -3.7810 C   0  0  0  0  0  0  0  0  0  0  0  0
    0.9780   10.6730   -4.2720 C   0  0  0  0  0  0  0  0  0  0  0  0
   -0.3630   10.1390   -3.7350 C   0  0  0  0  0  0  0  0  0  0  0  0
   -0.3460   10.0520   -2.2050 C   0  0  2  0  0  0  0  0  0  0  0  0
    0.7610    9.0210   -1.7970 C   0  0  0  0  0  0  0  0  0  0  0  0
   -0.3799    6.8266   -1.9221 H   0  0  0  0  0  0  0  0  0  0  0  0
   -1.6945    6.7278   -3.1422 H   0  0  0  0  0  0  0  0  0  0  0  0
   -0.5728    8.1308   -3.1422 H   0  0  0  0  0  0  0  0  0  0  0  0
   -1.9262    7.7162   -0.5576 H   0  0  0  0  0  0  0  0  0  0  0  0
   -4.1282    7.9308   -1.0428 H   0  0  0  0  0  0  0  0  0  0  0  0
   -3.7870    8.8786   -2.5692 H   0  0  0  0  0  0  0  0  0  0  0  0
   -3.0525    6.7093   -3.6195 H   0  0  0  0  0  0  0  0  0  0  0  0
   -3.7496    5.8773   -2.1669 H   0  0  0  0  0  0  0  0  0  0  0  0
   -4.7628    6.5245   -4.4139 H   0  0  0  0  0  0  0  0  0  0  0  0
   -6.4641    6.7740   -0.5968 H   0  0  0  0  0  0  0  0  0  0  0  0
   -7.2288    5.2294   -1.1030 H   0  0  0  0  0  0  0  0  0  0  0  0
   -5.4395    5.3881   -1.1030 H   0  0  0  0  0  0  0  0  0  0  0  0
   -8.4562    5.7422   -2.8202 H   0  0  0  0  0  0  0  0  0  0  0  0
   -7.9407    6.8544   -4.1333 H   0  0  0  0  0  0  0  0  0  0  0  0
   -7.3851    5.1462   -4.1333 H   0  0  0  0  0  0  0  0  0  0  0  0
   -2.5266   10.0580   -2.0622 H   0  0  0  0  0  0  0  0  0  0  0  0
   -2.4211   10.6311    0.2821 H   0  0  0  0  0  0  0  0  0  0  0  0
   -1.2415    9.3467    0.6222 H   0  0  0  0  0  0  0  0  0  0  0  0
   -0.6475   12.1344    0.4116 H   0  0  0  0  0  0  0  0  0  0  0  0
    0.5680   10.8601    0.3698 H   0  0  0  0  0  0  0  0  0  0  0  0
   -1.7180   12.9204   -1.0842 H   0  0  0  0  0  0  0  0  0  0  0  0
   -0.8372   13.3351   -2.5938 H   0  0  0  0  0  0  0  0  0  0  0  0
   -2.0410   12.0019   -2.5938 H   0  0  0  0  0  0  0  0  0  0  0  0
    1.9392   11.2818   -1.5805 H   0  0  0  0  0  0  0  0  0  0  0  0
    1.1791   13.4726   -0.4564 H   0  0  0  0  0  0  0  0  0  0  0  0
    2.7658   13.3805   -1.3858 H   0  0  0  0  0  0  0  0  0  0  0  0
    1.3230   15.5546   -1.7525 H   0  0  0  0  0  0  0  0  0  0  0  0
   -0.1073   12.9631   -4.4978 H   0  0  0  0  0  0  0  0  0  0  0  0
    2.6804   13.7393   -5.5582 H   0  0  0  0  0  0  0  0  0  0  0  0
    1.5015   12.5859   -6.3269 H   0  0  0  0  0  0  0  0  0  0  0  0
    1.5118   14.7955   -7.4416 H   0  0  0  0  0  0  0  0  0  0  0  0
   -0.0798   14.3934   -6.6860 H   0  0  0  0  0  0  0  0  0  0  0  0
    0.4314   16.6928   -6.2290 H   0  0  0  0  0  0  0  0  0  0  0  0
    2.3920   17.3140   -5.4130 H   0  0  0  0  0  0  0  0  0  0  0  0
   -1.6129   15.6175   -3.4163 H   0  0  0  0  0  0  0  0  0  0  0  0
   -1.5579   16.5250   -4.9656 H   0  0  0  0  0  0  0  0  0  0  0  0
   -1.3878   14.7368   -4.9656 H   0  0  0  0  0  0  0  0  0  0  0  0
    0.5870   16.9510   -2.4296 H   0  0  0  0  0  0  0  0  0  0  0  0
    1.6074   17.5422   -3.7845 H   0  0  0  0  0  0  0  0  0  0  0  0
   -0.1600   17.8635   -3.7845 H   0  0  0  0  0  0  0  0  0  0  0  0
    3.5737   11.9219   -2.7932 H   0  0  0  0  0  0  0  0  0  0  0  0
    3.3681   11.0294   -4.3384 H   0  0  0  0  0  0  0  0  0  0  0  0
    3.4203   12.8249   -4.3384 H   0  0  0  0  0  0  0  0  0  0  0  0
    0.8485   10.8788   -5.3448 H   0  0  0  0  0  0  0  0  0  0  0  0
    1.7139    9.8896   -4.0380 H   0  0  0  0  0  0  0  0  0  0  0  0
   -1.1712   10.8164   -4.0479 H   0  0  0  0  0  0  0  0  0  0  0  0
   -0.5268    9.1302   -4.1417 H   0  0  0  0  0  0  0  0  0  0  0  0
    0.8224    8.9638   -0.7002 H   0  0  0  0  0  0  0  0  0  0  0  0
    0.5068    8.0304   -2.2022 H   0  0  0  0  0  0  0  0  0  0  0  0
    1.7310    9.3449   -2.2022 H   0  0  0  0  0  0  0  0  0  0  0  0
  1  2  1  0
  2  3  1  0
  3  4  1  0
  4  5  1  0
  5  6  1  0
  6  7  1  0
  7  8  1  0
  7  9  1  0
  2 10  1  0
 10 11  1  0
 11 12  1  0
 12 13  1  0
 13 14  1  6
 13 15  1  0
 15 16  1  0
 16 17  1  0
 17 18  2  0
 18 19  1  0
 19 20  1  0
 20 21  1  0
 21 22  1  0
 22 23  1  0
 22 24  1  0
 24 25  1  0
 24 26  1  0
 19 27  1  0
 27 28  1  1
 27 29  1  0
 29 30  1  0
 30 31  1  0
 31 32  1  6
  7  5  1  0
 31 10  1  0
 31 13  1  0
 27 15  1  0
 24 18  1  0
  1 33  1  0
  1 34  1  0
  1 35  1  0
  2 36  1  1
  3 37  1  0
  3 38  1  0
  4 39  1  0
  4 40  1  0
  5 41  1  6
  8 42  1  0
  8 43  1  0
  8 44  1  0
  9 45  1  0
  9 46  1  0
  9 47  1  0
 10 48  1  6
 11 49  1  0
 11 50  1  0
 12 51  1  0
 12 52  1  0
 14 53  1  0
 14 54  1  0
 14 55  1  0
 15 56  1  1
 16 57  1  0
 16 58  1  0
 17 59  1  0
 19 60  1  6
 20 61  1  0
 20 62  1  0
 21 63  1  0
 21 64  1  0
 22 65  1  6
 23 66  1  0
 25 67  1  0
 25 68  1  0
 25 69  1  0
 26 70  1  0
 26 71  1  0
 26 72  1  0
 28 73  1  0
 28 74  1  0
 28 75  1  0
 29 76  1  0
 29 77  1  0
 30 78  1  0
 30 79  1  0
 32 80  1  0
 32 81  1  0
 32 82  1  0
M  END
>  <meeko>  (19) 
{"is_sidechain": [false], "intermolecular_energy": 2.731, "internal_energy": -0.839}

$$$$
