EPH_relaxed_0001_pdb2pqr_Repair_91_r2_0001_out
     RDKit          3D

 82 86  0  0  0  0  0  0  0  0999 V2000
    4.2300   17.5800   -0.6760 C   0  0  0  0  0  0  0  0  0  0  0  0
    2.8680   18.1470   -0.2650 C   0  0  2  0  0  0  0  0  0  0  0  0
    2.9220   18.8460    1.1080 C   0  0  0  0  0  0  0  0  0  0  0  0
    4.2760   18.7190    1.8120 C   0  0  0  0  0  0  0  0  0  0  0  0
    4.2420   19.3070    3.1900 C   0  0  2  0  0  0  0  0  0  0  0  0
    5.3270   20.1940    3.4890 O   0  0  0  0  0  0  0  0  0  0  0  0
    5.2660   18.9850    4.2620 C   0  0  0  0  0  0  0  0  0  0  0  0
    6.3970   18.0390    4.0020 C   0  0  0  0  0  0  0  0  0  0  0  0
    4.8950   19.2040    5.6960 C   0  0  0  0  0  0  0  0  0  0  0  0
    1.8270   17.0340   -0.2420 C   0  0  1  0  0  0  0  0  0  0  0  0
    0.3940   17.5510   -0.5380 C   0  0  0  0  0  0  0  0  0  0  0  0
   -0.3290   16.4340   -1.3340 C   0  0  0  0  0  0  0  0  0  0  0  0
    0.5830   15.1950   -1.1830 C   0  0  1  0  0  0  0  0  0  0  0  0
    0.2270   14.6030    0.2160 C   0  0  0  0  0  0  0  0  0  0  0  0
    0.4760   14.1170   -2.3110 C   0  0  2  0  0  0  0  0  0  0  0  0
   -0.9020   13.4450   -2.4430 C   0  0  0  0  0  0  0  0  0  0  0  0
   -1.0880   12.2080   -1.6290 C   0  0  0  0  0  0  0  0  0  0  0  0
   -0.1040   11.4980   -1.0480 C   0  0  0  0  0  0  0  0  0  0  0  0
    1.3690   11.8700   -1.2640 C   0  0  1  0  0  0  0  0  0  0  0  0
    2.1840   10.5910   -1.5890 C   0  0  0  0  0  0  0  0  0  0  0  0
    2.0060    9.5000   -0.5370 C   0  0  0  0  0  0  0  0  0  0  0  0
    0.5360    9.1170   -0.3920 C   0  0  2  0  0  0  0  0  0  0  0  0
    0.1030    8.4880   -1.6020 O   0  0  0  0  0  0  0  0  0  0  0  0
   -0.3850   10.3270   -0.0740 C   0  0  0  0  0  0  0  0  0  0  0  0
   -0.1160   10.8210    1.3700 C   0  0  0  0  0  0  0  0  0  0  0  0
   -1.8550    9.8270   -0.0940 C   0  0  0  0  0  0  0  0  0  0  0  0
    1.6420   13.0470   -2.2970 C   0  0  1  0  0  0  0  0  0  0  0  0
    1.7370   12.4730   -3.7440 C   0  0  0  0  0  0  0  0  0  0  0  0
    3.0430   13.6920   -1.9820 C   0  0  0  0  0  0  0  0  0  0  0  0
    3.0660   14.8330   -0.9470 C   0  0  0  0  0  0  0  0  0  0  0  0
    1.9950   15.8820   -1.2640 C   0  0  2  0  0  0  0  0  0  0  0  0
    2.3400   16.5110   -2.6570 C   0  0  0  0  0  0  0  0  0  0  0  0
    4.8130   17.3373    0.2246 H   0  0  0  0  0  0  0  0  0  0  0  0
    4.0824   16.6686   -1.2739 H   0  0  0  0  0  0  0  0  0  0  0  0
    4.7728   18.3269   -1.2739 H   0  0  0  0  0  0  0  0  0  0  0  0
    2.5855   18.9044   -1.0110 H   0  0  0  0  0  0  0  0  0  0  0  0
    2.7056   19.9146    0.9622 H   0  0  0  0  0  0  0  0  0  0  0  0
    2.1788   18.3504    1.7499 H   0  0  0  0  0  0  0  0  0  0  0  0
    4.5410   17.6539    1.8854 H   0  0  0  0  0  0  0  0  0  0  0  0
    5.0222   19.2714    1.2220 H   0  0  0  0  0  0  0  0  0  0  0  0
    3.1421   19.2961    3.1932 H   0  0  0  0  0  0  0  0  0  0  0  0
    6.8121   17.6918    4.9597 H   0  0  0  0  0  0  0  0  0  0  0  0
    6.0287   17.1762    3.4277 H   0  0  0  0  0  0  0  0  0  0  0  0
    7.1811   18.5540    3.4277 H   0  0  0  0  0  0  0  0  0  0  0  0
    5.6595   18.7527    6.3456 H   0  0  0  0  0  0  0  0  0  0  0  0
    4.8330   20.2835    5.8980 H   0  0  0  0  0  0  0  0  0  0  0  0
    3.9199   18.7366    5.8980 H   0  0  0  0  0  0  0  0  0  0  0  0
    1.9827   16.6567    0.7795 H   0  0  0  0  0  0  0  0  0  0  0  0
   -0.1387   17.7507    0.4035 H   0  0  0  0  0  0  0  0  0  0  0  0
    0.4232   18.4891   -1.1117 H   0  0  0  0  0  0  0  0  0  0  0  0
   -1.3247   16.2373   -0.9100 H   0  0  0  0  0  0  0  0  0  0  0  0
   -0.4886   16.7087   -2.3871 H   0  0  0  0  0  0  0  0  0  0  0  0
    0.6226   15.2608    1.0039 H   0  0  0  0  0  0  0  0  0  0  0  0
   -0.8660   14.5283    0.3152 H   0  0  0  0  0  0  0  0  0  0  0  0
    0.6734   13.6026    0.3152 H   0  0  0  0  0  0  0  0  0  0  0  0
    0.6040   14.7171   -3.2240 H   0  0  0  0  0  0  0  0  0  0  0  0
   -1.6664   14.1733   -2.1343 H   0  0  0  0  0  0  0  0  0  0  0  0
   -0.9896   13.1337   -3.4944 H   0  0  0  0  0  0  0  0  0  0  0  0
   -2.1177   11.8458   -1.4924 H   0  0  0  0  0  0  0  0  0  0  0  0
    1.7164   12.3019   -0.3138 H   0  0  0  0  0  0  0  0  0  0  0  0
    1.8527   10.1997   -2.5622 H   0  0  0  0  0  0  0  0  0  0  0  0
    3.2483   10.8686   -1.6050 H   0  0  0  0  0  0  0  0  0  0  0  0
    2.5813    8.6122   -0.8382 H   0  0  0  0  0  0  0  0  0  0  0  0
    2.3663    9.8821    0.4295 H   0  0  0  0  0  0  0  0  0  0  0  0
    0.4571    8.4306    0.4639 H   0  0  0  0  0  0  0  0  0  0  0  0
   -0.5250    7.7850   -1.3610 H   0  0  0  0  0  0  0  0  0  0  0  0
   -0.5145   10.0892    2.0881 H   0  0  0  0  0  0  0  0  0  0  0  0
    0.9675   10.9327    1.5234 H   0  0  0  0  0  0  0  0  0  0  0  0
   -0.6101   11.7918    1.5234 H   0  0  0  0  0  0  0  0  0  0  0  0
   -2.2147    9.7046    0.9383 H   0  0  0  0  0  0  0  0  0  0  0  0
   -2.4850   10.5614   -0.6172 H   0  0  0  0  0  0  0  0  0  0  0  0
   -1.9066    8.8608   -0.6172 H   0  0  0  0  0  0  0  0  0  0  0  0
    1.9165   11.3887   -3.6973 H   0  0  0  0  0  0  0  0  0  0  0  0
    0.7947   12.6661   -4.2776 H   0  0  0  0  0  0  0  0  0  0  0  0
    2.5669   12.9594   -4.2776 H   0  0  0  0  0  0  0  0  0  0  0  0
    3.7013   12.8927   -1.6108 H   0  0  0  0  0  0  0  0  0  0  0  0
    3.3659   14.1540   -2.9266 H   0  0  0  0  0  0  0  0  0  0  0  0
    2.8763   14.4158    0.0530 H   0  0  0  0  0  0  0  0  0  0  0  0
    4.0529   15.3177   -0.9808 H   0  0  0  0  0  0  0  0  0  0  0  0
    2.8641   17.4666   -2.5081 H   0  0  0  0  0  0  0  0  0  0  0  0
    2.9865   15.8221   -3.2204 H   0  0  0  0  0  0  0  0  0  0  0  0
    1.4116   16.6859   -3.2204 H   0  0  0  0  0  0  0  0  0  0  0  0
  1  2  1  0
  2  3  1  0
  3  4  1  0
  4  5  1  0
  5  6  1  0
  6  7  1  0
  7  8  1  0
  7  9  1  0
  2 10  1  0
 10 11  1  0
 11 12  1  0
 12 13  1  0
 13 14  1  1
 13 15  1  0
 15 16  1  0
 16 17  1  0
 17 18  2  0
 18 19  1  0
 19 20  1  0
 20 21  1  0
 21 22  1  0
 22 23  1  0
 22 24  1  0
 24 25  1  0
 24 26  1  0
 19 27  1  0
 27 28  1  6
 27 29  1  0
 29 30  1  0
 30 31  1  0
 31 32  1  6
  7  5  1  0
 31 10  1  0
 31 13  1  0
 27 15  1  0
 24 18  1  0
  1 33  1  0
  1 34  1  0
  1 35  1  0
  2 36  1  6
  3 37  1  0
  3 38  1  0
  4 39  1  0
  4 40  1  0
  5 41  1  1
  8 42  1  0
  8 43  1  0
  8 44  1  0
  9 45  1  0
  9 46  1  0
  9 47  1  0
 10 48  1  1
 11 49  1  0
 11 50  1  0
 12 51  1  0
 12 52  1  0
 14 53  1  0
 14 54  1  0
 14 55  1  0
 15 56  1  6
 16 57  1  0
 16 58  1  0
 17 59  1  0
 19 60  1  1
 20 61  1  0
 20 62  1  0
 21 63  1  0
 21 64  1  0
 22 65  1  1
 23 66  1  0
 25 67  1  0
 25 68  1  0
 25 69  1  0
 26 70  1  0
 26 71  1  0
 26 72  1  0
 28 73  1  0
 28 74  1  0
 28 75  1  0
 29 76  1  0
 29 77  1  0
 30 78  1  0
 30 79  1  0
 32 80  1  0
 32 81  1  0
 32 82  1  0
M  END
>  <meeko>  (1) 
{"is_sidechain": [false], "intermolecular_energy": 2.731, "internal_energy": -0.839}

$$$$
EPH_relaxed_0001_pdb2pqr_Repair_91_r2_0001_out
     RDKit          3D

 82 86  0  0  0  0  0  0  0  0999 V2000
    0.4040   18.4560   -0.0050 C   0  0  0  0  0  0  0  0  0  0  0  0
    1.4920   17.4010   -0.2190 C   0  0  2  0  0  0  0  0  0  0  0  0
    2.7120   17.9690   -0.9720 C   0  0  0  0  0  0  0  0  0  0  0  0
    3.9480   18.1570   -0.0890 C   0  0  0  0  0  0  0  0  0  0  0  0
    3.5800   18.6290    1.2860 C   0  0  2  0  0  0  0  0  0  0  0  0
    3.8270   20.0210    1.5260 O   0  0  0  0  0  0  0  0  0  0  0  0
    4.5980   19.0960    2.3100 C   0  0  0  0  0  0  0  0  0  0  0  0
    6.0620   19.1120    2.0040 C   0  0  0  0  0  0  0  0  0  0  0  0
    4.2190   19.0700    3.7580 C   0  0  0  0  0  0  0  0  0  0  0  0
    0.9190   16.2100   -0.9780 C   0  0  1  0  0  0  0  0  0  0  0  0
    0.7780   16.4840   -2.4990 C   0  0  0  0  0  0  0  0  0  0  0  0
    1.0690   15.1440   -3.2240 C   0  0  0  0  0  0  0  0  0  0  0  0
    1.0400   14.0800   -2.1020 C   0  0  1  0  0  0  0  0  0  0  0  0
   -0.4740   13.7740   -1.8780 C   0  0  0  0  0  0  0  0  0  0  0  0
    1.8590   12.7740   -2.3670 C   0  0  2  0  0  0  0  0  0  0  0  0
    1.3850   11.9390   -3.5680 C   0  0  0  0  0  0  0  0  0  0  0  0
    0.3610   10.8980   -3.2570 C   0  0  0  0  0  0  0  0  0  0  0  0
    0.0500   10.4500   -2.0270 C   0  0  0  0  0  0  0  0  0  0  0  0
    0.8270   10.9300   -0.7940 C   0  0  1  0  0  0  0  0  0  0  0  0
    1.1960    9.7110    0.0920 C   0  0  0  0  0  0  0  0  0  0  0  0
   -0.0200    8.8670    0.4610 C   0  0  0  0  0  0  0  0  0  0  0  0
   -0.7330    8.3600   -0.7900 C   0  0  2  0  0  0  0  0  0  0  0  0
    0.1250    7.4350   -1.4660 O   0  0  0  0  0  0  0  0  0  0  0  0
   -1.1440    9.4990   -1.7640 C   0  0  0  0  0  0  0  0  0  0  0  0
   -2.2960   10.3260   -1.1420 C   0  0  0  0  0  0  0  0  0  0  0  0
   -1.7240    8.8440   -3.0470 C   0  0  0  0  0  0  0  0  0  0  0  0
    2.0730   11.8730   -1.0840 C   0  0  1  0  0  0  0  0  0  0  0  0
    3.3430   11.0090   -1.3550 C   0  0  0  0  0  0  0  0  0  0  0  0
    2.3830   12.7260    0.2030 C   0  0  0  0  0  0  0  0  0  0  0  0
    1.6300   14.0620    0.3480 C   0  0  0  0  0  0  0  0  0  0  0  0
    1.7240   14.8870   -0.9400 C   0  0  2  0  0  0  0  0  0  0  0  0
    3.2350   15.2280   -1.1790 C   0  0  0  0  0  0  0  0  0  0  0  0
    0.2475   18.6078    1.0732 H   0  0  0  0  0  0  0  0  0  0  0  0
    0.7165   19.4040   -0.4672 H   0  0  0  0  0  0  0  0  0  0  0  0
   -0.5339   18.1144   -0.4672 H   0  0  0  0  0  0  0  0  0  0  0  0
    1.8387   17.0772    0.7735 H   0  0  0  0  0  0  0  0  0  0  0  0
    2.9698   17.2770   -1.7873 H   0  0  0  0  0  0  0  0  0  0  0  0
    2.4264   18.9651   -1.3411 H   0  0  0  0  0  0  0  0  0  0  0  0
    4.4768   17.1960   -0.0065 H   0  0  0  0  0  0  0  0  0  0  0  0
    4.5889   18.9206   -0.5539 H   0  0  0  0  0  0  0  0  0  0  0  0
    2.7575   17.9008    1.3425 H   0  0  0  0  0  0  0  0  0  0  0  0
    6.6330   19.1182    2.9441 H   0  0  0  0  0  0  0  0  0  0  0  0
    6.3246   18.2167    1.4214 H   0  0  0  0  0  0  0  0  0  0  0  0
    6.3050   20.0129    1.4214 H   0  0  0  0  0  0  0  0  0  0  0  0
    5.1270   19.1323    4.3758 H   0  0  0  0  0  0  0  0  0  0  0  0
    3.5643   19.9253    3.9811 H   0  0  0  0  0  0  0  0  0  0  0  0
    3.6872   18.1333    3.9811 H   0  0  0  0  0  0  0  0  0  0  0  0
   -0.0313   16.0872   -0.4377 H   0  0  0  0  0  0  0  0  0  0  0  0
   -0.2419   16.8256   -2.7294 H   0  0  0  0  0  0  0  0  0  0  0  0
    1.4759   17.2692   -2.8252 H   0  0  0  0  0  0  0  0  0  0  0  0
    0.2961   14.9345   -3.9781 H   0  0  0  0  0  0  0  0  0  0  0  0
    2.0294   15.1594   -3.7600 H   0  0  0  0  0  0  0  0  0  0  0  0
   -0.6838   13.7316   -0.7990 H   0  0  0  0  0  0  0  0  0  0  0  0
   -1.0806   14.5677   -2.3386 H   0  0  0  0  0  0  0  0  0  0  0  0
   -0.7247   12.8070   -2.3386 H   0  0  0  0  0  0  0  0  0  0  0  0
    2.8466   13.1675   -2.6494 H   0  0  0  0  0  0  0  0  0  0  0  0
    0.9557   12.6265   -4.3116 H   0  0  0  0  0  0  0  0  0  0  0  0
    2.2707   11.3960   -3.9294 H   0  0  0  0  0  0  0  0  0  0  0  0
   -0.1855   10.4602   -4.1053 H   0  0  0  0  0  0  0  0  0  0  0  0
    0.1459   11.5975   -0.2457 H   0  0  0  0  0  0  0  0  0  0  0  0
    1.9102    9.0795   -0.4567 H   0  0  0  0  0  0  0  0  0  0  0  0
    1.6310   10.0964    1.0260 H   0  0  0  0  0  0  0  0  0  0  0  0
    0.3084    8.0061    1.0619 H   0  0  0  0  0  0  0  0  0  0  0  0
   -0.7200    9.4923    1.0346 H   0  0  0  0  0  0  0  0  0  0  0  0
   -1.6646    7.8735   -0.4653 H   0  0  0  0  0  0  0  0  0  0  0  0
    1.0410    7.6580   -1.2310 H   0  0  0  0  0  0  0  0  0  0  0  0
   -2.2304   10.2789   -0.0450 H   0  0  0  0  0  0  0  0  0  0  0  0
   -2.2142   11.3729   -1.4696 H   0  0  0  0  0  0  0  0  0  0  0  0
   -3.2618    9.9137   -1.4696 H   0  0  0  0  0  0  0  0  0  0  0  0
   -2.4290    8.0479   -2.7657 H   0  0  0  0  0  0  0  0  0  0  0  0
   -2.2493    9.6055   -3.6421 H   0  0  0  0  0  0  0  0  0  0  0  0
   -0.9045    8.4147   -3.6421 H   0  0  0  0  0  0  0  0  0  0  0  0
    3.7905   10.7045   -0.3974 H   0  0  0  0  0  0  0  0  0  0  0  0
    3.0619   10.1140   -1.9294 H   0  0  0  0  0  0  0  0  0  0  0  0
    4.0723   11.5992   -1.9294 H   0  0  0  0  0  0  0  0  0  0  0  0
    2.1366   12.1082    1.0792 H   0  0  0  0  0  0  0  0  0  0  0  0
    3.4445   13.0014    0.1173 H   0  0  0  0  0  0  0  0  0  0  0  0
    0.5718   13.8567    0.5675 H   0  0  0  0  0  0  0  0  0  0  0  0
    2.0886   14.6361    1.1666 H   0  0  0  0  0  0  0  0  0  0  0  0
    3.7427   15.3426   -0.2099 H   0  0  0  0  0  0  0  0  0  0  0  0
    3.7091   14.4143   -1.7474 H   0  0  0  0  0  0  0  0  0  0  0  0
    3.3136   16.1665   -1.7474 H   0  0  0  0  0  0  0  0  0  0  0  0
  1  2  1  0
  2  3  1  0
  3  4  1  0
  4  5  1  0
  5  6  1  0
  6  7  1  0
  7  8  1  0
  7  9  1  0
  2 10  1  0
 10 11  1  0
 11 12  1  0
 12 13  1  0
 13 14  1  1
 13 15  1  0
 15 16  1  0
 16 17  1  0
 17 18  2  0
 18 19  1  0
 19 20  1  0
 20 21  1  0
 21 22  1  0
 22 23  1  0
 22 24  1  0
 24 25  1  0
 24 26  1  0
 19 27  1  0
 27 28  1  6
 27 29  1  0
 29 30  1  0
 30 31  1  0
 31 32  1  6
  7  5  1  0
 31 10  1  0
 31 13  1  0
 27 15  1  0
 24 18  1  0
  1 33  1  0
  1 34  1  0
  1 35  1  0
  2 36  1  1
  3 37  1  0
  3 38  1  0
  4 39  1  0
  4 40  1  0
  5 41  1  1
  8 42  1  0
  8 43  1  0
  8 44  1  0
  9 45  1  0
  9 46  1  0
  9 47  1  0
 10 48  1  1
 11 49  1  0
 11 50  1  0
 12 51  1  0
 12 52  1  0
 14 53  1  0
 14 54  1  0
 14 55  1  0
 15 56  1  6
 16 57  1  0
 16 58  1  0
 17 59  1  0
 19 60  1  1
 20 61  1  0
 20 62  1  0
 21 63  1  0
 21 64  1  0
 22 65  1  1
 23 66  1  0
 25 67  1  0
 25 68  1  0
 25 69  1  0
 26 70  1  0
 26 71  1  0
 26 72  1  0
 28 73  1  0
 28 74  1  0
 28 75  1  0
 29 76  1  0
 29 77  1  0
 30 78  1  0
 30 79  1  0
 32 80  1  0
 32 81  1  0
 32 82  1  0
M  END
>  <meeko>  (2) 
{"is_sidechain": [false], "intermolecular_energy": 2.731, "internal_energy": -0.839}

$$$$
EPH_relaxed_0001_pdb2pqr_Repair_91_r2_0001_out
     RDKit          3D

 82 86  0  0  0  0  0  0  0  0999 V2000
    2.3550   18.0790   -2.6930 C   0  0  0  0  0  0  0  0  0  0  0  0
    1.0540   17.6920   -1.9840 C   0  0  2  0  0  0  0  0  0  0  0  0
    1.1900   17.7500   -0.4490 C   0  0  0  0  0  0  0  0  0  0  0  0
    0.8570   19.1210    0.1460 C   0  0  0  0  0  0  0  0  0  0  0  0
   -0.5870   19.2210    0.5330 C   0  0  2  0  0  0  0  0  0  0  0  0
   -1.4470   18.2730   -0.1110 O   0  0  0  0  0  0  0  0  0  0  0  0
   -1.6810   19.6560   -0.4240 C   0  0  0  0  0  0  0  0  0  0  0  0
   -1.3770   20.0180   -1.8440 C   0  0  0  0  0  0  0  0  0  0  0  0
   -2.9570   20.1940    0.1440 C   0  0  0  0  0  0  0  0  0  0  0  0
    0.6230   16.2950   -2.4160 C   0  0  1  0  0  0  0  0  0  0  0  0
    0.7180   16.0890   -3.9510 C   0  0  0  0  0  0  0  0  0  0  0  0
    1.1370   14.6140   -4.1790 C   0  0  0  0  0  0  0  0  0  0  0  0
    0.9470   13.9370   -2.8020 C   0  0  1  0  0  0  0  0  0  0  0  0
   -0.5790   13.6220   -2.7170 C   0  0  0  0  0  0  0  0  0  0  0  0
    1.8150   12.6650   -2.5310 C   0  0  2  0  0  0  0  0  0  0  0  0
    1.5460   11.4790   -3.4740 C   0  0  0  0  0  0  0  0  0  0  0  0
    0.5000   10.5200   -3.0110 C   0  0  0  0  0  0  0  0  0  0  0  0
    0.0060   10.4450   -1.7610 C   0  0  0  0  0  0  0  0  0  0  0  0
    0.5740   11.3200   -0.6360 C   0  0  1  0  0  0  0  0  0  0  0  0
    0.8150   10.4490    0.6250 C   0  0  0  0  0  0  0  0  0  0  0  0
   -0.4320    9.6830    1.0550 C   0  0  0  0  0  0  0  0  0  0  0  0
   -0.9330    8.7810   -0.0700 C   0  0  2  0  0  0  0  0  0  0  0  0
    0.0320    7.7490   -0.2980 O   0  0  0  0  0  0  0  0  0  0  0  0
   -1.2020    9.5470   -1.3960 C   0  0  0  0  0  0  0  0  0  0  0  0
   -2.4480   10.4510   -1.2310 C   0  0  0  0  0  0  0  0  0  0  0  0
   -1.5650    8.5020   -2.4850 C   0  0  0  0  0  0  0  0  0  0  0  0
    1.8370   12.2050   -1.0170 C   0  0  1  0  0  0  0  0  0  0  0  0
    3.1450   11.3790   -0.8220 C   0  0  0  0  0  0  0  0  0  0  0  0
    1.9300   13.4240   -0.0240 C   0  0  0  0  0  0  0  0  0  0  0  0
    1.1460   14.6930   -0.4070 C   0  0  0  0  0  0  0  0  0  0  0  0
    1.4300   15.0970   -1.8570 C   0  0  2  0  0  0  0  0  0  0  0  0
    2.9540   15.4410   -1.9680 C   0  0  0  0  0  0  0  0  0  0  0  0
    3.1267   18.3086   -1.9435 H   0  0  0  0  0  0  0  0  0  0  0  0
    2.6925   17.2423   -3.3224 H   0  0  0  0  0  0  0  0  0  0  0  0
    2.1803   18.9641   -3.3224 H   0  0  0  0  0  0  0  0  0  0  0  0
    0.2872   18.4249   -2.2755 H   0  0  0  0  0  0  0  0  0  0  0  0
    0.5078   17.0063   -0.0114 H   0  0  0  0  0  0  0  0  0  0  0  0
    2.2439   17.5432   -0.2111 H   0  0  0  0  0  0  0  0  0  0  0  0
    1.4776   19.2820    1.0398 H   0  0  0  0  0  0  0  0  0  0  0  0
    1.0610   19.8853   -0.6183 H   0  0  0  0  0  0  0  0  0  0  0  0
   -0.3166   19.5551    1.5455 H   0  0  0  0  0  0  0  0  0  0  0  0
   -0.6697   20.8602   -1.8643 H   0  0  0  0  0  0  0  0  0  0  0  0
   -0.9311   19.1523   -2.3557 H   0  0  0  0  0  0  0  0  0  0  0  0
   -2.3067   20.3075   -2.3557 H   0  0  0  0  0  0  0  0  0  0  0  0
   -2.9069   20.1729    1.2427 H   0  0  0  0  0  0  0  0  0  0  0  0
   -3.1020   21.2298   -0.1966 H   0  0  0  0  0  0  0  0  0  0  0  0
   -3.7999   19.5747   -0.1966 H   0  0  0  0  0  0  0  0  0  0  0  0
   -0.3987   16.2830   -2.0085 H   0  0  0  0  0  0  0  0  0  0  0  0
   -0.2579   16.2825   -4.4203 H   0  0  0  0  0  0  0  0  0  0  0  0
    1.4474   16.7805   -4.3980 H   0  0  0  0  0  0  0  0  0  0  0  0
    0.4949   14.1406   -4.9363 H   0  0  0  0  0  0  0  0  0  0  0  0
    2.1695   14.5260   -4.5481 H   0  0  0  0  0  0  0  0  0  0  0  0
   -0.8822   13.5594   -1.6615 H   0  0  0  0  0  0  0  0  0  0  0  0
   -1.1468   14.4219   -3.2148 H   0  0  0  0  0  0  0  0  0  0  0  0
   -0.7837   12.6627   -3.2148 H   0  0  0  0  0  0  0  0  0  0  0  0
    2.8291   13.0160   -2.7727 H   0  0  0  0  0  0  0  0  0  0  0  0
    1.2295   11.8834   -4.4468 H   0  0  0  0  0  0  0  0  0  0  0  0
    2.4845   10.9070   -3.5185 H   0  0  0  0  0  0  0  0  0  0  0  0
    0.0989    9.8150   -3.7540 H   0  0  0  0  0  0  0  0  0  0  0  0
   -0.1929   12.0796   -0.4241 H   0  0  0  0  0  0  0  0  0  0  0  0
    1.6148    9.7261    0.4064 H   0  0  0  0  0  0  0  0  0  0  0  0
    1.0924   11.1237    1.4483 H   0  0  0  0  0  0  0  0  0  0  0  0
   -0.1900    9.0644    1.9318 H   0  0  0  0  0  0  0  0  0  0  0  0
   -1.2217   10.4079    1.3019 H   0  0  0  0  0  0  0  0  0  0  0  0
   -1.8974    8.3596    0.2499 H   0  0  0  0  0  0  0  0  0  0  0  0
   -0.0640    7.0940    0.4140 H   0  0  0  0  0  0  0  0  0  0  0  0
   -2.6536   10.6002   -0.1607 H   0  0  0  0  0  0  0  0  0  0  0  0
   -2.2604   11.4245   -1.7075 H   0  0  0  0  0  0  0  0  0  0  0  0
   -3.3153    9.9706   -1.7075 H   0  0  0  0  0  0  0  0  0  0  0  0
   -1.8895    7.5679   -2.0031 H   0  0  0  0  0  0  0  0  0  0  0  0
   -2.3798    8.8935   -3.1118 H   0  0  0  0  0  0  0  0  0  0  0  0
   -0.6830    8.3041   -3.1118 H   0  0  0  0  0  0  0  0  0  0  0  0
    3.3429   11.2540    0.2528 H   0  0  0  0  0  0  0  0  0  0  0  0
    3.0279   10.3907   -1.2906 H   0  0  0  0  0  0  0  0  0  0  0  0
    3.9870   11.9095   -1.2906 H   0  0  0  0  0  0  0  0  0  0  0  0
    1.5579   13.0855    0.9542 H   0  0  0  0  0  0  0  0  0  0  0  0
    2.9880   13.7248   -0.0358 H   0  0  0  0  0  0  0  0  0  0  0  0
    0.0694   14.4991   -0.2919 H   0  0  0  0  0  0  0  0  0  0  0  0
    1.4627   15.5134    0.2538 H   0  0  0  0  0  0  0  0  0  0  0  0
    3.3825   15.5377   -0.9595 H   0  0  0  0  0  0  0  0  0  0  0  0
    3.4727   14.6373   -2.5112 H   0  0  0  0  0  0  0  0  0  0  0  0
    3.0772   16.3895   -2.5112 H   0  0  0  0  0  0  0  0  0  0  0  0
  1  2  1  0
  2  3  1  0
  3  4  1  0
  4  5  1  0
  5  6  1  0
  6  7  1  0
  7  8  1  0
  7  9  1  0
  2 10  1  0
 10 11  1  0
 11 12  1  0
 12 13  1  0
 13 14  1  1
 13 15  1  0
 15 16  1  0
 16 17  1  0
 17 18  2  0
 18 19  1  0
 19 20  1  0
 20 21  1  0
 21 22  1  0
 22 23  1  0
 22 24  1  0
 24 25  1  0
 24 26  1  0
 19 27  1  0
 27 28  1  6
 27 29  1  0
 29 30  1  0
 30 31  1  0
 31 32  1  1
  7  5  1  0
 31 10  1  0
 31 13  1  0
 27 15  1  0
 24 18  1  0
  1 33  1  0
  1 34  1  0
  1 35  1  0
  2 36  1  6
  3 37  1  0
  3 38  1  0
  4 39  1  0
  4 40  1  0
  5 41  1  1
  8 42  1  0
  8 43  1  0
  8 44  1  0
  9 45  1  0
  9 46  1  0
  9 47  1  0
 10 48  1  1
 11 49  1  0
 11 50  1  0
 12 51  1  0
 12 52  1  0
 14 53  1  0
 14 54  1  0
 14 55  1  0
 15 56  1  6
 16 57  1  0
 16 58  1  0
 17 59  1  0
 19 60  1  1
 20 61  1  0
 20 62  1  0
 21 63  1  0
 21 64  1  0
 22 65  1  1
 23 66  1  0
 25 67  1  0
 25 68  1  0
 25 69  1  0
 26 70  1  0
 26 71  1  0
 26 72  1  0
 28 73  1  0
 28 74  1  0
 28 75  1  0
 29 76  1  0
 29 77  1  0
 30 78  1  0
 30 79  1  0
 32 80  1  0
 32 81  1  0
 32 82  1  0
M  END
>  <meeko>  (3) 
{"is_sidechain": [false], "intermolecular_energy": 2.731, "internal_energy": -0.839}

$$$$
EPH_relaxed_0001_pdb2pqr_Repair_91_r2_0001_out
     RDKit          3D

 82 86  0  0  0  0  0  0  0  0999 V2000
    3.6240   17.8860    0.7160 C   0  0  0  0  0  0  0  0  0  0  0  0
    2.6640   18.2230   -0.4290 C   0  0  2  0  0  0  0  0  0  0  0  0
    1.9400   19.5650   -0.2030 C   0  0  0  0  0  0  0  0  0  0  0  0
    0.8800   19.5150    0.9010 C   0  0  0  0  0  0  0  0  0  0  0  0
   -0.4090   20.1380    0.4610 C   0  0  2  0  0  0  0  0  0  0  0  0
   -1.4250   20.1910    1.4720 O   0  0  0  0  0  0  0  0  0  0  0  0
   -1.7100   19.3670    0.3300 C   0  0  0  0  0  0  0  0  0  0  0  0
   -1.7840   17.9040    0.6380 C   0  0  0  0  0  0  0  0  0  0  0  0
   -2.7820   19.9170   -0.5580 C   0  0  0  0  0  0  0  0  0  0  0  0
    1.6450   17.1030   -0.6000 C   0  0  1  0  0  0  0  0  0  0  0  0
    0.3770   17.5610   -1.3690 C   0  0  0  0  0  0  0  0  0  0  0  0
   -0.0920   16.3520   -2.2180 C   0  0  0  0  0  0  0  0  0  0  0  0
    0.7100   15.1510   -1.6640 C   0  0  1  0  0  0  0  0  0  0  0  0
   -0.0620   14.7110   -0.3810 C   0  0  0  0  0  0  0  0  0  0  0  0
    0.9290   13.9540   -2.6450 C   0  0  2  0  0  0  0  0  0  0  0  0
   -0.3570   13.2500   -3.1120 C   0  0  0  0  0  0  0  0  0  0  0  0
   -0.8030   12.1070   -2.2620 C   0  0  0  0  0  0  0  0  0  0  0  0
   -0.0520   11.4810   -1.3370 C   0  0  0  0  0  0  0  0  0  0  0  0
    1.4240   11.8510   -1.1380 C   0  0  1  0  0  0  0  0  0  0  0  0
    2.2760   10.5570   -1.0600 C   0  0  0  0  0  0  0  0  0  0  0  0
    1.7700    9.5860    0.0030 C   0  0  0  0  0  0  0  0  0  0  0  0
    0.3180    9.1970   -0.2620 C   0  0  2  0  0  0  0  0  0  0  0  0
    0.2580    8.4320   -1.4690 O   0  0  0  0  0  0  0  0  0  0  0  0
   -0.6350   10.4200   -0.3700 C   0  0  0  0  0  0  0  0  0  0  0  0
   -0.8040   11.0740    1.0230 C   0  0  0  0  0  0  0  0  0  0  0  0
   -2.0390    9.8980   -0.7780 C   0  0  0  0  0  0  0  0  0  0  0  0
    2.0170   12.9110   -2.1630 C   0  0  1  0  0  0  0  0  0  0  0  0
    2.5330   12.1830   -3.4420 C   0  0  0  0  0  0  0  0  0  0  0  0
    3.2690   13.6100   -1.5130 C   0  0  0  0  0  0  0  0  0  0  0  0
    2.9990   14.8580   -0.6520 C   0  0  0  0  0  0  0  0  0  0  0  0
    2.0930   15.8480   -1.3900 C   0  0  2  0  0  0  0  0  0  0  0  0
    2.8520   16.3260   -2.6740 C   0  0  0  0  0  0  0  0  0  0  0  0
    3.1223   18.0621    1.6790 H   0  0  0  0  0  0  0  0  0  0  0  0
    3.9221   16.8295    0.6457 H   0  0  0  0  0  0  0  0  0  0  0  0
    4.5170   18.5244    0.6457 H   0  0  0  0  0  0  0  0  0  0  0  0
    3.2639   18.3220   -1.3457 H   0  0  0  0  0  0  0  0  0  0  0  0
    2.6897   20.3223    0.0696 H   0  0  0  0  0  0  0  0  0  0  0  0
    1.4172   19.8096   -1.1394 H   0  0  0  0  0  0  0  0  0  0  0  0
    0.6946   18.4646    1.1697 H   0  0  0  0  0  0  0  0  0  0  0  0
    1.2576   20.0824    1.7644 H   0  0  0  0  0  0  0  0  0  0  0  0
    0.1240   20.8087   -0.2290 H   0  0  0  0  0  0  0  0  0  0  0  0
   -1.7913   17.7588    1.7283 H   0  0  0  0  0  0  0  0  0  0  0  0
   -2.7045   17.4844    0.2060 H   0  0  0  0  0  0  0  0  0  0  0  0
   -0.9105   17.3937    0.2060 H   0  0  0  0  0  0  0  0  0  0  0  0
   -3.5921   20.3326    0.0593 H   0  0  0  0  0  0  0  0  0  0  0  0
   -2.3609   20.7104   -1.1930 H   0  0  0  0  0  0  0  0  0  0  0  0
   -3.1809   19.1122   -1.1930 H   0  0  0  0  0  0  0  0  0  0  0  0
    1.4784   16.8430    0.4558 H   0  0  0  0  0  0  0  0  0  0  0  0
   -0.4110   17.8542   -0.6597 H   0  0  0  0  0  0  0  0  0  0  0  0
    0.5942   18.4308   -2.0064 H   0  0  0  0  0  0  0  0  0  0  0  0
   -1.1726   16.1871   -2.0951 H   0  0  0  0  0  0  0  0  0  0  0  0
    0.0785   16.5067   -3.2936 H   0  0  0  0  0  0  0  0  0  0  0  0
    0.4973   15.0298    0.5109 H   0  0  0  0  0  0  0  0  0  0  0  0
   -1.0585   15.1768   -0.3748 H   0  0  0  0  0  0  0  0  0  0  0  0
   -0.1690   13.6162   -0.3748 H   0  0  0  0  0  0  0  0  0  0  0  0
    1.3379   14.4516   -3.5367 H   0  0  0  0  0  0  0  0  0  0  0  0
   -1.1654   13.9958   -3.1300 H   0  0  0  0  0  0  0  0  0  0  0  0
   -0.1288   12.8235   -4.0999 H   0  0  0  0  0  0  0  0  0  0  0  0
   -1.8323   11.7458   -2.4035 H   0  0  0  0  0  0  0  0  0  0  0  0
    1.4761   12.3905   -0.1808 H   0  0  0  0  0  0  0  0  0  0  0  0
    2.2458   10.0555   -2.0386 H   0  0  0  0  0  0  0  0  0  0  0  0
    3.3006   10.8481   -0.7855 H   0  0  0  0  0  0  0  0  0  0  0  0
    2.3938    8.6801   -0.0105 H   0  0  0  0  0  0  0  0  0  0  0  0
    1.8285   10.0781    0.9851 H   0  0  0  0  0  0  0  0  0  0  0  0
   -0.0269    8.6066    0.5997 H   0  0  0  0  0  0  0  0  0  0  0  0
   -0.3830    7.7150   -1.3320 H   0  0  0  0  0  0  0  0  0  0  0  0
   -0.6106   10.3254    1.8054 H   0  0  0  0  0  0  0  0  0  0  0  0
   -0.0912   11.9053    1.1267 H   0  0  0  0  0  0  0  0  0  0  0  0
   -1.8303   11.4559    1.1267 H   0  0  0  0  0  0  0  0  0  0  0  0
   -2.6261    9.6797    0.1263 H   0  0  0  0  0  0  0  0  0  0  0  0
   -2.5559   10.6640   -1.3747 H   0  0  0  0  0  0  0  0  0  0  0  0
   -1.9299    8.9804   -1.3747 H   0  0  0  0  0  0  0  0  0  0  0  0
    3.1462   11.3179   -3.1493 H   0  0  0  0  0  0  0  0  0  0  0  0
    1.6756   11.8394   -4.0394 H   0  0  0  0  0  0  0  0  0  0  0  0
    3.1411   12.8782   -4.0394 H   0  0  0  0  0  0  0  0  0  0  0  0
    3.7704   12.8676   -0.8747 H   0  0  0  0  0  0  0  0  0  0  0  0
    3.8699   13.9702   -2.3611 H   0  0  0  0  0  0  0  0  0  0  0  0
    2.5090   14.5505    0.2836 H   0  0  0  0  0  0  0  0  0  0  0  0
    3.9587   15.3520   -0.4399 H   0  0  0  0  0  0  0  0  0  0  0  0
    3.7491   16.8910   -2.3807 H   0  0  0  0  0  0  0  0  0  0  0  0
    3.1486   15.4514   -3.2715 H   0  0  0  0  0  0  0  0  0  0  0  0
    2.1914   16.9714   -3.2715 H   0  0  0  0  0  0  0  0  0  0  0  0
  1  2  1  0
  2  3  1  0
  3  4  1  0
  4  5  1  0
  5  6  1  0
  6  7  1  0
  7  8  1  0
  7  9  1  0
  2 10  1  0
 10 11  1  0
 11 12  1  0
 12 13  1  0
 13 14  1  1
 13 15  1  0
 15 16  1  0
 16 17  1  0
 17 18  2  0
 18 19  1  0
 19 20  1  0
 20 21  1  0
 21 22  1  0
 22 23  1  0
 22 24  1  0
 24 25  1  0
 24 26  1  0
 19 27  1  0
 27 28  1  6
 27 29  1  0
 29 30  1  0
 30 31  1  0
 31 32  1  6
  7  5  1  0
 31 10  1  0
 31 13  1  0
 27 15  1  0
 24 18  1  0
  1 33  1  0
  1 34  1  0
  1 35  1  0
  2 36  1  6
  3 37  1  0
  3 38  1  0
  4 39  1  0
  4 40  1  0
  5 41  1  6
  8 42  1  0
  8 43  1  0
  8 44  1  0
  9 45  1  0
  9 46  1  0
  9 47  1  0
 10 48  1  1
 11 49  1  0
 11 50  1  0
 12 51  1  0
 12 52  1  0
 14 53  1  0
 14 54  1  0
 14 55  1  0
 15 56  1  6
 16 57  1  0
 16 58  1  0
 17 59  1  0
 19 60  1  1
 20 61  1  0
 20 62  1  0
 21 63  1  0
 21 64  1  0
 22 65  1  1
 23 66  1  0
 25 67  1  0
 25 68  1  0
 25 69  1  0
 26 70  1  0
 26 71  1  0
 26 72  1  0
 28 73  1  0
 28 74  1  0
 28 75  1  0
 29 76  1  0
 29 77  1  0
 30 78  1  0
 30 79  1  0
 32 80  1  0
 32 81  1  0
 32 82  1  0
M  END
>  <meeko>  (4) 
{"is_sidechain": [false], "intermolecular_energy": 2.731, "internal_energy": -0.839}

$$$$
EPH_relaxed_0001_pdb2pqr_Repair_91_r2_0001_out
     RDKit          3D

 82 86  0  0  0  0  0  0  0  0999 V2000
    0.0850   10.5290   -3.8790 C   0  0  0  0  0  0  0  0  0  0  0  0
    1.1270   10.2980   -2.7820 C   0  0  2  0  0  0  0  0  0  0  0  0
    0.8470    9.0150   -1.9750 C   0  0  0  0  0  0  0  0  0  0  0  0
    0.3470    9.2800   -0.5520 C   0  0  0  0  0  0  0  0  0  0  0  0
   -1.1080    8.9520   -0.4060 C   0  0  2  0  0  0  0  0  0  0  0  0
   -1.8530    8.9740   -1.6310 O   0  0  0  0  0  0  0  0  0  0  0  0
   -2.2200    9.9550   -0.6490 C   0  0  0  0  0  0  0  0  0  0  0  0
   -1.9240   11.3650   -1.0570 C   0  0  0  0  0  0  0  0  0  0  0  0
   -3.5560    9.7080   -0.0210 C   0  0  0  0  0  0  0  0  0  0  0  0
    1.1730   11.5020   -1.8480 C   0  0  1  0  0  0  0  0  0  0  0  0
    2.2430   11.3530   -0.7340 C   0  0  0  0  0  0  0  0  0  0  0  0
    2.8140   12.7700   -0.4700 C   0  0  0  0  0  0  0  0  0  0  0  0
    1.8350   13.7260   -1.1910 C   0  0  1  0  0  0  0  0  0  0  0  0
    0.6350   13.8890   -0.2060 C   0  0  0  0  0  0  0  0  0  0  0  0
    2.4160   15.1100   -1.6270 C   0  0  2  0  0  0  0  0  0  0  0  0
    2.8980   16.0080   -0.4740 C   0  0  0  0  0  0  0  0  0  0  0  0
    1.8690   16.9320    0.0880 C   0  0  0  0  0  0  0  0  0  0  0  0
    0.6970   17.2440   -0.4950 C   0  0  0  0  0  0  0  0  0  0  0  0
    0.3490   16.7210   -1.8950 C   0  0  1  0  0  0  0  0  0  0  0  0
   -0.2110   17.8830   -2.7570 C   0  0  0  0  0  0  0  0  0  0  0  0
   -1.3860   18.5920   -2.0910 C   0  0  0  0  0  0  0  0  0  0  0  0
   -0.9860   19.1480   -0.7270 C   0  0  2  0  0  0  0  0  0  0  0  0
   -0.0280   20.1940   -0.9190 O   0  0  0  0  0  0  0  0  0  0  0  0
   -0.3970   18.0700    0.2260 C   0  0  0  0  0  0  0  0  0  0  0  0
   -1.5210   17.1030    0.6740 C   0  0  0  0  0  0  0  0  0  0  0  0
    0.0960   18.7870    1.5110 C   0  0  0  0  0  0  0  0  0  0  0  0
    1.4970   15.9100   -2.6360 C   0  0  1  0  0  0  0  0  0  0  0  0
    2.4310   16.8930   -3.4060 C   0  0  0  0  0  0  0  0  0  0  0  0
    0.8460   14.9740   -3.7220 C   0  0  0  0  0  0  0  0  0  0  0  0
    0.4010   13.5740   -3.2570 C   0  0  0  0  0  0  0  0  0  0  0  0
    1.5180   12.8760   -2.4750 C   0  0  2  0  0  0  0  0  0  0  0  0
    2.7310   12.6780   -3.4470 C   0  0  0  0  0  0  0  0  0  0  0  0
   -0.8903   10.7452   -3.4186 H   0  0  0  0  0  0  0  0  0  0  0  0
    0.3926   11.3808   -4.5034 H   0  0  0  0  0  0  0  0  0  0  0  0
    0.0038    9.6270   -4.5034 H   0  0  0  0  0  0  0  0  0  0  0  0
    2.1027   10.1710   -3.2738 H   0  0  0  0  0  0  0  0  0  0  0  0
    0.0836    8.4291   -2.5079 H   0  0  0  0  0  0  0  0  0  0  0  0
    1.8021    8.4767   -1.8853 H   0  0  0  0  0  0  0  0  0  0  0  0
    0.9244    8.6604    0.1500 H   0  0  0  0  0  0  0  0  0  0  0  0
    0.4809   10.3501   -0.3351 H   0  0  0  0  0  0  0  0  0  0  0  0
   -0.8951    8.2752    0.4346 H   0  0  0  0  0  0  0  0  0  0  0  0
   -1.7935   11.9868   -0.1591 H   0  0  0  0  0  0  0  0  0  0  0  0
   -1.0016   11.3875   -1.6558 H   0  0  0  0  0  0  0  0  0  0  0  0
   -2.7595   11.7565   -1.6558 H   0  0  0  0  0  0  0  0  0  0  0  0
   -3.4554    9.7266    1.0742 H   0  0  0  0  0  0  0  0  0  0  0  0
   -4.2605   10.4911   -0.3379 H   0  0  0  0  0  0  0  0  0  0  0  0
   -3.9339    8.7248   -0.3379 H   0  0  0  0  0  0  0  0  0  0  0  0
    0.1314   11.5007   -1.4943 H   0  0  0  0  0  0  0  0  0  0  0  0
    1.7832   10.9532    0.1818 H   0  0  0  0  0  0  0  0  0  0  0  0
    3.0382   10.6575   -1.0406 H   0  0  0  0  0  0  0  0  0  0  0  0
    2.8409   12.9830    0.6088 H   0  0  0  0  0  0  0  0  0  0  0  0
    3.8464   12.8781   -0.8339 H   0  0  0  0  0  0  0  0  0  0  0  0
    1.0016   13.8392    0.8299 H   0  0  0  0  0  0  0  0  0  0  0  0
    0.1498   14.8613   -0.3769 H   0  0  0  0  0  0  0  0  0  0  0  0
   -0.0920   13.0814   -0.3769 H   0  0  0  0  0  0  0  0  0  0  0  0
    3.3219   14.8213   -2.1801 H   0  0  0  0  0  0  0  0  0  0  0  0
    3.2505   15.3568    0.3394 H   0  0  0  0  0  0  0  0  0  0  0  0
    3.6847   16.6500   -0.8970 H   0  0  0  0  0  0  0  0  0  0  0  0
    2.0872   17.3970    1.0607 H   0  0  0  0  0  0  0  0  0  0  0  0
   -0.4279   15.9558   -1.7503 H   0  0  0  0  0  0  0  0  0  0  0  0
    0.5923   18.6151   -2.9266 H   0  0  0  0  0  0  0  0  0  0  0  0
   -0.5731   17.4528   -3.7024 H   0  0  0  0  0  0  0  0  0  0  0  0
   -1.7179   19.4204   -2.7341 H   0  0  0  0  0  0  0  0  0  0  0  0
   -2.1995   17.8654   -1.9489 H   0  0  0  0  0  0  0  0  0  0  0  0
   -1.8991   19.5277   -0.2452 H   0  0  0  0  0  0  0  0  0  0  0  0
    0.4430   20.0130   -1.7490 H   0  0  0  0  0  0  0  0  0  0  0  0
   -1.5597   17.0697    1.7728 H   0  0  0  0  0  0  0  0  0  0  0  0
   -2.4865   17.4571    0.2837 H   0  0  0  0  0  0  0  0  0  0  0  0
   -1.3150   16.0954    0.2837 H   0  0  0  0  0  0  0  0  0  0  0  0
   -0.2741   18.2488    2.3961 H   0  0  0  0  0  0  0  0  0  0  0  0
    1.1958   18.8013    1.5239 H   0  0  0  0  0  0  0  0  0  0  0  0
   -0.2843   19.8191    1.5239 H   0  0  0  0  0  0  0  0  0  0  0  0
    3.0034   17.4954   -2.6852 H   0  0  0  0  0  0  0  0  0  0  0  0
    3.1254   16.3199   -4.0380 H   0  0  0  0  0  0  0  0  0  0  0  0
    1.8231   17.5572   -4.0380 H   0  0  0  0  0  0  0  0  0  0  0  0
   -0.0409   15.4905   -4.1178 H   0  0  0  0  0  0  0  0  0  0  0  0
    1.6418   14.7925   -4.4594 H   0  0  0  0  0  0  0  0  0  0  0  0
   -0.4832   13.6737   -2.6102 H   0  0  0  0  0  0  0  0  0  0  0  0
    0.1625   12.9688   -4.1441 H   0  0  0  0  0  0  0  0  0  0  0  0
    3.6498   12.5280   -2.8610 H   0  0  0  0  0  0  0  0  0  0  0  0
    2.5527   11.7971   -4.0812 H   0  0  0  0  0  0  0  0  0  0  0  0
    2.8421   13.5699   -4.0812 H   0  0  0  0  0  0  0  0  0  0  0  0
  1  2  1  0
  2  3  1  0
  3  4  1  0
  4  5  1  0
  5  6  1  0
  6  7  1  0
  7  8  1  0
  7  9  1  0
  2 10  1  0
 10 11  1  0
 11 12  1  0
 12 13  1  0
 13 14  1  1
 13 15  1  0
 15 16  1  0
 16 17  1  0
 17 18  2  0
 18 19  1  0
 19 20  1  0
 20 21  1  0
 21 22  1  0
 22 23  1  0
 22 24  1  0
 24 25  1  0
 24 26  1  0
 19 27  1  0
 27 28  1  6
 27 29  1  0
 29 30  1  0
 30 31  1  0
 31 32  1  6
  7  5  1  0
 31 10  1  0
 31 13  1  0
 27 15  1  0
 24 18  1  0
  1 33  1  0
  1 34  1  0
  1 35  1  0
  2 36  1  6
  3 37  1  0
  3 38  1  0
  4 39  1  0
  4 40  1  0
  5 41  1  1
  8 42  1  0
  8 43  1  0
  8 44  1  0
  9 45  1  0
  9 46  1  0
  9 47  1  0
 10 48  1  1
 11 49  1  0
 11 50  1  0
 12 51  1  0
 12 52  1  0
 14 53  1  0
 14 54  1  0
 14 55  1  0
 15 56  1  6
 16 57  1  0
 16 58  1  0
 17 59  1  0
 19 60  1  1
 20 61  1  0
 20 62  1  0
 21 63  1  0
 21 64  1  0
 22 65  1  1
 23 66  1  0
 25 67  1  0
 25 68  1  0
 25 69  1  0
 26 70  1  0
 26 71  1  0
 26 72  1  0
 28 73  1  0
 28 74  1  0
 28 75  1  0
 29 76  1  0
 29 77  1  0
 30 78  1  0
 30 79  1  0
 32 80  1  0
 32 81  1  0
 32 82  1  0
M  END
>  <meeko>  (5) 
{"is_sidechain": [false], "intermolecular_energy": 2.731, "internal_energy": -0.839}

$$$$
EPH_relaxed_0001_pdb2pqr_Repair_91_r2_0001_out
     RDKit          3D

 82 86  0  0  0  0  0  0  0  0999 V2000
    0.4170    8.8640   -2.5050 C   0  0  0  0  0  0  0  0  0  0  0  0
    1.1800   10.0220   -3.1550 C   0  0  2  0  0  0  0  0  0  0  0  0
    2.6720   10.0250   -2.7670 C   0  0  0  0  0  0  0  0  0  0  0  0
    3.5870   10.6160   -3.8430 C   0  0  0  0  0  0  0  0  0  0  0  0
    4.9810   10.8240   -3.3330 C   0  0  2  0  0  0  0  0  0  0  0  0
    5.5980   12.0470   -3.7570 O   0  0  0  0  0  0  0  0  0  0  0  0
    6.2060   10.8330   -4.2280 C   0  0  0  0  0  0  0  0  0  0  0  0
    6.0950   10.6310   -5.7060 C   0  0  0  0  0  0  0  0  0  0  0  0
    7.5420   10.5520   -3.6140 C   0  0  0  0  0  0  0  0  0  0  0  0
    0.5390   11.3500   -2.7670 C   0  0  1  0  0  0  0  0  0  0  0  0
   -0.8290   11.1680   -2.0580 C   0  0  0  0  0  0  0  0  0  0  0  0
   -0.9380   12.2960   -1.0000 C   0  0  0  0  0  0  0  0  0  0  0  0
    0.2030   13.2770   -1.3570 C   0  0  1  0  0  0  0  0  0  0  0  0
   -0.3640   14.1440   -2.5250 C   0  0  0  0  0  0  0  0  0  0  0  0
    0.7420   14.1650   -0.1890 C   0  0  2  0  0  0  0  0  0  0  0  0
   -0.2860   15.1310    0.4250 C   0  0  0  0  0  0  0  0  0  0  0  0
   -0.3430   16.4840   -0.2020 C   0  0  0  0  0  0  0  0  0  0  0  0
    0.5870   17.0060   -1.0240 C   0  0  0  0  0  0  0  0  0  0  0  0
    1.8880   16.2500   -1.3200 C   0  0  1  0  0  0  0  0  0  0  0  0
    3.0910   17.2210   -1.1940 C   0  0  0  0  0  0  0  0  0  0  0  0
    2.9300   18.4670   -2.0600 C   0  0  0  0  0  0  0  0  0  0  0  0
    1.6550   19.2230   -1.6950 C   0  0  2  0  0  0  0  0  0  0  0  0
    1.7930   19.7490   -0.3720 O   0  0  0  0  0  0  0  0  0  0  0  0
    0.3770   18.3420   -1.7760 C   0  0  0  0  0  0  0  0  0  0  0  0
    0.0590   18.0210   -3.2580 C   0  0  0  0  0  0  0  0  0  0  0  0
   -0.8170   19.1840   -1.2490 C   0  0  0  0  0  0  0  0  0  0  0  0
    2.1060   14.9000   -0.5100 C   0  0  1  0  0  0  0  0  0  0  0  0
    2.7810   15.2060    0.8620 C   0  0  0  0  0  0  0  0  0  0  0  0
    3.1100   13.9810   -1.3020 C   0  0  0  0  0  0  0  0  0  0  0  0
    2.5020   13.0400   -2.3600 C   0  0  0  0  0  0  0  0  0  0  0  0
    1.3200   12.2560   -1.7830 C   0  0  2  0  0  0  0  0  0  0  0  0
    1.8640   11.3580   -0.6200 C   0  0  0  0  0  0  0  0  0  0  0  0
    0.4765    8.9543   -1.4103 H   0  0  0  0  0  0  0  0  0  0  0  0
   -0.6367    8.8972   -2.8189 H   0  0  0  0  0  0  0  0  0  0  0  0
    0.8632    7.9088   -2.8189 H   0  0  0  0  0  0  0  0  0  0  0  0
    1.1223    9.8852   -4.2449 H   0  0  0  0  0  0  0  0  0  0  0  0
    2.7904   10.6167   -1.8473 H   0  0  0  0  0  0  0  0  0  0  0  0
    2.9710    8.9750   -2.6322 H   0  0  0  0  0  0  0  0  0  0  0  0
    3.6202    9.9274   -4.7001 H   0  0  0  0  0  0  0  0  0  0  0  0
    3.1807   11.5945   -4.1386 H   0  0  0  0  0  0  0  0  0  0  0  0
    4.7483   10.2795   -2.4060 H   0  0  0  0  0  0  0  0  0  0  0  0
    5.5743    9.6834   -5.9085 H   0  0  0  0  0  0  0  0  0  0  0  0
    5.5274   11.4630   -6.1482 H   0  0  0  0  0  0  0  0  0  0  0  0
    7.1017   10.5980   -6.1482 H   0  0  0  0  0  0  0  0  0  0  0  0
    7.4530   10.5707   -2.5178 H   0  0  0  0  0  0  0  0  0  0  0  0
    7.8925    9.5605   -3.9365 H   0  0  0  0  0  0  0  0  0  0  0  0
    8.2622   11.3183   -3.9365 H   0  0  0  0  0  0  0  0  0  0  0  0
    0.4883   11.8266   -3.7571 H   0  0  0  0  0  0  0  0  0  0  0  0
   -1.6479   11.2525   -2.7875 H   0  0  0  0  0  0  0  0  0  0  0  0
   -0.9010   10.1765   -1.5871 H   0  0  0  0  0  0  0  0  0  0  0  0
   -1.9153   12.7966   -1.0654 H   0  0  0  0  0  0  0  0  0  0  0  0
   -0.8531   11.9136    0.0279 H   0  0  0  0  0  0  0  0  0  0  0  0
   -0.9218   14.9970   -2.1112 H   0  0  0  0  0  0  0  0  0  0  0  0
    0.4668   14.5145   -3.1434 H   0  0  0  0  0  0  0  0  0  0  0  0
   -1.0365   13.5314   -3.1434 H   0  0  0  0  0  0  0  0  0  0  0  0
    0.9562   13.4213    0.5926 H   0  0  0  0  0  0  0  0  0  0  0  0
   -1.2812   14.6716    0.3331 H   0  0  0  0  0  0  0  0  0  0  0  0
    0.0309   15.2912    1.4661 H   0  0  0  0  0  0  0  0  0  0  0  0
   -1.2195   17.1081    0.0269 H   0  0  0  0  0  0  0  0  0  0  0  0
    1.8028   15.8933   -2.3571 H   0  0  0  0  0  0  0  0  0  0  0  0
    3.1849   17.5317   -0.1430 H   0  0  0  0  0  0  0  0  0  0  0  0
    3.9886   16.6875   -1.5400 H   0  0  0  0  0  0  0  0  0  0  0  0
    3.7965   19.1269   -1.9062 H   0  0  0  0  0  0  0  0  0  0  0  0
    2.8654   18.1569   -3.1134 H   0  0  0  0  0  0  0  0  0  0  0  0
    1.5277   20.0300   -2.4316 H   0  0  0  0  0  0  0  0  0  0  0  0
    2.2820   19.0950    0.1560 H   0  0  0  0  0  0  0  0  0  0  0  0
   -0.7144   17.2403   -3.3063 H   0  0  0  0  0  0  0  0  0  0  0  0
   -0.3052   18.9295   -3.7600 H   0  0  0  0  0  0  0  0  0  0  0  0
    0.9709   17.6653   -3.7600 H   0  0  0  0  0  0  0  0  0  0  0  0
   -0.8113   19.1800   -0.1490 H   0  0  0  0  0  0  0  0  0  0  0  0
   -0.7251   20.2182   -1.6124 H   0  0  0  0  0  0  0  0  0  0  0  0
   -1.7603   18.7502   -1.6124 H   0  0  0  0  0  0  0  0  0  0  0  0
    2.1087   14.9012    1.6775 H   0  0  0  0  0  0  0  0  0  0  0  0
    3.7261   14.6483    0.9382 H   0  0  0  0  0  0  0  0  0  0  0  0
    2.9844   16.2843    0.9382 H   0  0  0  0  0  0  0  0  0  0  0  0
    3.8292   14.6373   -1.8140 H   0  0  0  0  0  0  0  0  0  0  0  0
    3.5514   13.3165   -0.5447 H   0  0  0  0  0  0  0  0  0  0  0  0
    2.1540   13.6376   -3.2154 H   0  0  0  0  0  0  0  0  0  0  0  0
    3.2748   12.3249   -2.6783 H   0  0  0  0  0  0  0  0  0  0  0  0
    1.5924   11.8063    0.3471 H   0  0  0  0  0  0  0  0  0  0  0  0
    1.4226   10.3533   -0.6953 H   0  0  0  0  0  0  0  0  0  0  0  0
    2.9589   11.2840   -0.6953 H   0  0  0  0  0  0  0  0  0  0  0  0
  1  2  1  0
  2  3  1  0
  3  4  1  0
  4  5  1  0
  5  6  1  0
  6  7  1  0
  7  8  1  0
  7  9  1  0
  2 10  1  0
 10 11  1  0
 11 12  1  0
 12 13  1  0
 13 14  1  6
 13 15  1  0
 15 16  1  0
 16 17  1  0
 17 18  2  0
 18 19  1  0
 19 20  1  0
 20 21  1  0
 21 22  1  0
 22 23  1  0
 22 24  1  0
 24 25  1  0
 24 26  1  0
 19 27  1  0
 27 28  1  1
 27 29  1  0
 29 30  1  0
 30 31  1  0
 31 32  1  1
  7  5  1  0
 31 10  1  0
 31 13  1  0
 27 15  1  0
 24 18  1  0
  1 33  1  0
  1 34  1  0
  1 35  1  0
  2 36  1  6
  3 37  1  0
  3 38  1  0
  4 39  1  0
  4 40  1  0
  5 41  1  1
  8 42  1  0
  8 43  1  0
  8 44  1  0
  9 45  1  0
  9 46  1  0
  9 47  1  0
 10 48  1  6
 11 49  1  0
 11 50  1  0
 12 51  1  0
 12 52  1  0
 14 53  1  0
 14 54  1  0
 14 55  1  0
 15 56  1  1
 16 57  1  0
 16 58  1  0
 17 59  1  0
 19 60  1  6
 20 61  1  0
 20 62  1  0
 21 63  1  0
 21 64  1  0
 22 65  1  6
 23 66  1  0
 25 67  1  0
 25 68  1  0
 25 69  1  0
 26 70  1  0
 26 71  1  0
 26 72  1  0
 28 73  1  0
 28 74  1  0
 28 75  1  0
 29 76  1  0
 29 77  1  0
 30 78  1  0
 30 79  1  0
 32 80  1  0
 32 81  1  0
 32 82  1  0
M  END
>  <meeko>  (6) 
{"is_sidechain": [false], "intermolecular_energy": 2.731, "internal_energy": -0.839}

$$$$
EPH_relaxed_0001_pdb2pqr_Repair_91_r2_0001_out
     RDKit          3D

 82 86  0  0  0  0  0  0  0  0999 V2000
    2.6650   19.7250   -0.7890 C   0  0  0  0  0  0  0  0  0  0  0  0
    2.4770   18.7590   -1.9620 C   0  0  2  0  0  0  0  0  0  0  0  0
    1.0530   18.8300   -2.5500 C   0  0  0  0  0  0  0  0  0  0  0  0
    0.1570   19.8680   -1.8690 C   0  0  0  0  0  0  0  0  0  0  0  0
   -1.1080   19.2530   -1.3500 C   0  0  2  0  0  0  0  0  0  0  0  0
   -2.1270   20.1940   -0.9900 O   0  0  0  0  0  0  0  0  0  0  0  0
   -1.5860   19.4050    0.0820 C   0  0  0  0  0  0  0  0  0  0  0  0
   -0.8060   20.1940    1.0850 C   0  0  0  0  0  0  0  0  0  0  0  0
   -2.5440   18.3920    0.6270 C   0  0  0  0  0  0  0  0  0  0  0  0
    2.7870   17.3350   -1.5170 C   0  0  1  0  0  0  0  0  0  0  0  0
    3.4810   17.2800   -0.1300 C   0  0  0  0  0  0  0  0  0  0  0  0
    2.9660   16.0000    0.5780 C   0  0  0  0  0  0  0  0  0  0  0  0
    2.2600   15.1950   -0.5380 C   0  0  1  0  0  0  0  0  0  0  0  0
    3.4120   14.4640   -1.2960 C   0  0  0  0  0  0  0  0  0  0  0  0
    1.1500   14.1970   -0.0730 C   0  0  2  0  0  0  0  0  0  0  0  0
    1.6380   13.0580    0.8400 C   0  0  0  0  0  0  0  0  0  0  0  0
    2.0670   11.8140    0.1340 C   0  0  0  0  0  0  0  0  0  0  0  0
    1.7980   11.5110   -1.1500 C   0  0  0  0  0  0  0  0  0  0  0  0
    0.9050   12.4210   -2.0040 C   0  0  1  0  0  0  0  0  0  0  0  0
   -0.1340   11.5580   -2.7680 C   0  0  0  0  0  0  0  0  0  0  0  0
    0.5170   10.4460   -3.5850 C   0  0  0  0  0  0  0  0  0  0  0  0
    1.3490    9.5290   -2.6920 C   0  0  2  0  0  0  0  0  0  0  0  0
    0.4700    8.8250   -1.8090 O   0  0  0  0  0  0  0  0  0  0  0  0
    2.4240   10.2880   -1.8650 C   0  0  0  0  0  0  0  0  0  0  0  0
    3.5420   10.7970   -2.8080 C   0  0  0  0  0  0  0  0  0  0  0  0
    3.0950    9.2700   -0.9050 C   0  0  0  0  0  0  0  0  0  0  0  0
    0.2390   13.6480   -1.2450 C   0  0  1  0  0  0  0  0  0  0  0  0
   -1.1060   13.2040   -0.5920 C   0  0  0  0  0  0  0  0  0  0  0  0
   -0.1240   14.7650   -2.2930 C   0  0  0  0  0  0  0  0  0  0  0  0
    0.9760   15.7930   -2.6220 C   0  0  0  0  0  0  0  0  0  0  0  0
    1.5890   16.3680   -1.3410 C   0  0  2  0  0  0  0  0  0  0  0  0
    0.4580   17.1290   -0.5690 C   0  0  0  0  0  0  0  0  0  0  0  0
    2.5582   19.1765    0.1585 H   0  0  0  0  0  0  0  0  0  0  0  0
    3.6675   20.1747   -0.8414 H   0  0  0  0  0  0  0  0  0  0  0  0
    1.9043   20.5178   -0.8414 H   0  0  0  0  0  0  0  0  0  0  0  0
    3.1768   19.0609   -2.7552 H   0  0  0  0  0  0  0  0  0  0  0  0
    1.1303   19.0847   -3.6173 H   0  0  0  0  0  0  0  0  0  0  0  0
    0.5880   17.8467   -2.3858 H   0  0  0  0  0  0  0  0  0  0  0  0
    0.7064   20.3166   -1.0282 H   0  0  0  0  0  0  0  0  0  0  0  0
   -0.1130   20.6302   -2.6148 H   0  0  0  0  0  0  0  0  0  0  0  0
   -0.9701   18.3704   -1.9919 H   0  0  0  0  0  0  0  0  0  0  0  0
   -1.1037   19.8928    2.1002 H   0  0  0  0  0  0  0  0  0  0  0  0
    0.2684   20.0033    0.9462 H   0  0  0  0  0  0  0  0  0  0  0  0
   -1.0090   21.2662    0.9462 H   0  0  0  0  0  0  0  0  0  0  0  0
   -2.5192   18.4182    1.7264 H   0  0  0  0  0  0  0  0  0  0  0  0
   -3.5609   18.6238    0.2775 H   0  0  0  0  0  0  0  0  0  0  0  0
   -2.2558   17.3896    0.2775 H   0  0  0  0  0  0  0  0  0  0  0  0
    3.4122   17.0102   -2.3618 H   0  0  0  0  0  0  0  0  0  0  0  0
    4.5728   17.2307   -0.2545 H   0  0  0  0  0  0  0  0  0  0  0  0
    3.2515   18.1782    0.4622 H   0  0  0  0  0  0  0  0  0  0  0  0
    3.8039   15.4259    1.0004 H   0  0  0  0  0  0  0  0  0  0  0  0
    2.2927   16.2293    1.4171 H   0  0  0  0  0  0  0  0  0  0  0  0
    4.1079   14.0224   -0.5675 H   0  0  0  0  0  0  0  0  0  0  0  0
    2.9888   13.6688   -1.9274 H   0  0  0  0  0  0  0  0  0  0  0  0
    3.9512   15.1856   -1.9274 H   0  0  0  0  0  0  0  0  0  0  0  0
    0.5104   14.8325    0.5571 H   0  0  0  0  0  0  0  0  0  0  0  0
    2.4940   13.4314    1.4213 H   0  0  0  0  0  0  0  0  0  0  0  0
    0.7749   12.7739    1.4599 H   0  0  0  0  0  0  0  0  0  0  0  0
    2.6522   11.0835    0.7118 H   0  0  0  0  0  0  0  0  0  0  0  0
    1.5749   12.9193   -2.7202 H   0  0  0  0  0  0  0  0  0  0  0  0
   -0.8202   11.1038   -2.0380 H   0  0  0  0  0  0  0  0  0  0  0  0
   -0.6669   12.2185   -3.4678 H   0  0  0  0  0  0  0  0  0  0  0  0
   -0.2685    9.8536   -4.0770 H   0  0  0  0  0  0  0  0  0  0  0  0
    1.1802   10.9028   -4.3343 H   0  0  0  0  0  0  0  0  0  0  0  0
    1.8931    8.8341   -3.3486 H   0  0  0  0  0  0  0  0  0  0  0  0
   -0.4340    9.1380   -1.9820 H   0  0  0  0  0  0  0  0  0  0  0  0
    4.3815   11.1792   -2.2086 H   0  0  0  0  0  0  0  0  0  0  0  0
    3.8915    9.9693   -3.4426 H   0  0  0  0  0  0  0  0  0  0  0  0
    3.1472   11.6041   -3.4426 H   0  0  0  0  0  0  0  0  0  0  0  0
    2.9005    9.5651    0.1367 H   0  0  0  0  0  0  0  0  0  0  0  0
    2.6802    8.2673   -1.0856 H   0  0  0  0  0  0  0  0  0  0  0  0
    4.1800    9.2559   -1.0856 H   0  0  0  0  0  0  0  0  0  0  0  0
   -1.0099   13.2357    0.5033 H   0  0  0  0  0  0  0  0  0  0  0  0
   -1.9099   13.8844   -0.9094 H   0  0  0  0  0  0  0  0  0  0  0  0
   -1.3468   12.1787   -0.9094 H   0  0  0  0  0  0  0  0  0  0  0  0
   -0.4019   14.2631   -3.2315 H   0  0  0  0  0  0  0  0  0  0  0  0
   -0.9314   15.3473   -1.8250 H   0  0  0  0  0  0  0  0  0  0  0  0
    1.7651   15.3004   -3.2090 H   0  0  0  0  0  0  0  0  0  0  0  0
    0.5265   16.6164   -3.1964 H   0  0  0  0  0  0  0  0  0  0  0  0
    0.6173   17.0218    0.5141 H   0  0  0  0  0  0  0  0  0  0  0  0
    0.4827   18.1949   -0.8395 H   0  0  0  0  0  0  0  0  0  0  0  0
   -0.5201   16.7046   -0.8395 H   0  0  0  0  0  0  0  0  0  0  0  0
  1  2  1  0
  2  3  1  0
  3  4  1  0
  4  5  1  0
  5  6  1  0
  6  7  1  0
  7  8  1  0
  7  9  1  0
  2 10  1  0
 10 11  1  0
 11 12  1  0
 12 13  1  0
 13 14  1  6
 13 15  1  0
 15 16  1  0
 16 17  1  0
 17 18  2  0
 18 19  1  0
 19 20  1  0
 20 21  1  0
 21 22  1  0
 22 23  1  0
 22 24  1  0
 24 25  1  0
 24 26  1  0
 19 27  1  0
 27 28  1  1
 27 29  1  0
 29 30  1  0
 30 31  1  0
 31 32  1  1
  7  5  1  0
 31 10  1  0
 31 13  1  0
 27 15  1  0
 24 18  1  0
  1 33  1  0
  1 34  1  0
  1 35  1  0
  2 36  1  6
  3 37  1  0
  3 38  1  0
  4 39  1  0
  4 40  1  0
  5 41  1  6
  8 42  1  0
  8 43  1  0
  8 44  1  0
  9 45  1  0
  9 46  1  0
  9 47  1  0
 10 48  1  6
 11 49  1  0
 11 50  1  0
 12 51  1  0
 12 52  1  0
 14 53  1  0
 14 54  1  0
 14 55  1  0
 15 56  1  1
 16 57  1  0
 16 58  1  0
 17 59  1  0
 19 60  1  6
 20 61  1  0
 20 62  1  0
 21 63  1  0
 21 64  1  0
 22 65  1  6
 23 66  1  0
 25 67  1  0
 25 68  1  0
 25 69  1  0
 26 70  1  0
 26 71  1  0
 26 72  1  0
 28 73  1  0
 28 74  1  0
 28 75  1  0
 29 76  1  0
 29 77  1  0
 30 78  1  0
 30 79  1  0
 32 80  1  0
 32 81  1  0
 32 82  1  0
M  END
>  <meeko>  (7) 
{"is_sidechain": [false], "intermolecular_energy": 2.731, "internal_energy": -0.839}

$$$$
EPH_relaxed_0001_pdb2pqr_Repair_91_r2_0001_out
     RDKit          3D

 82 86  0  0  0  0  0  0  0  0999 V2000
    0.1460   17.7490   -2.5750 C   0  0  0  0  0  0  0  0  0  0  0  0
   -0.0920   16.8720   -1.3420 C   0  0  2  0  0  0  0  0  0  0  0  0
   -0.1230   17.6960   -0.0400 C   0  0  0  0  0  0  0  0  0  0  0  0
    0.4940   19.0900   -0.1790 C   0  0  0  0  0  0  0  0  0  0  0  0
    1.6190   19.2980    0.7900 C   0  0  2  0  0  0  0  0  0  0  0  0
    2.6420   20.1940    0.3360 O   0  0  0  0  0  0  0  0  0  0  0  0
    3.0390   18.8280    0.5360 C   0  0  0  0  0  0  0  0  0  0  0  0
    3.4100   18.1110   -0.7240 C   0  0  0  0  0  0  0  0  0  0  0  0
    3.9470   18.6300    1.7100 C   0  0  0  0  0  0  0  0  0  0  0  0
    0.9850   15.7970   -1.2540 C   0  0  1  0  0  0  0  0  0  0  0  0
    1.1720   15.2560    0.1890 C   0  0  0  0  0  0  0  0  0  0  0  0
    1.5150   13.7500    0.0620 C   0  0  0  0  0  0  0  0  0  0  0  0
    1.8400   13.5500   -1.4370 C   0  0  1  0  0  0  0  0  0  0  0  0
    3.3170   14.0290   -1.5950 C   0  0  0  0  0  0  0  0  0  0  0  0
    1.6390   12.1050   -2.0010 C   0  0  2  0  0  0  0  0  0  0  0  0
    2.5330   11.0260   -1.3660 C   0  0  0  0  0  0  0  0  0  0  0  0
    3.8450   10.8050   -2.0440 C   0  0  0  0  0  0  0  0  0  0  0  0
    4.1710   11.2370   -3.2760 C   0  0  0  0  0  0  0  0  0  0  0  0
    3.1380   11.9450   -4.1620 C   0  0  1  0  0  0  0  0  0  0  0  0
    3.1870   11.3490   -5.5930 C   0  0  0  0  0  0  0  0  0  0  0  0
    4.5900   11.3820   -6.1920 C   0  0  0  0  0  0  0  0  0  0  0  0
    5.5770   10.6180   -5.3130 C   0  0  2  0  0  0  0  0  0  0  0  0
    5.2350    9.2290   -5.3360 O   0  0  0  0  0  0  0  0  0  0  0  0
    5.6070   11.1250   -3.8440 C   0  0  0  0  0  0  0  0  0  0  0  0
    6.2630   12.5270   -3.7910 C   0  0  0  0  0  0  0  0  0  0  0  0
    6.5360   10.1810   -3.0330 C   0  0  0  0  0  0  0  0  0  0  0  0
    1.6600   12.0170   -3.5810 C   0  0  1  0  0  0  0  0  0  0  0  0
    0.8740   10.7270   -3.9660 C   0  0  0  0  0  0  0  0  0  0  0  0
    0.9000   13.2190   -4.2570 C   0  0  0  0  0  0  0  0  0  0  0  0
    1.0420   14.5970   -3.5850 C   0  0  0  0  0  0  0  0  0  0  0  0
    0.7700   14.5040   -2.0800 C   0  0  2  0  0  0  0  0  0  0  0  0
   -0.7160   14.0450   -1.8900 C   0  0  0  0  0  0  0  0  0  0  0  0
    0.4216   18.7647   -2.2549 H   0  0  0  0  0  0  0  0  0  0  0  0
    0.9604   17.3209   -3.1778 H   0  0  0  0  0  0  0  0  0  0  0  0
   -0.7731   17.7913   -3.1778 H   0  0  0  0  0  0  0  0  0  0  0  0
   -1.0793   16.4006   -1.4564 H   0  0  0  0  0  0  0  0  0  0  0  0
   -1.1711   17.8099    0.2740 H   0  0  0  0  0  0  0  0  0  0  0  0
    0.4801   17.1500    0.7004 H   0  0  0  0  0  0  0  0  0  0  0  0
    0.8787   19.2090   -1.2026 H   0  0  0  0  0  0  0  0  0  0  0  0
   -0.2870   19.8337    0.0378 H   0  0  0  0  0  0  0  0  0  0  0  0
    0.9393   19.1646    1.6445 H   0  0  0  0  0  0  0  0  0  0  0  0
    3.9022   17.1598   -0.4732 H   0  0  0  0  0  0  0  0  0  0  0  0
    2.5026   17.9103   -1.3125 H   0  0  0  0  0  0  0  0  0  0  0  0
    4.0979   18.7358   -1.3125 H   0  0  0  0  0  0  0  0  0  0  0  0
    3.3749   18.7548    2.6412 H   0  0  0  0  0  0  0  0  0  0  0  0
    4.3752   17.6174    1.6756 H   0  0  0  0  0  0  0  0  0  0  0  0
    4.7580   19.3724    1.6756 H   0  0  0  0  0  0  0  0  0  0  0  0
    1.8406   16.3610   -1.6537 H   0  0  0  0  0  0  0  0  0  0  0  0
    1.9925   15.7902    0.6903 H   0  0  0  0  0  0  0  0  0  0  0  0
    0.2607   15.4040    0.7871 H   0  0  0  0  0  0  0  0  0  0  0  0
    2.3849   13.4958    0.6854 H   0  0  0  0  0  0  0  0  0  0  0  0
    0.6914   13.1042    0.4005 H   0  0  0  0  0  0  0  0  0  0  0  0
    3.7639   14.1739   -0.6004 H   0  0  0  0  0  0  0  0  0  0  0  0
    3.8911   13.2710   -2.1480 H   0  0  0  0  0  0  0  0  0  0  0  0
    3.3370   14.9797   -2.1480 H   0  0  0  0  0  0  0  0  0  0  0  0
    0.6133   11.8683   -1.6817 H   0  0  0  0  0  0  0  0  0  0  0  0
    2.7335   11.3200   -0.3251 H   0  0  0  0  0  0  0  0  0  0  0  0
    1.9798   10.0797   -1.4576 H   0  0  0  0  0  0  0  0  0  0  0  0
    4.6097   10.2414   -1.4894 H   0  0  0  0  0  0  0  0  0  0  0  0
    3.4352   13.0037   -4.1889 H   0  0  0  0  0  0  0  0  0  0  0  0
    2.8455   10.3042   -5.5519 H   0  0  0  0  0  0  0  0  0  0  0  0
    2.5358   11.9624   -6.2330 H   0  0  0  0  0  0  0  0  0  0  0  0
    4.5660   10.9213   -7.1906 H   0  0  0  0  0  0  0  0  0  0  0  0
    4.9182   12.4297   -6.2594 H   0  0  0  0  0  0  0  0  0  0  0  0
    6.5837   10.7856   -5.7235 H   0  0  0  0  0  0  0  0  0  0  0  0
    6.0320    8.7340   -5.5930 H   0  0  0  0  0  0  0  0  0  0  0  0
    6.4033   12.8268   -2.7420 H   0  0  0  0  0  0  0  0  0  0  0  0
    7.2393   12.4944   -4.2967 H   0  0  0  0  0  0  0  0  0  0  0  0
    5.6123   13.2556   -4.2967 H   0  0  0  0  0  0  0  0  0  0  0  0
    6.3755   10.3441   -1.9571 H   0  0  0  0  0  0  0  0  0  0  0  0
    6.3051    9.1351   -3.2837 H   0  0  0  0  0  0  0  0  0  0  0  0
    7.5854   10.3951   -3.2837 H   0  0  0  0  0  0  0  0  0  0  0  0
    0.5559   10.2049   -3.0516 H   0  0  0  0  0  0  0  0  0  0  0  0
   -0.0112   11.0003   -4.5590 H   0  0  0  0  0  0  0  0  0  0  0  0
    1.5227   10.0656   -4.5590 H   0  0  0  0  0  0  0  0  0  0  0  0
    1.2735   13.3114   -5.2875 H   0  0  0  0  0  0  0  0  0  0  0  0
   -0.1676   12.9673   -4.1740 H   0  0  0  0  0  0  0  0  0  0  0  0
    2.0643   14.9710   -3.7435 H   0  0  0  0  0  0  0  0  0  0  0  0
    0.3074   15.2827   -4.0324 H   0  0  0  0  0  0  0  0  0  0  0  0
   -0.9436   13.9747   -0.8161 H   0  0  0  0  0  0  0  0  0  0  0  0
   -1.3889   14.7772   -2.3603 H   0  0  0  0  0  0  0  0  0  0  0  0
   -0.8588   13.0609   -2.3603 H   0  0  0  0  0  0  0  0  0  0  0  0
  1  2  1  0
  2  3  1  0
  3  4  1  0
  4  5  1  0
  5  6  1  0
  6  7  1  0
  7  8  1  0
  7  9  1  0
  2 10  1  0
 10 11  1  0
 11 12  1  0
 12 13  1  0
 13 14  1  1
 13 15  1  0
 15 16  1  0
 16 17  1  0
 17 18  2  0
 18 19  1  0
 19 20  1  0
 20 21  1  0
 21 22  1  0
 22 23  1  0
 22 24  1  0
 24 25  1  0
 24 26  1  0
 19 27  1  0
 27 28  1  1
 27 29  1  0
 29 30  1  0
 30 31  1  0
 31 32  1  6
  7  5  1  0
 31 10  1  0
 31 13  1  0
 27 15  1  0
 24 18  1  0
  1 33  1  0
  1 34  1  0
  1 35  1  0
  2 36  1  6
  3 37  1  0
  3 38  1  0
  4 39  1  0
  4 40  1  0
  5 41  1  1
  8 42  1  0
  8 43  1  0
  8 44  1  0
  9 45  1  0
  9 46  1  0
  9 47  1  0
 10 48  1  6
 11 49  1  0
 11 50  1  0
 12 51  1  0
 12 52  1  0
 14 53  1  0
 14 54  1  0
 14 55  1  0
 15 56  1  1
 16 57  1  0
 16 58  1  0
 17 59  1  0
 19 60  1  6
 20 61  1  0
 20 62  1  0
 21 63  1  0
 21 64  1  0
 22 65  1  6
 23 66  1  0
 25 67  1  0
 25 68  1  0
 25 69  1  0
 26 70  1  0
 26 71  1  0
 26 72  1  0
 28 73  1  0
 28 74  1  0
 28 75  1  0
 29 76  1  0
 29 77  1  0
 30 78  1  0
 30 79  1  0
 32 80  1  0
 32 81  1  0
 32 82  1  0
M  END
>  <meeko>  (8) 
{"is_sidechain": [false], "intermolecular_energy": 2.731, "internal_energy": -0.839}

$$$$
EPH_relaxed_0001_pdb2pqr_Repair_91_r2_0001_out
     RDKit          3D

 82 86  0  0  0  0  0  0  0  0999 V2000
   -0.9100   16.3890   -5.8740 C   0  0  0  0  0  0  0  0  0  0  0  0
    0.1870   15.6880   -6.6810 C   0  0  2  0  0  0  0  0  0  0  0  0
   -0.2140   15.4910   -8.1560 C   0  0  0  0  0  0  0  0  0  0  0  0
    0.4300   16.5010   -9.1100 C   0  0  0  0  0  0  0  0  0  0  0  0
    1.8380   16.1180   -9.4540 C   0  0  2  0  0  0  0  0  0  0  0  0
    2.3320   16.6860  -10.6740 O   0  0  0  0  0  0  0  0  0  0  0  0
    2.2020   15.2550  -10.6480 C   0  0  0  0  0  0  0  0  0  0  0  0
    1.1550   14.7220  -11.5740 C   0  0  0  0  0  0  0  0  0  0  0  0
    3.5130   14.5320  -10.6340 C   0  0  0  0  0  0  0  0  0  0  0  0
    0.5190   14.3430   -6.0470 C   0  0  1  0  0  0  0  0  0  0  0  0
    1.7490   13.6610   -6.7030 C   0  0  0  0  0  0  0  0  0  0  0  0
    2.4990   12.9080   -5.5740 C   0  0  0  0  0  0  0  0  0  0  0  0
    1.5090   12.9030   -4.3850 C   0  0  1  0  0  0  0  0  0  0  0  0
    0.5260   11.7290   -4.6870 C   0  0  0  0  0  0  0  0  0  0  0  0
    2.1410   12.7750   -2.9610 C   0  0  2  0  0  0  0  0  0  0  0  0
    2.9090   11.4660   -2.7030 C   0  0  0  0  0  0  0  0  0  0  0  0
    2.0950   10.3510   -2.1350 C   0  0  0  0  0  0  0  0  0  0  0  0
    0.8750   10.4770   -1.5790 C   0  0  0  0  0  0  0  0  0  0  0  0
    0.2340   11.8580   -1.3920 C   0  0  1  0  0  0  0  0  0  0  0  0
   -0.3500   11.9670    0.0410 C   0  0  0  0  0  0  0  0  0  0  0  0
   -1.3100   10.8280    0.3710 C   0  0  0  0  0  0  0  0  0  0  0  0
   -0.6190    9.4750    0.2290 C   0  0  2  0  0  0  0  0  0  0  0  0
    0.3900    9.3640    1.2380 O   0  0  0  0  0  0  0  0  0  0  0  0
    0.0160    9.2540   -1.1720 C   0  0  0  0  0  0  0  0  0  0  0  0
   -1.1020    9.0730   -2.2280 C   0  0  0  0  0  0  0  0  0  0  0  0
    0.8000    7.9150   -1.1360 C   0  0  0  0  0  0  0  0  0  0  0  0
    1.1440   13.1030   -1.7770 C   0  0  1  0  0  0  0  0  0  0  0  0
    2.0210   13.5180   -0.5570 C   0  0  0  0  0  0  0  0  0  0  0  0
    0.2180   14.3350   -2.0990 C   0  0  0  0  0  0  0  0  0  0  0  0
   -0.2760   14.4720   -3.5510 C   0  0  0  0  0  0  0  0  0  0  0  0
    0.8850   14.3370   -4.5410 C   0  0  2  0  0  0  0  0  0  0  0  0
    1.8800   15.5180   -4.2760 C   0  0  0  0  0  0  0  0  0  0  0  0
   -0.7122   16.2626   -4.7993 H   0  0  0  0  0  0  0  0  0  0  0  0
   -0.9192   17.4607   -6.1215 H   0  0  0  0  0  0  0  0  0  0  0  0
   -1.8864   15.9471   -6.1215 H   0  0  0  0  0  0  0  0  0  0  0  0
    1.0758   16.3359   -6.6645 H   0  0  0  0  0  0  0  0  0  0  0  0
    0.0880   14.4796   -8.4657 H   0  0  0  0  0  0  0  0  0  0  0  0
   -1.3020   15.6414   -8.2158 H   0  0  0  0  0  0  0  0  0  0  0  0
   -0.1634   16.5462  -10.0351 H   0  0  0  0  0  0  0  0  0  0  0  0
    0.4533   17.4799   -8.6088 H   0  0  0  0  0  0  0  0  0  0  0  0
    2.1062   16.0552   -8.3891 H   0  0  0  0  0  0  0  0  0  0  0  0
    0.3263   14.3001  -10.9865 H   0  0  0  0  0  0  0  0  0  0  0  0
    0.7770   15.5374  -12.2082 H   0  0  0  0  0  0  0  0  0  0  0  0
    1.5919   13.9366  -12.2082 H   0  0  0  0  0  0  0  0  0  0  0  0
    3.8256   14.3596   -9.5935 H   0  0  0  0  0  0  0  0  0  0  0  0
    3.4046   13.5661  -11.1491 H   0  0  0  0  0  0  0  0  0  0  0  0
    4.2720   15.1391  -11.1491 H   0  0  0  0  0  0  0  0  0  0  0  0
   -0.4382   13.8242   -6.2039 H   0  0  0  0  0  0  0  0  0  0  0  0
    1.4207   12.9523   -7.4776 H   0  0  0  0  0  0  0  0  0  0  0  0
    2.4025   14.4039   -7.1836 H   0  0  0  0  0  0  0  0  0  0  0  0
    2.7381   11.8803   -5.8848 H   0  0  0  0  0  0  0  0  0  0  0  0
    3.4564   13.3854   -5.3182 H   0  0  0  0  0  0  0  0  0  0  0  0
    0.1662   11.2993   -3.7405 H   0  0  0  0  0  0  0  0  0  0  0  0
   -0.3292   12.1067   -5.2667 H   0  0  0  0  0  0  0  0  0  0  0  0
    1.0481   10.9535   -5.2667 H   0  0  0  0  0  0  0  0  0  0  0  0
    2.9004   13.5707   -2.9680 H   0  0  0  0  0  0  0  0  0  0  0  0
    3.3314   11.1254   -3.6599 H   0  0  0  0  0  0  0  0  0  0  0  0
    3.6703   11.7038   -1.9454 H   0  0  0  0  0  0  0  0  0  0  0  0
    2.5285    9.3408   -2.1739 H   0  0  0  0  0  0  0  0  0  0  0  0
   -0.5777   11.9198   -2.1319 H   0  0  0  0  0  0  0  0  0  0  0  0
    0.4803   11.9482    0.7623 H   0  0  0  0  0  0  0  0  0  0  0  0
   -0.9166   12.9080    0.0994 H   0  0  0  0  0  0  0  0  0  0  0  0
   -1.6647   10.9444    1.4057 H   0  0  0  0  0  0  0  0  0  0  0  0
   -2.1555   10.8663   -0.3317 H   0  0  0  0  0  0  0  0  0  0  0  0
   -1.3885    8.6983    0.3496 H   0  0  0  0  0  0  0  0  0  0  0  0
    0.6340    8.4260    1.3080 H   0  0  0  0  0  0  0  0  0  0  0  0
   -2.0649    8.9171   -1.7195 H   0  0  0  0  0  0  0  0  0  0  0  0
   -1.1612    9.9733   -2.8573 H   0  0  0  0  0  0  0  0  0  0  0  0
   -0.8741    8.2001   -2.8573 H   0  0  0  0  0  0  0  0  0  0  0  0
    0.9731    7.6194   -0.0907 H   0  0  0  0  0  0  0  0  0  0  0  0
    0.2162    7.1345   -1.6459 H   0  0  0  0  0  0  0  0  0  0  0  0
    1.7664    8.0421   -1.6459 H   0  0  0  0  0  0  0  0  0  0  0  0
    1.4936   13.2684    0.3755 H   0  0  0  0  0  0  0  0  0  0  0  0
    2.9783   12.9774   -0.5928 H   0  0  0  0  0  0  0  0  0  0  0  0
    2.2100   14.6011   -0.5928 H   0  0  0  0  0  0  0  0  0  0  0  0
   -0.6683   14.2633   -1.4514 H   0  0  0  0  0  0  0  0  0  0  0  0
    0.8465   15.2207   -1.9242 H   0  0  0  0  0  0  0  0  0  0  0  0
   -1.0161   13.6842   -3.7550 H   0  0  0  0  0  0  0  0  0  0  0  0
   -0.7282   15.4671   -3.6749 H   0  0  0  0  0  0  0  0  0  0  0  0
    1.9998   15.6602   -3.1918 H   0  0  0  0  0  0  0  0  0  0  0  0
    2.8562   15.2828   -4.7251 H   0  0  0  0  0  0  0  0  0  0  0  0
    1.4825   16.4401   -4.7251 H   0  0  0  0  0  0  0  0  0  0  0  0
  1  2  1  0
  2  3  1  0
  3  4  1  0
  4  5  1  0
  5  6  1  0
  6  7  1  0
  7  8  1  0
  7  9  1  0
  2 10  1  0
 10 11  1  0
 11 12  1  0
 12 13  1  0
 13 14  1  6
 13 15  1  0
 15 16  1  0
 16 17  1  0
 17 18  2  0
 18 19  1  0
 19 20  1  0
 20 21  1  0
 21 22  1  0
 22 23  1  0
 22 24  1  0
 24 25  1  0
 24 26  1  0
 19 27  1  0
 27 28  1  1
 27 29  1  0
 29 30  1  0
 30 31  1  0
 31 32  1  6
  7  5  1  0
 31 10  1  0
 31 13  1  0
 27 15  1  0
 24 18  1  0
  1 33  1  0
  1 34  1  0
  1 35  1  0
  2 36  1  6
  3 37  1  0
  3 38  1  0
  4 39  1  0
  4 40  1  0
  5 41  1  1
  8 42  1  0
  8 43  1  0
  8 44  1  0
  9 45  1  0
  9 46  1  0
  9 47  1  0
 10 48  1  1
 11 49  1  0
 11 50  1  0
 12 51  1  0
 12 52  1  0
 14 53  1  0
 14 54  1  0
 14 55  1  0
 15 56  1  6
 16 57  1  0
 16 58  1  0
 17 59  1  0
 19 60  1  6
 20 61  1  0
 20 62  1  0
 21 63  1  0
 21 64  1  0
 22 65  1  1
 23 66  1  0
 25 67  1  0
 25 68  1  0
 25 69  1  0
 26 70  1  0
 26 71  1  0
 26 72  1  0
 28 73  1  0
 28 74  1  0
 28 75  1  0
 29 76  1  0
 29 77  1  0
 30 78  1  0
 30 79  1  0
 32 80  1  0
 32 81  1  0
 32 82  1  0
M  END
>  <meeko>  (9) 
{"is_sidechain": [false], "intermolecular_energy": 2.731, "internal_energy": -0.839}

$$$$
EPH_relaxed_0001_pdb2pqr_Repair_91_r2_0001_out
     RDKit          3D

 82 86  0  0  0  0  0  0  0  0999 V2000
    2.8410   11.3570   -5.3320 C   0  0  0  0  0  0  0  0  0  0  0  0
    1.8170   11.0520   -4.2350 C   0  0  2  0  0  0  0  0  0  0  0  0
    0.6980   10.1140   -4.7290 C   0  0  0  0  0  0  0  0  0  0  0  0
   -0.3690    9.8180   -3.6730 C   0  0  0  0  0  0  0  0  0  0  0  0
    0.1860    9.0200   -2.5320 C   0  0  2  0  0  0  0  0  0  0  0  0
   -0.6410    7.9290   -2.1060 O   0  0  0  0  0  0  0  0  0  0  0  0
   -0.4440    8.9850   -1.1510 C   0  0  0  0  0  0  0  0  0  0  0  0
   -1.6830    9.7620   -0.8390 C   0  0  0  0  0  0  0  0  0  0  0  0
    0.4100    8.5910    0.0140 C   0  0  0  0  0  0  0  0  0  0  0  0
    1.2150   12.3500   -3.7100 C   0  0  1  0  0  0  0  0  0  0  0  0
   -0.3240   12.2630   -3.5270 C   0  0  0  0  0  0  0  0  0  0  0  0
   -0.6760   13.1220   -2.2850 C   0  0  0  0  0  0  0  0  0  0  0  0
    0.6080   13.9340   -1.9960 C   0  0  1  0  0  0  0  0  0  0  0  0
    0.5580   15.1320   -2.9950 C   0  0  0  0  0  0  0  0  0  0  0  0
    0.8020   14.4190   -0.5230 C   0  0  2  0  0  0  0  0  0  0  0  0
   -0.2740   15.3910   -0.0080 C   0  0  0  0  0  0  0  0  0  0  0  0
    0.0160   16.8390   -0.2260 C   0  0  0  0  0  0  0  0  0  0  0  0
    1.2160   17.3550   -0.5510 C   0  0  0  0  0  0  0  0  0  0  0  0
    2.4610   16.4630   -0.6350 C   0  0  1  0  0  0  0  0  0  0  0  0
    3.6380   17.1450    0.1110 C   0  0  0  0  0  0  0  0  0  0  0  0
    3.9020   18.5630   -0.3860 C   0  0  0  0  0  0  0  0  0  0  0  0
    2.6580   19.4350   -0.2320 C   0  0  2  0  0  0  0  0  0  0  0  0
    2.3900   19.6120    1.1620 O   0  0  0  0  0  0  0  0  0  0  0  0
    1.4050   18.8440   -0.9350 C   0  0  0  0  0  0  0  0  0  0  0  0
    1.5800   18.9310   -2.4710 C   0  0  0  0  0  0  0  0  0  0  0  0
    0.1910   19.7460   -0.5840 C   0  0  0  0  0  0  0  0  0  0  0  0
    2.2590   14.9480   -0.2010 C   0  0  1  0  0  0  0  0  0  0  0  0
    2.4530   14.8060    1.3400 C   0  0  0  0  0  0  0  0  0  0  0  0
    3.3770   14.0660   -0.8720 C   0  0  0  0  0  0  0  0  0  0  0  0
    3.0770   13.5180   -2.2800 C   0  0  0  0  0  0  0  0  0  0  0  0
    1.6990   12.8510   -2.3260 C   0  0  2  0  0  0  0  0  0  0  0  0
    1.7260   11.6280   -1.3470 C   0  0  0  0  0  0  0  0  0  0  0  0
    3.7982   11.6421   -4.8711 H   0  0  0  0  0  0  0  0  0  0  0  0
    2.9866   10.4632   -5.9565 H   0  0  0  0  0  0  0  0  0  0  0  0
    2.4738   12.1848   -5.9565 H   0  0  0  0  0  0  0  0  0  0  0  0
    2.3474   10.5332   -3.4229 H   0  0  0  0  0  0  0  0  0  0  0  0
    0.2084   10.5837   -5.5949 H   0  0  0  0  0  0  0  0  0  0  0  0
    1.1724    9.1548   -4.9836 H   0  0  0  0  0  0  0  0  0  0  0  0
   -0.7602   10.7701   -3.2850 H   0  0  0  0  0  0  0  0  0  0  0  0
   -1.1667    9.2280   -4.1478 H   0  0  0  0  0  0  0  0  0  0  0  0
    1.2158    9.2102   -2.8688 H   0  0  0  0  0  0  0  0  0  0  0  0
   -1.8035    9.8376    0.2518 H   0  0  0  0  0  0  0  0  0  0  0  0
   -1.6013   10.7709   -1.2696 H   0  0  0  0  0  0  0  0  0  0  0  0
   -2.5556    9.2491   -1.2696 H   0  0  0  0  0  0  0  0  0  0  0  0
   -0.1136    8.8326    0.9507 H   0  0  0  0  0  0  0  0  0  0  0  0
    0.6092    7.5100   -0.0264 H   0  0  0  0  0  0  0  0  0  0  0  0
    1.3618    9.1410   -0.0264 H   0  0  0  0  0  0  0  0  0  0  0  0
    1.5507   13.0405   -4.4977 H   0  0  0  0  0  0  0  0  0  0  0  0
   -0.8343   12.6580   -4.4178 H   0  0  0  0  0  0  0  0  0  0  0  0
   -0.6473   11.2204   -3.3907 H   0  0  0  0  0  0  0  0  0  0  0  0
   -1.5193   13.7936   -2.5036 H   0  0  0  0  0  0  0  0  0  0  0  0
   -0.9832   12.5073   -1.4260 H   0  0  0  0  0  0  0  0  0  0  0  0
    0.5186   16.0767   -2.4329 H   0  0  0  0  0  0  0  0  0  0  0  0
    1.4575   15.1193   -3.6281 H   0  0  0  0  0  0  0  0  0  0  0  0
   -0.3373   15.0444   -3.6281 H   0  0  0  0  0  0  0  0  0  0  0  0
    0.6647   13.4902    0.0501 H   0  0  0  0  0  0  0  0  0  0  0  0
   -1.2189   15.1532   -0.5186 H   0  0  0  0  0  0  0  0  0  0  0  0
   -0.3139   15.2500    1.0822 H   0  0  0  0  0  0  0  0  0  0  0  0
   -0.8211   17.5434   -0.1115 H   0  0  0  0  0  0  0  0  0  0  0  0
    2.6994   16.3736   -1.7051 H   0  0  0  0  0  0  0  0  0  0  0  0
    3.3990   17.1861    1.1839 H   0  0  0  0  0  0  0  0  0  0  0  0
    4.5436   16.5503   -0.0794 H   0  0  0  0  0  0  0  0  0  0  0  0
    4.7241   19.0021    0.1982 H   0  0  0  0  0  0  0  0  0  0  0  0
    4.1695   18.5176   -1.4520 H   0  0  0  0  0  0  0  0  0  0  0  0
    2.8664   20.3977   -0.7217 H   0  0  0  0  0  0  0  0  0  0  0  0
    2.5210   18.7540    1.5990 H   0  0  0  0  0  0  0  0  0  0  0  0
    2.5427   19.4096   -2.7038 H   0  0  0  0  0  0  0  0  0  0  0  0
    1.5606   17.9184   -2.9002 H   0  0  0  0  0  0  0  0  0  0  0  0
    0.7610   19.5269   -2.9002 H   0  0  0  0  0  0  0  0  0  0  0  0
    0.0925   19.8192    0.5091 H   0  0  0  0  0  0  0  0  0  0  0  0
    0.3459   20.7499   -1.0062 H   0  0  0  0  0  0  0  0  0  0  0  0
   -0.7255   19.3080   -1.0062 H   0  0  0  0  0  0  0  0  0  0  0  0
    1.6717   15.3778    1.8621 H   0  0  0  0  0  0  0  0  0  0  0  0
    2.3816   13.7453    1.6224 H   0  0  0  0  0  0  0  0  0  0  0  0
    3.4425   15.1947    1.6224 H   0  0  0  0  0  0  0  0  0  0  0  0
    4.2880   14.6787   -0.9404 H   0  0  0  0  0  0  0  0  0  0  0  0
    3.4666   13.1772   -0.2301 H   0  0  0  0  0  0  0  0  0  0  0  0
    3.0994   14.3480   -3.0016 H   0  0  0  0  0  0  0  0  0  0  0  0
    3.8392   12.7667   -2.5339 H   0  0  0  0  0  0  0  0  0  0  0  0
    1.7180   11.9896   -0.3082 H   0  0  0  0  0  0  0  0  0  0  0  0
    0.8415   10.9980   -1.5227 H   0  0  0  0  0  0  0  0  0  0  0  0
    2.6374   11.0377   -1.5227 H   0  0  0  0  0  0  0  0  0  0  0  0
  1  2  1  0
  2  3  1  0
  3  4  1  0
  4  5  1  0
  5  6  1  0
  6  7  1  0
  7  8  1  0
  7  9  1  0
  2 10  1  0
 10 11  1  0
 11 12  1  0
 12 13  1  0
 13 14  1  6
 13 15  1  0
 15 16  1  0
 16 17  1  0
 17 18  2  0
 18 19  1  0
 19 20  1  0
 20 21  1  0
 21 22  1  0
 22 23  1  0
 22 24  1  0
 24 25  1  0
 24 26  1  0
 19 27  1  0
 27 28  1  1
 27 29  1  0
 29 30  1  0
 30 31  1  0
 31 32  1  1
  7  5  1  0
 31 10  1  0
 31 13  1  0
 27 15  1  0
 24 18  1  0
  1 33  1  0
  1 34  1  0
  1 35  1  0
  2 36  1  1
  3 37  1  0
  3 38  1  0
  4 39  1  0
  4 40  1  0
  5 41  1  1
  8 42  1  0
  8 43  1  0
  8 44  1  0
  9 45  1  0
  9 46  1  0
  9 47  1  0
 10 48  1  6
 11 49  1  0
 11 50  1  0
 12 51  1  0
 12 52  1  0
 14 53  1  0
 14 54  1  0
 14 55  1  0
 15 56  1  1
 16 57  1  0
 16 58  1  0
 17 59  1  0
 19 60  1  6
 20 61  1  0
 20 62  1  0
 21 63  1  0
 21 64  1  0
 22 65  1  6
 23 66  1  0
 25 67  1  0
 25 68  1  0
 25 69  1  0
 26 70  1  0
 26 71  1  0
 26 72  1  0
 28 73  1  0
 28 74  1  0
 28 75  1  0
 29 76  1  0
 29 77  1  0
 30 78  1  0
 30 79  1  0
 32 80  1  0
 32 81  1  0
 32 82  1  0
M  END
>  <meeko>  (10) 
{"is_sidechain": [false], "intermolecular_energy": 2.731, "internal_energy": -0.839}

$$$$
EPH_relaxed_0001_pdb2pqr_Repair_91_r2_0001_out
     RDKit          3D

 82 86  0  0  0  0  0  0  0  0999 V2000
    0.7610    9.3990   -0.0650 C   0  0  0  0  0  0  0  0  0  0  0  0
   -0.4330   10.3580   -0.0660 C   0  0  2  0  0  0  0  0  0  0  0  0
   -1.1250   10.4220   -1.4430 C   0  0  0  0  0  0  0  0  0  0  0  0
   -0.3460    9.7160   -2.5560 C   0  0  0  0  0  0  0  0  0  0  0  0
   -0.1640   10.6010   -3.7520 C   0  0  2  0  0  0  0  0  0  0  0  0
    0.4880    9.9760   -4.8650 O   0  0  0  0  0  0  0  0  0  0  0  0
    1.1920   11.0660   -4.2490 C   0  0  0  0  0  0  0  0  0  0  0  0
    2.4570   10.6610   -3.5590 C   0  0  0  0  0  0  0  0  0  0  0  0
    1.2600   12.2980   -5.0980 C   0  0  0  0  0  0  0  0  0  0  0  0
    0.0180   11.7510    0.3550 C   0  0  1  0  0  0  0  0  0  0  0  0
    1.1440   11.7170    1.4230 C   0  0  0  0  0  0  0  0  0  0  0  0
    2.0730   12.9230    1.1320 C   0  0  0  0  0  0  0  0  0  0  0  0
    1.2810   13.7940    0.1290 C   0  0  1  0  0  0  0  0  0  0  0  0
    0.2840   14.6120    1.0080 C   0  0  0  0  0  0  0  0  0  0  0  0
    2.1280   14.7220   -0.8000 C   0  0  2  0  0  0  0  0  0  0  0  0
    2.9500   15.8000   -0.0720 C   0  0  0  0  0  0  0  0  0  0  0  0
    2.2550   17.1050    0.1290 C   0  0  0  0  0  0  0  0  0  0  0  0
    1.1350   17.5000   -0.5040 C   0  0  0  0  0  0  0  0  0  0  0  0
    0.5050   16.6350   -1.6030 C   0  0  1  0  0  0  0  0  0  0  0  0
    0.1480   17.5260   -2.8220 C   0  0  0  0  0  0  0  0  0  0  0  0
   -0.7280   18.7160   -2.4410 C   0  0  0  0  0  0  0  0  0  0  0  0
   -0.0430   19.5830   -1.3890 C   0  0  2  0  0  0  0  0  0  0  0  0
    1.1130   20.1920   -1.9740 O   0  0  0  0  0  0  0  0  0  0  0  0
    0.3720   18.7910   -0.1170 C   0  0  0  0  0  0  0  0  0  0  0  0
   -0.8930   18.3880    0.6800 C   0  0  0  0  0  0  0  0  0  0  0  0
    1.1770   19.7500    0.8010 C   0  0  0  0  0  0  0  0  0  0  0  0
    1.3200   15.3350   -2.0150 C   0  0  1  0  0  0  0  0  0  0  0  0
    2.3690   15.6910   -3.1130 C   0  0  0  0  0  0  0  0  0  0  0  0
    0.3340   14.2940   -2.6640 C   0  0  0  0  0  0  0  0  0  0  0  0
   -0.3830   13.3240   -1.7040 C   0  0  0  0  0  0  0  0  0  0  0  0
    0.6130   12.6690   -0.7430 C   0  0  2  0  0  0  0  0  0  0  0  0
    1.6150   11.8200   -1.5970 C   0  0  0  0  0  0  0  0  0  0  0  0
    1.0463    9.1698    0.9723 H   0  0  0  0  0  0  0  0  0  0  0  0
    0.4847    8.4689   -0.5833 H   0  0  0  0  0  0  0  0  0  0  0  0
    1.6096    9.8694   -0.5833 H   0  0  0  0  0  0  0  0  0  0  0  0
   -1.1679    9.9717    0.6556 H   0  0  0  0  0  0  0  0  0  0  0  0
   -2.1141    9.9485   -1.3571 H   0  0  0  0  0  0  0  0  0  0  0  0
   -1.1913   11.4843   -1.7207 H   0  0  0  0  0  0  0  0  0  0  0  0
    0.6436    9.4283   -2.1714 H   0  0  0  0  0  0  0  0  0  0  0  0
   -0.9198    8.8310   -2.8682 H   0  0  0  0  0  0  0  0  0  0  0  0
   -1.0915   11.1452   -3.5206 H   0  0  0  0  0  0  0  0  0  0  0  0
    2.3116   10.7076   -2.4697 H   0  0  0  0  0  0  0  0  0  0  0  0
    2.7207    9.6335   -3.8501 H   0  0  0  0  0  0  0  0  0  0  0  0
    3.2684   11.3443   -3.8501 H   0  0  0  0  0  0  0  0  0  0  0  0
    1.3090   13.1866   -4.4515 H   0  0  0  0  0  0  0  0  0  0  0  0
    2.1572   12.2566   -5.7330 H   0  0  0  0  0  0  0  0  0  0  0  0
    0.3637   12.3556   -5.7330 H   0  0  0  0  0  0  0  0  0  0  0  0
   -0.9423   12.1572    0.7054 H   0  0  0  0  0  0  0  0  0  0  0  0
    0.7127   11.8057    2.4310 H   0  0  0  0  0  0  0  0  0  0  0  0
    1.7013   10.7696    1.3793 H   0  0  0  0  0  0  0  0  0  0  0  0
    2.2802   13.4848    2.0547 H   0  0  0  0  0  0  0  0  0  0  0  0
    3.0489   12.6103    0.7323 H   0  0  0  0  0  0  0  0  0  0  0  0
    0.5013   14.4337    2.0715 H   0  0  0  0  0  0  0  0  0  0  0  0
    0.3937   15.6838    0.7860 H   0  0  0  0  0  0  0  0  0  0  0  0
   -0.7457   14.2951    0.7860 H   0  0  0  0  0  0  0  0  0  0  0  0
    2.8625   14.0221   -1.2250 H   0  0  0  0  0  0  0  0  0  0  0  0
    3.2262   15.4063    0.9173 H   0  0  0  0  0  0  0  0  0  0  0  0
    3.8139   16.0122   -0.7191 H   0  0  0  0  0  0  0  0  0  0  0  0
    2.6953   17.8032    0.8560 H   0  0  0  0  0  0  0  0  0  0  0  0
   -0.4126   16.2118   -1.1684 H   0  0  0  0  0  0  0  0  0  0  0  0
    1.0801   17.9029   -3.2682 H   0  0  0  0  0  0  0  0  0  0  0  0
   -0.4200   16.9075   -3.5325 H   0  0  0  0  0  0  0  0  0  0  0  0
   -0.9205   19.3230   -3.3379 H   0  0  0  0  0  0  0  0  0  0  0  0
   -1.6722   18.3371   -2.0229 H   0  0  0  0  0  0  0  0  0  0  0  0
   -0.7702   20.3414   -1.0634 H   0  0  0  0  0  0  0  0  0  0  0  0
    1.0650   21.1460   -1.7940 H   0  0  0  0  0  0  0  0  0  0  0  0
   -0.6839   18.4546    1.7579 H   0  0  0  0  0  0  0  0  0  0  0  0
   -1.7195   19.0673    0.4241 H   0  0  0  0  0  0  0  0  0  0  0  0
   -1.1742   17.3558    0.4241 H   0  0  0  0  0  0  0  0  0  0  0  0
    0.9729   19.5068    1.8542 H   0  0  0  0  0  0  0  0  0  0  0  0
    2.2522   19.6339    0.5996 H   0  0  0  0  0  0  0  0  0  0  0  0
    0.8763   20.7888    0.5996 H   0  0  0  0  0  0  0  0  0  0  0  0
    3.3070   16.0093   -2.6345 H   0  0  0  0  0  0  0  0  0  0  0  0
    2.5586   14.8069   -3.7394 H   0  0  0  0  0  0  0  0  0  0  0  0
    1.9813   16.5079   -3.7394 H   0  0  0  0  0  0  0  0  0  0  0  0
   -0.4393   14.8600   -3.2041 H   0  0  0  0  0  0  0  0  0  0  0  0
    0.9661   13.6559   -3.2990 H   0  0  0  0  0  0  0  0  0  0  0  0
   -1.1316   13.8814   -1.1218 H   0  0  0  0  0  0  0  0  0  0  0  0
   -0.8674   12.5355   -2.2987 H   0  0  0  0  0  0  0  0  0  0  0  0
    2.2809   11.2558   -0.9274 H   0  0  0  0  0  0  0  0  0  0  0  0
    1.0532   11.1188   -2.2316 H   0  0  0  0  0  0  0  0  0  0  0  0
    2.2145   12.4893   -2.2316 H   0  0  0  0  0  0  0  0  0  0  0  0
  1  2  1  0
  2  3  1  0
  3  4  1  0
  4  5  1  0
  5  6  1  0
  6  7  1  0
  7  8  1  0
  7  9  1  0
  2 10  1  0
 10 11  1  0
 11 12  1  0
 12 13  1  0
 13 14  1  1
 13 15  1  0
 15 16  1  0
 16 17  1  0
 17 18  2  0
 18 19  1  0
 19 20  1  0
 20 21  1  0
 21 22  1  0
 22 23  1  0
 22 24  1  0
 24 25  1  0
 24 26  1  0
 19 27  1  0
 27 28  1  6
 27 29  1  0
 29 30  1  0
 30 31  1  0
 31 32  1  6
  7  5  1  0
 31 10  1  0
 31 13  1  0
 27 15  1  0
 24 18  1  0
  1 33  1  0
  1 34  1  0
  1 35  1  0
  2 36  1  1
  3 37  1  0
  3 38  1  0
  4 39  1  0
  4 40  1  0
  5 41  1  6
  8 42  1  0
  8 43  1  0
  8 44  1  0
  9 45  1  0
  9 46  1  0
  9 47  1  0
 10 48  1  1
 11 49  1  0
 11 50  1  0
 12 51  1  0
 12 52  1  0
 14 53  1  0
 14 54  1  0
 14 55  1  0
 15 56  1  6
 16 57  1  0
 16 58  1  0
 17 59  1  0
 19 60  1  1
 20 61  1  0
 20 62  1  0
 21 63  1  0
 21 64  1  0
 22 65  1  1
 23 66  1  0
 25 67  1  0
 25 68  1  0
 25 69  1  0
 26 70  1  0
 26 71  1  0
 26 72  1  0
 28 73  1  0
 28 74  1  0
 28 75  1  0
 29 76  1  0
 29 77  1  0
 30 78  1  0
 30 79  1  0
 32 80  1  0
 32 81  1  0
 32 82  1  0
M  END
>  <meeko>  (11) 
{"is_sidechain": [false], "intermolecular_energy": 2.731, "internal_energy": -0.839}

$$$$
EPH_relaxed_0001_pdb2pqr_Repair_91_r2_0001_out
     RDKit          3D

 82 86  0  0  0  0  0  0  0  0999 V2000
   -1.7050   14.8340    0.5120 C   0  0  0  0  0  0  0  0  0  0  0  0
   -0.3650   15.5330    0.2670 C   0  0  2  0  0  0  0  0  0  0  0  0
   -0.4360   16.5290   -0.9080 C   0  0  0  0  0  0  0  0  0  0  0  0
   -0.0260   17.9560   -0.5310 C   0  0  0  0  0  0  0  0  0  0  0  0
    1.3920   18.0170   -0.0510 C   0  0  2  0  0  0  0  0  0  0  0  0
    2.0720   19.2440   -0.3460 O   0  0  0  0  0  0  0  0  0  0  0  0
    2.5890   18.0650   -0.9820 C   0  0  0  0  0  0  0  0  0  0  0  0
    2.4220   18.0520   -2.4690 C   0  0  0  0  0  0  0  0  0  0  0  0
    3.9220   17.6320   -0.4570 C   0  0  0  0  0  0  0  0  0  0  0  0
    0.7220   14.4970    0.0060 C   0  0  1  0  0  0  0  0  0  0  0  0
    0.8470   13.4610    1.1550 C   0  0  0  0  0  0  0  0  0  0  0  0
    1.2180   12.1070    0.4970 C   0  0  0  0  0  0  0  0  0  0  0  0
    1.6180   12.4730   -0.9510 C   0  0  1  0  0  0  0  0  0  0  0  0
    3.0940   12.9700   -0.8470 C   0  0  0  0  0  0  0  0  0  0  0  0
    1.4640   11.3400   -2.0180 C   0  0  2  0  0  0  0  0  0  0  0  0
    2.3430   10.0990   -1.7830 C   0  0  0  0  0  0  0  0  0  0  0  0
    3.6880   10.1380   -2.4270 C   0  0  0  0  0  0  0  0  0  0  0  0
    4.0670   10.9940   -3.3950 C   0  0  0  0  0  0  0  0  0  0  0  0
    3.0680   11.9840   -4.0070 C   0  0  1  0  0  0  0  0  0  0  0  0
    3.1950   11.9580   -5.5530 C   0  0  0  0  0  0  0  0  0  0  0  0
    4.6240   12.2040   -6.0270 C   0  0  0  0  0  0  0  0  0  0  0  0
    5.5780   11.1650   -5.4440 C   0  0  2  0  0  0  0  0  0  0  0  0
    5.2580    9.8840   -5.9950 O   0  0  0  0  0  0  0  0  0  0  0  0
    5.5310   11.0930   -3.8920 C   0  0  0  0  0  0  0  0  0  0  0  0
    6.1620   12.3730   -3.2920 C   0  0  0  0  0  0  0  0  0  0  0  0
    6.4330    9.9120   -3.4410 C   0  0  0  0  0  0  0  0  0  0  0  0
    1.5630   11.8420   -3.5160 C   0  0  1  0  0  0  0  0  0  0  0  0
    0.8150   10.7890   -4.3890 C   0  0  0  0  0  0  0  0  0  0  0  0
    0.8190   13.2120   -3.7380 C   0  0  0  0  0  0  0  0  0  0  0  0
    0.9080   14.2440   -2.5970 C   0  0  0  0  0  0  0  0  0  0  0  0
    0.5660   13.6030   -1.2490 C   0  0  2  0  0  0  0  0  0  0  0  0
   -0.9210   13.1130   -1.3170 C   0  0  0  0  0  0  0  0  0  0  0  0
   -1.8788   14.7434    1.5944 H   0  0  0  0  0  0  0  0  0  0  0  0
   -2.5149   15.4245    0.0588 H   0  0  0  0  0  0  0  0  0  0  0  0
   -1.6841   13.8319    0.0588 H   0  0  0  0  0  0  0  0  0  0  0  0
   -0.1213   16.1075    1.1729 H   0  0  0  0  0  0  0  0  0  0  0  0
    0.2340   16.1742   -1.7050 H   0  0  0  0  0  0  0  0  0  0  0  0
   -1.4867   16.5710   -1.2309 H   0  0  0  0  0  0  0  0  0  0  0  0
   -0.1312   18.6023   -1.4148 H   0  0  0  0  0  0  0  0  0  0  0  0
   -0.6794   18.2958    0.2861 H   0  0  0  0  0  0  0  0  0  0  0  0
    1.1524   17.3767    0.8108 H   0  0  0  0  0  0  0  0  0  0  0  0
    1.3536   17.9688   -2.7173 H   0  0  0  0  0  0  0  0  0  0  0  0
    2.8251   18.9842   -2.8914 H   0  0  0  0  0  0  0  0  0  0  0  0
    2.9645   17.1934   -2.8914 H   0  0  0  0  0  0  0  0  0  0  0  0
    3.9026   17.6383    0.6428 H   0  0  0  0  0  0  0  0  0  0  0  0
    4.1441   16.6155   -0.8140 H   0  0  0  0  0  0  0  0  0  0  0  0
    4.6990   18.3239   -0.8140 H   0  0  0  0  0  0  0  0  0  0  0  0
    1.5882   15.1643   -0.1135 H   0  0  0  0  0  0  0  0  0  0  0  0
    1.6345   13.7687    1.8587 H   0  0  0  0  0  0  0  0  0  0  0  0
   -0.0937   13.3815    1.7196 H   0  0  0  0  0  0  0  0  0  0  0  0
    2.0603   11.6365    1.0253 H   0  0  0  0  0  0  0  0  0  0  0  0
    0.3881   11.3858    0.5306 H   0  0  0  0  0  0  0  0  0  0  0  0
    3.3752   13.0647    0.2122 H   0  0  0  0  0  0  0  0  0  0  0  0
    3.7601   12.2466   -1.3400 H   0  0  0  0  0  0  0  0  0  0  0  0
    3.1869   13.9490   -1.3400 H   0  0  0  0  0  0  0  0  0  0  0  0
    0.4275   11.0072   -1.8604 H   0  0  0  0  0  0  0  0  0  0  0  0
    2.4888    9.9865   -0.6985 H   0  0  0  0  0  0  0  0  0  0  0  0
    1.8088    9.2563   -2.2462 H   0  0  0  0  0  0  0  0  0  0  0  0
    4.4330    9.4058   -2.0821 H   0  0  0  0  0  0  0  0  0  0  0  0
    3.3502   12.9765   -3.6259 H   0  0  0  0  0  0  0  0  0  0  0  0
    2.8674   10.9731   -5.9172 H   0  0  0  0  0  0  0  0  0  0  0  0
    2.5666   12.7673   -5.9532 H   0  0  0  0  0  0  0  0  0  0  0  0
    4.6544   12.1448   -7.1250 H   0  0  0  0  0  0  0  0  0  0  0  0
    4.9402   13.2012   -5.6870 H   0  0  0  0  0  0  0  0  0  0  0  0
    6.6005   11.4685   -5.7132 H   0  0  0  0  0  0  0  0  0  0  0  0
    4.3490    9.6670   -5.7270 H   0  0  0  0  0  0  0  0  0  0  0  0
    6.1337   12.3156   -2.1939 H   0  0  0  0  0  0  0  0  0  0  0  0
    7.2059   12.4593   -3.6279 H   0  0  0  0  0  0  0  0  0  0  0  0
    5.5947   13.2536   -3.6279 H   0  0  0  0  0  0  0  0  0  0  0  0
    6.4632    9.8725   -2.3421 H   0  0  0  0  0  0  0  0  0  0  0  0
    6.0236    8.9683   -3.8307 H   0  0  0  0  0  0  0  0  0  0  0  0
    7.4511   10.0586   -3.8307 H   0  0  0  0  0  0  0  0  0  0  0  0
    0.3028   10.0679   -3.7351 H   0  0  0  0  0  0  0  0  0  0  0  0
    0.0750   11.2982   -5.0239 H   0  0  0  0  0  0  0  0  0  0  0  0
    1.5394   10.2579   -5.0239 H   0  0  0  0  0  0  0  0  0  0  0  0
    1.2408   13.6772   -4.6411 H   0  0  0  0  0  0  0  0  0  0  0  0
   -0.2475   12.9522   -3.8085 H   0  0  0  0  0  0  0  0  0  0  0  0
    1.9310   14.6462   -2.5548 H   0  0  0  0  0  0  0  0  0  0  0  0
    0.1851   15.0490   -2.7956 H   0  0  0  0  0  0  0  0  0  0  0  0
   -1.3117   12.9843   -0.2968 H   0  0  0  0  0  0  0  0  0  0  0  0
   -1.5286   13.8584   -1.8510 H   0  0  0  0  0  0  0  0  0  0  0  0
   -0.9665   12.1524   -1.8510 H   0  0  0  0  0  0  0  0  0  0  0  0
  1  2  1  0
  2  3  1  0
  3  4  1  0
  4  5  1  0
  5  6  1  0
  6  7  1  0
  7  8  1  0
  7  9  1  0
  2 10  1  0
 10 11  1  0
 11 12  1  0
 12 13  1  0
 13 14  1  1
 13 15  1  0
 15 16  1  0
 16 17  1  0
 17 18  2  0
 18 19  1  0
 19 20  1  0
 20 21  1  0
 21 22  1  0
 22 23  1  0
 22 24  1  0
 24 25  1  0
 24 26  1  0
 19 27  1  0
 27 28  1  6
 27 29  1  0
 29 30  1  0
 30 31  1  0
 31 32  1  6
  7  5  1  0
 31 10  1  0
 31 13  1  0
 27 15  1  0
 24 18  1  0
  1 33  1  0
  1 34  1  0
  1 35  1  0
  2 36  1  1
  3 37  1  0
  3 38  1  0
  4 39  1  0
  4 40  1  0
  5 41  1  1
  8 42  1  0
  8 43  1  0
  8 44  1  0
  9 45  1  0
  9 46  1  0
  9 47  1  0
 10 48  1  6
 11 49  1  0
 11 50  1  0
 12 51  1  0
 12 52  1  0
 14 53  1  0
 14 54  1  0
 14 55  1  0
 15 56  1  6
 16 57  1  0
 16 58  1  0
 17 59  1  0
 19 60  1  1
 20 61  1  0
 20 62  1  0
 21 63  1  0
 21 64  1  0
 22 65  1  1
 23 66  1  0
 25 67  1  0
 25 68  1  0
 25 69  1  0
 26 70  1  0
 26 71  1  0
 26 72  1  0
 28 73  1  0
 28 74  1  0
 28 75  1  0
 29 76  1  0
 29 77  1  0
 30 78  1  0
 30 79  1  0
 32 80  1  0
 32 81  1  0
 32 82  1  0
M  END
>  <meeko>  (12) 
{"is_sidechain": [false], "intermolecular_energy": 2.731, "internal_energy": -0.839}

$$$$
EPH_relaxed_0001_pdb2pqr_Repair_91_r2_0001_out
     RDKit          3D

 82 86  0  0  0  0  0  0  0  0999 V2000
    3.0150   18.2670   -3.7420 C   0  0  0  0  0  0  0  0  0  0  0  0
    1.9980   18.0120   -2.6260 C   0  0  2  0  0  0  0  0  0  0  0  0
    2.0350   19.1100   -1.5440 C   0  0  0  0  0  0  0  0  0  0  0  0
    1.5800   18.6290   -0.1640 C   0  0  0  0  0  0  0  0  0  0  0  0
    2.1380   19.4840    0.9330 C   0  0  2  0  0  0  0  0  0  0  0  0
    3.3340   20.1940    0.5890 O   0  0  0  0  0  0  0  0  0  0  0  0
    3.4610   19.2040    1.6220 C   0  0  0  0  0  0  0  0  0  0  0  0
    4.3060   18.0300    1.2390 C   0  0  0  0  0  0  0  0  0  0  0  0
    3.6950   19.7790    2.9840 C   0  0  0  0  0  0  0  0  0  0  0  0
    2.2500   16.6490   -1.9940 C   0  0  1  0  0  0  0  0  0  0  0  0
    2.8260   16.7530   -0.5570 C   0  0  0  0  0  0  0  0  0  0  0  0
    2.2370   15.5670    0.2490 C   0  0  0  0  0  0  0  0  0  0  0  0
    1.6140   14.6400   -0.8210 C   0  0  1  0  0  0  0  0  0  0  0  0
    2.8150   13.8210   -1.3890 C   0  0  0  0  0  0  0  0  0  0  0  0
    0.4570   13.7070   -0.3380 C   0  0  2  0  0  0  0  0  0  0  0  0
    0.8520   12.6810    0.7390 C   0  0  0  0  0  0  0  0  0  0  0  0
    1.3210   11.3620    0.2200 C   0  0  0  0  0  0  0  0  0  0  0  0
    1.1540   10.9110   -1.0370 C   0  0  0  0  0  0  0  0  0  0  0  0
    0.3480   11.7190   -2.0630 C   0  0  1  0  0  0  0  0  0  0  0  0
   -0.6360   10.7770   -2.8060 C   0  0  0  0  0  0  0  0  0  0  0  0
    0.0650    9.5740   -3.4310 C   0  0  0  0  0  0  0  0  0  0  0  0
    0.8070    8.7640   -2.3710 C   0  0  2  0  0  0  0  0  0  0  0  0
   -0.1510    8.1720   -1.4880 O   0  0  0  0  0  0  0  0  0  0  0  0
    1.8200    9.6110   -1.5510 C   0  0  0  0  0  0  0  0  0  0  0  0
    3.0200   10.0010   -2.4490 C   0  0  0  0  0  0  0  0  0  0  0  0
    2.3960    8.7090   -0.4260 C   0  0  0  0  0  0  0  0  0  0  0  0
   -0.3620   13.0290   -1.5100 C   0  0  1  0  0  0  0  0  0  0  0  0
   -1.7620   12.6690   -0.9250 C   0  0  0  0  0  0  0  0  0  0  0  0
   -0.6210   14.0170   -2.7080 C   0  0  0  0  0  0  0  0  0  0  0  0
    0.5150   14.9960   -3.0600 C   0  0  0  0  0  0  0  0  0  0  0  0
    1.0280   15.7140   -1.8090 C   0  0  2  0  0  0  0  0  0  0  0  0
   -0.1520   16.5640   -1.2270 C   0  0  0  0  0  0  0  0  0  0  0  0
    3.9917   18.5119   -3.2991 H   0  0  0  0  0  0  0  0  0  0  0  0
    3.1104   17.3650   -4.3643 H   0  0  0  0  0  0  0  0  0  0  0  0
    2.6735   19.1073   -4.3643 H   0  0  0  0  0  0  0  0  0  0  0  0
    0.9966   18.0309   -3.0809 H   0  0  0  0  0  0  0  0  0  0  0  0
    3.0675   19.4801   -1.4599 H   0  0  0  0  0  0  0  0  0  0  0  0
    1.3321   19.8955   -1.8587 H   0  0  0  0  0  0  0  0  0  0  0  0
    0.4815   18.6633   -0.1189 H   0  0  0  0  0  0  0  0  0  0  0  0
    1.9487   17.6027   -0.0199 H   0  0  0  0  0  0  0  0  0  0  0  0
    1.1291   19.6802    1.3248 H   0  0  0  0  0  0  0  0  0  0  0  0
    4.6681   17.5269    2.1477 H   0  0  0  0  0  0  0  0  0  0  0  0
    3.7066   17.3254    0.6439 H   0  0  0  0  0  0  0  0  0  0  0  0
    5.1645   18.3747    0.6439 H   0  0  0  0  0  0  0  0  0  0  0  0
    3.3966   19.0458    3.7478 H   0  0  0  0  0  0  0  0  0  0  0  0
    4.7621   20.0183    3.1026 H   0  0  0  0  0  0  0  0  0  0  0  0
    3.0983   20.6954    3.1026 H   0  0  0  0  0  0  0  0  0  0  0  0
    2.9389   16.2253   -2.7396 H   0  0  0  0  0  0  0  0  0  0  0  0
    3.9236   16.6850   -0.5832 H   0  0  0  0  0  0  0  0  0  0  0  0
    2.5606   17.7150   -0.0942 H   0  0  0  0  0  0  0  0  0  0  0  0
    3.0292   15.0427    0.8035 H   0  0  0  0  0  0  0  0  0  0  0  0
    1.5001   15.8955    0.9967 H   0  0  0  0  0  0  0  0  0  0  0  0
    3.4090   13.4159   -0.5565 H   0  0  0  0  0  0  0  0  0  0  0  0
    2.4352   12.9929   -2.0054 H   0  0  0  0  0  0  0  0  0  0  0  0
    3.4473   14.4769   -2.0054 H   0  0  0  0  0  0  0  0  0  0  0  0
   -0.2236   14.4141    0.1587 H   0  0  0  0  0  0  0  0  0  0  0  0
    1.6619   13.1164    1.3428 H   0  0  0  0  0  0  0  0  0  0  0  0
   -0.0630   12.4746    1.3137 H   0  0  0  0  0  0  0  0  0  0  0  0
    1.8480   10.7025    0.9252 H   0  0  0  0  0  0  0  0  0  0  0  0
    1.0820   12.1276   -2.7732 H   0  0  0  0  0  0  0  0  0  0  0  0
   -1.3866   10.4142   -2.0884 H   0  0  0  0  0  0  0  0  0  0  0  0
   -1.0997   11.3534   -3.6201 H   0  0  0  0  0  0  0  0  0  0  0  0
   -0.6852    8.9316   -3.9152 H   0  0  0  0  0  0  0  0  0  0  0  0
    0.7945    9.9373   -4.1698 H   0  0  0  0  0  0  0  0  0  0  0  0
    1.3929    7.9942   -2.8946 H   0  0  0  0  0  0  0  0  0  0  0  0
   -0.9600    8.7100   -1.5290 H   0  0  0  0  0  0  0  0  0  0  0  0
    3.8760   10.2792   -1.8167 H   0  0  0  0  0  0  0  0  0  0  0  0
    3.2958    9.1462   -3.0841 H   0  0  0  0  0  0  0  0  0  0  0  0
    2.7406   10.8546   -3.0841 H   0  0  0  0  0  0  0  0  0  0  0  0
    2.1276    9.1293    0.5545 H   0  0  0  0  0  0  0  0  0  0  0  0
    1.9773    7.6960   -0.5177 H   0  0  0  0  0  0  0  0  0  0  0  0
    3.4912    8.6627   -0.5177 H   0  0  0  0  0  0  0  0  0  0  0  0
   -1.7144   12.6812    0.1739 H   0  0  0  0  0  0  0  0  0  0  0  0
   -2.5033   13.4058   -1.2681 H   0  0  0  0  0  0  0  0  0  0  0  0
   -2.0559   11.6661   -1.2681 H   0  0  0  0  0  0  0  0  0  0  0  0
   -0.8254   13.4095   -3.6019 H   0  0  0  0  0  0  0  0  0  0  0  0
   -1.4571   14.6525   -2.3809 H   0  0  0  0  0  0  0  0  0  0  0  0
    1.3434   14.4359   -3.5184 H   0  0  0  0  0  0  0  0  0  0  0  0
    0.1244   15.7487   -3.7606 H   0  0  0  0  0  0  0  0  0  0  0  0
   -0.1156   16.5377   -0.1279 H   0  0  0  0  0  0  0  0  0  0  0  0
   -0.0596   17.6043   -1.5722 H   0  0  0  0  0  0  0  0  0  0  0  0
   -1.1095   16.1468   -1.5722 H   0  0  0  0  0  0  0  0  0  0  0  0
  1  2  1  0
  2  3  1  0
  3  4  1  0
  4  5  1  0
  5  6  1  0
  6  7  1  0
  7  8  1  0
  7  9  1  0
  2 10  1  0
 10 11  1  0
 11 12  1  0
 12 13  1  0
 13 14  1  6
 13 15  1  0
 15 16  1  0
 16 17  1  0
 17 18  2  0
 18 19  1  0
 19 20  1  0
 20 21  1  0
 21 22  1  0
 22 23  1  0
 22 24  1  0
 24 25  1  0
 24 26  1  0
 19 27  1  0
 27 28  1  1
 27 29  1  0
 29 30  1  0
 30 31  1  0
 31 32  1  1
  7  5  1  0
 31 10  1  0
 31 13  1  0
 27 15  1  0
 24 18  1  0
  1 33  1  0
  1 34  1  0
  1 35  1  0
  2 36  1  6
  3 37  1  0
  3 38  1  0
  4 39  1  0
  4 40  1  0
  5 41  1  1
  8 42  1  0
  8 43  1  0
  8 44  1  0
  9 45  1  0
  9 46  1  0
  9 47  1  0
 10 48  1  6
 11 49  1  0
 11 50  1  0
 12 51  1  0
 12 52  1  0
 14 53  1  0
 14 54  1  0
 14 55  1  0
 15 56  1  1
 16 57  1  0
 16 58  1  0
 17 59  1  0
 19 60  1  6
 20 61  1  0
 20 62  1  0
 21 63  1  0
 21 64  1  0
 22 65  1  6
 23 66  1  0
 25 67  1  0
 25 68  1  0
 25 69  1  0
 26 70  1  0
 26 71  1  0
 26 72  1  0
 28 73  1  0
 28 74  1  0
 28 75  1  0
 29 76  1  0
 29 77  1  0
 30 78  1  0
 30 79  1  0
 32 80  1  0
 32 81  1  0
 32 82  1  0
M  END
>  <meeko>  (13) 
{"is_sidechain": [false], "intermolecular_energy": 2.731, "internal_energy": -0.839}

$$$$
EPH_relaxed_0001_pdb2pqr_Repair_91_r2_0001_out
     RDKit          3D

 82 86  0  0  0  0  0  0  0  0999 V2000
    0.5910   17.7380   -2.2750 C   0  0  0  0  0  0  0  0  0  0  0  0
    0.6270   17.0440   -0.9110 C   0  0  2  0  0  0  0  0  0  0  0  0
    0.9470   18.0270    0.2330 C   0  0  0  0  0  0  0  0  0  0  0  0
    0.2790   19.3950    0.0730 C   0  0  0  0  0  0  0  0  0  0  0  0
   -1.1210   19.3950    0.6070 C   0  0  2  0  0  0  0  0  0  0  0  0
   -1.9720   18.3830    0.0540 O   0  0  0  0  0  0  0  0  0  0  0  0
   -2.3370   19.7430   -0.2320 C   0  0  0  0  0  0  0  0  0  0  0  0
   -2.2080   20.1170   -1.6750 C   0  0  0  0  0  0  0  0  0  0  0  0
   -3.5820   20.1930    0.4660 C   0  0  0  0  0  0  0  0  0  0  0  0
    1.6500   15.9140   -0.9290 C   0  0  1  0  0  0  0  0  0  0  0  0
    1.9610   15.3670    0.4900 C   0  0  0  0  0  0  0  0  0  0  0  0
    2.2110   13.8440    0.3370 C   0  0  0  0  0  0  0  0  0  0  0  0
    2.3640   13.6250   -1.1860 C   0  0  1  0  0  0  0  0  0  0  0  0
    3.8390   14.0270   -1.5020 C   0  0  0  0  0  0  0  0  0  0  0  0
    2.0300   12.1930   -1.7150 C   0  0  2  0  0  0  0  0  0  0  0  0
    2.9300   11.0700   -1.1710 C   0  0  0  0  0  0  0  0  0  0  0  0
    4.1490   10.7800   -1.9820 C   0  0  0  0  0  0  0  0  0  0  0  0
    4.3650   11.1920   -3.2450 C   0  0  0  0  0  0  0  0  0  0  0  0
    3.2820   11.9520   -4.0210 C   0  0  1  0  0  0  0  0  0  0  0  0
    3.1490   11.3520   -5.4450 C   0  0  0  0  0  0  0  0  0  0  0  0
    4.4800   11.3110   -6.1900 C   0  0  0  0  0  0  0  0  0  0  0  0
    5.5130   10.4980   -5.4140 C   0  0  2  0  0  0  0  0  0  0  0  0
    5.1000    9.1280   -5.3910 O   0  0  0  0  0  0  0  0  0  0  0  0
    5.7260   11.0050   -3.9600 C   0  0  0  0  0  0  0  0  0  0  0  0
    6.4540   12.3710   -3.9860 C   0  0  0  0  0  0  0  0  0  0  0  0
    6.6850   10.0150   -3.2450 C   0  0  0  0  0  0  0  0  0  0  0  0
    1.8800   12.1010   -3.2880 C   0  0  1  0  0  0  0  0  0  0  0  0
    0.9920   10.8530   -3.5790 C   0  0  0  0  0  0  0  0  0  0  0  0
    1.1150   13.3400   -3.8890 C   0  0  0  0  0  0  0  0  0  0  0  0
    1.3980   14.7100   -3.2450 C   0  0  0  0  0  0  0  0  0  0  0  0
    1.2820   14.6340   -1.7190 C   0  0  2  0  0  0  0  0  0  0  0  0
   -0.1970   14.2530   -1.3700 C   0  0  0  0  0  0  0  0  0  0  0  0
    0.5345   18.8271   -2.1309 H   0  0  0  0  0  0  0  0  0  0  0  0
    1.5033   17.4893   -2.8371 H   0  0  0  0  0  0  0  0  0  0  0  0
   -0.2906   17.3963   -2.8371 H   0  0  0  0  0  0  0  0  0  0  0  0
   -0.3761   16.6339   -0.7223 H   0  0  0  0  0  0  0  0  0  0  0  0
    0.6052   17.5820    1.1791 H   0  0  0  0  0  0  0  0  0  0  0  0
    2.0338   18.1959    0.2174 H   0  0  0  0  0  0  0  0  0  0  0  0
    0.8688   20.1456    0.6195 H   0  0  0  0  0  0  0  0  0  0  0  0
    0.2362   19.6318   -1.0004 H   0  0  0  0  0  0  0  0  0  0  0  0
   -0.7727   19.7555    1.5862 H   0  0  0  0  0  0  0  0  0  0  0  0
   -1.8503   21.1542   -1.7544 H   0  0  0  0  0  0  0  0  0  0  0  0
   -1.4904   19.4430   -2.1657 H   0  0  0  0  0  0  0  0  0  0  0  0
   -3.1885   20.0287   -2.1657 H   0  0  0  0  0  0  0  0  0  0  0  0
   -3.4321   20.1388    1.5544 H   0  0  0  0  0  0  0  0  0  0  0  0
   -3.8092   21.2301    0.1783 H   0  0  0  0  0  0  0  0  0  0  0  0
   -4.4198   19.5408    0.1783 H   0  0  0  0  0  0  0  0  0  0  0  0
    2.4872   16.4313   -1.4204 H   0  0  0  0  0  0  0  0  0  0  0  0
    2.8564   15.8589    0.8978 H   0  0  0  0  0  0  0  0  0  0  0  0
    1.1276   15.5632    1.1806 H   0  0  0  0  0  0  0  0  0  0  0  0
    3.1281   13.5459    0.8663 H   0  0  0  0  0  0  0  0  0  0  0  0
    1.3957   13.2423    0.7652 H   0  0  0  0  0  0  0  0  0  0  0  0
    4.3880   14.1766   -0.5606 H   0  0  0  0  0  0  0  0  0  0  0  0
    4.3203   13.2273   -2.0840 H   0  0  0  0  0  0  0  0  0  0  0  0
    3.8480   14.9604   -2.0840 H   0  0  0  0  0  0  0  0  0  0  0  0
    1.0328   12.0112   -1.2876 H   0  0  0  0  0  0  0  0  0  0  0  0
    3.2547   11.3548   -0.1593 H   0  0  0  0  0  0  0  0  0  0  0  0
    2.3222   10.1536   -1.1972 H   0  0  0  0  0  0  0  0  0  0  0  0
    4.9380   10.1784   -1.5071 H   0  0  0  0  0  0  0  0  0  0  0  0
    3.6282   12.9941   -4.0858 H   0  0  0  0  0  0  0  0  0  0  0  0
    2.7606   10.3263   -5.3605 H   0  0  0  0  0  0  0  0  0  0  0  0
    2.4664   11.9979   -6.0168 H   0  0  0  0  0  0  0  0  0  0  0  0
    4.3264   10.8502   -7.1770 H   0  0  0  0  0  0  0  0  0  0  0  0
    4.8530   12.3399   -6.3006 H   0  0  0  0  0  0  0  0  0  0  0  0
    6.4777   10.6128   -5.9300 H   0  0  0  0  0  0  0  0  0  0  0  0
    5.7230    8.6430   -4.8240 H   0  0  0  0  0  0  0  0  0  0  0  0
    6.6346   12.7099   -2.9552 H   0  0  0  0  0  0  0  0  0  0  0  0
    7.4149   12.2644   -4.5106 H   0  0  0  0  0  0  0  0  0  0  0  0
    5.8297   13.1093   -4.5106 H   0  0  0  0  0  0  0  0  0  0  0  0
    6.5792   10.1242   -2.1556 H   0  0  0  0  0  0  0  0  0  0  0  0
    6.4325    8.9848   -3.5365 H   0  0  0  0  0  0  0  0  0  0  0  0
    7.7227   10.2346   -3.5365 H   0  0  0  0  0  0  0  0  0  0  0  0
    0.6709   10.4018   -2.6286 H   0  0  0  0  0  0  0  0  0  0  0  0
    0.1075   11.1591   -4.1569 H   0  0  0  0  0  0  0  0  0  0  0  0
    1.5711   10.1176   -4.1569 H   0  0  0  0  0  0  0  0  0  0  0  0
    1.3818   13.4113   -4.9538 H   0  0  0  0  0  0  0  0  0  0  0  0
    0.0506   13.1440   -3.6926 H   0  0  0  0  0  0  0  0  0  0  0  0
    2.4158   15.0300   -3.5129 H   0  0  0  0  0  0  0  0  0  0  0  0
    0.6564   15.4321   -3.6173 H   0  0  0  0  0  0  0  0  0  0  0  0
   -0.3194   14.2215   -0.2773 H   0  0  0  0  0  0  0  0  0  0  0  0
   -0.8791   15.0048   -1.7938 H   0  0  0  0  0  0  0  0  0  0  0  0
   -0.4310   13.2653   -1.7938 H   0  0  0  0  0  0  0  0  0  0  0  0
  1  2  1  0
  2  3  1  0
  3  4  1  0
  4  5  1  0
  5  6  1  0
  6  7  1  0
  7  8  1  0
  7  9  1  0
  2 10  1  0
 10 11  1  0
 11 12  1  0
 12 13  1  0
 13 14  1  6
 13 15  1  0
 15 16  1  0
 16 17  1  0
 17 18  2  0
 18 19  1  0
 19 20  1  0
 20 21  1  0
 21 22  1  0
 22 23  1  0
 22 24  1  0
 24 25  1  0
 24 26  1  0
 19 27  1  0
 27 28  1  1
 27 29  1  0
 29 30  1  0
 30 31  1  0
 31 32  1  6
  7  5  1  0
 31 10  1  0
 31 13  1  0
 27 15  1  0
 24 18  1  0
  1 33  1  0
  1 34  1  0
  1 35  1  0
  2 36  1  1
  3 37  1  0
  3 38  1  0
  4 39  1  0
  4 40  1  0
  5 41  1  1
  8 42  1  0
  8 43  1  0
  8 44  1  0
  9 45  1  0
  9 46  1  0
  9 47  1  0
 10 48  1  6
 11 49  1  0
 11 50  1  0
 12 51  1  0
 12 52  1  0
 14 53  1  0
 14 54  1  0
 14 55  1  0
 15 56  1  1
 16 57  1  0
 16 58  1  0
 17 59  1  0
 19 60  1  6
 20 61  1  0
 20 62  1  0
 21 63  1  0
 21 64  1  0
 22 65  1  6
 23 66  1  0
 25 67  1  0
 25 68  1  0
 25 69  1  0
 26 70  1  0
 26 71  1  0
 26 72  1  0
 28 73  1  0
 28 74  1  0
 28 75  1  0
 29 76  1  0
 29 77  1  0
 30 78  1  0
 30 79  1  0
 32 80  1  0
 32 81  1  0
 32 82  1  0
M  END
>  <meeko>  (14) 
{"is_sidechain": [false], "intermolecular_energy": 2.731, "internal_energy": -0.839}

$$$$
EPH_relaxed_0001_pdb2pqr_Repair_91_r2_0001_out
     RDKit          3D

 82 86  0  0  0  0  0  0  0  0999 V2000
    3.0760   18.5950   -0.8620 C   0  0  0  0  0  0  0  0  0  0  0  0
    2.9530   17.5620   -1.9860 C   0  0  2  0  0  0  0  0  0  0  0  0
    1.6930   17.7860   -2.8450 C   0  0  0  0  0  0  0  0  0  0  0  0
    1.0120   19.1350   -2.6000 C   0  0  0  0  0  0  0  0  0  0  0  0
   -0.3620   18.9670   -2.0270 C   0  0  2  0  0  0  0  0  0  0  0  0
   -1.0950   20.1880   -1.8610 O   0  0  0  0  0  0  0  0  0  0  0  0
   -0.7660   19.4780   -0.6560 C   0  0  0  0  0  0  0  0  0  0  0  0
    0.2070   20.1950    0.2270 C   0  0  0  0  0  0  0  0  0  0  0  0
   -1.9480   18.8560    0.0190 C   0  0  0  0  0  0  0  0  0  0  0  0
    2.9410   16.1550   -1.3990 C   0  0  1  0  0  0  0  0  0  0  0  0
    3.5060   16.1050    0.0450 C   0  0  0  0  0  0  0  0  0  0  0  0
    2.6970   15.0230    0.8050 C   0  0  0  0  0  0  0  0  0  0  0  0
    1.9300   14.2610   -0.3010 C   0  0  1  0  0  0  0  0  0  0  0  0
    2.9670   13.2540   -0.8880 C   0  0  0  0  0  0  0  0  0  0  0  0
    0.6130   13.5430    0.1400 C   0  0  2  0  0  0  0  0  0  0  0  0
    0.7970   12.4270    1.1840 C   0  0  0  0  0  0  0  0  0  0  0  0
    1.0220   11.0620    0.6240 C   0  0  0  0  0  0  0  0  0  0  0  0
    0.7940   10.6910   -0.6490 C   0  0  0  0  0  0  0  0  0  0  0  0
    0.1650   11.6660   -1.6530 C   0  0  1  0  0  0  0  0  0  0  0  0
   -0.9640   10.9460   -2.4360 C   0  0  0  0  0  0  0  0  0  0  0  0
   -0.4880    9.6560   -3.0960 C   0  0  0  0  0  0  0  0  0  0  0  0
    0.0770    8.6890   -2.0590 C   0  0  2  0  0  0  0  0  0  0  0  0
   -0.9860    8.2560   -1.2050 O   0  0  0  0  0  0  0  0  0  0  0  0
    1.2170    9.3070   -1.2020 C   0  0  0  0  0  0  0  0  0  0  0  0
    2.4810    9.4990   -2.0760 C   0  0  0  0  0  0  0  0  0  0  0  0
    1.6000    8.2790   -0.1040 C   0  0  0  0  0  0  0  0  0  0  0  0
   -0.2990   13.0660   -1.0610 C   0  0  1  0  0  0  0  0  0  0  0  0
   -1.7500   12.9520   -0.5010 C   0  0  0  0  0  0  0  0  0  0  0  0
   -0.3550   14.1240   -2.2270 C   0  0  0  0  0  0  0  0  0  0  0  0
    0.9470   14.8860   -2.5360 C   0  0  0  0  0  0  0  0  0  0  0  0
    1.5660   15.4560   -1.2560 C   0  0  2  0  0  0  0  0  0  0  0  0
    0.5540   16.4910   -0.6550 C   0  0  0  0  0  0  0  0  0  0  0  0
    3.0155   18.0865    0.1115 H   0  0  0  0  0  0  0  0  0  0  0  0
    4.0423   19.1140   -0.9451 H   0  0  0  0  0  0  0  0  0  0  0  0
    2.2586   19.3264   -0.9451 H   0  0  0  0  0  0  0  0  0  0  0  0
    3.8261   17.6828   -2.6441 H   0  0  0  0  0  0  0  0  0  0  0  0
    1.9812   17.7301   -3.9051 H   0  0  0  0  0  0  0  0  0  0  0  0
    0.9702   17.0058   -2.5644 H   0  0  0  0  0  0  0  0  0  0  0  0
    1.6225   19.7198   -1.8962 H   0  0  0  0  0  0  0  0  0  0  0  0
    0.9193   19.6524   -3.5663 H   0  0  0  0  0  0  0  0  0  0  0  0
   -0.4677   17.9836   -2.5084 H   0  0  0  0  0  0  0  0  0  0  0  0
   -0.0472   20.0077    1.2807 H   0  0  0  0  0  0  0  0  0  0  0  0
    1.2244   19.8291    0.0246 H   0  0  0  0  0  0  0  0  0  0  0  0
    0.1588   21.2751    0.0246 H   0  0  0  0  0  0  0  0  0  0  0  0
   -1.8236   18.9214    1.1100 H   0  0  0  0  0  0  0  0  0  0  0  0
   -2.8628   19.3895   -0.2784 H   0  0  0  0  0  0  0  0  0  0  0  0
   -2.0263   17.7999   -0.2784 H   0  0  0  0  0  0  0  0  0  0  0  0
    3.5504   15.6356   -2.1532 H   0  0  0  0  0  0  0  0  0  0  0  0
    4.5725   15.8363    0.0253 H   0  0  0  0  0  0  0  0  0  0  0  0
    3.4162   17.0841    0.5382 H   0  0  0  0  0  0  0  0  0  0  0  0
    3.3710   14.3443    1.3483 H   0  0  0  0  0  0  0  0  0  0  0  0
    2.0221   15.4580    1.5568 H   0  0  0  0  0  0  0  0  0  0  0  0
    3.4907   12.7455   -0.0651 H   0  0  0  0  0  0  0  0  0  0  0  0
    2.4451   12.5089   -1.5064 H   0  0  0  0  0  0  0  0  0  0  0  0
    3.6964   13.7976   -1.5064 H   0  0  0  0  0  0  0  0  0  0  0  0
    0.0669   14.3472    0.6547 H   0  0  0  0  0  0  0  0  0  0  0  0
    1.6647   12.6855    1.8088 H   0  0  0  0  0  0  0  0  0  0  0  0
   -0.1485   12.3746    1.7438 H   0  0  0  0  0  0  0  0  0  0  0  0
    1.4071   10.2937    1.3106 H   0  0  0  0  0  0  0  0  0  0  0  0
    0.9713   11.9551   -2.3432 H   0  0  0  0  0  0  0  0  0  0  0  0
   -1.7789   10.7048   -1.7376 H   0  0  0  0  0  0  0  0  0  0  0  0
   -1.3015   11.6240   -3.2337 H   0  0  0  0  0  0  0  0  0  0  0  0
   -1.3368    9.1792   -3.6081 H   0  0  0  0  0  0  0  0  0  0  0  0
    0.3064    9.9023   -3.8159 H   0  0  0  0  0  0  0  0  0  0  0  0
    0.5186    7.8418   -2.6043 H   0  0  0  0  0  0  0  0  0  0  0  0
   -1.5330    7.6310   -1.7110 H   0  0  0  0  0  0  0  0  0  0  0  0
    3.3589    9.6324   -1.4268 H   0  0  0  0  0  0  0  0  0  0  0  0
    2.6258    8.6126   -2.7110 H   0  0  0  0  0  0  0  0  0  0  0  0
    2.3561   10.3885   -2.7110 H   0  0  0  0  0  0  0  0  0  0  0  0
    1.4343    8.7236    0.8884 H   0  0  0  0  0  0  0  0  0  0  0  0
    0.9769    7.3788   -0.2111 H   0  0  0  0  0  0  0  0  0  0  0  0
    2.6602    8.0060   -0.2111 H   0  0  0  0  0  0  0  0  0  0  0  0
   -1.7199   12.9544    0.5986 H   0  0  0  0  0  0  0  0  0  0  0  0
   -2.3471   13.8060   -0.8533 H   0  0  0  0  0  0  0  0  0  0  0  0
   -2.2064   12.0152   -0.8533 H   0  0  0  0  0  0  0  0  0  0  0  0
   -0.6560   13.5943   -3.1429 H   0  0  0  0  0  0  0  0  0  0  0  0
   -1.0640   14.8923   -1.8848 H   0  0  0  0  0  0  0  0  0  0  0  0
    1.6640   14.1972   -3.0066 H   0  0  0  0  0  0  0  0  0  0  0  0
    0.7127   15.7201   -3.2137 H   0  0  0  0  0  0  0  0  0  0  0  0
    0.5953   16.4488    0.4434 H   0  0  0  0  0  0  0  0  0  0  0  0
    0.8204   17.5032   -0.9933 H   0  0  0  0  0  0  0  0  0  0  0  0
   -0.4639   16.2474   -0.9933 H   0  0  0  0  0  0  0  0  0  0  0  0
  1  2  1  0
  2  3  1  0
  3  4  1  0
  4  5  1  0
  5  6  1  0
  6  7  1  0
  7  8  1  0
  7  9  1  0
  2 10  1  0
 10 11  1  0
 11 12  1  0
 12 13  1  0
 13 14  1  6
 13 15  1  0
 15 16  1  0
 16 17  1  0
 17 18  2  0
 18 19  1  0
 19 20  1  0
 20 21  1  0
 21 22  1  0
 22 23  1  0
 22 24  1  0
 24 25  1  0
 24 26  1  0
 19 27  1  0
 27 28  1  1
 27 29  1  0
 29 30  1  0
 30 31  1  0
 31 32  1  1
  7  5  1  0
 31 10  1  0
 31 13  1  0
 27 15  1  0
 24 18  1  0
  1 33  1  0
  1 34  1  0
  1 35  1  0
  2 36  1  6
  3 37  1  0
  3 38  1  0
  4 39  1  0
  4 40  1  0
  5 41  1  6
  8 42  1  0
  8 43  1  0
  8 44  1  0
  9 45  1  0
  9 46  1  0
  9 47  1  0
 10 48  1  6
 11 49  1  0
 11 50  1  0
 12 51  1  0
 12 52  1  0
 14 53  1  0
 14 54  1  0
 14 55  1  0
 15 56  1  1
 16 57  1  0
 16 58  1  0
 17 59  1  0
 19 60  1  6
 20 61  1  0
 20 62  1  0
 21 63  1  0
 21 64  1  0
 22 65  1  6
 23 66  1  0
 25 67  1  0
 25 68  1  0
 25 69  1  0
 26 70  1  0
 26 71  1  0
 26 72  1  0
 28 73  1  0
 28 74  1  0
 28 75  1  0
 29 76  1  0
 29 77  1  0
 30 78  1  0
 30 79  1  0
 32 80  1  0
 32 81  1  0
 32 82  1  0
M  END
>  <meeko>  (15) 
{"is_sidechain": [false], "intermolecular_energy": 2.731, "internal_energy": -0.839}

$$$$
EPH_relaxed_0001_pdb2pqr_Repair_91_r2_0001_out
     RDKit          3D

 82 86  0  0  0  0  0  0  0  0999 V2000
    3.1440   14.8320   -7.5430 C   0  0  0  0  0  0  0  0  0  0  0  0
    1.6210   14.9030   -7.4000 C   0  0  2  0  0  0  0  0  0  0  0  0
    1.0350   16.1670   -8.0580 C   0  0  0  0  0  0  0  0  0  0  0  0
    1.9640   16.8110   -9.0910 C   0  0  0  0  0  0  0  0  0  0  0  0
    1.6050   16.4060  -10.4880 C   0  0  2  0  0  0  0  0  0  0  0  0
    0.9970   15.1120  -10.5990 O   0  0  0  0  0  0  0  0  0  0  0  0
    2.2790   15.2650  -11.2280 C   0  0  0  0  0  0  0  0  0  0  0  0
    3.3690   14.4590  -10.5920 C   0  0  0  0  0  0  0  0  0  0  0  0
    2.2230   15.2500  -12.7240 C   0  0  0  0  0  0  0  0  0  0  0  0
    1.2350   14.8560   -5.9260 C   0  0  1  0  0  0  0  0  0  0  0  0
   -0.0160   15.7170   -5.6080 C   0  0  0  0  0  0  0  0  0  0  0  0
   -0.7990   14.9750   -4.4950 C   0  0  0  0  0  0  0  0  0  0  0  0
    0.1850   13.8980   -3.9780 C   0  0  1  0  0  0  0  0  0  0  0  0
    1.1240   14.6560   -2.9880 C   0  0  0  0  0  0  0  0  0  0  0  0
   -0.4580   12.6370   -3.3140 C   0  0  2  0  0  0  0  0  0  0  0  0
   -1.2750   12.9150   -2.0400 C   0  0  0  0  0  0  0  0  0  0  0  0
   -0.5060   12.8500   -0.7620 C   0  0  0  0  0  0  0  0  0  0  0  0
    0.7150   12.3040   -0.6110 C   0  0  0  0  0  0  0  0  0  0  0  0
    1.4070   11.5870   -1.7770 C   0  0  1  0  0  0  0  0  0  0  0  0
    1.9880   10.2370   -1.2830 C   0  0  0  0  0  0  0  0  0  0  0  0
    2.9030   10.4010   -0.0740 C   0  0  0  0  0  0  0  0  0  0  0  0
    2.1630   11.0640    1.0850 C   0  0  2  0  0  0  0  0  0  0  0  0
    1.1460   10.1730    1.5530 O   0  0  0  0  0  0  0  0  0  0  0  0
    1.5250   12.4300    0.7030 C   0  0  0  0  0  0  0  0  0  0  0  0
    2.6400   13.4820    0.4870 C   0  0  0  0  0  0  0  0  0  0  0  0
    0.6910   12.9230    1.9150 C   0  0  0  0  0  0  0  0  0  0  0  0
    0.5460   11.4320   -3.1050 C   0  0  1  0  0  0  0  0  0  0  0  0
   -0.3200   10.1380   -3.0290 C   0  0  0  0  0  0  0  0  0  0  0  0
    1.5190   11.2440   -4.3290 C   0  0  0  0  0  0  0  0  0  0  0  0
    2.0250   12.5260   -5.0170 C   0  0  0  0  0  0  0  0  0  0  0  0
    0.8640   13.4750   -5.3310 C   0  0  2  0  0  0  0  0  0  0  0  0
   -0.0870   12.7490   -6.3430 C   0  0  0  0  0  0  0  0  0  0  0  0
    3.6054   14.8105   -6.5447 H   0  0  0  0  0  0  0  0  0  0  0  0
    3.4185   13.9201   -8.0935 H   0  0  0  0  0  0  0  0  0  0  0  0
    3.5021   15.7144   -8.0935 H   0  0  0  0  0  0  0  0  0  0  0  0
    1.1981   14.0325   -7.9230 H   0  0  0  0  0  0  0  0  0  0  0  0
    0.0949   15.8934   -8.5594 H   0  0  0  0  0  0  0  0  0  0  0  0
    0.8842   16.9056   -7.2570 H   0  0  0  0  0  0  0  0  0  0  0  0
    1.8874   17.9051   -9.0062 H   0  0  0  0  0  0  0  0  0  0  0  0
    2.9902   16.4707   -8.8884 H   0  0  0  0  0  0  0  0  0  0  0  0
    1.4087   17.4521  -10.7658 H   0  0  0  0  0  0  0  0  0  0  0  0
    3.2817   14.5235   -9.4974 H   0  0  0  0  0  0  0  0  0  0  0  0
    3.2790   13.4085  -10.9057 H   0  0  0  0  0  0  0  0  0  0  0  0
    4.3470   14.8528  -10.9057 H   0  0  0  0  0  0  0  0  0  0  0  0
    1.2083   14.9782  -13.0502 H   0  0  0  0  0  0  0  0  0  0  0  0
    2.4774   16.2480  -13.1105 H   0  0  0  0  0  0  0  0  0  0  0  0
    2.9422   14.5128  -13.1105 H   0  0  0  0  0  0  0  0  0  0  0  0
    2.1727   15.2179   -5.4790 H   0  0  0  0  0  0  0  0  0  0  0  0
    0.2895   16.7134   -5.2562 H   0  0  0  0  0  0  0  0  0  0  0  0
   -0.6388   15.8545   -6.5042 H   0  0  0  0  0  0  0  0  0  0  0  0
   -1.0760   15.6680   -3.6869 H   0  0  0  0  0  0  0  0  0  0  0  0
   -1.7384   14.5388   -4.8654 H   0  0  0  0  0  0  0  0  0  0  0  0
    0.8328   14.4209   -1.9536 H   0  0  0  0  0  0  0  0  0  0  0  0
    2.1646   14.3418   -3.1563 H   0  0  0  0  0  0  0  0  0  0  0  0
    1.0363   15.7395   -3.1563 H   0  0  0  0  0  0  0  0  0  0  0  0
   -1.1876   12.3172   -4.0726 H   0  0  0  0  0  0  0  0  0  0  0  0
   -1.7063   13.9232   -2.1262 H   0  0  0  0  0  0  0  0  0  0  0  0
   -2.0292   12.1164   -1.9821 H   0  0  0  0  0  0  0  0  0  0  0  0
   -0.9770   13.2851    0.1318 H   0  0  0  0  0  0  0  0  0  0  0  0
    2.2241   12.2491   -2.0993 H   0  0  0  0  0  0  0  0  0  0  0  0
    1.1545    9.5744   -1.0070 H   0  0  0  0  0  0  0  0  0  0  0  0
    2.5888    9.8130   -2.1011 H   0  0  0  0  0  0  0  0  0  0  0  0
    3.2582    9.4102    0.2455 H   0  0  0  0  0  0  0  0  0  0  0  0
    3.7513   11.0401   -0.3601 H   0  0  0  0  0  0  0  0  0  0  0  0
    2.9023   11.2717    1.8725 H   0  0  0  0  0  0  0  0  0  0  0  0
    0.8600   10.4860    2.4280 H   0  0  0  0  0  0  0  0  0  0  0  0
    3.0093   13.8305    1.4628 H   0  0  0  0  0  0  0  0  0  0  0  0
    3.4678   13.0282   -0.0776 H   0  0  0  0  0  0  0  0  0  0  0  0
    2.2351   14.3348   -0.0776 H   0  0  0  0  0  0  0  0  0  0  0  0
    1.1913   12.6273    2.8490 H   0  0  0  0  0  0  0  0  0  0  0  0
    0.6023   14.0188    1.8776 H   0  0  0  0  0  0  0  0  0  0  0  0
   -0.3118   12.4725    1.8776 H   0  0  0  0  0  0  0  0  0  0  0  0
   -0.4956    9.8757   -1.9753 H   0  0  0  0  0  0  0  0  0  0  0  0
   -1.2842   10.3122   -3.5291 H   0  0  0  0  0  0  0  0  0  0  0  0
    0.2087    9.3131   -3.5291 H   0  0  0  0  0  0  0  0  0  0  0  0
    2.3988   10.6882   -3.9725 H   0  0  0  0  0  0  0  0  0  0  0  0
    0.9233   10.7231   -5.0931 H   0  0  0  0  0  0  0  0  0  0  0  0
    2.7359   13.0356   -4.3500 H   0  0  0  0  0  0  0  0  0  0  0  0
    2.5150   12.2470   -5.9615 H   0  0  0  0  0  0  0  0  0  0  0  0
   -0.8419   12.1727   -5.7880 H   0  0  0  0  0  0  0  0  0  0  0  0
   -0.5883   13.4962   -6.9757 H   0  0  0  0  0  0  0  0  0  0  0  0
    0.5017   12.0684   -6.9757 H   0  0  0  0  0  0  0  0  0  0  0  0
  1  2  1  0
  2  3  1  0
  3  4  1  0
  4  5  1  0
  5  6  1  0
  6  7  1  0
  7  8  1  0
  7  9  1  0
  2 10  1  0
 10 11  1  0
 11 12  1  0
 12 13  1  0
 13 14  1  1
 13 15  1  0
 15 16  1  0
 16 17  1  0
 17 18  2  0
 18 19  1  0
 19 20  1  0
 20 21  1  0
 21 22  1  0
 22 23  1  0
 22 24  1  0
 24 25  1  0
 24 26  1  0
 19 27  1  0
 27 28  1  1
 27 29  1  0
 29 30  1  0
 30 31  1  0
 31 32  1  6
  7  5  1  0
 31 10  1  0
 31 13  1  0
 27 15  1  0
 24 18  1  0
  1 33  1  0
  1 34  1  0
  1 35  1  0
  2 36  1  6
  3 37  1  0
  3 38  1  0
  4 39  1  0
  4 40  1  0
  5 41  1  6
  8 42  1  0
  8 43  1  0
  8 44  1  0
  9 45  1  0
  9 46  1  0
  9 47  1  0
 10 48  1  1
 11 49  1  0
 11 50  1  0
 12 51  1  0
 12 52  1  0
 14 53  1  0
 14 54  1  0
 14 55  1  0
 15 56  1  6
 16 57  1  0
 16 58  1  0
 17 59  1  0
 19 60  1  6
 20 61  1  0
 20 62  1  0
 21 63  1  0
 21 64  1  0
 22 65  1  1
 23 66  1  0
 25 67  1  0
 25 68  1  0
 25 69  1  0
 26 70  1  0
 26 71  1  0
 26 72  1  0
 28 73  1  0
 28 74  1  0
 28 75  1  0
 29 76  1  0
 29 77  1  0
 30 78  1  0
 30 79  1  0
 32 80  1  0
 32 81  1  0
 32 82  1  0
M  END
>  <meeko>  (16) 
{"is_sidechain": [false], "intermolecular_energy": 2.731, "internal_energy": -0.839}

$$$$
EPH_relaxed_0001_pdb2pqr_Repair_91_r2_0001_out
     RDKit          3D

 82 86  0  0  0  0  0  0  0  0999 V2000
    2.4390   19.1100   -2.4940 C   0  0  0  0  0  0  0  0  0  0  0  0
    1.2210   19.1250   -1.5660 C   0  0  2  0  0  0  0  0  0  0  0  0
    1.3980   20.1050   -0.3900 C   0  0  0  0  0  0  0  0  0  0  0  0
    2.7300   19.9470    0.3480 C   0  0  0  0  0  0  0  0  0  0  0  0
    2.9140   18.5540    0.8680 C   0  0  2  0  0  0  0  0  0  0  0  0
    4.1780   18.3130    1.5010 O   0  0  0  0  0  0  0  0  0  0  0  0
    3.9210   17.5730    0.2970 C   0  0  0  0  0  0  0  0  0  0  0  0
    4.8110   17.9460   -0.8470 C   0  0  0  0  0  0  0  0  0  0  0  0
    3.7030   16.1100    0.5230 C   0  0  0  0  0  0  0  0  0  0  0  0
    0.9520   17.7200   -1.0380 C   0  0  1  0  0  0  0  0  0  0  0  0
   -0.3030   17.6540   -0.1280 C   0  0  0  0  0  0  0  0  0  0  0  0
   -0.9670   16.2760   -0.3820 C   0  0  0  0  0  0  0  0  0  0  0  0
    0.0930   15.4710   -1.1690 C   0  0  1  0  0  0  0  0  0  0  0  0
    1.0780   14.9360   -0.0820 C   0  0  0  0  0  0  0  0  0  0  0  0
   -0.4480   14.3180   -2.0760 C   0  0  2  0  0  0  0  0  0  0  0  0
   -1.1730   13.1850   -1.3280 C   0  0  0  0  0  0  0  0  0  0  0  0
   -0.3050   12.0530   -0.8880 C   0  0  0  0  0  0  0  0  0  0  0  0
    0.9430   11.8090   -1.3270 C   0  0  0  0  0  0  0  0  0  0  0  0
    1.5690   12.6620   -2.4370 C   0  0  1  0  0  0  0  0  0  0  0  0
    2.2380   11.7360   -3.4870 C   0  0  0  0  0  0  0  0  0  0  0  0
    3.2370   10.7680   -2.8610 C   0  0  0  0  0  0  0  0  0  0  0  0
    2.5650    9.8970   -1.8030 C   0  0  2  0  0  0  0  0  0  0  0  0
    1.6220    9.0350   -2.4480 O   0  0  0  0  0  0  0  0  0  0  0  0
    1.8480   10.7210   -0.6970 C   0  0  0  0  0  0  0  0  0  0  0  0
    2.9030   11.4230    0.1940 C   0  0  0  0  0  0  0  0  0  0  0  0
    1.0930    9.7260    0.2250 C   0  0  0  0  0  0  0  0  0  0  0  0
    0.6150   13.7460   -3.1000 C   0  0  1  0  0  0  0  0  0  0  0  0
   -0.1940   13.1010   -4.2670 C   0  0  0  0  0  0  0  0  0  0  0  0
    1.4950   14.8810   -3.7440 C   0  0  0  0  0  0  0  0  0  0  0  0
    1.8970   16.0530   -2.8280 C   0  0  0  0  0  0  0  0  0  0  0  0
    0.6810   16.6080   -2.0820 C   0  0  2  0  0  0  0  0  0  0  0  0
   -0.3180   17.1740   -3.1490 C   0  0  0  0  0  0  0  0  0  0  0  0
    3.3591   19.0987   -1.8912 H   0  0  0  0  0  0  0  0  0  0  0  0
    2.4054   18.2122   -3.1287 H   0  0  0  0  0  0  0  0  0  0  0  0
    2.4275   20.0084   -3.1287 H   0  0  0  0  0  0  0  0  0  0  0  0
    0.3601   19.4714   -2.1566 H   0  0  0  0  0  0  0  0  0  0  0  0
    1.3374   21.1313   -0.7811 H   0  0  0  0  0  0  0  0  0  0  0  0
    0.6008   19.8842    0.3350 H   0  0  0  0  0  0  0  0  0  0  0  0
    3.5515   20.1800   -0.3454 H   0  0  0  0  0  0  0  0  0  0  0  0
    2.7305   20.6358    1.2056 H   0  0  0  0  0  0  0  0  0  0  0  0
    1.8384   18.4669    1.0812 H   0  0  0  0  0  0  0  0  0  0  0  0
    5.7602   18.3438   -0.4586 H   0  0  0  0  0  0  0  0  0  0  0  0
    5.0106   17.0558   -1.4616 H   0  0  0  0  0  0  0  0  0  0  0  0
    4.3163   18.7125   -1.4616 H   0  0  0  0  0  0  0  0  0  0  0  0
    3.6727   15.9064    1.6036 H   0  0  0  0  0  0  0  0  0  0  0  0
    2.7497   15.8064    0.0658 H   0  0  0  0  0  0  0  0  0  0  0  0
    4.5264   15.5417    0.0658 H   0  0  0  0  0  0  0  0  0  0  0  0
    1.9064   17.5296   -0.5253 H   0  0  0  0  0  0  0  0  0  0  0  0
   -0.0102   17.7445    0.9284 H   0  0  0  0  0  0  0  0  0  0  0  0
   -0.9987   18.4756   -0.3540 H   0  0  0  0  0  0  0  0  0  0  0  0
   -1.2048   15.7783    0.5697 H   0  0  0  0  0  0  0  0  0  0  0  0
   -1.9157   16.3652   -0.9316 H   0  0  0  0  0  0  0  0  0  0  0  0
    0.6749   15.1550    0.9178 H   0  0  0  0  0  0  0  0  0  0  0  0
    1.1979   13.8488   -0.1990 H   0  0  0  0  0  0  0  0  0  0  0  0
    2.0552   15.4273   -0.1990 H   0  0  0  0  0  0  0  0  0  0  0  0
   -1.2215   14.8276   -2.6693 H   0  0  0  0  0  0  0  0  0  0  0  0
   -1.6471   13.6169   -0.4343 H   0  0  0  0  0  0  0  0  0  0  0  0
   -1.8899   12.7577   -2.0446 H   0  0  0  0  0  0  0  0  0  0  0  0
   -0.7209   11.3599   -0.1419 H   0  0  0  0  0  0  0  0  0  0  0  0
    2.3325   13.2845   -1.9476 H   0  0  0  0  0  0  0  0  0  0  0  0
    1.4543   11.1546   -3.9947 H   0  0  0  0  0  0  0  0  0  0  0  0
    2.7893   12.3749   -4.1926 H   0  0  0  0  0  0  0  0  0  0  0  0
    3.6531   10.1216   -3.6478 H   0  0  0  0  0  0  0  0  0  0  0  0
    4.0356   11.3513   -2.3793 H   0  0  0  0  0  0  0  0  0  0  0  0
    3.3544    9.3183   -1.3010 H   0  0  0  0  0  0  0  0  0  0  0  0
    1.1230    9.5710   -3.0880 H   0  0  0  0  0  0  0  0  0  0  0  0
    2.6561   11.2587    1.2533 H   0  0  0  0  0  0  0  0  0  0  0  0
    3.8986   11.0066   -0.0193 H   0  0  0  0  0  0  0  0  0  0  0  0
    2.9035   12.5021   -0.0193 H   0  0  0  0  0  0  0  0  0  0  0  0
    1.2870    9.9817    1.2771 H   0  0  0  0  0  0  0  0  0  0  0  0
    0.0130    9.7886    0.0256 H   0  0  0  0  0  0  0  0  0  0  0  0
    1.4440    8.7028    0.0256 H   0  0  0  0  0  0  0  0  0  0  0  0
   -0.9910   12.4656   -3.8534 H   0  0  0  0  0  0  0  0  0  0  0  0
   -0.6407   13.8935   -4.8854 H   0  0  0  0  0  0  0  0  0  0  0  0
    0.4791   12.4890   -4.8854 H   0  0  0  0  0  0  0  0  0  0  0  0
    2.4204   14.4151   -4.1137 H   0  0  0  0  0  0  0  0  0  0  0  0
    0.8611   15.3293   -4.5232 H   0  0  0  0  0  0  0  0  0  0  0  0
    2.6378   15.6995   -2.0957 H   0  0  0  0  0  0  0  0  0  0  0  0
    2.3223   16.8543   -3.4502 H   0  0  0  0  0  0  0  0  0  0  0  0
   -1.1659   17.6544   -2.6389 H   0  0  0  0  0  0  0  0  0  0  0  0
    0.1982   17.9138   -3.7785 H   0  0  0  0  0  0  0  0  0  0  0  0
   -0.6873   16.3510   -3.7785 H   0  0  0  0  0  0  0  0  0  0  0  0
  1  2  1  0
  2  3  1  0
  3  4  1  0
  4  5  1  0
  5  6  1  0
  6  7  1  0
  7  8  1  0
  7  9  1  0
  2 10  1  0
 10 11  1  0
 11 12  1  0
 12 13  1  0
 13 14  1  1
 13 15  1  0
 15 16  1  0
 16 17  1  0
 17 18  2  0
 18 19  1  0
 19 20  1  0
 20 21  1  0
 21 22  1  0
 22 23  1  0
 22 24  1  0
 24 25  1  0
 24 26  1  0
 19 27  1  0
 27 28  1  6
 27 29  1  0
 29 30  1  0
 30 31  1  0
 31 32  1  6
  7  5  1  0
 31 10  1  0
 31 13  1  0
 27 15  1  0
 24 18  1  0
  1 33  1  0
  1 34  1  0
  1 35  1  0
  2 36  1  6
  3 37  1  0
  3 38  1  0
  4 39  1  0
  4 40  1  0
  5 41  1  1
  8 42  1  0
  8 43  1  0
  8 44  1  0
  9 45  1  0
  9 46  1  0
  9 47  1  0
 10 48  1  1
 11 49  1  0
 11 50  1  0
 12 51  1  0
 12 52  1  0
 14 53  1  0
 14 54  1  0
 14 55  1  0
 15 56  1  6
 16 57  1  0
 16 58  1  0
 17 59  1  0
 19 60  1  1
 20 61  1  0
 20 62  1  0
 21 63  1  0
 21 64  1  0
 22 65  1  1
 23 66  1  0
 25 67  1  0
 25 68  1  0
 25 69  1  0
 26 70  1  0
 26 71  1  0
 26 72  1  0
 28 73  1  0
 28 74  1  0
 28 75  1  0
 29 76  1  0
 29 77  1  0
 30 78  1  0
 30 79  1  0
 32 80  1  0
 32 81  1  0
 32 82  1  0
M  END
>  <meeko>  (17) 
{"is_sidechain": [false], "intermolecular_energy": 2.731, "internal_energy": -0.839}

$$$$
EPH_relaxed_0001_pdb2pqr_Repair_91_r2_0001_out
     RDKit          3D

 82 86  0  0  0  0  0  0  0  0999 V2000
    1.7220   18.5520   -2.0270 C   0  0  0  0  0  0  0  0  0  0  0  0
    2.2110   17.4290   -2.9470 C   0  0  2  0  0  0  0  0  0  0  0  0
    1.2680   17.2100   -4.1470 C   0  0  0  0  0  0  0  0  0  0  0  0
    1.6490   16.0090   -5.0170 C   0  0  0  0  0  0  0  0  0  0  0  0
    0.6250   15.7480   -6.0800 C   0  0  2  0  0  0  0  0  0  0  0  0
    0.6580   14.4240   -6.6300 O   0  0  0  0  0  0  0  0  0  0  0  0
    0.9750   15.4940   -7.5350 C   0  0  0  0  0  0  0  0  0  0  0  0
    2.3950   15.4910   -8.0060 C   0  0  0  0  0  0  0  0  0  0  0  0
   -0.0740   15.7350   -8.5750 C   0  0  0  0  0  0  0  0  0  0  0  0
    2.3550   16.1350   -2.1550 C   0  0  1  0  0  0  0  0  0  0  0  0
    2.9740   16.3600   -0.7500 C   0  0  0  0  0  0  0  0  0  0  0  0
    2.3010   15.3400    0.2040 C   0  0  0  0  0  0  0  0  0  0  0  0
    1.5720   14.3510   -0.7340 C   0  0  1  0  0  0  0  0  0  0  0  0
    2.6800   13.3620   -1.2140 C   0  0  0  0  0  0  0  0  0  0  0  0
    0.3480   13.5940   -0.1240 C   0  0  2  0  0  0  0  0  0  0  0  0
    0.6760   12.6740    1.0650 C   0  0  0  0  0  0  0  0  0  0  0  0
    1.0120   11.2640    0.7070 C   0  0  0  0  0  0  0  0  0  0  0  0
    0.7750   10.6820   -0.4830 C   0  0  0  0  0  0  0  0  0  0  0  0
    0.0190   11.4290   -1.5890 C   0  0  1  0  0  0  0  0  0  0  0  0
   -1.0630   10.4980   -2.1970 C   0  0  0  0  0  0  0  0  0  0  0  0
   -0.4880    9.1700   -2.6780 C   0  0  0  0  0  0  0  0  0  0  0  0
    0.2050    8.4300   -1.5370 C   0  0  2  0  0  0  0  0  0  0  0  0
   -0.7810    8.0400   -0.5750 O   0  0  0  0  0  0  0  0  0  0  0  0
    1.3090    9.2730   -0.8410 C   0  0  0  0  0  0  0  0  0  0  0  0
    2.5160    9.4400   -1.7970 C   0  0  0  0  0  0  0  0  0  0  0  0
    1.8290    8.4660    0.3790 C   0  0  0  0  0  0  0  0  0  0  0  0
   -0.5570   12.8570   -1.1920 C   0  0  1  0  0  0  0  0  0  0  0  0
   -1.9690   12.7010   -0.5490 C   0  0  0  0  0  0  0  0  0  0  0  0
   -0.7570   13.7120   -2.4990 C   0  0  0  0  0  0  0  0  0  0  0  0
    0.4540   14.5310   -2.9850 C   0  0  0  0  0  0  0  0  0  0  0  0
    1.0600   15.3460   -1.8390 C   0  0  2  0  0  0  0  0  0  0  0  0
   -0.0250   16.3650   -1.3500 C   0  0  0  0  0  0  0  0  0  0  0  0
    1.8536   18.2497   -0.9776 H   0  0  0  0  0  0  0  0  0  0  0  0
    2.3041   19.4649   -2.2214 H   0  0  0  0  0  0  0  0  0  0  0  0
    0.6572   18.7478   -2.2214 H   0  0  0  0  0  0  0  0  0  0  0  0
    3.1900   17.7311   -3.3473 H   0  0  0  0  0  0  0  0  0  0  0  0
    0.2490   17.0521   -3.7639 H   0  0  0  0  0  0  0  0  0  0  0  0
    1.3430   18.1046   -4.7827 H   0  0  0  0  0  0  0  0  0  0  0  0
    2.6182   16.2096   -5.4971 H   0  0  0  0  0  0  0  0  0  0  0  0
    1.7061   15.1211   -4.3702 H   0  0  0  0  0  0  0  0  0  0  0  0
   -0.0831   16.4407   -5.6016 H   0  0  0  0  0  0  0  0  0  0  0  0
    3.0695   15.4896   -7.1371 H   0  0  0  0  0  0  0  0  0  0  0  0
    2.5779   14.5925   -8.6136 H   0  0  0  0  0  0  0  0  0  0  0  0
    2.5817   16.3888   -8.6136 H   0  0  0  0  0  0  0  0  0  0  0  0
   -1.0333   15.9554   -8.0840 H   0  0  0  0  0  0  0  0  0  0  0  0
    0.2213   16.5887   -9.2027 H   0  0  0  0  0  0  0  0  0  0  0  0
   -0.1809   14.8380   -9.2027 H   0  0  0  0  0  0  0  0  0  0  0  0
    2.9836   15.5618   -2.8524 H   0  0  0  0  0  0  0  0  0  0  0  0
    4.0601   16.1885   -0.7827 H   0  0  0  0  0  0  0  0  0  0  0  0
    2.8080   17.3915   -0.4059 H   0  0  0  0  0  0  0  0  0  0  0  0
    3.0565   14.8167    0.8085 H   0  0  0  0  0  0  0  0  0  0  0  0
    1.6148   15.8236    0.9148 H   0  0  0  0  0  0  0  0  0  0  0  0
    3.1782   12.9173   -0.3399 H   0  0  0  0  0  0  0  0  0  0  0  0
    2.2232   12.5658   -1.8202 H   0  0  0  0  0  0  0  0  0  0  0  0
    3.4194   13.9059   -1.8202 H   0  0  0  0  0  0  0  0  0  0  0  0
   -0.2537   14.4160    0.2911 H   0  0  0  0  0  0  0  0  0  0  0  0
    1.5363   13.1031    1.5995 H   0  0  0  0  0  0  0  0  0  0  0  0
   -0.2398   12.6237    1.6723 H   0  0  0  0  0  0  0  0  0  0  0  0
    1.4939   10.6490    1.4813 H   0  0  0  0  0  0  0  0  0  0  0  0
    0.7684   11.6790   -2.3544 H   0  0  0  0  0  0  0  0  0  0  0  0
   -1.8252   10.2953   -1.4302 H   0  0  0  0  0  0  0  0  0  0  0  0
   -1.4934   11.0113   -3.0695 H   0  0  0  0  0  0  0  0  0  0  0  0
   -1.3043    8.5449   -3.0691 H   0  0  0  0  0  0  0  0  0  0  0  0
    0.2526    9.3729   -3.4657 H   0  0  0  0  0  0  0  0  0  0  0  0
    0.7073    7.5523   -1.9699 H   0  0  0  0  0  0  0  0  0  0  0  0
   -1.6450    8.3450   -0.8990 H   0  0  0  0  0  0  0  0  0  0  0  0
    3.4359    9.5673   -1.2074 H   0  0  0  0  0  0  0  0  0  0  0  0
    2.6078    8.5460   -2.4313 H   0  0  0  0  0  0  0  0  0  0  0  0
    2.3616   10.3253   -2.4313 H   0  0  0  0  0  0  0  0  0  0  0  0
    1.5104    8.9605    1.3085 H   0  0  0  0  0  0  0  0  0  0  0  0
    1.4176    7.4464    0.3465 H   0  0  0  0  0  0  0  0  0  0  0  0
    2.9275    8.4193    0.3465 H   0  0  0  0  0  0  0  0  0  0  0  0
   -1.8760   12.7113    0.5470 H   0  0  0  0  0  0  0  0  0  0  0  0
   -2.6122   13.5336   -0.8702 H   0  0  0  0  0  0  0  0  0  0  0  0
   -2.4149   11.7481   -0.8702 H   0  0  0  0  0  0  0  0  0  0  0  0
   -1.0386   13.0221   -3.3082 H   0  0  0  0  0  0  0  0  0  0  0  0
   -1.5239   14.4573   -2.2411 H   0  0  0  0  0  0  0  0  0  0  0  0
    1.2169   13.8447   -3.3812 H   0  0  0  0  0  0  0  0  0  0  0  0
    0.1163   15.2251   -3.7687 H   0  0  0  0  0  0  0  0  0  0  0  0
   -0.0430   16.3819   -0.2503 H   0  0  0  0  0  0  0  0  0  0  0  0
    0.2180   17.3690   -1.7282 H   0  0  0  0  0  0  0  0  0  0  0  0
   -1.0118   16.0596   -1.7282 H   0  0  0  0  0  0  0  0  0  0  0  0
  1  2  1  0
  2  3  1  0
  3  4  1  0
  4  5  1  0
  5  6  1  0
  6  7  1  0
  7  8  1  0
  7  9  1  0
  2 10  1  0
 10 11  1  0
 11 12  1  0
 12 13  1  0
 13 14  1  6
 13 15  1  0
 15 16  1  0
 16 17  1  0
 17 18  2  0
 18 19  1  0
 19 20  1  0
 20 21  1  0
 21 22  1  0
 22 23  1  0
 22 24  1  0
 24 25  1  0
 24 26  1  0
 19 27  1  0
 27 28  1  1
 27 29  1  0
 29 30  1  0
 30 31  1  0
 31 32  1  1
  7  5  1  0
 31 10  1  0
 31 13  1  0
 27 15  1  0
 24 18  1  0
  1 33  1  0
  1 34  1  0
  1 35  1  0
  2 36  1  6
  3 37  1  0
  3 38  1  0
  4 39  1  0
  4 40  1  0
  5 41  1  6
  8 42  1  0
  8 43  1  0
  8 44  1  0
  9 45  1  0
  9 46  1  0
  9 47  1  0
 10 48  1  6
 11 49  1  0
 11 50  1  0
 12 51  1  0
 12 52  1  0
 14 53  1  0
 14 54  1  0
 14 55  1  0
 15 56  1  1
 16 57  1  0
 16 58  1  0
 17 59  1  0
 19 60  1  6
 20 61  1  0
 20 62  1  0
 21 63  1  0
 21 64  1  0
 22 65  1  6
 23 66  1  0
 25 67  1  0
 25 68  1  0
 25 69  1  0
 26 70  1  0
 26 71  1  0
 26 72  1  0
 28 73  1  0
 28 74  1  0
 28 75  1  0
 29 76  1  0
 29 77  1  0
 30 78  1  0
 30 79  1  0
 32 80  1  0
 32 81  1  0
 32 82  1  0
M  END
>  <meeko>  (18) 
{"is_sidechain": [false], "intermolecular_energy": 2.731, "internal_energy": -0.839}

$$$$
EPH_relaxed_0001_pdb2pqr_Repair_91_r2_0001_out
     RDKit          3D

 82 86  0  0  0  0  0  0  0  0999 V2000
    0.4780   18.9790   -2.6480 C   0  0  0  0  0  0  0  0  0  0  0  0
    0.0360   17.9890   -1.5670 C   0  0  2  0  0  0  0  0  0  0  0  0
    0.6070   18.3490   -0.1810 C   0  0  0  0  0  0  0  0  0  0  0  0
    1.5530   19.5520   -0.1980 C   0  0  0  0  0  0  0  0  0  0  0  0
    2.4620   19.5610    0.9940 C   0  0  2  0  0  0  0  0  0  0  0  0
    3.7290   20.1950    0.7760 O   0  0  0  0  0  0  0  0  0  0  0  0
    3.7650   18.7860    1.0580 C   0  0  0  0  0  0  0  0  0  0  0  0
    4.2320   17.9470   -0.0900 C   0  0  0  0  0  0  0  0  0  0  0  0
    4.3340   18.4550    2.4020 C   0  0  0  0  0  0  0  0  0  0  0  0
    0.4580   16.5760   -1.9530 C   0  0  1  0  0  0  0  0  0  0  0  0
    1.8210   16.5410   -2.6940 C   0  0  0  0  0  0  0  0  0  0  0  0
    2.5340   15.2350   -2.2590 C   0  0  0  0  0  0  0  0  0  0  0  0
    1.4350   14.4080   -1.5520 C   0  0  1  0  0  0  0  0  0  0  0  0
    0.6330   13.7330   -2.7090 C   0  0  0  0  0  0  0  0  0  0  0  0
    1.9270   13.3580   -0.5030 C   0  0  2  0  0  0  0  0  0  0  0  0
    2.8130   12.2350   -1.0700 C   0  0  0  0  0  0  0  0  0  0  0  0
    2.0820   11.0170   -1.5290 C   0  0  0  0  0  0  0  0  0  0  0  0
    0.8060   10.7120   -1.2310 C   0  0  0  0  0  0  0  0  0  0  0  0
   -0.0100   11.5880   -0.2720 C   0  0  1  0  0  0  0  0  0  0  0  0
   -0.7470   10.6860    0.7530 C   0  0  0  0  0  0  0  0  0  0  0  0
   -1.5950    9.6100    0.0820 C   0  0  0  0  0  0  0  0  0  0  0  0
   -0.7380    8.7230   -0.8180 C   0  0  2  0  0  0  0  0  0  0  0  0
    0.1670    7.9750   -0.0010 O   0  0  0  0  0  0  0  0  0  0  0  0
    0.0600    9.5230   -1.8850 C   0  0  0  0  0  0  0  0  0  0  0  0
   -0.9140   10.0870   -2.9490 C   0  0  0  0  0  0  0  0  0  0  0  0
    0.9890    8.5280   -2.6320 C   0  0  0  0  0  0  0  0  0  0  0  0
    0.7810   12.7790    0.4220 C   0  0  1  0  0  0  0  0  0  0  0  0
    1.4730   12.2720    1.7240 C   0  0  0  0  0  0  0  0  0  0  0  0
   -0.2450   13.8870    0.8670 C   0  0  0  0  0  0  0  0  0  0  0  0
   -0.6000   14.9650   -0.1750 C   0  0  0  0  0  0  0  0  0  0  0  0
    0.6640   15.5560   -0.8050 C   0  0  2  0  0  0  0  0  0  0  0  0
    1.4800   16.2610    0.3320 C   0  0  0  0  0  0  0  0  0  0  0  0
    0.8824   19.8847   -2.1725 H   0  0  0  0  0  0  0  0  0  0  0  0
    1.2547   18.5156   -3.2741 H   0  0  0  0  0  0  0  0  0  0  0  0
   -0.3855   19.2479   -3.2741 H   0  0  0  0  0  0  0  0  0  0  0  0
   -1.0604   18.0438   -1.4964 H   0  0  0  0  0  0  0  0  0  0  0  0
   -0.2328   18.5773    0.4918 H   0  0  0  0  0  0  0  0  0  0  0  0
    1.1944   17.4834    0.1590 H   0  0  0  0  0  0  0  0  0  0  0  0
    2.1641   19.5118   -1.1117 H   0  0  0  0  0  0  0  0  0  0  0  0
    0.9435   20.4673   -0.1706 H   0  0  0  0  0  0  0  0  0  0  0  0
    1.6027   19.6173    1.6785 H   0  0  0  0  0  0  0  0  0  0  0  0
    4.7333   17.0464    0.2941 H   0  0  0  0  0  0  0  0  0  0  0  0
    3.3682   17.6522   -0.7039 H   0  0  0  0  0  0  0  0  0  0  0  0
    4.9377   18.5258   -0.7039 H   0  0  0  0  0  0  0  0  0  0  0  0
    3.6683   18.8422    3.1875 H   0  0  0  0  0  0  0  0  0  0  0  0
    4.4243   17.3634    2.5032 H   0  0  0  0  0  0  0  0  0  0  0  0
    5.3276   18.9161    2.5032 H   0  0  0  0  0  0  0  0  0  0  0  0
   -0.4097   16.2853   -2.5634 H   0  0  0  0  0  0  0  0  0  0  0  0
    1.6605   16.5404   -3.7822 H   0  0  0  0  0  0  0  0  0  0  0  0
    2.4282   17.4238   -2.4452 H   0  0  0  0  0  0  0  0  0  0  0  0
    2.9236   14.6950   -3.1346 H   0  0  0  0  0  0  0  0  0  0  0  0
    3.3966   15.4286   -1.6045 H   0  0  0  0  0  0  0  0  0  0  0  0
   -0.1434   13.0796   -2.2844 H   0  0  0  0  0  0  0  0  0  0  0  0
    0.1603   14.5091   -3.3289 H   0  0  0  0  0  0  0  0  0  0  0  0
    1.3170   13.1348   -3.3289 H   0  0  0  0  0  0  0  0  0  0  0  0
    2.5839   13.9598    0.1422 H   0  0  0  0  0  0  0  0  0  0  0  0
    3.3693   12.6411   -1.9277 H   0  0  0  0  0  0  0  0  0  0  0  0
    3.4585   11.9086   -0.2413 H   0  0  0  0  0  0  0  0  0  0  0  0
    2.6335   10.3088   -2.1648 H   0  0  0  0  0  0  0  0  0  0  0  0
   -0.7430   12.1206   -0.8958 H   0  0  0  0  0  0  0  0  0  0  0  0
    0.0011   10.1966    1.3940 H   0  0  0  0  0  0  0  0  0  0  0  0
   -1.4230   11.3278    1.3371 H   0  0  0  0  0  0  0  0  0  0  0  0
   -2.0666    8.9879    0.8570 H   0  0  0  0  0  0  0  0  0  0  0  0
   -2.3614   10.1011   -0.5357 H   0  0  0  0  0  0  0  0  0  0  0  0
   -1.4181    8.0570   -1.3693 H   0  0  0  0  0  0  0  0  0  0  0  0
   -0.1330    7.0500   -0.0000 H   0  0  0  0  0  0  0  0  0  0  0  0
   -1.7611   10.5775   -2.4472 H   0  0  0  0  0  0  0  0  0  0  0  0
   -0.3862   10.8193   -3.5777 H   0  0  0  0  0  0  0  0  0  0  0  0
   -1.2864    9.2648   -3.5777 H   0  0  0  0  0  0  0  0  0  0  0  0
    1.5489    7.9284   -1.8992 H   0  0  0  0  0  0  0  0  0  0  0  0
    0.3816    7.8624   -3.2630 H   0  0  0  0  0  0  0  0  0  0  0  0
    1.6946    9.0883   -3.2630 H   0  0  0  0  0  0  0  0  0  0  0  0
    0.9371   12.6646    2.6008 H   0  0  0  0  0  0  0  0  0  0  0  0
    1.4542   11.1724    1.7449 H   0  0  0  0  0  0  0  0  0  0  0  0
    2.5158   12.6214    1.7449 H   0  0  0  0  0  0  0  0  0  0  0  0
   -1.1786   13.3803    1.1527 H   0  0  0  0  0  0  0  0  0  0  0  0
    0.2540   14.4296    1.6834 H   0  0  0  0  0  0  0  0  0  0  0  0
   -1.2178   14.5125   -0.9647 H   0  0  0  0  0  0  0  0  0  0  0  0
   -1.1507   15.7725    0.3296 H   0  0  0  0  0  0  0  0  0  0  0  0
    1.1015   15.9340    1.3117 H   0  0  0  0  0  0  0  0  0  0  0  0
    2.5428   15.9923    0.2412 H   0  0  0  0  0  0  0  0  0  0  0  0
    1.3685   17.3516    0.2412 H   0  0  0  0  0  0  0  0  0  0  0  0
  1  2  1  0
  2  3  1  0
  3  4  1  0
  4  5  1  0
  5  6  1  0
  6  7  1  0
  7  8  1  0
  7  9  1  0
  2 10  1  0
 10 11  1  0
 11 12  1  0
 12 13  1  0
 13 14  1  6
 13 15  1  0
 15 16  1  0
 16 17  1  0
 17 18  2  0
 18 19  1  0
 19 20  1  0
 20 21  1  0
 21 22  1  0
 22 23  1  0
 22 24  1  0
 24 25  1  0
 24 26  1  0
 19 27  1  0
 27 28  1  1
 27 29  1  0
 29 30  1  0
 30 31  1  0
 31 32  1  1
  7  5  1  0
 31 10  1  0
 31 13  1  0
 27 15  1  0
 24 18  1  0
  1 33  1  0
  1 34  1  0
  1 35  1  0
  2 36  1  1
  3 37  1  0
  3 38  1  0
  4 39  1  0
  4 40  1  0
  5 41  1  1
  8 42  1  0
  8 43  1  0
  8 44  1  0
  9 45  1  0
  9 46  1  0
  9 47  1  0
 10 48  1  6
 11 49  1  0
 11 50  1  0
 12 51  1  0
 12 52  1  0
 14 53  1  0
 14 54  1  0
 14 55  1  0
 15 56  1  1
 16 57  1  0
 16 58  1  0
 17 59  1  0
 19 60  1  6
 20 61  1  0
 20 62  1  0
 21 63  1  0
 21 64  1  0
 22 65  1  6
 23 66  1  0
 25 67  1  0
 25 68  1  0
 25 69  1  0
 26 70  1  0
 26 71  1  0
 26 72  1  0
 28 73  1  0
 28 74  1  0
 28 75  1  0
 29 76  1  0
 29 77  1  0
 30 78  1  0
 30 79  1  0
 32 80  1  0
 32 81  1  0
 32 82  1  0
M  END
>  <meeko>  (19) 
{"is_sidechain": [false], "intermolecular_energy": 2.731, "internal_energy": -0.839}

$$$$
