EPH_relaxed_0001_pdb2pqr_Repair_194_r2_0001_out
     RDKit          3D

 82 86  0  0  0  0  0  0  0  0999 V2000
   -1.7610    8.5750   -1.7410 C   0  0  0  0  0  0  0  0  0  0  0  0
   -1.7900    9.0050   -0.2720 C   0  0  2  0  0  0  0  0  0  0  0  0
   -3.2240    9.2720    0.2270 C   0  0  0  0  0  0  0  0  0  0  0  0
   -4.2920    9.1230   -0.8600 C   0  0  0  0  0  0  0  0  0  0  0  0
   -4.9080    7.7570   -0.8490 C   0  0  2  0  0  0  0  0  0  0  0  0
   -5.0210    7.1400   -2.1380 O   0  0  0  0  0  0  0  0  0  0  0  0
   -6.2560    7.4420   -1.4700 C   0  0  0  0  0  0  0  0  0  0  0  0
   -7.0710    8.5000   -2.1450 C   0  0  0  0  0  0  0  0  0  0  0  0
   -6.9970    6.2300   -0.9960 C   0  0  0  0  0  0  0  0  0  0  0  0
   -0.9320   10.2500   -0.0780 C   0  0  1  0  0  0  0  0  0  0  0  0
    0.2030   10.0370    0.9590 C   0  0  0  0  0  0  0  0  0  0  0  0
    1.4190   10.8650    0.4670 C   0  0  0  0  0  0  0  0  0  0  0  0
    0.8460   11.7790   -0.6400 C   0  0  1  0  0  0  0  0  0  0  0  0
    0.1850   12.9690    0.1240 C   0  0  0  0  0  0  0  0  0  0  0  0
    1.8620   12.2790   -1.7180 C   0  0  2  0  0  0  0  0  0  0  0  0
    3.0040   13.1590   -1.1800 C   0  0  0  0  0  0  0  0  0  0  0  0
    2.7270   14.6260   -1.1670 C   0  0  0  0  0  0  0  0  0  0  0  0
    1.7280   15.2390   -1.8290 C   0  0  0  0  0  0  0  0  0  0  0  0
    0.8070   14.4520   -2.7700 C   0  0  1  0  0  0  0  0  0  0  0  0
    0.6430   15.2280   -4.1040 C   0  0  0  0  0  0  0  0  0  0  0  0
    0.1710   16.6630   -3.8910 C   0  0  0  0  0  0  0  0  0  0  0  0
    1.1430   17.4300   -2.9980 C   0  0  2  0  0  0  0  0  0  0  0  0
    2.3840   17.5850   -3.6940 O   0  0  0  0  0  0  0  0  0  0  0  0
    1.3940   16.7380   -1.6290 C   0  0  0  0  0  0  0  0  0  0  0  0
    0.1210   16.8390   -0.7530 C   0  0  0  0  0  0  0  0  0  0  0  0
    2.4970   17.5370   -0.8850 C   0  0  0  0  0  0  0  0  0  0  0  0
    1.1870   12.9250   -2.9960 C   0  0  1  0  0  0  0  0  0  0  0  0
    2.2210   12.8000   -4.1570 C   0  0  0  0  0  0  0  0  0  0  0  0
   -0.0960   12.1380   -3.4570 C   0  0  0  0  0  0  0  0  0  0  0  0
   -0.9970   11.5660   -2.3450 C   0  0  0  0  0  0  0  0  0  0  0  0
   -0.1710   10.7890   -1.3160 C   0  0  2  0  0  0  0  0  0  0  0  0
    0.4880    9.5730   -2.0510 C   0  0  0  0  0  0  0  0  0  0  0  0
   -1.6871    7.4791   -1.8009 H   0  0  0  0  0  0  0  0  0  0  0  0
   -2.6836    8.9080   -2.2388 H   0  0  0  0  0  0  0  0  0  0  0  0
   -0.8914    9.0289   -2.2388 H   0  0  0  0  0  0  0  0  0  0  0  0
   -1.3821    8.1749    0.3235 H   0  0  0  0  0  0  0  0  0  0  0  0
   -3.4488    8.5598    1.0346 H   0  0  0  0  0  0  0  0  0  0  0  0
   -3.2562   10.3173    0.5680 H   0  0  0  0  0  0  0  0  0  0  0  0
   -5.0805    9.8709   -0.6898 H   0  0  0  0  0  0  0  0  0  0  0  0
   -3.8098    9.2736   -1.8371 H   0  0  0  0  0  0  0  0  0  0  0  0
   -4.4874    7.5501    0.1461 H   0  0  0  0  0  0  0  0  0  0  0  0
   -7.5562    9.1298   -1.3848 H   0  0  0  0  0  0  0  0  0  0  0  0
   -6.4164    9.1220   -2.7732 H   0  0  0  0  0  0  0  0  0  0  0  0
   -7.8395    8.0258   -2.7732 H   0  0  0  0  0  0  0  0  0  0  0  0
   -7.0072    6.2133    0.1038 H   0  0  0  0  0  0  0  0  0  0  0  0
   -8.0303    6.2617   -1.3718 H   0  0  0  0  0  0  0  0  0  0  0  0
   -6.4978    5.3247   -1.3718 H   0  0  0  0  0  0  0  0  0  0  0  0
   -1.7102   10.9654    0.2263 H   0  0  0  0  0  0  0  0  0  0  0  0
   -0.1187   10.3886    1.9504 H   0  0  0  0  0  0  0  0  0  0  0  0
    0.4609    8.9715    1.0494 H   0  0  0  0  0  0  0  0  0  0  0  0
    1.8379   11.4653    1.2881 H   0  0  0  0  0  0  0  0  0  0  0  0
    2.2368   10.2275    0.0998 H   0  0  0  0  0  0  0  0  0  0  0  0
    0.2762   12.8048    1.2078 H   0  0  0  0  0  0  0  0  0  0  0  0
    0.6916   13.9065   -0.1487 H   0  0  0  0  0  0  0  0  0  0  0  0
   -0.8787   13.0343   -0.1487 H   0  0  0  0  0  0  0  0  0  0  0  0
    2.3360   11.3425   -2.0469 H   0  0  0  0  0  0  0  0  0  0  0  0
    3.2182   12.8444   -0.1479 H   0  0  0  0  0  0  0  0  0  0  0  0
    3.8494   13.0151   -1.8689 H   0  0  0  0  0  0  0  0  0  0  0  0
    3.3957   15.2594   -0.5657 H   0  0  0  0  0  0  0  0  0  0  0  0
   -0.1633   14.3826   -2.2565 H   0  0  0  0  0  0  0  0  0  0  0  0
    1.6135   15.2490   -4.6215 H   0  0  0  0  0  0  0  0  0  0  0  0
   -0.1222   14.7095   -4.7003 H   0  0  0  0  0  0  0  0  0  0  0  0
    0.1027   17.1680   -4.8658 H   0  0  0  0  0  0  0  0  0  0  0  0
   -0.8131   16.6398   -3.4002 H   0  0  0  0  0  0  0  0  0  0  0  0
    0.6872   18.4063   -2.7764 H   0  0  0  0  0  0  0  0  0  0  0  0
    2.2120   17.4340   -4.6390 H   0  0  0  0  0  0  0  0  0  0  0  0
    0.4044   16.8165    0.3096 H   0  0  0  0  0  0  0  0  0  0  0  0
   -0.4018   17.7814   -0.9732 H   0  0  0  0  0  0  0  0  0  0  0  0
   -0.5439   15.9908   -0.9732 H   0  0  0  0  0  0  0  0  0  0  0  0
    2.3550   17.4341    0.2009 H   0  0  0  0  0  0  0  0  0  0  0  0
    3.4858   17.1442   -1.1643 H   0  0  0  0  0  0  0  0  0  0  0  0
    2.4320   18.5990   -1.1643 H   0  0  0  0  0  0  0  0  0  0  0  0
    3.2305   12.6780   -3.7374 H   0  0  0  0  0  0  0  0  0  0  0  0
    1.9731   11.9253   -4.7762 H   0  0  0  0  0  0  0  0  0  0  0  0
    2.1887   13.7086   -4.7762 H   0  0  0  0  0  0  0  0  0  0  0  0
   -0.7079   12.8238   -4.0613 H   0  0  0  0  0  0  0  0  0  0  0  0
    0.2843   11.2600   -3.9996 H   0  0  0  0  0  0  0  0  0  0  0  0
   -1.5146   12.3945   -1.8394 H   0  0  0  0  0  0  0  0  0  0  0  0
   -1.7247   10.8790   -2.8017 H   0  0  0  0  0  0  0  0  0  0  0  0
    0.8742    8.8605   -1.3073 H   0  0  0  0  0  0  0  0  0  0  0  0
   -0.2633    9.0743   -2.6810 H   0  0  0  0  0  0  0  0  0  0  0  0
    1.3160    9.9302   -2.6810 H   0  0  0  0  0  0  0  0  0  0  0  0
  1  2  1  0
  2  3  1  0
  3  4  1  0
  4  5  1  0
  5  6  1  0
  6  7  1  0
  7  8  1  0
  7  9  1  0
  2 10  1  0
 10 11  1  0
 11 12  1  0
 12 13  1  0
 13 14  1  1
 13 15  1  0
 15 16  1  0
 16 17  1  0
 17 18  2  0
 18 19  1  0
 19 20  1  0
 20 21  1  0
 21 22  1  0
 22 23  1  0
 22 24  1  0
 24 25  1  0
 24 26  1  0
 19 27  1  0
 27 28  1  6
 27 29  1  0
 29 30  1  0
 30 31  1  0
 31 32  1  6
  7  5  1  0
 31 10  1  0
 31 13  1  0
 27 15  1  0
 24 18  1  0
  1 33  1  0
  1 34  1  0
  1 35  1  0
  2 36  1  1
  3 37  1  0
  3 38  1  0
  4 39  1  0
  4 40  1  0
  5 41  1  1
  8 42  1  0
  8 43  1  0
  8 44  1  0
  9 45  1  0
  9 46  1  0
  9 47  1  0
 10 48  1  1
 11 49  1  0
 11 50  1  0
 12 51  1  0
 12 52  1  0
 14 53  1  0
 14 54  1  0
 14 55  1  0
 15 56  1  6
 16 57  1  0
 16 58  1  0
 17 59  1  0
 19 60  1  1
 20 61  1  0
 20 62  1  0
 21 63  1  0
 21 64  1  0
 22 65  1  1
 23 66  1  0
 25 67  1  0
 25 68  1  0
 25 69  1  0
 26 70  1  0
 26 71  1  0
 26 72  1  0
 28 73  1  0
 28 74  1  0
 28 75  1  0
 29 76  1  0
 29 77  1  0
 30 78  1  0
 30 79  1  0
 32 80  1  0
 32 81  1  0
 32 82  1  0
M  END
>  <meeko>  (1) 
{"is_sidechain": [false], "intermolecular_energy": 2.731, "internal_energy": -0.839}

$$$$
EPH_relaxed_0001_pdb2pqr_Repair_194_r2_0001_out
     RDKit          3D

 82 86  0  0  0  0  0  0  0  0999 V2000
    2.1900   17.9640   -3.0600 C   0  0  0  0  0  0  0  0  0  0  0  0
    0.7130   17.7070   -2.7470 C   0  0  2  0  0  0  0  0  0  0  0  0
    0.3580   18.0640   -1.2890 C   0  0  0  0  0  0  0  0  0  0  0  0
    0.5870   19.5370   -0.9420 C   0  0  0  0  0  0  0  0  0  0  0  0
   -0.6680   20.1940   -0.4550 C   0  0  2  0  0  0  0  0  0  0  0  0
   -0.8330   20.1890    0.9690 O   0  0  0  0  0  0  0  0  0  0  0  0
   -1.8010   19.4400    0.2170 C   0  0  0  0  0  0  0  0  0  0  0  0
   -1.7300   17.9610    0.4370 C   0  0  0  0  0  0  0  0  0  0  0  0
   -3.1670   20.0500    0.2150 C   0  0  0  0  0  0  0  0  0  0  0  0
    0.3690   16.2490   -3.0250 C   0  0  1  0  0  0  0  0  0  0  0  0
    0.5270   15.8730   -4.5230 C   0  0  0  0  0  0  0  0  0  0  0  0
    1.0280   14.4070   -4.5660 C   0  0  0  0  0  0  0  0  0  0  0  0
    0.8260   13.8830   -3.1250 C   0  0  1  0  0  0  0  0  0  0  0  0
   -0.6840   13.4970   -3.0460 C   0  0  0  0  0  0  0  0  0  0  0  0
    1.7480   12.7000   -2.6840 C   0  0  2  0  0  0  0  0  0  0  0  0
    1.5730   11.4010   -3.4890 C   0  0  0  0  0  0  0  0  0  0  0  0
    0.5620   10.4460   -2.9470 C   0  0  0  0  0  0  0  0  0  0  0  0
    0.0300   10.4880   -1.7110 C   0  0  0  0  0  0  0  0  0  0  0  0
    0.5150   11.5160   -0.6800 C   0  0  1  0  0  0  0  0  0  0  0  0
    0.7570   10.8100    0.6800 C   0  0  0  0  0  0  0  0  0  0  0  0
   -0.4630   10.0310    1.1610 C   0  0  0  0  0  0  0  0  0  0  0  0
   -0.8790    8.9800    0.1350 C   0  0  2  0  0  0  0  0  0  0  0  0
    0.1450    7.9830    0.0560 O   0  0  0  0  0  0  0  0  0  0  0  0
   -1.1410    9.5730   -1.2770 C   0  0  0  0  0  0  0  0  0  0  0  0
   -2.4370   10.4210   -1.2530 C   0  0  0  0  0  0  0  0  0  0  0  0
   -1.4130    8.3920   -2.2480 C   0  0  0  0  0  0  0  0  0  0  0  0
    1.7430   12.4200   -1.1260 C   0  0  1  0  0  0  0  0  0  0  0  0
    3.0840   11.6940   -0.8000 C   0  0  0  0  0  0  0  0  0  0  0  0
    1.7390   13.7470   -0.2790 C   0  0  0  0  0  0  0  0  0  0  0  0
    0.9050   14.9200   -0.8290 C   0  0  0  0  0  0  0  0  0  0  0  0
    1.2170   15.1690   -2.3080 C   0  0  2  0  0  0  0  0  0  0  0  0
    2.7250   15.5810   -2.4160 C   0  0  0  0  0  0  0  0  0  0  0  0
    2.7524   18.0619   -2.1197 H   0  0  0  0  0  0  0  0  0  0  0  0
    2.5932   17.1225   -3.6425 H   0  0  0  0  0  0  0  0  0  0  0  0
    2.2852   18.8922   -3.6425 H   0  0  0  0  0  0  0  0  0  0  0  0
    0.1172   18.3604   -3.4013 H   0  0  0  0  0  0  0  0  0  0  0  0
   -0.7037   17.8293   -1.1228 H   0  0  0  0  0  0  0  0  0  0  0  0
    1.0248   17.4745   -0.6426 H   0  0  0  0  0  0  0  0  0  0  0  0
    1.3523   19.6028   -0.1546 H   0  0  0  0  0  0  0  0  0  0  0  0
    0.9139   20.0570   -1.8545 H   0  0  0  0  0  0  0  0  0  0  0  0
   -0.6500   20.9039   -1.2951 H   0  0  0  0  0  0  0  0  0  0  0  0
   -1.7199   17.7510    1.5167 H   0  0  0  0  0  0  0  0  0  0  0  0
   -2.6061   17.4795   -0.0220 H   0  0  0  0  0  0  0  0  0  0  0  0
   -0.8118   17.5657   -0.0220 H   0  0  0  0  0  0  0  0  0  0  0  0
   -3.5031   20.2001    1.2516 H   0  0  0  0  0  0  0  0  0  0  0  0
   -3.1350   21.0193   -0.3040 H   0  0  0  0  0  0  0  0  0  0  0  0
   -3.8674   19.3791   -0.3040 H   0  0  0  0  0  0  0  0  0  0  0  0
   -0.6641   16.2283   -2.6477 H   0  0  0  0  0  0  0  0  0  0  0  0
   -0.4408   15.9578   -5.0389 H   0  0  0  0  0  0  0  0  0  0  0  0
    1.2353   16.5472   -5.0267 H   0  0  0  0  0  0  0  0  0  0  0  0
    0.4369   13.8155   -5.2807 H   0  0  0  0  0  0  0  0  0  0  0  0
    2.0756   14.3337   -4.8934 H   0  0  0  0  0  0  0  0  0  0  0  0
   -0.9879   13.4193   -1.9917 H   0  0  0  0  0  0  0  0  0  0  0  0
   -1.2867   14.2700   -3.5453 H   0  0  0  0  0  0  0  0  0  0  0  0
   -0.8418   12.5296   -3.5453 H   0  0  0  0  0  0  0  0  0  0  0  0
    2.7504   13.0754   -2.9376 H   0  0  0  0  0  0  0  0  0  0  0  0
    1.2702   11.6727   -4.5110 H   0  0  0  0  0  0  0  0  0  0  0  0
    2.5406   10.8800   -3.4398 H   0  0  0  0  0  0  0  0  0  0  0  0
    0.2229    9.6396   -3.6139 H   0  0  0  0  0  0  0  0  0  0  0  0
   -0.2963   12.2520   -0.5795 H   0  0  0  0  0  0  0  0  0  0  0  0
    1.5999   10.1119    0.5696 H   0  0  0  0  0  0  0  0  0  0  0  0
    0.9709   11.5889    1.4267 H   0  0  0  0  0  0  0  0  0  0  0  0
   -0.2195    9.5309    2.1100 H   0  0  0  0  0  0  0  0  0  0  0  0
   -1.2966   10.7351    1.2998 H   0  0  0  0  0  0  0  0  0  0  0  0
   -1.8311    8.5458    0.4742 H   0  0  0  0  0  0  0  0  0  0  0  0
    0.5800    8.0760   -0.8080 H   0  0  0  0  0  0  0  0  0  0  0  0
   -2.7303   10.6129   -0.2104 H   0  0  0  0  0  0  0  0  0  0  0  0
   -2.2588   11.3777   -1.7658 H   0  0  0  0  0  0  0  0  0  0  0  0
   -3.2423    9.8746   -1.7658 H   0  0  0  0  0  0  0  0  0  0  0  0
   -1.6228    7.4812   -1.6679 H   0  0  0  0  0  0  0  0  0  0  0  0
   -2.2797    8.6307   -2.8819 H   0  0  0  0  0  0  0  0  0  0  0  0
   -0.5292    8.2275   -2.8819 H   0  0  0  0  0  0  0  0  0  0  0  0
    3.2087   11.6265    0.2908 H   0  0  0  0  0  0  0  0  0  0  0  0
    3.0671   10.6819   -1.2304 H   0  0  0  0  0  0  0  0  0  0  0  0
    3.9223   12.2615   -1.2304 H   0  0  0  0  0  0  0  0  0  0  0  0
    1.3506   13.5025    0.7207 H   0  0  0  0  0  0  0  0  0  0  0  0
    2.7801   14.1017   -0.2951 H   0  0  0  0  0  0  0  0  0  0  0  0
   -0.1638   14.6830   -0.7217 H   0  0  0  0  0  0  0  0  0  0  0  0
    1.1575   15.8269   -0.2599 H   0  0  0  0  0  0  0  0  0  0  0  0
    3.1468   15.6962   -1.4066 H   0  0  0  0  0  0  0  0  0  0  0  0
    3.2801   14.8016   -2.9586 H   0  0  0  0  0  0  0  0  0  0  0  0
    2.8067   16.5344   -2.9586 H   0  0  0  0  0  0  0  0  0  0  0  0
  1  2  1  0
  2  3  1  0
  3  4  1  0
  4  5  1  0
  5  6  1  0
  6  7  1  0
  7  8  1  0
  7  9  1  0
  2 10  1  0
 10 11  1  0
 11 12  1  0
 12 13  1  0
 13 14  1  6
 13 15  1  0
 15 16  1  0
 16 17  1  0
 17 18  2  0
 18 19  1  0
 19 20  1  0
 20 21  1  0
 21 22  1  0
 22 23  1  0
 22 24  1  0
 24 25  1  0
 24 26  1  0
 19 27  1  0
 27 28  1  1
 27 29  1  0
 29 30  1  0
 30 31  1  0
 31 32  1  1
  7  5  1  0
 31 10  1  0
 31 13  1  0
 27 15  1  0
 24 18  1  0
  1 33  1  0
  1 34  1  0
  1 35  1  0
  2 36  1  6
  3 37  1  0
  3 38  1  0
  4 39  1  0
  4 40  1  0
  5 41  1  6
  8 42  1  0
  8 43  1  0
  8 44  1  0
  9 45  1  0
  9 46  1  0
  9 47  1  0
 10 48  1  1
 11 49  1  0
 11 50  1  0
 12 51  1  0
 12 52  1  0
 14 53  1  0
 14 54  1  0
 14 55  1  0
 15 56  1  6
 16 57  1  0
 16 58  1  0
 17 59  1  0
 19 60  1  1
 20 61  1  0
 20 62  1  0
 21 63  1  0
 21 64  1  0
 22 65  1  1
 23 66  1  0
 25 67  1  0
 25 68  1  0
 25 69  1  0
 26 70  1  0
 26 71  1  0
 26 72  1  0
 28 73  1  0
 28 74  1  0
 28 75  1  0
 29 76  1  0
 29 77  1  0
 30 78  1  0
 30 79  1  0
 32 80  1  0
 32 81  1  0
 32 82  1  0
M  END
>  <meeko>  (2) 
{"is_sidechain": [false], "intermolecular_energy": 2.731, "internal_energy": -0.839}

$$$$
EPH_relaxed_0001_pdb2pqr_Repair_194_r2_0001_out
     RDKit          3D

 82 86  0  0  0  0  0  0  0  0999 V2000
   -5.1830    5.8020   -1.7530 C   0  0  0  0  0  0  0  0  0  0  0  0
   -5.4720    7.3050   -1.8050 C   0  0  2  0  0  0  0  0  0  0  0  0
   -5.2390    7.9880   -0.4420 C   0  0  0  0  0  0  0  0  0  0  0  0
   -4.2070    9.1190   -0.4890 C   0  0  0  0  0  0  0  0  0  0  0  0
   -2.8290    8.6000   -0.7690 C   0  0  2  0  0  0  0  0  0  0  0  0
   -1.8460    8.9520    0.2130 O   0  0  0  0  0  0  0  0  0  0  0  0
   -1.6500    9.4950   -1.1030 C   0  0  0  0  0  0  0  0  0  0  0  0
   -1.7960   10.9830   -1.1750 C   0  0  0  0  0  0  0  0  0  0  0  0
   -0.4850    8.9020   -1.8330 C   0  0  0  0  0  0  0  0  0  0  0  0
   -6.9040    7.5440   -2.2690 C   0  0  1  0  0  0  0  0  0  0  0  0
   -7.2170    6.8500   -3.6220 C   0  0  0  0  0  0  0  0  0  0  0  0
   -8.6960    6.3900   -3.5570 C   0  0  0  0  0  0  0  0  0  0  0  0
   -9.2770    7.1170   -2.3210 C   0  0  1  0  0  0  0  0  0  0  0  0
   -9.6150    8.5550   -2.8250 C   0  0  0  0  0  0  0  0  0  0  0  0
  -10.5090    6.4400   -1.6370 C   0  0  2  0  0  0  0  0  0  0  0  0
  -11.7640    6.3250   -2.5200 C   0  0  0  0  0  0  0  0  0  0  0  0
  -12.7080    7.4790   -2.4400 C   0  0  0  0  0  0  0  0  0  0  0  0
  -12.7040    8.4280   -1.4860 C   0  0  0  0  0  0  0  0  0  0  0  0
  -11.7400    8.3440   -0.2950 C   0  0  1  0  0  0  0  0  0  0  0  0
  -12.5140    8.6300    1.0190 C   0  0  0  0  0  0  0  0  0  0  0  0
  -13.2720    9.9530    0.9740 C   0  0  0  0  0  0  0  0  0  0  0  0
  -14.2610    9.9760   -0.1880 C   0  0  2  0  0  0  0  0  0  0  0  0
  -15.2870    9.0110    0.0610 O   0  0  0  0  0  0  0  0  0  0  0  0
  -13.5970    9.6900   -1.5640 C   0  0  0  0  0  0  0  0  0  0  0  0
  -12.7080   10.8910   -1.9720 C   0  0  0  0  0  0  0  0  0  0  0  0
  -14.7240    9.6020   -2.6280 C   0  0  0  0  0  0  0  0  0  0  0  0
  -10.8590    7.0240   -0.2080 C   0  0  1  0  0  0  0  0  0  0  0  0
  -11.6430    5.9090    0.5480 C   0  0  0  0  0  0  0  0  0  0  0  0
   -9.5710    7.3200    0.6480 C   0  0  0  0  0  0  0  0  0  0  0  0
   -8.3480    7.8760   -0.1050 C   0  0  0  0  0  0  0  0  0  0  0  0
   -8.0430    7.0360   -1.3500 C   0  0  2  0  0  0  0  0  0  0  0  0
   -7.6770    5.5890   -0.8730 C   0  0  0  0  0  0  0  0  0  0  0  0
   -5.1205    5.4767   -0.7041 H   0  0  0  0  0  0  0  0  0  0  0  0
   -5.9925    5.2553   -2.2588 H   0  0  0  0  0  0  0  0  0  0  0  0
   -4.2285    5.5944   -2.2588 H   0  0  0  0  0  0  0  0  0  0  0  0
   -4.7694    7.7523   -2.5235 H   0  0  0  0  0  0  0  0  0  0  0  0
   -6.1957    8.4049   -0.0943 H   0  0  0  0  0  0  0  0  0  0  0  0
   -4.8438    7.2201    0.2393 H   0  0  0  0  0  0  0  0  0  0  0  0
   -4.4895    9.8268   -1.2823 H   0  0  0  0  0  0  0  0  0  0  0  0
   -4.1945    9.6132    0.4937 H   0  0  0  0  0  0  0  0  0  0  0  0
   -3.2399    7.7065   -1.2618 H   0  0  0  0  0  0  0  0  0  0  0  0
   -1.8366   11.3971   -0.1567 H   0  0  0  0  0  0  0  0  0  0  0  0
   -0.9355   11.4104   -1.7106 H   0  0  0  0  0  0  0  0  0  0  0  0
   -2.7232   11.2350   -1.7106 H   0  0  0  0  0  0  0  0  0  0  0  0
    0.2509    8.5274   -1.1063 H   0  0  0  0  0  0  0  0  0  0  0  0
   -0.8324    8.0710   -2.4645 H   0  0  0  0  0  0  0  0  0  0  0  0
   -0.0176    9.6719   -2.4645 H   0  0  0  0  0  0  0  0  0  0  0  0
   -6.9072    8.6436   -2.2999 H   0  0  0  0  0  0  0  0  0  0  0  0
   -7.0766    7.5578   -4.4522 H   0  0  0  0  0  0  0  0  0  0  0  0
   -6.5449    5.9961   -3.7927 H   0  0  0  0  0  0  0  0  0  0  0  0
   -9.2348    6.6847   -4.4696 H   0  0  0  0  0  0  0  0  0  0  0  0
   -8.7898    5.2967   -3.4801 H   0  0  0  0  0  0  0  0  0  0  0  0
   -9.7710    9.2188   -1.9619 H   0  0  0  0  0  0  0  0  0  0  0  0
   -8.7818    8.9353   -3.4342 H   0  0  0  0  0  0  0  0  0  0  0  0
  -10.5304    8.5243   -3.4342 H   0  0  0  0  0  0  0  0  0  0  0  0
  -10.1567    5.4094   -1.4831 H   0  0  0  0  0  0  0  0  0  0  0  0
  -11.4362    6.2259   -3.5653 H   0  0  0  0  0  0  0  0  0  0  0  0
  -12.3191    5.4514   -2.1476 H   0  0  0  0  0  0  0  0  0  0  0  0
  -13.4715    7.5603   -3.2277 H   0  0  0  0  0  0  0  0  0  0  0  0
  -10.9835    9.1252   -0.4607 H   0  0  0  0  0  0  0  0  0  0  0  0
  -13.2344    7.8162    1.1884 H   0  0  0  0  0  0  0  0  0  0  0  0
  -11.7776    8.6941    1.8336 H   0  0  0  0  0  0  0  0  0  0  0  0
  -13.8220   10.0850    1.9174 H   0  0  0  0  0  0  0  0  0  0  0  0
  -12.5470   10.7683    0.8340 H   0  0  0  0  0  0  0  0  0  0  0  0
  -14.6774   10.9925   -0.2465 H   0  0  0  0  0  0  0  0  0  0  0  0
  -15.1880    8.3000   -0.5940 H   0  0  0  0  0  0  0  0  0  0  0  0
  -12.3350   11.3949   -1.0681 H   0  0  0  0  0  0  0  0  0  0  0  0
  -11.8569   10.5312   -2.5688 H   0  0  0  0  0  0  0  0  0  0  0  0
  -13.3007   11.5999   -2.5688 H   0  0  0  0  0  0  0  0  0  0  0  0
  -15.6988    9.5259   -2.1241 H   0  0  0  0  0  0  0  0  0  0  0  0
  -14.7058   10.5043   -3.2569 H   0  0  0  0  0  0  0  0  0  0  0  0
  -14.5659    8.7135   -3.2569 H   0  0  0  0  0  0  0  0  0  0  0  0
  -11.5381    6.0582    1.6328 H   0  0  0  0  0  0  0  0  0  0  0  0
  -12.7068    5.9576    0.2724 H   0  0  0  0  0  0  0  0  0  0  0  0
  -11.2374    4.9244    0.2724 H   0  0  0  0  0  0  0  0  0  0  0  0
   -9.8466    8.0523    1.4212 H   0  0  0  0  0  0  0  0  0  0  0  0
   -9.2505    6.3406    1.0329 H   0  0  0  0  0  0  0  0  0  0  0  0
   -8.5544    8.9121   -0.4115 H   0  0  0  0  0  0  0  0  0  0  0  0
   -7.4766    7.8395    0.5653 H   0  0  0  0  0  0  0  0  0  0  0  0
   -7.6688    5.5565    0.2265 H   0  0  0  0  0  0  0  0  0  0  0  0
   -8.4234    4.8771   -1.2553 H   0  0  0  0  0  0  0  0  0  0  0  0
   -6.6819    5.3176   -1.2553 H   0  0  0  0  0  0  0  0  0  0  0  0
  1  2  1  0
  2  3  1  0
  3  4  1  0
  4  5  1  0
  5  6  1  0
  6  7  1  0
  7  8  1  0
  7  9  1  0
  2 10  1  0
 10 11  1  0
 11 12  1  0
 12 13  1  0
 13 14  1  6
 13 15  1  0
 15 16  1  0
 16 17  1  0
 17 18  2  0
 18 19  1  0
 19 20  1  0
 20 21  1  0
 21 22  1  0
 22 23  1  0
 22 24  1  0
 24 25  1  0
 24 26  1  0
 19 27  1  0
 27 28  1  1
 27 29  1  0
 29 30  1  0
 30 31  1  0
 31 32  1  1
  7  5  1  0
 31 10  1  0
 31 13  1  0
 27 15  1  0
 24 18  1  0
  1 33  1  0
  1 34  1  0
  1 35  1  0
  2 36  1  6
  3 37  1  0
  3 38  1  0
  4 39  1  0
  4 40  1  0
  5 41  1  6
  8 42  1  0
  8 43  1  0
  8 44  1  0
  9 45  1  0
  9 46  1  0
  9 47  1  0
 10 48  1  6
 11 49  1  0
 11 50  1  0
 12 51  1  0
 12 52  1  0
 14 53  1  0
 14 54  1  0
 14 55  1  0
 15 56  1  1
 16 57  1  0
 16 58  1  0
 17 59  1  0
 19 60  1  6
 20 61  1  0
 20 62  1  0
 21 63  1  0
 21 64  1  0
 22 65  1  6
 23 66  1  0
 25 67  1  0
 25 68  1  0
 25 69  1  0
 26 70  1  0
 26 71  1  0
 26 72  1  0
 28 73  1  0
 28 74  1  0
 28 75  1  0
 29 76  1  0
 29 77  1  0
 30 78  1  0
 30 79  1  0
 32 80  1  0
 32 81  1  0
 32 82  1  0
M  END
>  <meeko>  (3) 
{"is_sidechain": [false], "intermolecular_energy": 2.731, "internal_energy": -0.839}

$$$$
EPH_relaxed_0001_pdb2pqr_Repair_194_r2_0001_out
     RDKit          3D

 82 86  0  0  0  0  0  0  0  0999 V2000
    0.1350    8.7110   -2.1610 C   0  0  0  0  0  0  0  0  0  0  0  0
    0.8600    9.8420   -2.8950 C   0  0  2  0  0  0  0  0  0  0  0  0
    2.3770    9.8310   -2.6250 C   0  0  0  0  0  0  0  0  0  0  0  0
    3.2110   10.4110   -3.7710 C   0  0  0  0  0  0  0  0  0  0  0  0
    4.6050   10.7410   -3.3310 C   0  0  2  0  0  0  0  0  0  0  0  0
    5.1390   11.9490   -3.8880 O   0  0  0  0  0  0  0  0  0  0  0  0
    5.8010   10.7310   -4.2640 C   0  0  0  0  0  0  0  0  0  0  0  0
    5.6590   10.3830   -5.7120 C   0  0  0  0  0  0  0  0  0  0  0  0
    7.1690   10.5820   -3.6730 C   0  0  0  0  0  0  0  0  0  0  0  0
    0.2680   11.1870   -2.4900 C   0  0  1  0  0  0  0  0  0  0  0  0
   -0.9740   11.0420   -1.5710 C   0  0  0  0  0  0  0  0  0  0  0  0
   -0.9350   12.2290   -0.5750 C   0  0  0  0  0  0  0  0  0  0  0  0
    0.1260   13.1920   -1.1580 C   0  0  1  0  0  0  0  0  0  0  0  0
   -0.6230   13.9880   -2.2730 C   0  0  0  0  0  0  0  0  0  0  0  0
    0.8250   14.1480   -0.1370 C   0  0  2  0  0  0  0  0  0  0  0  0
   -0.1100   15.1440    0.5710 C   0  0  0  0  0  0  0  0  0  0  0  0
   -0.2790   16.4590   -0.1170 C   0  0  0  0  0  0  0  0  0  0  0  0
    0.5090   16.9350   -1.0980 C   0  0  0  0  0  0  0  0  0  0  0  0
    1.7600   16.1680   -1.5460 C   0  0  1  0  0  0  0  0  0  0  0  0
    2.9560   17.1500   -1.6600 C   0  0  0  0  0  0  0  0  0  0  0  0
    2.6500   18.3430   -2.5600 C   0  0  0  0  0  0  0  0  0  0  0  0
    1.4350   19.1140   -2.0490 C   0  0  2  0  0  0  0  0  0  0  0  0
    1.7660   19.7170   -0.7950 O   0  0  0  0  0  0  0  0  0  0  0  0
    0.1700   18.2250   -1.8850 C   0  0  0  0  0  0  0  0  0  0  0  0
   -0.3640   17.8180   -3.2800 C   0  0  0  0  0  0  0  0  0  0  0  0
   -0.9400   19.0910   -1.2310 C   0  0  0  0  0  0  0  0  0  0  0  0
    2.1150   14.8690   -0.7030 C   0  0  1  0  0  0  0  0  0  0  0  0
    2.9860   15.2570    0.5310 C   0  0  0  0  0  0  0  0  0  0  0  0
    2.9980   13.9090   -1.5860 C   0  0  0  0  0  0  0  0  0  0  0  0
    2.2490   12.9060   -2.4840 C   0  0  0  0  0  0  0  0  0  0  0  0
    1.1780   12.1520   -1.6890 C   0  0  2  0  0  0  0  0  0  0  0  0
    1.9040   11.3250   -0.5740 C   0  0  0  0  0  0  0  0  0  0  0  0
    0.2297    8.8587   -1.0751 H   0  0  0  0  0  0  0  0  0  0  0  0
   -0.9290    8.7155   -2.4402 H   0  0  0  0  0  0  0  0  0  0  0  0
    0.5833    7.7461   -2.4402 H   0  0  0  0  0  0  0  0  0  0  0  0
    0.7164    9.6821   -3.9738 H   0  0  0  0  0  0  0  0  0  0  0  0
    2.5727   10.4232   -1.7189 H   0  0  0  0  0  0  0  0  0  0  0  0
    2.6754    8.7784   -2.5113 H   0  0  0  0  0  0  0  0  0  0  0  0
    3.2596    9.6731   -4.5853 H   0  0  0  0  0  0  0  0  0  0  0  0
    2.7293   11.3404   -4.1090 H   0  0  0  0  0  0  0  0  0  0  0  0
    4.4305   10.2752   -2.3499 H   0  0  0  0  0  0  0  0  0  0  0  0
    5.2449    9.3683   -5.8063 H   0  0  0  0  0  0  0  0  0  0  0  0
    4.9822   11.1017   -6.1972 H   0  0  0  0  0  0  0  0  0  0  0  0
    6.6454   10.4231   -6.1972 H   0  0  0  0  0  0  0  0  0  0  0  0
    7.0971   10.5898   -2.5754 H   0  0  0  0  0  0  0  0  0  0  0  0
    7.6101    9.6305   -4.0048 H   0  0  0  0  0  0  0  0  0  0  0  0
    7.8046   11.4162   -4.0048 H   0  0  0  0  0  0  0  0  0  0  0  0
    0.0609   11.6041   -3.4866 H   0  0  0  0  0  0  0  0  0  0  0  0
   -1.8954   11.0809   -2.1706 H   0  0  0  0  0  0  0  0  0  0  0  0
   -0.9610   10.0795   -1.0387 H   0  0  0  0  0  0  0  0  0  0  0  0
   -1.9171   12.7212   -0.5186 H   0  0  0  0  0  0  0  0  0  0  0  0
   -0.6897   11.9076    0.4480 H   0  0  0  0  0  0  0  0  0  0  0  0
   -1.3064   14.7143   -1.8089 H   0  0  0  0  0  0  0  0  0  0  0  0
    0.1090   14.5207   -2.8978 H   0  0  0  0  0  0  0  0  0  0  0  0
   -1.1992   13.2898   -2.8978 H   0  0  0  0  0  0  0  0  0  0  0  0
    1.1646   13.4512    0.6434 H   0  0  0  0  0  0  0  0  0  0  0  0
   -1.1017   14.6761    0.6585 H   0  0  0  0  0  0  0  0  0  0  0  0
    0.3593   15.3657    1.5409 H   0  0  0  0  0  0  0  0  0  0  0  0
   -1.1189   17.0918    0.2058 H   0  0  0  0  0  0  0  0  0  0  0  0
    1.5236   15.7514   -2.5362 H   0  0  0  0  0  0  0  0  0  0  0  0
    3.2044   17.5213   -0.6548 H   0  0  0  0  0  0  0  0  0  0  0  0
    3.7972   16.6009   -2.1082 H   0  0  0  0  0  0  0  0  0  0  0  0
    3.5213   19.0142   -2.5769 H   0  0  0  0  0  0  0  0  0  0  0  0
    2.4306   17.9723   -3.5722 H   0  0  0  0  0  0  0  0  0  0  0  0
    1.1866   19.8761   -2.8024 H   0  0  0  0  0  0  0  0  0  0  0  0
    1.7960   19.0100   -0.1280 H   0  0  0  0  0  0  0  0  0  0  0  0
   -1.2337   17.1551   -3.1606 H   0  0  0  0  0  0  0  0  0  0  0  0
   -0.6633   18.7192   -3.8353 H   0  0  0  0  0  0  0  0  0  0  0  0
    0.4256   17.2905   -3.8353 H   0  0  0  0  0  0  0  0  0  0  0  0
   -0.8577   19.0268   -0.1360 H   0  0  0  0  0  0  0  0  0  0  0  0
   -0.8220   20.1381   -1.5468 H   0  0  0  0  0  0  0  0  0  0  0  0
   -1.9269   18.7218   -1.5468 H   0  0  0  0  0  0  0  0  0  0  0  0
    2.4412   15.0143    1.4553 H   0  0  0  0  0  0  0  0  0  0  0  0
    3.9311   14.6948    0.5041 H   0  0  0  0  0  0  0  0  0  0  0  0
    3.2001   16.3356    0.5041 H   0  0  0  0  0  0  0  0  0  0  0  0
    3.6227   14.5373   -2.2379 H   0  0  0  0  0  0  0  0  0  0  0  0
    3.5570   13.2908   -0.8681 H   0  0  0  0  0  0  0  0  0  0  0  0
    1.7675   13.4514   -3.3090 H   0  0  0  0  0  0  0  0  0  0  0  0
    2.9735   12.1768   -2.8757 H   0  0  0  0  0  0  0  0  0  0  0  0
    1.5870   11.6862    0.4155 H   0  0  0  0  0  0  0  0  0  0  0  0
    1.6424   10.2616   -0.6773 H   0  0  0  0  0  0  0  0  0  0  0  0
    2.9924   11.4466   -0.6773 H   0  0  0  0  0  0  0  0  0  0  0  0
  1  2  1  0
  2  3  1  0
  3  4  1  0
  4  5  1  0
  5  6  1  0
  6  7  1  0
  7  8  1  0
  7  9  1  0
  2 10  1  0
 10 11  1  0
 11 12  1  0
 12 13  1  0
 13 14  1  6
 13 15  1  0
 15 16  1  0
 16 17  1  0
 17 18  2  0
 18 19  1  0
 19 20  1  0
 20 21  1  0
 21 22  1  0
 22 23  1  0
 22 24  1  0
 24 25  1  0
 24 26  1  0
 19 27  1  0
 27 28  1  1
 27 29  1  0
 29 30  1  0
 30 31  1  0
 31 32  1  1
  7  5  1  0
 31 10  1  0
 31 13  1  0
 27 15  1  0
 24 18  1  0
  1 33  1  0
  1 34  1  0
  1 35  1  0
  2 36  1  6
  3 37  1  0
  3 38  1  0
  4 39  1  0
  4 40  1  0
  5 41  1  1
  8 42  1  0
  8 43  1  0
  8 44  1  0
  9 45  1  0
  9 46  1  0
  9 47  1  0
 10 48  1  6
 11 49  1  0
 11 50  1  0
 12 51  1  0
 12 52  1  0
 14 53  1  0
 14 54  1  0
 14 55  1  0
 15 56  1  1
 16 57  1  0
 16 58  1  0
 17 59  1  0
 19 60  1  6
 20 61  1  0
 20 62  1  0
 21 63  1  0
 21 64  1  0
 22 65  1  6
 23 66  1  0
 25 67  1  0
 25 68  1  0
 25 69  1  0
 26 70  1  0
 26 71  1  0
 26 72  1  0
 28 73  1  0
 28 74  1  0
 28 75  1  0
 29 76  1  0
 29 77  1  0
 30 78  1  0
 30 79  1  0
 32 80  1  0
 32 81  1  0
 32 82  1  0
M  END
>  <meeko>  (4) 
{"is_sidechain": [false], "intermolecular_energy": 2.731, "internal_energy": -0.839}

$$$$
EPH_relaxed_0001_pdb2pqr_Repair_194_r2_0001_out
     RDKit          3D

 82 86  0  0  0  0  0  0  0  0999 V2000
   -0.3950   16.7640   -0.2370 C   0  0  0  0  0  0  0  0  0  0  0  0
   -0.6160   15.4440    0.5090 C   0  0  2  0  0  0  0  0  0  0  0  0
   -0.7540   15.6530    2.0300 C   0  0  0  0  0  0  0  0  0  0  0  0
   -1.0310   14.3620    2.8060 C   0  0  0  0  0  0  0  0  0  0  0  0
   -0.6160   14.4790    4.2410 C   0  0  2  0  0  0  0  0  0  0  0  0
    0.1010   13.3470    4.7510 O   0  0  0  0  0  0  0  0  0  0  0  0
   -1.1790   13.6070    5.3480 C   0  0  0  0  0  0  0  0  0  0  0  0
   -2.2060   12.5550    5.0660 C   0  0  0  0  0  0  0  0  0  0  0  0
   -1.0980   14.1000    6.7590 C   0  0  0  0  0  0  0  0  0  0  0  0
    0.5310   14.4840    0.2170 C   0  0  1  0  0  0  0  0  0  0  0  0
    0.8240   13.5260    1.4020 C   0  0  0  0  0  0  0  0  0  0  0  0
    1.2570   12.1710    0.7850 C   0  0  0  0  0  0  0  0  0  0  0  0
    1.5190   12.4870   -0.7060 C   0  0  1  0  0  0  0  0  0  0  0  0
    2.9530   13.1040   -0.7400 C   0  0  0  0  0  0  0  0  0  0  0  0
    1.3830   11.2890   -1.7010 C   0  0  2  0  0  0  0  0  0  0  0  0
    2.3760   10.1350   -1.4730 C   0  0  0  0  0  0  0  0  0  0  0  0
    3.6630   10.2450   -2.2200 C   0  0  0  0  0  0  0  0  0  0  0  0
    3.8990   11.0730   -3.2550 C   0  0  0  0  0  0  0  0  0  0  0  0
    2.7800   11.9450   -3.8360 C   0  0  1  0  0  0  0  0  0  0  0  0
    2.7960   11.8450   -5.3840 C   0  0  0  0  0  0  0  0  0  0  0  0
    4.1610   12.1760   -5.9780 C   0  0  0  0  0  0  0  0  0  0  0  0
    5.2380   11.2490   -5.4190 C   0  0  2  0  0  0  0  0  0  0  0  0
    4.9860    9.9180   -5.8810 O   0  0  0  0  0  0  0  0  0  0  0  0
    5.3100   11.2590   -3.8660 C   0  0  0  0  0  0  0  0  0  0  0  0
    5.8750   12.6160   -3.3800 C   0  0  0  0  0  0  0  0  0  0  0  0
    6.3360   10.1790   -3.4290 C   0  0  0  0  0  0  0  0  0  0  0  0
    1.3310   11.7130   -3.2250 C   0  0  1  0  0  0  0  0  0  0  0  0
    0.6110   10.5580   -3.9850 C   0  0  0  0  0  0  0  0  0  0  0  0
    0.4620   13.0060   -3.4560 C   0  0  0  0  0  0  0  0  0  0  0  0
    0.5480   14.1030   -2.3780 C   0  0  0  0  0  0  0  0  0  0  0  0
    0.3580   13.5120   -0.9780 C   0  0  2  0  0  0  0  0  0  0  0  0
   -1.0840   12.9040   -0.9070 C   0  0  0  0  0  0  0  0  0  0  0  0
   -0.2587   17.5779    0.4904 H   0  0  0  0  0  0  0  0  0  0  0  0
    0.5020   16.6826   -0.8685 H   0  0  0  0  0  0  0  0  0  0  0  0
   -1.2696   16.9792   -0.8685 H   0  0  0  0  0  0  0  0  0  0  0  0
   -1.5618   15.0139    0.1479 H   0  0  0  0  0  0  0  0  0  0  0  0
    0.1822   16.0906    2.4068 H   0  0  0  0  0  0  0  0  0  0  0  0
   -1.6191   16.3142    2.1865 H   0  0  0  0  0  0  0  0  0  0  0  0
   -2.1084   14.1442    2.7629 H   0  0  0  0  0  0  0  0  0  0  0  0
   -0.4468   13.5521    2.3447 H   0  0  0  0  0  0  0  0  0  0  0  0
   -0.5042   15.5691    4.1446 H   0  0  0  0  0  0  0  0  0  0  0  0
   -2.5940   12.1575    6.0155 H   0  0  0  0  0  0  0  0  0  0  0  0
   -3.0320   12.9946    4.4877 H   0  0  0  0  0  0  0  0  0  0  0  0
   -1.7466   11.7398    4.4877 H   0  0  0  0  0  0  0  0  0  0  0  0
   -1.2367   13.2561    7.4508 H   0  0  0  0  0  0  0  0  0  0  0  0
   -0.1126   14.5575    6.9316 H   0  0  0  0  0  0  0  0  0  0  0  0
   -1.8852   14.8487    6.9316 H   0  0  0  0  0  0  0  0  0  0  0  0
    1.3286   15.2096   -0.0007 H   0  0  0  0  0  0  0  0  0  0  0  0
    1.6323   13.9331    2.0273 H   0  0  0  0  0  0  0  0  0  0  0  0
   -0.0637   13.4039    2.0400 H   0  0  0  0  0  0  0  0  0  0  0  0
    2.1716   11.7983    1.2695 H   0  0  0  0  0  0  0  0  0  0  0  0
    0.4944   11.3895    0.9179 H   0  0  0  0  0  0  0  0  0  0  0  0
    3.3105   13.2578    0.2889 H   0  0  0  0  0  0  0  0  0  0  0  0
    3.6343   12.4194   -1.2664 H   0  0  0  0  0  0  0  0  0  0  0  0
    2.9244   14.0694   -1.2664 H   0  0  0  0  0  0  0  0  0  0  0  0
    0.3914   10.8854   -1.4482 H   0  0  0  0  0  0  0  0  0  0  0  0
    2.6089   10.0942   -0.3987 H   0  0  0  0  0  0  0  0  0  0  0  0
    1.8811    9.2283   -1.8511 H   0  0  0  0  0  0  0  0  0  0  0  0
    4.4892    9.5942   -1.8976 H   0  0  0  0  0  0  0  0  0  0  0  0
    3.0066   12.9757   -3.5258 H   0  0  0  0  0  0  0  0  0  0  0  0
    2.5249   10.8191   -5.6738 H   0  0  0  0  0  0  0  0  0  0  0  0
    2.0758   12.5797   -5.7732 H   0  0  0  0  0  0  0  0  0  0  0  0
    4.1163   12.0583   -7.0708 H   0  0  0  0  0  0  0  0  0  0  0  0
    4.4175   13.2124   -5.7133 H   0  0  0  0  0  0  0  0  0  0  0  0
    6.2097   11.6172   -5.7798 H   0  0  0  0  0  0  0  0  0  0  0  0
    4.6530    9.9810   -6.7920 H   0  0  0  0  0  0  0  0  0  0  0  0
    5.8837   12.6368   -2.2802 H   0  0  0  0  0  0  0  0  0  0  0  0
    6.9005   12.7424   -3.7572 H   0  0  0  0  0  0  0  0  0  0  0  0
    5.2422   13.4329   -3.7572 H   0  0  0  0  0  0  0  0  0  0  0  0
    6.3773   10.1356   -2.3306 H   0  0  0  0  0  0  0  0  0  0  0  0
    6.0277    9.1995   -3.8234 H   0  0  0  0  0  0  0  0  0  0  0  0
    7.3300   10.4367   -3.8234 H   0  0  0  0  0  0  0  0  0  0  0  0
    0.1742    9.8572   -3.2583 H   0  0  0  0  0  0  0  0  0  0  0  0
   -0.1868   10.9760   -4.6165 H   0  0  0  0  0  0  0  0  0  0  0  0
    1.3376   10.0257   -4.6165 H   0  0  0  0  0  0  0  0  0  0  0  0
    0.7770   13.4524   -4.4107 H   0  0  0  0  0  0  0  0  0  0  0  0
   -0.5817   12.6594   -3.4309 H   0  0  0  0  0  0  0  0  0  0  0  0
    1.5348   14.5858   -2.4339 H   0  0  0  0  0  0  0  0  0  0  0  0
   -0.2507   14.8371   -2.5601 H   0  0  0  0  0  0  0  0  0  0  0  0
   -1.3782   12.7800    0.1456 H   0  0  0  0  0  0  0  0  0  0  0  0
   -1.7921   13.5801   -1.4084 H   0  0  0  0  0  0  0  0  0  0  0  0
   -1.0942   11.9250   -1.4084 H   0  0  0  0  0  0  0  0  0  0  0  0
  1  2  1  0
  2  3  1  0
  3  4  1  0
  4  5  1  0
  5  6  1  0
  6  7  1  0
  7  8  1  0
  7  9  1  0
  2 10  1  0
 10 11  1  0
 11 12  1  0
 12 13  1  0
 13 14  1  1
 13 15  1  0
 15 16  1  0
 16 17  1  0
 17 18  2  0
 18 19  1  0
 19 20  1  0
 20 21  1  0
 21 22  1  0
 22 23  1  0
 22 24  1  0
 24 25  1  0
 24 26  1  0
 19 27  1  0
 27 28  1  6
 27 29  1  0
 29 30  1  0
 30 31  1  0
 31 32  1  6
  7  5  1  0
 31 10  1  0
 31 13  1  0
 27 15  1  0
 24 18  1  0
  1 33  1  0
  1 34  1  0
  1 35  1  0
  2 36  1  6
  3 37  1  0
  3 38  1  0
  4 39  1  0
  4 40  1  0
  5 41  1  1
  8 42  1  0
  8 43  1  0
  8 44  1  0
  9 45  1  0
  9 46  1  0
  9 47  1  0
 10 48  1  6
 11 49  1  0
 11 50  1  0
 12 51  1  0
 12 52  1  0
 14 53  1  0
 14 54  1  0
 14 55  1  0
 15 56  1  1
 16 57  1  0
 16 58  1  0
 17 59  1  0
 19 60  1  6
 20 61  1  0
 20 62  1  0
 21 63  1  0
 21 64  1  0
 22 65  1  6
 23 66  1  0
 25 67  1  0
 25 68  1  0
 25 69  1  0
 26 70  1  0
 26 71  1  0
 26 72  1  0
 28 73  1  0
 28 74  1  0
 28 75  1  0
 29 76  1  0
 29 77  1  0
 30 78  1  0
 30 79  1  0
 32 80  1  0
 32 81  1  0
 32 82  1  0
M  END
>  <meeko>  (5) 
{"is_sidechain": [false], "intermolecular_energy": 2.731, "internal_energy": -0.839}

$$$$
EPH_relaxed_0001_pdb2pqr_Repair_194_r2_0001_out
     RDKit          3D

 82 86  0  0  0  0  0  0  0  0999 V2000
   -1.0890   14.4220    2.8760 C   0  0  0  0  0  0  0  0  0  0  0  0
   -0.2650   15.1210    1.7910 C   0  0  2  0  0  0  0  0  0  0  0  0
   -1.1540   15.7360    0.6920 C   0  0  0  0  0  0  0  0  0  0  0  0
   -1.5240   17.2000    0.9470 C   0  0  0  0  0  0  0  0  0  0  0  0
   -0.8870   18.1150   -0.0540 C   0  0  2  0  0  0  0  0  0  0  0  0
   -0.5310   19.4070    0.4570 O   0  0  0  0  0  0  0  0  0  0  0  0
   -1.5430   19.3850   -0.5630 C   0  0  0  0  0  0  0  0  0  0  0  0
   -2.8970   19.8090   -0.0870 C   0  0  0  0  0  0  0  0  0  0  0  0
   -1.0900   19.9490   -1.8740 C   0  0  0  0  0  0  0  0  0  0  0  0
    0.7220   14.1370    1.1730 C   0  0  1  0  0  0  0  0  0  0  0  0
    1.0820   12.9710    2.1320 C   0  0  0  0  0  0  0  0  0  0  0  0
    1.2780   11.7110    1.2500 C   0  0  0  0  0  0  0  0  0  0  0  0
    1.3530   12.2550   -0.1960 C   0  0  1  0  0  0  0  0  0  0  0  0
    2.8220   12.7530   -0.3620 C   0  0  0  0  0  0  0  0  0  0  0  0
    0.9500   11.2570   -1.3310 C   0  0  2  0  0  0  0  0  0  0  0  0
    1.8400   10.0070   -1.4470 C   0  0  0  0  0  0  0  0  0  0  0  0
    3.0100   10.1400   -2.3640 C   0  0  0  0  0  0  0  0  0  0  0  0
    3.1780   11.1110   -3.2810 C   0  0  0  0  0  0  0  0  0  0  0  0
    2.0830   12.1560   -3.5330 C   0  0  1  0  0  0  0  0  0  0  0  0
    1.8640   12.3190   -5.0600 C   0  0  0  0  0  0  0  0  0  0  0  0
    3.1560   12.6370   -5.8060 C   0  0  0  0  0  0  0  0  0  0  0  0
    4.2000   11.5470   -5.5780 C   0  0  2  0  0  0  0  0  0  0  0  0
    3.7460   10.3380   -6.1950 O   0  0  0  0  0  0  0  0  0  0  0  0
    4.4960   11.2870   -4.0750 C   0  0  0  0  0  0  0  0  0  0  0  0
    5.2640   12.4930   -3.4790 C   0  0  0  0  0  0  0  0  0  0  0  0
    5.4580   10.0720   -3.9810 C   0  0  0  0  0  0  0  0  0  0  0  0
    0.7220   11.9380   -2.7410 C   0  0  1  0  0  0  0  0  0  0  0  0
   -0.2160   10.9880   -3.5470 C   0  0  0  0  0  0  0  0  0  0  0  0
   -0.0320   13.3150   -2.6260 C   0  0  0  0  0  0  0  0  0  0  0  0
    0.3230   14.2030   -1.4180 C   0  0  0  0  0  0  0  0  0  0  0  0
    0.2780   13.3990   -0.1150 C   0  0  2  0  0  0  0  0  0  0  0  0
   -1.1940   12.9030    0.0900 C   0  0  0  0  0  0  0  0  0  0  0  0
   -0.7259   14.7300    3.8676 H   0  0  0  0  0  0  0  0  0  0  0  0
   -2.1475   14.7018    2.7699 H   0  0  0  0  0  0  0  0  0  0  0  0
   -0.9855   13.3320    2.7699 H   0  0  0  0  0  0  0  0  0  0  0  0
    0.2829   15.9451    2.2713 H   0  0  0  0  0  0  0  0  0  0  0  0
   -0.6149   15.6757   -0.2649 H   0  0  0  0  0  0  0  0  0  0  0  0
   -2.0936   15.1642    0.6812 H   0  0  0  0  0  0  0  0  0  0  0  0
   -2.6169   17.3077    0.8836 H   0  0  0  0  0  0  0  0  0  0  0  0
   -1.1579   17.4771    1.9466 H   0  0  0  0  0  0  0  0  0  0  0  0
   -0.4263   17.2627   -0.5749 H   0  0  0  0  0  0  0  0  0  0  0  0
   -2.9139   19.8143    1.0129 H   0  0  0  0  0  0  0  0  0  0  0  0
   -3.1177   20.8193   -0.4620 H   0  0  0  0  0  0  0  0  0  0  0  0
   -3.6545   19.1051   -0.4620 H   0  0  0  0  0  0  0  0  0  0  0  0
   -0.4105   20.7951   -1.6940 H   0  0  0  0  0  0  0  0  0  0  0  0
   -0.5631   19.1707   -2.4456 H   0  0  0  0  0  0  0  0  0  0  0  0
   -1.9636   20.2956   -2.4456 H   0  0  0  0  0  0  0  0  0  0  0  0
    1.5506   14.8241    0.9464 H   0  0  0  0  0  0  0  0  0  0  0  0
    2.0100   13.2007    2.6760 H   0  0  0  0  0  0  0  0  0  0  0  0
    0.2880   12.8124    2.8766 H   0  0  0  0  0  0  0  0  0  0  0  0
    2.2093   11.1905    1.5179 H   0  0  0  0  0  0  0  0  0  0  0  0
    0.4657   10.9806    1.3794 H   0  0  0  0  0  0  0  0  0  0  0  0
    3.2718   12.9055    0.6302 H   0  0  0  0  0  0  0  0  0  0  0  0
    3.4034   12.0017   -0.9166 H   0  0  0  0  0  0  0  0  0  0  0  0
    2.8267   13.7029   -0.9166 H   0  0  0  0  0  0  0  0  0  0  0  0
   -0.0307   10.8940   -0.9897 H   0  0  0  0  0  0  0  0  0  0  0  0
    2.2205    9.7664   -0.4433 H   0  0  0  0  0  0  0  0  0  0  0  0
    1.2039    9.2196   -1.8777 H   0  0  0  0  0  0  0  0  0  0  0  0
    3.8017    9.3806   -2.2837 H   0  0  0  0  0  0  0  0  0  0  0  0
    2.4580   13.0985   -3.1075 H   0  0  0  0  0  0  0  0  0  0  0  0
    1.4483   11.3818   -5.4586 H   0  0  0  0  0  0  0  0  0  0  0  0
    1.1755   13.1636   -5.2101 H   0  0  0  0  0  0  0  0  0  0  0  0
    2.9414   12.7105   -6.8824 H   0  0  0  0  0  0  0  0  0  0  0  0
    3.5547   13.5897   -5.4273 H   0  0  0  0  0  0  0  0  0  0  0  0
    5.1423   11.8933   -6.0277 H   0  0  0  0  0  0  0  0  0  0  0  0
    4.5160    9.9140   -6.6110 H   0  0  0  0  0  0  0  0  0  0  0  0
    5.2315   12.4419   -2.3807 H   0  0  0  0  0  0  0  0  0  0  0  0
    6.3105   12.4643   -3.8165 H   0  0  0  0  0  0  0  0  0  0  0  0
    4.7954   13.4292   -3.8165 H   0  0  0  0  0  0  0  0  0  0  0  0
    5.6462    9.8343   -2.9236 H   0  0  0  0  0  0  0  0  0  0  0  0
    5.0005    9.2029   -4.4764 H   0  0  0  0  0  0  0  0  0  0  0  0
    6.4088   10.3180   -4.4764 H   0  0  0  0  0  0  0  0  0  0  0  0
   -0.8131   10.3832   -2.8487 H   0  0  0  0  0  0  0  0  0  0  0  0
   -0.8874   11.5864   -4.1804 H   0  0  0  0  0  0  0  0  0  0  0  0
    0.3909   10.3243   -4.1804 H   0  0  0  0  0  0  0  0  0  0  0  0
    0.1858   13.8908   -3.5376 H   0  0  0  0  0  0  0  0  0  0  0  0
   -1.0913   13.0523   -2.4885 H   0  0  0  0  0  0  0  0  0  0  0  0
    1.3359   14.6094   -1.5554 H   0  0  0  0  0  0  0  0  0  0  0  0
   -0.4131   15.0179   -1.3531 H   0  0  0  0  0  0  0  0  0  0  0  0
   -1.4099   12.8303    1.1662 H   0  0  0  0  0  0  0  0  0  0  0  0
   -1.8896   13.6164   -0.3761 H   0  0  0  0  0  0  0  0  0  0  0  0
   -1.3160   11.9141   -0.3761 H   0  0  0  0  0  0  0  0  0  0  0  0
  1  2  1  0
  2  3  1  0
  3  4  1  0
  4  5  1  0
  5  6  1  0
  6  7  1  0
  7  8  1  0
  7  9  1  0
  2 10  1  0
 10 11  1  0
 11 12  1  0
 12 13  1  0
 13 14  1  6
 13 15  1  0
 15 16  1  0
 16 17  1  0
 17 18  2  0
 18 19  1  0
 19 20  1  0
 20 21  1  0
 21 22  1  0
 22 23  1  0
 22 24  1  0
 24 25  1  0
 24 26  1  0
 19 27  1  0
 27 28  1  6
 27 29  1  0
 29 30  1  0
 30 31  1  0
 31 32  1  1
  7  5  1  0
 31 10  1  0
 31 13  1  0
 27 15  1  0
 24 18  1  0
  1 33  1  0
  1 34  1  0
  1 35  1  0
  2 36  1  1
  3 37  1  0
  3 38  1  0
  4 39  1  0
  4 40  1  0
  5 41  1  6
  8 42  1  0
  8 43  1  0
  8 44  1  0
  9 45  1  0
  9 46  1  0
  9 47  1  0
 10 48  1  6
 11 49  1  0
 11 50  1  0
 12 51  1  0
 12 52  1  0
 14 53  1  0
 14 54  1  0
 14 55  1  0
 15 56  1  1
 16 57  1  0
 16 58  1  0
 17 59  1  0
 19 60  1  1
 20 61  1  0
 20 62  1  0
 21 63  1  0
 21 64  1  0
 22 65  1  6
 23 66  1  0
 25 67  1  0
 25 68  1  0
 25 69  1  0
 26 70  1  0
 26 71  1  0
 26 72  1  0
 28 73  1  0
 28 74  1  0
 28 75  1  0
 29 76  1  0
 29 77  1  0
 30 78  1  0
 30 79  1  0
 32 80  1  0
 32 81  1  0
 32 82  1  0
M  END
>  <meeko>  (6) 
{"is_sidechain": [false], "intermolecular_energy": 2.731, "internal_energy": -0.839}

$$$$
EPH_relaxed_0001_pdb2pqr_Repair_194_r2_0001_out
     RDKit          3D

 82 86  0  0  0  0  0  0  0  0999 V2000
   -4.0600    7.3610   -3.5790 C   0  0  0  0  0  0  0  0  0  0  0  0
   -3.7090    7.2400   -2.0940 C   0  0  2  0  0  0  0  0  0  0  0  0
   -4.9060    6.7530   -1.2520 C   0  0  0  0  0  0  0  0  0  0  0  0
   -6.1920    6.5660   -2.0620 C   0  0  0  0  0  0  0  0  0  0  0  0
   -7.3800    6.3500   -1.1740 C   0  0  2  0  0  0  0  0  0  0  0  0
   -8.4500    5.6090   -1.7750 O   0  0  0  0  0  0  0  0  0  0  0  0
   -8.7400    6.9730   -1.4280 C   0  0  0  0  0  0  0  0  0  0  0  0
   -8.9820    7.8630   -2.6060 C   0  0  0  0  0  0  0  0  0  0  0  0
   -9.6880    7.1140   -0.2780 C   0  0  0  0  0  0  0  0  0  0  0  0
   -3.2130    8.5810   -1.5660 C   0  0  1  0  0  0  0  0  0  0  0  0
   -3.8700    8.9720   -0.2160 C   0  0  0  0  0  0  0  0  0  0  0  0
   -2.7920    9.7240    0.6060 C   0  0  0  0  0  0  0  0  0  0  0  0
   -1.6700   10.0320   -0.4140 C   0  0  1  0  0  0  0  0  0  0  0  0
   -2.1580   11.3040   -1.1750 C   0  0  0  0  0  0  0  0  0  0  0  0
   -0.2350   10.2280    0.1760 C   0  0  2  0  0  0  0  0  0  0  0  0
   -0.0820   11.4170    1.1400 C   0  0  0  0  0  0  0  0  0  0  0  0
    0.3080   12.7090    0.5030 C   0  0  0  0  0  0  0  0  0  0  0  0
    0.8040   12.8490   -0.7410 C   0  0  0  0  0  0  0  0  0  0  0  0
    1.1080   11.6220   -1.6100 C   0  0  1  0  0  0  0  0  0  0  0  0
    2.5090   11.7810   -2.2580 C   0  0  0  0  0  0  0  0  0  0  0  0
    2.6520   13.0910   -3.0270 C   0  0  0  0  0  0  0  0  0  0  0  0
    2.3990   14.2890   -2.1150 C   0  0  2  0  0  0  0  0  0  0  0  0
    3.4450   14.3560   -1.1410 O   0  0  0  0  0  0  0  0  0  0  0  0
    1.0210   14.2340   -1.3990 C   0  0  0  0  0  0  0  0  0  0  0  0
   -0.1110   14.4640   -2.4310 C   0  0  0  0  0  0  0  0  0  0  0  0
    0.9510   15.4240   -0.4050 C   0  0  0  0  0  0  0  0  0  0  0  0
    0.9190   10.2100   -0.9070 C   0  0  1  0  0  0  0  0  0  0  0  0
    2.2260    9.8080   -0.1580 C   0  0  0  0  0  0  0  0  0  0  0  0
    0.6850    9.1120   -2.0120 C   0  0  0  0  0  0  0  0  0  0  0  0
   -0.7690    8.8830   -2.4670 C   0  0  0  0  0  0  0  0  0  0  0  0
   -1.6990    8.7090   -1.2620 C   0  0  2  0  0  0  0  0  0  0  0  0
   -1.2460    7.4240   -0.4890 C   0  0  0  0  0  0  0  0  0  0  0  0
   -5.0953    7.7179   -3.6832 H   0  0  0  0  0  0  0  0  0  0  0  0
   -3.3758    8.0751   -4.0605 H   0  0  0  0  0  0  0  0  0  0  0  0
   -3.9612    6.3769   -4.0605 H   0  0  0  0  0  0  0  0  0  0  0  0
   -2.9126    6.4867   -2.0029 H   0  0  0  0  0  0  0  0  0  0  0  0
   -4.6398    5.7884   -0.7951 H   0  0  0  0  0  0  0  0  0  0  0  0
   -5.1089    7.5309   -0.5012 H   0  0  0  0  0  0  0  0  0  0  0  0
   -6.3623    7.4647   -2.6730 H   0  0  0  0  0  0  0  0  0  0  0  0
   -6.0714    5.6753   -2.6961 H   0  0  0  0  0  0  0  0  0  0  0  0
   -6.7369    6.3214   -0.2820 H   0  0  0  0  0  0  0  0  0  0  0  0
   -9.2556    8.8691   -2.2554 H   0  0  0  0  0  0  0  0  0  0  0  0
   -8.0675    7.9228   -3.2144 H   0  0  0  0  0  0  0  0  0  0  0  0
   -9.8009    7.4515   -3.2144 H   0  0  0  0  0  0  0  0  0  0  0  0
   -9.1322    7.0313    0.6676 H   0  0  0  0  0  0  0  0  0  0  0  0
  -10.1821    8.0955   -0.3283 H   0  0  0  0  0  0  0  0  0  0  0  0
  -10.4463    6.3188   -0.3283 H   0  0  0  0  0  0  0  0  0  0  0  0
   -3.4825    9.2249   -2.4162 H   0  0  0  0  0  0  0  0  0  0  0  0
   -4.7366    9.6262   -0.3921 H   0  0  0  0  0  0  0  0  0  0  0  0
   -4.2262    8.0812    0.3221 H   0  0  0  0  0  0  0  0  0  0  0  0
   -3.2021   10.6546    1.0253 H   0  0  0  0  0  0  0  0  0  0  0  0
   -2.4296    9.1325    1.4597 H   0  0  0  0  0  0  0  0  0  0  0  0
   -2.4538   12.0751   -0.4484 H   0  0  0  0  0  0  0  0  0  0  0  0
   -1.3435   11.6885   -1.8065 H   0  0  0  0  0  0  0  0  0  0  0  0
   -3.0206   11.0451   -1.8065 H   0  0  0  0  0  0  0  0  0  0  0  0
   -0.1088    9.3259    0.7926 H   0  0  0  0  0  0  0  0  0  0  0  0
   -1.0449   11.5668    1.6502 H   0  0  0  0  0  0  0  0  0  0  0  0
    0.7411   11.1528    1.8202 H   0  0  0  0  0  0  0  0  0  0  0  0
    0.1795   13.6239    1.0999 H   0  0  0  0  0  0  0  0  0  0  0  0
    0.3341   11.6041   -2.3915 H   0  0  0  0  0  0  0  0  0  0  0  0
    3.2700   11.7531   -1.4642 H   0  0  0  0  0  0  0  0  0  0  0  0
    2.6413   10.9568   -2.9744 H   0  0  0  0  0  0  0  0  0  0  0  0
    3.6707   13.1589   -3.4363 H   0  0  0  0  0  0  0  0  0  0  0  0
    1.9098   13.1046   -3.8388 H   0  0  0  0  0  0  0  0  0  0  0  0
    2.3874   15.1885   -2.7480 H   0  0  0  0  0  0  0  0  0  0  0  0
    4.1460   13.7420   -1.4190 H   0  0  0  0  0  0  0  0  0  0  0  0
   -1.0561   14.6560   -1.9019 H   0  0  0  0  0  0  0  0  0  0  0  0
    0.1384   15.3298   -3.0620 H   0  0  0  0  0  0  0  0  0  0  0  0
   -0.2192   13.5695   -3.0620 H   0  0  0  0  0  0  0  0  0  0  0  0
    0.9735   15.0421    0.6263 H   0  0  0  0  0  0  0  0  0  0  0  0
    1.8116   16.0894   -0.5684 H   0  0  0  0  0  0  0  0  0  0  0  0
    0.0184   15.9839   -0.5684 H   0  0  0  0  0  0  0  0  0  0  0  0
    2.0572    9.8599    0.9277 H   0  0  0  0  0  0  0  0  0  0  0  0
    2.5074    8.7818   -0.4366 H   0  0  0  0  0  0  0  0  0  0  0  0
    3.0355   10.4987   -0.4366 H   0  0  0  0  0  0  0  0  0  0  0  0
    1.2692    9.4017   -2.8979 H   0  0  0  0  0  0  0  0  0  0  0  0
    0.9933    8.1645   -1.5460 H   0  0  0  0  0  0  0  0  0  0  0  0
   -1.1023    9.7496   -3.0568 H   0  0  0  0  0  0  0  0  0  0  0  0
   -0.8065    7.9668   -3.0746 H   0  0  0  0  0  0  0  0  0  0  0  0
   -1.3101    7.6059    0.5940 H   0  0  0  0  0  0  0  0  0  0  0  0
   -1.9019    6.5833   -0.7591 H   0  0  0  0  0  0  0  0  0  0  0  0
   -0.2078    7.1805   -0.7591 H   0  0  0  0  0  0  0  0  0  0  0  0
  1  2  1  0
  2  3  1  0
  3  4  1  0
  4  5  1  0
  5  6  1  0
  6  7  1  0
  7  8  1  0
  7  9  1  0
  2 10  1  0
 10 11  1  0
 11 12  1  0
 12 13  1  0
 13 14  1  6
 13 15  1  0
 15 16  1  0
 16 17  1  0
 17 18  2  0
 18 19  1  0
 19 20  1  0
 20 21  1  0
 21 22  1  0
 22 23  1  0
 22 24  1  0
 24 25  1  0
 24 26  1  0
 19 27  1  0
 27 28  1  1
 27 29  1  0
 29 30  1  0
 30 31  1  0
 31 32  1  1
  7  5  1  0
 31 10  1  0
 31 13  1  0
 27 15  1  0
 24 18  1  0
  1 33  1  0
  1 34  1  0
  1 35  1  0
  2 36  1  6
  3 37  1  0
  3 38  1  0
  4 39  1  0
  4 40  1  0
  5 41  1  1
  8 42  1  0
  8 43  1  0
  8 44  1  0
  9 45  1  0
  9 46  1  0
  9 47  1  0
 10 48  1  6
 11 49  1  0
 11 50  1  0
 12 51  1  0
 12 52  1  0
 14 53  1  0
 14 54  1  0
 14 55  1  0
 15 56  1  1
 16 57  1  0
 16 58  1  0
 17 59  1  0
 19 60  1  6
 20 61  1  0
 20 62  1  0
 21 63  1  0
 21 64  1  0
 22 65  1  6
 23 66  1  0
 25 67  1  0
 25 68  1  0
 25 69  1  0
 26 70  1  0
 26 71  1  0
 26 72  1  0
 28 73  1  0
 28 74  1  0
 28 75  1  0
 29 76  1  0
 29 77  1  0
 30 78  1  0
 30 79  1  0
 32 80  1  0
 32 81  1  0
 32 82  1  0
M  END
>  <meeko>  (7) 
{"is_sidechain": [false], "intermolecular_energy": 2.731, "internal_energy": -0.839}

$$$$
EPH_relaxed_0001_pdb2pqr_Repair_194_r2_0001_out
     RDKit          3D

 82 86  0  0  0  0  0  0  0  0999 V2000
   -0.8400   16.3440   -5.8180 C   0  0  0  0  0  0  0  0  0  0  0  0
    0.2380   15.6320   -6.6400 C   0  0  2  0  0  0  0  0  0  0  0  0
   -0.1770   15.4570   -8.1140 C   0  0  0  0  0  0  0  0  0  0  0  0
    0.4500   16.4880   -9.0570 C   0  0  0  0  0  0  0  0  0  0  0  0
    1.8470   16.1070   -9.4440 C   0  0  2  0  0  0  0  0  0  0  0  0
    2.3060   16.6840  -10.6740 O   0  0  0  0  0  0  0  0  0  0  0  0
    2.1770   15.2530  -10.6540 C   0  0  0  0  0  0  0  0  0  0  0  0
    1.1030   14.7260  -11.5530 C   0  0  0  0  0  0  0  0  0  0  0  0
    3.4870   14.5300  -10.6830 C   0  0  0  0  0  0  0  0  0  0  0  0
    0.5510   14.2750   -6.0210 C   0  0  1  0  0  0  0  0  0  0  0  0
    1.8040   13.6080   -6.6480 C   0  0  0  0  0  0  0  0  0  0  0  0
    2.5160   12.8330   -5.5090 C   0  0  0  0  0  0  0  0  0  0  0  0
    1.4860   12.8030   -4.3560 C   0  0  1  0  0  0  0  0  0  0  0  0
    0.5160   11.6340   -4.7150 C   0  0  0  0  0  0  0  0  0  0  0  0
    2.0690   12.6470   -2.9130 C   0  0  2  0  0  0  0  0  0  0  0  0
    2.8290   11.3350   -2.6550 C   0  0  0  0  0  0  0  0  0  0  0  0
    1.9980   10.2070   -2.1380 C   0  0  0  0  0  0  0  0  0  0  0  0
    0.7600   10.3210   -1.6220 C   0  0  0  0  0  0  0  0  0  0  0  0
    0.1100   11.6970   -1.4300 C   0  0  1  0  0  0  0  0  0  0  0  0
   -0.5230   11.7770   -0.0160 C   0  0  0  0  0  0  0  0  0  0  0  0
   -1.4920   10.6310    0.2570 C   0  0  0  0  0  0  0  0  0  0  0  0
   -0.7940    9.2810    0.1130 C   0  0  2  0  0  0  0  0  0  0  0  0
    0.1800    9.1520    1.1540 O   0  0  0  0  0  0  0  0  0  0  0  0
   -0.1100    9.0890   -1.2700 C   0  0  0  0  0  0  0  0  0  0  0  0
   -1.1910    8.9280   -2.3670 C   0  0  0  0  0  0  0  0  0  0  0  0
    0.6750    7.7500   -1.2330 C   0  0  0  0  0  0  0  0  0  0  0  0
    1.0300   12.9500   -1.7580 C   0  0  1  0  0  0  0  0  0  0  0  0
    1.8650   13.3420   -0.5010 C   0  0  0  0  0  0  0  0  0  0  0  0
    0.1140   14.1880   -2.0870 C   0  0  0  0  0  0  0  0  0  0  0  0
   -0.3300   14.3540   -3.5530 C   0  0  0  0  0  0  0  0  0  0  0  0
    0.8650   14.2390   -4.5050 C   0  0  2  0  0  0  0  0  0  0  0  0
    1.8470   15.4160   -4.1820 C   0  0  0  0  0  0  0  0  0  0  0  0
   -0.6336   16.2077   -4.7462 H   0  0  0  0  0  0  0  0  0  0  0  0
   -0.8354   17.4173   -6.0587 H   0  0  0  0  0  0  0  0  0  0  0  0
   -1.8254   15.9185   -6.0587 H   0  0  0  0  0  0  0  0  0  0  0  0
    1.1383   16.2639   -6.6243 H   0  0  0  0  0  0  0  0  0  0  0  0
    0.1290   14.4533   -8.4440 H   0  0  0  0  0  0  0  0  0  0  0  0
   -1.2667   15.6002   -8.1602 H   0  0  0  0  0  0  0  0  0  0  0  0
   -0.1649   16.5600   -9.9663 H   0  0  0  0  0  0  0  0  0  0  0  0
    0.4907   17.4536   -8.5316 H   0  0  0  0  0  0  0  0  0  0  0  0
    2.1453   16.0361   -8.3876 H   0  0  0  0  0  0  0  0  0  0  0  0
    0.2805   14.3224  -10.9442 H   0  0  0  0  0  0  0  0  0  0  0  0
    0.7239   15.5404  -12.1878 H   0  0  0  0  0  0  0  0  0  0  0  0
    1.5152   13.9278  -12.1878 H   0  0  0  0  0  0  0  0  0  0  0  0
    3.8256   14.3432   -9.6532 H   0  0  0  0  0  0  0  0  0  0  0  0
    3.3652   13.5714  -11.2086 H   0  0  0  0  0  0  0  0  0  0  0  0
    4.2331   15.1440  -11.2086 H   0  0  0  0  0  0  0  0  0  0  0  0
   -0.3995   13.7585   -6.2203 H   0  0  0  0  0  0  0  0  0  0  0  0
    1.5039   12.9149   -7.4477 H   0  0  0  0  0  0  0  0  0  0  0  0
    2.4723   14.3612   -7.0908 H   0  0  0  0  0  0  0  0  0  0  0  0
    2.7675   11.8120   -5.8320 H   0  0  0  0  0  0  0  0  0  0  0  0
    3.4632   13.3061   -5.2106 H   0  0  0  0  0  0  0  0  0  0  0  0
    0.1358   11.1758   -3.7900 H   0  0  0  0  0  0  0  0  0  0  0  0
   -0.3269   12.0247   -5.3040 H   0  0  0  0  0  0  0  0  0  0  0  0
    1.0555   10.8776   -5.3040 H   0  0  0  0  0  0  0  0  0  0  0  0
    2.8271   13.4432   -2.8774 H   0  0  0  0  0  0  0  0  0  0  0  0
    3.2850   11.0143   -3.6033 H   0  0  0  0  0  0  0  0  0  0  0  0
    3.5627   11.5585   -1.8665 H   0  0  0  0  0  0  0  0  0  0  0  0
    2.4343    9.1982   -2.1826 H   0  0  0  0  0  0  0  0  0  0  0  0
   -0.6758   11.7721   -2.1961 H   0  0  0  0  0  0  0  0  0  0  0  0
    0.2819   11.7441    0.7330 H   0  0  0  0  0  0  0  0  0  0  0  0
   -1.0922   12.7165    0.0422 H   0  0  0  0  0  0  0  0  0  0  0  0
   -1.8835   10.7266    1.2805 H   0  0  0  0  0  0  0  0  0  0  0  0
   -2.3119   10.6824   -0.4745 H   0  0  0  0  0  0  0  0  0  0  0  0
   -1.5654    8.5008    0.1920 H   0  0  0  0  0  0  0  0  0  0  0  0
    0.9570    8.7060    0.7760 H   0  0  0  0  0  0  0  0  0  0  0  0
   -2.1736    8.7816   -1.8948 H   0  0  0  0  0  0  0  0  0  0  0  0
   -1.2159    9.8323   -2.9927 H   0  0  0  0  0  0  0  0  0  0  0  0
   -0.9513    8.0556   -2.9927 H   0  0  0  0  0  0  0  0  0  0  0  0
    0.8479    7.4551   -0.1875 H   0  0  0  0  0  0  0  0  0  0  0  0
    0.0918    6.9689   -1.7427 H   0  0  0  0  0  0  0  0  0  0  0  0
    1.6415    7.8774   -1.7427 H   0  0  0  0  0  0  0  0  0  0  0  0
    1.3045   13.0789    0.4082 H   0  0  0  0  0  0  0  0  0  0  0  0
    2.8215   12.7988   -0.5122 H   0  0  0  0  0  0  0  0  0  0  0  0
    2.0581   14.4249   -0.5122 H   0  0  0  0  0  0  0  0  0  0  0  0
   -0.7940   14.1028   -1.4720 H   0  0  0  0  0  0  0  0  0  0  0  0
    0.7350   15.0703   -1.8728 H   0  0  0  0  0  0  0  0  0  0  0  0
   -1.0619   13.5703   -3.7981 H   0  0  0  0  0  0  0  0  0  0  0  0
   -0.7786   15.3512   -3.6725 H   0  0  0  0  0  0  0  0  0  0  0  0
    1.9399   15.5273   -3.0916 H   0  0  0  0  0  0  0  0  0  0  0  0
    2.8350   15.1982   -4.6138 H   0  0  0  0  0  0  0  0  0  0  0  0
    1.4557   16.3490   -4.6138 H   0  0  0  0  0  0  0  0  0  0  0  0
  1  2  1  0
  2  3  1  0
  3  4  1  0
  4  5  1  0
  5  6  1  0
  6  7  1  0
  7  8  1  0
  7  9  1  0
  2 10  1  0
 10 11  1  0
 11 12  1  0
 12 13  1  0
 13 14  1  6
 13 15  1  0
 15 16  1  0
 16 17  1  0
 17 18  2  0
 18 19  1  0
 19 20  1  0
 20 21  1  0
 21 22  1  0
 22 23  1  0
 22 24  1  0
 24 25  1  0
 24 26  1  0
 19 27  1  0
 27 28  1  1
 27 29  1  0
 29 30  1  0
 30 31  1  0
 31 32  1  1
  7  5  1  0
 31 10  1  0
 31 13  1  0
 27 15  1  0
 24 18  1  0
  1 33  1  0
  1 34  1  0
  1 35  1  0
  2 36  1  6
  3 37  1  0
  3 38  1  0
  4 39  1  0
  4 40  1  0
  5 41  1  1
  8 42  1  0
  8 43  1  0
  8 44  1  0
  9 45  1  0
  9 46  1  0
  9 47  1  0
 10 48  1  1
 11 49  1  0
 11 50  1  0
 12 51  1  0
 12 52  1  0
 14 53  1  0
 14 54  1  0
 14 55  1  0
 15 56  1  6
 16 57  1  0
 16 58  1  0
 17 59  1  0
 19 60  1  6
 20 61  1  0
 20 62  1  0
 21 63  1  0
 21 64  1  0
 22 65  1  1
 23 66  1  0
 25 67  1  0
 25 68  1  0
 25 69  1  0
 26 70  1  0
 26 71  1  0
 26 72  1  0
 28 73  1  0
 28 74  1  0
 28 75  1  0
 29 76  1  0
 29 77  1  0
 30 78  1  0
 30 79  1  0
 32 80  1  0
 32 81  1  0
 32 82  1  0
M  END
>  <meeko>  (8) 
{"is_sidechain": [false], "intermolecular_energy": 2.731, "internal_energy": -0.839}

$$$$
EPH_relaxed_0001_pdb2pqr_Repair_194_r2_0001_out
     RDKit          3D

 82 86  0  0  0  0  0  0  0  0999 V2000
   -0.2970   15.1120   -7.6170 C   0  0  0  0  0  0  0  0  0  0  0  0
    1.0800   15.0830   -6.9480 C   0  0  2  0  0  0  0  0  0  0  0  0
    2.2260   15.1700   -7.9750 C   0  0  0  0  0  0  0  0  0  0  0  0
    2.2550   16.4880   -8.7550 C   0  0  0  0  0  0  0  0  0  0  0  0
    1.8530   16.2930  -10.1860 C   0  0  2  0  0  0  0  0  0  0  0  0
    1.1880   15.0530  -10.4580 O   0  0  0  0  0  0  0  0  0  0  0  0
    2.4640   15.2400  -11.0910 C   0  0  0  0  0  0  0  0  0  0  0  0
    3.5290   14.3110  -10.5990 C   0  0  0  0  0  0  0  0  0  0  0  0
    2.3790   15.4330  -12.5730 C   0  0  0  0  0  0  0  0  0  0  0  0
    1.2250   13.8170   -6.1120 C   0  0  1  0  0  0  0  0  0  0  0  0
    2.6550   13.2200   -6.1760 C   0  0  0  0  0  0  0  0  0  0  0  0
    2.9500   12.6130   -4.7800 C   0  0  0  0  0  0  0  0  0  0  0  0
    1.5760   12.5840   -4.0700 C   0  0  1  0  0  0  0  0  0  0  0  0
    0.8700   11.3040   -4.6160 C   0  0  0  0  0  0  0  0  0  0  0  0
    1.6060   12.6050   -2.5070 C   0  0  2  0  0  0  0  0  0  0  0  0
    2.2950   11.3950   -1.8510 C   0  0  0  0  0  0  0  0  0  0  0  0
    1.3990   10.2420   -1.5390 C   0  0  0  0  0  0  0  0  0  0  0  0
    0.0530   10.2830   -1.5110 C   0  0  0  0  0  0  0  0  0  0  0  0
   -0.7000   11.6040   -1.7160 C   0  0  1  0  0  0  0  0  0  0  0  0
   -1.8050   11.7430   -0.6360 C   0  0  0  0  0  0  0  0  0  0  0  0
   -2.7400   10.5380   -0.5970 C   0  0  0  0  0  0  0  0  0  0  0  0
   -1.9610    9.2510   -0.3340 C   0  0  2  0  0  0  0  0  0  0  0  0
   -1.4240    9.3010    0.9910 O   0  0  0  0  0  0  0  0  0  0  0  0
   -0.8140    9.0090   -1.3540 C   0  0  0  0  0  0  0  0  0  0  0  0
   -1.4140    8.6560   -2.7380 C   0  0  0  0  0  0  0  0  0  0  0  0
   -0.0210    7.7570   -0.8920 C   0  0  0  0  0  0  0  0  0  0  0  0
    0.2040   12.9050   -1.8360 C   0  0  1  0  0  0  0  0  0  0  0  0
    0.5040   13.4780   -0.4160 C   0  0  0  0  0  0  0  0  0  0  0  0
   -0.6000   14.0200   -2.6040 C   0  0  0  0  0  0  0  0  0  0  0  0
   -0.4930   14.0200   -4.1400 C   0  0  0  0  0  0  0  0  0  0  0  0
    0.9700   13.9380   -4.5880 C   0  0  2  0  0  0  0  0  0  0  0  0
    1.7010   15.2240   -4.0720 C   0  0  0  0  0  0  0  0  0  0  0  0
   -1.0798   15.1285   -6.8443 H   0  0  0  0  0  0  0  0  0  0  0  0
   -0.3813   16.0121   -8.2436 H   0  0  0  0  0  0  0  0  0  0  0  0
   -0.4191   14.2162   -8.2436 H   0  0  0  0  0  0  0  0  0  0  0  0
    1.1510   15.9677   -6.2982 H   0  0  0  0  0  0  0  0  0  0  0  0
    3.1809   15.0621   -7.4398 H   0  0  0  0  0  0  0  0  0  0  0  0
    2.0626   14.3662   -8.7079 H   0  0  0  0  0  0  0  0  0  0  0  0
    1.5596   17.1974   -8.2826 H   0  0  0  0  0  0  0  0  0  0  0  0
    3.2845   16.8750   -8.7372 H   0  0  0  0  0  0  0  0  0  0  0  0
    1.6965   17.3743  -10.3132 H   0  0  0  0  0  0  0  0  0  0  0  0
    3.5330   14.3075   -9.4990 H   0  0  0  0  0  0  0  0  0  0  0  0
    3.3280   13.2945  -10.9682 H   0  0  0  0  0  0  0  0  0  0  0  0
    4.5088   14.6481  -10.9682 H   0  0  0  0  0  0  0  0  0  0  0  0
    1.9443   16.4199  -12.7899 H   0  0  0  0  0  0  0  0  0  0  0  0
    3.3871   15.3725  -13.0091 H   0  0  0  0  0  0  0  0  0  0  0  0
    1.7431   14.6484  -13.0091 H   0  0  0  0  0  0  0  0  0  0  0  0
    0.4429   13.1985   -6.5766 H   0  0  0  0  0  0  0  0  0  0  0  0
    2.7044   12.4373   -6.9474 H   0  0  0  0  0  0  0  0  0  0  0  0
    3.3940   13.9926   -6.4346 H   0  0  0  0  0  0  0  0  0  0  0  0
    3.3588   11.5964   -4.8769 H   0  0  0  0  0  0  0  0  0  0  0  0
    3.6968   13.1956   -4.2207 H   0  0  0  0  0  0  0  0  0  0  0  0
    0.5288   10.6855   -3.7728 H   0  0  0  0  0  0  0  0  0  0  0  0
    0.0053   11.5959   -5.2301 H   0  0  0  0  0  0  0  0  0  0  0  0
    1.5782   10.7283   -5.2301 H   0  0  0  0  0  0  0  0  0  0  0  0
    2.2534   13.4687   -2.2951 H   0  0  0  0  0  0  0  0  0  0  0  0
    3.0806   11.0397   -2.5341 H   0  0  0  0  0  0  0  0  0  0  0  0
    2.6797   11.7515   -0.8841 H   0  0  0  0  0  0  0  0  0  0  0  0
    1.8785    9.2781   -1.3130 H   0  0  0  0  0  0  0  0  0  0  0  0
   -1.1595   11.5412   -2.7134 H   0  0  0  0  0  0  0  0  0  0  0  0
   -1.3249   11.8488    0.3480 H   0  0  0  0  0  0  0  0  0  0  0  0
   -2.4095   12.6266   -0.8887 H   0  0  0  0  0  0  0  0  0  0  0  0
   -3.4791   10.6817    0.2049 H   0  0  0  0  0  0  0  0  0  0  0  0
   -3.2421   10.4515   -1.5719 H   0  0  0  0  0  0  0  0  0  0  0  0
   -2.6627    8.4115   -0.4475 H   0  0  0  0  0  0  0  0  0  0  0  0
   -1.4120   10.2330    1.2690 H   0  0  0  0  0  0  0  0  0  0  0  0
   -2.3545    8.1026   -2.5995 H   0  0  0  0  0  0  0  0  0  0  0  0
   -1.6122    9.5815   -3.2986 H   0  0  0  0  0  0  0  0  0  0  0  0
   -0.7013    8.0332   -3.2986 H   0  0  0  0  0  0  0  0  0  0  0  0
    0.0012    7.7220    0.2072 H   0  0  0  0  0  0  0  0  0  0  0  0
   -0.5099    6.8503   -1.2779 H   0  0  0  0  0  0  0  0  0  0  0  0
    1.0076    7.8115   -1.2779 H   0  0  0  0  0  0  0  0  0  0  0  0
    0.1367   12.7765    0.3476 H   0  0  0  0  0  0  0  0  0  0  0  0
    1.5891   13.6141   -0.2973 H   0  0  0  0  0  0  0  0  0  0  0  0
   -0.0023   14.4473   -0.2973 H   0  0  0  0  0  0  0  0  0  0  0  0
   -1.6625   13.9025   -2.3445 H   0  0  0  0  0  0  0  0  0  0  0  0
   -0.1497   14.9713   -2.2842 H   0  0  0  0  0  0  0  0  0  0  0  0
   -1.0406   13.1533   -4.5388 H   0  0  0  0  0  0  0  0  0  0  0  0
   -0.9246   14.9571   -4.5216 H   0  0  0  0  0  0  0  0  0  0  0  0
    1.7033   15.2280   -2.9720 H   0  0  0  0  0  0  0  0  0  0  0  0
    2.7373   15.2296   -4.4408 H   0  0  0  0  0  0  0  0  0  0  0  0
    1.1757   16.1173   -4.4408 H   0  0  0  0  0  0  0  0  0  0  0  0
  1  2  1  0
  2  3  1  0
  3  4  1  0
  4  5  1  0
  5  6  1  0
  6  7  1  0
  7  8  1  0
  7  9  1  0
  2 10  1  0
 10 11  1  0
 11 12  1  0
 12 13  1  0
 13 14  1  1
 13 15  1  0
 15 16  1  0
 16 17  1  0
 17 18  2  0
 18 19  1  0
 19 20  1  0
 20 21  1  0
 21 22  1  0
 22 23  1  0
 22 24  1  0
 24 25  1  0
 24 26  1  0
 19 27  1  0
 27 28  1  1
 27 29  1  0
 29 30  1  0
 30 31  1  0
 31 32  1  1
  7  5  1  0
 31 10  1  0
 31 13  1  0
 27 15  1  0
 24 18  1  0
  1 33  1  0
  1 34  1  0
  1 35  1  0
  2 36  1  1
  3 37  1  0
  3 38  1  0
  4 39  1  0
  4 40  1  0
  5 41  1  6
  8 42  1  0
  8 43  1  0
  8 44  1  0
  9 45  1  0
  9 46  1  0
  9 47  1  0
 10 48  1  6
 11 49  1  0
 11 50  1  0
 12 51  1  0
 12 52  1  0
 14 53  1  0
 14 54  1  0
 14 55  1  0
 15 56  1  6
 16 57  1  0
 16 58  1  0
 17 59  1  0
 19 60  1  6
 20 61  1  0
 20 62  1  0
 21 63  1  0
 21 64  1  0
 22 65  1  1
 23 66  1  0
 25 67  1  0
 25 68  1  0
 25 69  1  0
 26 70  1  0
 26 71  1  0
 26 72  1  0
 28 73  1  0
 28 74  1  0
 28 75  1  0
 29 76  1  0
 29 77  1  0
 30 78  1  0
 30 79  1  0
 32 80  1  0
 32 81  1  0
 32 82  1  0
M  END
>  <meeko>  (9) 
{"is_sidechain": [false], "intermolecular_energy": 2.731, "internal_energy": -0.839}

$$$$
EPH_relaxed_0001_pdb2pqr_Repair_194_r2_0001_out
     RDKit          3D

 82 86  0  0  0  0  0  0  0  0999 V2000
   -1.5690   14.8770    1.4380 C   0  0  0  0  0  0  0  0  0  0  0  0
   -0.3200   15.5810    0.9000 C   0  0  2  0  0  0  0  0  0  0  0  0
   -0.6380   16.4820   -0.3110 C   0  0  0  0  0  0  0  0  0  0  0  0
   -1.3930   17.7620    0.0560 C   0  0  0  0  0  0  0  0  0  0  0  0
   -0.5710   18.9870   -0.2110 C   0  0  2  0  0  0  0  0  0  0  0  0
   -1.1120   19.8660   -1.2060 O   0  0  0  0  0  0  0  0  0  0  0  0
    0.1440   19.2450   -1.5240 C   0  0  0  0  0  0  0  0  0  0  0  0
    0.0720   18.2690   -2.6570 C   0  0  0  0  0  0  0  0  0  0  0  0
    1.3010   20.1940   -1.5330 C   0  0  0  0  0  0  0  0  0  0  0  0
    0.7350   14.5500    0.5200 C   0  0  1  0  0  0  0  0  0  0  0  0
    0.9720   13.4980    1.6360 C   0  0  0  0  0  0  0  0  0  0  0  0
    1.2760   12.1530    0.9260 C   0  0  0  0  0  0  0  0  0  0  0  0
    1.5320   12.5400   -0.5490 C   0  0  1  0  0  0  0  0  0  0  0  0
    3.0110   13.0370   -0.5830 C   0  0  0  0  0  0  0  0  0  0  0  0
    1.2740   11.4220   -1.6110 C   0  0  2  0  0  0  0  0  0  0  0  0
    2.1710   10.1790   -1.4800 C   0  0  0  0  0  0  0  0  0  0  0  0
    3.4470   10.2280   -2.2540 C   0  0  0  0  0  0  0  0  0  0  0  0
    3.7290   11.0970   -3.2420 C   0  0  0  0  0  0  0  0  0  0  0  0
    2.6750   12.0950   -3.7390 C   0  0  1  0  0  0  0  0  0  0  0  0
    2.6490   12.0910   -5.2900 C   0  0  0  0  0  0  0  0  0  0  0  0
    4.0250   12.3450   -5.8980 C   0  0  0  0  0  0  0  0  0  0  0  0
    5.0320   11.2990   -5.4260 C   0  0  2  0  0  0  0  0  0  0  0  0
    4.6580   10.0250   -5.9610 O   0  0  0  0  0  0  0  0  0  0  0  0
    5.1370   11.2050   -3.8780 C   0  0  0  0  0  0  0  0  0  0  0  0
    5.8250   12.4770   -3.3250 C   0  0  0  0  0  0  0  0  0  0  0  0
    6.0780   10.0180   -3.5350 C   0  0  0  0  0  0  0  0  0  0  0  0
    1.2250   11.9450   -3.1040 C   0  0  1  0  0  0  0  0  0  0  0  0
    0.3950   10.9030   -3.9140 C   0  0  0  0  0  0  0  0  0  0  0  0
    0.4640   13.3170   -3.2330 C   0  0  0  0  0  0  0  0  0  0  0  0
    0.6650   14.3330   -2.0930 C   0  0  0  0  0  0  0  0  0  0  0  0
    0.4560   13.6730   -0.7270 C   0  0  2  0  0  0  0  0  0  0  0  0
   -1.0300   13.1820   -0.6550 C   0  0  0  0  0  0  0  0  0  0  0  0
   -1.5507   14.8873    2.5378 H   0  0  0  0  0  0  0  0  0  0  0  0
   -2.4678   15.4014    1.0813 H   0  0  0  0  0  0  0  0  0  0  0  0
   -1.5858   13.8366    1.0813 H   0  0  0  0  0  0  0  0  0  0  0  0
    0.0659   16.2287    1.7010 H   0  0  0  0  0  0  0  0  0  0  0  0
    0.3100   16.7639   -0.7926 H   0  0  0  0  0  0  0  0  0  0  0  0
   -1.2924   15.9032   -0.9794 H   0  0  0  0  0  0  0  0  0  0  0  0
   -2.3157   17.8150   -0.5405 H   0  0  0  0  0  0  0  0  0  0  0  0
   -1.6201   17.7294    1.1318 H   0  0  0  0  0  0  0  0  0  0  0  0
   -0.2274   19.0127    0.8336 H   0  0  0  0  0  0  0  0  0  0  0  0
   -0.0034   17.2473   -2.2566 H   0  0  0  0  0  0  0  0  0  0  0  0
   -0.8125   18.4874   -3.2734 H   0  0  0  0  0  0  0  0  0  0  0  0
    0.9789   18.3552   -3.2734 H   0  0  0  0  0  0  0  0  0  0  0  0
    1.5893   20.4305   -0.4981 H   0  0  0  0  0  0  0  0  0  0  0  0
    2.1517   19.7301   -2.0537 H   0  0  0  0  0  0  0  0  0  0  0  0
    1.0125   21.1190   -2.0537 H   0  0  0  0  0  0  0  0  0  0  0  0
    1.5857   15.2199    0.3262 H   0  0  0  0  0  0  0  0  0  0  0  0
    1.8250   13.7966    2.2630 H   0  0  0  0  0  0  0  0  0  0  0  0
    0.0911   13.4096    2.2889 H   0  0  0  0  0  0  0  0  0  0  0  0
    2.1659   11.6759    1.3624 H   0  0  0  0  0  0  0  0  0  0  0  0
    0.4533   11.4304    1.0310 H   0  0  0  0  0  0  0  0  0  0  0  0
    3.3799   13.1610    0.4459 H   0  0  0  0  0  0  0  0  0  0  0  0
    3.6339   12.2988   -1.1094 H   0  0  0  0  0  0  0  0  0  0  0  0
    3.0617   14.0015   -1.1094 H   0  0  0  0  0  0  0  0  0  0  0  0
    0.2579   11.0854   -1.3575 H   0  0  0  0  0  0  0  0  0  0  0  0
    2.4232   10.0525   -0.4168 H   0  0  0  0  0  0  0  0  0  0  0  0
    1.5934    9.3418   -1.8988 H   0  0  0  0  0  0  0  0  0  0  0  0
    4.2219    9.4916   -1.9947 H   0  0  0  0  0  0  0  0  0  0  0  0
    2.9943   13.0822   -3.3737 H   0  0  0  0  0  0  0  0  0  0  0  0
    2.2867   11.1111   -5.6342 H   0  0  0  0  0  0  0  0  0  0  0  0
    1.9844   12.9050   -5.6153 H   0  0  0  0  0  0  0  0  0  0  0  0
    3.9477   12.3012   -6.9944 H   0  0  0  0  0  0  0  0  0  0  0  0
    4.3731   13.3376   -5.5761 H   0  0  0  0  0  0  0  0  0  0  0  0
    6.0233   11.6073   -5.7896 H   0  0  0  0  0  0  0  0  0  0  0  0
    3.7130    9.8940   -5.7770 H   0  0  0  0  0  0  0  0  0  0  0  0
    5.8117   12.4524   -2.2254 H   0  0  0  0  0  0  0  0  0  0  0  0
    6.8660   12.5139   -3.6784 H   0  0  0  0  0  0  0  0  0  0  0  0
    5.2861   13.3684   -3.6784 H   0  0  0  0  0  0  0  0  0  0  0  0
    6.1579    9.9172   -2.4425 H   0  0  0  0  0  0  0  0  0  0  0  0
    5.6675    9.0901   -3.9598 H   0  0  0  0  0  0  0  0  0  0  0  0
    7.0751   10.2060   -3.9598 H   0  0  0  0  0  0  0  0  0  0  0  0
   -0.1359   10.2365   -3.2184 H   0  0  0  0  0  0  0  0  0  0  0  0
   -0.3349   11.4282   -4.5476 H   0  0  0  0  0  0  0  0  0  0  0  0
    1.0702   10.3091   -4.5476 H   0  0  0  0  0  0  0  0  0  0  0  0
    0.7955   13.7948   -4.1667 H   0  0  0  0  0  0  0  0  0  0  0  0
   -0.6045   13.0573   -3.2018 H   0  0  0  0  0  0  0  0  0  0  0  0
    1.6875   14.7352   -2.1456 H   0  0  0  0  0  0  0  0  0  0  0  0
   -0.0729   15.1405   -2.2088 H   0  0  0  0  0  0  0  0  0  0  0  0
   -1.3325   13.0820    0.3978 H   0  0  0  0  0  0  0  0  0  0  0  0
   -1.6822   13.9124   -1.1561 H   0  0  0  0  0  0  0  0  0  0  0  0
   -1.1186   12.2068   -1.1561 H   0  0  0  0  0  0  0  0  0  0  0  0
  1  2  1  0
  2  3  1  0
  3  4  1  0
  4  5  1  0
  5  6  1  0
  6  7  1  0
  7  8  1  0
  7  9  1  0
  2 10  1  0
 10 11  1  0
 11 12  1  0
 12 13  1  0
 13 14  1  1
 13 15  1  0
 15 16  1  0
 16 17  1  0
 17 18  2  0
 18 19  1  0
 19 20  1  0
 20 21  1  0
 21 22  1  0
 22 23  1  0
 22 24  1  0
 24 25  1  0
 24 26  1  0
 19 27  1  0
 27 28  1  6
 27 29  1  0
 29 30  1  0
 30 31  1  0
 31 32  1  1
  7  5  1  0
 31 10  1  0
 31 13  1  0
 27 15  1  0
 24 18  1  0
  1 33  1  0
  1 34  1  0
  1 35  1  0
  2 36  1  1
  3 37  1  0
  3 38  1  0
  4 39  1  0
  4 40  1  0
  5 41  1  1
  8 42  1  0
  8 43  1  0
  8 44  1  0
  9 45  1  0
  9 46  1  0
  9 47  1  0
 10 48  1  6
 11 49  1  0
 11 50  1  0
 12 51  1  0
 12 52  1  0
 14 53  1  0
 14 54  1  0
 14 55  1  0
 15 56  1  1
 16 57  1  0
 16 58  1  0
 17 59  1  0
 19 60  1  6
 20 61  1  0
 20 62  1  0
 21 63  1  0
 21 64  1  0
 22 65  1  6
 23 66  1  0
 25 67  1  0
 25 68  1  0
 25 69  1  0
 26 70  1  0
 26 71  1  0
 26 72  1  0
 28 73  1  0
 28 74  1  0
 28 75  1  0
 29 76  1  0
 29 77  1  0
 30 78  1  0
 30 79  1  0
 32 80  1  0
 32 81  1  0
 32 82  1  0
M  END
>  <meeko>  (10) 
{"is_sidechain": [false], "intermolecular_energy": 2.731, "internal_energy": -0.839}

$$$$
EPH_relaxed_0001_pdb2pqr_Repair_194_r2_0001_out
     RDKit          3D

 82 86  0  0  0  0  0  0  0  0999 V2000
   -0.1330    9.2550   -3.9600 C   0  0  0  0  0  0  0  0  0  0  0  0
   -0.0800    9.4060   -2.4370 C   0  0  2  0  0  0  0  0  0  0  0  0
   -0.9870    8.3870   -1.7200 C   0  0  0  0  0  0  0  0  0  0  0  0
   -2.4640    8.4970   -2.1090 C   0  0  0  0  0  0  0  0  0  0  0  0
   -2.9750    7.2240   -2.7110 C   0  0  2  0  0  0  0  0  0  0  0  0
   -4.0400    7.3940   -3.6560 O   0  0  0  0  0  0  0  0  0  0  0  0
   -4.3680    6.6770   -2.4550 C   0  0  0  0  0  0  0  0  0  0  0  0
   -5.3350    7.3920   -1.5650 C   0  0  0  0  0  0  0  0  0  0  0  0
   -4.6140    5.2170   -2.6730 C   0  0  0  0  0  0  0  0  0  0  0  0
   -0.4750   10.8240   -2.0420 C   0  0  1  0  0  0  0  0  0  0  0  0
   -1.5980   10.8550   -0.9710 C   0  0  0  0  0  0  0  0  0  0  0  0
   -1.3120   12.0750   -0.0580 C   0  0  0  0  0  0  0  0  0  0  0  0
   -0.2420   12.8900   -0.8200 C   0  0  1  0  0  0  0  0  0  0  0  0
   -1.0420   13.7110   -1.8790 C   0  0  0  0  0  0  0  0  0  0  0  0
    0.6750   13.8100    0.0500 C   0  0  2  0  0  0  0  0  0  0  0  0
   -0.0560   14.9320    0.8080 C   0  0  0  0  0  0  0  0  0  0  0  0
   -0.1770   16.2250    0.0710 C   0  0  0  0  0  0  0  0  0  0  0  0
    0.5230   16.5690   -1.0260 C   0  0  0  0  0  0  0  0  0  0  0  0
    1.6220   15.6530   -1.5780 C   0  0  1  0  0  0  0  0  0  0  0  0
    2.8870   16.4930   -1.8940 C   0  0  0  0  0  0  0  0  0  0  0  0
    2.5910   17.6710   -2.8180 C   0  0  0  0  0  0  0  0  0  0  0  0
    1.5360   18.5900   -2.2080 C   0  0  2  0  0  0  0  0  0  0  0  0
    2.0840   19.2100   -1.0400 O   0  0  0  0  0  0  0  0  0  0  0  0
    0.2190   17.8520   -1.8380 C   0  0  0  0  0  0  0  0  0  0  0  0
   -0.5280   17.4420   -3.1320 C   0  0  0  0  0  0  0  0  0  0  0  0
   -0.7050   18.8610   -1.1050 C   0  0  0  0  0  0  0  0  0  0  0  0
    1.9490   14.3610   -0.7110 C   0  0  1  0  0  0  0  0  0  0  0  0
    3.0050   14.7080    0.3830 C   0  0  0  0  0  0  0  0  0  0  0  0
    2.6100   13.2730   -1.6370 C   0  0  0  0  0  0  0  0  0  0  0  0
    1.6540   12.3180   -2.3770 C   0  0  0  0  0  0  0  0  0  0  0  0
    0.6230   11.7200   -1.4150 C   0  0  2  0  0  0  0  0  0  0  0  0
    1.3970   10.8700   -0.3510 C   0  0  0  0  0  0  0  0  0  0  0  0
   -0.4873    8.2456   -4.2163 H   0  0  0  0  0  0  0  0  0  0  0  0
   -0.8224   10.0029   -4.3788 H   0  0  0  0  0  0  0  0  0  0  0  0
    0.8726    9.4080   -4.3788 H   0  0  0  0  0  0  0  0  0  0  0  0
    0.9543    9.2060   -2.1204 H   0  0  0  0  0  0  0  0  0  0  0  0
   -0.6367    7.3745   -1.9693 H   0  0  0  0  0  0  0  0  0  0  0  0
   -0.9215    8.6004   -0.6429 H   0  0  0  0  0  0  0  0  0  0  0  0
   -3.0533    8.7275   -1.2092 H   0  0  0  0  0  0  0  0  0  0  0  0
   -2.5622    9.2949   -2.8598 H   0  0  0  0  0  0  0  0  0  0  0  0
   -1.9779    6.7643   -2.6441 H   0  0  0  0  0  0  0  0  0  0  0  0
   -5.0759    7.2004   -0.5132 H   0  0  0  0  0  0  0  0  0  0  0  0
   -5.2860    8.4728   -1.7637 H   0  0  0  0  0  0  0  0  0  0  0  0
   -6.3540    7.0284   -1.7637 H   0  0  0  0  0  0  0  0  0  0  0  0
   -4.6994    4.7103   -1.7004 H   0  0  0  0  0  0  0  0  0  0  0  0
   -5.5474    5.0830   -3.2394 H   0  0  0  0  0  0  0  0  0  0  0  0
   -3.7761    4.7845   -3.2394 H   0  0  0  0  0  0  0  0  0  0  0  0
   -0.7633   11.2163   -3.0284 H   0  0  0  0  0  0  0  0  0  0  0  0
   -2.5797   10.9657   -1.4547 H   0  0  0  0  0  0  0  0  0  0  0  0
   -1.6147    9.9216   -0.3892 H   0  0  0  0  0  0  0  0  0  0  0  0
   -2.2238   12.6726    0.0886 H   0  0  0  0  0  0  0  0  0  0  0  0
   -0.9725   11.7753    0.9445 H   0  0  0  0  0  0  0  0  0  0  0  0
   -1.7211   14.4079   -1.3660 H   0  0  0  0  0  0  0  0  0  0  0  0
   -0.3411   14.2787   -2.5087 H   0  0  0  0  0  0  0  0  0  0  0  0
   -1.6277   13.0251   -2.5087 H   0  0  0  0  0  0  0  0  0  0  0  0
    1.0392   13.1167    0.8225 H   0  0  0  0  0  0  0  0  0  0  0  0
   -1.0707   14.5784    1.0431 H   0  0  0  0  0  0  0  0  0  0  0  0
    0.5533   15.1450    1.6987 H   0  0  0  0  0  0  0  0  0  0  0  0
   -0.8996   16.9588    0.4574 H   0  0  0  0  0  0  0  0  0  0  0  0
    1.2191   15.2213   -2.5061 H   0  0  0  0  0  0  0  0  0  0  0  0
    3.2983   16.8799   -0.9500 H   0  0  0  0  0  0  0  0  0  0  0  0
    3.6039   15.8365   -2.4088 H   0  0  0  0  0  0  0  0  0  0  0  0
    3.5165   18.2430   -2.9801 H   0  0  0  0  0  0  0  0  0  0  0  0
    2.2080   17.2812   -3.7727 H   0  0  0  0  0  0  0  0  0  0  0  0
    1.2722   19.3389   -2.9693 H   0  0  0  0  0  0  0  0  0  0  0  0
    3.0060   18.9140   -0.9560 H   0  0  0  0  0  0  0  0  0  0  0  0
   -1.4641   16.9282   -2.8679 H   0  0  0  0  0  0  0  0  0  0  0  0
   -0.7573   18.3407   -3.7234 H   0  0  0  0  0  0  0  0  0  0  0  0
    0.1070   16.7660   -3.7234 H   0  0  0  0  0  0  0  0  0  0  0  0
   -0.5925   18.7382   -0.0177 H   0  0  0  0  0  0  0  0  0  0  0  0
   -0.4263   19.8865   -1.3889 H   0  0  0  0  0  0  0  0  0  0  0  0
   -1.7510   18.6734   -1.3889 H   0  0  0  0  0  0  0  0  0  0  0  0
    2.5621   14.5625    1.3793 H   0  0  0  0  0  0  0  0  0  0  0  0
    3.8792   14.0499    0.2706 H   0  0  0  0  0  0  0  0  0  0  0  0
    3.3184   15.7564    0.2706 H   0  0  0  0  0  0  0  0  0  0  0  0
    3.2074   13.7999   -2.3956 H   0  0  0  0  0  0  0  0  0  0  0  0
    3.1904   12.6309   -0.9581 H   0  0  0  0  0  0  0  0  0  0  0  0
    1.1286   12.8753   -3.1665 H   0  0  0  0  0  0  0  0  0  0  0  0
    2.2445   11.4982   -2.8120 H   0  0  0  0  0  0  0  0  0  0  0  0
    1.1039   11.1919    0.6592 H   0  0  0  0  0  0  0  0  0  0  0  0
    1.1512    9.8059   -0.4825 H   0  0  0  0  0  0  0  0  0  0  0  0
    2.4794   11.0153   -0.4825 H   0  0  0  0  0  0  0  0  0  0  0  0
  1  2  1  0
  2  3  1  0
  3  4  1  0
  4  5  1  0
  5  6  1  0
  6  7  1  0
  7  8  1  0
  7  9  1  0
  2 10  1  0
 10 11  1  0
 11 12  1  0
 12 13  1  0
 13 14  1  6
 13 15  1  0
 15 16  1  0
 16 17  1  0
 17 18  2  0
 18 19  1  0
 19 20  1  0
 20 21  1  0
 21 22  1  0
 22 23  1  0
 22 24  1  0
 24 25  1  0
 24 26  1  0
 19 27  1  0
 27 28  1  1
 27 29  1  0
 29 30  1  0
 30 31  1  0
 31 32  1  1
  7  5  1  0
 31 10  1  0
 31 13  1  0
 27 15  1  0
 24 18  1  0
  1 33  1  0
  1 34  1  0
  1 35  1  0
  2 36  1  1
  3 37  1  0
  3 38  1  0
  4 39  1  0
  4 40  1  0
  5 41  1  6
  8 42  1  0
  8 43  1  0
  8 44  1  0
  9 45  1  0
  9 46  1  0
  9 47  1  0
 10 48  1  6
 11 49  1  0
 11 50  1  0
 12 51  1  0
 12 52  1  0
 14 53  1  0
 14 54  1  0
 14 55  1  0
 15 56  1  1
 16 57  1  0
 16 58  1  0
 17 59  1  0
 19 60  1  6
 20 61  1  0
 20 62  1  0
 21 63  1  0
 21 64  1  0
 22 65  1  6
 23 66  1  0
 25 67  1  0
 25 68  1  0
 25 69  1  0
 26 70  1  0
 26 71  1  0
 26 72  1  0
 28 73  1  0
 28 74  1  0
 28 75  1  0
 29 76  1  0
 29 77  1  0
 30 78  1  0
 30 79  1  0
 32 80  1  0
 32 81  1  0
 32 82  1  0
M  END
>  <meeko>  (11) 
{"is_sidechain": [false], "intermolecular_energy": 2.731, "internal_energy": -0.839}

$$$$
EPH_relaxed_0001_pdb2pqr_Repair_194_r2_0001_out
     RDKit          3D

 82 86  0  0  0  0  0  0  0  0999 V2000
   -2.0070    7.8350   -1.9340 C   0  0  0  0  0  0  0  0  0  0  0  0
   -2.1430    8.5490   -0.5860 C   0  0  2  0  0  0  0  0  0  0  0  0
   -3.6040    8.5900   -0.0960 C   0  0  0  0  0  0  0  0  0  0  0  0
   -4.6280    8.2600   -1.1860 C   0  0  0  0  0  0  0  0  0  0  0  0
   -5.7120    7.3600   -0.6740 C   0  0  2  0  0  0  0  0  0  0  0  0
   -6.0160    6.2470   -1.5240 O   0  0  0  0  0  0  0  0  0  0  0  0
   -7.0640    7.2130   -1.3460 C   0  0  0  0  0  0  0  0  0  0  0  0
   -7.4060    7.9760   -2.5870 C   0  0  0  0  0  0  0  0  0  0  0  0
   -8.2160    6.7100   -0.5320 C   0  0  0  0  0  0  0  0  0  0  0  0
   -1.5880    9.9650   -0.6890 C   0  0  1  0  0  0  0  0  0  0  0  0
   -1.0630   10.5010    0.6690 C   0  0  0  0  0  0  0  0  0  0  0  0
    0.1640   11.3940    0.3530 C   0  0  0  0  0  0  0  0  0  0  0  0
    0.1060   11.6110   -1.1770 C   0  0  1  0  0  0  0  0  0  0  0  0
   -0.9370   12.7540   -1.3800 C   0  0  0  0  0  0  0  0  0  0  0  0
    1.4630   11.9350   -1.8820 C   0  0  2  0  0  0  0  0  0  0  0  0
    2.1350   13.2440   -1.4310 C   0  0  0  0  0  0  0  0  0  0  0  0
    1.7600   14.4570   -2.2160 C   0  0  0  0  0  0  0  0  0  0  0  0
    1.1430   14.4540   -3.4120 C   0  0  0  0  0  0  0  0  0  0  0  0
    0.8460   13.1380   -4.1430 C   0  0  1  0  0  0  0  0  0  0  0  0
    1.2650   13.2670   -5.6310 C   0  0  0  0  0  0  0  0  0  0  0  0
    0.6270   14.4710   -6.3170 C   0  0  0  0  0  0  0  0  0  0  0  0
    0.9920   15.7660   -5.5950 C   0  0  2  0  0  0  0  0  0  0  0  0
    2.3960   15.9980   -5.7480 O   0  0  0  0  0  0  0  0  0  0  0  0
    0.6270   15.7500   -4.0850 C   0  0  0  0  0  0  0  0  0  0  0  0
   -0.9130   15.8020   -3.9220 C   0  0  0  0  0  0  0  0  0  0  0  0
    1.1750   17.0550   -3.4470 C   0  0  0  0  0  0  0  0  0  0  0  0
    1.4180   11.8220   -3.4590 C   0  0  1  0  0  0  0  0  0  0  0  0
    2.8830   11.5710   -3.9300 C   0  0  0  0  0  0  0  0  0  0  0  0
    0.5760   10.5830   -3.9460 C   0  0  0  0  0  0  0  0  0  0  0  0
   -0.6890   10.2420   -3.1370 C   0  0  0  0  0  0  0  0  0  0  0  0
   -0.3830   10.1890   -1.6370 C   0  0  2  0  0  0  0  0  0  0  0  0
    0.6470    9.0330   -1.3990 C   0  0  0  0  0  0  0  0  0  0  0  0
   -1.8036    6.7673   -1.7645 H   0  0  0  0  0  0  0  0  0  0  0  0
   -2.9421    7.9444   -2.5028 H   0  0  0  0  0  0  0  0  0  0  0  0
   -1.1776    8.2805   -2.5028 H   0  0  0  0  0  0  0  0  0  0  0  0
   -1.5631    7.9756    0.1522 H   0  0  0  0  0  0  0  0  0  0  0  0
   -3.7175    7.8605    0.7195 H   0  0  0  0  0  0  0  0  0  0  0  0
   -3.8044    9.6206    0.2322 H   0  0  0  0  0  0  0  0  0  0  0  0
   -5.0814    9.1960   -1.5444 H   0  0  0  0  0  0  0  0  0  0  0  0
   -4.1052    7.7380   -2.0010 H   0  0  0  0  0  0  0  0  0  0  0  0
   -5.4245    7.5665    0.3675 H   0  0  0  0  0  0  0  0  0  0  0  0
   -7.8416    8.9478   -2.3116 H   0  0  0  0  0  0  0  0  0  0  0  0
   -6.4943    8.1379   -3.1808 H   0  0  0  0  0  0  0  0  0  0  0  0
   -8.1335    7.4032   -3.1808 H   0  0  0  0  0  0  0  0  0  0  0  0
   -7.9814    6.8124    0.5378 H   0  0  0  0  0  0  0  0  0  0  0  0
   -9.1158    7.2972   -0.7680 H   0  0  0  0  0  0  0  0  0  0  0  0
   -8.3970    5.6510   -0.7680 H   0  0  0  0  0  0  0  0  0  0  0  0
   -2.4760   10.4833   -1.0799 H   0  0  0  0  0  0  0  0  0  0  0  0
   -1.8433   11.0928    1.1699 H   0  0  0  0  0  0  0  0  0  0  0  0
   -0.7874    9.6741    1.3401 H   0  0  0  0  0  0  0  0  0  0  0  0
    0.0922   12.3545    0.8843 H   0  0  0  0  0  0  0  0  0  0  0  0
    1.1095   10.9316    0.6728 H   0  0  0  0  0  0  0  0  0  0  0  0
   -1.2730   13.1222   -0.3994 H   0  0  0  0  0  0  0  0  0  0  0  0
   -0.4731   13.5781   -1.9418 H   0  0  0  0  0  0  0  0  0  0  0  0
   -1.8000   12.3673   -1.9418 H   0  0  0  0  0  0  0  0  0  0  0  0
    2.1148   11.1246   -1.5235 H   0  0  0  0  0  0  0  0  0  0  0  0
    1.8623   13.4215   -0.3802 H   0  0  0  0  0  0  0  0  0  0  0  0
    3.2144   13.1016   -1.5882 H   0  0  0  0  0  0  0  0  0  0  0  0
    2.0090   15.4358   -1.7802 H   0  0  0  0  0  0  0  0  0  0  0  0
   -0.2416   12.9888   -4.0736 H   0  0  0  0  0  0  0  0  0  0  0  0
    2.3589   13.3714   -5.6814 H   0  0  0  0  0  0  0  0  0  0  0  0
    0.9196   12.3632   -6.1543 H   0  0  0  0  0  0  0  0  0  0  0  0
    0.9844   14.5248   -7.3559 H   0  0  0  0  0  0  0  0  0  0  0  0
   -0.4662   14.3510   -6.2926 H   0  0  0  0  0  0  0  0  0  0  0  0
    0.4027   16.5753   -6.0509 H   0  0  0  0  0  0  0  0  0  0  0  0
    2.6680   16.6250   -5.0570 H   0  0  0  0  0  0  0  0  0  0  0  0
   -1.1684   15.8106   -2.8521 H   0  0  0  0  0  0  0  0  0  0  0  0
   -1.3016   16.7138   -4.3991 H   0  0  0  0  0  0  0  0  0  0  0  0
   -1.3623   14.9185   -4.3991 H   0  0  0  0  0  0  0  0  0  0  0  0
    1.1394   16.9703   -2.3508 H   0  0  0  0  0  0  0  0  0  0  0  0
    2.2150   17.2119   -3.7691 H   0  0  0  0  0  0  0  0  0  0  0  0
    0.5588   17.9074   -3.7691 H   0  0  0  0  0  0  0  0  0  0  0  0
    3.5363   11.4591   -3.0521 H   0  0  0  0  0  0  0  0  0  0  0  0
    2.9215   10.6532   -4.5351 H   0  0  0  0  0  0  0  0  0  0  0  0
    3.2248   12.4237   -4.5351 H   0  0  0  0  0  0  0  0  0  0  0  0
    0.2652   10.7787   -4.9829 H   0  0  0  0  0  0  0  0  0  0  0  0
    1.2408    9.7157   -3.8199 H   0  0  0  0  0  0  0  0  0  0  0  0
   -1.4525   11.0121   -3.3215 H   0  0  0  0  0  0  0  0  0  0  0  0
   -1.0534    9.2542   -3.4557 H   0  0  0  0  0  0  0  0  0  0  0  0
    0.7833    8.8801   -0.3182 H   0  0  0  0  0  0  0  0  0  0  0  0
    0.2699    8.1061   -1.8558 H   0  0  0  0  0  0  0  0  0  0  0  0
    1.6111    9.3011   -1.8558 H   0  0  0  0  0  0  0  0  0  0  0  0
  1  2  1  0
  2  3  1  0
  3  4  1  0
  4  5  1  0
  5  6  1  0
  6  7  1  0
  7  8  1  0
  7  9  1  0
  2 10  1  0
 10 11  1  0
 11 12  1  0
 12 13  1  0
 13 14  1  1
 13 15  1  0
 15 16  1  0
 16 17  1  0
 17 18  2  0
 18 19  1  0
 19 20  1  0
 20 21  1  0
 21 22  1  0
 22 23  1  0
 22 24  1  0
 24 25  1  0
 24 26  1  0
 19 27  1  0
 27 28  1  6
 27 29  1  0
 29 30  1  0
 30 31  1  0
 31 32  1  6
  7  5  1  0
 31 10  1  0
 31 13  1  0
 27 15  1  0
 24 18  1  0
  1 33  1  0
  1 34  1  0
  1 35  1  0
  2 36  1  1
  3 37  1  0
  3 38  1  0
  4 39  1  0
  4 40  1  0
  5 41  1  1
  8 42  1  0
  8 43  1  0
  8 44  1  0
  9 45  1  0
  9 46  1  0
  9 47  1  0
 10 48  1  6
 11 49  1  0
 11 50  1  0
 12 51  1  0
 12 52  1  0
 14 53  1  0
 14 54  1  0
 14 55  1  0
 15 56  1  1
 16 57  1  0
 16 58  1  0
 17 59  1  0
 19 60  1  6
 20 61  1  0
 20 62  1  0
 21 63  1  0
 21 64  1  0
 22 65  1  6
 23 66  1  0
 25 67  1  0
 25 68  1  0
 25 69  1  0
 26 70  1  0
 26 71  1  0
 26 72  1  0
 28 73  1  0
 28 74  1  0
 28 75  1  0
 29 76  1  0
 29 77  1  0
 30 78  1  0
 30 79  1  0
 32 80  1  0
 32 81  1  0
 32 82  1  0
M  END
>  <meeko>  (12) 
{"is_sidechain": [false], "intermolecular_energy": 2.731, "internal_energy": -0.839}

$$$$
EPH_relaxed_0001_pdb2pqr_Repair_194_r2_0001_out
     RDKit          3D

 82 86  0  0  0  0  0  0  0  0999 V2000
    2.8300   18.2930   -2.5070 C   0  0  0  0  0  0  0  0  0  0  0  0
    2.8620   17.8390   -1.0450 C   0  0  2  0  0  0  0  0  0  0  0  0
    4.2510   17.3170   -0.6290 C   0  0  0  0  0  0  0  0  0  0  0  0
    5.1170   18.3650    0.0760 C   0  0  0  0  0  0  0  0  0  0  0  0
    4.6480   18.6210    1.4760 C   0  0  2  0  0  0  0  0  0  0  0  0
    4.8160   19.9720    1.9260 O   0  0  0  0  0  0  0  0  0  0  0  0
    5.5800   18.9720    2.6200 C   0  0  0  0  0  0  0  0  0  0  0  0
    7.0590   19.0860    2.4150 C   0  0  0  0  0  0  0  0  0  0  0  0
    5.1180   18.7250    4.0220 C   0  0  0  0  0  0  0  0  0  0  0  0
    1.8090   16.7610   -0.8120 C   0  0  1  0  0  0  0  0  0  0  0  0
    0.3610   17.2920   -0.9870 C   0  0  0  0  0  0  0  0  0  0  0  0
   -0.4680   16.1350   -1.6000 C   0  0  0  0  0  0  0  0  0  0  0  0
    0.4320   14.8870   -1.4500 C   0  0  1  0  0  0  0  0  0  0  0  0
    0.2280   14.4200    0.0250 C   0  0  0  0  0  0  0  0  0  0  0  0
    0.1770   13.7250   -2.4640 C   0  0  2  0  0  0  0  0  0  0  0  0
   -1.2190   13.0830   -2.3830 C   0  0  0  0  0  0  0  0  0  0  0  0
   -1.3340   11.9210   -1.4540 C   0  0  0  0  0  0  0  0  0  0  0  0
   -0.3030   11.2330   -0.9300 C   0  0  0  0  0  0  0  0  0  0  0  0
    1.1420   11.5460   -1.3410 C   0  0  1  0  0  0  0  0  0  0  0  0
    1.8910   10.2220   -1.6480 C   0  0  0  0  0  0  0  0  0  0  0  0
    1.8150    9.2260   -0.4940 C   0  0  0  0  0  0  0  0  0  0  0  0
    0.3640    8.8960   -0.1540 C   0  0  2  0  0  0  0  0  0  0  0  0
   -0.2170    8.1840   -1.2510 O   0  0  0  0  0  0  0  0  0  0  0  0
   -0.4920   10.1540    0.1640 C   0  0  0  0  0  0  0  0  0  0  0  0
   -0.0500   10.7550    1.5220 C   0  0  0  0  0  0  0  0  0  0  0  0
   -1.9640    9.6950    0.3520 C   0  0  0  0  0  0  0  0  0  0  0  0
    1.3170   12.6270   -2.4920 C   0  0  1  0  0  0  0  0  0  0  0  0
    1.2350   11.9360   -3.8880 C   0  0  0  0  0  0  0  0  0  0  0  0
    2.7560   13.2560   -2.3920 C   0  0  0  0  0  0  0  0  0  0  0  0
    2.9180   14.4760   -1.4660 C   0  0  0  0  0  0  0  0  0  0  0  0
    1.8380   15.5250   -1.7460 C   0  0  2  0  0  0  0  0  0  0  0  0
    2.0320   16.0300   -3.2170 C   0  0  0  0  0  0  0  0  0  0  0  0
    2.7527   19.3895   -2.5488 H   0  0  0  0  0  0  0  0  0  0  0  0
    3.7531   17.9710   -3.0112 H   0  0  0  0  0  0  0  0  0  0  0  0
    1.9612   17.8447   -3.0112 H   0  0  0  0  0  0  0  0  0  0  0  0
    2.6394   18.7173   -0.4213 H   0  0  0  0  0  0  0  0  0  0  0  0
    4.1119   16.4655    0.0534 H   0  0  0  0  0  0  0  0  0  0  0  0
    4.7775   17.0335   -1.5523 H   0  0  0  0  0  0  0  0  0  0  0  0
    6.1561   18.0055    0.1083 H   0  0  0  0  0  0  0  0  0  0  0  0
    5.0429   19.3065   -0.4879 H   0  0  0  0  0  0  0  0  0  0  0  0
    3.8578   17.8625    1.3748 H   0  0  0  0  0  0  0  0  0  0  0  0
    7.5627   19.1248    3.3921 H   0  0  0  0  0  0  0  0  0  0  0  0
    7.4194   18.2130    1.8511 H   0  0  0  0  0  0  0  0  0  0  0  0
    7.2813   20.0039    1.8511 H   0  0  0  0  0  0  0  0  0  0  0  0
    5.8615   19.1225    4.7285 H   0  0  0  0  0  0  0  0  0  0  0  0
    4.1530   19.2275    4.1840 H   0  0  0  0  0  0  0  0  0  0  0  0
    4.9999   17.6434    4.1840 H   0  0  0  0  0  0  0  0  0  0  0  0
    2.0731   16.4641    0.2137 H   0  0  0  0  0  0  0  0  0  0  0  0
   -0.0567   17.5820   -0.0116 H   0  0  0  0  0  0  0  0  0  0  0  0
    0.3414   18.1795   -1.6366 H   0  0  0  0  0  0  0  0  0  0  0  0
   -1.4121   16.0009   -1.0516 H   0  0  0  0  0  0  0  0  0  0  0  0
   -0.7417   16.3280   -2.6478 H   0  0  0  0  0  0  0  0  0  0  0  0
    0.5725   15.2085    0.7102 H   0  0  0  0  0  0  0  0  0  0  0  0
   -0.8392   14.2207    0.2022 H   0  0  0  0  0  0  0  0  0  0  0  0
    0.8069   13.5016    0.2022 H   0  0  0  0  0  0  0  0  0  0  0  0
    0.2110   14.2456   -3.4324 H   0  0  0  0  0  0  0  0  0  0  0  0
   -1.9292   13.8548   -2.0513 H   0  0  0  0  0  0  0  0  0  0  0  0
   -1.4320   12.6907   -3.3883 H   0  0  0  0  0  0  0  0  0  0  0  0
   -2.3479   11.5994   -1.1736 H   0  0  0  0  0  0  0  0  0  0  0  0
    1.6033   12.0442   -0.4755 H   0  0  0  0  0  0  0  0  0  0  0  0
    1.4427    9.7620   -2.5410 H   0  0  0  0  0  0  0  0  0  0  0  0
    2.9512   10.4674   -1.8083 H   0  0  0  0  0  0  0  0  0  0  0  0
    2.3368    8.3013   -0.7814 H   0  0  0  0  0  0  0  0  0  0  0  0
    2.2896    9.6760    0.3905 H   0  0  0  0  0  0  0  0  0  0  0  0
    0.3710    8.2820    0.7587 H   0  0  0  0  0  0  0  0  0  0  0  0
   -1.1800    8.1740   -1.1190 H   0  0  0  0  0  0  0  0  0  0  0  0
   -0.4839   10.1650    2.3427 H   0  0  0  0  0  0  0  0  0  0  0  0
    1.0474   10.7312    1.5937 H   0  0  0  0  0  0  0  0  0  0  0  0
   -0.3997   11.7955    1.5937 H   0  0  0  0  0  0  0  0  0  0  0  0
   -2.1916    9.6240    1.4258 H   0  0  0  0  0  0  0  0  0  0  0  0
   -2.6388   10.4254   -0.1184 H   0  0  0  0  0  0  0  0  0  0  0  0
   -2.1040    8.7105   -0.1184 H   0  0  0  0  0  0  0  0  0  0  0  0
    1.1063   10.8519   -3.7535 H   0  0  0  0  0  0  0  0  0  0  0  0
    0.3785   12.3403   -4.4475 H   0  0  0  0  0  0  0  0  0  0  0  0
    2.1623   12.1286   -4.4475 H   0  0  0  0  0  0  0  0  0  0  0  0
    3.4377   12.4716   -2.0313 H   0  0  0  0  0  0  0  0  0  0  0  0
    2.9773   13.6303   -3.4024 H   0  0  0  0  0  0  0  0  0  0  0  0
    2.8368   14.1466   -0.4196 H   0  0  0  0  0  0  0  0  0  0  0  0
    3.9030   14.9289   -1.6522 H   0  0  0  0  0  0  0  0  0  0  0  0
    2.4264   17.0568   -3.2032 H   0  0  0  0  0  0  0  0  0  0  0  0
    2.7413   15.3718   -3.7401 H   0  0  0  0  0  0  0  0  0  0  0  0
    1.0645   16.0159   -3.7401 H   0  0  0  0  0  0  0  0  0  0  0  0
  1  2  1  0
  2  3  1  0
  3  4  1  0
  4  5  1  0
  5  6  1  0
  6  7  1  0
  7  8  1  0
  7  9  1  0
  2 10  1  0
 10 11  1  0
 11 12  1  0
 12 13  1  0
 13 14  1  1
 13 15  1  0
 15 16  1  0
 16 17  1  0
 17 18  2  0
 18 19  1  0
 19 20  1  0
 20 21  1  0
 21 22  1  0
 22 23  1  0
 22 24  1  0
 24 25  1  0
 24 26  1  0
 19 27  1  0
 27 28  1  6
 27 29  1  0
 29 30  1  0
 30 31  1  0
 31 32  1  6
  7  5  1  0
 31 10  1  0
 31 13  1  0
 27 15  1  0
 24 18  1  0
  1 33  1  0
  1 34  1  0
  1 35  1  0
  2 36  1  1
  3 37  1  0
  3 38  1  0
  4 39  1  0
  4 40  1  0
  5 41  1  1
  8 42  1  0
  8 43  1  0
  8 44  1  0
  9 45  1  0
  9 46  1  0
  9 47  1  0
 10 48  1  1
 11 49  1  0
 11 50  1  0
 12 51  1  0
 12 52  1  0
 14 53  1  0
 14 54  1  0
 14 55  1  0
 15 56  1  6
 16 57  1  0
 16 58  1  0
 17 59  1  0
 19 60  1  1
 20 61  1  0
 20 62  1  0
 21 63  1  0
 21 64  1  0
 22 65  1  1
 23 66  1  0
 25 67  1  0
 25 68  1  0
 25 69  1  0
 26 70  1  0
 26 71  1  0
 26 72  1  0
 28 73  1  0
 28 74  1  0
 28 75  1  0
 29 76  1  0
 29 77  1  0
 30 78  1  0
 30 79  1  0
 32 80  1  0
 32 81  1  0
 32 82  1  0
M  END
>  <meeko>  (13) 
{"is_sidechain": [false], "intermolecular_energy": 2.731, "internal_energy": -0.839}

$$$$
EPH_relaxed_0001_pdb2pqr_Repair_194_r2_0001_out
     RDKit          3D

 82 86  0  0  0  0  0  0  0  0999 V2000
    0.5770   18.7660   -2.1090 C   0  0  0  0  0  0  0  0  0  0  0  0
    1.3130   17.6290   -1.3940 C   0  0  2  0  0  0  0  0  0  0  0  0
    2.8440   17.7490   -1.5350 C   0  0  0  0  0  0  0  0  0  0  0  0
    3.4420   18.9280   -0.7620 C   0  0  0  0  0  0  0  0  0  0  0  0
    4.7200   18.5500   -0.0760 C   0  0  2  0  0  0  0  0  0  0  0  0
    4.5500   17.8250    1.1480 O   0  0  0  0  0  0  0  0  0  0  0  0
    5.1530   19.1240    1.2600 C   0  0  0  0  0  0  0  0  0  0  0  0
    4.3130   20.1240    1.9890 C   0  0  0  0  0  0  0  0  0  0  0  0
    6.6060   19.0850    1.6180 C   0  0  0  0  0  0  0  0  0  0  0  0
    0.8440   16.2840   -1.9360 C   0  0  1  0  0  0  0  0  0  0  0  0
    0.9900   16.1780   -3.4780 C   0  0  0  0  0  0  0  0  0  0  0  0
    1.3590   14.7050   -3.7920 C   0  0  0  0  0  0  0  0  0  0  0  0
    1.0890   13.9460   -2.4720 C   0  0  1  0  0  0  0  0  0  0  0  0
   -0.4510   13.6900   -2.4640 C   0  0  0  0  0  0  0  0  0  0  0  0
    1.8950   12.6230   -2.2590 C   0  0  2  0  0  0  0  0  0  0  0  0
    1.6160   11.5160   -3.2900 C   0  0  0  0  0  0  0  0  0  0  0  0
    0.5150   10.5730   -2.9320 C   0  0  0  0  0  0  0  0  0  0  0  0
   -0.0290   10.4350   -1.7090 C   0  0  0  0  0  0  0  0  0  0  0  0
    0.5290   11.2070   -0.5060 C   0  0  1  0  0  0  0  0  0  0  0  0
    0.6870   10.2440    0.6990 C   0  0  0  0  0  0  0  0  0  0  0  0
   -0.6060    9.5040    1.0300 C   0  0  0  0  0  0  0  0  0  0  0  0
   -1.0980    8.7020   -0.1720 C   0  0  2  0  0  0  0  0  0  0  0  0
   -0.1670    7.6480   -0.4350 O   0  0  0  0  0  0  0  0  0  0  0  0
   -1.2850    9.5660   -1.4500 C   0  0  0  0  0  0  0  0  0  0  0  0
   -2.5000   10.5090   -1.2680 C   0  0  0  0  0  0  0  0  0  0  0  0
   -1.6460    8.6130   -2.6220 C   0  0  0  0  0  0  0  0  0  0  0  0
    1.8400   12.0620   -0.7800 C   0  0  1  0  0  0  0  0  0  0  0  0
    3.1060   11.1700   -0.5950 C   0  0  0  0  0  0  0  0  0  0  0  0
    1.9420   13.2050    0.2980 C   0  0  0  0  0  0  0  0  0  0  0  0
    1.2250   14.5300   -0.0250 C   0  0  0  0  0  0  0  0  0  0  0  0
    1.5810   15.0180   -1.4320 C   0  0  2  0  0  0  0  0  0  0  0  0
    3.1210   15.3040   -1.4640 C   0  0  0  0  0  0  0  0  0  0  0  0
    0.1377   19.4446   -1.3630 H   0  0  0  0  0  0  0  0  0  0  0  0
    1.2863   19.3230   -2.7387 H   0  0  0  0  0  0  0  0  0  0  0  0
   -0.2216   18.3469   -2.7387 H   0  0  0  0  0  0  0  0  0  0  0  0
    1.0733   17.7020   -0.3229 H   0  0  0  0  0  0  0  0  0  0  0  0
    3.3011   16.8209   -1.1613 H   0  0  0  0  0  0  0  0  0  0  0  0
    3.0565   17.9217   -2.6004 H   0  0  0  0  0  0  0  0  0  0  0  0
    3.6442   19.7494   -1.4651 H   0  0  0  0  0  0  0  0  0  0  0  0
    2.7183   19.2364    0.0069 H   0  0  0  0  0  0  0  0  0  0  0  0
    5.2385   18.4559   -1.0416 H   0  0  0  0  0  0  0  0  0  0  0  0
    4.4322   19.9821    3.0733 H   0  0  0  0  0  0  0  0  0  0  0  0
    4.6322   21.1404    1.7149 H   0  0  0  0  0  0  0  0  0  0  0  0
    3.2568   19.9850    1.7149 H   0  0  0  0  0  0  0  0  0  0  0  0
    6.7140   19.0821    2.7127 H   0  0  0  0  0  0  0  0  0  0  0  0
    7.0618   18.1743    1.2022 H   0  0  0  0  0  0  0  0  0  0  0  0
    7.1100   19.9699    1.2022 H   0  0  0  0  0  0  0  0  0  0  0  0
   -0.1923   16.2875   -1.5672 H   0  0  0  0  0  0  0  0  0  0  0  0
    0.0414   16.4435   -3.9675 H   0  0  0  0  0  0  0  0  0  0  0  0
    1.7629   16.8668   -3.8499 H   0  0  0  0  0  0  0  0  0  0  0  0
    0.7284   14.3109   -4.6026 H   0  0  0  0  0  0  0  0  0  0  0  0
    2.4006   14.5984   -4.1292 H   0  0  0  0  0  0  0  0  0  0  0  0
   -0.8075   13.6307   -1.4250 H   0  0  0  0  0  0  0  0  0  0  0  0
   -0.9626   14.5154   -2.9807 H   0  0  0  0  0  0  0  0  0  0  0  0
   -0.6680   12.7435   -2.9807 H   0  0  0  0  0  0  0  0  0  0  0  0
    2.9308   12.9459   -2.4402 H   0  0  0  0  0  0  0  0  0  0  0  0
    1.3540   11.9979   -4.2435 H   0  0  0  0  0  0  0  0  0  0  0  0
    2.5320   10.9090   -3.3398 H   0  0  0  0  0  0  0  0  0  0  0  0
    0.1149    9.9375   -3.7358 H   0  0  0  0  0  0  0  0  0  0  0  0
   -0.2154   11.9814   -0.2691 H   0  0  0  0  0  0  0  0  0  0  0  0
    1.4652    9.5044    0.4596 H   0  0  0  0  0  0  0  0  0  0  0  0
    0.9596   10.8489    1.5764 H   0  0  0  0  0  0  0  0  0  0  0  0
   -0.4233    8.8180    1.8702 H   0  0  0  0  0  0  0  0  0  0  0  0
   -1.3752   10.2433    1.2977 H   0  0  0  0  0  0  0  0  0  0  0  0
   -2.0901    8.3009    0.0826 H   0  0  0  0  0  0  0  0  0  0  0  0
   -0.5970    6.8090   -0.1980 H   0  0  0  0  0  0  0  0  0  0  0  0
   -2.6914   10.6575   -0.1950 H   0  0  0  0  0  0  0  0  0  0  0  0
   -2.2851   11.4791   -1.7399 H   0  0  0  0  0  0  0  0  0  0  0  0
   -3.3865   10.0601   -1.7399 H   0  0  0  0  0  0  0  0  0  0  0  0
   -2.0085    7.6561   -2.2182 H   0  0  0  0  0  0  0  0  0  0  0  0
   -2.4325    9.0721   -3.2389 H   0  0  0  0  0  0  0  0  0  0  0  0
   -0.7527    8.4358   -3.2389 H   0  0  0  0  0  0  0  0  0  0  0  0
    3.3031   11.0312    0.4783 H   0  0  0  0  0  0  0  0  0  0  0  0
    2.9366   10.1907   -1.0664 H   0  0  0  0  0  0  0  0  0  0  0  0
    3.9712   11.6591   -1.0664 H   0  0  0  0  0  0  0  0  0  0  0  0
    1.5177   12.8169    1.2358 H   0  0  0  0  0  0  0  0  0  0  0  0
    3.0108   13.4603    0.3468 H   0  0  0  0  0  0  0  0  0  0  0  0
    0.1378   14.3752    0.0376 H   0  0  0  0  0  0  0  0  0  0  0  0
    1.5487   15.2897    0.7017 H   0  0  0  0  0  0  0  0  0  0  0  0
    3.5023   15.3748   -0.4346 H   0  0  0  0  0  0  0  0  0  0  0  0
    3.6350   14.4860   -1.9899 H   0  0  0  0  0  0  0  0  0  0  0  0
    3.3070   16.2520   -1.9899 H   0  0  0  0  0  0  0  0  0  0  0  0
  1  2  1  0
  2  3  1  0
  3  4  1  0
  4  5  1  0
  5  6  1  0
  6  7  1  0
  7  8  1  0
  7  9  1  0
  2 10  1  0
 10 11  1  0
 11 12  1  0
 12 13  1  0
 13 14  1  1
 13 15  1  0
 15 16  1  0
 16 17  1  0
 17 18  2  0
 18 19  1  0
 19 20  1  0
 20 21  1  0
 21 22  1  0
 22 23  1  0
 22 24  1  0
 24 25  1  0
 24 26  1  0
 19 27  1  0
 27 28  1  1
 27 29  1  0
 29 30  1  0
 30 31  1  0
 31 32  1  1
  7  5  1  0
 31 10  1  0
 31 13  1  0
 27 15  1  0
 24 18  1  0
  1 33  1  0
  1 34  1  0
  1 35  1  0
  2 36  1  1
  3 37  1  0
  3 38  1  0
  4 39  1  0
  4 40  1  0
  5 41  1  6
  8 42  1  0
  8 43  1  0
  8 44  1  0
  9 45  1  0
  9 46  1  0
  9 47  1  0
 10 48  1  6
 11 49  1  0
 11 50  1  0
 12 51  1  0
 12 52  1  0
 14 53  1  0
 14 54  1  0
 14 55  1  0
 15 56  1  6
 16 57  1  0
 16 58  1  0
 17 59  1  0
 19 60  1  1
 20 61  1  0
 20 62  1  0
 21 63  1  0
 21 64  1  0
 22 65  1  1
 23 66  1  0
 25 67  1  0
 25 68  1  0
 25 69  1  0
 26 70  1  0
 26 71  1  0
 26 72  1  0
 28 73  1  0
 28 74  1  0
 28 75  1  0
 29 76  1  0
 29 77  1  0
 30 78  1  0
 30 79  1  0
 32 80  1  0
 32 81  1  0
 32 82  1  0
M  END
>  <meeko>  (14) 
{"is_sidechain": [false], "intermolecular_energy": 2.731, "internal_energy": -0.839}

$$$$
EPH_relaxed_0001_pdb2pqr_Repair_194_r2_0001_out
     RDKit          3D

 82 86  0  0  0  0  0  0  0  0999 V2000
    1.0310   10.5150   -4.7350 C   0  0  0  0  0  0  0  0  0  0  0  0
    0.4050   10.3220   -3.3510 C   0  0  2  0  0  0  0  0  0  0  0  0
   -0.7470    9.2970   -3.3720 C   0  0  0  0  0  0  0  0  0  0  0  0
   -0.5900    8.1730   -2.3440 C   0  0  0  0  0  0  0  0  0  0  0  0
    0.0840    8.6540   -1.0950 C   0  0  2  0  0  0  0  0  0  0  0  0
   -0.1560    7.8460    0.0640 O   0  0  0  0  0  0  0  0  0  0  0  0
   -0.6680    9.1880    0.1100 C   0  0  0  0  0  0  0  0  0  0  0  0
   -2.1630    9.2690    0.1230 C   0  0  0  0  0  0  0  0  0  0  0  0
    0.0570   10.0780    1.0700 C   0  0  0  0  0  0  0  0  0  0  0  0
   -0.0960   11.6580   -2.8160 C   0  0  1  0  0  0  0  0  0  0  0  0
   -1.2610   11.4970   -1.8030 C   0  0  0  0  0  0  0  0  0  0  0  0
   -1.0920   12.6170   -0.7450 C   0  0  0  0  0  0  0  0  0  0  0  0
   -0.0460   13.5780   -1.3570 C   0  0  1  0  0  0  0  0  0  0  0  0
   -0.8530   14.4680   -2.3530 C   0  0  0  0  0  0  0  0  0  0  0  0
    0.7750   14.4420   -0.3450 C   0  0  2  0  0  0  0  0  0  0  0  0
   -0.0570   15.4230    0.5000 C   0  0  0  0  0  0  0  0  0  0  0  0
   -0.2310   16.7840   -0.0900 C   0  0  0  0  0  0  0  0  0  0  0  0
    0.4900   17.2940   -1.1050 C   0  0  0  0  0  0  0  0  0  0  0  0
    1.6670   16.5140   -1.7050 C   0  0  1  0  0  0  0  0  0  0  0  0
    2.8880   17.4590   -1.8630 C   0  0  0  0  0  0  0  0  0  0  0  0
    2.5540   18.7170   -2.6590 C   0  0  0  0  0  0  0  0  0  0  0  0
    1.4190   19.4950   -2.0000 C   0  0  2  0  0  0  0  0  0  0  0  0
    1.8780   20.0060   -0.7440 O   0  0  0  0  0  0  0  0  0  0  0  0
    0.1380   18.6420   -1.7810 C   0  0  0  0  0  0  0  0  0  0  0  0
   -0.5280   18.3430   -3.1460 C   0  0  0  0  0  0  0  0  0  0  0  0
   -0.8780   19.5030   -0.9820 C   0  0  0  0  0  0  0  0  0  0  0  0
    2.0400   15.1520   -0.9760 C   0  0  1  0  0  0  0  0  0  0  0  0
    3.0270   15.4310    0.1990 C   0  0  0  0  0  0  0  0  0  0  0  0
    2.8070   14.2210   -1.9880 C   0  0  0  0  0  0  0  0  0  0  0  0
    1.9450   13.3030   -2.8770 C   0  0  0  0  0  0  0  0  0  0  0  0
    0.9160   12.5380   -2.0390 C   0  0  2  0  0  0  0  0  0  0  0  0
    1.6990   11.6170   -1.0430 C   0  0  0  0  0  0  0  0  0  0  0  0
    2.0767   10.8374   -4.6227 H   0  0  0  0  0  0  0  0  0  0  0  0
    0.9976    9.5648   -5.2883 H   0  0  0  0  0  0  0  0  0  0  0  0
    0.4684   11.2814   -5.2883 H   0  0  0  0  0  0  0  0  0  0  0  0
    1.1871    9.9255   -2.6868 H   0  0  0  0  0  0  0  0  0  0  0  0
   -1.6879    9.8279   -3.1651 H   0  0  0  0  0  0  0  0  0  0  0  0
   -0.7403    8.8264   -4.3662 H   0  0  0  0  0  0  0  0  0  0  0  0
   -1.5863    7.7854   -2.0847 H   0  0  0  0  0  0  0  0  0  0  0  0
    0.0357    7.3857   -2.7897 H   0  0  0  0  0  0  0  0  0  0  0  0
    0.9259    9.0571   -1.6770 H   0  0  0  0  0  0  0  0  0  0  0  0
   -2.5201    9.2883    1.1632 H   0  0  0  0  0  0  0  0  0  0  0  0
   -2.4850   10.1859   -0.3923 H   0  0  0  0  0  0  0  0  0  0  0  0
   -2.5822    8.3923   -0.3923 H   0  0  0  0  0  0  0  0  0  0  0  0
   -0.1856    9.7802    2.1008 H   0  0  0  0  0  0  0  0  0  0  0  0
    1.1411    9.9867    0.9074 H   0  0  0  0  0  0  0  0  0  0  0  0
   -0.2516   11.1212    0.9074 H   0  0  0  0  0  0  0  0  0  0  0  0
   -0.3689   12.1452   -3.7637 H   0  0  0  0  0  0  0  0  0  0  0  0
   -2.2275   11.6044   -2.3171 H   0  0  0  0  0  0  0  0  0  0  0  0
   -1.2405   10.5030   -1.3324 H   0  0  0  0  0  0  0  0  0  0  0  0
   -2.0458   13.1382   -0.5756 H   0  0  0  0  0  0  0  0  0  0  0  0
   -0.7751   12.2232    0.2320 H   0  0  0  0  0  0  0  0  0  0  0  0
   -1.4872   15.1675   -1.7886 H   0  0  0  0  0  0  0  0  0  0  0  0
   -0.1550   15.0352   -2.9862 H   0  0  0  0  0  0  0  0  0  0  0  0
   -1.4857   13.8286   -2.9862 H   0  0  0  0  0  0  0  0  0  0  0  0
    1.1520   13.6858    0.3594 H   0  0  0  0  0  0  0  0  0  0  0  0
   -1.0556   14.9849    0.6445 H   0  0  0  0  0  0  0  0  0  0  0  0
    0.5008   15.5665    1.4372 H   0  0  0  0  0  0  0  0  0  0  0  0
   -1.0149   17.4235    0.3418 H   0  0  0  0  0  0  0  0  0  0  0  0
    1.3308   16.1698   -2.6942 H   0  0  0  0  0  0  0  0  0  0  0  0
    3.2356   17.7564   -0.8627 H   0  0  0  0  0  0  0  0  0  0  0  0
    3.6657   16.9108   -2.4150 H   0  0  0  0  0  0  0  0  0  0  0  0
    3.4467   19.3576   -2.7108 H   0  0  0  0  0  0  0  0  0  0  0  0
    2.2349   18.4188   -3.6686 H   0  0  0  0  0  0  0  0  0  0  0  0
    1.1392   20.3113   -2.6821 H   0  0  0  0  0  0  0  0  0  0  0  0
    2.2000   19.2530   -0.2210 H   0  0  0  0  0  0  0  0  0  0  0  0
   -1.5200   17.8976   -2.9802 H   0  0  0  0  0  0  0  0  0  0  0  0
   -0.6365   19.2788   -3.7139 H   0  0  0  0  0  0  0  0  0  0  0  0
    0.0992   17.6401   -3.7139 H   0  0  0  0  0  0  0  0  0  0  0  0
   -0.7108   19.3613    0.0960 H   0  0  0  0  0  0  0  0  0  0  0  0
   -0.7407   20.5639   -1.2380 H   0  0  0  0  0  0  0  0  0  0  0  0
   -1.9021   19.1936   -1.2380 H   0  0  0  0  0  0  0  0  0  0  0  0
    2.5072   15.2841    1.1572 H   0  0  0  0  0  0  0  0  0  0  0  0
    3.8793   14.7386    0.1342 H   0  0  0  0  0  0  0  0  0  0  0  0
    3.3906   16.4671    0.1342 H   0  0  0  0  0  0  0  0  0  0  0  0
    3.3988   14.8678   -2.6524 H   0  0  0  0  0  0  0  0  0  0  0  0
    3.4002   13.5399   -1.3602 H   0  0  0  0  0  0  0  0  0  0  0  0
    1.4177   13.9160   -3.6228 H   0  0  0  0  0  0  0  0  0  0  0  0
    2.6041   12.5755   -3.3734 H   0  0  0  0  0  0  0  0  0  0  0  0
    1.4551   11.9038   -0.0094 H   0  0  0  0  0  0  0  0  0  0  0  0
    1.4116   10.5684   -1.2100 H   0  0  0  0  0  0  0  0  0  0  0  0
    2.7802   11.7319   -1.2100 H   0  0  0  0  0  0  0  0  0  0  0  0
  1  2  1  0
  2  3  1  0
  3  4  1  0
  4  5  1  0
  5  6  1  0
  6  7  1  0
  7  8  1  0
  7  9  1  0
  2 10  1  0
 10 11  1  0
 11 12  1  0
 12 13  1  0
 13 14  1  6
 13 15  1  0
 15 16  1  0
 16 17  1  0
 17 18  2  0
 18 19  1  0
 19 20  1  0
 20 21  1  0
 21 22  1  0
 22 23  1  0
 22 24  1  0
 24 25  1  0
 24 26  1  0
 19 27  1  0
 27 28  1  1
 27 29  1  0
 29 30  1  0
 30 31  1  0
 31 32  1  1
  7  5  1  0
 31 10  1  0
 31 13  1  0
 27 15  1  0
 24 18  1  0
  1 33  1  0
  1 34  1  0
  1 35  1  0
  2 36  1  1
  3 37  1  0
  3 38  1  0
  4 39  1  0
  4 40  1  0
  5 41  1  6
  8 42  1  0
  8 43  1  0
  8 44  1  0
  9 45  1  0
  9 46  1  0
  9 47  1  0
 10 48  1  6
 11 49  1  0
 11 50  1  0
 12 51  1  0
 12 52  1  0
 14 53  1  0
 14 54  1  0
 14 55  1  0
 15 56  1  1
 16 57  1  0
 16 58  1  0
 17 59  1  0
 19 60  1  6
 20 61  1  0
 20 62  1  0
 21 63  1  0
 21 64  1  0
 22 65  1  6
 23 66  1  0
 25 67  1  0
 25 68  1  0
 25 69  1  0
 26 70  1  0
 26 71  1  0
 26 72  1  0
 28 73  1  0
 28 74  1  0
 28 75  1  0
 29 76  1  0
 29 77  1  0
 30 78  1  0
 30 79  1  0
 32 80  1  0
 32 81  1  0
 32 82  1  0
M  END
>  <meeko>  (15) 
{"is_sidechain": [false], "intermolecular_energy": 2.731, "internal_energy": -0.839}

$$$$
EPH_relaxed_0001_pdb2pqr_Repair_194_r2_0001_out
     RDKit          3D

 82 86  0  0  0  0  0  0  0  0999 V2000
    0.9050   14.9060   -2.6490 C   0  0  0  0  0  0  0  0  0  0  0  0
    1.1620   14.2300   -3.9980 C   0  0  2  0  0  0  0  0  0  0  0  0
    0.4500   14.9560   -5.1570 C   0  0  0  0  0  0  0  0  0  0  0  0
    0.9770   14.5720   -6.5410 C   0  0  0  0  0  0  0  0  0  0  0  0
    0.7580   15.6660   -7.5420 C   0  0  2  0  0  0  0  0  0  0  0  0
    0.4040   15.2140   -8.8550 O   0  0  0  0  0  0  0  0  0  0  0  0
    1.6620   15.9000   -8.7380 C   0  0  0  0  0  0  0  0  0  0  0  0
    2.8540   15.0320   -8.9970 C   0  0  0  0  0  0  0  0  0  0  0  0
    1.6710   17.2550   -9.3740 C   0  0  0  0  0  0  0  0  0  0  0  0
    0.7140   12.7740   -3.9430 C   0  0  1  0  0  0  0  0  0  0  0  0
    1.8470   11.7850   -4.3270 C   0  0  0  0  0  0  0  0  0  0  0  0
    1.6530   10.5200   -3.4530 C   0  0  0  0  0  0  0  0  0  0  0  0
    0.2400   10.6800   -2.8440 C   0  0  1  0  0  0  0  0  0  0  0  0
   -0.7370   10.2090   -3.9660 C   0  0  0  0  0  0  0  0  0  0  0  0
   -0.0210    9.9290   -1.4980 C   0  0  2  0  0  0  0  0  0  0  0  0
    0.0870    8.3960   -1.5750 C   0  0  0  0  0  0  0  0  0  0  0  0
   -1.1850    7.6820   -1.8960 C   0  0  0  0  0  0  0  0  0  0  0  0
   -2.4190    8.2170   -1.8330 C   0  0  0  0  0  0  0  0  0  0  0  0
   -2.6340    9.6440   -1.3120 C   0  0  1  0  0  0  0  0  0  0  0  0
   -3.8110    9.6550   -0.3030 C   0  0  0  0  0  0  0  0  0  0  0  0
   -5.0850    9.0480   -0.8830 C   0  0  0  0  0  0  0  0  0  0  0  0
   -4.8460    7.6100   -1.3360 C   0  0  2  0  0  0  0  0  0  0  0  0
   -4.5840    6.8010   -0.1850 O   0  0  0  0  0  0  0  0  0  0  0  0
   -3.6750    7.4730   -2.3490 C   0  0  0  0  0  0  0  0  0  0  0  0
   -4.0860    8.0950   -3.7070 C   0  0  0  0  0  0  0  0  0  0  0  0
   -3.4490    5.9600   -2.6160 C   0  0  0  0  0  0  0  0  0  0  0  0
   -1.3410   10.3780   -0.7500 C   0  0  1  0  0  0  0  0  0  0  0  0
   -1.1420   10.0260    0.7560 C   0  0  0  0  0  0  0  0  0  0  0  0
   -1.5650   11.9350   -0.8160 C   0  0  0  0  0  0  0  0  0  0  0  0
   -1.1760   12.6380   -2.1310 C   0  0  0  0  0  0  0  0  0  0  0  0
    0.2310   12.2290   -2.5750 C   0  0  2  0  0  0  0  0  0  0  0  0
    1.2390   12.7100   -1.4760 C   0  0  0  0  0  0  0  0  0  0  0  0
    1.1682   14.2136   -1.8358 H   0  0  0  0  0  0  0  0  0  0  0  0
    1.5206   15.8143   -2.5708 H   0  0  0  0  0  0  0  0  0  0  0  0
   -0.1585   15.1760   -2.5708 H   0  0  0  0  0  0  0  0  0  0  0  0
    2.2436   14.2799   -4.1921 H   0  0  0  0  0  0  0  0  0  0  0  0
   -0.6216   14.7115   -5.1136 H   0  0  0  0  0  0  0  0  0  0  0  0
    0.6413   16.0315   -5.0278 H   0  0  0  0  0  0  0  0  0  0  0  0
    2.0552   14.3670   -6.4674 H   0  0  0  0  0  0  0  0  0  0  0  0
    0.4282   13.6815   -6.8814 H   0  0  0  0  0  0  0  0  0  0  0  0
    0.3836   16.3402   -6.7576 H   0  0  0  0  0  0  0  0  0  0  0  0
    3.2910   14.7138   -8.0390 H   0  0  0  0  0  0  0  0  0  0  0  0
    2.5447   14.1462   -9.5712 H   0  0  0  0  0  0  0  0  0  0  0  0
    3.6021   15.5983   -9.5712 H   0  0  0  0  0  0  0  0  0  0  0  0
    1.6761   18.0275   -8.5910 H   0  0  0  0  0  0  0  0  0  0  0  0
    2.5699   17.3606   -9.9992 H   0  0  0  0  0  0  0  0  0  0  0  0
    0.7736   17.3726   -9.9992 H   0  0  0  0  0  0  0  0  0  0  0  0
   -0.1271   12.8138   -4.6508 H   0  0  0  0  0  0  0  0  0  0  0  0
    1.7759   11.5232   -5.3930 H   0  0  0  0  0  0  0  0  0  0  0  0
    2.8368   12.2338   -4.1572 H   0  0  0  0  0  0  0  0  0  0  0  0
    1.7099    9.6101   -4.0686 H   0  0  0  0  0  0  0  0  0  0  0  0
    2.4312   10.4222   -2.6818 H   0  0  0  0  0  0  0  0  0  0  0  0
   -1.6382    9.7745   -3.5088 H   0  0  0  0  0  0  0  0  0  0  0  0
   -1.0207   11.0693   -4.5900 H   0  0  0  0  0  0  0  0  0  0  0  0
   -0.2407    9.4512   -4.5900 H   0  0  0  0  0  0  0  0  0  0  0  0
    0.8252   10.2579   -0.8769 H   0  0  0  0  0  0  0  0  0  0  0  0
    0.8229    8.1458   -2.3533 H   0  0  0  0  0  0  0  0  0  0  0  0
    0.3786    8.0606   -0.5688 H   0  0  0  0  0  0  0  0  0  0  0  0
   -1.1071    6.6307   -2.2103 H   0  0  0  0  0  0  0  0  0  0  0  0
   -2.8910   10.2536   -2.1908 H   0  0  0  0  0  0  0  0  0  0  0  0
   -3.5184    9.0774    0.5863 H   0  0  0  0  0  0  0  0  0  0  0  0
   -4.0255   10.7043   -0.0519 H   0  0  0  0  0  0  0  0  0  0  0  0
   -5.8710    9.0573   -0.1135 H   0  0  0  0  0  0  0  0  0  0  0  0
   -5.3933    9.6443   -1.7544 H   0  0  0  0  0  0  0  0  0  0  0  0
   -5.7536    7.2742   -1.8590 H   0  0  0  0  0  0  0  0  0  0  0  0
   -4.5790    7.3860    0.5910 H   0  0  0  0  0  0  0  0  0  0  0  0
   -4.6845    9.0007   -3.5293 H   0  0  0  0  0  0  0  0  0  0  0  0
   -3.1834    8.3581   -4.2780 H   0  0  0  0  0  0  0  0  0  0  0  0
   -4.6820    7.3678   -4.2780 H   0  0  0  0  0  0  0  0  0  0  0  0
   -3.3693    5.4264   -1.6574 H   0  0  0  0  0  0  0  0  0  0  0  0
   -4.2971    5.5582   -3.1899 H   0  0  0  0  0  0  0  0  0  0  0  0
   -2.5205    5.8236   -3.1899 H   0  0  0  0  0  0  0  0  0  0  0  0
   -1.5881   10.8152    1.3791 H   0  0  0  0  0  0  0  0  0  0  0  0
   -1.6306    9.0653    0.9757 H   0  0  0  0  0  0  0  0  0  0  0  0
   -0.0669    9.9493    0.9757 H   0  0  0  0  0  0  0  0  0  0  0  0
   -2.6342   12.1251   -0.6407 H   0  0  0  0  0  0  0  0  0  0  0  0
   -0.8911   12.3552   -0.0548 H   0  0  0  0  0  0  0  0  0  0  0  0
   -1.8959   12.3595   -2.9147 H   0  0  0  0  0  0  0  0  0  0  0  0
   -1.1894   13.7253   -1.9650 H   0  0  0  0  0  0  0  0  0  0  0  0
    0.8184   12.5093   -0.4796 H   0  0  0  0  0  0  0  0  0  0  0  0
    2.1899   12.1686   -1.5884 H   0  0  0  0  0  0  0  0  0  0  0  0
    1.4163   13.7898   -1.5884 H   0  0  0  0  0  0  0  0  0  0  0  0
  1  2  1  0
  2  3  1  0
  3  4  1  0
  4  5  1  0
  5  6  1  0
  6  7  1  0
  7  8  1  0
  7  9  1  0
  2 10  1  0
 10 11  1  0
 11 12  1  0
 12 13  1  0
 13 14  1  6
 13 15  1  0
 15 16  1  0
 16 17  1  0
 17 18  2  0
 18 19  1  0
 19 20  1  0
 20 21  1  0
 21 22  1  0
 22 23  1  0
 22 24  1  0
 24 25  1  0
 24 26  1  0
 19 27  1  0
 27 28  1  1
 27 29  1  0
 29 30  1  0
 30 31  1  0
 31 32  1  1
  7  5  1  0
 31 10  1  0
 31 13  1  0
 27 15  1  0
 24 18  1  0
  1 33  1  0
  1 34  1  0
  1 35  1  0
  2 36  1  6
  3 37  1  0
  3 38  1  0
  4 39  1  0
  4 40  1  0
  5 41  1  1
  8 42  1  0
  8 43  1  0
  8 44  1  0
  9 45  1  0
  9 46  1  0
  9 47  1  0
 10 48  1  6
 11 49  1  0
 11 50  1  0
 12 51  1  0
 12 52  1  0
 14 53  1  0
 14 54  1  0
 14 55  1  0
 15 56  1  1
 16 57  1  0
 16 58  1  0
 17 59  1  0
 19 60  1  6
 20 61  1  0
 20 62  1  0
 21 63  1  0
 21 64  1  0
 22 65  1  6
 23 66  1  0
 25 67  1  0
 25 68  1  0
 25 69  1  0
 26 70  1  0
 26 71  1  0
 26 72  1  0
 28 73  1  0
 28 74  1  0
 28 75  1  0
 29 76  1  0
 29 77  1  0
 30 78  1  0
 30 79  1  0
 32 80  1  0
 32 81  1  0
 32 82  1  0
M  END
>  <meeko>  (16) 
{"is_sidechain": [false], "intermolecular_energy": 2.731, "internal_energy": -0.839}

$$$$
EPH_relaxed_0001_pdb2pqr_Repair_194_r2_0001_out
     RDKit          3D

 82 86  0  0  0  0  0  0  0  0999 V2000
    3.1270   14.8290   -7.5860 C   0  0  0  0  0  0  0  0  0  0  0  0
    1.6030   14.8570   -7.4430 C   0  0  2  0  0  0  0  0  0  0  0  0
    0.9740   16.0710   -8.1560 C   0  0  0  0  0  0  0  0  0  0  0  0
    1.9240   16.7700   -9.1320 C   0  0  0  0  0  0  0  0  0  0  0  0
    1.6330   16.3940  -10.5540 C   0  0  2  0  0  0  0  0  0  0  0  0
    1.0430   15.0990  -10.7220 O   0  0  0  0  0  0  0  0  0  0  0  0
    2.3520   15.2770  -11.2870 C   0  0  0  0  0  0  0  0  0  0  0  0
    3.4180   14.4660  -10.6210 C   0  0  0  0  0  0  0  0  0  0  0  0
    2.3640   15.2960  -12.7840 C   0  0  0  0  0  0  0  0  0  0  0  0
    1.2190   14.8630   -5.9680 C   0  0  1  0  0  0  0  0  0  0  0  0
   -0.0300   15.7370   -5.6790 C   0  0  0  0  0  0  0  0  0  0  0  0
   -0.8120   15.0360   -4.5390 C   0  0  0  0  0  0  0  0  0  0  0  0
    0.1700   13.9770   -3.9860 C   0  0  1  0  0  0  0  0  0  0  0  0
    1.1120   14.7660   -3.0250 C   0  0  0  0  0  0  0  0  0  0  0  0
   -0.4740   12.7410   -3.2770 C   0  0  2  0  0  0  0  0  0  0  0  0
   -1.2890   13.0660   -2.0120 C   0  0  0  0  0  0  0  0  0  0  0  0
   -0.5180   13.0440   -0.7340 C   0  0  0  0  0  0  0  0  0  0  0  0
    0.7020   12.5010   -0.5660 C   0  0  0  0  0  0  0  0  0  0  0  0
    1.3910   11.7420   -1.7070 C   0  0  1  0  0  0  0  0  0  0  0  0
    1.9700   10.4080   -1.1670 C   0  0  0  0  0  0  0  0  0  0  0  0
    2.8880   10.6130    0.0350 C   0  0  0  0  0  0  0  0  0  0  0  0
    2.1500   11.3190    1.1700 C   0  0  2  0  0  0  0  0  0  0  0  0
    1.1330   10.4460    1.6710 O   0  0  0  0  0  0  0  0  0  0  0  0
    1.5150   12.6710    0.7410 C   0  0  0  0  0  0  0  0  0  0  0  0
    2.6320   13.7130    0.4870 C   0  0  0  0  0  0  0  0  0  0  0  0
    0.6840   13.2090    1.9370 C   0  0  0  0  0  0  0  0  0  0  0  0
    0.5280   11.5420   -3.0270 C   0  0  1  0  0  0  0  0  0  0  0  0
   -0.3410   10.2530   -2.9040 C   0  0  0  0  0  0  0  0  0  0  0  0
    1.4980   11.3090   -4.2450 C   0  0  0  0  0  0  0  0  0  0  0  0
    2.0050   12.5650   -4.9790 C   0  0  0  0  0  0  0  0  0  0  0  0
    0.8460   13.5040   -5.3250 C   0  0  2  0  0  0  0  0  0  0  0  0
   -0.1080   12.7450   -6.3080 C   0  0  0  0  0  0  0  0  0  0  0  0
    3.5889   14.8205   -6.5877 H   0  0  0  0  0  0  0  0  0  0  0  0
    3.4271   13.9252   -8.1365 H   0  0  0  0  0  0  0  0  0  0  0  0
    3.4601   15.7212   -8.1365 H   0  0  0  0  0  0  0  0  0  0  0  0
    1.2094   13.9505   -7.9261 H   0  0  0  0  0  0  0  0  0  0  0  0
    0.0921   15.7266   -8.7160 H   0  0  0  0  0  0  0  0  0  0  0  0
    0.7160   16.8038   -7.3772 H   0  0  0  0  0  0  0  0  0  0  0  0
    1.8117   17.8586   -9.0209 H   0  0  0  0  0  0  0  0  0  0  0  0
    2.9510   16.4538   -8.8969 H   0  0  0  0  0  0  0  0  0  0  0  0
    1.4393   17.4443  -10.8171 H   0  0  0  0  0  0  0  0  0  0  0  0
    3.3118   14.5468   -9.5291 H   0  0  0  0  0  0  0  0  0  0  0  0
    3.3192   13.4126  -10.9221 H   0  0  0  0  0  0  0  0  0  0  0  0
    4.4068   14.8422  -10.9221 H   0  0  0  0  0  0  0  0  0  0  0  0
    2.9207   16.1774  -13.1351 H   0  0  0  0  0  0  0  0  0  0  0  0
    2.8494   14.3827  -13.1584 H   0  0  0  0  0  0  0  0  0  0  0  0
    1.3307   15.3419  -13.1584 H   0  0  0  0  0  0  0  0  0  0  0  0
    2.1576   15.2390   -5.5348 H   0  0  0  0  0  0  0  0  0  0  0  0
    0.2777   16.7448   -5.3633 H   0  0  0  0  0  0  0  0  0  0  0  0
   -0.6541   15.8439   -6.5785 H   0  0  0  0  0  0  0  0  0  0  0  0
   -1.0864   15.7577   -3.7555 H   0  0  0  0  0  0  0  0  0  0  0  0
   -1.7526   14.5884   -4.8924 H   0  0  0  0  0  0  0  0  0  0  0  0
    0.8436   14.5412   -1.9822 H   0  0  0  0  0  0  0  0  0  0  0  0
    2.1550   14.4680   -3.2076 H   0  0  0  0  0  0  0  0  0  0  0  0
    1.0016   15.8451   -3.2076 H   0  0  0  0  0  0  0  0  0  0  0  0
   -1.2049   12.3954   -4.0229 H   0  0  0  0  0  0  0  0  0  0  0  0
   -1.7179   14.0717   -2.1330 H   0  0  0  0  0  0  0  0  0  0  0  0
   -2.0454   12.2721   -1.9249 H   0  0  0  0  0  0  0  0  0  0  0  0
   -0.9866   13.5111    0.1448 H   0  0  0  0  0  0  0  0  0  0  0  0
    2.2090   12.3910   -2.0529 H   0  0  0  0  0  0  0  0  0  0  0  0
    1.1355    9.7573   -0.8666 H   0  0  0  0  0  0  0  0  0  0  0  0
    2.5682    9.9538   -1.9707 H   0  0  0  0  0  0  0  0  0  0  0  0
    3.2413    9.6335    0.3895 H   0  0  0  0  0  0  0  0  0  0  0  0
    3.7379   11.2390   -0.2746 H   0  0  0  0  0  0  0  0  0  0  0  0
    2.8902   11.5547    1.9489 H   0  0  0  0  0  0  0  0  0  0  0  0
    0.7930   10.8330    2.4960 H   0  0  0  0  0  0  0  0  0  0  0  0
    3.0209   14.0758    1.4499 H   0  0  0  0  0  0  0  0  0  0  0  0
    3.4469   13.2450   -0.0847 H   0  0  0  0  0  0  0  0  0  0  0  0
    2.2216   14.5585   -0.0847 H   0  0  0  0  0  0  0  0  0  0  0  0
    1.1584   12.9019    2.8807 H   0  0  0  0  0  0  0  0  0  0  0  0
    0.6405   14.3071    1.8888 H   0  0  0  0  0  0  0  0  0  0  0  0
   -0.3357   12.7992    1.8888 H   0  0  0  0  0  0  0  0  0  0  0  0
   -0.4996   10.0177   -1.8412 H   0  0  0  0  0  0  0  0  0  0  0  0
   -1.3129   10.4181   -3.3920 H   0  0  0  0  0  0  0  0  0  0  0  0
    0.1765    9.4139   -3.3920 H   0  0  0  0  0  0  0  0  0  0  0  0
    2.3774   10.7645   -3.8707 H   0  0  0  0  0  0  0  0  0  0  0  0
    0.8999   10.7625   -4.9890 H   0  0  0  0  0  0  0  0  0  0  0  0
    2.7178   13.0968   -4.3316 H   0  0  0  0  0  0  0  0  0  0  0  0
    2.4930   12.2515   -5.9137 H   0  0  0  0  0  0  0  0  0  0  0  0
   -0.8408   12.1620   -5.7308 H   0  0  0  0  0  0  0  0  0  0  0  0
   -0.6358   13.4728   -6.9418 H   0  0  0  0  0  0  0  0  0  0  0  0
    0.4825   12.0671   -6.9418 H   0  0  0  0  0  0  0  0  0  0  0  0
  1  2  1  0
  2  3  1  0
  3  4  1  0
  4  5  1  0
  5  6  1  0
  6  7  1  0
  7  8  1  0
  7  9  1  0
  2 10  1  0
 10 11  1  0
 11 12  1  0
 12 13  1  0
 13 14  1  1
 13 15  1  0
 15 16  1  0
 16 17  1  0
 17 18  2  0
 18 19  1  0
 19 20  1  0
 20 21  1  0
 21 22  1  0
 22 23  1  0
 22 24  1  0
 24 25  1  0
 24 26  1  0
 19 27  1  0
 27 28  1  1
 27 29  1  0
 29 30  1  0
 30 31  1  0
 31 32  1  6
  7  5  1  0
 31 10  1  0
 31 13  1  0
 27 15  1  0
 24 18  1  0
  1 33  1  0
  1 34  1  0
  1 35  1  0
  2 36  1  6
  3 37  1  0
  3 38  1  0
  4 39  1  0
  4 40  1  0
  5 41  1  6
  8 42  1  0
  8 43  1  0
  8 44  1  0
  9 45  1  0
  9 46  1  0
  9 47  1  0
 10 48  1  1
 11 49  1  0
 11 50  1  0
 12 51  1  0
 12 52  1  0
 14 53  1  0
 14 54  1  0
 14 55  1  0
 15 56  1  6
 16 57  1  0
 16 58  1  0
 17 59  1  0
 19 60  1  6
 20 61  1  0
 20 62  1  0
 21 63  1  0
 21 64  1  0
 22 65  1  1
 23 66  1  0
 25 67  1  0
 25 68  1  0
 25 69  1  0
 26 70  1  0
 26 71  1  0
 26 72  1  0
 28 73  1  0
 28 74  1  0
 28 75  1  0
 29 76  1  0
 29 77  1  0
 30 78  1  0
 30 79  1  0
 32 80  1  0
 32 81  1  0
 32 82  1  0
M  END
>  <meeko>  (17) 
{"is_sidechain": [false], "intermolecular_energy": 2.731, "internal_energy": -0.839}

$$$$
EPH_relaxed_0001_pdb2pqr_Repair_194_r2_0001_out
     RDKit          3D

 82 86  0  0  0  0  0  0  0  0999 V2000
   -2.4300    7.7930    0.0240 C   0  0  0  0  0  0  0  0  0  0  0  0
   -3.1230    9.1550   -0.0610 C   0  0  2  0  0  0  0  0  0  0  0  0
   -4.5860    9.0350   -0.5300 C   0  0  0  0  0  0  0  0  0  0  0  0
   -5.0700    7.5890   -0.6700 C   0  0  0  0  0  0  0  0  0  0  0  0
   -5.8840    7.3940   -1.9130 C   0  0  2  0  0  0  0  0  0  0  0  0
   -6.8220    8.4450   -2.1860 O   0  0  0  0  0  0  0  0  0  0  0  0
   -7.3820    7.1520   -1.9030 C   0  0  0  0  0  0  0  0  0  0  0  0
   -8.1540    7.0900   -0.6230 C   0  0  0  0  0  0  0  0  0  0  0  0
   -8.0080    6.4940   -3.0930 C   0  0  0  0  0  0  0  0  0  0  0  0
   -2.3490   10.0740   -0.9990 C   0  0  1  0  0  0  0  0  0  0  0  0
   -2.9860   11.4850   -1.1140 C   0  0  0  0  0  0  0  0  0  0  0  0
   -1.8180   12.4920   -1.2730 C   0  0  0  0  0  0  0  0  0  0  0  0
   -0.5830   11.6120   -1.5760 C   0  0  1  0  0  0  0  0  0  0  0  0
   -0.6820   11.2930   -3.1010 C   0  0  0  0  0  0  0  0  0  0  0  0
    0.8080   12.2210   -1.2030 C   0  0  2  0  0  0  0  0  0  0  0  0
    1.1800   13.5090   -1.9580 C   0  0  0  0  0  0  0  0  0  0  0  0
    1.9250   13.3070   -3.2350 C   0  0  0  0  0  0  0  0  0  0  0  0
    2.5300   12.1670   -3.6160 C   0  0  0  0  0  0  0  0  0  0  0  0
    2.5840   10.9530   -2.6790 C   0  0  1  0  0  0  0  0  0  0  0  0
    4.0240   10.3760   -2.6610 C   0  0  0  0  0  0  0  0  0  0  0  0
    4.5440   10.0580   -4.0590 C   0  0  0  0  0  0  0  0  0  0  0  0
    4.5300   11.3020   -4.9430 C   0  0  2  0  0  0  0  0  0  0  0  0
    5.4850   12.2390   -4.4360 O   0  0  0  0  0  0  0  0  0  0  0  0
    3.1320   11.9760   -5.0300 C   0  0  0  0  0  0  0  0  0  0  0  0
    2.1720   11.0790   -5.8500 C   0  0  0  0  0  0  0  0  0  0  0  0
    3.2870   13.2950   -5.8340 C   0  0  0  0  0  0  0  0  0  0  0  0
    1.9980   11.1780   -1.2190 C   0  0  1  0  0  0  0  0  0  0  0  0
    3.1050   11.7510   -0.2840 C   0  0  0  0  0  0  0  0  0  0  0  0
    1.5810    9.7860   -0.6130 C   0  0  0  0  0  0  0  0  0  0  0  0
    0.1530    9.2940   -0.9180 C   0  0  0  0  0  0  0  0  0  0  0  0
   -0.8770   10.3900   -0.6320 C   0  0  2  0  0  0  0  0  0  0  0  0
   -0.8160   10.7160    0.9000 C   0  0  0  0  0  0  0  0  0  0  0  0
   -2.2901    7.5180    1.0799 H   0  0  0  0  0  0  0  0  0  0  0  0
   -3.0514    7.0337   -0.4734 H   0  0  0  0  0  0  0  0  0  0  0  0
   -1.4504    7.8483   -0.4734 H   0  0  0  0  0  0  0  0  0  0  0  0
   -3.1361    9.5828    0.9523 H   0  0  0  0  0  0  0  0  0  0  0  0
   -5.2284    9.5471    0.2014 H   0  0  0  0  0  0  0  0  0  0  0  0
   -4.6421    9.4913   -1.5293 H   0  0  0  0  0  0  0  0  0  0  0  0
   -4.1956    6.9227   -0.7085 H   0  0  0  0  0  0  0  0  0  0  0  0
   -5.7063    7.3554    0.1963 H   0  0  0  0  0  0  0  0  0  0  0  0
   -5.0540    6.8624   -2.4013 H   0  0  0  0  0  0  0  0  0  0  0  0
   -7.4587    7.1458    0.2276 H   0  0  0  0  0  0  0  0  0  0  0  0
   -8.8573    7.9346   -0.5777 H   0  0  0  0  0  0  0  0  0  0  0  0
   -8.7135    6.1440   -0.5777 H   0  0  0  0  0  0  0  0  0  0  0  0
   -8.7296    5.7355   -2.7553 H   0  0  0  0  0  0  0  0  0  0  0  0
   -8.5279    7.2505   -3.6991 H   0  0  0  0  0  0  0  0  0  0  0  0
   -7.2265    6.0124   -3.6991 H   0  0  0  0  0  0  0  0  0  0  0  0
   -2.3866    9.4714   -1.9185 H   0  0  0  0  0  0  0  0  0  0  0  0
   -3.6480   11.5313   -1.9913 H   0  0  0  0  0  0  0  0  0  0  0  0
   -3.5906   11.7188   -0.2253 H   0  0  0  0  0  0  0  0  0  0  0  0
   -2.0138   13.1858   -2.1039 H   0  0  0  0  0  0  0  0  0  0  0  0
   -1.6777   13.1132   -0.3761 H   0  0  0  0  0  0  0  0  0  0  0  0
   -1.0055   10.2505   -3.2373 H   0  0  0  0  0  0  0  0  0  0  0  0
   -1.4129   11.9681   -3.5701 H   0  0  0  0  0  0  0  0  0  0  0  0
    0.3027   11.4356   -3.5701 H   0  0  0  0  0  0  0  0  0  0  0  0
    0.6604   12.5207   -0.1550 H   0  0  0  0  0  0  0  0  0  0  0  0
    0.2495   14.0483   -2.1891 H   0  0  0  0  0  0  0  0  0  0  0  0
    1.8586   14.0652   -1.2946 H   0  0  0  0  0  0  0  0  0  0  0  0
    1.9847   14.1628   -3.9235 H   0  0  0  0  0  0  0  0  0  0  0  0
    1.8905   10.2112   -3.1018 H   0  0  0  0  0  0  0  0  0  0  0  0
    4.6937   11.1138   -2.1950 H   0  0  0  0  0  0  0  0  0  0  0  0
    3.9996    9.4351   -2.0917 H   0  0  0  0  0  0  0  0  0  0  0  0
    5.5751    9.6824   -3.9826 H   0  0  0  0  0  0  0  0  0  0  0  0
    3.8901    9.2983   -4.5121 H   0  0  0  0  0  0  0  0  0  0  0  0
    4.7890   10.9840   -5.9637 H   0  0  0  0  0  0  0  0  0  0  0  0
    5.0310   13.0910   -4.3240 H   0  0  0  0  0  0  0  0  0  0  0  0
    1.5435   10.4918   -5.1643 H   0  0  0  0  0  0  0  0  0  0  0  0
    1.5321   11.7103   -6.4840 H   0  0  0  0  0  0  0  0  0  0  0  0
    2.7585   10.3978   -6.4840 H   0  0  0  0  0  0  0  0  0  0  0  0
    3.3863   14.1399   -5.1367 H   0  0  0  0  0  0  0  0  0  0  0  0
    4.1843   13.2350   -6.4675 H   0  0  0  0  0  0  0  0  0  0  0  0
    2.4003   13.4446   -6.4675 H   0  0  0  0  0  0  0  0  0  0  0  0
    2.8128   11.5998    0.7657 H   0  0  0  0  0  0  0  0  0  0  0  0
    4.0547   11.2312   -0.4788 H   0  0  0  0  0  0  0  0  0  0  0  0
    3.2290   12.8265   -0.4788 H   0  0  0  0  0  0  0  0  0  0  0  0
    2.2823    9.0316   -0.9992 H   0  0  0  0  0  0  0  0  0  0  0  0
    1.6095    9.9272    0.4775 H   0  0  0  0  0  0  0  0  0  0  0  0
    0.0896    9.0085   -1.9784 H   0  0  0  0  0  0  0  0  0  0  0  0
   -0.0656    8.4303   -0.2729 H   0  0  0  0  0  0  0  0  0  0  0  0
   -0.9882    9.7959    1.4778 H   0  0  0  0  0  0  0  0  0  0  0  0
    0.1743   11.1252    1.1487 H   0  0  0  0  0  0  0  0  0  0  0  0
   -1.5913   11.4556    1.1487 H   0  0  0  0  0  0  0  0  0  0  0  0
  1  2  1  0
  2  3  1  0
  3  4  1  0
  4  5  1  0
  5  6  1  0
  6  7  1  0
  7  8  1  0
  7  9  1  0
  2 10  1  0
 10 11  1  0
 11 12  1  0
 12 13  1  0
 13 14  1  6
 13 15  1  0
 15 16  1  0
 16 17  1  0
 17 18  2  0
 18 19  1  0
 19 20  1  0
 20 21  1  0
 21 22  1  0
 22 23  1  0
 22 24  1  0
 24 25  1  0
 24 26  1  0
 19 27  1  0
 27 28  1  1
 27 29  1  0
 29 30  1  0
 30 31  1  0
 31 32  1  1
  7  5  1  0
 31 10  1  0
 31 13  1  0
 27 15  1  0
 24 18  1  0
  1 33  1  0
  1 34  1  0
  1 35  1  0
  2 36  1  1
  3 37  1  0
  3 38  1  0
  4 39  1  0
  4 40  1  0
  5 41  1  6
  8 42  1  0
  8 43  1  0
  8 44  1  0
  9 45  1  0
  9 46  1  0
  9 47  1  0
 10 48  1  6
 11 49  1  0
 11 50  1  0
 12 51  1  0
 12 52  1  0
 14 53  1  0
 14 54  1  0
 14 55  1  0
 15 56  1  1
 16 57  1  0
 16 58  1  0
 17 59  1  0
 19 60  1  6
 20 61  1  0
 20 62  1  0
 21 63  1  0
 21 64  1  0
 22 65  1  6
 23 66  1  0
 25 67  1  0
 25 68  1  0
 25 69  1  0
 26 70  1  0
 26 71  1  0
 26 72  1  0
 28 73  1  0
 28 74  1  0
 28 75  1  0
 29 76  1  0
 29 77  1  0
 30 78  1  0
 30 79  1  0
 32 80  1  0
 32 81  1  0
 32 82  1  0
M  END
>  <meeko>  (18) 
{"is_sidechain": [false], "intermolecular_energy": 2.731, "internal_energy": -0.839}

$$$$
EPH_relaxed_0001_pdb2pqr_Repair_194_r2_0001_out
     RDKit          3D

 82 86  0  0  0  0  0  0  0  0999 V2000
  -14.1920    5.3910    0.5360 C   0  0  0  0  0  0  0  0  0  0  0  0
  -13.7150    6.8300    0.3170 C   0  0  2  0  0  0  0  0  0  0  0  0
  -14.8780    7.7810   -0.0280 C   0  0  0  0  0  0  0  0  0  0  0  0
  -14.5730    9.2540    0.2560 C   0  0  0  0  0  0  0  0  0  0  0  0
  -15.2870   10.1620   -0.7000 C   0  0  2  0  0  0  0  0  0  0  0  0
  -15.1860    9.7800   -2.0770 O   0  0  0  0  0  0  0  0  0  0  0  0
  -14.5740   11.0290   -1.7200 C   0  0  0  0  0  0  0  0  0  0  0  0
  -13.0820   11.0310   -1.8360 C   0  0  0  0  0  0  0  0  0  0  0  0
  -15.2870   12.2270   -2.2640 C   0  0  0  0  0  0  0  0  0  0  0  0
  -12.6660    6.8670   -0.7880 C   0  0  1  0  0  0  0  0  0  0  0  0
  -13.0520    7.8270   -1.9450 C   0  0  0  0  0  0  0  0  0  0  0  0
  -11.7330    8.4570   -2.4620 C   0  0  0  0  0  0  0  0  0  0  0  0
  -10.6150    7.6020   -1.8210 C   0  0  1  0  0  0  0  0  0  0  0  0
  -10.5110    6.3340   -2.7260 C   0  0  0  0  0  0  0  0  0  0  0  0
   -9.2270    8.2990   -1.6440 C   0  0  2  0  0  0  0  0  0  0  0  0
   -8.5430    8.7340   -2.9520 C   0  0  0  0  0  0  0  0  0  0  0  0
   -7.6390    7.7170   -3.5670 C   0  0  0  0  0  0  0  0  0  0  0  0
   -7.1620    6.6200   -2.9510 C   0  0  0  0  0  0  0  0  0  0  0  0
   -7.4500    6.3630   -1.4660 C   0  0  1  0  0  0  0  0  0  0  0  0
   -6.1380    5.9480   -0.7480 C   0  0  0  0  0  0  0  0  0  0  0  0
   -5.4510    4.7650   -1.4230 C   0  0  0  0  0  0  0  0  0  0  0  0
   -5.1290    5.0800   -2.8810 C   0  0  2  0  0  0  0  0  0  0  0  0
   -4.1380    6.1100   -2.9220 O   0  0  0  0  0  0  0  0  0  0  0  0
   -6.3740    5.5190   -3.7030 C   0  0  0  0  0  0  0  0  0  0  0  0
   -7.3130    4.3060   -3.9140 C   0  0  0  0  0  0  0  0  0  0  0  0
   -5.8880    5.9430   -5.1150 C   0  0  0  0  0  0  0  0  0  0  0  0
   -8.2250    7.5190   -0.6990 C   0  0  1  0  0  0  0  0  0  0  0  0
   -7.2110    8.5730   -0.1590 C   0  0  0  0  0  0  0  0  0  0  0  0
   -8.9440    6.9080    0.5610 C   0  0  0  0  0  0  0  0  0  0  0  0
  -10.3610    6.3430    0.3470 C   0  0  0  0  0  0  0  0  0  0  0  0
  -11.2440    7.3450   -0.4030 C   0  0  2  0  0  0  0  0  0  0  0  0
  -11.3850    8.6230    0.4920 C   0  0  0  0  0  0  0  0  0  0  0  0
  -14.2595    5.1873    1.6149 H   0  0  0  0  0  0  0  0  0  0  0  0
  -15.1820    5.2588    0.0752 H   0  0  0  0  0  0  0  0  0  0  0  0
  -13.4770    4.6936    0.0752 H   0  0  0  0  0  0  0  0  0  0  0  0
  -13.2724    7.1795    1.2615 H   0  0  0  0  0  0  0  0  0  0  0  0
  -15.1083    7.6741   -1.0983 H   0  0  0  0  0  0  0  0  0  0  0  0
  -15.7256    7.4986    0.6138 H   0  0  0  0  0  0  0  0  0  0  0  0
  -14.8926    9.4931    1.2810 H   0  0  0  0  0  0  0  0  0  0  0  0
  -13.4910    9.4100    0.1342 H   0  0  0  0  0  0  0  0  0  0  0  0
  -16.0558   10.3893    0.0532 H   0  0  0  0  0  0  0  0  0  0  0  0
  -12.6361   11.0316   -0.8305 H   0  0  0  0  0  0  0  0  0  0  0  0
  -12.7554   10.1333   -2.3814 H   0  0  0  0  0  0  0  0  0  0  0  0
  -12.7578   11.9296   -2.3814 H   0  0  0  0  0  0  0  0  0  0  0  0
  -15.6545   12.8445   -1.4311 H   0  0  0  0  0  0  0  0  0  0  0  0
  -14.5935   12.8179   -2.8804 H   0  0  0  0  0  0  0  0  0  0  0  0
  -16.1371   11.8992   -2.8804 H   0  0  0  0  0  0  0  0  0  0  0  0
  -12.6437    5.8008   -1.0575 H   0  0  0  0  0  0  0  0  0  0  0  0
  -13.5466    7.2674   -2.7526 H   0  0  0  0  0  0  0  0  0  0  0  0
  -13.7509    8.6025   -1.5984 H   0  0  0  0  0  0  0  0  0  0  0  0
  -11.6814    8.4041   -3.5595 H   0  0  0  0  0  0  0  0  0  0  0  0
  -11.6475    9.5214   -2.1980 H   0  0  0  0  0  0  0  0  0  0  0  0
  -10.4374    5.4371   -2.0934 H   0  0  0  0  0  0  0  0  0  0  0  0
  -11.4063    6.2624   -3.3611 H   0  0  0  0  0  0  0  0  0  0  0  0
   -9.6160    6.4092   -3.3611 H   0  0  0  0  0  0  0  0  0  0  0  0
   -9.4962    9.2303   -1.1241 H   0  0  0  0  0  0  0  0  0  0  0  0
   -9.3289    8.9764   -3.6824 H   0  0  0  0  0  0  0  0  0  0  0  0
   -7.9047    9.5912   -2.6915 H   0  0  0  0  0  0  0  0  0  0  0  0
   -7.3374    7.8784   -4.6125 H   0  0  0  0  0  0  0  0  0  0  0  0
   -8.1712    5.5330   -1.4361 H   0  0  0  0  0  0  0  0  0  0  0  0
   -5.4483    6.8049   -0.7508 H   0  0  0  0  0  0  0  0  0  0  0  0
   -6.3998    5.6425    0.2758 H   0  0  0  0  0  0  0  0  0  0  0  0
   -4.5164    4.5388   -0.8888 H   0  0  0  0  0  0  0  0  0  0  0  0
   -6.1306    3.9006   -1.3926 H   0  0  0  0  0  0  0  0  0  0  0  0
   -4.7584    4.1537   -3.3443 H   0  0  0  0  0  0  0  0  0  0  0  0
   -3.8990    6.2520   -3.8540 H   0  0  0  0  0  0  0  0  0  0  0  0
   -7.6219    3.9070   -2.9365 H   0  0  0  0  0  0  0  0  0  0  0  0
   -8.2023    4.6244   -4.4777 H   0  0  0  0  0  0  0  0  0  0  0  0
   -6.7819    3.5249   -4.4777 H   0  0  0  0  0  0  0  0  0  0  0  0
   -5.0624    6.6633   -5.0176 H   0  0  0  0  0  0  0  0  0  0  0  0
   -5.5382    5.0563   -5.6640 H   0  0  0  0  0  0  0  0  0  0  0  0
   -6.7191    6.4099   -5.6640 H   0  0  0  0  0  0  0  0  0  0  0  0
   -7.2216    8.5620    0.9409 H   0  0  0  0  0  0  0  0  0  0  0  0
   -6.2008    8.3276   -0.5184 H   0  0  0  0  0  0  0  0  0  0  0  0
   -7.4953    9.5730   -0.5184 H   0  0  0  0  0  0  0  0  0  0  0  0
   -8.3135    6.0901    0.9398 H   0  0  0  0  0  0  0  0  0  0  0  0
   -9.0725    7.7511    1.2557 H   0  0  0  0  0  0  0  0  0  0  0  0
  -10.2933    5.4144   -0.2387 H   0  0  0  0  0  0  0  0  0  0  0  0
  -10.8121    6.1461    1.3308 H   0  0  0  0  0  0  0  0  0  0  0  0
  -11.3530    8.3332    1.5527 H   0  0  0  0  0  0  0  0  0  0  0  0
  -10.5578    9.3151    0.2759 H   0  0  0  0  0  0  0  0  0  0  0  0
  -12.3432    9.1181    0.2759 H   0  0  0  0  0  0  0  0  0  0  0  0
  1  2  1  0
  2  3  1  0
  3  4  1  0
  4  5  1  0
  5  6  1  0
  6  7  1  0
  7  8  1  0
  7  9  1  0
  2 10  1  0
 10 11  1  0
 11 12  1  0
 12 13  1  0
 13 14  1  6
 13 15  1  0
 15 16  1  0
 16 17  1  0
 17 18  2  0
 18 19  1  0
 19 20  1  0
 20 21  1  0
 21 22  1  0
 22 23  1  0
 22 24  1  0
 24 25  1  0
 24 26  1  0
 19 27  1  0
 27 28  1  1
 27 29  1  0
 29 30  1  0
 30 31  1  0
 31 32  1  1
  7  5  1  0
 31 10  1  0
 31 13  1  0
 27 15  1  0
 24 18  1  0
  1 33  1  0
  1 34  1  0
  1 35  1  0
  2 36  1  1
  3 37  1  0
  3 38  1  0
  4 39  1  0
  4 40  1  0
  5 41  1  1
  8 42  1  0
  8 43  1  0
  8 44  1  0
  9 45  1  0
  9 46  1  0
  9 47  1  0
 10 48  1  6
 11 49  1  0
 11 50  1  0
 12 51  1  0
 12 52  1  0
 14 53  1  0
 14 54  1  0
 14 55  1  0
 15 56  1  1
 16 57  1  0
 16 58  1  0
 17 59  1  0
 19 60  1  6
 20 61  1  0
 20 62  1  0
 21 63  1  0
 21 64  1  0
 22 65  1  6
 23 66  1  0
 25 67  1  0
 25 68  1  0
 25 69  1  0
 26 70  1  0
 26 71  1  0
 26 72  1  0
 28 73  1  0
 28 74  1  0
 28 75  1  0
 29 76  1  0
 29 77  1  0
 30 78  1  0
 30 79  1  0
 32 80  1  0
 32 81  1  0
 32 82  1  0
M  END
>  <meeko>  (19) 
{"is_sidechain": [false], "intermolecular_energy": 2.731, "internal_energy": -0.839}

$$$$
EPH_relaxed_0001_pdb2pqr_Repair_194_r2_0001_out
     RDKit          3D

 82 86  0  0  0  0  0  0  0  0999 V2000
   -0.2330   17.0830   -1.0710 C   0  0  0  0  0  0  0  0  0  0  0  0
   -0.5670   15.8240   -0.2670 C   0  0  2  0  0  0  0  0  0  0  0  0
   -0.8480   16.1390    1.2160 C   0  0  0  0  0  0  0  0  0  0  0  0
   -1.4580   17.5240    1.4460 C   0  0  0  0  0  0  0  0  0  0  0  0
   -0.9610   18.5220    0.4450 C   0  0  2  0  0  0  0  0  0  0  0  0
   -0.9440   19.8790    0.9090 O   0  0  0  0  0  0  0  0  0  0  0  0
   -1.8390   19.5920   -0.1780 C   0  0  0  0  0  0  0  0  0  0  0  0
   -3.2870   19.7160    0.1770 C   0  0  0  0  0  0  0  0  0  0  0  0
   -1.4160   20.1950   -1.4820 C   0  0  0  0  0  0  0  0  0  0  0  0
    0.5730   14.8180   -0.3790 C   0  0  1  0  0  0  0  0  0  0  0  0
    0.7460   13.9660    0.9060 C   0  0  0  0  0  0  0  0  0  0  0  0
    1.1900   12.5520    0.4490 C   0  0  0  0  0  0  0  0  0  0  0  0
    1.5760   12.7270   -1.0380 C   0  0  1  0  0  0  0  0  0  0  0  0
    3.0240   13.3100   -1.0100 C   0  0  0  0  0  0  0  0  0  0  0  0
    1.4870   11.4460   -1.9300 C   0  0  2  0  0  0  0  0  0  0  0  0
    2.4270   10.2990   -1.5210 C   0  0  0  0  0  0  0  0  0  0  0  0
    3.7720   10.3150   -2.1690 C   0  0  0  0  0  0  0  0  0  0  0  0
    4.1110   11.0410   -3.2500 C   0  0  0  0  0  0  0  0  0  0  0  0
    3.0640   11.8790   -3.9960 C   0  0  1  0  0  0  0  0  0  0  0  0
    3.1990   11.6380   -5.5220 C   0  0  0  0  0  0  0  0  0  0  0  0
    4.6160   11.8870   -6.0310 C   0  0  0  0  0  0  0  0  0  0  0  0
    5.6200   10.9940   -5.3070 C   0  0  2  0  0  0  0  0  0  0  0  0
    5.3690    9.6320   -5.6670 O   0  0  0  0  0  0  0  0  0  0  0  0
    5.5690   11.1430   -3.7600 C   0  0  0  0  0  0  0  0  0  0  0  0
    6.1310   12.5270   -3.3520 C   0  0  0  0  0  0  0  0  0  0  0  0
    6.5290   10.0870   -3.1470 C   0  0  0  0  0  0  0  0  0  0  0  0
    1.5660   11.7320   -3.4850 C   0  0  1  0  0  0  0  0  0  0  0  0
    0.8780   10.5270   -4.1950 C   0  0  0  0  0  0  0  0  0  0  0  0
    0.7540   13.0150   -3.8990 C   0  0  0  0  0  0  0  0  0  0  0  0
    0.7840   14.2040   -2.9200 C   0  0  0  0  0  0  0  0  0  0  0  0
    0.4690   13.7460   -1.4920 C   0  0  2  0  0  0  0  0  0  0  0  0
   -0.9900   13.1750   -1.4840 C   0  0  0  0  0  0  0  0  0  0  0  0
   -0.0133   17.9111   -0.3811 H   0  0  0  0  0  0  0  0  0  0  0  0
    0.6453   16.8910   -1.7048 H   0  0  0  0  0  0  0  0  0  0  0  0
   -1.0909   17.3516   -1.7048 H   0  0  0  0  0  0  0  0  0  0  0  0
   -1.4856   15.3939   -0.6926 H   0  0  0  0  0  0  0  0  0  0  0  0
   -1.5459   15.3831    1.6054 H   0  0  0  0  0  0  0  0  0  0  0  0
    0.1207   16.1238    1.7370 H   0  0  0  0  0  0  0  0  0  0  0  0
   -2.5523   17.4499    1.3623 H   0  0  0  0  0  0  0  0  0  0  0  0
   -1.1615   17.8670    2.4482 H   0  0  0  0  0  0  0  0  0  0  0  0
   -0.2815   17.7769    0.0054 H   0  0  0  0  0  0  0  0  0  0  0  0
   -3.3967   19.7254    1.2715 H   0  0  0  0  0  0  0  0  0  0  0  0
   -3.6879   20.6518   -0.2397 H   0  0  0  0  0  0  0  0  0  0  0  0
   -3.8411   18.8620   -0.2397 H   0  0  0  0  0  0  0  0  0  0  0  0
   -0.7939   21.0819   -1.2912 H   0  0  0  0  0  0  0  0  0  0  0  0
   -0.8364   19.4572   -2.0563 H   0  0  0  0  0  0  0  0  0  0  0  0
   -2.3070   20.4888   -2.0563 H   0  0  0  0  0  0  0  0  0  0  0  0
    1.4043   15.5051   -0.5954 H   0  0  0  0  0  0  0  0  0  0  0  0
    1.5131   14.4123    1.5560 H   0  0  0  0  0  0  0  0  0  0  0  0
   -0.1922   13.9196    1.4784 H   0  0  0  0  0  0  0  0  0  0  0  0
    2.0536   12.2072    1.0366 H   0  0  0  0  0  0  0  0  0  0  0  0
    0.3992   11.8004    0.5894 H   0  0  0  0  0  0  0  0  0  0  0  0
    3.3468   13.4400    0.0335 H   0  0  0  0  0  0  0  0  0  0  0  0
    3.7082   12.6172   -1.5219 H   0  0  0  0  0  0  0  0  0  0  0  0
    3.0373   14.2835   -1.5219 H   0  0  0  0  0  0  0  0  0  0  0  0
    0.4687   11.0852   -1.7230 H   0  0  0  0  0  0  0  0  0  0  0  0
    2.5737   10.3516   -0.4321 H   0  0  0  0  0  0  0  0  0  0  0  0
    1.9390    9.3716   -1.8555 H   0  0  0  0  0  0  0  0  0  0  0  0
    4.5521    9.6792   -1.7249 H   0  0  0  0  0  0  0  0  0  0  0  0
    3.2930   12.9293   -3.7626 H   0  0  0  0  0  0  0  0  0  0  0  0
    2.9242   10.5954   -5.7399 H   0  0  0  0  0  0  0  0  0  0  0  0
    2.5315   12.3479   -6.0323 H   0  0  0  0  0  0  0  0  0  0  0  0
    4.6544   11.6716   -7.1090 H   0  0  0  0  0  0  0  0  0  0  0  0
    4.8785   12.9379   -5.8394 H   0  0  0  0  0  0  0  0  0  0  0  0
    6.6265   11.3089   -5.6196 H   0  0  0  0  0  0  0  0  0  0  0  0
    5.6660    9.0730   -4.9290 H   0  0  0  0  0  0  0  0  0  0  0  0
    6.1613   12.6015   -2.2549 H   0  0  0  0  0  0  0  0  0  0  0  0
    7.1476   12.6434   -3.7556 H   0  0  0  0  0  0  0  0  0  0  0  0
    5.4833   13.3192   -3.7556 H   0  0  0  0  0  0  0  0  0  0  0  0
    6.4803   10.1406   -2.0494 H   0  0  0  0  0  0  0  0  0  0  0  0
    6.2287    9.0821   -3.4787 H   0  0  0  0  0  0  0  0  0  0  0  0
    7.5579   10.2904   -3.4787 H   0  0  0  0  0  0  0  0  0  0  0  0
    0.4819    9.8333   -3.4388 H   0  0  0  0  0  0  0  0  0  0  0  0
    0.0533   10.8940   -4.8236 H   0  0  0  0  0  0  0  0  0  0  0  0
    1.6132   10.0033   -4.8236 H   0  0  0  0  0  0  0  0  0  0  0  0
    1.1553   13.3663   -4.8611 H   0  0  0  0  0  0  0  0  0  0  0  0
   -0.2973   12.6927   -3.9270 H   0  0  0  0  0  0  0  0  0  0  0  0
    1.7845   14.6608   -2.9391 H   0  0  0  0  0  0  0  0  0  0  0  0
    0.0219   14.9338   -3.2307 H   0  0  0  0  0  0  0  0  0  0  0  0
   -1.3265   13.0433   -0.4450 H   0  0  0  0  0  0  0  0  0  0  0  0
   -1.6612   13.8768   -2.0007 H   0  0  0  0  0  0  0  0  0  0  0  0
   -1.0066   12.2040   -2.0007 H   0  0  0  0  0  0  0  0  0  0  0  0
  1  2  1  0
  2  3  1  0
  3  4  1  0
  4  5  1  0
  5  6  1  0
  6  7  1  0
  7  8  1  0
  7  9  1  0
  2 10  1  0
 10 11  1  0
 11 12  1  0
 12 13  1  0
 13 14  1  1
 13 15  1  0
 15 16  1  0
 16 17  1  0
 17 18  2  0
 18 19  1  0
 19 20  1  0
 20 21  1  0
 21 22  1  0
 22 23  1  0
 22 24  1  0
 24 25  1  0
 24 26  1  0
 19 27  1  0
 27 28  1  6
 27 29  1  0
 29 30  1  0
 30 31  1  0
 31 32  1  6
  7  5  1  0
 31 10  1  0
 31 13  1  0
 27 15  1  0
 24 18  1  0
  1 33  1  0
  1 34  1  0
  1 35  1  0
  2 36  1  6
  3 37  1  0
  3 38  1  0
  4 39  1  0
  4 40  1  0
  5 41  1  6
  8 42  1  0
  8 43  1  0
  8 44  1  0
  9 45  1  0
  9 46  1  0
  9 47  1  0
 10 48  1  6
 11 49  1  0
 11 50  1  0
 12 51  1  0
 12 52  1  0
 14 53  1  0
 14 54  1  0
 14 55  1  0
 15 56  1  6
 16 57  1  0
 16 58  1  0
 17 59  1  0
 19 60  1  6
 20 61  1  0
 20 62  1  0
 21 63  1  0
 21 64  1  0
 22 65  1  6
 23 66  1  0
 25 67  1  0
 25 68  1  0
 25 69  1  0
 26 70  1  0
 26 71  1  0
 26 72  1  0
 28 73  1  0
 28 74  1  0
 28 75  1  0
 29 76  1  0
 29 77  1  0
 30 78  1  0
 30 79  1  0
 32 80  1  0
 32 81  1  0
 32 82  1  0
M  END
>  <meeko>  (20) 
{"is_sidechain": [false], "intermolecular_energy": 2.731, "internal_energy": -0.839}

$$$$
