EPH_relaxed_0001_pdb2pqr_Repair_141_r2_0001_out
     RDKit          3D

 82 86  0  0  0  0  0  0  0  0999 V2000
    4.5240   17.7020   -0.7920 C   0  0  0  0  0  0  0  0  0  0  0  0
    3.1470   18.2880   -0.4660 C   0  0  2  0  0  0  0  0  0  0  0  0
    3.1030   18.9210    0.9390 C   0  0  0  0  0  0  0  0  0  0  0  0
    4.3790   18.6990    1.7550 C   0  0  0  0  0  0  0  0  0  0  0  0
    4.2440   19.2260    3.1510 C   0  0  2  0  0  0  0  0  0  0  0  0
    5.2340   20.1930    3.5250 O   0  0  0  0  0  0  0  0  0  0  0  0
    5.2530   18.9540    4.2500 C   0  0  0  0  0  0  0  0  0  0  0  0
    6.4720   18.1220    4.0010 C   0  0  0  0  0  0  0  0  0  0  0  0
    4.8130   19.0820    5.6750 C   0  0  0  0  0  0  0  0  0  0  0  0
    2.0810   17.2040   -0.5820 C   0  0  1  0  0  0  0  0  0  0  0  0
    0.7450   17.7410   -1.1610 C   0  0  0  0  0  0  0  0  0  0  0  0
    0.1410   16.6010   -2.0220 C   0  0  0  0  0  0  0  0  0  0  0  0
    0.9670   15.3490   -1.6470 C   0  0  1  0  0  0  0  0  0  0  0  0
    0.3420   14.8410   -0.3100 C   0  0  0  0  0  0  0  0  0  0  0  0
    1.0310   14.2150   -2.7220 C   0  0  2  0  0  0  0  0  0  0  0  0
   -0.3220   13.5730   -3.0730 C   0  0  0  0  0  0  0  0  0  0  0  0
   -0.6970   12.3850   -2.2490 C   0  0  0  0  0  0  0  0  0  0  0  0
    0.1400   11.6830   -1.4640 C   0  0  0  0  0  0  0  0  0  0  0  0
    1.6390   12.0060   -1.4230 C   0  0  1  0  0  0  0  0  0  0  0  0
    2.4550   10.6910   -1.5310 C   0  0  0  0  0  0  0  0  0  0  0  0
    2.0510    9.6630   -0.4780 C   0  0  0  0  0  0  0  0  0  0  0  0
    0.5670    9.3240   -0.5890 C   0  0  2  0  0  0  0  0  0  0  0  0
    0.3400    8.6430   -1.8260 O   0  0  0  0  0  0  0  0  0  0  0  0
   -0.3550   10.5730   -0.5030 C   0  0  0  0  0  0  0  0  0  0  0  0
   -0.3360   11.1360    0.9400 C   0  0  0  0  0  0  0  0  0  0  0  0
   -1.8120   10.1100   -0.7700 C   0  0  0  0  0  0  0  0  0  0  0  0
    2.1370   13.1190   -2.4430 C   0  0  1  0  0  0  0  0  0  0  0  0
    2.4740   12.4670   -3.8180 C   0  0  0  0  0  0  0  0  0  0  0  0
    3.4780   13.7440   -1.9060 C   0  0  0  0  0  0  0  0  0  0  0  0
    3.3510   14.9380   -0.9410 C   0  0  0  0  0  0  0  0  0  0  0  0
    2.3930   15.9950   -1.4990 C   0  0  2  0  0  0  0  0  0  0  0  0
    3.0070   16.5400   -2.8330 C   0  0  0  0  0  0  0  0  0  0  0  0
    5.0568   17.4753    0.1433 H   0  0  0  0  0  0  0  0  0  0  0  0
    4.4004   16.7785   -1.3767 H   0  0  0  0  0  0  0  0  0  0  0  0
    5.1038   18.4314   -1.3767 H   0  0  0  0  0  0  0  0  0  0  0  0
    2.9464   19.0874   -1.1945 H   0  0  0  0  0  0  0  0  0  0  0  0
    2.9466   20.0040    0.8270 H   0  0  0  0  0  0  0  0  0  0  0  0
    2.2831   18.4324    1.4858 H   0  0  0  0  0  0  0  0  0  0  0  0
    4.5898   17.6203    1.8002 H   0  0  0  0  0  0  0  0  0  0  0  0
    5.1994   19.2413    1.2621 H   0  0  0  0  0  0  0  0  0  0  0  0
    3.1501   19.1175    3.1103 H   0  0  0  0  0  0  0  0  0  0  0  0
    6.9131   17.8209    4.9626 H   0  0  0  0  0  0  0  0  0  0  0  0
    6.1931   17.2250    3.4287 H   0  0  0  0  0  0  0  0  0  0  0  0
    7.2057   18.7086    3.4287 H   0  0  0  0  0  0  0  0  0  0  0  0
    5.6532   18.8376    6.3415 H   0  0  0  0  0  0  0  0  0  0  0  0
    4.4821   20.1136    5.8653 H   0  0  0  0  0  0  0  0  0  0  0  0
    3.9803   18.3889    5.8653 H   0  0  0  0  0  0  0  0  0  0  0  0
    2.0342   16.8775    0.4674 H   0  0  0  0  0  0  0  0  0  0  0  0
    0.0568   18.0044   -0.3443 H   0  0  0  0  0  0  0  0  0  0  0  0
    0.9109   18.6461   -1.7637 H   0  0  0  0  0  0  0  0  0  0  0  0
   -0.9215   16.4522   -1.7791 H   0  0  0  0  0  0  0  0  0  0  0  0
    0.1856   16.8230   -3.0984 H   0  0  0  0  0  0  0  0  0  0  0  0
    0.8845   15.2820    0.5392 H   0  0  0  0  0  0  0  0  0  0  0  0
   -0.7160   15.1385   -0.2635 H   0  0  0  0  0  0  0  0  0  0  0  0
    0.4170   13.7445   -0.2635 H   0  0  0  0  0  0  0  0  0  0  0  0
    1.3450   14.7613   -3.6236 H   0  0  0  0  0  0  0  0  0  0  0  0
   -1.1038   14.3361   -2.9448 H   0  0  0  0  0  0  0  0  0  0  0  0
   -0.2272   13.2089   -4.1067 H   0  0  0  0  0  0  0  0  0  0  0  0
   -1.7461   12.0564   -2.2873 H   0  0  0  0  0  0  0  0  0  0  0  0
    1.8215   12.4795   -0.4471 H   0  0  0  0  0  0  0  0  0  0  0  0
    2.2929   10.2564   -2.5284 H   0  0  0  0  0  0  0  0  0  0  0  0
    3.5134   10.9404   -1.3650 H   0  0  0  0  0  0  0  0  0  0  0  0
    2.6417    8.7466   -0.6241 H   0  0  0  0  0  0  0  0  0  0  0  0
    2.2409   10.0877    0.5188 H   0  0  0  0  0  0  0  0  0  0  0  0
    0.3103    8.6848    0.2686 H   0  0  0  0  0  0  0  0  0  0  0  0
    0.7880    9.1480   -2.5260 H   0  0  0  0  0  0  0  0  0  0  0  0
   -0.3641   10.3037    1.6587 H   0  0  0  0  0  0  0  0  0  0  0  0
    0.5824   11.7217    1.0930 H   0  0  0  0  0  0  0  0  0  0  0  0
   -1.2128   11.7823    1.0930 H   0  0  0  0  0  0  0  0  0  0  0  0
   -2.3263    9.9466    0.1885 H   0  0  0  0  0  0  0  0  0  0  0  0
   -2.3432   10.8836   -1.3439 H   0  0  0  0  0  0  0  0  0  0  0  0
   -1.7992    9.1717   -1.3439 H   0  0  0  0  0  0  0  0  0  0  0  0
    2.9734   11.5009   -3.6531 H   0  0  0  0  0  0  0  0  0  0  0  0
    1.5454   12.3076   -4.3857 H   0  0  0  0  0  0  0  0  0  0  0  0
    3.1411   13.1324   -4.3857 H   0  0  0  0  0  0  0  0  0  0  0  0
    4.0287   12.9494   -1.3813 H   0  0  0  0  0  0  0  0  0  0  0  0
    3.9845   14.1461   -2.7959 H   0  0  0  0  0  0  0  0  0  0  0  0
    2.9679   14.5799    0.0260 H   0  0  0  0  0  0  0  0  0  0  0  0
    4.3437   15.3953   -0.8166 H   0  0  0  0  0  0  0  0  0  0  0  0
    3.8113   17.2539   -2.6017 H   0  0  0  0  0  0  0  0  0  0  0  0
    3.4167   15.7027   -3.4171 H   0  0  0  0  0  0  0  0  0  0  0  0
    2.2242   17.0461   -3.4171 H   0  0  0  0  0  0  0  0  0  0  0  0
  1  2  1  0
  2  3  1  0
  3  4  1  0
  4  5  1  0
  5  6  1  0
  6  7  1  0
  7  8  1  0
  7  9  1  0
  2 10  1  0
 10 11  1  0
 11 12  1  0
 12 13  1  0
 13 14  1  1
 13 15  1  0
 15 16  1  0
 16 17  1  0
 17 18  2  0
 18 19  1  0
 19 20  1  0
 20 21  1  0
 21 22  1  0
 22 23  1  0
 22 24  1  0
 24 25  1  0
 24 26  1  0
 19 27  1  0
 27 28  1  6
 27 29  1  0
 29 30  1  0
 30 31  1  0
 31 32  1  6
  7  5  1  0
 31 10  1  0
 31 13  1  0
 27 15  1  0
 24 18  1  0
  1 33  1  0
  1 34  1  0
  1 35  1  0
  2 36  1  6
  3 37  1  0
  3 38  1  0
  4 39  1  0
  4 40  1  0
  5 41  1  1
  8 42  1  0
  8 43  1  0
  8 44  1  0
  9 45  1  0
  9 46  1  0
  9 47  1  0
 10 48  1  1
 11 49  1  0
 11 50  1  0
 12 51  1  0
 12 52  1  0
 14 53  1  0
 14 54  1  0
 14 55  1  0
 15 56  1  6
 16 57  1  0
 16 58  1  0
 17 59  1  0
 19 60  1  1
 20 61  1  0
 20 62  1  0
 21 63  1  0
 21 64  1  0
 22 65  1  1
 23 66  1  0
 25 67  1  0
 25 68  1  0
 25 69  1  0
 26 70  1  0
 26 71  1  0
 26 72  1  0
 28 73  1  0
 28 74  1  0
 28 75  1  0
 29 76  1  0
 29 77  1  0
 30 78  1  0
 30 79  1  0
 32 80  1  0
 32 81  1  0
 32 82  1  0
M  END
>  <meeko>  (1) 
{"is_sidechain": [false], "intermolecular_energy": 2.731, "internal_energy": -0.839}

$$$$
EPH_relaxed_0001_pdb2pqr_Repair_141_r2_0001_out
     RDKit          3D

 82 86  0  0  0  0  0  0  0  0999 V2000
    3.8340   17.9660    0.6440 C   0  0  0  0  0  0  0  0  0  0  0  0
    2.9530   18.3670   -0.5430 C   0  0  2  0  0  0  0  0  0  0  0  0
    2.2100   19.6940   -0.2930 C   0  0  0  0  0  0  0  0  0  0  0  0
    1.1730   19.6170    0.8310 C   0  0  0  0  0  0  0  0  0  0  0  0
   -0.1500   20.1770    0.4030 C   0  0  2  0  0  0  0  0  0  0  0  0
   -1.1520   20.1940    1.4280 O   0  0  0  0  0  0  0  0  0  0  0  0
   -1.4150   19.3460    0.2990 C   0  0  0  0  0  0  0  0  0  0  0  0
   -1.4180   17.8850    0.6230 C   0  0  0  0  0  0  0  0  0  0  0  0
   -2.5240   19.8380   -0.5790 C   0  0  0  0  0  0  0  0  0  0  0  0
    1.9520   17.2580   -0.8450 C   0  0  1  0  0  0  0  0  0  0  0  0
    0.8180   17.7200   -1.7990 C   0  0  0  0  0  0  0  0  0  0  0  0
    0.4590   16.5020   -2.6890 C   0  0  0  0  0  0  0  0  0  0  0  0
    1.1520   15.3010   -2.0050 C   0  0  1  0  0  0  0  0  0  0  0  0
    0.1930   14.8940   -0.8420 C   0  0  0  0  0  0  0  0  0  0  0  0
    1.4930   14.0840   -2.9250 C   0  0  2  0  0  0  0  0  0  0  0  0
    0.2780   13.3890   -3.5650 C   0  0  0  0  0  0  0  0  0  0  0  0
   -0.3060   12.2670   -2.7720 C   0  0  0  0  0  0  0  0  0  0  0  0
    0.2900   11.6480   -1.7370 C   0  0  0  0  0  0  0  0  0  0  0  0
    1.7260   12.0000   -1.3290 C   0  0  1  0  0  0  0  0  0  0  0  0
    2.5370   10.6960   -1.1060 C   0  0  0  0  0  0  0  0  0  0  0  0
    1.8640    9.7520   -0.1150 C   0  0  0  0  0  0  0  0  0  0  0  0
    0.4600    9.3780   -0.5840 C   0  0  2  0  0  0  0  0  0  0  0  0
    0.5670    8.5930   -1.7750 O   0  0  0  0  0  0  0  0  0  0  0  0
   -0.4460   10.6130   -0.8510 C   0  0  0  0  0  0  0  0  0  0  0  0
   -0.8070   11.2930    0.4930 C   0  0  0  0  0  0  0  0  0  0  0  0
   -1.7830   10.1020   -1.4520 C   0  0  0  0  0  0  0  0  0  0  0  0
    2.4810   13.0340   -2.2720 C   0  0  1  0  0  0  0  0  0  0  0  0
    3.1680   12.2770   -3.4490 C   0  0  0  0  0  0  0  0  0  0  0  0
    3.6350   13.7270   -1.4550 C   0  0  0  0  0  0  0  0  0  0  0  0
    3.2620   14.9940   -0.6620 C   0  0  0  0  0  0  0  0  0  0  0  0
    2.4900   15.9830   -1.5410 C   0  0  2  0  0  0  0  0  0  0  0  0
    3.4380   16.4270   -2.7070 C   0  0  0  0  0  0  0  0  0  0  0  0
    3.3134   18.2030    1.5836 H   0  0  0  0  0  0  0  0  0  0  0  0
    4.0386   16.8861    0.6005 H   0  0  0  0  0  0  0  0  0  0  0  0
    4.7827   18.5210    0.6005 H   0  0  0  0  0  0  0  0  0  0  0  0
    3.6138   18.5176   -1.4094 H   0  0  0  0  0  0  0  0  0  0  0  0
    2.9514   20.4627   -0.0294 H   0  0  0  0  0  0  0  0  0  0  0  0
    1.6647   19.9360   -1.2172 H   0  0  0  0  0  0  0  0  0  0  0  0
    1.0380   18.5643    1.1201 H   0  0  0  0  0  0  0  0  0  0  0  0
    1.5405   20.2141    1.6786 H   0  0  0  0  0  0  0  0  0  0  0  0
    0.3414   20.8643   -0.3013 H   0  0  0  0  0  0  0  0  0  0  0  0
   -1.4183   17.7516    1.7149 H   0  0  0  0  0  0  0  0  0  0  0  0
   -2.3171   17.4166    0.1961 H   0  0  0  0  0  0  0  0  0  0  0  0
   -0.5208   17.4129    0.1961 H   0  0  0  0  0  0  0  0  0  0  0  0
   -3.3513   20.2050    0.0462 H   0  0  0  0  0  0  0  0  0  0  0  0
   -2.1534   20.6562   -1.2140 H   0  0  0  0  0  0  0  0  0  0  0  0
   -2.8819   19.0142   -1.2140 H   0  0  0  0  0  0  0  0  0  0  0  0
    1.6285   17.0189    0.1788 H   0  0  0  0  0  0  0  0  0  0  0  0
   -0.0606   18.0367   -1.2178 H   0  0  0  0  0  0  0  0  0  0  0  0
    1.1403   18.5753   -2.4110 H   0  0  0  0  0  0  0  0  0  0  0  0
   -0.6304   16.3538   -2.7232 H   0  0  0  0  0  0  0  0  0  0  0  0
    0.7873   16.6352   -3.7304 H   0  0  0  0  0  0  0  0  0  0  0  0
    0.6789   15.1002    0.1231 H   0  0  0  0  0  0  0  0  0  0  0  0
   -0.7386   15.4743   -0.9149 H   0  0  0  0  0  0  0  0  0  0  0  0
   -0.0369   13.8208   -0.9149 H   0  0  0  0  0  0  0  0  0  0  0  0
    2.0361   14.5607   -3.7543 H   0  0  0  0  0  0  0  0  0  0  0  0
   -0.5070   14.1452   -3.7131 H   0  0  0  0  0  0  0  0  0  0  0  0
    0.6418   12.9422   -4.5020 H   0  0  0  0  0  0  0  0  0  0  0  0
   -1.3087   11.9168   -3.0583 H   0  0  0  0  0  0  0  0  0  0  0  0
    1.6450   12.5550   -0.3827 H   0  0  0  0  0  0  0  0  0  0  0  0
    2.6436   10.1776   -2.0703 H   0  0  0  0  0  0  0  0  0  0  0  0
    3.5147   10.9778   -0.6881 H   0  0  0  0  0  0  0  0  0  0  0  0
    2.4680    8.8374   -0.0222 H   0  0  0  0  0  0  0  0  0  0  0  0
    1.7852   10.2615    0.8567 H   0  0  0  0  0  0  0  0  0  0  0  0
   -0.0184    8.8080    0.2261 H   0  0  0  0  0  0  0  0  0  0  0  0
    1.3790    8.8640   -2.2350 H   0  0  0  0  0  0  0  0  0  0  0  0
   -0.4705   10.6591    1.3267 H   0  0  0  0  0  0  0  0  0  0  0  0
   -0.3102   12.2725    0.5534 H   0  0  0  0  0  0  0  0  0  0  0  0
   -1.8967   11.4303    0.5534 H   0  0  0  0  0  0  0  0  0  0  0  0
   -2.4738    9.8380   -0.6377 H   0  0  0  0  0  0  0  0  0  0  0  0
   -2.2319   10.8919   -2.0721 H   0  0  0  0  0  0  0  0  0  0  0  0
   -1.5906    9.2140   -2.0721 H   0  0  0  0  0  0  0  0  0  0  0  0
    3.8558   11.5191   -3.0458 H   0  0  0  0  0  0  0  0  0  0  0  0
    2.4014   11.7853   -4.0659 H   0  0  0  0  0  0  0  0  0  0  0  0
    3.7316   12.9925   -4.0659 H   0  0  0  0  0  0  0  0  0  0  0  0
    4.0247   12.9889   -0.7385 H   0  0  0  0  0  0  0  0  0  0  0  0
    4.3597   14.0640   -2.2108 H   0  0  0  0  0  0  0  0  0  0  0  0
    2.6352   14.7100    0.1962 H   0  0  0  0  0  0  0  0  0  0  0  0
    4.1880   15.4784   -0.3186 H   0  0  0  0  0  0  0  0  0  0  0  0
    4.3587   16.8582   -2.2870 H   0  0  0  0  0  0  0  0  0  0  0  0
    3.6913   15.5539   -3.3263 H   0  0  0  0  0  0  0  0  0  0  0  0
    2.9295   17.1806   -3.3263 H   0  0  0  0  0  0  0  0  0  0  0  0
  1  2  1  0
  2  3  1  0
  3  4  1  0
  4  5  1  0
  5  6  1  0
  6  7  1  0
  7  8  1  0
  7  9  1  0
  2 10  1  0
 10 11  1  0
 11 12  1  0
 12 13  1  0
 13 14  1  1
 13 15  1  0
 15 16  1  0
 16 17  1  0
 17 18  2  0
 18 19  1  0
 19 20  1  0
 20 21  1  0
 21 22  1  0
 22 23  1  0
 22 24  1  0
 24 25  1  0
 24 26  1  0
 19 27  1  0
 27 28  1  6
 27 29  1  0
 29 30  1  0
 30 31  1  0
 31 32  1  6
  7  5  1  0
 31 10  1  0
 31 13  1  0
 27 15  1  0
 24 18  1  0
  1 33  1  0
  1 34  1  0
  1 35  1  0
  2 36  1  6
  3 37  1  0
  3 38  1  0
  4 39  1  0
  4 40  1  0
  5 41  1  6
  8 42  1  0
  8 43  1  0
  8 44  1  0
  9 45  1  0
  9 46  1  0
  9 47  1  0
 10 48  1  1
 11 49  1  0
 11 50  1  0
 12 51  1  0
 12 52  1  0
 14 53  1  0
 14 54  1  0
 14 55  1  0
 15 56  1  6
 16 57  1  0
 16 58  1  0
 17 59  1  0
 19 60  1  1
 20 61  1  0
 20 62  1  0
 21 63  1  0
 21 64  1  0
 22 65  1  1
 23 66  1  0
 25 67  1  0
 25 68  1  0
 25 69  1  0
 26 70  1  0
 26 71  1  0
 26 72  1  0
 28 73  1  0
 28 74  1  0
 28 75  1  0
 29 76  1  0
 29 77  1  0
 30 78  1  0
 30 79  1  0
 32 80  1  0
 32 81  1  0
 32 82  1  0
M  END
>  <meeko>  (2) 
{"is_sidechain": [false], "intermolecular_energy": 2.731, "internal_energy": -0.839}

$$$$
EPH_relaxed_0001_pdb2pqr_Repair_141_r2_0001_out
     RDKit          3D

 82 86  0  0  0  0  0  0  0  0999 V2000
    2.3580   18.2150   -2.2390 C   0  0  0  0  0  0  0  0  0  0  0  0
    1.7750   17.4270   -1.0630 C   0  0  2  0  0  0  0  0  0  0  0  0
    2.8610   17.0020   -0.0540 C   0  0  0  0  0  0  0  0  0  0  0  0
    3.8640   18.1110    0.2750 C   0  0  0  0  0  0  0  0  0  0  0  0
    3.6050   18.7110    1.6230 C   0  0  2  0  0  0  0  0  0  0  0  0
    3.9820   20.0880    1.7490 O   0  0  0  0  0  0  0  0  0  0  0  0
    4.7060   19.1560    2.5670 C   0  0  0  0  0  0  0  0  0  0  0  0
    6.1510   19.0180    2.2000 C   0  0  0  0  0  0  0  0  0  0  0  0
    4.3960   19.2670    4.0270 C   0  0  0  0  0  0  0  0  0  0  0  0
    1.0320   16.2000   -1.5770 C   0  0  1  0  0  0  0  0  0  0  0  0
    0.5270   16.3740   -3.0340 C   0  0  0  0  0  0  0  0  0  0  0  0
    0.6300   14.9840   -3.7120 C   0  0  0  0  0  0  0  0  0  0  0  0
    0.8710   13.9970   -2.5450 C   0  0  1  0  0  0  0  0  0  0  0  0
   -0.5450   13.7370   -1.9410 C   0  0  0  0  0  0  0  0  0  0  0  0
    1.5980   12.6620   -2.9080 C   0  0  2  0  0  0  0  0  0  0  0  0
    0.8440   11.7570   -3.8990 C   0  0  0  0  0  0  0  0  0  0  0  0
   -0.0770   10.7600   -3.2780 C   0  0  0  0  0  0  0  0  0  0  0  0
   -0.0810   10.4010   -1.9810 C   0  0  0  0  0  0  0  0  0  0  0  0
    0.9730   10.9460   -1.0090 C   0  0  1  0  0  0  0  0  0  0  0  0
    1.5420    9.7830   -0.1560 C   0  0  0  0  0  0  0  0  0  0  0  0
    0.4490    8.9890    0.5540 C   0  0  0  0  0  0  0  0  0  0  0  0
   -0.5470    8.4140   -0.4500 C   0  0  2  0  0  0  0  0  0  0  0  0
    0.1180    7.4290   -1.2470 O   0  0  0  0  0  0  0  0  0  0  0  0
   -1.1790    9.4930   -1.3730 C   0  0  0  0  0  0  0  0  0  0  0  0
   -2.1430   10.3820   -0.5490 C   0  0  0  0  0  0  0  0  0  0  0  0
   -2.0540    8.7660   -2.4280 C   0  0  0  0  0  0  0  0  0  0  0  0
    2.1140   11.8430   -1.6560 C   0  0  1  0  0  0  0  0  0  0  0  0
    3.2780   10.9390   -2.1640 C   0  0  0  0  0  0  0  0  0  0  0  0
    2.7280   12.7750   -0.5450 C   0  0  0  0  0  0  0  0  0  0  0  0
    2.0370   14.1320   -0.3160 C   0  0  0  0  0  0  0  0  0  0  0  0
    1.8190   14.8670   -1.6420 C   0  0  2  0  0  0  0  0  0  0  0  0
    3.2270   15.1620   -2.2620 C   0  0  0  0  0  0  0  0  0  0  0  0
    2.9714   19.0441   -1.8566 H   0  0  0  0  0  0  0  0  0  0  0  0
    2.9827   17.5493   -2.8527 H   0  0  0  0  0  0  0  0  0  0  0  0
    1.5387   18.6177   -2.8527 H   0  0  0  0  0  0  0  0  0  0  0  0
    1.0749   18.0905   -0.5342 H   0  0  0  0  0  0  0  0  0  0  0  0
    2.3665   16.6932    0.8788 H   0  0  0  0  0  0  0  0  0  0  0  0
    3.4289   16.1829   -0.5193 H   0  0  0  0  0  0  0  0  0  0  0  0
    4.8795   17.6884    0.2622 H   0  0  0  0  0  0  0  0  0  0  0  0
    3.7573   18.9044   -0.4794 H   0  0  0  0  0  0  0  0  0  0  0  0
    2.7261   18.0652    1.7665 H   0  0  0  0  0  0  0  0  0  0  0  0
    6.7579   18.9600    3.1156 H   0  0  0  0  0  0  0  0  0  0  0  0
    6.2930   18.1022    1.6074 H   0  0  0  0  0  0  0  0  0  0  0  0
    6.4637   19.8904    1.6074 H   0  0  0  0  0  0  0  0  0  0  0  0
    5.2725   18.9531    4.6128 H   0  0  0  0  0  0  0  0  0  0  0  0
    4.1466   20.3103    4.2706 H   0  0  0  0  0  0  0  0  0  0  0  0
    3.5411   18.6191    4.2706 H   0  0  0  0  0  0  0  0  0  0  0  0
    0.2401   16.1326   -0.8165 H   0  0  0  0  0  0  0  0  0  0  0  0
   -0.5175   16.7191   -3.0342 H   0  0  0  0  0  0  0  0  0  0  0  0
    1.1269   17.1219   -3.5733 H   0  0  0  0  0  0  0  0  0  0  0  0
   -0.3032   14.7398   -4.2406 H   0  0  0  0  0  0  0  0  0  0  0  0
    1.4323   14.9450   -4.4635 H   0  0  0  0  0  0  0  0  0  0  0  0
   -0.4829   13.7484   -0.8428 H   0  0  0  0  0  0  0  0  0  0  0  0
   -1.2371   14.5231   -2.2773 H   0  0  0  0  0  0  0  0  0  0  0  0
   -0.9127   12.7563   -2.2773 H   0  0  0  0  0  0  0  0  0  0  0  0
    2.4891   13.0179   -3.4458 H   0  0  0  0  0  0  0  0  0  0  0  0
    0.2494   12.4015   -4.5631 H   0  0  0  0  0  0  0  0  0  0  0  0
    1.6141   11.1736   -4.4249 H   0  0  0  0  0  0  0  0  0  0  0  0
   -0.8149   10.2779   -3.9361 H   0  0  0  0  0  0  0  0  0  0  0  0
    0.4468   11.6614   -0.3600 H   0  0  0  0  0  0  0  0  0  0  0  0
    2.1004    9.1024   -0.8155 H   0  0  0  0  0  0  0  0  0  0  0  0
    2.1912   10.2217    0.6161 H   0  0  0  0  0  0  0  0  0  0  0  0
    0.9108    8.1638    1.1160 H   0  0  0  0  0  0  0  0  0  0  0  0
   -0.0893    9.6643    1.2353 H   0  0  0  0  0  0  0  0  0  0  0  0
   -1.3734    7.9691    0.1236 H   0  0  0  0  0  0  0  0  0  0  0  0
   -0.4120    6.6160   -1.2130 H   0  0  0  0  0  0  0  0  0  0  0  0
   -1.9656   10.2184    0.5242 H   0  0  0  0  0  0  0  0  0  0  0  0
   -1.9652   11.4398   -0.7930 H   0  0  0  0  0  0  0  0  0  0  0  0
   -3.1829   10.1193   -0.7930 H   0  0  0  0  0  0  0  0  0  0  0  0
   -2.8032    8.1435   -1.9169 H   0  0  0  0  0  0  0  0  0  0  0  0
   -2.5636    9.5103   -3.0575 H   0  0  0  0  0  0  0  0  0  0  0  0
   -1.4156    8.1287   -3.0575 H   0  0  0  0  0  0  0  0  0  0  0  0
    3.8187   10.5191   -1.3030 H   0  0  0  0  0  0  0  0  0  0  0  0
    2.8674   10.1207   -2.7737 H   0  0  0  0  0  0  0  0  0  0  0  0
    3.9692   11.5394   -2.7737 H   0  0  0  0  0  0  0  0  0  0  0  0
    2.6993   12.2225    0.4058 H   0  0  0  0  0  0  0  0  0  0  0  0
    3.7376   13.0235   -0.9041 H   0  0  0  0  0  0  0  0  0  0  0  0
    1.0628   13.9629    0.1661 H   0  0  0  0  0  0  0  0  0  0  0  0
    2.6821   14.7502    0.3257 H   0  0  0  0  0  0  0  0  0  0  0  0
    3.9583   15.3152   -1.4547 H   0  0  0  0  0  0  0  0  0  0  0  0
    3.5399   14.3099   -2.8833 H   0  0  0  0  0  0  0  0  0  0  0  0
    3.1715   16.0680   -2.8833 H   0  0  0  0  0  0  0  0  0  0  0  0
  1  2  1  0
  2  3  1  0
  3  4  1  0
  4  5  1  0
  5  6  1  0
  6  7  1  0
  7  8  1  0
  7  9  1  0
  2 10  1  0
 10 11  1  0
 11 12  1  0
 12 13  1  0
 13 14  1  1
 13 15  1  0
 15 16  1  0
 16 17  1  0
 17 18  2  0
 18 19  1  0
 19 20  1  0
 20 21  1  0
 21 22  1  0
 22 23  1  0
 22 24  1  0
 24 25  1  0
 24 26  1  0
 19 27  1  0
 27 28  1  6
 27 29  1  0
 29 30  1  0
 30 31  1  0
 31 32  1  6
  7  5  1  0
 31 10  1  0
 31 13  1  0
 27 15  1  0
 24 18  1  0
  1 33  1  0
  1 34  1  0
  1 35  1  0
  2 36  1  1
  3 37  1  0
  3 38  1  0
  4 39  1  0
  4 40  1  0
  5 41  1  1
  8 42  1  0
  8 43  1  0
  8 44  1  0
  9 45  1  0
  9 46  1  0
  9 47  1  0
 10 48  1  1
 11 49  1  0
 11 50  1  0
 12 51  1  0
 12 52  1  0
 14 53  1  0
 14 54  1  0
 14 55  1  0
 15 56  1  6
 16 57  1  0
 16 58  1  0
 17 59  1  0
 19 60  1  1
 20 61  1  0
 20 62  1  0
 21 63  1  0
 21 64  1  0
 22 65  1  1
 23 66  1  0
 25 67  1  0
 25 68  1  0
 25 69  1  0
 26 70  1  0
 26 71  1  0
 26 72  1  0
 28 73  1  0
 28 74  1  0
 28 75  1  0
 29 76  1  0
 29 77  1  0
 30 78  1  0
 30 79  1  0
 32 80  1  0
 32 81  1  0
 32 82  1  0
M  END
>  <meeko>  (3) 
{"is_sidechain": [false], "intermolecular_energy": 2.731, "internal_energy": -0.839}

$$$$
EPH_relaxed_0001_pdb2pqr_Repair_141_r2_0001_out
     RDKit          3D

 82 86  0  0  0  0  0  0  0  0999 V2000
    2.4290   17.1900   -0.0620 C   0  0  0  0  0  0  0  0  0  0  0  0
    1.9410   17.3570   -1.5040 C   0  0  2  0  0  0  0  0  0  0  0  0
    1.0730   18.6190   -1.6810 C   0  0  0  0  0  0  0  0  0  0  0  0
    1.0840   19.5490   -0.4650 C   0  0  0  0  0  0  0  0  0  0  0  0
   -0.2510   20.1940   -0.2490 C   0  0  2  0  0  0  0  0  0  0  0  0
   -0.7040   20.1940    1.1110 O   0  0  0  0  0  0  0  0  0  0  0  0
   -1.4900   19.4310    0.1820 C   0  0  0  0  0  0  0  0  0  0  0  0
   -1.4520   17.9550    0.4220 C   0  0  0  0  0  0  0  0  0  0  0  0
   -2.8330   20.0280   -0.1030 C   0  0  0  0  0  0  0  0  0  0  0  0
    1.1590   16.1220   -1.9350 C   0  0  1  0  0  0  0  0  0  0  0  0
    0.6280   16.2280   -3.3890 C   0  0  0  0  0  0  0  0  0  0  0  0
    0.6850   14.8010   -3.9920 C   0  0  0  0  0  0  0  0  0  0  0  0
    0.9280   13.8740   -2.7780 C   0  0  1  0  0  0  0  0  0  0  0  0
   -0.4810   13.6810   -2.1330 C   0  0  0  0  0  0  0  0  0  0  0  0
    1.6160   12.5030   -3.0820 C   0  0  2  0  0  0  0  0  0  0  0  0
    0.8210   11.5650   -4.0060 C   0  0  0  0  0  0  0  0  0  0  0  0
   -0.1090   10.6250   -3.3130 C   0  0  0  0  0  0  0  0  0  0  0  0
   -0.0950   10.3380   -1.9980 C   0  0  0  0  0  0  0  0  0  0  0  0
    0.9920   10.9100   -1.0790 C   0  0  1  0  0  0  0  0  0  0  0  0
    1.5510    9.7810   -0.1740 C   0  0  0  0  0  0  0  0  0  0  0  0
    0.4560    9.0530    0.5990 C   0  0  0  0  0  0  0  0  0  0  0  0
   -0.5740    8.4490   -0.3520 C   0  0  2  0  0  0  0  0  0  0  0  0
    0.0520    7.4060   -1.1060 O   0  0  0  0  0  0  0  0  0  0  0  0
   -1.2000    9.4910   -1.3200 C   0  0  0  0  0  0  0  0  0  0  0  0
   -2.1260   10.4470   -0.5270 C   0  0  0  0  0  0  0  0  0  0  0  0
   -2.1140    8.7290   -2.3160 C   0  0  0  0  0  0  0  0  0  0  0  0
    2.1390   11.7420   -1.7970 C   0  0  1  0  0  0  0  0  0  0  0  0
    3.2710   10.7830   -2.2770 C   0  0  0  0  0  0  0  0  0  0  0  0
    2.7980   12.7170   -0.7500 C   0  0  0  0  0  0  0  0  0  0  0  0
    2.1430   14.1020   -0.5830 C   0  0  0  0  0  0  0  0  0  0  0  0
    1.9140   14.7690   -1.9420 C   0  0  2  0  0  0  0  0  0  0  0  0
    3.3150   14.9950   -2.6060 C   0  0  0  0  0  0  0  0  0  0  0  0
    1.6219   17.4662    0.6325 H   0  0  0  0  0  0  0  0  0  0  0  0
    2.7170   16.1422    0.1086 H   0  0  0  0  0  0  0  0  0  0  0  0
    3.2986   17.8417    0.1086 H   0  0  0  0  0  0  0  0  0  0  0  0
    2.8293   17.4754   -2.1419 H   0  0  0  0  0  0  0  0  0  0  0  0
    1.4480   19.1793   -2.5501 H   0  0  0  0  0  0  0  0  0  0  0  0
    0.0356   18.2792   -1.8165 H   0  0  0  0  0  0  0  0  0  0  0  0
    1.3462   18.9640    0.4289 H   0  0  0  0  0  0  0  0  0  0  0  0
    1.8232   20.3430   -0.6470 H   0  0  0  0  0  0  0  0  0  0  0  0
   -0.0684   20.9000   -1.0725 H   0  0  0  0  0  0  0  0  0  0  0  0
   -1.4470   17.7595    1.5045 H   0  0  0  0  0  0  0  0  0  0  0  0
   -2.3384   17.4869   -0.0310 H   0  0  0  0  0  0  0  0  0  0  0  0
   -0.5427   17.5331   -0.0310 H   0  0  0  0  0  0  0  0  0  0  0  0
   -3.3423   20.2544    0.8453 H   0  0  0  0  0  0  0  0  0  0  0  0
   -2.7069   20.9548   -0.6819 H   0  0  0  0  0  0  0  0  0  0  0  0
   -3.4366   19.3134   -0.6819 H   0  0  0  0  0  0  0  0  0  0  0  0
    0.3816   16.1155   -1.1568 H   0  0  0  0  0  0  0  0  0  0  0  0
   -0.4081   16.5974   -3.3877 H   0  0  0  0  0  0  0  0  0  0  0  0
    1.2337   16.9307   -3.9801 H   0  0  0  0  0  0  0  0  0  0  0  0
   -0.2645   14.5507   -4.4878 H   0  0  0  0  0  0  0  0  0  0  0  0
    1.4700   14.7021   -4.7562 H   0  0  0  0  0  0  0  0  0  0  0  0
   -0.3874   13.6938   -1.0371 H   0  0  0  0  0  0  0  0  0  0  0  0
   -1.1459   14.4965   -2.4538 H   0  0  0  0  0  0  0  0  0  0  0  0
   -0.9022   12.7168   -2.4538 H   0  0  0  0  0  0  0  0  0  0  0  0
    2.5034   12.8063   -3.6569 H   0  0  0  0  0  0  0  0  0  0  0  0
    0.2270   12.1868   -4.6919 H   0  0  0  0  0  0  0  0  0  0  0  0
    1.5661   10.9359   -4.5150 H   0  0  0  0  0  0  0  0  0  0  0  0
   -0.8703   10.1244   -3.9293 H   0  0  0  0  0  0  0  0  0  0  0  0
    0.4974   11.6733   -0.4603 H   0  0  0  0  0  0  0  0  0  0  0  0
    2.0802    9.0524   -0.8058 H   0  0  0  0  0  0  0  0  0  0  0  0
    2.2250   10.2457    0.5607 H   0  0  0  0  0  0  0  0  0  0  0  0
    0.9106    8.2483    1.1954 H   0  0  0  0  0  0  0  0  0  0  0  0
   -0.0522    9.7767    1.2532 H   0  0  0  0  0  0  0  0  0  0  0  0
   -1.3990    8.0565    0.2607 H   0  0  0  0  0  0  0  0  0  0  0  0
    0.2270    6.6680   -0.4990 H   0  0  0  0  0  0  0  0  0  0  0  0
   -1.9758   10.2920    0.5516 H   0  0  0  0  0  0  0  0  0  0  0  0
   -1.8847   11.4888   -0.7848 H   0  0  0  0  0  0  0  0  0  0  0  0
   -3.1749   10.2390   -0.7848 H   0  0  0  0  0  0  0  0  0  0  0  0
   -2.8412    8.1227   -1.7561 H   0  0  0  0  0  0  0  0  0  0  0  0
   -2.6495    9.4519   -2.9490 H   0  0  0  0  0  0  0  0  0  0  0  0
   -1.4992    8.0722   -2.9490 H   0  0  0  0  0  0  0  0  0  0  0  0
    3.7808   10.3511   -1.4031 H   0  0  0  0  0  0  0  0  0  0  0  0
    2.8348    9.9754   -2.8832 H   0  0  0  0  0  0  0  0  0  0  0  0
    3.9959   11.3460   -2.8832 H   0  0  0  0  0  0  0  0  0  0  0  0
    2.7755   12.2178    0.2299 H   0  0  0  0  0  0  0  0  0  0  0  0
    3.8061   12.9202   -1.1404 H   0  0  0  0  0  0  0  0  0  0  0  0
    1.1755   13.9831   -0.0732 H   0  0  0  0  0  0  0  0  0  0  0  0
    2.8161   14.7383    0.0103 H   0  0  0  0  0  0  0  0  0  0  0  0
    4.0768   15.1179   -1.8220 H   0  0  0  0  0  0  0  0  0  0  0  0
    3.5690   14.1262   -3.2311 H   0  0  0  0  0  0  0  0  0  0  0  0
    3.2829   15.8996   -3.2311 H   0  0  0  0  0  0  0  0  0  0  0  0
  1  2  1  0
  2  3  1  0
  3  4  1  0
  4  5  1  0
  5  6  1  0
  6  7  1  0
  7  8  1  0
  7  9  1  0
  2 10  1  0
 10 11  1  0
 11 12  1  0
 12 13  1  0
 13 14  1  1
 13 15  1  0
 15 16  1  0
 16 17  1  0
 17 18  2  0
 18 19  1  0
 19 20  1  0
 20 21  1  0
 21 22  1  0
 22 23  1  0
 22 24  1  0
 24 25  1  0
 24 26  1  0
 19 27  1  0
 27 28  1  6
 27 29  1  0
 29 30  1  0
 30 31  1  0
 31 32  1  6
  7  5  1  0
 31 10  1  0
 31 13  1  0
 27 15  1  0
 24 18  1  0
  1 33  1  0
  1 34  1  0
  1 35  1  0
  2 36  1  6
  3 37  1  0
  3 38  1  0
  4 39  1  0
  4 40  1  0
  5 41  1  6
  8 42  1  0
  8 43  1  0
  8 44  1  0
  9 45  1  0
  9 46  1  0
  9 47  1  0
 10 48  1  1
 11 49  1  0
 11 50  1  0
 12 51  1  0
 12 52  1  0
 14 53  1  0
 14 54  1  0
 14 55  1  0
 15 56  1  6
 16 57  1  0
 16 58  1  0
 17 59  1  0
 19 60  1  1
 20 61  1  0
 20 62  1  0
 21 63  1  0
 21 64  1  0
 22 65  1  1
 23 66  1  0
 25 67  1  0
 25 68  1  0
 25 69  1  0
 26 70  1  0
 26 71  1  0
 26 72  1  0
 28 73  1  0
 28 74  1  0
 28 75  1  0
 29 76  1  0
 29 77  1  0
 30 78  1  0
 30 79  1  0
 32 80  1  0
 32 81  1  0
 32 82  1  0
M  END
>  <meeko>  (4) 
{"is_sidechain": [false], "intermolecular_energy": 2.731, "internal_energy": -0.839}

$$$$
EPH_relaxed_0001_pdb2pqr_Repair_141_r2_0001_out
     RDKit          3D

 82 86  0  0  0  0  0  0  0  0999 V2000
   -1.1370    8.8160   -1.9120 C   0  0  0  0  0  0  0  0  0  0  0  0
   -1.5550    9.1950   -0.4890 C   0  0  2  0  0  0  0  0  0  0  0  0
   -3.0840    9.3370   -0.3510 C   0  0  0  0  0  0  0  0  0  0  0  0
   -3.8740    8.4120   -1.2800 C   0  0  0  0  0  0  0  0  0  0  0  0
   -5.2210    8.0780   -0.7150 C   0  0  2  0  0  0  0  0  0  0  0  0
   -5.4520    6.6780   -0.5030 O   0  0  0  0  0  0  0  0  0  0  0  0
   -6.2860    7.3170   -1.4830 C   0  0  0  0  0  0  0  0  0  0  0  0
   -6.0500    6.8460   -2.8840 C   0  0  0  0  0  0  0  0  0  0  0  0
   -7.7140    7.4590   -1.0580 C   0  0  0  0  0  0  0  0  0  0  0  0
   -0.8710   10.4930   -0.0740 C   0  0  1  0  0  0  0  0  0  0  0  0
    0.0620   10.3110    1.1520 C   0  0  0  0  0  0  0  0  0  0  0  0
    1.2640   11.2680    0.9450 C   0  0  0  0  0  0  0  0  0  0  0  0
    0.8260   12.2000   -0.2090 C   0  0  1  0  0  0  0  0  0  0  0  0
   -0.0780   13.2780    0.4670 C   0  0  0  0  0  0  0  0  0  0  0  0
    1.9750   12.8530   -1.0440 C   0  0  2  0  0  0  0  0  0  0  0  0
    2.9050   13.7900   -0.2540 C   0  0  0  0  0  0  0  0  0  0  0  0
    2.4920   15.2240   -0.2270 C   0  0  0  0  0  0  0  0  0  0  0  0
    1.5820   15.7910   -1.0410 C   0  0  0  0  0  0  0  0  0  0  0  0
    0.9350   14.9910   -2.1790 C   0  0  1  0  0  0  0  0  0  0  0  0
    0.9530   15.8340   -3.4810 C   0  0  0  0  0  0  0  0  0  0  0  0
    0.3140   17.2070   -3.2970 C   0  0  0  0  0  0  0  0  0  0  0  0
    1.0220   17.9950   -2.1980 C   0  0  2  0  0  0  0  0  0  0  0  0
    2.3510   18.2990   -2.6310 O   0  0  0  0  0  0  0  0  0  0  0  0
    1.0750   17.2410   -0.8400 C   0  0  0  0  0  0  0  0  0  0  0  0
   -0.3450   17.1770   -0.2240 C   0  0  0  0  0  0  0  0  0  0  0  0
    1.9360   18.0810    0.1410 C   0  0  0  0  0  0  0  0  0  0  0  0
    1.4950   13.5200   -2.3970 C   0  0  1  0  0  0  0  0  0  0  0  0
    2.7370   13.5570   -3.3400 C   0  0  0  0  0  0  0  0  0  0  0  0
    0.4030   12.6580   -3.1340 C   0  0  0  0  0  0  0  0  0  0  0  0
   -0.6320   11.9410   -2.2470 C   0  0  0  0  0  0  0  0  0  0  0  0
    0.0540   11.1730   -1.1140 C   0  0  2  0  0  0  0  0  0  0  0  0
    0.9540   10.0660   -1.7630 C   0  0  0  0  0  0  0  0  0  0  0  0
   -0.3227    8.0777   -1.8706 H   0  0  0  0  0  0  0  0  0  0  0  0
   -1.9973    8.3836   -2.4440 H   0  0  0  0  0  0  0  0  0  0  0  0
   -0.7907    9.7144   -2.4440 H   0  0  0  0  0  0  0  0  0  0  0  0
   -1.2383    8.3789    0.1771 H   0  0  0  0  0  0  0  0  0  0  0  0
   -3.3619    9.1057    0.6879 H   0  0  0  0  0  0  0  0  0  0  0  0
   -3.3378   10.3694   -0.6333 H   0  0  0  0  0  0  0  0  0  0  0  0
   -4.0085    8.9118   -2.2506 H   0  0  0  0  0  0  0  0  0  0  0  0
   -3.3081    7.4756   -1.3939 H   0  0  0  0  0  0  0  0  0  0  0  0
   -5.2484    9.0267   -0.1589 H   0  0  0  0  0  0  0  0  0  0  0  0
   -5.5573    5.8627   -2.8622 H   0  0  0  0  0  0  0  0  0  0  0  0
   -7.0126    6.7622   -3.4097 H   0  0  0  0  0  0  0  0  0  0  0  0
   -5.4066    7.5669   -3.4097 H   0  0  0  0  0  0  0  0  0  0  0  0
   -7.7708    7.4646    0.0405 H   0  0  0  0  0  0  0  0  0  0  0  0
   -8.1215    8.4021   -1.4511 H   0  0  0  0  0  0  0  0  0  0  0  0
   -8.2992    6.6146   -1.4511 H   0  0  0  0  0  0  0  0  0  0  0  0
   -1.7573   11.1189    0.1071 H   0  0  0  0  0  0  0  0  0  0  0  0
   -0.4735   10.5700    2.0773 H   0  0  0  0  0  0  0  0  0  0  0  0
    0.3986    9.2675    1.2409 H   0  0  0  0  0  0  0  0  0  0  0  0
    1.4608   11.8476    1.8589 H   0  0  0  0  0  0  0  0  0  0  0  0
    2.1934   10.7267    0.7144 H   0  0  0  0  0  0  0  0  0  0  0  0
   -0.0017   13.1871    1.5606 H   0  0  0  0  0  0  0  0  0  0  0  0
    0.2535   14.2804    0.1584 H   0  0  0  0  0  0  0  0  0  0  0  0
   -1.1229   13.1262    0.1584 H   0  0  0  0  0  0  0  0  0  0  0  0
    2.5906   11.9835   -1.3178 H   0  0  0  0  0  0  0  0  0  0  0  0
    2.9487   13.4293    0.7843 H   0  0  0  0  0  0  0  0  0  0  0  0
    3.8754   13.7625   -0.7712 H   0  0  0  0  0  0  0  0  0  0  0  0
    2.9717   15.8722    0.5211 H   0  0  0  0  0  0  0  0  0  0  0  0
   -0.1041   14.8069   -1.8685 H   0  0  0  0  0  0  0  0  0  0  0  0
    1.9973   15.9706   -3.7983 H   0  0  0  0  0  0  0  0  0  0  0  0
    0.3678   15.2918   -4.2383 H   0  0  0  0  0  0  0  0  0  0  0  0
    0.3828   17.7657   -4.2420 H   0  0  0  0  0  0  0  0  0  0  0  0
   -0.7383   17.0688   -3.0078 H   0  0  0  0  0  0  0  0  0  0  0  0
    0.4410   18.9128   -2.0247 H   0  0  0  0  0  0  0  0  0  0  0  0
    2.2920   19.0240   -3.2770 H   0  0  0  0  0  0  0  0  0  0  0  0
   -0.2691   17.1804    0.8734 H   0  0  0  0  0  0  0  0  0  0  0  0
   -0.9275   18.0498   -0.5540 H   0  0  0  0  0  0  0  0  0  0  0  0
   -0.8466   16.2553   -0.5540 H   0  0  0  0  0  0  0  0  0  0  0  0
    1.6702   17.8217    1.1764 H   0  0  0  0  0  0  0  0  0  0  0  0
    3.0012   17.8654   -0.0291 H   0  0  0  0  0  0  0  0  0  0  0  0
    1.7468   19.1512   -0.0291 H   0  0  0  0  0  0  0  0  0  0  0  0
    3.6556   13.5844   -2.7355 H   0  0  0  0  0  0  0  0  0  0  0  0
    2.7424   12.6586   -3.9747 H   0  0  0  0  0  0  0  0  0  0  0  0
    2.6889   14.4541   -3.9747 H   0  0  0  0  0  0  0  0  0  0  0  0
   -0.1468   13.3270   -3.8123 H   0  0  0  0  0  0  0  0  0  0  0  0
    0.9614   11.8522   -3.6330 H   0  0  0  0  0  0  0  0  0  0  0  0
   -1.3136   12.6880   -1.8140 H   0  0  0  0  0  0  0  0  0  0  0  0
   -1.1895   11.2247   -2.8683 H   0  0  0  0  0  0  0  0  0  0  0  0
    1.4354    9.4738   -0.9708 H   0  0  0  0  0  0  0  0  0  0  0  0
    0.3322    9.4071   -2.3868 H   0  0  0  0  0  0  0  0  0  0  0  0
    1.7260   10.5402   -2.3868 H   0  0  0  0  0  0  0  0  0  0  0  0
  1  2  1  0
  2  3  1  0
  3  4  1  0
  4  5  1  0
  5  6  1  0
  6  7  1  0
  7  8  1  0
  7  9  1  0
  2 10  1  0
 10 11  1  0
 11 12  1  0
 12 13  1  0
 13 14  1  1
 13 15  1  0
 15 16  1  0
 16 17  1  0
 17 18  2  0
 18 19  1  0
 19 20  1  0
 20 21  1  0
 21 22  1  0
 22 23  1  0
 22 24  1  0
 24 25  1  0
 24 26  1  0
 19 27  1  0
 27 28  1  6
 27 29  1  0
 29 30  1  0
 30 31  1  0
 31 32  1  6
  7  5  1  0
 31 10  1  0
 31 13  1  0
 27 15  1  0
 24 18  1  0
  1 33  1  0
  1 34  1  0
  1 35  1  0
  2 36  1  1
  3 37  1  0
  3 38  1  0
  4 39  1  0
  4 40  1  0
  5 41  1  1
  8 42  1  0
  8 43  1  0
  8 44  1  0
  9 45  1  0
  9 46  1  0
  9 47  1  0
 10 48  1  1
 11 49  1  0
 11 50  1  0
 12 51  1  0
 12 52  1  0
 14 53  1  0
 14 54  1  0
 14 55  1  0
 15 56  1  6
 16 57  1  0
 16 58  1  0
 17 59  1  0
 19 60  1  1
 20 61  1  0
 20 62  1  0
 21 63  1  0
 21 64  1  0
 22 65  1  1
 23 66  1  0
 25 67  1  0
 25 68  1  0
 25 69  1  0
 26 70  1  0
 26 71  1  0
 26 72  1  0
 28 73  1  0
 28 74  1  0
 28 75  1  0
 29 76  1  0
 29 77  1  0
 30 78  1  0
 30 79  1  0
 32 80  1  0
 32 81  1  0
 32 82  1  0
M  END
>  <meeko>  (5) 
{"is_sidechain": [false], "intermolecular_energy": 2.731, "internal_energy": -0.839}

$$$$
EPH_relaxed_0001_pdb2pqr_Repair_141_r2_0001_out
     RDKit          3D

 82 86  0  0  0  0  0  0  0  0999 V2000
   -0.7250    7.9150   -0.5940 C   0  0  0  0  0  0  0  0  0  0  0  0
   -1.1360    9.2730   -0.0180 C   0  0  2  0  0  0  0  0  0  0  0  0
   -2.3960    9.8380   -0.7050 C   0  0  0  0  0  0  0  0  0  0  0  0
   -3.7070    9.3420   -0.0890 C   0  0  0  0  0  0  0  0  0  0  0  0
   -4.0680    7.9730   -0.5810 C   0  0  2  0  0  0  0  0  0  0  0  0
   -4.1850    7.8600   -2.0060 O   0  0  0  0  0  0  0  0  0  0  0  0
   -5.3900    7.6460   -1.2510 C   0  0  0  0  0  0  0  0  0  0  0  0
   -6.4360    8.6950   -1.4660 C   0  0  0  0  0  0  0  0  0  0  0  0
   -5.8580    6.2250   -1.2540 C   0  0  0  0  0  0  0  0  0  0  0  0
    0.0160   10.2620   -0.1470 C   0  0  1  0  0  0  0  0  0  0  0  0
    1.4040    9.5700   -0.1090 C   0  0  0  0  0  0  0  0  0  0  0  0
    2.3280   10.3690   -1.0640 C   0  0  0  0  0  0  0  0  0  0  0  0
    1.5500   11.6730   -1.3580 C   0  0  1  0  0  0  0  0  0  0  0  0
    1.8220   12.5900   -0.1250 C   0  0  0  0  0  0  0  0  0  0  0  0
    1.8960   12.3960   -2.7010 C   0  0  2  0  0  0  0  0  0  0  0  0
    3.3470   12.8930   -2.8200 C   0  0  0  0  0  0  0  0  0  0  0  0
    3.5860   14.2850   -2.3360 C   0  0  0  0  0  0  0  0  0  0  0  0
    2.6320   15.2020   -2.0910 C   0  0  0  0  0  0  0  0  0  0  0  0
    1.1570   14.9060   -2.3950 C   0  0  1  0  0  0  0  0  0  0  0  0
    0.5300   16.1120   -3.1420 C   0  0  0  0  0  0  0  0  0  0  0  0
    0.7190   17.4270   -2.3930 C   0  0  0  0  0  0  0  0  0  0  0  0
    2.2000   17.7160   -2.1610 C   0  0  2  0  0  0  0  0  0  0  0  0
    2.8250   17.9580   -3.4250 O   0  0  0  0  0  0  0  0  0  0  0  0
    2.9400   16.5650   -1.4230 C   0  0  0  0  0  0  0  0  0  0  0  0
    2.4670   16.5020    0.0500 C   0  0  0  0  0  0  0  0  0  0  0  0
    4.4500   16.9200   -1.3790 C   0  0  0  0  0  0  0  0  0  0  0  0
    0.8630   13.5210   -3.1160 C   0  0  1  0  0  0  0  0  0  0  0  0
    0.9850   13.6890   -4.6620 C   0  0  0  0  0  0  0  0  0  0  0  0
   -0.6270   13.1000   -2.8320 C   0  0  0  0  0  0  0  0  0  0  0  0
   -0.8870   12.2850   -1.5500 C   0  0  0  0  0  0  0  0  0  0  0  0
    0.0860   11.1070   -1.4430 C   0  0  2  0  0  0  0  0  0  0  0  0
   -0.1790   10.1550   -2.6600 C   0  0  0  0  0  0  0  0  0  0  0  0
   -0.5136    7.2165    0.2290 H   0  0  0  0  0  0  0  0  0  0  0  0
   -1.5427    7.5163   -1.2124 H   0  0  0  0  0  0  0  0  0  0  0  0
    0.1765    8.0367   -1.2124 H   0  0  0  0  0  0  0  0  0  0  0  0
   -1.3792    9.1223    1.0442 H   0  0  0  0  0  0  0  0  0  0  0  0
   -2.3701   10.9351   -0.6300 H   0  0  0  0  0  0  0  0  0  0  0  0
   -2.3780    9.4884   -1.7478 H   0  0  0  0  0  0  0  0  0  0  0  0
   -3.5971    9.3101    1.0050 H   0  0  0  0  0  0  0  0  0  0  0  0
   -4.5085   10.0349   -0.3848 H   0  0  0  0  0  0  0  0  0  0  0  0
   -3.5296    7.5047    0.2562 H   0  0  0  0  0  0  0  0  0  0  0  0
   -6.7974    9.0574   -0.4923 H   0  0  0  0  0  0  0  0  0  0  0  0
   -6.0036    9.5334   -2.0318 H   0  0  0  0  0  0  0  0  0  0  0  0
   -7.2756    8.2650   -2.0318 H   0  0  0  0  0  0  0  0  0  0  0  0
   -5.9733    5.8748   -0.2176 H   0  0  0  0  0  0  0  0  0  0  0  0
   -6.8254    6.1587   -1.7733 H   0  0  0  0  0  0  0  0  0  0  0  0
   -5.1193    5.5968   -1.7733 H   0  0  0  0  0  0  0  0  0  0  0  0
   -0.2014   10.9118    0.7135 H   0  0  0  0  0  0  0  0  0  0  0  0
    1.8089    9.5888    0.9136 H   0  0  0  0  0  0  0  0  0  0  0  0
    1.3295    8.5175   -0.4201 H   0  0  0  0  0  0  0  0  0  0  0  0
    3.2895   10.5915   -0.5782 H   0  0  0  0  0  0  0  0  0  0  0  0
    2.5655    9.8090   -1.9805 H   0  0  0  0  0  0  0  0  0  0  0  0
    1.6529   12.0199    0.8004 H   0  0  0  0  0  0  0  0  0  0  0  0
    2.8635   12.9429   -0.1531 H   0  0  0  0  0  0  0  0  0  0  0  0
    1.1414   13.4537   -0.1531 H   0  0  0  0  0  0  0  0  0  0  0  0
    1.7977   11.5850   -3.4376 H   0  0  0  0  0  0  0  0  0  0  0  0
    3.9873   12.2155   -2.2361 H   0  0  0  0  0  0  0  0  0  0  0  0
    3.5788   12.9007   -3.8953 H   0  0  0  0  0  0  0  0  0  0  0  0
    4.6300   14.5865   -2.1652 H   0  0  0  0  0  0  0  0  0  0  0  0
    0.6653   14.7754   -1.4197 H   0  0  0  0  0  0  0  0  0  0  0  0
    1.0032   16.1986   -4.1312 H   0  0  0  0  0  0  0  0  0  0  0  0
   -0.5513   15.9276   -3.2248 H   0  0  0  0  0  0  0  0  0  0  0  0
    0.2813   18.2443   -2.9849 H   0  0  0  0  0  0  0  0  0  0  0  0
    0.2197   17.3489   -1.4159 H   0  0  0  0  0  0  0  0  0  0  0  0
    2.2665   18.5997   -1.5094 H   0  0  0  0  0  0  0  0  0  0  0  0
    2.4280   17.3500   -4.0710 H   0  0  0  0  0  0  0  0  0  0  0  0
    3.3330   16.6173    0.7184 H   0  0  0  0  0  0  0  0  0  0  0  0
    1.7474   17.3122    0.2390 H   0  0  0  0  0  0  0  0  0  0  0  0
    1.9846   15.5317    0.2390 H   0  0  0  0  0  0  0  0  0  0  0  0
    4.7782   16.9972   -0.3319 H   0  0  0  0  0  0  0  0  0  0  0  0
    5.0267   16.1329   -1.8869 H   0  0  0  0  0  0  0  0  0  0  0  0
    4.6156   17.8816   -1.8869 H   0  0  0  0  0  0  0  0  0  0  0  0
    1.6176   14.5602   -4.8874 H   0  0  0  0  0  0  0  0  0  0  0  0
    1.4384   12.7849   -5.0944 H   0  0  0  0  0  0  0  0  0  0  0  0
   -0.0150   13.8404   -5.0944 H   0  0  0  0  0  0  0  0  0  0  0  0
   -1.2264   14.0202   -2.7685 H   0  0  0  0  0  0  0  0  0  0  0  0
   -0.8989   12.4286   -3.6598 H   0  0  0  0  0  0  0  0  0  0  0  0
   -0.7577   12.9392   -0.6752 H   0  0  0  0  0  0  0  0  0  0  0  0
   -1.9131   11.8904   -1.5871 H   0  0  0  0  0  0  0  0  0  0  0  0
   -0.4569    9.1567   -2.2909 H   0  0  0  0  0  0  0  0  0  0  0  0
   -0.9983   10.5610   -3.2715 H   0  0  0  0  0  0  0  0  0  0  0  0
    0.7322   10.0793   -3.2715 H   0  0  0  0  0  0  0  0  0  0  0  0
  1  2  1  0
  2  3  1  0
  3  4  1  0
  4  5  1  0
  5  6  1  0
  6  7  1  0
  7  8  1  0
  7  9  1  0
  2 10  1  0
 10 11  1  0
 11 12  1  0
 12 13  1  0
 13 14  1  1
 13 15  1  0
 15 16  1  0
 16 17  1  0
 17 18  2  0
 18 19  1  0
 19 20  1  0
 20 21  1  0
 21 22  1  0
 22 23  1  0
 22 24  1  0
 24 25  1  0
 24 26  1  0
 19 27  1  0
 27 28  1  6
 27 29  1  0
 29 30  1  0
 30 31  1  0
 31 32  1  6
  7  5  1  0
 31 10  1  0
 31 13  1  0
 27 15  1  0
 24 18  1  0
  1 33  1  0
  1 34  1  0
  1 35  1  0
  2 36  1  1
  3 37  1  0
  3 38  1  0
  4 39  1  0
  4 40  1  0
  5 41  1  1
  8 42  1  0
  8 43  1  0
  8 44  1  0
  9 45  1  0
  9 46  1  0
  9 47  1  0
 10 48  1  1
 11 49  1  0
 11 50  1  0
 12 51  1  0
 12 52  1  0
 14 53  1  0
 14 54  1  0
 14 55  1  0
 15 56  1  6
 16 57  1  0
 16 58  1  0
 17 59  1  0
 19 60  1  1
 20 61  1  0
 20 62  1  0
 21 63  1  0
 21 64  1  0
 22 65  1  1
 23 66  1  0
 25 67  1  0
 25 68  1  0
 25 69  1  0
 26 70  1  0
 26 71  1  0
 26 72  1  0
 28 73  1  0
 28 74  1  0
 28 75  1  0
 29 76  1  0
 29 77  1  0
 30 78  1  0
 30 79  1  0
 32 80  1  0
 32 81  1  0
 32 82  1  0
M  END
>  <meeko>  (6) 
{"is_sidechain": [false], "intermolecular_energy": 2.731, "internal_energy": -0.839}

$$$$
EPH_relaxed_0001_pdb2pqr_Repair_141_r2_0001_out
     RDKit          3D

 82 86  0  0  0  0  0  0  0  0999 V2000
    3.5640   18.3170    0.1450 C   0  0  0  0  0  0  0  0  0  0  0  0
    3.7600   17.0310   -0.6620 C   0  0  2  0  0  0  0  0  0  0  0  0
    4.0180   17.3150   -2.1550 C   0  0  0  0  0  0  0  0  0  0  0  0
    5.3840   16.8290   -2.6470 C   0  0  0  0  0  0  0  0  0  0  0  0
    5.3840   15.3540   -2.9150 C   0  0  2  0  0  0  0  0  0  0  0  0
    6.5700   14.6690   -2.4910 O   0  0  0  0  0  0  0  0  0  0  0  0
    6.3170   14.6840   -3.9050 C   0  0  0  0  0  0  0  0  0  0  0  0
    7.3160   15.4720   -4.6940 C   0  0  0  0  0  0  0  0  0  0  0  0
    5.9300   13.3490   -4.4620 C   0  0  0  0  0  0  0  0  0  0  0  0
    2.5420   16.1280   -0.5060 C   0  0  1  0  0  0  0  0  0  0  0  0
    1.2140   16.9270   -0.4240 C   0  0  0  0  0  0  0  0  0  0  0  0
    0.1330   16.0720   -1.1340 C   0  0  0  0  0  0  0  0  0  0  0  0
    0.7870   14.6810   -1.3060 C   0  0  1  0  0  0  0  0  0  0  0  0
    0.6100   13.9810    0.0780 C   0  0  0  0  0  0  0  0  0  0  0  0
    0.2360   13.7980   -2.4730 C   0  0  2  0  0  0  0  0  0  0  0  0
   -1.2470   13.4060   -2.3520 C   0  0  0  0  0  0  0  0  0  0  0  0
   -1.5110   12.1250   -1.6330 C   0  0  0  0  0  0  0  0  0  0  0  0
   -0.5930   11.1800   -1.3550 C   0  0  0  0  0  0  0  0  0  0  0  0
    0.8490   11.3100   -1.8630 C   0  0  1  0  0  0  0  0  0  0  0  0
    1.3040    9.9600   -2.4780 C   0  0  0  0  0  0  0  0  0  0  0  0
    1.1270    8.7890   -1.5160 C   0  0  0  0  0  0  0  0  0  0  0  0
   -0.3300    8.6580   -1.0790 C   0  0  2  0  0  0  0  0  0  0  0  0
   -1.1180    8.2820   -2.2130 O   0  0  0  0  0  0  0  0  0  0  0  0
   -0.9020    9.9600   -0.4530 C   0  0  0  0  0  0  0  0  0  0  0  0
   -0.2500   10.2020    0.9310 C   0  0  0  0  0  0  0  0  0  0  0  0
   -2.4150    9.7370   -0.1870 C   0  0  0  0  0  0  0  0  0  0  0  0
    1.1390   12.5450   -2.8190 C   0  0  1  0  0  0  0  0  0  0  0  0
    0.8190   12.1610   -4.2960 C   0  0  0  0  0  0  0  0  0  0  0  0
    2.6760   12.8830   -2.7710 C   0  0  0  0  0  0  0  0  0  0  0  0
    3.1390   13.8550   -1.6690 C   0  0  0  0  0  0  0  0  0  0  0  0
    2.2620   15.1100   -1.6400 C   0  0  2  0  0  0  0  0  0  0  0  0
    2.4360   15.8470   -3.0110 C   0  0  0  0  0  0  0  0  0  0  0  0
    3.5994   18.0845    1.2196 H   0  0  0  0  0  0  0  0  0  0  0  0
    4.3638   19.0306   -0.1023 H   0  0  0  0  0  0  0  0  0  0  0  0
    2.5880   18.7599   -0.1023 H   0  0  0  0  0  0  0  0  0  0  0  0
    4.6516   16.5242   -0.2642 H   0  0  0  0  0  0  0  0  0  0  0  0
    3.2374   16.8115   -2.7442 H   0  0  0  0  0  0  0  0  0  0  0  0
    4.0007   18.4075   -2.2820 H   0  0  0  0  0  0  0  0  0  0  0  0
    5.6379   17.3602   -3.5762 H   0  0  0  0  0  0  0  0  0  0  0  0
    6.1249   17.0347   -1.8604 H   0  0  0  0  0  0  0  0  0  0  0  0
    4.2934   15.3054   -2.7801 H   0  0  0  0  0  0  0  0  0  0  0  0
    7.9898   16.0035   -4.0058 H   0  0  0  0  0  0  0  0  0  0  0  0
    7.9023   14.7906   -5.3279 H   0  0  0  0  0  0  0  0  0  0  0  0
    6.7899   16.2009   -5.3279 H   0  0  0  0  0  0  0  0  0  0  0  0
    5.7278   12.6516   -3.6357 H   0  0  0  0  0  0  0  0  0  0  0  0
    5.0263   13.4574   -5.0797 H   0  0  0  0  0  0  0  0  0  0  0  0
    6.7516   12.9573   -5.0797 H   0  0  0  0  0  0  0  0  0  0  0  0
    2.8219   15.5969    0.4157 H   0  0  0  0  0  0  0  0  0  0  0  0
    0.9358   17.0926    0.6273 H   0  0  0  0  0  0  0  0  0  0  0  0
    1.3156   17.9122   -0.9026 H   0  0  0  0  0  0  0  0  0  0  0  0
   -0.7740   16.0010   -0.5156 H   0  0  0  0  0  0  0  0  0  0  0  0
   -0.1793   16.5079   -2.0944 H   0  0  0  0  0  0  0  0  0  0  0  0
    0.7938   14.7080    0.8828 H   0  0  0  0  0  0  0  0  0  0  0  0
   -0.4150   13.5910    0.1632 H   0  0  0  0  0  0  0  0  0  0  0  0
    1.3265   13.1507    0.1632 H   0  0  0  0  0  0  0  0  0  0  0  0
    0.2940   14.4813   -3.3331 H   0  0  0  0  0  0  0  0  0  0  0  0
   -1.7687   14.2114   -1.8143 H   0  0  0  0  0  0  0  0  0  0  0  0
   -1.6075   13.2576   -3.3806 H   0  0  0  0  0  0  0  0  0  0  0  0
   -2.5431   11.9369   -1.3021 H   0  0  0  0  0  0  0  0  0  0  0  0
    1.4627   11.5445   -0.9807 H   0  0  0  0  0  0  0  0  0  0  0  0
    0.7087    9.7662   -3.3825 H   0  0  0  0  0  0  0  0  0  0  0  0
    2.3763   10.0430   -2.7088 H   0  0  0  0  0  0  0  0  0  0  0  0
    1.4373    7.8606   -2.0178 H   0  0  0  0  0  0  0  0  0  0  0  0
    1.7462    8.9697   -0.6249 H   0  0  0  0  0  0  0  0  0  0  0  0
   -0.3714    7.8893   -0.2933 H   0  0  0  0  0  0  0  0  0  0  0  0
   -0.5090    8.1010   -2.9480 H   0  0  0  0  0  0  0  0  0  0  0  0
   -0.9644    9.9368    1.7243 H   0  0  0  0  0  0  0  0  0  0  0  0
    0.6513    9.5785    1.0258 H   0  0  0  0  0  0  0  0  0  0  0  0
    0.0262   11.2625    1.0258 H   0  0  0  0  0  0  0  0  0  0  0  0
   -2.5966    9.7102    0.8976 H   0  0  0  0  0  0  0  0  0  0  0  0
   -2.9913   10.5599   -0.6350 H   0  0  0  0  0  0  0  0  0  0  0  0
   -2.7293    8.7828   -0.6350 H   0  0  0  0  0  0  0  0  0  0  0  0
    0.1149   11.3160   -4.3109 H   0  0  0  0  0  0  0  0  0  0  0  0
    0.3682   13.0230   -4.8095 H   0  0  0  0  0  0  0  0  0  0  0  0
    1.7482   11.8731   -4.8095 H   0  0  0  0  0  0  0  0  0  0  0  0
    3.2205   11.9375   -2.6312 H   0  0  0  0  0  0  0  0  0  0  0  0
    2.8868   13.4004   -3.7186 H   0  0  0  0  0  0  0  0  0  0  0  0
    3.0761   13.3496   -0.6940 H   0  0  0  0  0  0  0  0  0  0  0  0
    4.1754   14.1566   -1.8807 H   0  0  0  0  0  0  0  0  0  0  0  0
    2.6853   16.9031   -2.8305 H   0  0  0  0  0  0  0  0  0  0  0  0
    3.2466   15.3714   -3.5827 H   0  0  0  0  0  0  0  0  0  0  0  0
    1.4983   15.7841   -3.5827 H   0  0  0  0  0  0  0  0  0  0  0  0
  1  2  1  0
  2  3  1  0
  3  4  1  0
  4  5  1  0
  5  6  1  0
  6  7  1  0
  7  8  1  0
  7  9  1  0
  2 10  1  0
 10 11  1  0
 11 12  1  0
 12 13  1  0
 13 14  1  1
 13 15  1  0
 15 16  1  0
 16 17  1  0
 17 18  2  0
 18 19  1  0
 19 20  1  0
 20 21  1  0
 21 22  1  0
 22 23  1  0
 22 24  1  0
 24 25  1  0
 24 26  1  0
 19 27  1  0
 27 28  1  6
 27 29  1  0
 29 30  1  0
 30 31  1  0
 31 32  1  6
  7  5  1  0
 31 10  1  0
 31 13  1  0
 27 15  1  0
 24 18  1  0
  1 33  1  0
  1 34  1  0
  1 35  1  0
  2 36  1  1
  3 37  1  0
  3 38  1  0
  4 39  1  0
  4 40  1  0
  5 41  1  1
  8 42  1  0
  8 43  1  0
  8 44  1  0
  9 45  1  0
  9 46  1  0
  9 47  1  0
 10 48  1  1
 11 49  1  0
 11 50  1  0
 12 51  1  0
 12 52  1  0
 14 53  1  0
 14 54  1  0
 14 55  1  0
 15 56  1  6
 16 57  1  0
 16 58  1  0
 17 59  1  0
 19 60  1  1
 20 61  1  0
 20 62  1  0
 21 63  1  0
 21 64  1  0
 22 65  1  1
 23 66  1  0
 25 67  1  0
 25 68  1  0
 25 69  1  0
 26 70  1  0
 26 71  1  0
 26 72  1  0
 28 73  1  0
 28 74  1  0
 28 75  1  0
 29 76  1  0
 29 77  1  0
 30 78  1  0
 30 79  1  0
 32 80  1  0
 32 81  1  0
 32 82  1  0
M  END
>  <meeko>  (7) 
{"is_sidechain": [false], "intermolecular_energy": 2.731, "internal_energy": -0.839}

$$$$
EPH_relaxed_0001_pdb2pqr_Repair_141_r2_0001_out
     RDKit          3D

 82 86  0  0  0  0  0  0  0  0999 V2000
    3.6920   17.9450   -1.4040 C   0  0  0  0  0  0  0  0  0  0  0  0
    2.6740   17.4770   -2.4480 C   0  0  2  0  0  0  0  0  0  0  0  0
    1.2510   17.9820   -2.1370 C   0  0  0  0  0  0  0  0  0  0  0  0
    1.1580   18.8110   -0.8530 C   0  0  0  0  0  0  0  0  0  0  0  0
   -0.0800   19.6550   -0.8260 C   0  0  2  0  0  0  0  0  0  0  0  0
   -0.4090   20.1940    0.4610 O   0  0  0  0  0  0  0  0  0  0  0  0
   -1.3480   19.2580   -0.0940 C   0  0  0  0  0  0  0  0  0  0  0  0
   -1.4420   17.9700    0.6620 C   0  0  0  0  0  0  0  0  0  0  0  0
   -2.6420   19.8810   -0.5150 C   0  0  0  0  0  0  0  0  0  0  0  0
    2.6800   15.9560   -2.5340 C   0  0  1  0  0  0  0  0  0  0  0  0
    4.1070   15.3720   -2.7070 C   0  0  0  0  0  0  0  0  0  0  0  0
    4.1380   14.0290   -1.9340 C   0  0  0  0  0  0  0  0  0  0  0  0
    2.6540   13.7220   -1.6250 C   0  0  1  0  0  0  0  0  0  0  0  0
    2.0920   13.0970   -2.9410 C   0  0  0  0  0  0  0  0  0  0  0  0
    2.3810   12.8060   -0.3880 C   0  0  2  0  0  0  0  0  0  0  0  0
    2.9540   11.3820   -0.4910 C   0  0  0  0  0  0  0  0  0  0  0  0
    2.0370   10.3680   -1.0910 C   0  0  0  0  0  0  0  0  0  0  0  0
    0.7120   10.5190   -1.2680 C   0  0  0  0  0  0  0  0  0  0  0  0
   -0.0140   11.7710   -0.7570 C   0  0  1  0  0  0  0  0  0  0  0  0
   -1.3090   11.3510   -0.0140 C   0  0  0  0  0  0  0  0  0  0  0  0
   -2.2100   10.4620   -0.8650 C   0  0  0  0  0  0  0  0  0  0  0  0
   -1.4720    9.2000   -1.3050 C   0  0  2  0  0  0  0  0  0  0  0  0
   -1.2020    8.3980   -0.1520 O   0  0  0  0  0  0  0  0  0  0  0  0
   -0.1450    9.4980   -2.0570 C   0  0  0  0  0  0  0  0  0  0  0  0
   -0.4590   10.0990   -3.4490 C   0  0  0  0  0  0  0  0  0  0  0  0
    0.5690    8.1440   -2.3200 C   0  0  0  0  0  0  0  0  0  0  0  0
    0.8700   12.7890    0.0840 C   0  0  1  0  0  0  0  0  0  0  0  0
    0.8780   12.3710    1.5870 C   0  0  0  0  0  0  0  0  0  0  0  0
    0.2080   14.2160    0.0240 C   0  0  0  0  0  0  0  0  0  0  0  0
    0.6100   15.1190   -1.1580 C   0  0  0  0  0  0  0  0  0  0  0  0
    2.1330   15.1720   -1.3140 C   0  0  2  0  0  0  0  0  0  0  0  0
    2.7250   15.8170   -0.0150 C   0  0  0  0  0  0  0  0  0  0  0  0
    3.2934   17.7617   -0.3953 H   0  0  0  0  0  0  0  0  0  0  0  0
    4.6321   17.3887   -1.5334 H   0  0  0  0  0  0  0  0  0  0  0  0
    3.8818   19.0208   -1.5334 H   0  0  0  0  0  0  0  0  0  0  0  0
    2.9719   17.9048   -3.4166 H   0  0  0  0  0  0  0  0  0  0  0  0
    0.9124   18.6052   -2.9778 H   0  0  0  0  0  0  0  0  0  0  0  0
    0.6195   17.0931   -1.9917 H   0  0  0  0  0  0  0  0  0  0  0  0
    1.1439   18.1299    0.0107 H   0  0  0  0  0  0  0  0  0  0  0  0
    2.0300   19.4804   -0.8134 H   0  0  0  0  0  0  0  0  0  0  0  0
    0.1010   19.9946   -1.8565 H   0  0  0  0  0  0  0  0  0  0  0  0
   -1.4269   18.1770    1.7422 H   0  0  0  0  0  0  0  0  0  0  0  0
   -2.3799   17.4585    0.3997 H   0  0  0  0  0  0  0  0  0  0  0  0
   -0.5883   17.3278    0.3997 H   0  0  0  0  0  0  0  0  0  0  0  0
   -3.2219   20.1602    0.3771 H   0  0  0  0  0  0  0  0  0  0  0  0
   -2.4380   20.7796   -1.1158 H   0  0  0  0  0  0  0  0  0  0  0  0
   -3.2172   19.1611   -1.1158 H   0  0  0  0  0  0  0  0  0  0  0  0
    2.0148   15.8187   -3.3992 H   0  0  0  0  0  0  0  0  0  0  0  0
    4.3194   15.2006   -3.7726 H   0  0  0  0  0  0  0  0  0  0  0  0
    4.8673   16.0670   -2.3213 H   0  0  0  0  0  0  0  0  0  0  0  0
    4.5780   13.2341   -2.5542 H   0  0  0  0  0  0  0  0  0  0  0  0
    4.7505   14.0867   -1.0222 H   0  0  0  0  0  0  0  0  0  0  0  0
    1.3756   12.3003   -2.6918 H   0  0  0  0  0  0  0  0  0  0  0  0
    1.5844   13.8757   -3.5291 H   0  0  0  0  0  0  0  0  0  0  0  0
    2.9201   12.6747   -3.5291 H   0  0  0  0  0  0  0  0  0  0  0  0
    2.9583   13.3026    0.4058 H   0  0  0  0  0  0  0  0  0  0  0  0
    3.8635   11.4253   -1.1082 H   0  0  0  0  0  0  0  0  0  0  0  0
    3.1383   11.0524    0.5422 H   0  0  0  0  0  0  0  0  0  0  0  0
    2.4828    9.4164   -1.4160 H   0  0  0  0  0  0  0  0  0  0  0  0
   -0.2709   12.3603   -1.6496 H   0  0  0  0  0  0  0  0  0  0  0  0
   -1.0302   10.8012    0.8970 H   0  0  0  0  0  0  0  0  0  0  0  0
   -1.8705   12.2671    0.2216 H   0  0  0  0  0  0  0  0  0  0  0  0
   -3.0935   10.1755   -0.2757 H   0  0  0  0  0  0  0  0  0  0  0  0
   -2.5116   11.0233   -1.7617 H   0  0  0  0  0  0  0  0  0  0  0  0
   -2.1223    8.6679   -2.0149 H   0  0  0  0  0  0  0  0  0  0  0  0
   -2.0550    8.1730    0.2570 H   0  0  0  0  0  0  0  0  0  0  0  0
   -0.9651   11.0677   -3.3245 H   0  0  0  0  0  0  0  0  0  0  0  0
    0.4786   10.2440   -4.0057 H   0  0  0  0  0  0  0  0  0  0  0  0
   -1.1135    9.4122   -4.0057 H   0  0  0  0  0  0  0  0  0  0  0  0
    0.8195    7.6690   -1.3600 H   0  0  0  0  0  0  0  0  0  0  0  0
   -0.0978    7.4831   -2.8931 H   0  0  0  0  0  0  0  0  0  0  0  0
    1.4911    8.3210   -2.8931 H   0  0  0  0  0  0  0  0  0  0  0  0
    0.8608   13.2717    2.2182 H   0  0  0  0  0  0  0  0  0  0  0  0
   -0.0085   11.7561    1.8013 H   0  0  0  0  0  0  0  0  0  0  0  0
    1.7874   11.7905    1.8013 H   0  0  0  0  0  0  0  0  0  0  0  0
   -0.8821   14.0756   -0.0202 H   0  0  0  0  0  0  0  0  0  0  0  0
    0.5693   14.7390    0.9217 H   0  0  0  0  0  0  0  0  0  0  0  0
    0.1672   14.7200   -2.0825 H   0  0  0  0  0  0  0  0  0  0  0  0
    0.2417   16.1370   -0.9629 H   0  0  0  0  0  0  0  0  0  0  0  0
    2.2820   15.3344    0.8687 H   0  0  0  0  0  0  0  0  0  0  0  0
    3.8160   15.6775   -0.0008 H   0  0  0  0  0  0  0  0  0  0  0  0
    2.4926   16.8921   -0.0008 H   0  0  0  0  0  0  0  0  0  0  0  0
  1  2  1  0
  2  3  1  0
  3  4  1  0
  4  5  1  0
  5  6  1  0
  6  7  1  0
  7  8  1  0
  7  9  1  0
  2 10  1  0
 10 11  1  0
 11 12  1  0
 12 13  1  0
 13 14  1  6
 13 15  1  0
 15 16  1  0
 16 17  1  0
 17 18  2  0
 18 19  1  0
 19 20  1  0
 20 21  1  0
 21 22  1  0
 22 23  1  0
 22 24  1  0
 24 25  1  0
 24 26  1  0
 19 27  1  0
 27 28  1  1
 27 29  1  0
 29 30  1  0
 30 31  1  0
 31 32  1  1
  7  5  1  0
 31 10  1  0
 31 13  1  0
 27 15  1  0
 24 18  1  0
  1 33  1  0
  1 34  1  0
  1 35  1  0
  2 36  1  6
  3 37  1  0
  3 38  1  0
  4 39  1  0
  4 40  1  0
  5 41  1  6
  8 42  1  0
  8 43  1  0
  8 44  1  0
  9 45  1  0
  9 46  1  0
  9 47  1  0
 10 48  1  6
 11 49  1  0
 11 50  1  0
 12 51  1  0
 12 52  1  0
 14 53  1  0
 14 54  1  0
 14 55  1  0
 15 56  1  1
 16 57  1  0
 16 58  1  0
 17 59  1  0
 19 60  1  6
 20 61  1  0
 20 62  1  0
 21 63  1  0
 21 64  1  0
 22 65  1  6
 23 66  1  0
 25 67  1  0
 25 68  1  0
 25 69  1  0
 26 70  1  0
 26 71  1  0
 26 72  1  0
 28 73  1  0
 28 74  1  0
 28 75  1  0
 29 76  1  0
 29 77  1  0
 30 78  1  0
 30 79  1  0
 32 80  1  0
 32 81  1  0
 32 82  1  0
M  END
>  <meeko>  (8) 
{"is_sidechain": [false], "intermolecular_energy": 2.731, "internal_energy": -0.839}

$$$$
EPH_relaxed_0001_pdb2pqr_Repair_141_r2_0001_out
     RDKit          3D

 82 86  0  0  0  0  0  0  0  0999 V2000
    3.7970   17.6020    0.5030 C   0  0  0  0  0  0  0  0  0  0  0  0
    3.6840   16.6280   -0.6730 C   0  0  2  0  0  0  0  0  0  0  0  0
    3.6150   17.3600   -2.0290 C   0  0  0  0  0  0  0  0  0  0  0  0
    3.0810   18.7920   -1.9290 C   0  0  0  0  0  0  0  0  0  0  0  0
    1.6340   18.8720   -2.3090 C   0  0  2  0  0  0  0  0  0  0  0  0
    1.1630   20.1940   -2.5980 O   0  0  0  0  0  0  0  0  0  0  0  0
    0.5800   19.5500   -1.4540 C   0  0  0  0  0  0  0  0  0  0  0  0
    0.9310   20.1940   -0.1490 C   0  0  0  0  0  0  0  0  0  0  0  0
   -0.8540   19.1640   -1.6440 C   0  0  0  0  0  0  0  0  0  0  0  0
    2.4570   15.7420   -0.4970 C   0  0  1  0  0  0  0  0  0  0  0  0
    1.1460   16.5580   -0.3480 C   0  0  0  0  0  0  0  0  0  0  0  0
    0.0270   15.7390   -1.0400 C   0  0  0  0  0  0  0  0  0  0  0  0
    0.6510   14.3430   -1.2700 C   0  0  1  0  0  0  0  0  0  0  0  0
    0.5120   13.6110    0.1020 C   0  0  0  0  0  0  0  0  0  0  0  0
    0.0450   13.4990   -2.4380 C   0  0  2  0  0  0  0  0  0  0  0  0
   -1.4390   13.1270   -2.2740 C   0  0  0  0  0  0  0  0  0  0  0  0
   -1.6990   11.8320   -1.5780 C   0  0  0  0  0  0  0  0  0  0  0  0
   -0.7880   10.8660   -1.3570 C   0  0  0  0  0  0  0  0  0  0  0  0
    0.6380   10.9860   -1.9120 C   0  0  1  0  0  0  0  0  0  0  0  0
    1.0490    9.6460   -2.5760 C   0  0  0  0  0  0  0  0  0  0  0  0
    0.8860    8.4540   -1.6380 C   0  0  0  0  0  0  0  0  0  0  0  0
   -0.5560    8.3340   -1.1530 C   0  0  2  0  0  0  0  0  0  0  0  0
   -1.3900    8.0000   -2.2670 O   0  0  0  0  0  0  0  0  0  0  0  0
   -1.0840    9.6290   -0.4740 C   0  0  0  0  0  0  0  0  0  0  0  0
   -0.3800    9.8250    0.8910 C   0  0  0  0  0  0  0  0  0  0  0  0
   -2.5910    9.4230   -0.1600 C   0  0  0  0  0  0  0  0  0  0  0  0
    0.9140   12.2410   -2.8470 C   0  0  1  0  0  0  0  0  0  0  0  0
    0.5370   11.8990   -4.3210 C   0  0  0  0  0  0  0  0  0  0  0  0
    2.4570   12.5530   -2.8450 C   0  0  0  0  0  0  0  0  0  0  0  0
    2.9750   13.4890   -1.7360 C   0  0  0  0  0  0  0  0  0  0  0  0
    2.1200   14.7570   -1.6450 C   0  0  2  0  0  0  0  0  0  0  0  0
    2.2580   15.5260   -3.0030 C   0  0  0  0  0  0  0  0  0  0  0  0
    3.7323   17.0440    1.4488 H   0  0  0  0  0  0  0  0  0  0  0  0
    4.7621   18.1274    0.4525 H   0  0  0  0  0  0  0  0  0  0  0  0
    2.9778   18.3344    0.4525 H   0  0  0  0  0  0  0  0  0  0  0  0
    4.5929   16.0084   -0.6782 H   0  0  0  0  0  0  0  0  0  0  0  0
    4.6281   17.3961   -2.4561 H   0  0  0  0  0  0  0  0  0  0  0  0
    2.9124   16.7983   -2.6622 H   0  0  0  0  0  0  0  0  0  0  0  0
    3.1976   19.1444   -0.8935 H   0  0  0  0  0  0  0  0  0  0  0  0
    3.6538   19.4209   -2.6264 H   0  0  0  0  0  0  0  0  0  0  0  0
    1.6776   17.8764   -2.7746 H   0  0  0  0  0  0  0  0  0  0  0  0
    0.5843   19.5579    0.6788 H   0  0  0  0  0  0  0  0  0  0  0  0
    2.0219   20.3188   -0.0834 H   0  0  0  0  0  0  0  0  0  0  0  0
    0.4447   21.1785   -0.0834 H   0  0  0  0  0  0  0  0  0  0  0  0
   -1.3323   19.0353   -0.6618 H   0  0  0  0  0  0  0  0  0  0  0  0
   -1.3751   19.9538   -2.2049 H   0  0  0  0  0  0  0  0  0  0  0  0
   -0.9082   18.2193   -2.2049 H   0  0  0  0  0  0  0  0  0  0  0  0
    2.7609   15.1845    0.4012 H   0  0  0  0  0  0  0  0  0  0  0  0
    0.9077   16.7006    0.7164 H   0  0  0  0  0  0  0  0  0  0  0  0
    1.2467   17.5533   -0.8054 H   0  0  0  0  0  0  0  0  0  0  0  0
   -0.8587   15.6665   -0.3917 H   0  0  0  0  0  0  0  0  0  0  0  0
   -0.3116   16.2043   -1.9775 H   0  0  0  0  0  0  0  0  0  0  0  0
    0.6494   14.3345    0.9191 H   0  0  0  0  0  0  0  0  0  0  0  0
   -0.4880   13.1590    0.1768 H   0  0  0  0  0  0  0  0  0  0  0  0
    1.2767   12.8238    0.1768 H   0  0  0  0  0  0  0  0  0  0  0  0
    0.0844   14.2033   -3.2821 H   0  0  0  0  0  0  0  0  0  0  0  0
   -1.9281   13.9265   -1.6982 H   0  0  0  0  0  0  0  0  0  0  0  0
   -1.8377   13.0103   -3.2925 H   0  0  0  0  0  0  0  0  0  0  0  0
   -2.7217   11.6520   -1.2150 H   0  0  0  0  0  0  0  0  0  0  0  0
    1.2862   11.1875   -1.0464 H   0  0  0  0  0  0  0  0  0  0  0  0
    0.4197    9.4848   -3.4637 H   0  0  0  0  0  0  0  0  0  0  0  0
    2.1139    9.7181   -2.8422 H   0  0  0  0  0  0  0  0  0  0  0  0
    1.1633    7.5341   -2.1736 H   0  0  0  0  0  0  0  0  0  0  0  0
    1.5385    8.6027   -0.7650 H   0  0  0  0  0  0  0  0  0  0  0  0
   -0.5822    7.5456   -0.3864 H   0  0  0  0  0  0  0  0  0  0  0  0
   -2.1050    8.6580   -2.3070 H   0  0  0  0  0  0  0  0  0  0  0  0
   -1.0941    9.6262    1.7037 H   0  0  0  0  0  0  0  0  0  0  0  0
    0.4680    9.1288    0.9695 H   0  0  0  0  0  0  0  0  0  0  0  0
   -0.0138   10.8593    0.9695 H   0  0  0  0  0  0  0  0  0  0  0  0
   -2.7390    9.4028    0.9298 H   0  0  0  0  0  0  0  0  0  0  0  0
   -3.1723   10.2500   -0.5937 H   0  0  0  0  0  0  0  0  0  0  0  0
   -2.9290    8.4703   -0.5937 H   0  0  0  0  0  0  0  0  0  0  0  0
   -0.2777   11.1599   -4.3291 H   0  0  0  0  0  0  0  0  0  0  0  0
    0.2079   12.8131   -4.8368 H   0  0  0  0  0  0  0  0  0  0  0  0
    1.4148   11.4827   -4.8368 H   0  0  0  0  0  0  0  0  0  0  0  0
    2.9900   11.5956   -2.7483 H   0  0  0  0  0  0  0  0  0  0  0  0
    2.6431   13.0912   -3.7861 H   0  0  0  0  0  0  0  0  0  0  0  0
    2.9379   12.9600   -0.7722 H   0  0  0  0  0  0  0  0  0  0  0  0
    4.0084   13.7793   -1.9763 H   0  0  0  0  0  0  0  0  0  0  0  0
    2.4491   16.5908   -2.8036 H   0  0  0  0  0  0  0  0  0  0  0  0
    3.0949   15.1049   -3.5794 H   0  0  0  0  0  0  0  0  0  0  0  0
    1.3269   15.4222   -3.5794 H   0  0  0  0  0  0  0  0  0  0  0  0
  1  2  1  0
  2  3  1  0
  3  4  1  0
  4  5  1  0
  5  6  1  0
  6  7  1  0
  7  8  1  0
  7  9  1  0
  2 10  1  0
 10 11  1  0
 11 12  1  0
 12 13  1  0
 13 14  1  1
 13 15  1  0
 15 16  1  0
 16 17  1  0
 17 18  2  0
 18 19  1  0
 19 20  1  0
 20 21  1  0
 21 22  1  0
 22 23  1  0
 22 24  1  0
 24 25  1  0
 24 26  1  0
 19 27  1  0
 27 28  1  6
 27 29  1  0
 29 30  1  0
 30 31  1  0
 31 32  1  6
  7  5  1  0
 31 10  1  0
 31 13  1  0
 27 15  1  0
 24 18  1  0
  1 33  1  0
  1 34  1  0
  1 35  1  0
  2 36  1  6
  3 37  1  0
  3 38  1  0
  4 39  1  0
  4 40  1  0
  5 41  1  6
  8 42  1  0
  8 43  1  0
  8 44  1  0
  9 45  1  0
  9 46  1  0
  9 47  1  0
 10 48  1  1
 11 49  1  0
 11 50  1  0
 12 51  1  0
 12 52  1  0
 14 53  1  0
 14 54  1  0
 14 55  1  0
 15 56  1  6
 16 57  1  0
 16 58  1  0
 17 59  1  0
 19 60  1  1
 20 61  1  0
 20 62  1  0
 21 63  1  0
 21 64  1  0
 22 65  1  1
 23 66  1  0
 25 67  1  0
 25 68  1  0
 25 69  1  0
 26 70  1  0
 26 71  1  0
 26 72  1  0
 28 73  1  0
 28 74  1  0
 28 75  1  0
 29 76  1  0
 29 77  1  0
 30 78  1  0
 30 79  1  0
 32 80  1  0
 32 81  1  0
 32 82  1  0
M  END
>  <meeko>  (9) 
{"is_sidechain": [false], "intermolecular_energy": 2.731, "internal_energy": -0.839}

$$$$
EPH_relaxed_0001_pdb2pqr_Repair_141_r2_0001_out
     RDKit          3D

 82 86  0  0  0  0  0  0  0  0999 V2000
   -2.5170    7.5970   -3.0880 C   0  0  0  0  0  0  0  0  0  0  0  0
   -2.8340    7.8740   -1.6150 C   0  0  2  0  0  0  0  0  0  0  0  0
   -4.3480    7.8290   -1.3280 C   0  0  0  0  0  0  0  0  0  0  0  0
   -5.0690    6.6630   -2.0100 C   0  0  0  0  0  0  0  0  0  0  0  0
   -6.3030    7.1190   -2.7290 C   0  0  2  0  0  0  0  0  0  0  0  0
   -6.8420    8.3630   -2.2630 O   0  0  0  0  0  0  0  0  0  0  0  0
   -7.6690    7.2040   -2.0740 C   0  0  0  0  0  0  0  0  0  0  0  0
   -7.8720    6.8280   -0.6390 C   0  0  0  0  0  0  0  0  0  0  0  0
   -8.8850    7.1820   -2.9480 C   0  0  0  0  0  0  0  0  0  0  0  0
   -2.2660    9.2280   -1.2080 C   0  0  1  0  0  0  0  0  0  0  0  0
   -2.8080    9.7150    0.1630 C   0  0  0  0  0  0  0  0  0  0  0  0
   -1.6520   10.4830    0.8540 C   0  0  0  0  0  0  0  0  0  0  0  0
   -0.6050   10.6990   -0.2640 C   0  0  1  0  0  0  0  0  0  0  0  0
   -1.1190   11.9380   -1.0610 C   0  0  0  0  0  0  0  0  0  0  0  0
    0.8750   10.8870    0.2040 C   0  0  2  0  0  0  0  0  0  0  0  0
    1.1300   12.1250    1.0810 C   0  0  0  0  0  0  0  0  0  0  0  0
    1.5020   13.3670    0.3390 C   0  0  0  0  0  0  0  0  0  0  0  0
    1.9040   13.4200   -0.9440 C   0  0  0  0  0  0  0  0  0  0  0  0
    2.1110   12.1370   -1.7590 C   0  0  1  0  0  0  0  0  0  0  0  0
    3.4610   12.2180   -2.5190 C   0  0  0  0  0  0  0  0  0  0  0  0
    3.5770   13.4770   -3.3730 C   0  0  0  0  0  0  0  0  0  0  0  0
    3.4230   14.7320   -2.5190 C   0  0  2  0  0  0  0  0  0  0  0  0
    4.5420   14.8260   -1.6320 O   0  0  0  0  0  0  0  0  0  0  0  0
    2.1030   14.7580   -1.6990 C   0  0  0  0  0  0  0  0  0  0  0  0
    0.9010   14.9610   -2.6540 C   0  0  0  0  0  0  0  0  0  0  0  0
    2.1380   16.0050   -0.7750 C   0  0  0  0  0  0  0  0  0  0  0  0
    1.9420   10.7740   -0.9600 C   0  0  1  0  0  0  0  0  0  0  0  0
    3.2930   10.3790   -0.2890 C   0  0  0  0  0  0  0  0  0  0  0  0
    1.5980    9.6210   -1.9760 C   0  0  0  0  0  0  0  0  0  0  0  0
    0.1090    9.4070   -2.3060 C   0  0  0  0  0  0  0  0  0  0  0  0
   -0.7310    9.3300   -1.0270 C   0  0  2  0  0  0  0  0  0  0  0  0
   -0.2510    8.0800   -0.2140 C   0  0  0  0  0  0  0  0  0  0  0  0
   -1.6902    6.8746   -3.1556 H   0  0  0  0  0  0  0  0  0  0  0  0
   -3.4075    7.1825   -3.5830 H   0  0  0  0  0  0  0  0  0  0  0  0
   -2.2256    8.5351   -3.5830 H   0  0  0  0  0  0  0  0  0  0  0  0
   -2.3624    7.0786   -1.0193 H   0  0  0  0  0  0  0  0  0  0  0  0
   -4.4930    7.7392   -0.2413 H   0  0  0  0  0  0  0  0  0  0  0  0
   -4.7799    8.7557   -1.7337 H   0  0  0  0  0  0  0  0  0  0  0  0
   -4.3858    6.1964   -2.7349 H   0  0  0  0  0  0  0  0  0  0  0  0
   -5.3701    5.9445   -1.2335 H   0  0  0  0  0  0  0  0  0  0  0  0
   -5.9605    6.6507   -3.6635 H   0  0  0  0  0  0  0  0  0  0  0  0
   -7.4495    7.6106    0.0084 H   0  0  0  0  0  0  0  0  0  0  0  0
   -8.9481    6.7253   -0.4356 H   0  0  0  0  0  0  0  0  0  0  0  0
   -7.3675    5.8719   -0.4356 H   0  0  0  0  0  0  0  0  0  0  0  0
   -9.7878    7.1657   -2.3198 H   0  0  0  0  0  0  0  0  0  0  0  0
   -8.8964    8.0801   -3.5831 H   0  0  0  0  0  0  0  0  0  0  0  0
   -8.8639    6.2841   -3.5831 H   0  0  0  0  0  0  0  0  0  0  0  0
   -2.5836    9.8289   -2.0729 H   0  0  0  0  0  0  0  0  0  0  0  0
   -3.6701   10.3819    0.0142 H   0  0  0  0  0  0  0  0  0  0  0  0
   -3.1426    8.8673    0.7790 H   0  0  0  0  0  0  0  0  0  0  0  0
   -2.0063   11.4478    1.2461 H   0  0  0  0  0  0  0  0  0  0  0  0
   -1.2390    9.9322    1.7119 H   0  0  0  0  0  0  0  0  0  0  0  0
   -1.4428   12.7185   -0.3567 H   0  0  0  0  0  0  0  0  0  0  0  0
   -0.3087   12.3287   -1.6941 H   0  0  0  0  0  0  0  0  0  0  0  0
   -1.9679   11.6404   -1.6941 H   0  0  0  0  0  0  0  0  0  0  0  0
    1.0263   10.0186    0.8620 H   0  0  0  0  0  0  0  0  0  0  0  0
    0.2127   12.3319    1.6518 H   0  0  0  0  0  0  0  0  0  0  0  0
    1.9957   11.8772    1.7128 H   0  0  0  0  0  0  0  0  0  0  0  0
    1.4423   14.3185    0.8878 H   0  0  0  0  0  0  0  0  0  0  0  0
    1.2798   12.0963   -2.4783 H   0  0  0  0  0  0  0  0  0  0  0  0
    4.2799   12.2134   -1.7846 H   0  0  0  0  0  0  0  0  0  0  0  0
    3.5171   11.3508   -3.1934 H   0  0  0  0  0  0  0  0  0  0  0  0
    4.5632   13.4919   -3.8600 H   0  0  0  0  0  0  0  0  0  0  0  0
    2.7757   13.4649   -4.1265 H   0  0  0  0  0  0  0  0  0  0  0  0
    3.3839   15.5929   -3.2027 H   0  0  0  0  0  0  0  0  0  0  0  0
    5.1540   15.4870   -1.9990 H   0  0  0  0  0  0  0  0  0  0  0  0
   -0.0143   15.1156   -2.0637 H   0  0  0  0  0  0  0  0  0  0  0  0
    1.0813   15.8414   -3.2883 H   0  0  0  0  0  0  0  0  0  0  0  0
    0.7821   14.0702   -3.2883 H   0  0  0  0  0  0  0  0  0  0  0  0
    2.1289   15.6825    0.2766 H   0  0  0  0  0  0  0  0  0  0  0  0
    3.0527   16.5828   -0.9735 H   0  0  0  0  0  0  0  0  0  0  0  0
    1.2571   16.6332   -0.9735 H   0  0  0  0  0  0  0  0  0  0  0  0
    3.1823   10.4114    0.8049 H   0  0  0  0  0  0  0  0  0  0  0  0
    3.5728    9.3614   -0.5993 H   0  0  0  0  0  0  0  0  0  0  0  0
    4.0769   11.0856   -0.5993 H   0  0  0  0  0  0  0  0  0  0  0  0
    2.1193    9.8421   -2.9191 H   0  0  0  0  0  0  0  0  0  0  0  0
    1.9184    8.6939   -1.4782 H   0  0  0  0  0  0  0  0  0  0  0  0
   -0.2476   10.2467   -2.9206 H   0  0  0  0  0  0  0  0  0  0  0  0
    0.0038    8.4580   -2.8521 H   0  0  0  0  0  0  0  0  0  0  0  0
   -0.3316    8.2899    0.8628 H   0  0  0  0  0  0  0  0  0  0  0  0
   -0.8806    7.2142   -0.4669 H   0  0  0  0  0  0  0  0  0  0  0  0
    0.7963    7.8581   -0.4669 H   0  0  0  0  0  0  0  0  0  0  0  0
  1  2  1  0
  2  3  1  0
  3  4  1  0
  4  5  1  0
  5  6  1  0
  6  7  1  0
  7  8  1  0
  7  9  1  0
  2 10  1  0
 10 11  1  0
 11 12  1  0
 12 13  1  0
 13 14  1  6
 13 15  1  0
 15 16  1  0
 16 17  1  0
 17 18  2  0
 18 19  1  0
 19 20  1  0
 20 21  1  0
 21 22  1  0
 22 23  1  0
 22 24  1  0
 24 25  1  0
 24 26  1  0
 19 27  1  0
 27 28  1  1
 27 29  1  0
 29 30  1  0
 30 31  1  0
 31 32  1  1
  7  5  1  0
 31 10  1  0
 31 13  1  0
 27 15  1  0
 24 18  1  0
  1 33  1  0
  1 34  1  0
  1 35  1  0
  2 36  1  1
  3 37  1  0
  3 38  1  0
  4 39  1  0
  4 40  1  0
  5 41  1  6
  8 42  1  0
  8 43  1  0
  8 44  1  0
  9 45  1  0
  9 46  1  0
  9 47  1  0
 10 48  1  6
 11 49  1  0
 11 50  1  0
 12 51  1  0
 12 52  1  0
 14 53  1  0
 14 54  1  0
 14 55  1  0
 15 56  1  1
 16 57  1  0
 16 58  1  0
 17 59  1  0
 19 60  1  6
 20 61  1  0
 20 62  1  0
 21 63  1  0
 21 64  1  0
 22 65  1  6
 23 66  1  0
 25 67  1  0
 25 68  1  0
 25 69  1  0
 26 70  1  0
 26 71  1  0
 26 72  1  0
 28 73  1  0
 28 74  1  0
 28 75  1  0
 29 76  1  0
 29 77  1  0
 30 78  1  0
 30 79  1  0
 32 80  1  0
 32 81  1  0
 32 82  1  0
M  END
>  <meeko>  (10) 
{"is_sidechain": [false], "intermolecular_energy": 2.731, "internal_energy": -0.839}

$$$$
EPH_relaxed_0001_pdb2pqr_Repair_141_r2_0001_out
     RDKit          3D

 82 86  0  0  0  0  0  0  0  0999 V2000
    4.3780   17.5850   -2.6600 C   0  0  0  0  0  0  0  0  0  0  0  0
    2.9840   17.1150   -2.2340 C   0  0  2  0  0  0  0  0  0  0  0  0
    2.6410   17.5430   -0.7930 C   0  0  0  0  0  0  0  0  0  0  0  0
    3.5240   18.6760   -0.2610 C   0  0  0  0  0  0  0  0  0  0  0  0
    3.3300   18.8850    1.2100 C   0  0  2  0  0  0  0  0  0  0  0  0
    3.6760   20.1940    1.6790 O   0  0  0  0  0  0  0  0  0  0  0  0
    4.4750   19.1100    2.1810 C   0  0  0  0  0  0  0  0  0  0  0  0
    5.8980   19.1370    1.7160 C   0  0  0  0  0  0  0  0  0  0  0  0
    4.2510   18.8170    3.6310 C   0  0  0  0  0  0  0  0  0  0  0  0
    2.8850   15.5990   -2.3650 C   0  0  1  0  0  0  0  0  0  0  0  0
    4.2680   14.9250   -2.5670 C   0  0  0  0  0  0  0  0  0  0  0  0
    4.2120   13.5610   -1.8340 C   0  0  0  0  0  0  0  0  0  0  0  0
    2.7130   13.3470   -1.5220 C   0  0  1  0  0  0  0  0  0  0  0  0
    2.1000   12.8010   -2.8500 C   0  0  0  0  0  0  0  0  0  0  0  0
    2.3850   12.4150   -0.3090 C   0  0  2  0  0  0  0  0  0  0  0  0
    2.8590   10.9590   -0.4590 C   0  0  0  0  0  0  0  0  0  0  0  0
    1.8710   10.0280   -1.0800 C   0  0  0  0  0  0  0  0  0  0  0  0
    0.5580   10.2750   -1.2420 C   0  0  0  0  0  0  0  0  0  0  0  0
   -0.0770   11.5570   -0.6880 C   0  0  1  0  0  0  0  0  0  0  0  0
   -1.3930   11.2050    0.0540 C   0  0  0  0  0  0  0  0  0  0  0  0
   -2.3580   10.4050   -0.8140 C   0  0  0  0  0  0  0  0  0  0  0  0
   -1.7110    9.1090   -1.2980 C   0  0  2  0  0  0  0  0  0  0  0  0
   -1.4890    8.2560   -0.1710 O   0  0  0  0  0  0  0  0  0  0  0  0
   -0.3720    9.3380   -2.0520 C   0  0  0  0  0  0  0  0  0  0  0  0
   -0.6530   10.0010   -3.4240 C   0  0  0  0  0  0  0  0  0  0  0  0
    0.2460    7.9470   -2.3610 C   0  0  0  0  0  0  0  0  0  0  0  0
    0.8800   12.4870    0.1750 C   0  0  1  0  0  0  0  0  0  0  0  0
    0.8700   12.0250    1.6650 C   0  0  0  0  0  0  0  0  0  0  0  0
    0.3170   13.9570    0.1630 C   0  0  0  0  0  0  0  0  0  0  0  0
    0.7720   14.8650   -0.9960 C   0  0  0  0  0  0  0  0  0  0  0  0
    2.2940   14.8190   -1.1640 C   0  0  2  0  0  0  0  0  0  0  0  0
    2.9370   15.3830    0.1490 C   0  0  0  0  0  0  0  0  0  0  0  0
    4.9851   17.7897   -1.7658 H   0  0  0  0  0  0  0  0  0  0  0  0
    4.8620   16.8004   -3.2601 H   0  0  0  0  0  0  0  0  0  0  0  0
    4.2881   18.5025   -3.2601 H   0  0  0  0  0  0  0  0  0  0  0  0
    2.2542   17.5951   -2.9025 H   0  0  0  0  0  0  0  0  0  0  0  0
    1.5938   17.8789   -0.7704 H   0  0  0  0  0  0  0  0  0  0  0  0
    2.8153   16.6693   -0.1478 H   0  0  0  0  0  0  0  0  0  0  0  0
    4.5783   18.4250   -0.4495 H   0  0  0  0  0  0  0  0  0  0  0  0
    3.2412   19.6039   -0.7797 H   0  0  0  0  0  0  0  0  0  0  0  0
    2.4793   18.1877    1.2212 H   0  0  0  0  0  0  0  0  0  0  0  0
    6.5685   19.1497    2.5879 H   0  0  0  0  0  0  0  0  0  0  0  0
    6.1025   18.2426    1.1092 H   0  0  0  0  0  0  0  0  0  0  0  0
    6.0684   20.0385    1.1092 H   0  0  0  0  0  0  0  0  0  0  0  0
    4.8065   19.5437    4.2420 H   0  0  0  0  0  0  0  0  0  0  0  0
    3.1774   18.8914    3.8585 H   0  0  0  0  0  0  0  0  0  0  0  0
    4.6044   17.8005    3.8585 H   0  0  0  0  0  0  0  0  0  0  0  0
    2.2063   15.5325   -3.2281 H   0  0  0  0  0  0  0  0  0  0  0  0
    4.4615   14.7713   -3.6389 H   0  0  0  0  0  0  0  0  0  0  0  0
    5.0765   15.5550   -2.1677 H   0  0  0  0  0  0  0  0  0  0  0  0
    4.5927   12.7567   -2.4807 H   0  0  0  0  0  0  0  0  0  0  0  0
    4.8328   13.5497   -0.9260 H   0  0  0  0  0  0  0  0  0  0  0  0
    1.2973   12.0860   -2.6166 H   0  0  0  0  0  0  0  0  0  0  0  0
    1.6880   13.6368   -3.4345 H   0  0  0  0  0  0  0  0  0  0  0  0
    2.8828   12.2955   -3.4345 H   0  0  0  0  0  0  0  0  0  0  0  0
    2.9991   12.8475    0.4947 H   0  0  0  0  0  0  0  0  0  0  0  0
    3.7649   10.9589   -1.0829 H   0  0  0  0  0  0  0  0  0  0  0  0
    3.0278   10.5869    0.5623 H   0  0  0  0  0  0  0  0  0  0  0  0
    2.2482    9.0577   -1.4353 H   0  0  0  0  0  0  0  0  0  0  0  0
   -0.2988   12.1882   -1.5611 H   0  0  0  0  0  0  0  0  0  0  0  0
   -1.1465   10.6112    0.9465 H   0  0  0  0  0  0  0  0  0  0  0  0
   -1.8889   12.1500    0.3205 H   0  0  0  0  0  0  0  0  0  0  0  0
   -3.2546   10.1616   -0.2251 H   0  0  0  0  0  0  0  0  0  0  0  0
   -2.6268   11.0120   -1.6911 H   0  0  0  0  0  0  0  0  0  0  0  0
   -2.4007    8.6443   -2.0179 H   0  0  0  0  0  0  0  0  0  0  0  0
   -0.5330    8.2440    0.0050 H   0  0  0  0  0  0  0  0  0  0  0  0
   -1.0778   11.0034   -3.2667 H   0  0  0  0  0  0  0  0  0  0  0  0
    0.2866   10.0856   -3.9897 H   0  0  0  0  0  0  0  0  0  0  0  0
   -1.3673    9.3847   -3.9897 H   0  0  0  0  0  0  0  0  0  0  0  0
    0.4757    7.4301   -1.4176 H   0  0  0  0  0  0  0  0  0  0  0  0
   -0.4708    7.3482   -2.9421 H   0  0  0  0  0  0  0  0  0  0  0  0
    1.1708    8.0776   -2.9421 H   0  0  0  0  0  0  0  0  0  0  0  0
    0.8891   12.9067    2.3224 H   0  0  0  0  0  0  0  0  0  0  0  0
   -0.0410   11.4407    1.8616 H   0  0  0  0  0  0  0  0  0  0  0  0
    1.7549   11.4018    1.8616 H   0  0  0  0  0  0  0  0  0  0  0  0
   -0.7805   13.8929    0.1246 H   0  0  0  0  0  0  0  0  0  0  0  0
    0.7193   14.4271    1.0725 H   0  0  0  0  0  0  0  0  0  0  0  0
    0.2967   14.5245   -1.9277 H   0  0  0  0  0  0  0  0  0  0  0  0
    0.4755   15.8995   -0.7681 H   0  0  0  0  0  0  0  0  0  0  0  0
    2.4342   14.9420    1.0223 H   0  0  0  0  0  0  0  0  0  0  0  0
    4.0063   15.1263    0.1732 H   0  0  0  0  0  0  0  0  0  0  0  0
    2.8218   16.4767    0.1732 H   0  0  0  0  0  0  0  0  0  0  0  0
  1  2  1  0
  2  3  1  0
  3  4  1  0
  4  5  1  0
  5  6  1  0
  6  7  1  0
  7  8  1  0
  7  9  1  0
  2 10  1  0
 10 11  1  0
 11 12  1  0
 12 13  1  0
 13 14  1  6
 13 15  1  0
 15 16  1  0
 16 17  1  0
 17 18  2  0
 18 19  1  0
 19 20  1  0
 20 21  1  0
 21 22  1  0
 22 23  1  0
 22 24  1  0
 24 25  1  0
 24 26  1  0
 19 27  1  0
 27 28  1  1
 27 29  1  0
 29 30  1  0
 30 31  1  0
 31 32  1  1
  7  5  1  0
 31 10  1  0
 31 13  1  0
 27 15  1  0
 24 18  1  0
  1 33  1  0
  1 34  1  0
  1 35  1  0
  2 36  1  6
  3 37  1  0
  3 38  1  0
  4 39  1  0
  4 40  1  0
  5 41  1  1
  8 42  1  0
  8 43  1  0
  8 44  1  0
  9 45  1  0
  9 46  1  0
  9 47  1  0
 10 48  1  6
 11 49  1  0
 11 50  1  0
 12 51  1  0
 12 52  1  0
 14 53  1  0
 14 54  1  0
 14 55  1  0
 15 56  1  1
 16 57  1  0
 16 58  1  0
 17 59  1  0
 19 60  1  6
 20 61  1  0
 20 62  1  0
 21 63  1  0
 21 64  1  0
 22 65  1  6
 23 66  1  0
 25 67  1  0
 25 68  1  0
 25 69  1  0
 26 70  1  0
 26 71  1  0
 26 72  1  0
 28 73  1  0
 28 74  1  0
 28 75  1  0
 29 76  1  0
 29 77  1  0
 30 78  1  0
 30 79  1  0
 32 80  1  0
 32 81  1  0
 32 82  1  0
M  END
>  <meeko>  (11) 
{"is_sidechain": [false], "intermolecular_energy": 2.731, "internal_energy": -0.839}

$$$$
EPH_relaxed_0001_pdb2pqr_Repair_141_r2_0001_out
     RDKit          3D

 82 86  0  0  0  0  0  0  0  0999 V2000
    1.4350   18.1380   -0.0900 C   0  0  0  0  0  0  0  0  0  0  0  0
    2.3100   17.0130   -0.6520 C   0  0  2  0  0  0  0  0  0  0  0  0
    3.2690   17.5170   -1.7490 C   0  0  0  0  0  0  0  0  0  0  0  0
    4.7090   17.0240   -1.5810 C   0  0  0  0  0  0  0  0  0  0  0  0
    5.6440   17.7110   -2.5300 C   0  0  2  0  0  0  0  0  0  0  0  0
    5.2340   17.6790   -3.9030 O   0  0  0  0  0  0  0  0  0  0  0  0
    6.4490   16.9790   -3.5880 C   0  0  0  0  0  0  0  0  0  0  0  0
    6.3550   15.4940   -3.7510 C   0  0  0  0  0  0  0  0  0  0  0  0
    7.6800   17.6340   -4.1310 C   0  0  0  0  0  0  0  0  0  0  0  0
    1.4300   15.8970   -1.2020 C   0  0  1  0  0  0  0  0  0  0  0  0
    0.8310   16.2380   -2.5920 C   0  0  0  0  0  0  0  0  0  0  0  0
    0.7660   14.9100   -3.3900 C   0  0  0  0  0  0  0  0  0  0  0  0
    1.0140   13.8080   -2.3330 C   0  0  1  0  0  0  0  0  0  0  0  0
   -0.3670   13.6030   -1.6360 C   0  0  0  0  0  0  0  0  0  0  0  0
    1.5980   12.4590   -2.8660 C   0  0  2  0  0  0  0  0  0  0  0  0
    0.6980   11.7070   -3.8620 C   0  0  0  0  0  0  0  0  0  0  0  0
   -0.2510   10.7300   -3.2510 C   0  0  0  0  0  0  0  0  0  0  0  0
   -0.1860   10.2580   -1.9920 C   0  0  0  0  0  0  0  0  0  0  0  0
    0.9820   10.6330   -1.0700 C   0  0  1  0  0  0  0  0  0  0  0  0
    1.5170    9.3580   -0.3670 C   0  0  0  0  0  0  0  0  0  0  0  0
    0.4200    8.5890    0.3630 C   0  0  0  0  0  0  0  0  0  0  0  0
   -0.6940    8.1830   -0.5980 C   0  0  2  0  0  0  0  0  0  0  0  0
   -0.1760    7.2260   -1.5270 O   0  0  0  0  0  0  0  0  0  0  0  0
   -1.3040    9.3850   -1.3710 C   0  0  0  0  0  0  0  0  0  0  0  0
   -2.1260   10.2670   -0.3990 C   0  0  0  0  0  0  0  0  0  0  0  0
   -2.3150    8.8230   -2.4070 C   0  0  0  0  0  0  0  0  0  0  0  0
    2.1400   11.4950   -1.7340 C   0  0  1  0  0  0  0  0  0  0  0  0
    3.1820   10.5540   -2.4110 C   0  0  0  0  0  0  0  0  0  0  0  0
    2.9130   12.2740   -0.6050 C   0  0  0  0  0  0  0  0  0  0  0  0
    2.3550   13.6540   -0.2060 C   0  0  0  0  0  0  0  0  0  0  0  0
    2.0970   14.5190   -1.4430 C   0  0  2  0  0  0  0  0  0  0  0  0
    3.4730   14.7610   -2.1530 C   0  0  0  0  0  0  0  0  0  0  0  0
    1.4592   18.1069    1.0093 H   0  0  0  0  0  0  0  0  0  0  0  0
    1.8177   19.1088   -0.4379 H   0  0  0  0  0  0  0  0  0  0  0  0
    0.3998   18.0060   -0.4379 H   0  0  0  0  0  0  0  0  0  0  0  0
    2.9263   16.6281    0.1738 H   0  0  0  0  0  0  0  0  0  0  0  0
    2.8947   17.1706   -2.7236 H   0  0  0  0  0  0  0  0  0  0  0  0
    3.2939   18.6142   -1.6752 H   0  0  0  0  0  0  0  0  0  0  0  0
    5.0365   17.2243   -0.5502 H   0  0  0  0  0  0  0  0  0  0  0  0
    4.7302   15.9460   -1.7987 H   0  0  0  0  0  0  0  0  0  0  0  0
    5.9309   18.4393   -1.7571 H   0  0  0  0  0  0  0  0  0  0  0  0
    6.3248   15.0175   -2.7600 H   0  0  0  0  0  0  0  0  0  0  0  0
    5.4392   15.2433   -4.3064 H   0  0  0  0  0  0  0  0  0  0  0  0
    7.2319   15.1299   -4.3064 H   0  0  0  0  0  0  0  0  0  0  0  0
    8.3139   17.9713   -3.2976 H   0  0  0  0  0  0  0  0  0  0  0  0
    8.2374   16.9132   -4.7473 H   0  0  0  0  0  0  0  0  0  0  0  0
    7.3936   18.4990   -4.7473 H   0  0  0  0  0  0  0  0  0  0  0  0
    0.6956   15.8226   -0.3864 H   0  0  0  0  0  0  0  0  0  0  0  0
   -0.1782   16.6600   -2.4762 H   0  0  0  0  0  0  0  0  0  0  0  0
    1.4479   16.9832   -3.1155 H   0  0  0  0  0  0  0  0  0  0  0  0
   -0.2222   14.7852   -3.8567 H   0  0  0  0  0  0  0  0  0  0  0  0
    1.5015   14.8776   -4.2073 H   0  0  0  0  0  0  0  0  0  0  0  0
   -0.2333   13.6228   -0.5443 H   0  0  0  0  0  0  0  0  0  0  0  0
   -1.0525   14.4092   -1.9362 H   0  0  0  0  0  0  0  0  0  0  0  0
   -0.7887   12.6324   -1.9362 H   0  0  0  0  0  0  0  0  0  0  0  0
    2.4713   12.7924   -3.4457 H   0  0  0  0  0  0  0  0  0  0  0  0
    0.1087   12.4517   -4.4171 H   0  0  0  0  0  0  0  0  0  0  0  0
    1.3743   11.1174   -4.4985 H   0  0  0  0  0  0  0  0  0  0  0  0
   -1.0735   10.3646   -3.8835 H   0  0  0  0  0  0  0  0  0  0  0  0
    0.5687   11.3258   -0.3222 H   0  0  0  0  0  0  0  0  0  0  0  0
    1.9650    8.6989   -1.1252 H   0  0  0  0  0  0  0  0  0  0  0  0
    2.2576    9.6752    0.3819 H   0  0  0  0  0  0  0  0  0  0  0  0
    0.8537    7.6843    0.8140 H   0  0  0  0  0  0  0  0  0  0  0  0
   -0.0069    9.2397    1.1403 H   0  0  0  0  0  0  0  0  0  0  0  0
   -1.5077    7.7517    0.0036 H   0  0  0  0  0  0  0  0  0  0  0  0
    0.7100    7.5240   -1.7930 H   0  0  0  0  0  0  0  0  0  0  0  0
   -1.8768    9.9996    0.6385 H   0  0  0  0  0  0  0  0  0  0  0  0
   -1.8855   11.3263   -0.5726 H   0  0  0  0  0  0  0  0  0  0  0  0
   -3.1996   10.1016   -0.5726 H   0  0  0  0  0  0  0  0  0  0  0  0
   -3.1585    8.3541   -1.8791 H   0  0  0  0  0  0  0  0  0  0  0  0
   -2.6877    9.6434   -3.0379 H   0  0  0  0  0  0  0  0  0  0  0  0
   -1.8150    8.0734   -3.0379 H   0  0  0  0  0  0  0  0  0  0  0  0
    3.7614   10.0307   -1.6361 H   0  0  0  0  0  0  0  0  0  0  0  0
    2.6580    9.8170   -3.0373 H   0  0  0  0  0  0  0  0  0  0  0  0
    3.8619   11.1502   -3.0373 H   0  0  0  0  0  0  0  0  0  0  0  0
    2.9128   11.6420    0.2953 H   0  0  0  0  0  0  0  0  0  0  0  0
    3.9090   12.4769   -1.0256 H   0  0  0  0  0  0  0  0  0  0  0  0
    1.4102   13.5160    0.3401 H   0  0  0  0  0  0  0  0  0  0  0  0
    3.0959   14.1618    0.4290 H   0  0  0  0  0  0  0  0  0  0  0  0
    4.2577   14.8990   -1.3946 H   0  0  0  0  0  0  0  0  0  0  0  0
    3.7191   13.8924   -2.7814 H   0  0  0  0  0  0  0  0  0  0  0  0
    3.4080   15.6615   -2.7814 H   0  0  0  0  0  0  0  0  0  0  0  0
  1  2  1  0
  2  3  1  0
  3  4  1  0
  4  5  1  0
  5  6  1  0
  6  7  1  0
  7  8  1  0
  7  9  1  0
  2 10  1  0
 10 11  1  0
 11 12  1  0
 12 13  1  0
 13 14  1  1
 13 15  1  0
 15 16  1  0
 16 17  1  0
 17 18  2  0
 18 19  1  0
 19 20  1  0
 20 21  1  0
 21 22  1  0
 22 23  1  0
 22 24  1  0
 24 25  1  0
 24 26  1  0
 19 27  1  0
 27 28  1  6
 27 29  1  0
 29 30  1  0
 30 31  1  0
 31 32  1  6
  7  5  1  0
 31 10  1  0
 31 13  1  0
 27 15  1  0
 24 18  1  0
  1 33  1  0
  1 34  1  0
  1 35  1  0
  2 36  1  1
  3 37  1  0
  3 38  1  0
  4 39  1  0
  4 40  1  0
  5 41  1  1
  8 42  1  0
  8 43  1  0
  8 44  1  0
  9 45  1  0
  9 46  1  0
  9 47  1  0
 10 48  1  1
 11 49  1  0
 11 50  1  0
 12 51  1  0
 12 52  1  0
 14 53  1  0
 14 54  1  0
 14 55  1  0
 15 56  1  6
 16 57  1  0
 16 58  1  0
 17 59  1  0
 19 60  1  1
 20 61  1  0
 20 62  1  0
 21 63  1  0
 21 64  1  0
 22 65  1  1
 23 66  1  0
 25 67  1  0
 25 68  1  0
 25 69  1  0
 26 70  1  0
 26 71  1  0
 26 72  1  0
 28 73  1  0
 28 74  1  0
 28 75  1  0
 29 76  1  0
 29 77  1  0
 30 78  1  0
 30 79  1  0
 32 80  1  0
 32 81  1  0
 32 82  1  0
M  END
>  <meeko>  (12) 
{"is_sidechain": [false], "intermolecular_energy": 2.731, "internal_energy": -0.839}

$$$$
EPH_relaxed_0001_pdb2pqr_Repair_141_r2_0001_out
     RDKit          3D

 82 86  0  0  0  0  0  0  0  0999 V2000
    0.9920    8.6780   -0.2980 C   0  0  0  0  0  0  0  0  0  0  0  0
   -0.0760    9.4350   -1.0910 C   0  0  2  0  0  0  0  0  0  0  0  0
   -0.7870    8.5310   -2.1180 C   0  0  0  0  0  0  0  0  0  0  0  0
   -2.2930    8.3920   -1.8790 C   0  0  0  0  0  0  0  0  0  0  0  0
   -2.8660    7.2200   -2.6160 C   0  0  2  0  0  0  0  0  0  0  0  0
   -3.9150    7.5460   -3.5370 O   0  0  0  0  0  0  0  0  0  0  0  0
   -4.2850    6.7210   -2.4200 C   0  0  0  0  0  0  0  0  0  0  0  0
   -5.2200    7.3840   -1.4570 C   0  0  0  0  0  0  0  0  0  0  0  0
   -4.6050    5.3080   -2.7950 C   0  0  0  0  0  0  0  0  0  0  0  0
    0.5500   10.6320   -1.7960 C   0  0  1  0  0  0  0  0  0  0  0  0
    0.1970   10.6880   -3.3060 C   0  0  0  0  0  0  0  0  0  0  0  0
    0.0690   12.1880   -3.6800 C   0  0  0  0  0  0  0  0  0  0  0  0
    0.6720   12.9430   -2.4730 C   0  0  1  0  0  0  0  0  0  0  0  0
    2.2160   12.8900   -2.6970 C   0  0  0  0  0  0  0  0  0  0  0  0
    0.1720   14.4080   -2.2540 C   0  0  2  0  0  0  0  0  0  0  0  0
    0.4950   15.3860   -3.3970 C   0  0  0  0  0  0  0  0  0  0  0  0
    1.7950   16.1100   -3.2690 C   0  0  0  0  0  0  0  0  0  0  0  0
    2.5330   16.1980   -2.1470 C   0  0  0  0  0  0  0  0  0  0  0  0
    2.0270   15.6120   -0.8220 C   0  0  1  0  0  0  0  0  0  0  0  0
    2.2360   16.6460    0.3150 C   0  0  0  0  0  0  0  0  0  0  0  0
    3.6800   17.1310    0.4060 C   0  0  0  0  0  0  0  0  0  0  0  0
    4.1280   17.7590   -0.9110 C   0  0  2  0  0  0  0  0  0  0  0  0
    3.3830   18.9620   -1.1250 O   0  0  0  0  0  0  0  0  0  0  0  0
    3.9540   16.8130   -2.1320 C   0  0  0  0  0  0  0  0  0  0  0  0
    4.9830   15.6590   -2.0460 C   0  0  0  0  0  0  0  0  0  0  0  0
    4.3090   17.6160   -3.4130 C   0  0  0  0  0  0  0  0  0  0  0  0
    0.5520   15.0200   -0.8450 C   0  0  1  0  0  0  0  0  0  0  0  0
   -0.4800   16.1530   -0.5580 C   0  0  0  0  0  0  0  0  0  0  0  0
    0.4000   13.9740    0.3220 C   0  0  0  0  0  0  0  0  0  0  0  0
    0.7980   12.5190    0.0080 C   0  0  0  0  0  0  0  0  0  0  0  0
    0.1500   12.0420   -1.2950 C   0  0  2  0  0  0  0  0  0  0  0  0
   -1.4040   12.0650   -1.0920 C   0  0  0  0  0  0  0  0  0  0  0  0
    0.8095    8.8074    0.7790 H   0  0  0  0  0  0  0  0  0  0  0  0
    0.9477    7.6085   -0.5515 H   0  0  0  0  0  0  0  0  0  0  0  0
    1.9864    9.0740   -0.5515 H   0  0  0  0  0  0  0  0  0  0  0  0
   -0.8356    9.7814   -0.3747 H   0  0  0  0  0  0  0  0  0  0  0  0
   -0.6325    8.9565   -3.1205 H   0  0  0  0  0  0  0  0  0  0  0  0
   -0.3518    7.5259   -2.0163 H   0  0  0  0  0  0  0  0  0  0  0  0
   -2.4720    8.2578   -0.8020 H   0  0  0  0  0  0  0  0  0  0  0  0
   -2.7843    9.3035   -2.2501 H   0  0  0  0  0  0  0  0  0  0  0  0
   -1.8941    6.7051   -2.5998 H   0  0  0  0  0  0  0  0  0  0  0  0
   -4.9048    7.1605   -0.4271 H   0  0  0  0  0  0  0  0  0  0  0  0
   -5.2016    8.4720   -1.6182 H   0  0  0  0  0  0  0  0  0  0  0  0
   -6.2406    7.0067   -1.6182 H   0  0  0  0  0  0  0  0  0  0  0  0
   -4.7408    4.7083   -1.8829 H   0  0  0  0  0  0  0  0  0  0  0  0
   -5.5307    5.2869   -3.3889 H   0  0  0  0  0  0  0  0  0  0  0  0
   -3.7787    4.8901   -3.3889 H   0  0  0  0  0  0  0  0  0  0  0  0
    1.6106   10.4417   -1.5748 H   0  0  0  0  0  0  0  0  0  0  0  0
    0.9943   10.2163   -3.8992 H   0  0  0  0  0  0  0  0  0  0  0  0
   -0.7386   10.1479   -3.5133 H   0  0  0  0  0  0  0  0  0  0  0  0
    0.6335   12.4090   -4.5979 H   0  0  0  0  0  0  0  0  0  0  0  0
   -0.9725   12.4814   -3.8779 H   0  0  0  0  0  0  0  0  0  0  0  0
    2.7274   12.8724   -1.7233 H   0  0  0  0  0  0  0  0  0  0  0  0
    2.4735   11.9825   -3.2628 H   0  0  0  0  0  0  0  0  0  0  0  0
    2.5351   13.7777   -3.2628 H   0  0  0  0  0  0  0  0  0  0  0  0
   -0.9213   14.2868   -2.2645 H   0  0  0  0  0  0  0  0  0  0  0  0
    0.5149   14.8153   -4.3372 H   0  0  0  0  0  0  0  0  0  0  0  0
   -0.2877   16.1584   -3.3669 H   0  0  0  0  0  0  0  0  0  0  0  0
    2.1818   16.6136   -4.1672 H   0  0  0  0  0  0  0  0  0  0  0  0
    2.6395   14.7186   -0.6306 H   0  0  0  0  0  0  0  0  0  0  0  0
    1.5841   17.5121    0.1283 H   0  0  0  0  0  0  0  0  0  0  0  0
    1.9891   16.1514    1.2660 H   0  0  0  0  0  0  0  0  0  0  0  0
    3.7583   17.8805    1.2073 H   0  0  0  0  0  0  0  0  0  0  0  0
    4.3274   16.2683    0.6220 H   0  0  0  0  0  0  0  0  0  0  0  0
    5.2048   17.9677   -0.8271 H   0  0  0  0  0  0  0  0  0  0  0  0
    3.5000   19.2190   -2.0550 H   0  0  0  0  0  0  0  0  0  0  0  0
    5.1883   15.4287   -0.9901 H   0  0  0  0  0  0  0  0  0  0  0  0
    4.5755   14.7665   -2.5434 H   0  0  0  0  0  0  0  0  0  0  0  0
    5.9162   15.9620   -2.5434 H   0  0  0  0  0  0  0  0  0  0  0  0
    4.7387   18.5880   -3.1291 H   0  0  0  0  0  0  0  0  0  0  0  0
    5.0413   17.0512   -4.0086 H   0  0  0  0  0  0  0  0  0  0  0  0
    3.3984   17.7775   -4.0086 H   0  0  0  0  0  0  0  0  0  0  0  0
   -0.5941   16.2783    0.5289 H   0  0  0  0  0  0  0  0  0  0  0  0
   -0.1230   17.0948   -1.0002 H   0  0  0  0  0  0  0  0  0  0  0  0
   -1.4510   15.8852   -1.0002 H   0  0  0  0  0  0  0  0  0  0  0  0
    1.0256   14.3167    1.1594 H   0  0  0  0  0  0  0  0  0  0  0  0
   -0.6783   13.9372    0.5365 H   0  0  0  0  0  0  0  0  0  0  0  0
    1.8919   12.4586   -0.0911 H   0  0  0  0  0  0  0  0  0  0  0  0
    0.4494   11.8753    0.8290 H   0  0  0  0  0  0  0  0  0  0  0  0
   -1.6332   12.0684   -0.0162 H   0  0  0  0  0  0  0  0  0  0  0  0
   -1.8214   12.9694   -1.5587 H   0  0  0  0  0  0  0  0  0  0  0  0
   -1.8480   11.1733   -1.5587 H   0  0  0  0  0  0  0  0  0  0  0  0
  1  2  1  0
  2  3  1  0
  3  4  1  0
  4  5  1  0
  5  6  1  0
  6  7  1  0
  7  8  1  0
  7  9  1  0
  2 10  1  0
 10 11  1  0
 11 12  1  0
 12 13  1  0
 13 14  1  6
 13 15  1  0
 15 16  1  0
 16 17  1  0
 17 18  2  0
 18 19  1  0
 19 20  1  0
 20 21  1  0
 21 22  1  0
 22 23  1  0
 22 24  1  0
 24 25  1  0
 24 26  1  0
 19 27  1  0
 27 28  1  1
 27 29  1  0
 29 30  1  0
 30 31  1  0
 31 32  1  1
  7  5  1  0
 31 10  1  0
 31 13  1  0
 27 15  1  0
 24 18  1  0
  1 33  1  0
  1 34  1  0
  1 35  1  0
  2 36  1  1
  3 37  1  0
  3 38  1  0
  4 39  1  0
  4 40  1  0
  5 41  1  6
  8 42  1  0
  8 43  1  0
  8 44  1  0
  9 45  1  0
  9 46  1  0
  9 47  1  0
 10 48  1  6
 11 49  1  0
 11 50  1  0
 12 51  1  0
 12 52  1  0
 14 53  1  0
 14 54  1  0
 14 55  1  0
 15 56  1  1
 16 57  1  0
 16 58  1  0
 17 59  1  0
 19 60  1  1
 20 61  1  0
 20 62  1  0
 21 63  1  0
 21 64  1  0
 22 65  1  1
 23 66  1  0
 25 67  1  0
 25 68  1  0
 25 69  1  0
 26 70  1  0
 26 71  1  0
 26 72  1  0
 28 73  1  0
 28 74  1  0
 28 75  1  0
 29 76  1  0
 29 77  1  0
 30 78  1  0
 30 79  1  0
 32 80  1  0
 32 81  1  0
 32 82  1  0
M  END
>  <meeko>  (13) 
{"is_sidechain": [false], "intermolecular_energy": 2.731, "internal_energy": -0.839}

$$$$
EPH_relaxed_0001_pdb2pqr_Repair_141_r2_0001_out
     RDKit          3D

 82 86  0  0  0  0  0  0  0  0999 V2000
    1.5060   17.7180   -2.6970 C   0  0  0  0  0  0  0  0  0  0  0  0
    2.8030   17.0650   -2.2100 C   0  0  2  0  0  0  0  0  0  0  0  0
    4.0400   17.6020   -2.9580 C   0  0  0  0  0  0  0  0  0  0  0  0
    5.3710   17.1470   -2.3530 C   0  0  0  0  0  0  0  0  0  0  0  0
    6.5390   17.6260   -3.1600 C   0  0  2  0  0  0  0  0  0  0  0  0
    6.3250   17.6350   -4.5780 O   0  0  0  0  0  0  0  0  0  0  0  0
    7.3330   16.7330   -4.0950 C   0  0  0  0  0  0  0  0  0  0  0  0
    6.9900   15.2870   -4.2710 C   0  0  0  0  0  0  0  0  0  0  0  0
    8.7280   17.1370   -4.4580 C   0  0  0  0  0  0  0  0  0  0  0  0
    2.7150   15.5520   -2.3680 C   0  0  1  0  0  0  0  0  0  0  0  0
    4.0940   14.8990   -2.6530 C   0  0  0  0  0  0  0  0  0  0  0  0
    4.0900   13.5190   -1.9470 C   0  0  0  0  0  0  0  0  0  0  0  0
    2.6100   13.2800   -1.5660 C   0  0  1  0  0  0  0  0  0  0  0  0
    1.9390   12.7550   -2.8740 C   0  0  0  0  0  0  0  0  0  0  0  0
    2.3530   12.3190   -0.3600 C   0  0  2  0  0  0  0  0  0  0  0  0
    2.8350   10.8730   -0.5640 C   0  0  0  0  0  0  0  0  0  0  0  0
    1.8280    9.9430   -1.1560 C   0  0  0  0  0  0  0  0  0  0  0  0
    0.5060   10.1770   -1.2470 C   0  0  0  0  0  0  0  0  0  0  0  0
   -0.1150   11.4390   -0.6350 C   0  0  1  0  0  0  0  0  0  0  0  0
   -1.3880   11.0560    0.1630 C   0  0  0  0  0  0  0  0  0  0  0  0
   -2.3870   10.2620   -0.6740 C   0  0  0  0  0  0  0  0  0  0  0  0
   -1.7500    8.9850   -1.2170 C   0  0  2  0  0  0  0  0  0  0  0  0
   -1.4630    8.1110   -0.1200 O   0  0  0  0  0  0  0  0  0  0  0  0
   -0.4520    9.2460   -2.0310 C   0  0  0  0  0  0  0  0  0  0  0  0
   -0.8080    9.9340   -3.3720 C   0  0  0  0  0  0  0  0  0  0  0  0
    0.1650    7.8700   -2.3990 C   0  0  0  0  0  0  0  0  0  0  0  0
    0.8730   12.3630    0.2000 C   0  0  1  0  0  0  0  0  0  0  0  0
    0.9420   11.8700    1.6780 C   0  0  0  0  0  0  0  0  0  0  0  0
    0.2940   13.8260    0.2460 C   0  0  0  0  0  0  0  0  0  0  0  0
    0.6800   14.7630   -0.9130 C   0  0  0  0  0  0  0  0  0  0  0  0
    2.1930   14.7390   -1.1570 C   0  0  2  0  0  0  0  0  0  0  0  0
    2.8940   15.2840    0.1340 C   0  0  0  0  0  0  0  0  0  0  0  0
    0.9010   18.0226   -1.8303 H   0  0  0  0  0  0  0  0  0  0  0  0
    1.7467   18.6024   -3.3052 H   0  0  0  0  0  0  0  0  0  0  0  0
    0.9389   16.9980   -3.3052 H   0  0  0  0  0  0  0  0  0  0  0  0
    2.9231   17.3210   -1.1470 H   0  0  0  0  0  0  0  0  0  0  0  0
    3.9946   17.2523   -4.0000 H   0  0  0  0  0  0  0  0  0  0  0  0
    4.0106   18.6990   -2.8816 H   0  0  0  0  0  0  0  0  0  0  0  0
    5.4543   17.5484   -1.3322 H   0  0  0  0  0  0  0  0  0  0  0  0
    5.3866   16.0471   -2.3465 H   0  0  0  0  0  0  0  0  0  0  0  0
    6.8457   18.3082   -2.3534 H   0  0  0  0  0  0  0  0  0  0  0  0
    6.8778   14.8140   -3.2842 H   0  0  0  0  0  0  0  0  0  0  0  0
    6.0461   15.1993   -4.8291 H   0  0  0  0  0  0  0  0  0  0  0  0
    7.7939   14.7848   -4.8291 H   0  0  0  0  0  0  0  0  0  0  0  0
    9.3112   17.3059   -3.5408 H   0  0  0  0  0  0  0  0  0  0  0  0
    9.1987   16.3383   -5.0500 H   0  0  0  0  0  0  0  0  0  0  0  0
    8.6991   18.0637   -5.0500 H   0  0  0  0  0  0  0  0  0  0  0  0
    1.9948   15.4959   -3.1976 H   0  0  0  0  0  0  0  0  0  0  0  0
    4.2353   14.7699   -3.7362 H   0  0  0  0  0  0  0  0  0  0  0  0
    4.9143   15.5304   -2.2811 H   0  0  0  0  0  0  0  0  0  0  0  0
    4.4473   12.7330   -2.6286 H   0  0  0  0  0  0  0  0  0  0  0  0
    4.7551   13.4965   -1.0711 H   0  0  0  0  0  0  0  0  0  0  0  0
    1.0970   12.0962   -2.6152 H   0  0  0  0  0  0  0  0  0  0  0  0
    1.5701   13.6068   -3.4643 H   0  0  0  0  0  0  0  0  0  0  0  0
    2.6770   12.1921   -3.4643 H   0  0  0  0  0  0  0  0  0  0  0  0
    3.0019   12.7417    0.4212 H   0  0  0  0  0  0  0  0  0  0  0  0
    3.7092   10.8970   -1.2312 H   0  0  0  0  0  0  0  0  0  0  0  0
    3.0577   10.4818    0.4397 H   0  0  0  0  0  0  0  0  0  0  0  0
    2.1982    8.9855   -1.5512 H   0  0  0  0  0  0  0  0  0  0  0  0
   -0.3866   12.0852   -1.4828 H   0  0  0  0  0  0  0  0  0  0  0  0
   -1.0910   10.4467    1.0293 H   0  0  0  0  0  0  0  0  0  0  0  0
   -1.8804   11.9892    0.4739 H   0  0  0  0  0  0  0  0  0  0  0  0
   -3.2504    9.9952   -0.0469 H   0  0  0  0  0  0  0  0  0  0  0  0
   -2.7063   10.8839   -1.5233 H   0  0  0  0  0  0  0  0  0  0  0  0
   -2.4690    8.5272   -1.9123 H   0  0  0  0  0  0  0  0  0  0  0  0
   -0.8330    7.4410   -0.4350 H   0  0  0  0  0  0  0  0  0  0  0  0
   -1.3050   10.8945   -3.1707 H   0  0  0  0  0  0  0  0  0  0  0  0
    0.1117   10.1109   -3.9489 H   0  0  0  0  0  0  0  0  0  0  0  0
   -1.4836    9.2854   -3.9489 H   0  0  0  0  0  0  0  0  0  0  0  0
    0.4113    7.3206   -1.4784 H   0  0  0  0  0  0  0  0  0  0  0  0
   -0.5591    7.2897   -2.9897 H   0  0  0  0  0  0  0  0  0  0  0  0
    1.0800    8.0246   -2.9897 H   0  0  0  0  0  0  0  0  0  0  0  0
    0.8220   12.7274    2.3565 H   0  0  0  0  0  0  0  0  0  0  0  0
    0.1369   11.1429    1.8600 H   0  0  0  0  0  0  0  0  0  0  0  0
    1.9158   11.3919    1.8600 H   0  0  0  0  0  0  0  0  0  0  0  0
   -0.8032   13.7492    0.2603 H   0  0  0  0  0  0  0  0  0  0  0  0
    0.7364   14.2821    1.1439 H   0  0  0  0  0  0  0  0  0  0  0  0
    0.1628   14.4365   -1.8273 H   0  0  0  0  0  0  0  0  0  0  0  0
    0.3835   15.7887   -0.6485 H   0  0  0  0  0  0  0  0  0  0  0  0
    2.3834   14.8871    1.0238 H   0  0  0  0  0  0  0  0  0  0  0  0
    3.9466   14.9647    0.1423 H   0  0  0  0  0  0  0  0  0  0  0  0
    2.8441   16.3828    0.1423 H   0  0  0  0  0  0  0  0  0  0  0  0
  1  2  1  0
  2  3  1  0
  3  4  1  0
  4  5  1  0
  5  6  1  0
  6  7  1  0
  7  8  1  0
  7  9  1  0
  2 10  1  0
 10 11  1  0
 11 12  1  0
 12 13  1  0
 13 14  1  6
 13 15  1  0
 15 16  1  0
 16 17  1  0
 17 18  2  0
 18 19  1  0
 19 20  1  0
 20 21  1  0
 21 22  1  0
 22 23  1  0
 22 24  1  0
 24 25  1  0
 24 26  1  0
 19 27  1  0
 27 28  1  1
 27 29  1  0
 29 30  1  0
 30 31  1  0
 31 32  1  1
  7  5  1  0
 31 10  1  0
 31 13  1  0
 27 15  1  0
 24 18  1  0
  1 33  1  0
  1 34  1  0
  1 35  1  0
  2 36  1  1
  3 37  1  0
  3 38  1  0
  4 39  1  0
  4 40  1  0
  5 41  1  1
  8 42  1  0
  8 43  1  0
  8 44  1  0
  9 45  1  0
  9 46  1  0
  9 47  1  0
 10 48  1  6
 11 49  1  0
 11 50  1  0
 12 51  1  0
 12 52  1  0
 14 53  1  0
 14 54  1  0
 14 55  1  0
 15 56  1  1
 16 57  1  0
 16 58  1  0
 17 59  1  0
 19 60  1  6
 20 61  1  0
 20 62  1  0
 21 63  1  0
 21 64  1  0
 22 65  1  6
 23 66  1  0
 25 67  1  0
 25 68  1  0
 25 69  1  0
 26 70  1  0
 26 71  1  0
 26 72  1  0
 28 73  1  0
 28 74  1  0
 28 75  1  0
 29 76  1  0
 29 77  1  0
 30 78  1  0
 30 79  1  0
 32 80  1  0
 32 81  1  0
 32 82  1  0
M  END
>  <meeko>  (14) 
{"is_sidechain": [false], "intermolecular_energy": 2.731, "internal_energy": -0.839}

$$$$
EPH_relaxed_0001_pdb2pqr_Repair_141_r2_0001_out
     RDKit          3D

 82 86  0  0  0  0  0  0  0  0999 V2000
    0.2490   10.4490   -3.7910 C   0  0  0  0  0  0  0  0  0  0  0  0
    1.1280   10.1770   -2.5660 C   0  0  2  0  0  0  0  0  0  0  0  0
    0.6560    8.9410   -1.7750 C   0  0  0  0  0  0  0  0  0  0  0  0
   -0.7880    8.5310   -2.0780 C   0  0  0  0  0  0  0  0  0  0  0  0
   -1.6570    8.6240   -0.8600 C   0  0  2  0  0  0  0  0  0  0  0  0
   -3.0390    8.8950   -1.1300 O   0  0  0  0  0  0  0  0  0  0  0  0
   -2.3240    9.9080   -0.4040 C   0  0  0  0  0  0  0  0  0  0  0  0
   -2.1490   11.1890   -1.1590 C   0  0  0  0  0  0  0  0  0  0  0  0
   -2.7390   10.0290    1.0290 C   0  0  0  0  0  0  0  0  0  0  0  0
    1.1470   11.4010   -1.6580 C   0  0  1  0  0  0  0  0  0  0  0  0
    2.0100   11.1880   -0.3860 C   0  0  0  0  0  0  0  0  0  0  0  0
    2.6700   12.5520   -0.0600 C   0  0  0  0  0  0  0  0  0  0  0  0
    1.9150   13.5720   -0.9440 C   0  0  1  0  0  0  0  0  0  0  0  0
    0.5980   13.8800   -0.1640 C   0  0  0  0  0  0  0  0  0  0  0  0
    2.6900   14.8800   -1.3070 C   0  0  2  0  0  0  0  0  0  0  0  0
    3.0730   15.7660   -0.1080 C   0  0  0  0  0  0  0  0  0  0  0  0
    2.0660   16.8010    0.2680 C   0  0  0  0  0  0  0  0  0  0  0  0
    1.0350   17.2040   -0.4990 C   0  0  0  0  0  0  0  0  0  0  0  0
    0.8600   16.6710   -1.9260 C   0  0  1  0  0  0  0  0  0  0  0  0
    0.5580   17.8510   -2.8870 C   0  0  0  0  0  0  0  0  0  0  0  0
   -0.6310   18.6900   -2.4270 C   0  0  0  0  0  0  0  0  0  0  0  0
   -0.3940   19.2500   -1.0270 C   0  0  2  0  0  0  0  0  0  0  0  0
    0.6800   20.1940   -1.0840 O   0  0  0  0  0  0  0  0  0  0  0  0
   -0.0710   18.1530    0.0260 C   0  0  0  0  0  0  0  0  0  0  0  0
   -1.3400   17.3110    0.3070 C   0  0  0  0  0  0  0  0  0  0  0  0
    0.2850   18.8620    1.3600 C   0  0  0  0  0  0  0  0  0  0  0  0
    2.0230   15.7300   -2.4630 C   0  0  1  0  0  0  0  0  0  0  0  0
    3.1580   16.5940   -3.0930 C   0  0  0  0  0  0  0  0  0  0  0  0
    1.4590   14.8250   -3.6210 C   0  0  0  0  0  0  0  0  0  0  0  0
    0.8110   13.4900   -3.2070 C   0  0  0  0  0  0  0  0  0  0  0  0
    1.7180   12.7150   -2.2470 C   0  0  2  0  0  0  0  0  0  0  0  0
    3.0420   12.3710   -3.0110 C   0  0  0  0  0  0  0  0  0  0  0  0
   -0.7535   10.7592   -3.4613 H   0  0  0  0  0  0  0  0  0  0  0  0
    0.7002   11.2495   -4.3956 H   0  0  0  0  0  0  0  0  0  0  0  0
    0.1692    9.5335   -4.3956 H   0  0  0  0  0  0  0  0  0  0  0  0
    2.1451    9.9674   -2.9287 H   0  0  0  0  0  0  0  0  0  0  0  0
    1.3161    8.0969   -2.0233 H   0  0  0  0  0  0  0  0  0  0  0  0
    0.6977    9.2067   -0.7084 H   0  0  0  0  0  0  0  0  0  0  0  0
   -1.1918    9.1958   -2.8558 H   0  0  0  0  0  0  0  0  0  0  0  0
   -0.7838    7.4848   -2.4176 H   0  0  0  0  0  0  0  0  0  0  0  0
   -1.0341    7.8880   -0.3305 H   0  0  0  0  0  0  0  0  0  0  0  0
   -2.0354   12.0209   -0.4483 H   0  0  0  0  0  0  0  0  0  0  0  0
   -1.2517   11.1221   -1.7917 H   0  0  0  0  0  0  0  0  0  0  0  0
   -3.0314   11.3652   -1.7917 H   0  0  0  0  0  0  0  0  0  0  0  0
   -1.8875    9.7807    1.6796 H   0  0  0  0  0  0  0  0  0  0  0  0
   -3.0659   11.0598    1.2303 H   0  0  0  0  0  0  0  0  0  0  0  0
   -3.5687    9.3354    1.2303 H   0  0  0  0  0  0  0  0  0  0  0  0
    0.0681   11.5099   -1.4732 H   0  0  0  0  0  0  0  0  0  0  0  0
    1.3757   10.8641    0.4523 H   0  0  0  0  0  0  0  0  0  0  0  0
    2.7705   10.4104   -0.5503 H   0  0  0  0  0  0  0  0  0  0  0  0
    2.5490   12.7971    1.0055 H   0  0  0  0  0  0  0  0  0  0  0  0
    3.7522   12.5495   -0.2573 H   0  0  0  0  0  0  0  0  0  0  0  0
    0.7932   13.8343    0.9176 H   0  0  0  0  0  0  0  0  0  0  0  0
    0.2410   14.8859   -0.4300 H   0  0  0  0  0  0  0  0  0  0  0  0
   -0.1681   13.1368   -0.4300 H   0  0  0  0  0  0  0  0  0  0  0  0
    3.6379   14.4887   -1.7049 H   0  0  0  0  0  0  0  0  0  0  0  0
    3.2286   15.1114    0.7622 H   0  0  0  0  0  0  0  0  0  0  0  0
    3.9754   16.3164   -0.4127 H   0  0  0  0  0  0  0  0  0  0  0  0
    2.1750   17.2747    1.2548 H   0  0  0  0  0  0  0  0  0  0  0  0
   -0.0016   15.9881   -1.8908 H   0  0  0  0  0  0  0  0  0  0  0  0
    1.4461   18.4978   -2.9414 H   0  0  0  0  0  0  0  0  0  0  0  0
    0.3065   17.4256   -3.8698 H   0  0  0  0  0  0  0  0  0  0  0  0
   -0.7758   19.5245   -3.1288 H   0  0  0  0  0  0  0  0  0  0  0  0
   -1.5246   18.0490   -2.4023 H   0  0  0  0  0  0  0  0  0  0  0  0
   -1.3285   19.7305   -0.7016 H   0  0  0  0  0  0  0  0  0  0  0  0
    1.0130   20.2060   -1.9970 H   0  0  0  0  0  0  0  0  0  0  0  0
   -1.4837   17.2157    1.3934 H   0  0  0  0  0  0  0  0  0  0  0  0
   -2.2154   17.8080   -0.1364 H   0  0  0  0  0  0  0  0  0  0  0  0
   -1.2223   16.3112   -0.1364 H   0  0  0  0  0  0  0  0  0  0  0  0
   -0.0309   18.2329    2.2053 H   0  0  0  0  0  0  0  0  0  0  0  0
    1.3717   19.0248    1.4101 H   0  0  0  0  0  0  0  0  0  0  0  0
   -0.2336   19.8308    1.4101 H   0  0  0  0  0  0  0  0  0  0  0  0
    3.7583   17.0509   -2.2925 H   0  0  0  0  0  0  0  0  0  0  0  0
    3.8022   15.9556   -3.7155 H   0  0  0  0  0  0  0  0  0  0  0  0
    2.7142   17.3849   -3.7155 H   0  0  0  0  0  0  0  0  0  0  0  0
    0.6998   15.4101   -4.1607 H   0  0  0  0  0  0  0  0  0  0  0  0
    2.3375   14.5445   -4.2207 H   0  0  0  0  0  0  0  0  0  0  0  0
   -0.1484   13.6947   -2.7093 H   0  0  0  0  0  0  0  0  0  0  0  0
    0.6542   12.8813   -4.1098 H   0  0  0  0  0  0  0  0  0  0  0  0
    3.8413   12.1633   -2.2843 H   0  0  0  0  0  0  0  0  0  0  0  0
    2.8813   11.4848   -3.6425 H   0  0  0  0  0  0  0  0  0  0  0  0
    3.3330   13.2234   -3.6425 H   0  0  0  0  0  0  0  0  0  0  0  0
  1  2  1  0
  2  3  1  0
  3  4  1  0
  4  5  1  0
  5  6  1  0
  6  7  1  0
  7  8  1  0
  7  9  1  0
  2 10  1  0
 10 11  1  0
 11 12  1  0
 12 13  1  0
 13 14  1  1
 13 15  1  0
 15 16  1  0
 16 17  1  0
 17 18  2  0
 18 19  1  0
 19 20  1  0
 20 21  1  0
 21 22  1  0
 22 23  1  0
 22 24  1  0
 24 25  1  0
 24 26  1  0
 19 27  1  0
 27 28  1  6
 27 29  1  0
 29 30  1  0
 30 31  1  0
 31 32  1  6
  7  5  1  0
 31 10  1  0
 31 13  1  0
 27 15  1  0
 24 18  1  0
  1 33  1  0
  1 34  1  0
  1 35  1  0
  2 36  1  6
  3 37  1  0
  3 38  1  0
  4 39  1  0
  4 40  1  0
  5 41  1  1
  8 42  1  0
  8 43  1  0
  8 44  1  0
  9 45  1  0
  9 46  1  0
  9 47  1  0
 10 48  1  1
 11 49  1  0
 11 50  1  0
 12 51  1  0
 12 52  1  0
 14 53  1  0
 14 54  1  0
 14 55  1  0
 15 56  1  6
 16 57  1  0
 16 58  1  0
 17 59  1  0
 19 60  1  1
 20 61  1  0
 20 62  1  0
 21 63  1  0
 21 64  1  0
 22 65  1  1
 23 66  1  0
 25 67  1  0
 25 68  1  0
 25 69  1  0
 26 70  1  0
 26 71  1  0
 26 72  1  0
 28 73  1  0
 28 74  1  0
 28 75  1  0
 29 76  1  0
 29 77  1  0
 30 78  1  0
 30 79  1  0
 32 80  1  0
 32 81  1  0
 32 82  1  0
M  END
>  <meeko>  (15) 
{"is_sidechain": [false], "intermolecular_energy": 2.731, "internal_energy": -0.839}

$$$$
EPH_relaxed_0001_pdb2pqr_Repair_141_r2_0001_out
     RDKit          3D

 82 86  0  0  0  0  0  0  0  0999 V2000
   -5.1390    5.9140   -1.8030 C   0  0  0  0  0  0  0  0  0  0  0  0
   -5.4600    7.4110   -1.8330 C   0  0  2  0  0  0  0  0  0  0  0  0
   -5.2330    8.0820   -0.4630 C   0  0  0  0  0  0  0  0  0  0  0  0
   -4.1820    9.1940   -0.4880 C   0  0  0  0  0  0  0  0  0  0  0  0
   -2.8320    8.6720   -0.8800 C   0  0  2  0  0  0  0  0  0  0  0  0
   -1.7920    8.9290    0.0720 O   0  0  0  0  0  0  0  0  0  0  0  0
   -1.6520    9.5670   -1.2080 C   0  0  0  0  0  0  0  0  0  0  0  0
   -1.7660   11.0590   -1.1590 C   0  0  0  0  0  0  0  0  0  0  0  0
   -0.5410    9.0100   -2.0410 C   0  0  0  0  0  0  0  0  0  0  0  0
   -6.8990    7.6250   -2.2860 C   0  0  1  0  0  0  0  0  0  0  0  0
   -7.2110    6.9240   -3.6350 C   0  0  0  0  0  0  0  0  0  0  0  0
   -8.6820    6.4400   -3.5580 C   0  0  0  0  0  0  0  0  0  0  0  0
   -9.2650    7.1590   -2.3190 C   0  0  1  0  0  0  0  0  0  0  0  0
   -9.6310    8.5910   -2.8230 C   0  0  0  0  0  0  0  0  0  0  0  0
  -10.4800    6.4630   -1.6250 C   0  0  2  0  0  0  0  0  0  0  0  0
  -11.7400    6.3260   -2.4970 C   0  0  0  0  0  0  0  0  0  0  0  0
  -12.7020    7.4640   -2.4120 C   0  0  0  0  0  0  0  0  0  0  0  0
  -12.7060    8.4150   -1.4590 C   0  0  0  0  0  0  0  0  0  0  0  0
  -11.7320    8.3480   -0.2760 C   0  0  1  0  0  0  0  0  0  0  0  0
  -12.5010    8.6240    1.0430 C   0  0  0  0  0  0  0  0  0  0  0  0
  -13.2810    9.9350    1.0030 C   0  0  0  0  0  0  0  0  0  0  0  0
  -14.2800    9.9390   -0.1520 C   0  0  2  0  0  0  0  0  0  0  0  0
  -15.2870    8.9570    0.1070 O   0  0  0  0  0  0  0  0  0  0  0  0
  -13.6220    9.6620   -1.5320 C   0  0  0  0  0  0  0  0  0  0  0  0
  -12.7560   10.8760   -1.9490 C   0  0  0  0  0  0  0  0  0  0  0  0
  -14.7550    9.5540   -2.5880 C   0  0  0  0  0  0  0  0  0  0  0  0
  -10.8290    7.0440   -0.1940 C   0  0  1  0  0  0  0  0  0  0  0  0
  -11.5890    5.9170    0.5700 C   0  0  0  0  0  0  0  0  0  0  0  0
   -9.5400    7.3630    0.6520 C   0  0  0  0  0  0  0  0  0  0  0  0
   -8.3320    7.9370   -0.1120 C   0  0  0  0  0  0  0  0  0  0  0  0
   -8.0230    7.1010   -1.3580 C   0  0  2  0  0  0  0  0  0  0  0  0
   -7.6290    5.6610   -0.8820 C   0  0  0  0  0  0  0  0  0  0  0  0
   -5.0664    5.5754   -0.7589 H   0  0  0  0  0  0  0  0  0  0  0  0
   -5.9382    5.3573   -2.3143 H   0  0  0  0  0  0  0  0  0  0  0  0
   -4.1818    5.7339   -2.3143 H   0  0  0  0  0  0  0  0  0  0  0  0
   -4.7709    7.8825   -2.5491 H   0  0  0  0  0  0  0  0  0  0  0  0
   -6.1869    8.5135   -0.1256 H   0  0  0  0  0  0  0  0  0  0  0  0
   -4.8599    7.3030    0.2181 H   0  0  0  0  0  0  0  0  0  0  0  0
   -4.4919    9.9612   -1.2128 H   0  0  0  0  0  0  0  0  0  0  0  0
   -4.1056    9.6167    0.5247 H   0  0  0  0  0  0  0  0  0  0  0  0
   -3.2882    7.8270   -1.4165 H   0  0  0  0  0  0  0  0  0  0  0  0
   -1.7913   11.3906   -0.1105 H   0  0  0  0  0  0  0  0  0  0  0  0
   -0.8997   11.5098   -1.6653 H   0  0  0  0  0  0  0  0  0  0  0  0
   -2.6907   11.3729   -1.6653 H   0  0  0  0  0  0  0  0  0  0  0  0
    0.2474    8.6147   -1.3837 H   0  0  0  0  0  0  0  0  0  0  0  0
   -0.9293    8.2000   -2.6759 H   0  0  0  0  0  0  0  0  0  0  0  0
   -0.1243    9.8058   -2.6759 H   0  0  0  0  0  0  0  0  0  0  0  0
   -6.9199    8.7243   -2.3181 H   0  0  0  0  0  0  0  0  0  0  0  0
   -7.0885    7.6327   -4.4673 H   0  0  0  0  0  0  0  0  0  0  0  0
   -6.5264    6.0808   -3.8095 H   0  0  0  0  0  0  0  0  0  0  0  0
   -9.2325    6.7245   -4.4669 H   0  0  0  0  0  0  0  0  0  0  0  0
   -8.7574    5.3454   -3.4790 H   0  0  0  0  0  0  0  0  0  0  0  0
   -9.7998    9.2515   -1.9597 H   0  0  0  0  0  0  0  0  0  0  0  0
   -8.8053    8.9875   -3.4321 H   0  0  0  0  0  0  0  0  0  0  0  0
  -10.5457    8.5427   -3.4321 H   0  0  0  0  0  0  0  0  0  0  0  0
  -10.1090    5.4386   -1.4733 H   0  0  0  0  0  0  0  0  0  0  0  0
  -11.4192    6.2299   -3.5448 H   0  0  0  0  0  0  0  0  0  0  0  0
  -12.2777    5.4445   -2.1177 H   0  0  0  0  0  0  0  0  0  0  0  0
  -13.4727    7.5314   -3.1939 H   0  0  0  0  0  0  0  0  0  0  0  0
  -10.9889    9.1405   -0.4485 H   0  0  0  0  0  0  0  0  0  0  0  0
  -13.2070    7.7990    1.2186 H   0  0  0  0  0  0  0  0  0  0  0  0
  -11.7593    8.7016    1.8516 H   0  0  0  0  0  0  0  0  0  0  0  0
  -13.8255   10.0593    1.9507 H   0  0  0  0  0  0  0  0  0  0  0  0
  -12.5710   10.7624    0.8568 H   0  0  0  0  0  0  0  0  0  0  0  0
  -14.7145   10.9479   -0.2093 H   0  0  0  0  0  0  0  0  0  0  0  0
  -14.8410    8.1520    0.4180 H   0  0  0  0  0  0  0  0  0  0  0  0
  -12.3887   11.3908   -1.0490 H   0  0  0  0  0  0  0  0  0  0  0  0
  -11.9009   10.5282   -2.5471 H   0  0  0  0  0  0  0  0  0  0  0  0
  -13.3632   11.5714   -2.5471 H   0  0  0  0  0  0  0  0  0  0  0  0
  -15.7248    9.4616   -2.0771 H   0  0  0  0  0  0  0  0  0  0  0  0
  -14.7567   10.4561   -3.2175 H   0  0  0  0  0  0  0  0  0  0  0  0
  -14.5862    8.6679   -3.2175 H   0  0  0  0  0  0  0  0  0  0  0  0
  -11.4836    6.0733    1.6537 H   0  0  0  0  0  0  0  0  0  0  0  0
  -12.6544    5.9435    0.2976 H   0  0  0  0  0  0  0  0  0  0  0  0
  -11.1651    4.9392    0.2976 H   0  0  0  0  0  0  0  0  0  0  0  0
   -9.8218    8.0927    1.4254 H   0  0  0  0  0  0  0  0  0  0  0  0
   -9.2008    6.3902    1.0375 H   0  0  0  0  0  0  0  0  0  0  0  0
   -8.5574    8.9692   -0.4181 H   0  0  0  0  0  0  0  0  0  0  0  0
   -7.4549    7.9147    0.5514 H   0  0  0  0  0  0  0  0  0  0  0  0
   -7.6199    5.6279    0.2175 H   0  0  0  0  0  0  0  0  0  0  0  0
   -8.3615    4.9351   -1.2647 H   0  0  0  0  0  0  0  0  0  0  0  0
   -6.6289    5.4091   -1.2647 H   0  0  0  0  0  0  0  0  0  0  0  0
  1  2  1  0
  2  3  1  0
  3  4  1  0
  4  5  1  0
  5  6  1  0
  6  7  1  0
  7  8  1  0
  7  9  1  0
  2 10  1  0
 10 11  1  0
 11 12  1  0
 12 13  1  0
 13 14  1  6
 13 15  1  0
 15 16  1  0
 16 17  1  0
 17 18  2  0
 18 19  1  0
 19 20  1  0
 20 21  1  0
 21 22  1  0
 22 23  1  0
 22 24  1  0
 24 25  1  0
 24 26  1  0
 19 27  1  0
 27 28  1  1
 27 29  1  0
 29 30  1  0
 30 31  1  0
 31 32  1  1
  7  5  1  0
 31 10  1  0
 31 13  1  0
 27 15  1  0
 24 18  1  0
  1 33  1  0
  1 34  1  0
  1 35  1  0
  2 36  1  6
  3 37  1  0
  3 38  1  0
  4 39  1  0
  4 40  1  0
  5 41  1  6
  8 42  1  0
  8 43  1  0
  8 44  1  0
  9 45  1  0
  9 46  1  0
  9 47  1  0
 10 48  1  6
 11 49  1  0
 11 50  1  0
 12 51  1  0
 12 52  1  0
 14 53  1  0
 14 54  1  0
 14 55  1  0
 15 56  1  1
 16 57  1  0
 16 58  1  0
 17 59  1  0
 19 60  1  6
 20 61  1  0
 20 62  1  0
 21 63  1  0
 21 64  1  0
 22 65  1  6
 23 66  1  0
 25 67  1  0
 25 68  1  0
 25 69  1  0
 26 70  1  0
 26 71  1  0
 26 72  1  0
 28 73  1  0
 28 74  1  0
 28 75  1  0
 29 76  1  0
 29 77  1  0
 30 78  1  0
 30 79  1  0
 32 80  1  0
 32 81  1  0
 32 82  1  0
M  END
>  <meeko>  (16) 
{"is_sidechain": [false], "intermolecular_energy": 2.731, "internal_energy": -0.839}

$$$$
EPH_relaxed_0001_pdb2pqr_Repair_141_r2_0001_out
     RDKit          3D

 82 86  0  0  0  0  0  0  0  0999 V2000
   -1.1690   10.4960    1.5030 C   0  0  0  0  0  0  0  0  0  0  0  0
   -1.7900   10.1720    0.1410 C   0  0  2  0  0  0  0  0  0  0  0  0
   -2.5850    8.8510    0.1650 C   0  0  0  0  0  0  0  0  0  0  0  0
   -3.9770    8.9590   -0.4630 C   0  0  0  0  0  0  0  0  0  0  0  0
   -4.5220    7.6140   -0.8370 C   0  0  2  0  0  0  0  0  0  0  0  0
   -4.7020    7.4110   -2.2450 O   0  0  0  0  0  0  0  0  0  0  0  0
   -5.8970    7.4080   -1.4470 C   0  0  0  0  0  0  0  0  0  0  0  0
   -6.8110    8.5620   -1.7160 C   0  0  0  0  0  0  0  0  0  0  0  0
   -6.5380    6.0610   -1.3270 C   0  0  0  0  0  0  0  0  0  0  0  0
   -0.7020   10.1060   -0.9240 C   0  0  1  0  0  0  0  0  0  0  0  0
   -1.1150    9.2470   -2.1490 C   0  0  0  0  0  0  0  0  0  0  0  0
   -0.4790    9.9110   -3.3970 C   0  0  0  0  0  0  0  0  0  0  0  0
    0.5410   10.9230   -2.8230 C   0  0  1  0  0  0  0  0  0  0  0  0
    1.8010   10.0700   -2.4780 C   0  0  0  0  0  0  0  0  0  0  0  0
    0.8990   12.1380   -3.7390 C   0  0  2  0  0  0  0  0  0  0  0  0
    1.5740   11.7730   -5.0720 C   0  0  0  0  0  0  0  0  0  0  0  0
    3.0660   11.7200   -5.0380 C   0  0  0  0  0  0  0  0  0  0  0  0
    3.8440   12.2280   -4.0650 C   0  0  0  0  0  0  0  0  0  0  0  0
    3.2350   13.0240   -2.9030 C   0  0  1  0  0  0  0  0  0  0  0  0
    4.0580   14.3180   -2.6740 C   0  0  0  0  0  0  0  0  0  0  0  0
    5.5440   14.0390   -2.4730 C   0  0  0  0  0  0  0  0  0  0  0  0
    6.1270   13.2980   -3.6740 C   0  0  2  0  0  0  0  0  0  0  0  0
    6.1010   14.1680   -4.8090 O   0  0  0  0  0  0  0  0  0  0  0  0
    5.3720   11.9810   -4.0070 C   0  0  0  0  0  0  0  0  0  0  0  0
    5.6530   10.9280   -2.9060 C   0  0  0  0  0  0  0  0  0  0  0  0
    5.9700   11.4060   -5.3200 C   0  0  0  0  0  0  0  0  0  0  0  0
    1.6730   13.3020   -2.9980 C   0  0  1  0  0  0  0  0  0  0  0  0
    1.4130   14.6020   -3.8190 C   0  0  0  0  0  0  0  0  0  0  0  0
    1.1100   13.5700   -1.5520 C   0  0  0  0  0  0  0  0  0  0  0  0
    0.6610   12.3390   -0.7420 C   0  0  0  0  0  0  0  0  0  0  0  0
   -0.2610   11.4420   -1.5740 C   0  0  2  0  0  0  0  0  0  0  0  0
   -1.5480   12.2660   -1.9170 C   0  0  0  0  0  0  0  0  0  0  0  0
   -1.8380   10.1470    2.3034 H   0  0  0  0  0  0  0  0  0  0  0  0
   -0.1960    9.9906    1.5919 H   0  0  0  0  0  0  0  0  0  0  0  0
   -1.0269   11.5832    1.5919 H   0  0  0  0  0  0  0  0  0  0  0  0
   -2.4976   10.9788   -0.1004 H   0  0  0  0  0  0  0  0  0  0  0  0
   -2.0128    8.0912   -0.3875 H   0  0  0  0  0  0  0  0  0  0  0  0
   -2.7291    8.5817    1.2217 H   0  0  0  0  0  0  0  0  0  0  0  0
   -4.6585    9.4314    0.2597 H   0  0  0  0  0  0  0  0  0  0  0  0
   -3.8941    9.5623   -1.3790 H   0  0  0  0  0  0  0  0  0  0  0  0
   -4.0173    7.1450    0.0205 H   0  0  0  0  0  0  0  0  0  0  0  0
   -7.1507    8.9909   -0.7617 H   0  0  0  0  0  0  0  0  0  0  0  0
   -6.2730    9.3293   -2.2920 H   0  0  0  0  0  0  0  0  0  0  0  0
   -7.6811    8.2140   -2.2920 H   0  0  0  0  0  0  0  0  0  0  0  0
   -6.6593    5.8061   -0.2638 H   0  0  0  0  0  0  0  0  0  0  0  0
   -7.5239    6.0794   -1.8145 H   0  0  0  0  0  0  0  0  0  0  0  0
   -5.9019    5.3075   -1.8145 H   0  0  0  0  0  0  0  0  0  0  0  0
    0.1194    9.6904   -0.3219 H   0  0  0  0  0  0  0  0  0  0  0  0
   -0.7400    8.2192   -2.0345 H   0  0  0  0  0  0  0  0  0  0  0  0
   -2.2097    9.1959   -2.2440 H   0  0  0  0  0  0  0  0  0  0  0  0
    0.0279    9.1600   -4.0207 H   0  0  0  0  0  0  0  0  0  0  0  0
   -1.2290   10.3939   -4.0406 H   0  0  0  0  0  0  0  0  0  0  0  0
    1.9072    9.9981   -1.3855 H   0  0  0  0  0  0  0  0  0  0  0  0
    1.6886    9.0615   -2.9026 H   0  0  0  0  0  0  0  0  0  0  0  0
    2.6956   10.5490   -2.9026 H   0  0  0  0  0  0  0  0  0  0  0  0
   -0.0923   12.5334   -4.0052 H   0  0  0  0  0  0  0  0  0  0  0  0
    1.2057   10.7832   -5.3797 H   0  0  0  0  0  0  0  0  0  0  0  0
    1.3140   12.5780   -5.7752 H   0  0  0  0  0  0  0  0  0  0  0  0
    3.5716   11.2237   -5.8795 H   0  0  0  0  0  0  0  0  0  0  0  0
    3.3079   12.3750   -2.0178 H   0  0  0  0  0  0  0  0  0  0  0  0
    3.9375   14.9721   -3.5502 H   0  0  0  0  0  0  0  0  0  0  0  0
    3.6812   14.7951   -1.7573 H   0  0  0  0  0  0  0  0  0  0  0  0
    6.0756   14.9936   -2.3461 H   0  0  0  0  0  0  0  0  0  0  0  0
    5.6655   13.4096   -1.5791 H   0  0  0  0  0  0  0  0  0  0  0  0
    7.1574   13.0117   -3.4167 H   0  0  0  0  0  0  0  0  0  0  0  0
    5.1690   14.3420   -5.0250 H   0  0  0  0  0  0  0  0  0  0  0  0
    5.5295   11.3909   -1.9158 H   0  0  0  0  0  0  0  0  0  0  0  0
    4.9467   10.0911   -3.0102 H   0  0  0  0  0  0  0  0  0  0  0  0
    6.6823   10.5543   -3.0102 H   0  0  0  0  0  0  0  0  0  0  0  0
    6.7432   10.6626   -5.0760 H   0  0  0  0  0  0  0  0  0  0  0  0
    5.1727   10.9267   -5.9070 H   0  0  0  0  0  0  0  0  0  0  0  0
    6.4177   12.2215   -5.9070 H   0  0  0  0  0  0  0  0  0  0  0  0
    1.2448   15.4431   -3.1303 H   0  0  0  0  0  0  0  0  0  0  0  0
    2.2861   14.8161   -4.4529 H   0  0  0  0  0  0  0  0  0  0  0  0
    0.5247   14.4638   -4.4529 H   0  0  0  0  0  0  0  0  0  0  0  0
    1.8984   14.0773   -0.9767 H   0  0  0  0  0  0  0  0  0  0  0  0
    0.1962   14.1631   -1.7044 H   0  0  0  0  0  0  0  0  0  0  0  0
    1.5484   11.7627   -0.4415 H   0  0  0  0  0  0  0  0  0  0  0  0
    0.1082   12.6846    0.1440 H   0  0  0  0  0  0  0  0  0  0  0  0
   -2.0406   12.5814   -0.9854 H   0  0  0  0  0  0  0  0  0  0  0  0
   -1.2694   13.1541   -2.5033 H   0  0  0  0  0  0  0  0  0  0  0  0
   -2.2379   11.6413   -2.5033 H   0  0  0  0  0  0  0  0  0  0  0  0
  1  2  1  0
  2  3  1  0
  3  4  1  0
  4  5  1  0
  5  6  1  0
  6  7  1  0
  7  8  1  0
  7  9  1  0
  2 10  1  0
 10 11  1  0
 11 12  1  0
 12 13  1  0
 13 14  1  1
 13 15  1  0
 15 16  1  0
 16 17  1  0
 17 18  2  0
 18 19  1  0
 19 20  1  0
 20 21  1  0
 21 22  1  0
 22 23  1  0
 22 24  1  0
 24 25  1  0
 24 26  1  0
 19 27  1  0
 27 28  1  6
 27 29  1  0
 29 30  1  0
 30 31  1  0
 31 32  1  6
  7  5  1  0
 31 10  1  0
 31 13  1  0
 27 15  1  0
 24 18  1  0
  1 33  1  0
  1 34  1  0
  1 35  1  0
  2 36  1  6
  3 37  1  0
  3 38  1  0
  4 39  1  0
  4 40  1  0
  5 41  1  1
  8 42  1  0
  8 43  1  0
  8 44  1  0
  9 45  1  0
  9 46  1  0
  9 47  1  0
 10 48  1  1
 11 49  1  0
 11 50  1  0
 12 51  1  0
 12 52  1  0
 14 53  1  0
 14 54  1  0
 14 55  1  0
 15 56  1  6
 16 57  1  0
 16 58  1  0
 17 59  1  0
 19 60  1  1
 20 61  1  0
 20 62  1  0
 21 63  1  0
 21 64  1  0
 22 65  1  1
 23 66  1  0
 25 67  1  0
 25 68  1  0
 25 69  1  0
 26 70  1  0
 26 71  1  0
 26 72  1  0
 28 73  1  0
 28 74  1  0
 28 75  1  0
 29 76  1  0
 29 77  1  0
 30 78  1  0
 30 79  1  0
 32 80  1  0
 32 81  1  0
 32 82  1  0
M  END
>  <meeko>  (17) 
{"is_sidechain": [false], "intermolecular_energy": 2.731, "internal_energy": -0.839}

$$$$
EPH_relaxed_0001_pdb2pqr_Repair_141_r2_0001_out
     RDKit          3D

 82 86  0  0  0  0  0  0  0  0999 V2000
    0.0020    8.8370   -2.2570 C   0  0  0  0  0  0  0  0  0  0  0  0
    0.8920    9.9350   -2.8450 C   0  0  2  0  0  0  0  0  0  0  0  0
    2.3470    9.8340   -2.3430 C   0  0  0  0  0  0  0  0  0  0  0  0
    3.3880    9.8610   -3.4650 C   0  0  0  0  0  0  0  0  0  0  0  0
    3.8610   11.2540   -3.7490 C   0  0  2  0  0  0  0  0  0  0  0  0
    3.8780   11.6090   -5.1380 O   0  0  0  0  0  0  0  0  0  0  0  0
    5.1540   11.5670   -4.4790 C   0  0  0  0  0  0  0  0  0  0  0  0
    6.0560   10.4780   -4.9690 C   0  0  0  0  0  0  0  0  0  0  0  0
    5.7770   12.9140   -4.2860 C   0  0  0  0  0  0  0  0  0  0  0  0
    0.3190   11.3060   -2.5060 C   0  0  1  0  0  0  0  0  0  0  0  0
   -0.9520   11.2200   -1.6190 C   0  0  0  0  0  0  0  0  0  0  0  0
   -0.9160   12.4430   -0.6670 C   0  0  0  0  0  0  0  0  0  0  0  0
    0.1810   13.3610   -1.2520 C   0  0  1  0  0  0  0  0  0  0  0  0
   -0.5180   14.1300   -2.4170 C   0  0  0  0  0  0  0  0  0  0  0  0
    0.8720   14.3400   -0.2470 C   0  0  2  0  0  0  0  0  0  0  0  0
   -0.0620   15.3800    0.3960 C   0  0  0  0  0  0  0  0  0  0  0  0
   -0.1830   16.6720   -0.3430 C   0  0  0  0  0  0  0  0  0  0  0  0
    0.6430   17.0950   -1.3180 C   0  0  0  0  0  0  0  0  0  0  0  0
    1.8890   16.2870   -1.7010 C   0  0  1  0  0  0  0  0  0  0  0  0
    3.1090   17.2390   -1.8160 C   0  0  0  0  0  0  0  0  0  0  0  0
    2.8540   18.4040   -2.7670 C   0  0  0  0  0  0  0  0  0  0  0  0
    1.6420   19.2180   -2.3200 C   0  0  2  0  0  0  0  0  0  0  0  0
    1.9500   19.8600   -1.0790 O   0  0  0  0  0  0  0  0  0  0  0  0
    0.3540   18.3620   -2.1610 C   0  0  0  0  0  0  0  0  0  0  0  0
   -0.1490   17.9140   -3.5550 C   0  0  0  0  0  0  0  0  0  0  0  0
   -0.7550   19.2740   -1.5710 C   0  0  0  0  0  0  0  0  0  0  0  0
    2.1930   15.0130   -0.8010 C   0  0  1  0  0  0  0  0  0  0  0  0
    3.0360   15.4280    0.4430 C   0  0  0  0  0  0  0  0  0  0  0  0
    3.0790   14.0030   -1.6220 C   0  0  0  0  0  0  0  0  0  0  0  0
    2.3350   12.9830   -2.5040 C   0  0  0  0  0  0  0  0  0  0  0  0
    1.2260   12.2810   -1.7150 C   0  0  2  0  0  0  0  0  0  0  0  0
    1.9010   11.4810   -0.5490 C   0  0  0  0  0  0  0  0  0  0  0  0
    0.0397    8.8835   -1.1586 H   0  0  0  0  0  0  0  0  0  0  0  0
   -1.0343    8.9848   -2.5949 H   0  0  0  0  0  0  0  0  0  0  0  0
    0.3611    7.8537   -2.5949 H   0  0  0  0  0  0  0  0  0  0  0  0
    0.9085    9.7982   -3.9363 H   0  0  0  0  0  0  0  0  0  0  0  0
    2.5413   10.6809   -1.6685 H   0  0  0  0  0  0  0  0  0  0  0  0
    2.4456    8.8628   -1.8361 H   0  0  0  0  0  0  0  0  0  0  0  0
    4.2497    9.2459   -3.1666 H   0  0  0  0  0  0  0  0  0  0  0  0
    2.9185    9.4656   -4.3778 H   0  0  0  0  0  0  0  0  0  0  0  0
    3.4464   11.6139   -2.7958 H   0  0  0  0  0  0  0  0  0  0  0  0
    6.4936    9.9497   -4.1091 H   0  0  0  0  0  0  0  0  0  0  0  0
    5.4770    9.7690   -5.5790 H   0  0  0  0  0  0  0  0  0  0  0  0
    6.8604   10.9149   -5.5790 H   0  0  0  0  0  0  0  0  0  0  0  0
    5.8735   13.1226   -3.2103 H   0  0  0  0  0  0  0  0  0  0  0  0
    6.7729   12.9277   -4.7529 H   0  0  0  0  0  0  0  0  0  0  0  0
    5.1425   13.6817   -4.7529 H   0  0  0  0  0  0  0  0  0  0  0  0
    0.1502   11.6908   -3.5226 H   0  0  0  0  0  0  0  0  0  0  0  0
   -1.8549   11.2547   -2.2464 H   0  0  0  0  0  0  0  0  0  0  0  0
   -0.9748   10.2780   -1.0515 H   0  0  0  0  0  0  0  0  0  0  0  0
   -1.8885   12.9570   -0.6584 H   0  0  0  0  0  0  0  0  0  0  0  0
   -0.7073   12.1551    0.3739 H   0  0  0  0  0  0  0  0  0  0  0  0
   -1.2027   14.8833   -2.0003 H   0  0  0  0  0  0  0  0  0  0  0  0
    0.2427   14.6284   -3.0358 H   0  0  0  0  0  0  0  0  0  0  0  0
   -1.0865   13.4202   -3.0358 H   0  0  0  0  0  0  0  0  0  0  0  0
    1.1757   13.6663    0.5678 H   0  0  0  0  0  0  0  0  0  0  0  0
   -1.0655   14.9357    0.4703 H   0  0  0  0  0  0  0  0  0  0  0  0
    0.3835   15.6276    1.3708 H   0  0  0  0  0  0  0  0  0  0  0  0
   -1.0174   17.3337   -0.0674 H   0  0  0  0  0  0  0  0  0  0  0  0
    1.6708   15.8393   -2.6818 H   0  0  0  0  0  0  0  0  0  0  0  0
    3.3373   17.6418   -0.8182 H   0  0  0  0  0  0  0  0  0  0  0  0
    3.9503   16.6565   -2.2195 H   0  0  0  0  0  0  0  0  0  0  0  0
    3.7397   19.0562   -2.7830 H   0  0  0  0  0  0  0  0  0  0  0  0
    2.6552   18.0007   -3.7709 H   0  0  0  0  0  0  0  0  0  0  0  0
    1.4319   19.9568   -3.1075 H   0  0  0  0  0  0  0  0  0  0  0  0
    1.9720   19.1740   -0.3910 H   0  0  0  0  0  0  0  0  0  0  0  0
   -0.9654   17.1868   -3.4339 H   0  0  0  0  0  0  0  0  0  0  0  0
   -0.5168   18.7891   -4.1108 H   0  0  0  0  0  0  0  0  0  0  0  0
    0.6779   17.4477   -4.1108 H   0  0  0  0  0  0  0  0  0  0  0  0
   -0.7125   19.2391   -0.4724 H   0  0  0  0  0  0  0  0  0  0  0  0
   -0.5987   20.3083   -1.9113 H   0  0  0  0  0  0  0  0  0  0  0  0
   -1.7397   18.9209   -1.9113 H   0  0  0  0  0  0  0  0  0  0  0  0
    2.4918   15.1601    1.3606 H   0  0  0  0  0  0  0  0  0  0  0  0
    4.0022   14.9026    0.4231 H   0  0  0  0  0  0  0  0  0  0  0  0
    3.2088   16.5142    0.4231 H   0  0  0  0  0  0  0  0  0  0  0  0
    3.7354   14.5936   -2.2780 H   0  0  0  0  0  0  0  0  0  0  0  0
    3.6034   13.4004   -0.8658 H   0  0  0  0  0  0  0  0  0  0  0  0
    1.8893   13.5071   -3.3623 H   0  0  0  0  0  0  0  0  0  0  0  0
    3.0549   12.2251   -2.8467 H   0  0  0  0  0  0  0  0  0  0  0  0
    1.5613   11.8836    0.4166 H   0  0  0  0  0  0  0  0  0  0  0  0
    1.6213   10.4197   -0.6225 H   0  0  0  0  0  0  0  0  0  0  0  0
    2.9942   11.5781   -0.6225 H   0  0  0  0  0  0  0  0  0  0  0  0
  1  2  1  0
  2  3  1  0
  3  4  1  0
  4  5  1  0
  5  6  1  0
  6  7  1  0
  7  8  1  0
  7  9  1  0
  2 10  1  0
 10 11  1  0
 11 12  1  0
 12 13  1  0
 13 14  1  6
 13 15  1  0
 15 16  1  0
 16 17  1  0
 17 18  2  0
 18 19  1  0
 19 20  1  0
 20 21  1  0
 21 22  1  0
 22 23  1  0
 22 24  1  0
 24 25  1  0
 24 26  1  0
 19 27  1  0
 27 28  1  1
 27 29  1  0
 29 30  1  0
 30 31  1  0
 31 32  1  1
  7  5  1  0
 31 10  1  0
 31 13  1  0
 27 15  1  0
 24 18  1  0
  1 33  1  0
  1 34  1  0
  1 35  1  0
  2 36  1  6
  3 37  1  0
  3 38  1  0
  4 39  1  0
  4 40  1  0
  5 41  1  1
  8 42  1  0
  8 43  1  0
  8 44  1  0
  9 45  1  0
  9 46  1  0
  9 47  1  0
 10 48  1  6
 11 49  1  0
 11 50  1  0
 12 51  1  0
 12 52  1  0
 14 53  1  0
 14 54  1  0
 14 55  1  0
 15 56  1  1
 16 57  1  0
 16 58  1  0
 17 59  1  0
 19 60  1  6
 20 61  1  0
 20 62  1  0
 21 63  1  0
 21 64  1  0
 22 65  1  6
 23 66  1  0
 25 67  1  0
 25 68  1  0
 25 69  1  0
 26 70  1  0
 26 71  1  0
 26 72  1  0
 28 73  1  0
 28 74  1  0
 28 75  1  0
 29 76  1  0
 29 77  1  0
 30 78  1  0
 30 79  1  0
 32 80  1  0
 32 81  1  0
 32 82  1  0
M  END
>  <meeko>  (18) 
{"is_sidechain": [false], "intermolecular_energy": 2.731, "internal_energy": -0.839}

$$$$
EPH_relaxed_0001_pdb2pqr_Repair_141_r2_0001_out
     RDKit          3D

 82 86  0  0  0  0  0  0  0  0999 V2000
    4.1090   17.6350   -3.2300 C   0  0  0  0  0  0  0  0  0  0  0  0
    2.9200   17.5420   -2.2690 C   0  0  2  0  0  0  0  0  0  0  0  0
    2.9600   18.6380   -1.1860 C   0  0  0  0  0  0  0  0  0  0  0  0
    2.0470   19.8310   -1.4830 C   0  0  0  0  0  0  0  0  0  0  0  0
    0.9210   19.9260   -0.4980 C   0  0  2  0  0  0  0  0  0  0  0  0
    0.3190   18.6710   -0.1550 O   0  0  0  0  0  0  0  0  0  0  0  0
   -0.5220   19.6100   -0.8450 C   0  0  0  0  0  0  0  0  0  0  0  0
   -0.9170   19.1770   -2.2210 C   0  0  0  0  0  0  0  0  0  0  0  0
   -1.6060   20.1900    0.0100 C   0  0  0  0  0  0  0  0  0  0  0  0
    2.8870   16.1650   -1.6160 C   0  0  1  0  0  0  0  0  0  0  0  0
    3.3550   16.1940   -0.1370 C   0  0  0  0  0  0  0  0  0  0  0  0
    2.5110   15.1370    0.6210 C   0  0  0  0  0  0  0  0  0  0  0  0
    1.8290   14.3100   -0.4950 C   0  0  1  0  0  0  0  0  0  0  0  0
    2.9160   13.2920   -0.9610 C   0  0  0  0  0  0  0  0  0  0  0  0
    0.4950   13.5930   -0.1060 C   0  0  2  0  0  0  0  0  0  0  0  0
    0.6240   12.5320    1.0010 C   0  0  0  0  0  0  0  0  0  0  0  0
    0.9030   11.1450    0.5260 C   0  0  0  0  0  0  0  0  0  0  0  0
    0.7650   10.7090   -0.7400 C   0  0  0  0  0  0  0  0  0  0  0  0
    0.1910   11.6240   -1.8300 C   0  0  1  0  0  0  0  0  0  0  0  0
   -0.8740   10.8490   -2.6490 C   0  0  0  0  0  0  0  0  0  0  0  0
   -0.3380    9.5370   -3.2120 C   0  0  0  0  0  0  0  0  0  0  0  0
    0.1690    8.6300   -2.0930 C   0  0  2  0  0  0  0  0  0  0  0  0
   -0.9430    8.2210   -1.2910 O   0  0  0  0  0  0  0  0  0  0  0  0
    1.2410    9.3080   -1.1950 C   0  0  0  0  0  0  0  0  0  0  0  0
    2.5580    9.4770   -1.9920 C   0  0  0  0  0  0  0  0  0  0  0  0
    1.5640    8.3400   -0.0250 C   0  0  0  0  0  0  0  0  0  0  0  0
   -0.3290   13.0440   -1.3400 C   0  0  1  0  0  0  0  0  0  0  0  0
   -1.8120   12.9340   -0.8710 C   0  0  0  0  0  0  0  0  0  0  0  0
   -0.3210   14.0430   -2.5570 C   0  0  0  0  0  0  0  0  0  0  0  0
    0.9890   14.8100   -2.8170 C   0  0  0  0  0  0  0  0  0  0  0  0
    1.5140   15.4520   -1.5290 C   0  0  2  0  0  0  0  0  0  0  0  0
    0.4510   16.4970   -1.0480 C   0  0  0  0  0  0  0  0  0  0  0  0
    5.0424   17.7080   -2.6525 H   0  0  0  0  0  0  0  0  0  0  0  0
    4.1393   16.7365   -3.8638 H   0  0  0  0  0  0  0  0  0  0  0  0
    3.9992   18.5273   -3.8638 H   0  0  0  0  0  0  0  0  0  0  0  0
    2.0048   17.6962   -2.8594 H   0  0  0  0  0  0  0  0  0  0  0  0
    2.6491   18.1925   -0.2295 H   0  0  0  0  0  0  0  0  0  0  0  0
    3.9904   19.0218   -1.1552 H   0  0  0  0  0  0  0  0  0  0  0  0
    2.6414   20.7554   -1.4353 H   0  0  0  0  0  0  0  0  0  0  0  0
    1.6152   19.6913   -2.4850 H   0  0  0  0  0  0  0  0  0  0  0  0
    1.3895   20.7930   -0.0093 H   0  0  0  0  0  0  0  0  0  0  0  0
   -1.6569   18.3659   -2.1519 H   0  0  0  0  0  0  0  0  0  0  0  0
   -1.3559   20.0286   -2.7615 H   0  0  0  0  0  0  0  0  0  0  0  0
   -0.0288   18.8180   -2.7615 H   0  0  0  0  0  0  0  0  0  0  0  0
   -1.3493   20.0527    1.0708 H   0  0  0  0  0  0  0  0  0  0  0  0
   -1.7088   21.2636   -0.2064 H   0  0  0  0  0  0  0  0  0  0  0  0
   -2.5562   19.6798   -0.2064 H   0  0  0  0  0  0  0  0  0  0  0  0
    3.5516   15.6195   -2.3021 H   0  0  0  0  0  0  0  0  0  0  0  0
    4.4238   15.9419   -0.0730 H   0  0  0  0  0  0  0  0  0  0  0  0
    3.2198   17.1943    0.3001 H   0  0  0  0  0  0  0  0  0  0  0  0
    3.1559   14.4963    1.2403 H   0  0  0  0  0  0  0  0  0  0  0  0
    1.7821   15.5968    1.3046 H   0  0  0  0  0  0  0  0  0  0  0  0
    3.3975   12.8411   -0.0807 H   0  0  0  0  0  0  0  0  0  0  0  0
    2.4445   12.5031   -1.5654 H   0  0  0  0  0  0  0  0  0  0  0  0
    3.6723   13.8142   -1.5654 H   0  0  0  0  0  0  0  0  0  0  0  0
   -0.0945   14.4118    0.3322 H   0  0  0  0  0  0  0  0  0  0  0  0
    1.4451   12.8345    1.6676 H   0  0  0  0  0  0  0  0  0  0  0  0
   -0.3560   12.4915    1.4990 H   0  0  0  0  0  0  0  0  0  0  0  0
    1.2509   10.4173    1.2739 H   0  0  0  0  0  0  0  0  0  0  0  0
    1.0376   11.8922   -2.4791 H   0  0  0  0  0  0  0  0  0  0  0  0
   -1.7301   10.6283   -1.9946 H   0  0  0  0  0  0  0  0  0  0  0  0
   -1.1671   11.4822   -3.4994 H   0  0  0  0  0  0  0  0  0  0  0  0
   -1.1442    9.0223   -3.7553 H   0  0  0  0  0  0  0  0  0  0  0  0
    0.4995    9.7614   -3.8889 H   0  0  0  0  0  0  0  0  0  0  0  0
    0.6568    7.7643   -2.5647 H   0  0  0  0  0  0  0  0  0  0  0  0
   -0.7220    7.3590   -0.9000 H   0  0  0  0  0  0  0  0  0  0  0  0
    3.3992    9.5849   -1.2915 H   0  0  0  0  0  0  0  0  0  0  0  0
    2.7194    8.5922   -2.6253 H   0  0  0  0  0  0  0  0  0  0  0  0
    2.4908   10.3739   -2.6253 H   0  0  0  0  0  0  0  0  0  0  0  0
    1.3929    8.8528    0.9330 H   0  0  0  0  0  0  0  0  0  0  0  0
    0.9120    7.4564   -0.0895 H   0  0  0  0  0  0  0  0  0  0  0  0
    2.6159    8.0250   -0.0895 H   0  0  0  0  0  0  0  0  0  0  0  0
   -1.8496   12.9312    0.2284 H   0  0  0  0  0  0  0  0  0  0  0  0
   -2.3827   13.7923   -1.2552 H   0  0  0  0  0  0  0  0  0  0  0  0
   -2.2498   12.0009   -1.2552 H   0  0  0  0  0  0  0  0  0  0  0  0
   -0.5538   13.4651   -3.4635 H   0  0  0  0  0  0  0  0  0  0  0  0
   -1.0608   14.8155   -2.3002 H   0  0  0  0  0  0  0  0  0  0  0  0
    1.7446   14.1106   -3.2042 H   0  0  0  0  0  0  0  0  0  0  0  0
    0.7896   15.6061   -3.5494 H   0  0  0  0  0  0  0  0  0  0  0  0
    0.4293   16.5184    0.0516 H   0  0  0  0  0  0  0  0  0  0  0  0
    0.7182   17.4937   -1.4289 H   0  0  0  0  0  0  0  0  0  0  0  0
   -0.5410   16.2128   -1.4289 H   0  0  0  0  0  0  0  0  0  0  0  0
  1  2  1  0
  2  3  1  0
  3  4  1  0
  4  5  1  0
  5  6  1  0
  6  7  1  0
  7  8  1  0
  7  9  1  0
  2 10  1  0
 10 11  1  0
 11 12  1  0
 12 13  1  0
 13 14  1  6
 13 15  1  0
 15 16  1  0
 16 17  1  0
 17 18  2  0
 18 19  1  0
 19 20  1  0
 20 21  1  0
 21 22  1  0
 22 23  1  0
 22 24  1  0
 24 25  1  0
 24 26  1  0
 19 27  1  0
 27 28  1  1
 27 29  1  0
 29 30  1  0
 30 31  1  0
 31 32  1  1
  7  5  1  0
 31 10  1  0
 31 13  1  0
 27 15  1  0
 24 18  1  0
  1 33  1  0
  1 34  1  0
  1 35  1  0
  2 36  1  6
  3 37  1  0
  3 38  1  0
  4 39  1  0
  4 40  1  0
  5 41  1  1
  8 42  1  0
  8 43  1  0
  8 44  1  0
  9 45  1  0
  9 46  1  0
  9 47  1  0
 10 48  1  6
 11 49  1  0
 11 50  1  0
 12 51  1  0
 12 52  1  0
 14 53  1  0
 14 54  1  0
 14 55  1  0
 15 56  1  1
 16 57  1  0
 16 58  1  0
 17 59  1  0
 19 60  1  6
 20 61  1  0
 20 62  1  0
 21 63  1  0
 21 64  1  0
 22 65  1  6
 23 66  1  0
 25 67  1  0
 25 68  1  0
 25 69  1  0
 26 70  1  0
 26 71  1  0
 26 72  1  0
 28 73  1  0
 28 74  1  0
 28 75  1  0
 29 76  1  0
 29 77  1  0
 30 78  1  0
 30 79  1  0
 32 80  1  0
 32 81  1  0
 32 82  1  0
M  END
>  <meeko>  (19) 
{"is_sidechain": [false], "intermolecular_energy": 2.731, "internal_energy": -0.839}

$$$$
EPH_relaxed_0001_pdb2pqr_Repair_141_r2_0001_out
     RDKit          3D

 82 86  0  0  0  0  0  0  0  0999 V2000
    2.3650   10.0660   -3.1190 C   0  0  0  0  0  0  0  0  0  0  0  0
    1.9450   11.0630   -4.2030 C   0  0  2  0  0  0  0  0  0  0  0  0
    3.1580   11.6540   -4.9490 C   0  0  0  0  0  0  0  0  0  0  0  0
    4.4860   11.4630   -4.2120 C   0  0  0  0  0  0  0  0  0  0  0  0
    5.6000   12.2160   -4.8750 C   0  0  2  0  0  0  0  0  0  0  0  0
    6.8520   12.1680   -4.1780 O   0  0  0  0  0  0  0  0  0  0  0  0
    6.2350   13.4610   -4.2840 C   0  0  0  0  0  0  0  0  0  0  0  0
    5.7770   14.0260   -2.9760 C   0  0  0  0  0  0  0  0  0  0  0  0
    6.9570   14.4000   -5.2000 C   0  0  0  0  0  0  0  0  0  0  0  0
    1.1160   12.1830   -3.5860 C   0  0  1  0  0  0  0  0  0  0  0  0
   -0.1810   11.6640   -2.9100 C   0  0  0  0  0  0  0  0  0  0  0  0
   -0.4310   12.5620   -1.6720 C   0  0  0  0  0  0  0  0  0  0  0  0
    0.5280   13.7610   -1.8590 C   0  0  1  0  0  0  0  0  0  0  0  0
   -0.2090   14.7110   -2.8550 C   0  0  0  0  0  0  0  0  0  0  0  0
    0.9600   14.5100   -0.5570 C   0  0  2  0  0  0  0  0  0  0  0  0
   -0.1870   15.1780    0.2220 C   0  0  0  0  0  0  0  0  0  0  0  0
   -0.4780   16.5920   -0.1590 C   0  0  0  0  0  0  0  0  0  0  0  0
    0.3290   17.3890   -0.8830 C   0  0  0  0  0  0  0  0  0  0  0  0
    1.7230   16.9160   -1.3140 C   0  0  1  0  0  0  0  0  0  0  0  0
    2.7610   18.0320   -1.0280 C   0  0  0  0  0  0  0  0  0  0  0  0
    2.3760   19.3660   -1.6620 C   0  0  0  0  0  0  0  0  0  0  0  0
    1.0100   19.8320   -1.1640 C   0  0  2  0  0  0  0  0  0  0  0  0
    1.1090   20.1390    0.2300 O   0  0  0  0  0  0  0  0  0  0  0  0
   -0.1150   18.7840   -1.3900 C   0  0  0  0  0  0  0  0  0  0  0  0
   -0.4280   18.6740   -2.9020 C   0  0  0  0  0  0  0  0  0  0  0  0
   -1.4080   19.3180   -0.7170 C   0  0  0  0  0  0  0  0  0  0  0  0
    2.1790   15.5000   -0.7530 C   0  0  1  0  0  0  0  0  0  0  0  0
    2.8430   15.6720    0.6470 C   0  0  0  0  0  0  0  0  0  0  0  0
    3.2870   14.9040   -1.7000 C   0  0  0  0  0  0  0  0  0  0  0  0
    2.8000   14.0730   -2.9020 C   0  0  0  0  0  0  0  0  0  0  0  0
    1.7770   13.0210   -2.4630 C   0  0  2  0  0  0  0  0  0  0  0  0
    2.4950   12.0370   -1.4780 C   0  0  0  0  0  0  0  0  0  0  0  0
    2.1806   10.5038   -2.1269 H   0  0  0  0  0  0  0  0  0  0  0  0
    1.7803    9.1404   -3.2258 H   0  0  0  0  0  0  0  0  0  0  0  0
    3.4357    9.8377   -3.2258 H   0  0  0  0  0  0  0  0  0  0  0  0
    1.3391   10.5154   -4.9399 H   0  0  0  0  0  0  0  0  0  0  0  0
    3.2329   11.1658   -5.9319 H   0  0  0  0  0  0  0  0  0  0  0  0
    2.9885   12.7378   -5.0307 H   0  0  0  0  0  0  0  0  0  0  0  0
    4.3760   11.8250   -3.1791 H   0  0  0  0  0  0  0  0  0  0  0  0
    4.7374   10.3922   -4.2291 H   0  0  0  0  0  0  0  0  0  0  0  0
    5.1854   12.0008   -5.8709 H   0  0  0  0  0  0  0  0  0  0  0  0
    6.2356   13.4603   -2.1515 H   0  0  0  0  0  0  0  0  0  0  0  0
    6.0771   15.0821   -2.9075 H   0  0  0  0  0  0  0  0  0  0  0  0
    4.6817   13.9509   -2.9075 H   0  0  0  0  0  0  0  0  0  0  0  0
    7.5205   15.1329   -4.6039 H   0  0  0  0  0  0  0  0  0  0  0  0
    7.6524   13.8310   -5.8345 H   0  0  0  0  0  0  0  0  0  0  0  0
    6.2284   14.9259   -5.8345 H   0  0  0  0  0  0  0  0  0  0  0  0
    0.9567   12.8068   -4.4779 H   0  0  0  0  0  0  0  0  0  0  0  0
   -1.0276   11.7377   -3.6084 H   0  0  0  0  0  0  0  0  0  0  0  0
   -0.0785   10.6085   -2.6177 H   0  0  0  0  0  0  0  0  0  0  0  0
   -1.4768   12.9020   -1.6438 H   0  0  0  0  0  0  0  0  0  0  0  0
   -0.2520   12.0284   -0.7269 H   0  0  0  0  0  0  0  0  0  0  0  0
   -0.7876   15.4568   -2.2902 H   0  0  0  0  0  0  0  0  0  0  0  0
    0.5303   15.2233   -3.4882 H   0  0  0  0  0  0  0  0  0  0  0  0
   -0.8890   14.1222   -3.4882 H   0  0  0  0  0  0  0  0  0  0  0  0
    1.3160   13.6880    0.0814 H   0  0  0  0  0  0  0  0  0  0  0  0
   -1.0997   14.5867    0.0567 H   0  0  0  0  0  0  0  0  0  0  0  0
    0.1352   15.2063    1.2734 H   0  0  0  0  0  0  0  0  0  0  0  0
   -1.4333   17.0184    0.1810 H   0  0  0  0  0  0  0  0  0  0  0  0
    1.6603   16.7341   -2.3970 H   0  0  0  0  0  0  0  0  0  0  0  0
    2.8406   18.1689    0.0605 H   0  0  0  0  0  0  0  0  0  0  0  0
    3.7190   17.7175   -1.4677 H   0  0  0  0  0  0  0  0  0  0  0  0
    3.1318   20.1209   -1.3995 H   0  0  0  0  0  0  0  0  0  0  0  0
    2.3264   19.2352   -2.7531 H   0  0  0  0  0  0  0  0  0  0  0  0
    0.7311   20.7213   -1.7483 H   0  0  0  0  0  0  0  0  0  0  0  0
    0.2380   20.4570    0.5240 H   0  0  0  0  0  0  0  0  0  0  0  0
   -1.4578   18.3121   -3.0379 H   0  0  0  0  0  0  0  0  0  0  0  0
   -0.3221   19.6632   -3.3713 H   0  0  0  0  0  0  0  0  0  0  0  0
    0.2735   17.9685   -3.3713 H   0  0  0  0  0  0  0  0  0  0  0  0
   -1.2978   19.2725    0.3765 H   0  0  0  0  0  0  0  0  0  0  0  0
   -1.5783   20.3601   -1.0253 H   0  0  0  0  0  0  0  0  0  0  0  0
   -2.2640   18.6998   -1.0253 H   0  0  0  0  0  0  0  0  0  0  0  0
    2.0976   15.4789    1.4326 H   0  0  0  0  0  0  0  0  0  0  0  0
    3.6752   14.9598    0.7481 H   0  0  0  0  0  0  0  0  0  0  0  0
    3.2247   16.6987    0.7481 H   0  0  0  0  0  0  0  0  0  0  0  0
    3.8758   15.7455   -2.0939 H   0  0  0  0  0  0  0  0  0  0  0  0
    3.8526   14.1990   -1.0730 H   0  0  0  0  0  0  0  0  0  0  0  0
    2.3328   14.7441   -3.6378 H   0  0  0  0  0  0  0  0  0  0  0  0
    3.6647   13.5576   -3.3454 H   0  0  0  0  0  0  0  0  0  0  0  0
    2.2787   12.3335   -0.4410 H   0  0  0  0  0  0  0  0  0  0  0  0
    2.1297   11.0139   -1.6507 H   0  0  0  0  0  0  0  0  0  0  0  0
    3.5808   12.0727   -1.6507 H   0  0  0  0  0  0  0  0  0  0  0  0
  1  2  1  0
  2  3  1  0
  3  4  1  0
  4  5  1  0
  5  6  1  0
  6  7  1  0
  7  8  1  0
  7  9  1  0
  2 10  1  0
 10 11  1  0
 11 12  1  0
 12 13  1  0
 13 14  1  6
 13 15  1  0
 15 16  1  0
 16 17  1  0
 17 18  2  0
 18 19  1  0
 19 20  1  0
 20 21  1  0
 21 22  1  0
 22 23  1  0
 22 24  1  0
 24 25  1  0
 24 26  1  0
 19 27  1  0
 27 28  1  1
 27 29  1  0
 29 30  1  0
 30 31  1  0
 31 32  1  1
  7  5  1  0
 31 10  1  0
 31 13  1  0
 27 15  1  0
 24 18  1  0
  1 33  1  0
  1 34  1  0
  1 35  1  0
  2 36  1  6
  3 37  1  0
  3 38  1  0
  4 39  1  0
  4 40  1  0
  5 41  1  6
  8 42  1  0
  8 43  1  0
  8 44  1  0
  9 45  1  0
  9 46  1  0
  9 47  1  0
 10 48  1  6
 11 49  1  0
 11 50  1  0
 12 51  1  0
 12 52  1  0
 14 53  1  0
 14 54  1  0
 14 55  1  0
 15 56  1  1
 16 57  1  0
 16 58  1  0
 17 59  1  0
 19 60  1  6
 20 61  1  0
 20 62  1  0
 21 63  1  0
 21 64  1  0
 22 65  1  6
 23 66  1  0
 25 67  1  0
 25 68  1  0
 25 69  1  0
 26 70  1  0
 26 71  1  0
 26 72  1  0
 28 73  1  0
 28 74  1  0
 28 75  1  0
 29 76  1  0
 29 77  1  0
 30 78  1  0
 30 79  1  0
 32 80  1  0
 32 81  1  0
 32 82  1  0
M  END
>  <meeko>  (20) 
{"is_sidechain": [false], "intermolecular_energy": 2.731, "internal_energy": -0.839}

$$$$
