EPH_relaxed_0001_pdb2pqr_Repair_70_r2_0001_out
     RDKit          3D

 82 86  0  0  0  0  0  0  0  0999 V2000
   -1.7160    8.5770   -1.8700 C   0  0  0  0  0  0  0  0  0  0  0  0
   -2.0970    9.0970   -0.4820 C   0  0  2  0  0  0  0  0  0  0  0  0
   -3.5920    9.4620   -0.3890 C   0  0  0  0  0  0  0  0  0  0  0  0
   -4.5120    8.2500   -0.2180 C   0  0  0  0  0  0  0  0  0  0  0  0
   -5.2150    7.9030   -1.4950 C   0  0  2  0  0  0  0  0  0  0  0  0
   -6.3450    8.7310   -1.8000 O   0  0  0  0  0  0  0  0  0  0  0  0
   -6.6250    7.3440   -1.5490 C   0  0  0  0  0  0  0  0  0  0  0  0
   -7.4150    7.0990   -0.3020 C   0  0  0  0  0  0  0  0  0  0  0  0
   -7.0470    6.5840   -2.7670 C   0  0  0  0  0  0  0  0  0  0  0  0
   -1.2420   10.3080   -0.1270 C   0  0  1  0  0  0  0  0  0  0  0  0
   -0.2210   10.0090    1.0020 C   0  0  0  0  0  0  0  0  0  0  0  0
    1.0510   10.8370    0.6860 C   0  0  0  0  0  0  0  0  0  0  0  0
    0.6070   11.8280   -0.4150 C   0  0  1  0  0  0  0  0  0  0  0  0
   -0.1080   12.9850    0.3510 C   0  0  0  0  0  0  0  0  0  0  0  0
    1.7350   12.3680   -1.3540 C   0  0  2  0  0  0  0  0  0  0  0  0
    2.8310   13.1890   -0.6520 C   0  0  0  0  0  0  0  0  0  0  0  0
    2.5780   14.6580   -0.5770 C   0  0  0  0  0  0  0  0  0  0  0  0
    1.6610   15.3310   -1.2960 C   0  0  0  0  0  0  0  0  0  0  0  0
    0.8270   14.6220   -2.3710 C   0  0  1  0  0  0  0  0  0  0  0  0
    0.8110   15.4790   -3.6630 C   0  0  0  0  0  0  0  0  0  0  0  0
    0.3430   16.9100   -3.4110 C   0  0  0  0  0  0  0  0  0  0  0  0
    1.2330   17.6000   -2.3810 C   0  0  2  0  0  0  0  0  0  0  0  0
    2.5400   17.7690   -2.9380 O   0  0  0  0  0  0  0  0  0  0  0  0
    1.3330   16.8230   -1.0390 C   0  0  0  0  0  0  0  0  0  0  0  0
   -0.0200   16.9010   -0.2890 C   0  0  0  0  0  0  0  0  0  0  0  0
    2.3690   17.5520   -0.1410 C   0  0  0  0  0  0  0  0  0  0  0  0
    1.2030   13.1030   -2.6500 C   0  0  1  0  0  0  0  0  0  0  0  0
    2.3460   13.0240   -3.7080 C   0  0  0  0  0  0  0  0  0  0  0  0
   -0.0400   12.3740   -3.2840 C   0  0  0  0  0  0  0  0  0  0  0  0
   -1.0580   11.7580   -2.3050 C   0  0  0  0  0  0  0  0  0  0  0  0
   -0.3520   10.9020   -1.2480 C   0  0  2  0  0  0  0  0  0  0  0  0
    0.3580    9.7170   -1.9870 C   0  0  0  0  0  0  0  0  0  0  0  0
   -1.0688    7.6937   -1.7657 H   0  0  0  0  0  0  0  0  0  0  0  0
   -2.6272    8.3010   -2.4210 H   0  0  0  0  0  0  0  0  0  0  0  0
   -1.1782    9.3626   -2.4210 H   0  0  0  0  0  0  0  0  0  0  0  0
   -1.9096    8.2864    0.2376 H   0  0  0  0  0  0  0  0  0  0  0  0
   -3.7334   10.1298    0.4736 H   0  0  0  0  0  0  0  0  0  0  0  0
   -3.8656    9.9416   -1.3404 H   0  0  0  0  0  0  0  0  0  0  0  0
   -3.9094    7.3875    0.1029 H   0  0  0  0  0  0  0  0  0  0  0  0
   -5.2734    8.5011    0.5352 H   0  0  0  0  0  0  0  0  0  0  0  0
   -4.2714    7.5697   -1.9516 H   0  0  0  0  0  0  0  0  0  0  0  0
   -6.7831    7.2950    0.5768 H   0  0  0  0  0  0  0  0  0  0  0  0
   -8.2874    7.7688   -0.2831 H   0  0  0  0  0  0  0  0  0  0  0  0
   -7.7553    6.0531   -0.2831 H   0  0  0  0  0  0  0  0  0  0  0  0
   -7.5602    5.6598   -2.4630 H   0  0  0  0  0  0  0  0  0  0  0  0
   -7.7307    7.2028   -3.3667 H   0  0  0  0  0  0  0  0  0  0  0  0
   -6.1603    6.3308   -3.3667 H   0  0  0  0  0  0  0  0  0  0  0  0
   -2.0350   11.0211    0.1428 H   0  0  0  0  0  0  0  0  0  0  0  0
   -0.6352   10.3080    1.9762 H   0  0  0  0  0  0  0  0  0  0  0  0
    0.0095    8.9346    1.0515 H   0  0  0  0  0  0  0  0  0  0  0  0
    1.3944   11.3780    1.5801 H   0  0  0  0  0  0  0  0  0  0  0  0
    1.8915   10.2045    0.3641 H   0  0  0  0  0  0  0  0  0  0  0  0
   -0.0084   12.8238    1.4346 H   0  0  0  0  0  0  0  0  0  0  0  0
    0.3543   13.9454    0.0791 H   0  0  0  0  0  0  0  0  0  0  0  0
   -1.1737   13.0011    0.0791 H   0  0  0  0  0  0  0  0  0  0  0  0
    2.2247   11.4423   -1.6907 H   0  0  0  0  0  0  0  0  0  0  0  0
    2.9348   12.8092    0.3751 H   0  0  0  0  0  0  0  0  0  0  0  0
    3.7391   13.0674   -1.2607 H   0  0  0  0  0  0  0  0  0  0  0  0
    3.1931   15.2397    0.1254 H   0  0  0  0  0  0  0  0  0  0  0  0
   -0.1916   14.5436   -1.9633 H   0  0  0  0  0  0  0  0  0  0  0  0
    1.8290   15.5091   -4.0787 H   0  0  0  0  0  0  0  0  0  0  0  0
    0.1011   15.0141   -4.3630 H   0  0  0  0  0  0  0  0  0  0  0  0
    0.3814   17.4731   -4.3552 H   0  0  0  0  0  0  0  0  0  0  0  0
   -0.6859   16.8804   -3.0232 H   0  0  0  0  0  0  0  0  0  0  0  0
    0.7732   18.5716   -2.1473 H   0  0  0  0  0  0  0  0  0  0  0  0
    2.7610   16.9540   -3.4200 H   0  0  0  0  0  0  0  0  0  0  0  0
    0.1611   16.8906    0.7959 H   0  0  0  0  0  0  0  0  0  0  0  0
   -0.5393   17.8306   -0.5652 H   0  0  0  0  0  0  0  0  0  0  0  0
   -0.6426   16.0373   -0.5652 H   0  0  0  0  0  0  0  0  0  0  0  0
    2.1231   17.3790    0.9171 H   0  0  0  0  0  0  0  0  0  0  0  0
    3.3757   17.1622   -0.3520 H   0  0  0  0  0  0  0  0  0  0  0  0
    2.3420   18.6312   -0.3520 H   0  0  0  0  0  0  0  0  0  0  0  0
    3.3166   12.9569   -3.1948 H   0  0  0  0  0  0  0  0  0  0  0  0
    2.2019   12.1337   -4.3377 H   0  0  0  0  0  0  0  0  0  0  0  0
    2.3257   13.9257   -4.3377 H   0  0  0  0  0  0  0  0  0  0  0  0
   -0.5762   13.1082   -3.9033 H   0  0  0  0  0  0  0  0  0  0  0  0
    0.3785   11.5211   -3.8385 H   0  0  0  0  0  0  0  0  0  0  0  0
   -1.6100   12.5666   -1.8035 H   0  0  0  0  0  0  0  0  0  0  0  0
   -1.7477   11.1165   -2.8731 H   0  0  0  0  0  0  0  0  0  0  0  0
    0.7756    9.0200   -1.2455 H   0  0  0  0  0  0  0  0  0  0  0  0
   -0.3720    9.1879   -2.6172 H   0  0  0  0  0  0  0  0  0  0  0  0
    1.1689   10.1111   -2.6172 H   0  0  0  0  0  0  0  0  0  0  0  0
  1  2  1  0
  2  3  1  0
  3  4  1  0
  4  5  1  0
  5  6  1  0
  6  7  1  0
  7  8  1  0
  7  9  1  0
  2 10  1  0
 10 11  1  0
 11 12  1  0
 12 13  1  0
 13 14  1  1
 13 15  1  0
 15 16  1  0
 16 17  1  0
 17 18  2  0
 18 19  1  0
 19 20  1  0
 20 21  1  0
 21 22  1  0
 22 23  1  0
 22 24  1  0
 24 25  1  0
 24 26  1  0
 19 27  1  0
 27 28  1  6
 27 29  1  0
 29 30  1  0
 30 31  1  0
 31 32  1  6
  7  5  1  0
 31 10  1  0
 31 13  1  0
 27 15  1  0
 24 18  1  0
  1 33  1  0
  1 34  1  0
  1 35  1  0
  2 36  1  1
  3 37  1  0
  3 38  1  0
  4 39  1  0
  4 40  1  0
  5 41  1  6
  8 42  1  0
  8 43  1  0
  8 44  1  0
  9 45  1  0
  9 46  1  0
  9 47  1  0
 10 48  1  1
 11 49  1  0
 11 50  1  0
 12 51  1  0
 12 52  1  0
 14 53  1  0
 14 54  1  0
 14 55  1  0
 15 56  1  6
 16 57  1  0
 16 58  1  0
 17 59  1  0
 19 60  1  1
 20 61  1  0
 20 62  1  0
 21 63  1  0
 21 64  1  0
 22 65  1  1
 23 66  1  0
 25 67  1  0
 25 68  1  0
 25 69  1  0
 26 70  1  0
 26 71  1  0
 26 72  1  0
 28 73  1  0
 28 74  1  0
 28 75  1  0
 29 76  1  0
 29 77  1  0
 30 78  1  0
 30 79  1  0
 32 80  1  0
 32 81  1  0
 32 82  1  0
M  END
>  <meeko>  (1) 
{"is_sidechain": [false], "intermolecular_energy": 2.731, "internal_energy": -0.839}

$$$$
EPH_relaxed_0001_pdb2pqr_Repair_70_r2_0001_out
     RDKit          3D

 82 86  0  0  0  0  0  0  0  0999 V2000
    4.2450   17.4090   -0.6580 C   0  0  0  0  0  0  0  0  0  0  0  0
    2.8840   18.0030   -0.2870 C   0  0  2  0  0  0  0  0  0  0  0  0
    2.9270   18.7620    1.0550 C   0  0  0  0  0  0  0  0  0  0  0  0
    4.2540   18.6120    1.8040 C   0  0  0  0  0  0  0  0  0  0  0  0
    4.1910   19.2230    3.1710 C   0  0  2  0  0  0  0  0  0  0  0  0
    5.2100   20.1940    3.4400 O   0  0  0  0  0  0  0  0  0  0  0  0
    5.2470   18.9990    4.2370 C   0  0  0  0  0  0  0  0  0  0  0  0
    6.4420   18.1350    3.9820 C   0  0  0  0  0  0  0  0  0  0  0  0
    4.8750   19.2180    5.6700 C   0  0  0  0  0  0  0  0  0  0  0  0
    1.8340   16.9000   -0.2280 C   0  0  1  0  0  0  0  0  0  0  0  0
    0.3920   17.4350   -0.4390 C   0  0  0  0  0  0  0  0  0  0  0  0
   -0.3830   16.3380   -1.2130 C   0  0  0  0  0  0  0  0  0  0  0  0
    0.5240   15.0880   -1.1320 C   0  0  1  0  0  0  0  0  0  0  0  0
    0.2370   14.4750    0.2740 C   0  0  0  0  0  0  0  0  0  0  0  0
    0.3470   14.0310   -2.2700 C   0  0  2  0  0  0  0  0  0  0  0  0
   -1.0430   13.3740   -2.3400 C   0  0  0  0  0  0  0  0  0  0  0  0
   -1.1980   12.1240   -1.5390 C   0  0  0  0  0  0  0  0  0  0  0  0
   -0.1910   11.3950   -1.0220 C   0  0  0  0  0  0  0  0  0  0  0  0
    1.2710   11.7580   -1.3100 C   0  0  1  0  0  0  0  0  0  0  0  0
    2.0560   10.4780   -1.6990 C   0  0  0  0  0  0  0  0  0  0  0  0
    1.9230    9.3710   -0.6570 C   0  0  0  0  0  0  0  0  0  0  0  0
    0.4590    8.9980   -0.4420 C   0  0  2  0  0  0  0  0  0  0  0  0
   -0.0440    8.3940   -1.6380 O   0  0  0  0  0  0  0  0  0  0  0  0
   -0.4320   10.2110   -0.0540 C   0  0  0  0  0  0  0  0  0  0  0  0
   -0.0820   10.6770    1.3810 C   0  0  0  0  0  0  0  0  0  0  0  0
   -1.9060    9.7250   -0.0050 C   0  0  0  0  0  0  0  0  0  0  0  0
    1.5010   12.9500   -2.3360 C   0  0  1  0  0  0  0  0  0  0  0  0
    1.5140   12.4010   -3.7950 C   0  0  0  0  0  0  0  0  0  0  0  0
    2.9230   13.5770   -2.0850 C   0  0  0  0  0  0  0  0  0  0  0  0
    3.0120   14.7000   -1.0340 C   0  0  0  0  0  0  0  0  0  0  0  0
    1.9370   15.7640   -1.2760 C   0  0  2  0  0  0  0  0  0  0  0  0
    2.2130   16.4140   -2.6740 C   0  0  0  0  0  0  0  0  0  0  0  0
    4.8014   17.1662    0.2593 H   0  0  0  0  0  0  0  0  0  0  0  0
    4.0966   16.4938   -1.2500 H   0  0  0  0  0  0  0  0  0  0  0  0
    4.8151   18.1401   -1.2500 H   0  0  0  0  0  0  0  0  0  0  0  0
    2.6166   18.7296   -1.0684 H   0  0  0  0  0  0  0  0  0  0  0  0
    2.7597   19.8307    0.8552 H   0  0  0  0  0  0  0  0  0  0  0  0
    2.1452   18.3277    1.6954 H   0  0  0  0  0  0  0  0  0  0  0  0
    4.4889   17.5419    1.9023 H   0  0  0  0  0  0  0  0  0  0  0  0
    5.0328   19.1354    1.2300 H   0  0  0  0  0  0  0  0  0  0  0  0
    3.0950   19.1305    3.1875 H   0  0  0  0  0  0  0  0  0  0  0  0
    6.8780   17.8198    4.9414 H   0  0  0  0  0  0  0  0  0  0  0  0
    6.1370   17.2472    3.4086 H   0  0  0  0  0  0  0  0  0  0  0  0
    7.1894   18.7029    3.4086 H   0  0  0  0  0  0  0  0  0  0  0  0
    5.6396   18.7679    6.3202 H   0  0  0  0  0  0  0  0  0  0  0  0
    4.8116   20.2975    5.8715 H   0  0  0  0  0  0  0  0  0  0  0  0
    3.9003   18.7496    5.8715 H   0  0  0  0  0  0  0  0  0  0  0  0
    2.0389   16.5042    0.7777 H   0  0  0  0  0  0  0  0  0  0  0  0
   -0.0879   17.6239    0.5326 H   0  0  0  0  0  0  0  0  0  0  0  0
    0.4000   18.3822   -0.9982 H   0  0  0  0  0  0  0  0  0  0  0  0
   -1.3564   16.1428   -0.7392 H   0  0  0  0  0  0  0  0  0  0  0  0
   -0.5960   16.6320   -2.2514 H   0  0  0  0  0  0  0  0  0  0  0  0
    0.5658   15.1772    1.0542 H   0  0  0  0  0  0  0  0  0  0  0  0
   -0.8420   14.2886    0.3795 H   0  0  0  0  0  0  0  0  0  0  0  0
    0.7849   13.5270    0.3795 H   0  0  0  0  0  0  0  0  0  0  0  0
    0.4331   14.6457   -3.1781 H   0  0  0  0  0  0  0  0  0  0  0  0
   -1.7825   14.1035   -1.9782 H   0  0  0  0  0  0  0  0  0  0  0  0
   -1.1895   13.0826   -3.3905 H   0  0  0  0  0  0  0  0  0  0  0  0
   -2.2225   11.7680   -1.3554 H   0  0  0  0  0  0  0  0  0  0  0  0
    1.6713   12.1709   -0.3723 H   0  0  0  0  0  0  0  0  0  0  0  0
    1.6704   10.1062   -2.6598 H   0  0  0  0  0  0  0  0  0  0  0  0
    3.1205   10.7467   -1.7669 H   0  0  0  0  0  0  0  0  0  0  0  0
    2.4737    8.4836   -1.0022 H   0  0  0  0  0  0  0  0  0  0  0  0
    2.3366    9.7337    0.2956 H   0  0  0  0  0  0  0  0  0  0  0  0
    0.4187    8.2963    0.4042 H   0  0  0  0  0  0  0  0  0  0  0  0
   -0.9070    7.9990   -1.4270 H   0  0  0  0  0  0  0  0  0  0  0  0
   -0.5762   10.0190    2.1110 H   0  0  0  0  0  0  0  0  0  0  0  0
    1.0075   10.6321    1.5256 H   0  0  0  0  0  0  0  0  0  0  0  0
   -0.4288   11.7109    1.5256 H   0  0  0  0  0  0  0  0  0  0  0  0
   -2.2230    9.6205    1.0431 H   0  0  0  0  0  0  0  0  0  0  0  0
   -2.5508   10.4581   -0.5117 H   0  0  0  0  0  0  0  0  0  0  0  0
   -1.9884    8.7521   -0.5117 H   0  0  0  0  0  0  0  0  0  0  0  0
    1.5400   11.3015   -3.7728 H   0  0  0  0  0  0  0  0  0  0  0  0
    0.6077   12.7358   -4.3208 H   0  0  0  0  0  0  0  0  0  0  0  0
    2.4035   12.7783   -4.3208 H   0  0  0  0  0  0  0  0  0  0  0  0
    3.5921   12.7657   -1.7624 H   0  0  0  0  0  0  0  0  0  0  0  0
    3.2000   14.0521   -3.0376 H   0  0  0  0  0  0  0  0  0  0  0  0
    2.8711   14.2675   -0.0325 H   0  0  0  0  0  0  0  0  0  0  0  0
    4.0005   15.1761   -1.1123 H   0  0  0  0  0  0  0  0  0  0  0  0
    2.6394   17.4182   -2.5337 H   0  0  0  0  0  0  0  0  0  0  0  0
    2.9234   15.7891   -3.2351 H   0  0  0  0  0  0  0  0  0  0  0  0
    1.2700   16.4912   -3.2351 H   0  0  0  0  0  0  0  0  0  0  0  0
  1  2  1  0
  2  3  1  0
  3  4  1  0
  4  5  1  0
  5  6  1  0
  6  7  1  0
  7  8  1  0
  7  9  1  0
  2 10  1  0
 10 11  1  0
 11 12  1  0
 12 13  1  0
 13 14  1  1
 13 15  1  0
 15 16  1  0
 16 17  1  0
 17 18  2  0
 18 19  1  0
 19 20  1  0
 20 21  1  0
 21 22  1  0
 22 23  1  0
 22 24  1  0
 24 25  1  0
 24 26  1  0
 19 27  1  0
 27 28  1  6
 27 29  1  0
 29 30  1  0
 30 31  1  0
 31 32  1  6
  7  5  1  0
 31 10  1  0
 31 13  1  0
 27 15  1  0
 24 18  1  0
  1 33  1  0
  1 34  1  0
  1 35  1  0
  2 36  1  6
  3 37  1  0
  3 38  1  0
  4 39  1  0
  4 40  1  0
  5 41  1  1
  8 42  1  0
  8 43  1  0
  8 44  1  0
  9 45  1  0
  9 46  1  0
  9 47  1  0
 10 48  1  1
 11 49  1  0
 11 50  1  0
 12 51  1  0
 12 52  1  0
 14 53  1  0
 14 54  1  0
 14 55  1  0
 15 56  1  6
 16 57  1  0
 16 58  1  0
 17 59  1  0
 19 60  1  1
 20 61  1  0
 20 62  1  0
 21 63  1  0
 21 64  1  0
 22 65  1  1
 23 66  1  0
 25 67  1  0
 25 68  1  0
 25 69  1  0
 26 70  1  0
 26 71  1  0
 26 72  1  0
 28 73  1  0
 28 74  1  0
 28 75  1  0
 29 76  1  0
 29 77  1  0
 30 78  1  0
 30 79  1  0
 32 80  1  0
 32 81  1  0
 32 82  1  0
M  END
>  <meeko>  (2) 
{"is_sidechain": [false], "intermolecular_energy": 2.731, "internal_energy": -0.839}

$$$$
EPH_relaxed_0001_pdb2pqr_Repair_70_r2_0001_out
     RDKit          3D

 82 86  0  0  0  0  0  0  0  0999 V2000
    2.3380   18.0500   -2.7670 C   0  0  0  0  0  0  0  0  0  0  0  0
    1.1130   17.6320   -1.9490 C   0  0  2  0  0  0  0  0  0  0  0  0
    1.3920   17.6580   -0.4320 C   0  0  0  0  0  0  0  0  0  0  0  0
    1.0630   18.9980    0.2310 C   0  0  0  0  0  0  0  0  0  0  0  0
   -0.3920   19.1040    0.5740 C   0  0  2  0  0  0  0  0  0  0  0  0
   -1.2530   18.2610   -0.2020 O   0  0  0  0  0  0  0  0  0  0  0  0
   -1.4340   19.6770   -0.3680 C   0  0  0  0  0  0  0  0  0  0  0  0
   -1.0630   20.1820   -1.7270 C   0  0  0  0  0  0  0  0  0  0  0  0
   -2.7150   20.1930    0.2100 C   0  0  0  0  0  0  0  0  0  0  0  0
    0.6560   16.2410   -2.3710 C   0  0  1  0  0  0  0  0  0  0  0  0
    0.7520   16.0190   -3.9040 C   0  0  0  0  0  0  0  0  0  0  0  0
    1.1430   14.5340   -4.1180 C   0  0  0  0  0  0  0  0  0  0  0  0
    0.9350   13.8730   -2.7350 C   0  0  1  0  0  0  0  0  0  0  0  0
   -0.5980   13.5890   -2.6530 C   0  0  0  0  0  0  0  0  0  0  0  0
    1.7760   12.5860   -2.4510 C   0  0  2  0  0  0  0  0  0  0  0  0
    1.4870   11.3980   -3.3850 C   0  0  0  0  0  0  0  0  0  0  0  0
    0.4210   10.4640   -2.9170 C   0  0  0  0  0  0  0  0  0  0  0  0
   -0.0790   10.4100   -1.6690 C   0  0  0  0  0  0  0  0  0  0  0  0
    0.5030   11.2820   -0.5490 C   0  0  1  0  0  0  0  0  0  0  0  0
    0.7220   10.4180    0.7200 C   0  0  0  0  0  0  0  0  0  0  0  0
   -0.5410    9.6800    1.1520 C   0  0  0  0  0  0  0  0  0  0  0  0
   -1.0560    8.7790    0.0320 C   0  0  2  0  0  0  0  0  0  0  0  0
   -0.1110    7.7260   -0.1830 O   0  0  0  0  0  0  0  0  0  0  0  0
   -1.3050    9.5390   -1.3000 C   0  0  0  0  0  0  0  0  0  0  0  0
   -2.5340   10.4690   -1.1480 C   0  0  0  0  0  0  0  0  0  0  0  0
   -1.6850    8.4920   -2.3830 C   0  0  0  0  0  0  0  0  0  0  0  0
    1.7850   12.1400   -0.9330 C   0  0  1  0  0  0  0  0  0  0  0  0
    3.0750   11.2890   -0.7260 C   0  0  0  0  0  0  0  0  0  0  0  0
    1.8980   13.3640    0.0500 C   0  0  0  0  0  0  0  0  0  0  0  0
    1.1400   14.6460   -0.3460 C   0  0  0  0  0  0  0  0  0  0  0  0
    1.4370   15.0310   -1.7980 C   0  0  2  0  0  0  0  0  0  0  0  0
    2.9690   15.3440   -1.9070 C   0  0  0  0  0  0  0  0  0  0  0  0
    3.1557   18.3290   -2.0862 H   0  0  0  0  0  0  0  0  0  0  0  0
    2.6592   17.2106   -3.4012 H   0  0  0  0  0  0  0  0  0  0  0  0
    2.0791   18.9107   -3.4012 H   0  0  0  0  0  0  0  0  0  0  0  0
    0.3152   18.3619   -2.1507 H   0  0  0  0  0  0  0  0  0  0  0  0
    0.7847   16.8754    0.0463 H   0  0  0  0  0  0  0  0  0  0  0  0
    2.4712   17.4905   -0.3006 H   0  0  0  0  0  0  0  0  0  0  0  0
    1.6547   19.0942    1.1533 H   0  0  0  0  0  0  0  0  0  0  0  0
    1.3073   19.8014   -0.4795 H   0  0  0  0  0  0  0  0  0  0  0  0
   -0.1524   19.3167    1.6263 H   0  0  0  0  0  0  0  0  0  0  0  0
   -0.4145   21.0647   -1.6257 H   0  0  0  0  0  0  0  0  0  0  0  0
   -0.5271   19.3945   -2.2771 H   0  0  0  0  0  0  0  0  0  0  0  0
   -1.9747   20.4580   -2.2771 H   0  0  0  0  0  0  0  0  0  0  0  0
   -2.6573   20.1698    1.3082 H   0  0  0  0  0  0  0  0  0  0  0  0
   -2.8789   21.2273   -0.1268 H   0  0  0  0  0  0  0  0  0  0  0  0
   -3.5500   19.5611   -0.1268 H   0  0  0  0  0  0  0  0  0  0  0  0
   -0.3673   16.2538   -1.9677 H   0  0  0  0  0  0  0  0  0  0  0  0
   -0.2184   16.2272   -4.3783 H   0  0  0  0  0  0  0  0  0  0  0  0
    1.4965   16.6920   -4.3544 H   0  0  0  0  0  0  0  0  0  0  0  0
    0.4943   14.0665   -4.8734 H   0  0  0  0  0  0  0  0  0  0  0  0
    2.1747   14.4225   -4.4829 H   0  0  0  0  0  0  0  0  0  0  0  0
   -0.9045   13.5322   -1.5981 H   0  0  0  0  0  0  0  0  0  0  0  0
   -1.1484   14.4005   -3.1516 H   0  0  0  0  0  0  0  0  0  0  0  0
   -0.8212   12.6342   -3.1516 H   0  0  0  0  0  0  0  0  0  0  0  0
    2.7978   12.9136   -2.6933 H   0  0  0  0  0  0  0  0  0  0  0  0
    1.1815   11.8003   -4.3621 H   0  0  0  0  0  0  0  0  0  0  0  0
    2.4143   10.8075   -3.4222 H   0  0  0  0  0  0  0  0  0  0  0  0
    0.0091    9.7600   -3.6551 H   0  0  0  0  0  0  0  0  0  0  0  0
   -0.2497   12.0580   -0.3459 H   0  0  0  0  0  0  0  0  0  0  0  0
    1.5085    9.6779    0.5109 H   0  0  0  0  0  0  0  0  0  0  0  0
    1.0090   11.0946    1.5384 H   0  0  0  0  0  0  0  0  0  0  0  0
   -0.3139    9.0636    2.0343 H   0  0  0  0  0  0  0  0  0  0  0  0
   -1.3171   10.4220    1.3909 H   0  0  0  0  0  0  0  0  0  0  0  0
   -2.0300    8.3795    0.3508 H   0  0  0  0  0  0  0  0  0  0  0  0
   -0.5860    6.8820   -0.0960 H   0  0  0  0  0  0  0  0  0  0  0  0
   -2.7438   10.6278   -0.0799 H   0  0  0  0  0  0  0  0  0  0  0  0
   -2.3236   11.4361   -1.6281 H   0  0  0  0  0  0  0  0  0  0  0  0
   -3.4075   10.0037   -1.6281 H   0  0  0  0  0  0  0  0  0  0  0  0
   -2.0213    7.5653   -1.8951 H   0  0  0  0  0  0  0  0  0  0  0  0
   -2.4956    8.8911   -3.0104 H   0  0  0  0  0  0  0  0  0  0  0  0
   -0.8071    8.2783   -3.0104 H   0  0  0  0  0  0  0  0  0  0  0  0
    3.2634   11.1647    0.3506 H   0  0  0  0  0  0  0  0  0  0  0  0
    2.9412   10.3013   -1.1913 H   0  0  0  0  0  0  0  0  0  0  0  0
    3.9304   11.8007   -1.1913 H   0  0  0  0  0  0  0  0  0  0  0  0
    1.5157   13.0405    1.0294 H   0  0  0  0  0  0  0  0  0  0  0  0
    2.9617   13.6440    0.0397 H   0  0  0  0  0  0  0  0  0  0  0  0
    0.0593   14.4747   -0.2328 H   0  0  0  0  0  0  0  0  0  0  0  0
    1.4702   15.4656    0.3091 H   0  0  0  0  0  0  0  0  0  0  0  0
    3.3980   15.4317   -0.8979 H   0  0  0  0  0  0  0  0  0  0  0  0
    3.4718   14.5300   -2.4498 H   0  0  0  0  0  0  0  0  0  0  0  0
    3.1123   16.2900   -2.4498 H   0  0  0  0  0  0  0  0  0  0  0  0
  1  2  1  0
  2  3  1  0
  3  4  1  0
  4  5  1  0
  5  6  1  0
  6  7  1  0
  7  8  1  0
  7  9  1  0
  2 10  1  0
 10 11  1  0
 11 12  1  0
 12 13  1  0
 13 14  1  1
 13 15  1  0
 15 16  1  0
 16 17  1  0
 17 18  2  0
 18 19  1  0
 19 20  1  0
 20 21  1  0
 21 22  1  0
 22 23  1  0
 22 24  1  0
 24 25  1  0
 24 26  1  0
 19 27  1  0
 27 28  1  6
 27 29  1  0
 29 30  1  0
 30 31  1  0
 31 32  1  1
  7  5  1  0
 31 10  1  0
 31 13  1  0
 27 15  1  0
 24 18  1  0
  1 33  1  0
  1 34  1  0
  1 35  1  0
  2 36  1  1
  3 37  1  0
  3 38  1  0
  4 39  1  0
  4 40  1  0
  5 41  1  1
  8 42  1  0
  8 43  1  0
  8 44  1  0
  9 45  1  0
  9 46  1  0
  9 47  1  0
 10 48  1  1
 11 49  1  0
 11 50  1  0
 12 51  1  0
 12 52  1  0
 14 53  1  0
 14 54  1  0
 14 55  1  0
 15 56  1  6
 16 57  1  0
 16 58  1  0
 17 59  1  0
 19 60  1  1
 20 61  1  0
 20 62  1  0
 21 63  1  0
 21 64  1  0
 22 65  1  1
 23 66  1  0
 25 67  1  0
 25 68  1  0
 25 69  1  0
 26 70  1  0
 26 71  1  0
 26 72  1  0
 28 73  1  0
 28 74  1  0
 28 75  1  0
 29 76  1  0
 29 77  1  0
 30 78  1  0
 30 79  1  0
 32 80  1  0
 32 81  1  0
 32 82  1  0
M  END
>  <meeko>  (3) 
{"is_sidechain": [false], "intermolecular_energy": 2.731, "internal_energy": -0.839}

$$$$
EPH_relaxed_0001_pdb2pqr_Repair_70_r2_0001_out
     RDKit          3D

 82 86  0  0  0  0  0  0  0  0999 V2000
    0.4020   18.3940   -0.0300 C   0  0  0  0  0  0  0  0  0  0  0  0
    1.4930   17.3450   -0.2560 C   0  0  2  0  0  0  0  0  0  0  0  0
    2.6980   17.9170   -1.0300 C   0  0  0  0  0  0  0  0  0  0  0  0
    3.9330   18.1550   -0.1570 C   0  0  0  0  0  0  0  0  0  0  0  0
    3.5600   18.6260    1.2160 C   0  0  2  0  0  0  0  0  0  0  0  0
    3.8110   20.0160    1.4610 O   0  0  0  0  0  0  0  0  0  0  0  0
    4.5730   19.0860    2.2470 C   0  0  0  0  0  0  0  0  0  0  0  0
    6.0400   19.0960    1.9490 C   0  0  0  0  0  0  0  0  0  0  0  0
    4.1850   19.0590    3.6930 C   0  0  0  0  0  0  0  0  0  0  0  0
    0.9160   16.1470   -1.0020 C   0  0  1  0  0  0  0  0  0  0  0  0
    0.7860   16.4000   -2.5280 C   0  0  0  0  0  0  0  0  0  0  0  0
    1.0720   15.0490   -3.2310 C   0  0  0  0  0  0  0  0  0  0  0  0
    1.0290   14.0010   -2.0950 C   0  0  1  0  0  0  0  0  0  0  0  0
   -0.4880   13.7090   -1.8750 C   0  0  0  0  0  0  0  0  0  0  0  0
    1.8410   12.6860   -2.3360 C   0  0  2  0  0  0  0  0  0  0  0  0
    1.3680   11.8370   -3.5290 C   0  0  0  0  0  0  0  0  0  0  0  0
    0.3350   10.8080   -3.2100 C   0  0  0  0  0  0  0  0  0  0  0  0
    0.0140   10.3790   -1.9750 C   0  0  0  0  0  0  0  0  0  0  0  0
    0.7870   10.8710   -0.7440 C   0  0  1  0  0  0  0  0  0  0  0  0
    1.1420    9.6620    0.1610 C   0  0  0  0  0  0  0  0  0  0  0  0
   -0.0810    8.8310    0.5350 C   0  0  0  0  0  0  0  0  0  0  0  0
   -0.7900    8.3120   -0.7140 C   0  0  2  0  0  0  0  0  0  0  0  0
    0.0650    7.3720   -1.3720 O   0  0  0  0  0  0  0  0  0  0  0  0
   -1.1880    9.4400   -1.7060 C   0  0  0  0  0  0  0  0  0  0  0  0
   -2.3380   10.2840   -1.1020 C   0  0  0  0  0  0  0  0  0  0  0  0
   -1.7650    8.7710   -2.9830 C   0  0  0  0  0  0  0  0  0  0  0  0
    2.0410   11.8010   -1.0400 C   0  0  1  0  0  0  0  0  0  0  0  0
    3.3070   10.9250   -1.2910 C   0  0  0  0  0  0  0  0  0  0  0  0
    2.3490   12.6700    0.2360 C   0  0  0  0  0  0  0  0  0  0  0  0
    1.6050   14.0140    0.3580 C   0  0  0  0  0  0  0  0  0  0  0  0
    1.7120   14.8200   -0.9400 C   0  0  2  0  0  0  0  0  0  0  0  0
    3.2260   15.1470   -1.1750 C   0  0  0  0  0  0  0  0  0  0  0  0
    0.2510   18.5392    1.0499 H   0  0  0  0  0  0  0  0  0  0  0  0
    0.7079   19.3459   -0.4887 H   0  0  0  0  0  0  0  0  0  0  0  0
   -0.5371   18.0510   -0.4887 H   0  0  0  0  0  0  0  0  0  0  0  0
    1.8564   17.0278    0.7326 H   0  0  0  0  0  0  0  0  0  0  0  0
    2.9673   17.2080   -1.8268 H   0  0  0  0  0  0  0  0  0  0  0  0
    2.3905   18.8961   -1.4259 H   0  0  0  0  0  0  0  0  0  0  0  0
    4.4949   17.2133   -0.0702 H   0  0  0  0  0  0  0  0  0  0  0  0
    4.5435   18.9364   -0.6331 H   0  0  0  0  0  0  0  0  0  0  0  0
    2.7342   17.9010    1.2655 H   0  0  0  0  0  0  0  0  0  0  0  0
    6.6058   19.0999    2.8923 H   0  0  0  0  0  0  0  0  0  0  0  0
    6.3022   18.1996    1.3678 H   0  0  0  0  0  0  0  0  0  0  0  0
    6.2900   19.9959    1.3678 H   0  0  0  0  0  0  0  0  0  0  0  0
    5.0891   19.1219    4.3165 H   0  0  0  0  0  0  0  0  0  0  0  0
    3.5281   19.9136    3.9124 H   0  0  0  0  0  0  0  0  0  0  0  0
    3.6528   18.1216    3.9124 H   0  0  0  0  0  0  0  0  0  0  0  0
   -0.0386   16.0386   -0.4664 H   0  0  0  0  0  0  0  0  0  0  0  0
   -0.2302   16.7451   -2.7696 H   0  0  0  0  0  0  0  0  0  0  0  0
    1.4911   17.1757   -2.8613 H   0  0  0  0  0  0  0  0  0  0  0  0
    0.3023   14.8341   -3.9869 H   0  0  0  0  0  0  0  0  0  0  0  0
    2.0360   15.0504   -3.7608 H   0  0  0  0  0  0  0  0  0  0  0  0
   -0.7009   13.6680   -0.7966 H   0  0  0  0  0  0  0  0  0  0  0  0
   -1.0860   14.5085   -2.3367 H   0  0  0  0  0  0  0  0  0  0  0  0
   -0.7465   12.7446   -2.3367 H   0  0  0  0  0  0  0  0  0  0  0  0
    2.8332   13.0693   -2.6166 H   0  0  0  0  0  0  0  0  0  0  0  0
    0.9481   12.5171   -4.2848 H   0  0  0  0  0  0  0  0  0  0  0  0
    2.2520   11.2827   -3.8773 H   0  0  0  0  0  0  0  0  0  0  0  0
   -0.2100   10.3626   -4.0553 H   0  0  0  0  0  0  0  0  0  0  0  0
    0.1077   11.5508   -0.2089 H   0  0  0  0  0  0  0  0  0  0  0  0
    1.8551    9.0182   -0.3747 H   0  0  0  0  0  0  0  0  0  0  0  0
    1.5735   10.0579    1.0921 H   0  0  0  0  0  0  0  0  0  0  0  0
    0.2385    7.9762    1.1491 H   0  0  0  0  0  0  0  0  0  0  0  0
   -0.7801    9.4678    1.0969 H   0  0  0  0  0  0  0  0  0  0  0  0
   -1.7269    7.8366   -0.3880 H   0  0  0  0  0  0  0  0  0  0  0  0
   -0.4690    6.5880   -1.5850 H   0  0  0  0  0  0  0  0  0  0  0  0
   -2.2842   10.2445   -0.0040 H   0  0  0  0  0  0  0  0  0  0  0  0
   -2.2418   11.3275   -1.4365 H   0  0  0  0  0  0  0  0  0  0  0  0
   -3.3046    9.8793   -1.4365 H   0  0  0  0  0  0  0  0  0  0  0  0
   -2.4583    7.9672   -2.6945 H   0  0  0  0  0  0  0  0  0  0  0  0
   -2.3029    9.5225   -3.5796 H   0  0  0  0  0  0  0  0  0  0  0  0
   -0.9426    8.3494   -3.5796 H   0  0  0  0  0  0  0  0  0  0  0  0
    3.7418   10.6241   -0.3264 H   0  0  0  0  0  0  0  0  0  0  0  0
    3.0249   10.0280   -1.8618 H   0  0  0  0  0  0  0  0  0  0  0  0
    4.0470   11.5051   -1.8618 H   0  0  0  0  0  0  0  0  0  0  0  0
    2.0928   12.0665    1.1193 H   0  0  0  0  0  0  0  0  0  0  0  0
    3.4129   12.9367    0.1524 H   0  0  0  0  0  0  0  0  0  0  0  0
    0.5442   13.8196    0.5744 H   0  0  0  0  0  0  0  0  0  0  0  0
    2.0636   14.5961    1.1710 H   0  0  0  0  0  0  0  0  0  0  0  0
    3.7324   15.2564   -0.2046 H   0  0  0  0  0  0  0  0  0  0  0  0
    3.6939   14.3292   -1.7427 H   0  0  0  0  0  0  0  0  0  0  0  0
    3.3147   16.0850   -1.7427 H   0  0  0  0  0  0  0  0  0  0  0  0
  1  2  1  0
  2  3  1  0
  3  4  1  0
  4  5  1  0
  5  6  1  0
  6  7  1  0
  7  8  1  0
  7  9  1  0
  2 10  1  0
 10 11  1  0
 11 12  1  0
 12 13  1  0
 13 14  1  1
 13 15  1  0
 15 16  1  0
 16 17  1  0
 17 18  2  0
 18 19  1  0
 19 20  1  0
 20 21  1  0
 21 22  1  0
 22 23  1  0
 22 24  1  0
 24 25  1  0
 24 26  1  0
 19 27  1  0
 27 28  1  6
 27 29  1  0
 29 30  1  0
 30 31  1  0
 31 32  1  6
  7  5  1  0
 31 10  1  0
 31 13  1  0
 27 15  1  0
 24 18  1  0
  1 33  1  0
  1 34  1  0
  1 35  1  0
  2 36  1  1
  3 37  1  0
  3 38  1  0
  4 39  1  0
  4 40  1  0
  5 41  1  1
  8 42  1  0
  8 43  1  0
  8 44  1  0
  9 45  1  0
  9 46  1  0
  9 47  1  0
 10 48  1  1
 11 49  1  0
 11 50  1  0
 12 51  1  0
 12 52  1  0
 14 53  1  0
 14 54  1  0
 14 55  1  0
 15 56  1  6
 16 57  1  0
 16 58  1  0
 17 59  1  0
 19 60  1  1
 20 61  1  0
 20 62  1  0
 21 63  1  0
 21 64  1  0
 22 65  1  1
 23 66  1  0
 25 67  1  0
 25 68  1  0
 25 69  1  0
 26 70  1  0
 26 71  1  0
 26 72  1  0
 28 73  1  0
 28 74  1  0
 28 75  1  0
 29 76  1  0
 29 77  1  0
 30 78  1  0
 30 79  1  0
 32 80  1  0
 32 81  1  0
 32 82  1  0
M  END
>  <meeko>  (4) 
{"is_sidechain": [false], "intermolecular_energy": 2.731, "internal_energy": -0.839}

$$$$
EPH_relaxed_0001_pdb2pqr_Repair_70_r2_0001_out
     RDKit          3D

 82 86  0  0  0  0  0  0  0  0999 V2000
   -4.5340    6.1190   -2.6240 C   0  0  0  0  0  0  0  0  0  0  0  0
   -5.0970    7.4850   -2.2240 C   0  0  2  0  0  0  0  0  0  0  0  0
   -4.9070    7.7740   -0.7210 C   0  0  0  0  0  0  0  0  0  0  0  0
   -3.9180    8.9070   -0.4330 C   0  0  0  0  0  0  0  0  0  0  0  0
   -2.5400    8.5760   -0.9200 C   0  0  2  0  0  0  0  0  0  0  0  0
   -1.4850    8.9180   -0.0110 O   0  0  0  0  0  0  0  0  0  0  0  0
   -1.4990    9.6260   -1.2610 C   0  0  0  0  0  0  0  0  0  0  0  0
   -1.7920   11.0880   -1.1300 C   0  0  0  0  0  0  0  0  0  0  0  0
   -0.3780    9.2500   -2.1790 C   0  0  0  0  0  0  0  0  0  0  0  0
   -6.5760    7.5640   -2.5860 C   0  0  1  0  0  0  0  0  0  0  0  0
   -6.9160    6.7760   -3.8800 C   0  0  0  0  0  0  0  0  0  0  0  0
   -8.3350    6.1830   -3.6810 C   0  0  0  0  0  0  0  0  0  0  0  0
   -8.8930    6.9130   -2.4380 C   0  0  1  0  0  0  0  0  0  0  0  0
   -9.4060    8.2860   -2.9760 C   0  0  0  0  0  0  0  0  0  0  0  0
  -10.0010    6.1590   -1.6320 C   0  0  2  0  0  0  0  0  0  0  0  0
  -11.2990    5.8820   -2.4100 C   0  0  0  0  0  0  0  0  0  0  0  0
  -12.3430    6.9440   -2.3080 C   0  0  0  0  0  0  0  0  0  0  0  0
  -12.3620    7.9370   -1.3990 C   0  0  0  0  0  0  0  0  0  0  0  0
  -11.3120    8.0040   -0.2840 C   0  0  1  0  0  0  0  0  0  0  0  0
  -12.0130    8.2830    1.0720 C   0  0  0  0  0  0  0  0  0  0  0  0
  -12.8980    9.5250    1.0280 C   0  0  0  0  0  0  0  0  0  0  0  0
  -13.9660    9.3950   -0.0550 C   0  0  2  0  0  0  0  0  0  0  0  0
  -14.8720    8.3510    0.3140 O   0  0  0  0  0  0  0  0  0  0  0  0
  -13.3780    9.1040   -1.4640 C   0  0  0  0  0  0  0  0  0  0  0  0
  -12.6430   10.3600   -1.9910 C   0  0  0  0  0  0  0  0  0  0  0  0
  -14.5650    8.8560   -2.4340 C   0  0  0  0  0  0  0  0  0  0  0  0
  -10.3020    6.7790   -0.2080 C   0  0  1  0  0  0  0  0  0  0  0  0
  -10.9170    5.6350    0.6550 C   0  0  0  0  0  0  0  0  0  0  0  0
   -8.9910    7.2390    0.5340 C   0  0  0  0  0  0  0  0  0  0  0  0
   -7.8850    7.8680   -0.3350 C   0  0  0  0  0  0  0  0  0  0  0  0
   -7.5910    6.9990   -1.5610 C   0  0  2  0  0  0  0  0  0  0  0  0
   -7.0520    5.6190   -1.0520 C   0  0  0  0  0  0  0  0  0  0  0  0
   -4.2959    5.5412   -1.7188 H   0  0  0  0  0  0  0  0  0  0  0  0
   -5.2812    5.5748   -3.2203 H   0  0  0  0  0  0  0  0  0  0  0  0
   -3.6204    6.2593   -3.2203 H   0  0  0  0  0  0  0  0  0  0  0  0
   -4.5361    8.2499   -2.7811 H   0  0  0  0  0  0  0  0  0  0  0  0
   -5.8830    8.0478   -0.2938 H   0  0  0  0  0  0  0  0  0  0  0  0
   -4.4920    6.8616   -0.2678 H   0  0  0  0  0  0  0  0  0  0  0  0
   -4.2650    9.8203   -0.9383 H   0  0  0  0  0  0  0  0  0  0  0  0
   -3.8712    9.0531    0.6562 H   0  0  0  0  0  0  0  0  0  0  0  0
   -2.9197    7.7055   -1.4751 H   0  0  0  0  0  0  0  0  0  0  0  0
   -1.8459   11.3571   -0.0648 H   0  0  0  0  0  0  0  0  0  0  0  0
   -0.9921   11.6671   -1.6145 H   0  0  0  0  0  0  0  0  0  0  0  0
   -2.7533   11.3142   -1.6145 H   0  0  0  0  0  0  0  0  0  0  0  0
    0.4996    8.9556   -1.5847 H   0  0  0  0  0  0  0  0  0  0  0  0
   -0.6905    8.4075   -2.8135 H   0  0  0  0  0  0  0  0  0  0  0  0
   -0.1193   10.1105   -2.8135 H   0  0  0  0  0  0  0  0  0  0  0  0
   -6.6893    8.6554   -2.6636 H   0  0  0  0  0  0  0  0  0  0  0  0
   -6.9056    7.4509   -4.7486 H   0  0  0  0  0  0  0  0  0  0  0  0
   -6.1777    5.9818   -4.0650 H   0  0  0  0  0  0  0  0  0  0  0  0
   -8.9646    6.3790   -4.5614 H   0  0  0  0  0  0  0  0  0  0  0  0
   -8.3157    5.0911   -3.5493 H   0  0  0  0  0  0  0  0  0  0  0  0
   -9.6515    8.9432   -2.1288 H   0  0  0  0  0  0  0  0  0  0  0  0
   -8.6226    8.7554   -3.5891 H   0  0  0  0  0  0  0  0  0  0  0  0
  -10.3053    8.1267   -3.5891 H   0  0  0  0  0  0  0  0  0  0  0  0
   -9.5396    5.1753   -1.4605 H   0  0  0  0  0  0  0  0  0  0  0  0
  -11.0394    5.7616   -3.4721 H   0  0  0  0  0  0  0  0  0  0  0  0
  -11.7376    4.9800   -1.9584 H   0  0  0  0  0  0  0  0  0  0  0  0
  -13.1662    6.9127   -3.0369 H   0  0  0  0  0  0  0  0  0  0  0  0
  -10.6491    8.8433   -0.5410 H   0  0  0  0  0  0  0  0  0  0  0  0
  -12.6364    7.4148    1.3320 H   0  0  0  0  0  0  0  0  0  0  0  0
  -11.2291    8.4579    1.8236 H   0  0  0  0  0  0  0  0  0  0  0  0
  -13.3887    9.6523    2.0042 H   0  0  0  0  0  0  0  0  0  0  0  0
  -12.2684   10.3971    0.7977 H   0  0  0  0  0  0  0  0  0  0  0  0
  -14.4835   10.3631   -0.1258 H   0  0  0  0  0  0  0  0  0  0  0  0
  -14.4180    7.7820    0.9580 H   0  0  0  0  0  0  0  0  0  0  0  0
  -12.2905   10.9623   -1.1407 H   0  0  0  0  0  0  0  0  0  0  0  0
  -11.7829   10.0515   -2.6034 H   0  0  0  0  0  0  0  0  0  0  0  0
  -13.3332   10.9588   -2.6034 H   0  0  0  0  0  0  0  0  0  0  0  0
  -15.4794    8.6650   -1.8532 H   0  0  0  0  0  0  0  0  0  0  0  0
  -14.7119    9.7428   -3.0680 H   0  0  0  0  0  0  0  0  0  0  0  0
  -14.3445    7.9845   -3.0680 H   0  0  0  0  0  0  0  0  0  0  0  0
  -10.7898    5.8715    1.7217 H   0  0  0  0  0  0  0  0  0  0  0  0
  -11.9886    5.5385    0.4260 H   0  0  0  0  0  0  0  0  0  0  0  0
  -10.4064    4.6880    0.4260 H   0  0  0  0  0  0  0  0  0  0  0  0
   -9.2809    7.9813    1.2923 H   0  0  0  0  0  0  0  0  0  0  0  0
   -8.5497    6.3157    0.9375 H   0  0  0  0  0  0  0  0  0  0  0  0
   -8.2126    8.8634   -0.6696 H   0  0  0  0  0  0  0  0  0  0  0  0
   -6.9679    7.9469    0.2672 H   0  0  0  0  0  0  0  0  0  0  0  0
   -7.0484    5.6099    0.0480 H   0  0  0  0  0  0  0  0  0  0  0  0
   -7.7011    4.8123   -1.4233 H   0  0  0  0  0  0  0  0  0  0  0  0
   -6.0279    5.4658   -1.4233 H   0  0  0  0  0  0  0  0  0  0  0  0
  1  2  1  0
  2  3  1  0
  3  4  1  0
  4  5  1  0
  5  6  1  0
  6  7  1  0
  7  8  1  0
  7  9  1  0
  2 10  1  0
 10 11  1  0
 11 12  1  0
 12 13  1  0
 13 14  1  6
 13 15  1  0
 15 16  1  0
 16 17  1  0
 17 18  2  0
 18 19  1  0
 19 20  1  0
 20 21  1  0
 21 22  1  0
 22 23  1  0
 22 24  1  0
 24 25  1  0
 24 26  1  0
 19 27  1  0
 27 28  1  1
 27 29  1  0
 29 30  1  0
 30 31  1  0
 31 32  1  1
  7  5  1  0
 31 10  1  0
 31 13  1  0
 27 15  1  0
 24 18  1  0
  1 33  1  0
  1 34  1  0
  1 35  1  0
  2 36  1  6
  3 37  1  0
  3 38  1  0
  4 39  1  0
  4 40  1  0
  5 41  1  6
  8 42  1  0
  8 43  1  0
  8 44  1  0
  9 45  1  0
  9 46  1  0
  9 47  1  0
 10 48  1  6
 11 49  1  0
 11 50  1  0
 12 51  1  0
 12 52  1  0
 14 53  1  0
 14 54  1  0
 14 55  1  0
 15 56  1  1
 16 57  1  0
 16 58  1  0
 17 59  1  0
 19 60  1  6
 20 61  1  0
 20 62  1  0
 21 63  1  0
 21 64  1  0
 22 65  1  6
 23 66  1  0
 25 67  1  0
 25 68  1  0
 25 69  1  0
 26 70  1  0
 26 71  1  0
 26 72  1  0
 28 73  1  0
 28 74  1  0
 28 75  1  0
 29 76  1  0
 29 77  1  0
 30 78  1  0
 30 79  1  0
 32 80  1  0
 32 81  1  0
 32 82  1  0
M  END
>  <meeko>  (5) 
{"is_sidechain": [false], "intermolecular_energy": 2.731, "internal_energy": -0.839}

$$$$
EPH_relaxed_0001_pdb2pqr_Repair_70_r2_0001_out
     RDKit          3D

 82 86  0  0  0  0  0  0  0  0999 V2000
   -3.4060    9.3010    0.5100 C   0  0  0  0  0  0  0  0  0  0  0  0
   -2.5740    9.6630   -0.7230 C   0  0  2  0  0  0  0  0  0  0  0  0
   -1.9030    8.4270   -1.3540 C   0  0  0  0  0  0  0  0  0  0  0  0
   -2.8220    7.6400   -2.2930 C   0  0  0  0  0  0  0  0  0  0  0  0
   -4.2580    7.7390   -1.8750 C   0  0  2  0  0  0  0  0  0  0  0  0
   -4.8100    6.5300   -1.3370 O   0  0  0  0  0  0  0  0  0  0  0  0
   -5.3840    6.9960   -2.5680 C   0  0  0  0  0  0  0  0  0  0  0  0
   -5.1240    6.1010   -3.7390 C   0  0  0  0  0  0  0  0  0  0  0  0
   -6.7800    7.5170   -2.4230 C   0  0  0  0  0  0  0  0  0  0  0  0
   -1.5170   10.6960   -0.3520 C   0  0  1  0  0  0  0  0  0  0  0  0
   -0.4190   10.1190    0.5810 C   0  0  0  0  0  0  0  0  0  0  0  0
    0.9110   10.8140    0.1910 C   0  0  0  0  0  0  0  0  0  0  0  0
    0.4830   11.9940   -0.7130 C   0  0  1  0  0  0  0  0  0  0  0  0
    0.0410   13.1170    0.2760 C   0  0  0  0  0  0  0  0  0  0  0  0
    1.5540   12.5090   -1.7300 C   0  0  2  0  0  0  0  0  0  0  0  0
    2.8340   13.0810   -1.0960 C   0  0  0  0  0  0  0  0  0  0  0  0
    2.8060   14.5460   -0.8130 C   0  0  0  0  0  0  0  0  0  0  0  0
    1.9150   15.4220   -1.3130 C   0  0  0  0  0  0  0  0  0  0  0  0
    0.8620   14.9770   -2.3370 C   0  0  1  0  0  0  0  0  0  0  0  0
    0.8120   15.9970   -3.5050 C   0  0  0  0  0  0  0  0  0  0  0  0
    0.5890   17.4280   -3.0230 C   0  0  0  0  0  0  0  0  0  0  0  0
    1.6880   17.8530   -2.0520 C   0  0  2  0  0  0  0  0  0  0  0  0
    2.9270   17.9280   -2.7630 O   0  0  0  0  0  0  0  0  0  0  0  0
    1.8380   16.8940   -0.8380 C   0  0  0  0  0  0  0  0  0  0  0  0
    0.6120   17.0410    0.0960 C   0  0  0  0  0  0  0  0  0  0  0  0
    3.0700   17.3570   -0.0140 C   0  0  0  0  0  0  0  0  0  0  0  0
    0.9790   13.4750   -2.8430 C   0  0  1  0  0  0  0  0  0  0  0  0
    1.9600   13.3960   -4.0520 C   0  0  0  0  0  0  0  0  0  0  0  0
   -0.4240   13.0030   -3.3790 C   0  0  0  0  0  0  0  0  0  0  0  0
   -1.3930   12.3930   -2.3470 C   0  0  0  0  0  0  0  0  0  0  0  0
   -0.6940   11.3200   -1.5070 C   0  0  2  0  0  0  0  0  0  0  0  0
   -0.2580   10.1660   -2.4730 C   0  0  0  0  0  0  0  0  0  0  0  0
   -2.8393    9.5476    1.4200 H   0  0  0  0  0  0  0  0  0  0  0  0
   -4.3466    9.8712    0.4980 H   0  0  0  0  0  0  0  0  0  0  0  0
   -3.6299    8.2241    0.4980 H   0  0  0  0  0  0  0  0  0  0  0  0
   -3.2599   10.0852   -1.4722 H   0  0  0  0  0  0  0  0  0  0  0  0
   -1.0260    8.7625   -1.9270 H   0  0  0  0  0  0  0  0  0  0  0  0
   -1.6319    7.7519   -0.5289 H   0  0  0  0  0  0  0  0  0  0  0  0
   -2.7188    8.0415   -3.3119 H   0  0  0  0  0  0  0  0  0  0  0  0
   -2.5260    6.5813   -2.2546 H   0  0  0  0  0  0  0  0  0  0  0  0
   -4.1299    8.7970   -1.6023 H   0  0  0  0  0  0  0  0  0  0  0  0
   -4.8339    5.1025   -3.3801 H   0  0  0  0  0  0  0  0  0  0  0  0
   -6.0360    6.0208   -4.3488 H   0  0  0  0  0  0  0  0  0  0  0  0
   -4.3110    6.5219   -4.3488 H   0  0  0  0  0  0  0  0  0  0  0  0
   -7.0278    7.6095   -1.3553 H   0  0  0  0  0  0  0  0  0  0  0  0
   -6.8549    8.5036   -2.9036 H   0  0  0  0  0  0  0  0  0  0  0  0
   -7.4830    6.8207   -2.9036 H   0  0  0  0  0  0  0  0  0  0  0  0
   -2.1612   11.4608    0.1064 H   0  0  0  0  0  0  0  0  0  0  0  0
   -0.6641   10.3330    1.6318 H   0  0  0  0  0  0  0  0  0  0  0  0
   -0.3410    9.0273    0.4706 H   0  0  0  0  0  0  0  0  0  0  0  0
    1.4349   11.1805    1.0861 H   0  0  0  0  0  0  0  0  0  0  0  0
    1.6064   10.1297   -0.3170 H   0  0  0  0  0  0  0  0  0  0  0  0
    0.1779   12.7692    1.3106 H   0  0  0  0  0  0  0  0  0  0  0  0
    0.6525   14.0157    0.1073 H   0  0  0  0  0  0  0  0  0  0  0  0
   -1.0190   13.3578    0.1073 H   0  0  0  0  0  0  0  0  0  0  0  0
    1.8607   11.5830   -2.2385 H   0  0  0  0  0  0  0  0  0  0  0  0
    3.0070   12.5546   -0.1458 H   0  0  0  0  0  0  0  0  0  0  0  0
    3.6337   12.9295   -1.8359 H   0  0  0  0  0  0  0  0  0  0  0  0
    3.5789   14.9434   -0.1387 H   0  0  0  0  0  0  0  0  0  0  0  0
   -0.0997   14.9740   -1.8030 H   0  0  0  0  0  0  0  0  0  0  0  0
    1.7653   15.9537   -4.0521 H   0  0  0  0  0  0  0  0  0  0  0  0
   -0.0371   15.7255   -4.1494 H   0  0  0  0  0  0  0  0  0  0  0  0
    0.5929   18.1049   -3.8901 H   0  0  0  0  0  0  0  0  0  0  0  0
   -0.3786   17.4768   -2.5021 H   0  0  0  0  0  0  0  0  0  0  0  0
    1.4053   18.8340   -1.6424 H   0  0  0  0  0  0  0  0  0  0  0  0
    3.0750   18.8600   -2.9990 H   0  0  0  0  0  0  0  0  0  0  0  0
    0.9428   17.0013    1.1443 H   0  0  0  0  0  0  0  0  0  0  0  0
    0.1180   18.0048   -0.0964 H   0  0  0  0  0  0  0  0  0  0  0  0
   -0.0959   16.2213   -0.0964 H   0  0  0  0  0  0  0  0  0  0  0  0
    2.8458   17.2727    1.0596 H   0  0  0  0  0  0  0  0  0  0  0  0
    3.9345   16.7224   -0.2589 H   0  0  0  0  0  0  0  0  0  0  0  0
    3.3025   18.4039   -0.2589 H   0  0  0  0  0  0  0  0  0  0  0  0
    2.9924   13.3129   -3.6816 H   0  0  0  0  0  0  0  0  0  0  0  0
    1.7178   12.5145   -4.6637 H   0  0  0  0  0  0  0  0  0  0  0  0
    1.8620   14.3049   -4.6637 H   0  0  0  0  0  0  0  0  0  0  0  0
   -0.9207   13.8769   -3.8259 H   0  0  0  0  0  0  0  0  0  0  0  0
   -0.2034   12.1877   -4.0837 H   0  0  0  0  0  0  0  0  0  0  0  0
   -1.7586   13.1893   -1.6819 H   0  0  0  0  0  0  0  0  0  0  0  0
   -2.2311   11.9265   -2.8854 H   0  0  0  0  0  0  0  0  0  0  0  0
    0.0700    9.2978   -1.8825 H   0  0  0  0  0  0  0  0  0  0  0  0
   -1.1091    9.8776   -3.1073 H   0  0  0  0  0  0  0  0  0  0  0  0
    0.5712   10.5124   -3.1073 H   0  0  0  0  0  0  0  0  0  0  0  0
  1  2  1  0
  2  3  1  0
  3  4  1  0
  4  5  1  0
  5  6  1  0
  6  7  1  0
  7  8  1  0
  7  9  1  0
  2 10  1  0
 10 11  1  0
 11 12  1  0
 12 13  1  0
 13 14  1  1
 13 15  1  0
 15 16  1  0
 16 17  1  0
 17 18  2  0
 18 19  1  0
 19 20  1  0
 20 21  1  0
 21 22  1  0
 22 23  1  0
 22 24  1  0
 24 25  1  0
 24 26  1  0
 19 27  1  0
 27 28  1  6
 27 29  1  0
 29 30  1  0
 30 31  1  0
 31 32  1  6
  7  5  1  0
 31 10  1  0
 31 13  1  0
 27 15  1  0
 24 18  1  0
  1 33  1  0
  1 34  1  0
  1 35  1  0
  2 36  1  6
  3 37  1  0
  3 38  1  0
  4 39  1  0
  4 40  1  0
  5 41  1  1
  8 42  1  0
  8 43  1  0
  8 44  1  0
  9 45  1  0
  9 46  1  0
  9 47  1  0
 10 48  1  1
 11 49  1  0
 11 50  1  0
 12 51  1  0
 12 52  1  0
 14 53  1  0
 14 54  1  0
 14 55  1  0
 15 56  1  6
 16 57  1  0
 16 58  1  0
 17 59  1  0
 19 60  1  1
 20 61  1  0
 20 62  1  0
 21 63  1  0
 21 64  1  0
 22 65  1  1
 23 66  1  0
 25 67  1  0
 25 68  1  0
 25 69  1  0
 26 70  1  0
 26 71  1  0
 26 72  1  0
 28 73  1  0
 28 74  1  0
 28 75  1  0
 29 76  1  0
 29 77  1  0
 30 78  1  0
 30 79  1  0
 32 80  1  0
 32 81  1  0
 32 82  1  0
M  END
>  <meeko>  (6) 
{"is_sidechain": [false], "intermolecular_energy": 2.731, "internal_energy": -0.839}

$$$$
EPH_relaxed_0001_pdb2pqr_Repair_70_r2_0001_out
     RDKit          3D

 82 86  0  0  0  0  0  0  0  0999 V2000
    3.6240   17.7000    0.7610 C   0  0  0  0  0  0  0  0  0  0  0  0
    2.6740   17.9930   -0.4040 C   0  0  2  0  0  0  0  0  0  0  0  0
    1.9870   19.3660   -0.2620 C   0  0  0  0  0  0  0  0  0  0  0  0
    0.9710   19.4300    0.8820 C   0  0  0  0  0  0  0  0  0  0  0  0
   -0.3080   20.0810    0.4510 C   0  0  2  0  0  0  0  0  0  0  0  0
   -1.2990   20.1940    1.4810 O   0  0  0  0  0  0  0  0  0  0  0  0
   -1.6340   19.3470    0.3700 C   0  0  0  0  0  0  0  0  0  0  0  0
   -1.7460   17.8960    0.7220 C   0  0  0  0  0  0  0  0  0  0  0  0
   -2.7080   19.9040   -0.5110 C   0  0  0  0  0  0  0  0  0  0  0  0
    1.6240   16.8930   -0.5090 C   0  0  1  0  0  0  0  0  0  0  0  0
    0.3110   17.3830   -1.1750 C   0  0  0  0  0  0  0  0  0  0  0  0
   -0.2440   16.1920   -1.9980 C   0  0  0  0  0  0  0  0  0  0  0  0
    0.5760   14.9710   -1.5200 C   0  0  1  0  0  0  0  0  0  0  0  0
   -0.1050   14.5290   -0.1860 C   0  0  0  0  0  0  0  0  0  0  0  0
    0.6970   13.7820   -2.5280 C   0  0  2  0  0  0  0  0  0  0  0  0
   -0.6340   13.1070   -2.9030 C   0  0  0  0  0  0  0  0  0  0  0  0
   -1.0340   11.9610   -2.0340 C   0  0  0  0  0  0  0  0  0  0  0  0
   -0.2270   11.3110   -1.1750 C   0  0  0  0  0  0  0  0  0  0  0  0
    1.2660   11.6530   -1.0850 C   0  0  1  0  0  0  0  0  0  0  0  0
    2.0970   10.3430   -1.0850 C   0  0  0  0  0  0  0  0  0  0  0  0
    1.6550    9.3690    0.0020 C   0  0  0  0  0  0  0  0  0  0  0  0
    0.1800    9.0080   -0.1550 C   0  0  2  0  0  0  0  0  0  0  0  0
    0.0150    8.2590   -1.3630 O   0  0  0  0  0  0  0  0  0  0  0  0
   -0.7550   10.2500   -0.1780 C   0  0  0  0  0  0  0  0  0  0  0  0
   -0.8060   10.8890    1.2310 C   0  0  0  0  0  0  0  0  0  0  0  0
   -2.1950    9.7570   -0.4830 C   0  0  0  0  0  0  0  0  0  0  0  0
    1.7990   12.7140   -2.1410 C   0  0  1  0  0  0  0  0  0  0  0  0
    2.2030   11.9930   -3.4630 C   0  0  0  0  0  0  0  0  0  0  0  0
    3.1100   13.3830   -1.5810 C   0  0  0  0  0  0  0  0  0  0  0  0
    2.9290   14.6260   -0.6880 C   0  0  0  0  0  0  0  0  0  0  0  0
    1.9880   15.6400   -1.3440 C   0  0  2  0  0  0  0  0  0  0  0  0
    2.6560   16.1200   -2.6770 C   0  0  0  0  0  0  0  0  0  0  0  0
    3.0976   17.8624    1.7131 H   0  0  0  0  0  0  0  0  0  0  0  0
    3.9637   16.6553    0.7033 H   0  0  0  0  0  0  0  0  0  0  0  0
    4.4931   18.3719    0.7033 H   0  0  0  0  0  0  0  0  0  0  0  0
    3.2771   18.0193   -1.3236 H   0  0  0  0  0  0  0  0  0  0  0  0
    2.7621   20.1252   -0.0811 H   0  0  0  0  0  0  0  0  0  0  0  0
    1.4328   19.5464   -1.1949 H   0  0  0  0  0  0  0  0  0  0  0  0
    0.7532   18.4071    1.2231 H   0  0  0  0  0  0  0  0  0  0  0  0
    1.4057   20.0318    1.6937 H   0  0  0  0  0  0  0  0  0  0  0  0
    0.2297   20.7154   -0.2691 H   0  0  0  0  0  0  0  0  0  0  0  0
   -1.7547   17.7838    1.8162 H   0  0  0  0  0  0  0  0  0  0  0  0
   -2.6783   17.4882    0.3042 H   0  0  0  0  0  0  0  0  0  0  0  0
   -0.8873   17.3500    0.3042 H   0  0  0  0  0  0  0  0  0  0  0  0
   -3.5131   20.3215    0.1115 H   0  0  0  0  0  0  0  0  0  0  0  0
   -2.2867   20.6972   -1.1460 H   0  0  0  0  0  0  0  0  0  0  0  0
   -3.1137   19.1026   -1.1460 H   0  0  0  0  0  0  0  0  0  0  0  0
    1.5323   16.6230    0.5534 H   0  0  0  0  0  0  0  0  0  0  0  0
   -0.4153   17.6828   -0.4052 H   0  0  0  0  0  0  0  0  0  0  0  0
    0.4961   18.2558   -1.8184 H   0  0  0  0  0  0  0  0  0  0  0  0
   -1.3148   16.0445   -1.7939 H   0  0  0  0  0  0  0  0  0  0  0  0
   -0.1539   16.3563   -3.0819 H   0  0  0  0  0  0  0  0  0  0  0  0
    0.4782   14.9075    0.6664 H   0  0  0  0  0  0  0  0  0  0  0  0
   -1.1254   14.9374   -0.1424 H   0  0  0  0  0  0  0  0  0  0  0  0
   -0.1475   13.4307   -0.1424 H   0  0  0  0  0  0  0  0  0  0  0  0
    1.0459   14.2825   -3.4433 H   0  0  0  0  0  0  0  0  0  0  0  0
   -1.4275   13.8670   -2.8501 H   0  0  0  0  0  0  0  0  0  0  0  0
   -0.4907   12.6897   -3.9106 H   0  0  0  0  0  0  0  0  0  0  0  0
   -2.0772   11.6186   -2.1014 H   0  0  0  0  0  0  0  0  0  0  0  0
    1.4007   12.1810   -0.1295 H   0  0  0  0  0  0  0  0  0  0  0  0
    1.9839    9.8539   -2.0637 H   0  0  0  0  0  0  0  0  0  0  0  0
    3.1446   10.6126   -0.8853 H   0  0  0  0  0  0  0  0  0  0  0  0
    2.2593    8.4526   -0.0686 H   0  0  0  0  0  0  0  0  0  0  0  0
    1.7964    9.8488    0.9817 H   0  0  0  0  0  0  0  0  0  0  0  0
   -0.1099    8.4132    0.7237 H   0  0  0  0  0  0  0  0  0  0  0  0
    0.0230    8.8890   -2.1030 H   0  0  0  0  0  0  0  0  0  0  0  0
   -0.7430   10.0994    1.9942 H   0  0  0  0  0  0  0  0  0  0  0  0
    0.0397   11.5823    1.3500 H   0  0  0  0  0  0  0  0  0  0  0  0
   -1.7509   11.4394    1.3500 H   0  0  0  0  0  0  0  0  0  0  0  0
   -2.7279    9.5745    0.4618 H   0  0  0  0  0  0  0  0  0  0  0  0
   -2.7297   10.5233   -1.0635 H   0  0  0  0  0  0  0  0  0  0  0  0
   -2.1478    8.8238   -1.0635 H   0  0  0  0  0  0  0  0  0  0  0  0
    2.7279   11.0563   -3.2241 H   0  0  0  0  0  0  0  0  0  0  0  0
    1.2996   11.7680   -4.0488 H   0  0  0  0  0  0  0  0  0  0  0  0
    2.8666   12.6460   -4.0488 H   0  0  0  0  0  0  0  0  0  0  0  0
    3.6448   12.6243   -0.9908 H   0  0  0  0  0  0  0  0  0  0  0  0
    3.6513   13.7426   -2.4685 H   0  0  0  0  0  0  0  0  0  0  0  0
    2.5061   14.3159    0.2789 H   0  0  0  0  0  0  0  0  0  0  0  0
    3.9109   15.1006   -0.5445 H   0  0  0  0  0  0  0  0  0  0  0  0
    3.5291   16.7474   -2.4444 H   0  0  0  0  0  0  0  0  0  0  0  0
    2.9781   15.2455   -3.2614 H   0  0  0  0  0  0  0  0  0  0  0  0
    1.9299   16.7042   -3.2614 H   0  0  0  0  0  0  0  0  0  0  0  0
  1  2  1  0
  2  3  1  0
  3  4  1  0
  4  5  1  0
  5  6  1  0
  6  7  1  0
  7  8  1  0
  7  9  1  0
  2 10  1  0
 10 11  1  0
 11 12  1  0
 12 13  1  0
 13 14  1  1
 13 15  1  0
 15 16  1  0
 16 17  1  0
 17 18  2  0
 18 19  1  0
 19 20  1  0
 20 21  1  0
 21 22  1  0
 22 23  1  0
 22 24  1  0
 24 25  1  0
 24 26  1  0
 19 27  1  0
 27 28  1  6
 27 29  1  0
 29 30  1  0
 30 31  1  0
 31 32  1  6
  7  5  1  0
 31 10  1  0
 31 13  1  0
 27 15  1  0
 24 18  1  0
  1 33  1  0
  1 34  1  0
  1 35  1  0
  2 36  1  6
  3 37  1  0
  3 38  1  0
  4 39  1  0
  4 40  1  0
  5 41  1  6
  8 42  1  0
  8 43  1  0
  8 44  1  0
  9 45  1  0
  9 46  1  0
  9 47  1  0
 10 48  1  1
 11 49  1  0
 11 50  1  0
 12 51  1  0
 12 52  1  0
 14 53  1  0
 14 54  1  0
 14 55  1  0
 15 56  1  6
 16 57  1  0
 16 58  1  0
 17 59  1  0
 19 60  1  1
 20 61  1  0
 20 62  1  0
 21 63  1  0
 21 64  1  0
 22 65  1  1
 23 66  1  0
 25 67  1  0
 25 68  1  0
 25 69  1  0
 26 70  1  0
 26 71  1  0
 26 72  1  0
 28 73  1  0
 28 74  1  0
 28 75  1  0
 29 76  1  0
 29 77  1  0
 30 78  1  0
 30 79  1  0
 32 80  1  0
 32 81  1  0
 32 82  1  0
M  END
>  <meeko>  (7) 
{"is_sidechain": [false], "intermolecular_energy": 2.731, "internal_energy": -0.839}

$$$$
EPH_relaxed_0001_pdb2pqr_Repair_70_r2_0001_out
     RDKit          3D

 82 86  0  0  0  0  0  0  0  0999 V2000
    0.4370    8.7980   -2.3770 C   0  0  0  0  0  0  0  0  0  0  0  0
    1.1780    9.9410   -3.0770 C   0  0  2  0  0  0  0  0  0  0  0  0
    2.6790    9.9610   -2.7250 C   0  0  0  0  0  0  0  0  0  0  0  0
    3.5580   10.5800   -3.8150 C   0  0  0  0  0  0  0  0  0  0  0  0
    4.9560   10.8200   -3.3300 C   0  0  2  0  0  0  0  0  0  0  0  0
    5.5550   12.0320   -3.8060 O   0  0  0  0  0  0  0  0  0  0  0  0
    6.1710   10.8080   -4.2390 C   0  0  0  0  0  0  0  0  0  0  0  0
    6.0440   10.5490   -5.7080 C   0  0  0  0  0  0  0  0  0  0  0  0
    7.5170   10.5620   -3.6320 C   0  0  0  0  0  0  0  0  0  0  0  0
    0.5390   11.2760   -2.7100 C   0  0  1  0  0  0  0  0  0  0  0  0
   -0.8390   11.1080   -2.0170 C   0  0  0  0  0  0  0  0  0  0  0  0
   -0.9550   12.2480   -0.9720 C   0  0  0  0  0  0  0  0  0  0  0  0
    0.1960   13.2190   -1.3240 C   0  0  1  0  0  0  0  0  0  0  0  0
   -0.3510   14.0770   -2.5080 C   0  0  0  0  0  0  0  0  0  0  0  0
    0.7250   14.1150   -0.1580 C   0  0  2  0  0  0  0  0  0  0  0  0
   -0.3060   15.0930    0.4340 C   0  0  0  0  0  0  0  0  0  0  0  0
   -0.3470   16.4400   -0.2080 C   0  0  0  0  0  0  0  0  0  0  0  0
    0.5960   16.9480   -1.0220 C   0  0  0  0  0  0  0  0  0  0  0  0
    1.8970   16.1830   -1.2940 C   0  0  1  0  0  0  0  0  0  0  0  0
    3.1040   17.1490   -1.1620 C   0  0  0  0  0  0  0  0  0  0  0  0
    2.9610   18.3870   -2.0420 C   0  0  0  0  0  0  0  0  0  0  0  0
    1.6850   19.1530   -1.7020 C   0  0  2  0  0  0  0  0  0  0  0  0
    1.8090   19.6920   -0.3820 O   0  0  0  0  0  0  0  0  0  0  0  0
    0.4030   18.2790   -1.7910 C   0  0  0  0  0  0  0  0  0  0  0  0
    0.1030   17.9450   -3.2730 C   0  0  0  0  0  0  0  0  0  0  0  0
   -0.7920   19.1320   -1.2870 C   0  0  0  0  0  0  0  0  0  0  0  0
    2.0970   14.8400   -0.4680 C   0  0  1  0  0  0  0  0  0  0  0  0
    2.7560   15.1560    0.9100 C   0  0  0  0  0  0  0  0  0  0  0  0
    3.1050   13.9070   -1.2380 C   0  0  0  0  0  0  0  0  0  0  0  0
    2.5070   12.9590   -2.2950 C   0  0  0  0  0  0  0  0  0  0  0  0
    1.3130   12.1870   -1.7250 C   0  0  2  0  0  0  0  0  0  0  0  0
    1.8370   11.2980   -0.5460 C   0  0  0  0  0  0  0  0  0  0  0  0
    0.5175    8.9221   -1.2870 H   0  0  0  0  0  0  0  0  0  0  0  0
   -0.6230    8.8140   -2.6706 H   0  0  0  0  0  0  0  0  0  0  0  0
    0.8843    7.8369   -2.6706 H   0  0  0  0  0  0  0  0  0  0  0  0
    1.0953    9.7746   -4.1612 H   0  0  0  0  0  0  0  0  0  0  0  0
    2.8113   10.5421   -1.8004 H   0  0  0  0  0  0  0  0  0  0  0  0
    2.9968    8.9140   -2.6115 H   0  0  0  0  0  0  0  0  0  0  0  0
    3.5919    9.8968   -4.6764 H   0  0  0  0  0  0  0  0  0  0  0  0
    3.1219   11.5495   -4.0978 H   0  0  0  0  0  0  0  0  0  0  0  0
    4.7397   10.3075   -2.3810 H   0  0  0  0  0  0  0  0  0  0  0  0
    5.5649    9.5718   -5.8680 H   0  0  0  0  0  0  0  0  0  0  0  0
    5.4305   11.3378   -6.1677 H   0  0  0  0  0  0  0  0  0  0  0  0
    7.0433   10.5470   -6.1677 H   0  0  0  0  0  0  0  0  0  0  0  0
    7.4330   10.5774   -2.5353 H   0  0  0  0  0  0  0  0  0  0  0  0
    7.8921    9.5804   -3.9573 H   0  0  0  0  0  0  0  0  0  0  0  0
    8.2150   11.3474   -3.9573 H   0  0  0  0  0  0  0  0  0  0  0  0
    0.5028   11.7436   -3.7050 H   0  0  0  0  0  0  0  0  0  0  0  0
   -1.6481   11.1891   -2.7578 H   0  0  0  0  0  0  0  0  0  0  0  0
   -0.9226   10.1217   -1.5371 H   0  0  0  0  0  0  0  0  0  0  0  0
   -1.9285   12.7534   -1.0552 H   0  0  0  0  0  0  0  0  0  0  0  0
   -0.8854   11.8757    0.0607 H   0  0  0  0  0  0  0  0  0  0  0  0
   -0.9023   14.9417   -2.1101 H   0  0  0  0  0  0  0  0  0  0  0  0
    0.4893   14.4297   -3.1241 H   0  0  0  0  0  0  0  0  0  0  0  0
   -1.0254   13.4641   -3.1241 H   0  0  0  0  0  0  0  0  0  0  0  0
    0.9253   13.3772    0.6329 H   0  0  0  0  0  0  0  0  0  0  0  0
   -1.3026   14.6382    0.3343 H   0  0  0  0  0  0  0  0  0  0  0  0
   -0.0020   15.2618    1.4776 H   0  0  0  0  0  0  0  0  0  0  0  0
   -1.2230   17.0711    0.0024 H   0  0  0  0  0  0  0  0  0  0  0  0
    1.8237   15.8173   -2.3288 H   0  0  0  0  0  0  0  0  0  0  0  0
    3.1861   17.4696   -0.1130 H   0  0  0  0  0  0  0  0  0  0  0  0
    4.0030   16.6072   -1.4911 H   0  0  0  0  0  0  0  0  0  0  0  0
    3.8287   19.0441   -1.8828 H   0  0  0  0  0  0  0  0  0  0  0  0
    2.9090   18.0668   -3.0931 H   0  0  0  0  0  0  0  0  0  0  0  0
    1.5715   19.9525   -2.4489 H   0  0  0  0  0  0  0  0  0  0  0  0
    0.9920   19.4820    0.1000 H   0  0  0  0  0  0  0  0  0  0  0  0
   -0.6313   17.1275   -3.3232 H   0  0  0  0  0  0  0  0  0  0  0  0
   -0.3046   18.8353   -3.7743 H   0  0  0  0  0  0  0  0  0  0  0  0
    1.0318   17.6350   -3.7743 H   0  0  0  0  0  0  0  0  0  0  0  0
   -0.8002   19.1379   -0.1870 H   0  0  0  0  0  0  0  0  0  0  0  0
   -0.6895   20.1623   -1.6584 H   0  0  0  0  0  0  0  0  0  0  0  0
   -1.7331   18.7003   -1.6584 H   0  0  0  0  0  0  0  0  0  0  0  0
    2.0848   14.8341    1.7199 H   0  0  0  0  0  0  0  0  0  0  0  0
    3.7123   14.6185    0.9910 H   0  0  0  0  0  0  0  0  0  0  0  0
    2.9356   16.2382    0.9910 H   0  0  0  0  0  0  0  0  0  0  0  0
    3.8349   14.5540   -1.7465 H   0  0  0  0  0  0  0  0  0  0  0  0
    3.5309   13.2468   -0.4681 H   0  0  0  0  0  0  0  0  0  0  0  0
    2.1735   13.5498   -3.1609 H   0  0  0  0  0  0  0  0  0  0  0  0
    3.2802   12.2371   -2.5967 H   0  0  0  0  0  0  0  0  0  0  0  0
    1.5634   11.7623    0.4130 H   0  0  0  0  0  0  0  0  0  0  0  0
    1.3840   10.2977   -0.6116 H   0  0  0  0  0  0  0  0  0  0  0  0
    2.9315   11.2099   -0.6116 H   0  0  0  0  0  0  0  0  0  0  0  0
  1  2  1  0
  2  3  1  0
  3  4  1  0
  4  5  1  0
  5  6  1  0
  6  7  1  0
  7  8  1  0
  7  9  1  0
  2 10  1  0
 10 11  1  0
 11 12  1  0
 12 13  1  0
 13 14  1  6
 13 15  1  0
 15 16  1  0
 16 17  1  0
 17 18  2  0
 18 19  1  0
 19 20  1  0
 20 21  1  0
 21 22  1  0
 22 23  1  0
 22 24  1  0
 24 25  1  0
 24 26  1  0
 19 27  1  0
 27 28  1  1
 27 29  1  0
 29 30  1  0
 30 31  1  0
 31 32  1  1
  7  5  1  0
 31 10  1  0
 31 13  1  0
 27 15  1  0
 24 18  1  0
  1 33  1  0
  1 34  1  0
  1 35  1  0
  2 36  1  6
  3 37  1  0
  3 38  1  0
  4 39  1  0
  4 40  1  0
  5 41  1  1
  8 42  1  0
  8 43  1  0
  8 44  1  0
  9 45  1  0
  9 46  1  0
  9 47  1  0
 10 48  1  6
 11 49  1  0
 11 50  1  0
 12 51  1  0
 12 52  1  0
 14 53  1  0
 14 54  1  0
 14 55  1  0
 15 56  1  1
 16 57  1  0
 16 58  1  0
 17 59  1  0
 19 60  1  6
 20 61  1  0
 20 62  1  0
 21 63  1  0
 21 64  1  0
 22 65  1  6
 23 66  1  0
 25 67  1  0
 25 68  1  0
 25 69  1  0
 26 70  1  0
 26 71  1  0
 26 72  1  0
 28 73  1  0
 28 74  1  0
 28 75  1  0
 29 76  1  0
 29 77  1  0
 30 78  1  0
 30 79  1  0
 32 80  1  0
 32 81  1  0
 32 82  1  0
M  END
>  <meeko>  (8) 
{"is_sidechain": [false], "intermolecular_energy": 2.731, "internal_energy": -0.839}

$$$$
EPH_relaxed_0001_pdb2pqr_Repair_70_r2_0001_out
     RDKit          3D

 82 86  0  0  0  0  0  0  0  0999 V2000
   -3.9500    7.1860   -3.4150 C   0  0  0  0  0  0  0  0  0  0  0  0
   -3.9280    7.2590   -1.8850 C   0  0  2  0  0  0  0  0  0  0  0  0
   -5.3280    7.0520   -1.2740 C   0  0  0  0  0  0  0  0  0  0  0  0
   -6.4610    7.0900   -2.3030 C   0  0  0  0  0  0  0  0  0  0  0  0
   -7.7710    7.4520   -1.6720 C   0  0  2  0  0  0  0  0  0  0  0  0
   -8.3450    6.4260   -0.8510 O   0  0  0  0  0  0  0  0  0  0  0  0
   -9.0860    6.7830   -2.0290 C   0  0  0  0  0  0  0  0  0  0  0  0
   -9.1540    5.6980   -3.0580 C   0  0  0  0  0  0  0  0  0  0  0  0
  -10.3610    7.5120   -1.7410 C   0  0  0  0  0  0  0  0  0  0  0  0
   -3.3570    8.5990   -1.4370 C   0  0  1  0  0  0  0  0  0  0  0  0
   -3.9610    9.0860   -0.0930 C   0  0  0  0  0  0  0  0  0  0  0  0
   -2.8280    9.8260    0.6640 C   0  0  0  0  0  0  0  0  0  0  0  0
   -1.7200   10.0310   -0.3950 C   0  0  1  0  0  0  0  0  0  0  0  0
   -2.1680   11.2850   -1.2070 C   0  0  0  0  0  0  0  0  0  0  0  0
   -0.2630   10.1860    0.1510 C   0  0  2  0  0  0  0  0  0  0  0  0
   -0.0310   11.4130    1.0510 C   0  0  0  0  0  0  0  0  0  0  0  0
    0.4030   12.6520    0.3400 C   0  0  0  0  0  0  0  0  0  0  0  0
    0.8720   12.7080   -0.9200 C   0  0  0  0  0  0  0  0  0  0  0  0
    1.0970   11.4270   -1.7340 C   0  0  1  0  0  0  0  0  0  0  0  0
    2.4870   11.4880   -2.4210 C   0  0  0  0  0  0  0  0  0  0  0  0
    2.6700   12.7510   -3.2580 C   0  0  0  0  0  0  0  0  0  0  0  0
    2.4960   14.0020   -2.4010 C   0  0  2  0  0  0  0  0  0  0  0  0
    3.5690   14.0670   -1.4570 O   0  0  0  0  0  0  0  0  0  0  0  0
    1.1350   14.0470   -1.6510 C   0  0  0  0  0  0  0  0  0  0  0  0
   -0.0110   14.2800   -2.6660 C   0  0  0  0  0  0  0  0  0  0  0  0
    1.1460   15.2860   -0.7160 C   0  0  0  0  0  0  0  0  0  0  0  0
    0.8610   10.0610   -0.9560 C   0  0  1  0  0  0  0  0  0  0  0  0
    2.1670    9.6350   -0.2190 C   0  0  0  0  0  0  0  0  0  0  0  0
    0.5490    8.9230   -1.9990 C   0  0  0  0  0  0  0  0  0  0  0  0
   -0.9250    8.7410   -2.4080 C   0  0  0  0  0  0  0  0  0  0  0  0
   -1.8320    8.6700   -1.1750 C   0  0  2  0  0  0  0  0  0  0  0  0
   -1.4190    7.4050   -0.3490 C   0  0  0  0  0  0  0  0  0  0  0  0
   -4.2541    6.1768   -3.7296 H   0  0  0  0  0  0  0  0  0  0  0  0
   -4.6658    7.9236   -3.8070 H   0  0  0  0  0  0  0  0  0  0  0  0
   -2.9459    7.4052   -3.8070 H   0  0  0  0  0  0  0  0  0  0  0  0
   -3.2861    6.4420   -1.5237 H   0  0  0  0  0  0  0  0  0  0  0  0
   -5.3468    6.0729   -0.7729 H   0  0  0  0  0  0  0  0  0  0  0  0
   -5.5001    7.8845   -0.5759 H   0  0  0  0  0  0  0  0  0  0  0  0
   -6.2180    7.8367   -3.0733 H   0  0  0  0  0  0  0  0  0  0  0  0
   -6.5581    6.0866   -2.7432 H   0  0  0  0  0  0  0  0  0  0  0  0
   -7.4742    8.5093   -1.6087 H   0  0  0  0  0  0  0  0  0  0  0  0
   -9.2152    4.7207   -2.5569 H   0  0  0  0  0  0  0  0  0  0  0  0
  -10.0447    5.8442   -3.6867 H   0  0  0  0  0  0  0  0  0  0  0  0
   -8.2520    5.7318   -3.6867 H   0  0  0  0  0  0  0  0  0  0  0  0
  -10.5001    7.5915   -0.6527 H   0  0  0  0  0  0  0  0  0  0  0  0
  -10.3142    8.5198   -2.1793 H   0  0  0  0  0  0  0  0  0  0  0  0
  -11.2058    6.9604   -2.1793 H   0  0  0  0  0  0  0  0  0  0  0  0
   -3.6175    9.2125   -2.3121 H   0  0  0  0  0  0  0  0  0  0  0  0
   -4.8011    9.7708   -0.2812 H   0  0  0  0  0  0  0  0  0  0  0  0
   -4.3441    8.2406    0.4974 H   0  0  0  0  0  0  0  0  0  0  0  0
   -3.1841   10.7942    1.0458 H   0  0  0  0  0  0  0  0  0  0  0  0
   -2.4709    9.2600    1.5370 H   0  0  0  0  0  0  0  0  0  0  0  0
   -2.4550   12.0883   -0.5124 H   0  0  0  0  0  0  0  0  0  0  0  0
   -1.3367   11.6277   -1.8406 H   0  0  0  0  0  0  0  0  0  0  0  0
   -3.0283   11.0234   -1.8406 H   0  0  0  0  0  0  0  0  0  0  0  0
   -0.1627    9.3095    0.8080 H   0  0  0  0  0  0  0  0  0  0  0  0
   -0.9730   11.6337    1.5744 H   0  0  0  0  0  0  0  0  0  0  0  0
    0.7951   11.1439    1.7257 H   0  0  0  0  0  0  0  0  0  0  0  0
    0.3334   13.6001    0.8934 H   0  0  0  0  0  0  0  0  0  0  0  0
    0.3040   11.4073   -2.4960 H   0  0  0  0  0  0  0  0  0  0  0  0
    3.2657   11.4634   -1.6445 H   0  0  0  0  0  0  0  0  0  0  0  0
    2.5636   10.6243   -3.0979 H   0  0  0  0  0  0  0  0  0  0  0  0
    3.6798   12.7508   -3.6942 H   0  0  0  0  0  0  0  0  0  0  0  0
    1.9086   12.7600   -4.0519 H   0  0  0  0  0  0  0  0  0  0  0  0
    2.5093   14.8696   -3.0771 H   0  0  0  0  0  0  0  0  0  0  0  0
    3.2310   13.7410   -0.6050 H   0  0  0  0  0  0  0  0  0  0  0  0
   -0.9485   14.4706   -2.1231 H   0  0  0  0  0  0  0  0  0  0  0  0
    0.2297   15.1476   -3.2980 H   0  0  0  0  0  0  0  0  0  0  0  0
   -0.1282   13.3873   -3.2980 H   0  0  0  0  0  0  0  0  0  0  0  0
    1.1431   14.9540    0.3327 H   0  0  0  0  0  0  0  0  0  0  0  0
    2.0495   15.8830   -0.9091 H   0  0  0  0  0  0  0  0  0  0  0  0
    0.2533   15.8990   -0.9091 H   0  0  0  0  0  0  0  0  0  0  0  0
    2.0080    9.6868    0.8682 H   0  0  0  0  0  0  0  0  0  0  0  0
    2.4287    8.6049   -0.5026 H   0  0  0  0  0  0  0  0  0  0  0  0
    2.9858   10.3126   -0.5026 H   0  0  0  0  0  0  0  0  0  0  0  0
    1.1231    9.1414   -2.9116 H   0  0  0  0  0  0  0  0  0  0  0  0
    0.8254    7.9858   -1.4938 H   0  0  0  0  0  0  0  0  0  0  0  0
   -1.2329    9.5926   -3.0325 H   0  0  0  0  0  0  0  0  0  0  0  0
   -1.0197    7.7987   -2.9676 H   0  0  0  0  0  0  0  0  0  0  0  0
   -1.4921    7.6288    0.7255 H   0  0  0  0  0  0  0  0  0  0  0  0
   -2.0912    6.5701   -0.5962 H   0  0  0  0  0  0  0  0  0  0  0  0
   -0.3836    7.1276   -0.5962 H   0  0  0  0  0  0  0  0  0  0  0  0
  1  2  1  0
  2  3  1  0
  3  4  1  0
  4  5  1  0
  5  6  1  0
  6  7  1  0
  7  8  1  0
  7  9  1  0
  2 10  1  0
 10 11  1  0
 11 12  1  0
 12 13  1  0
 13 14  1  6
 13 15  1  0
 15 16  1  0
 16 17  1  0
 17 18  2  0
 18 19  1  0
 19 20  1  0
 20 21  1  0
 21 22  1  0
 22 23  1  0
 22 24  1  0
 24 25  1  0
 24 26  1  0
 19 27  1  0
 27 28  1  1
 27 29  1  0
 29 30  1  0
 30 31  1  0
 31 32  1  1
  7  5  1  0
 31 10  1  0
 31 13  1  0
 27 15  1  0
 24 18  1  0
  1 33  1  0
  1 34  1  0
  1 35  1  0
  2 36  1  1
  3 37  1  0
  3 38  1  0
  4 39  1  0
  4 40  1  0
  5 41  1  1
  8 42  1  0
  8 43  1  0
  8 44  1  0
  9 45  1  0
  9 46  1  0
  9 47  1  0
 10 48  1  6
 11 49  1  0
 11 50  1  0
 12 51  1  0
 12 52  1  0
 14 53  1  0
 14 54  1  0
 14 55  1  0
 15 56  1  1
 16 57  1  0
 16 58  1  0
 17 59  1  0
 19 60  1  6
 20 61  1  0
 20 62  1  0
 21 63  1  0
 21 64  1  0
 22 65  1  6
 23 66  1  0
 25 67  1  0
 25 68  1  0
 25 69  1  0
 26 70  1  0
 26 71  1  0
 26 72  1  0
 28 73  1  0
 28 74  1  0
 28 75  1  0
 29 76  1  0
 29 77  1  0
 30 78  1  0
 30 79  1  0
 32 80  1  0
 32 81  1  0
 32 82  1  0
M  END
>  <meeko>  (9) 
{"is_sidechain": [false], "intermolecular_energy": 2.731, "internal_energy": -0.839}

$$$$
EPH_relaxed_0001_pdb2pqr_Repair_70_r2_0001_out
     RDKit          3D

 82 86  0  0  0  0  0  0  0  0999 V2000
   -0.8580   16.3430   -5.8380 C   0  0  0  0  0  0  0  0  0  0  0  0
    0.2340   15.6430   -6.6510 C   0  0  2  0  0  0  0  0  0  0  0  0
   -0.1650   15.4670   -8.1290 C   0  0  0  0  0  0  0  0  0  0  0  0
    0.4710   16.4970   -9.0660 C   0  0  0  0  0  0  0  0  0  0  0  0
    1.8680   16.1110   -9.4470 C   0  0  2  0  0  0  0  0  0  0  0  0
    2.3310   16.6780  -10.6800 O   0  0  0  0  0  0  0  0  0  0  0  0
    2.1990   15.2470  -10.6500 C   0  0  0  0  0  0  0  0  0  0  0  0
    1.1260   14.7160  -11.5480 C   0  0  0  0  0  0  0  0  0  0  0  0
    3.5080   14.5210  -10.6710 C   0  0  0  0  0  0  0  0  0  0  0  0
    0.5550   14.2880   -6.0320 C   0  0  1  0  0  0  0  0  0  0  0  0
    1.8240   13.6370   -6.6440 C   0  0  0  0  0  0  0  0  0  0  0  0
    2.5290   12.8670   -5.4980 C   0  0  0  0  0  0  0  0  0  0  0  0
    1.4840   12.8220   -4.3580 C   0  0  1  0  0  0  0  0  0  0  0  0
    0.5320   11.6430   -4.7330 C   0  0  0  0  0  0  0  0  0  0  0  0
    2.0490   12.6680   -2.9080 C   0  0  2  0  0  0  0  0  0  0  0  0
    2.8210   11.3640   -2.6440 C   0  0  0  0  0  0  0  0  0  0  0  0
    1.9970   10.2260   -2.1410 C   0  0  0  0  0  0  0  0  0  0  0  0
    0.7510   10.3230   -1.6410 C   0  0  0  0  0  0  0  0  0  0  0  0
    0.0820   11.6920   -1.4540 C   0  0  1  0  0  0  0  0  0  0  0  0
   -0.5700   11.7600   -0.0480 C   0  0  0  0  0  0  0  0  0  0  0  0
   -1.5300   10.6020    0.2090 C   0  0  0  0  0  0  0  0  0  0  0  0
   -0.8150    9.2610    0.0700 C   0  0  2  0  0  0  0  0  0  0  0  0
    0.1470    9.1400    1.1230 O   0  0  0  0  0  0  0  0  0  0  0  0
   -0.1100    9.0810   -1.3040 C   0  0  0  0  0  0  0  0  0  0  0  0
   -1.1740    8.9100   -2.4160 C   0  0  0  0  0  0  0  0  0  0  0  0
    0.6890    7.7510   -1.2600 C   0  0  0  0  0  0  0  0  0  0  0  0
    0.9920   12.9560   -1.7670 C   0  0  1  0  0  0  0  0  0  0  0  0
    1.8050   13.3540   -0.4970 C   0  0  0  0  0  0  0  0  0  0  0  0
    0.0670   14.1850   -2.1040 C   0  0  0  0  0  0  0  0  0  0  0  0
   -0.3600   14.3490   -3.5750 C   0  0  0  0  0  0  0  0  0  0  0  0
    0.8480   14.2510   -4.5110 C   0  0  2  0  0  0  0  0  0  0  0  0
    1.8130   15.4380   -4.1720 C   0  0  0  0  0  0  0  0  0  0  0  0
   -0.6559   16.2134   -4.7645 H   0  0  0  0  0  0  0  0  0  0  0  0
   -0.8667   17.4154   -6.0826 H   0  0  0  0  0  0  0  0  0  0  0  0
   -1.8361   15.9032   -6.0826 H   0  0  0  0  0  0  0  0  0  0  0  0
    1.1277   16.2838   -6.6254 H   0  0  0  0  0  0  0  0  0  0  0  0
    0.1450   14.4632   -8.4550 H   0  0  0  0  0  0  0  0  0  0  0  0
   -1.2541   15.6099   -8.1867 H   0  0  0  0  0  0  0  0  0  0  0  0
   -0.1390   16.5738   -9.9781 H   0  0  0  0  0  0  0  0  0  0  0  0
    0.5134   17.4611   -8.5380 H   0  0  0  0  0  0  0  0  0  0  0  0
    2.1639   16.0477   -8.3894 H   0  0  0  0  0  0  0  0  0  0  0  0
    0.3054   14.3099  -10.9384 H   0  0  0  0  0  0  0  0  0  0  0  0
    0.7436   15.5289  -12.1828 H   0  0  0  0  0  0  0  0  0  0  0  0
    1.5403   13.9189  -12.1828 H   0  0  0  0  0  0  0  0  0  0  0  0
    3.8413   14.3361   -9.6392 H   0  0  0  0  0  0  0  0  0  0  0  0
    3.3866   13.5613  -11.1946 H   0  0  0  0  0  0  0  0  0  0  0  0
    4.2579   15.1321  -11.1946 H   0  0  0  0  0  0  0  0  0  0  0  0
   -0.3864   13.7608   -6.2462 H   0  0  0  0  0  0  0  0  0  0  0  0
    1.5426   12.9429   -7.4496 H   0  0  0  0  0  0  0  0  0  0  0  0
    2.4896   14.3990   -7.0756 H   0  0  0  0  0  0  0  0  0  0  0  0
    2.7961   11.8498   -5.8204 H   0  0  0  0  0  0  0  0  0  0  0  0
    3.4667   13.3500   -5.1858 H   0  0  0  0  0  0  0  0  0  0  0  0
    0.1519   11.1723   -3.8144 H   0  0  0  0  0  0  0  0  0  0  0  0
   -0.3121   12.0272   -5.3244 H   0  0  0  0  0  0  0  0  0  0  0  0
    1.0854   10.8987   -5.3244 H   0  0  0  0  0  0  0  0  0  0  0  0
    2.7975   13.4726   -2.8594 H   0  0  0  0  0  0  0  0  0  0  0  0
    3.2926   11.0513   -3.5873 H   0  0  0  0  0  0  0  0  0  0  0  0
    3.5422   11.5936   -1.8458 H   0  0  0  0  0  0  0  0  0  0  0  0
    2.4460    9.2227   -2.1823 H   0  0  0  0  0  0  0  0  0  0  0  0
   -0.6948   11.7610   -2.2297 H   0  0  0  0  0  0  0  0  0  0  0  0
    0.2256   11.7335    0.7112 H   0  0  0  0  0  0  0  0  0  0  0  0
   -1.1504   12.6928    0.0059 H   0  0  0  0  0  0  0  0  0  0  0  0
   -1.9359   10.6899    1.2276 H   0  0  0  0  0  0  0  0  0  0  0  0
   -2.3410   10.6465   -0.5328 H   0  0  0  0  0  0  0  0  0  0  0  0
   -1.5788    8.4722    0.1363 H   0  0  0  0  0  0  0  0  0  0  0  0
    0.9300    9.6560    0.8680 H   0  0  0  0  0  0  0  0  0  0  0  0
   -2.1612    8.7513   -1.9576 H   0  0  0  0  0  0  0  0  0  0  0  0
   -1.2008    9.8154   -3.0402 H   0  0  0  0  0  0  0  0  0  0  0  0
   -0.9158    8.0418   -3.0402 H   0  0  0  0  0  0  0  0  0  0  0  0
    0.8626    7.4620   -0.2129 H   0  0  0  0  0  0  0  0  0  0  0  0
    0.1154    6.9617   -1.7679 H   0  0  0  0  0  0  0  0  0  0  0  0
    1.6552    7.8867   -1.7679 H   0  0  0  0  0  0  0  0  0  0  0  0
    1.2376   13.0762    0.4035 H   0  0  0  0  0  0  0  0  0  0  0  0
    2.7703   12.8266   -0.4994 H   0  0  0  0  0  0  0  0  0  0  0  0
    1.9805   14.4399   -0.4994 H   0  0  0  0  0  0  0  0  0  0  0  0
   -0.8476   14.0887   -1.5006 H   0  0  0  0  0  0  0  0  0  0  0  0
    0.6752   15.0736   -1.8796 H   0  0  0  0  0  0  0  0  0  0  0  0
   -1.0790   13.5569   -3.8314 H   0  0  0  0  0  0  0  0  0  0  0  0
   -0.8194   15.3409   -3.6982 H   0  0  0  0  0  0  0  0  0  0  0  0
    1.8973   15.5417   -3.0801 H   0  0  0  0  0  0  0  0  0  0  0  0
    2.8065   15.2363   -4.5989 H   0  0  0  0  0  0  0  0  0  0  0  0
    1.4127   16.3694   -4.5989 H   0  0  0  0  0  0  0  0  0  0  0  0
  1  2  1  0
  2  3  1  0
  3  4  1  0
  4  5  1  0
  5  6  1  0
  6  7  1  0
  7  8  1  0
  7  9  1  0
  2 10  1  0
 10 11  1  0
 11 12  1  0
 12 13  1  0
 13 14  1  6
 13 15  1  0
 15 16  1  0
 16 17  1  0
 17 18  2  0
 18 19  1  0
 19 20  1  0
 20 21  1  0
 21 22  1  0
 22 23  1  0
 22 24  1  0
 24 25  1  0
 24 26  1  0
 19 27  1  0
 27 28  1  1
 27 29  1  0
 29 30  1  0
 30 31  1  0
 31 32  1  1
  7  5  1  0
 31 10  1  0
 31 13  1  0
 27 15  1  0
 24 18  1  0
  1 33  1  0
  1 34  1  0
  1 35  1  0
  2 36  1  6
  3 37  1  0
  3 38  1  0
  4 39  1  0
  4 40  1  0
  5 41  1  1
  8 42  1  0
  8 43  1  0
  8 44  1  0
  9 45  1  0
  9 46  1  0
  9 47  1  0
 10 48  1  1
 11 49  1  0
 11 50  1  0
 12 51  1  0
 12 52  1  0
 14 53  1  0
 14 54  1  0
 14 55  1  0
 15 56  1  1
 16 57  1  0
 16 58  1  0
 17 59  1  0
 19 60  1  6
 20 61  1  0
 20 62  1  0
 21 63  1  0
 21 64  1  0
 22 65  1  1
 23 66  1  0
 25 67  1  0
 25 68  1  0
 25 69  1  0
 26 70  1  0
 26 71  1  0
 26 72  1  0
 28 73  1  0
 28 74  1  0
 28 75  1  0
 29 76  1  0
 29 77  1  0
 30 78  1  0
 30 79  1  0
 32 80  1  0
 32 81  1  0
 32 82  1  0
M  END
>  <meeko>  (10) 
{"is_sidechain": [false], "intermolecular_energy": 2.731, "internal_energy": -0.839}

$$$$
EPH_relaxed_0001_pdb2pqr_Repair_70_r2_0001_out
     RDKit          3D

 82 86  0  0  0  0  0  0  0  0999 V2000
   -0.4420   18.8530   -2.2110 C   0  0  0  0  0  0  0  0  0  0  0  0
    0.5670   18.3430   -1.1780 C   0  0  2  0  0  0  0  0  0  0  0  0
    1.7630   19.3010   -1.0120 C   0  0  0  0  0  0  0  0  0  0  0  0
    1.9930   19.7550    0.4330 C   0  0  0  0  0  0  0  0  0  0  0  0
    3.4360   19.6470    0.8250 C   0  0  2  0  0  0  0  0  0  0  0  0
    3.7460   18.5290    1.6660 O   0  0  0  0  0  0  0  0  0  0  0  0
    3.9320   19.8300    2.2470 C   0  0  0  0  0  0  0  0  0  0  0  0
    2.9900   20.1360    3.3690 C   0  0  0  0  0  0  0  0  0  0  0  0
    5.3680   20.1940    2.4620 C   0  0  0  0  0  0  0  0  0  0  0  0
    1.0610   16.9570   -1.5740 C   0  0  1  0  0  0  0  0  0  0  0  0
    2.5870   16.9240   -1.8540 C   0  0  0  0  0  0  0  0  0  0  0  0
    3.1010   15.5430   -1.3730 C   0  0  0  0  0  0  0  0  0  0  0  0
    1.8190   14.7080   -1.1430 C   0  0  1  0  0  0  0  0  0  0  0  0
    1.4090   14.2030   -2.5620 C   0  0  0  0  0  0  0  0  0  0  0  0
    1.9350   13.5300   -0.1210 C   0  0  2  0  0  0  0  0  0  0  0  0
    2.9320   12.4250   -0.5110 C   0  0  0  0  0  0  0  0  0  0  0  0
    2.3590   11.3030   -1.3110 C   0  0  0  0  0  0  0  0  0  0  0  0
    1.0480   11.0390   -1.4620 C   0  0  0  0  0  0  0  0  0  0  0  0
   -0.0110   11.8550   -0.7090 C   0  0  1  0  0  0  0  0  0  0  0  0
   -1.0510   10.8940   -0.0750 C   0  0  0  0  0  0  0  0  0  0  0  0
   -1.6660    9.9410   -1.0960 C   0  0  0  0  0  0  0  0  0  0  0  0
   -0.5870    9.1070   -1.7820 C   0  0  2  0  0  0  0  0  0  0  0  0
    0.0000    8.2290   -0.8160 O   0  0  0  0  0  0  0  0  0  0  0  0
    0.5220    9.9670   -2.4480 C   0  0  0  0  0  0  0  0  0  0  0  0
   -0.0560   10.6910   -3.6900 C   0  0  0  0  0  0  0  0  0  0  0  0
    1.6190    9.0050   -2.9790 C   0  0  0  0  0  0  0  0  0  0  0  0
    0.5450   12.9230    0.3280 C   0  0  1  0  0  0  0  0  0  0  0  0
    0.7810   12.2460    1.7130 C   0  0  0  0  0  0  0  0  0  0  0  0
   -0.5480   14.0340    0.5580 C   0  0  0  0  0  0  0  0  0  0  0  0
   -0.5350   15.2310   -0.4110 C   0  0  0  0  0  0  0  0  0  0  0  0
    0.8750   15.8140   -0.5440 C   0  0  2  0  0  0  0  0  0  0  0  0
    1.3050   16.3520    0.8630 C   0  0  0  0  0  0  0  0  0  0  0  0
   -1.3079   19.2907   -1.6927 H   0  0  0  0  0  0  0  0  0  0  0  0
    0.0337   19.6189   -2.8411 H   0  0  0  0  0  0  0  0  0  0  0  0
   -0.7766   18.0158   -2.8411 H   0  0  0  0  0  0  0  0  0  0  0  0
    0.0496   18.2903   -0.2087 H   0  0  0  0  0  0  0  0  0  0  0  0
    2.6703   18.7878   -1.3633 H   0  0  0  0  0  0  0  0  0  0  0  0
    1.5364   20.2027   -1.5998 H   0  0  0  0  0  0  0  0  0  0  0  0
    1.6740   20.8030    0.5325 H   0  0  0  0  0  0  0  0  0  0  0  0
    1.4077   19.1003    1.0955 H   0  0  0  0  0  0  0  0  0  0  0  0
    3.7531   20.0914   -0.1300 H   0  0  0  0  0  0  0  0  0  0  0  0
    3.4987   19.9708    4.3302 H   0  0  0  0  0  0  0  0  0  0  0  0
    2.6670   21.1853    3.3007 H   0  0  0  0  0  0  0  0  0  0  0  0
    2.1120   19.4769    3.3007 H   0  0  0  0  0  0  0  0  0  0  0  0
    5.5753   20.2466    3.5410 H   0  0  0  0  0  0  0  0  0  0  0  0
    6.0126   19.4308    2.0015 H   0  0  0  0  0  0  0  0  0  0  0  0
    5.5713   21.1721    2.0015 H   0  0  0  0  0  0  0  0  0  0  0  0
    0.4241   16.7788   -2.4530 H   0  0  0  0  0  0  0  0  0  0  0  0
    2.7771   17.0448   -2.9307 H   0  0  0  0  0  0  0  0  0  0  0  0
    3.1024   17.7417   -1.3288 H   0  0  0  0  0  0  0  0  0  0  0  0
    3.7360   15.0762   -2.1404 H   0  0  0  0  0  0  0  0  0  0  0  0
    3.7170   15.6203   -0.4650 H   0  0  0  0  0  0  0  0  0  0  0  0
    0.7185   13.3525   -2.4631 H   0  0  0  0  0  0  0  0  0  0  0  0
    0.9125   15.0164   -3.1114 H   0  0  0  0  0  0  0  0  0  0  0  0
    2.3071   13.8842   -3.1114 H   0  0  0  0  0  0  0  0  0  0  0  0
    2.3670   14.0240    0.7618 H   0  0  0  0  0  0  0  0  0  0  0  0
    3.7374   12.8866   -1.1012 H   0  0  0  0  0  0  0  0  0  0  0  0
    3.2778   11.9798    0.4336 H   0  0  0  0  0  0  0  0  0  0  0  0
    3.0687   10.6348   -1.8207 H   0  0  0  0  0  0  0  0  0  0  0  0
   -0.5000   12.4887   -1.4635 H   0  0  0  0  0  0  0  0  0  0  0  0
   -0.5527   10.3006    0.7057 H   0  0  0  0  0  0  0  0  0  0  0  0
   -1.8636   11.5083    0.3401 H   0  0  0  0  0  0  0  0  0  0  0  0
   -2.3691    9.2684   -0.5829 H   0  0  0  0  0  0  0  0  0  0  0  0
   -2.1898   10.5346   -1.8597 H   0  0  0  0  0  0  0  0  0  0  0  0
   -1.0722    8.5412   -2.5909 H   0  0  0  0  0  0  0  0  0  0  0  0
    0.8500    7.9230   -1.1750 H   0  0  0  0  0  0  0  0  0  0  0  0
   -0.7114   11.5120   -3.3638 H   0  0  0  0  0  0  0  0  0  0  0  0
    0.7684   11.0979   -4.2939 H   0  0  0  0  0  0  0  0  0  0  0  0
   -0.6354    9.9771   -4.2939 H   0  0  0  0  0  0  0  0  0  0  0  0
    2.1447    8.5440   -2.1298 H   0  0  0  0  0  0  0  0  0  0  0  0
    1.1526    8.2195   -3.5917 H   0  0  0  0  0  0  0  0  0  0  0  0
    2.3369    9.5700   -3.5917 H   0  0  0  0  0  0  0  0  0  0  0  0
    0.5333   12.9565    2.5154 H   0  0  0  0  0  0  0  0  0  0  0  0
    0.1400   11.3563    1.8002 H   0  0  0  0  0  0  0  0  0  0  0  0
    1.8362   11.9476    1.8002 H   0  0  0  0  0  0  0  0  0  0  0  0
   -1.5339   13.5525    0.4791 H   0  0  0  0  0  0  0  0  0  0  0  0
   -0.3216   14.4608    1.5462 H   0  0  0  0  0  0  0  0  0  0  0  0
   -0.8809   14.8968   -1.4003 H   0  0  0  0  0  0  0  0  0  0  0  0
   -1.2008   16.0111   -0.0134 H   0  0  0  0  0  0  0  0  0  0  0  0
    0.8241   15.7503    1.6483 H   0  0  0  0  0  0  0  0  0  0  0  0
    2.3980   16.2810    0.9644 H   0  0  0  0  0  0  0  0  0  0  0  0
    0.9948   17.4025    0.9644 H   0  0  0  0  0  0  0  0  0  0  0  0
  1  2  1  0
  2  3  1  0
  3  4  1  0
  4  5  1  0
  5  6  1  0
  6  7  1  0
  7  8  1  0
  7  9  1  0
  2 10  1  0
 10 11  1  0
 11 12  1  0
 12 13  1  0
 13 14  1  6
 13 15  1  0
 15 16  1  0
 16 17  1  0
 17 18  2  0
 18 19  1  0
 19 20  1  0
 20 21  1  0
 21 22  1  0
 22 23  1  0
 22 24  1  0
 24 25  1  0
 24 26  1  0
 19 27  1  0
 27 28  1  1
 27 29  1  0
 29 30  1  0
 30 31  1  0
 31 32  1  1
  7  5  1  0
 31 10  1  0
 31 13  1  0
 27 15  1  0
 24 18  1  0
  1 33  1  0
  1 34  1  0
  1 35  1  0
  2 36  1  1
  3 37  1  0
  3 38  1  0
  4 39  1  0
  4 40  1  0
  5 41  1  6
  8 42  1  0
  8 43  1  0
  8 44  1  0
  9 45  1  0
  9 46  1  0
  9 47  1  0
 10 48  1  6
 11 49  1  0
 11 50  1  0
 12 51  1  0
 12 52  1  0
 14 53  1  0
 14 54  1  0
 14 55  1  0
 15 56  1  1
 16 57  1  0
 16 58  1  0
 17 59  1  0
 19 60  1  6
 20 61  1  0
 20 62  1  0
 21 63  1  0
 21 64  1  0
 22 65  1  6
 23 66  1  0
 25 67  1  0
 25 68  1  0
 25 69  1  0
 26 70  1  0
 26 71  1  0
 26 72  1  0
 28 73  1  0
 28 74  1  0
 28 75  1  0
 29 76  1  0
 29 77  1  0
 30 78  1  0
 30 79  1  0
 32 80  1  0
 32 81  1  0
 32 82  1  0
M  END
>  <meeko>  (11) 
{"is_sidechain": [false], "intermolecular_energy": 2.731, "internal_energy": -0.839}

$$$$
EPH_relaxed_0001_pdb2pqr_Repair_70_r2_0001_out
     RDKit          3D

 82 86  0  0  0  0  0  0  0  0999 V2000
   -2.2800    7.8400   -2.2230 C   0  0  0  0  0  0  0  0  0  0  0  0
   -2.1780    8.4190   -0.8100 C   0  0  2  0  0  0  0  0  0  0  0  0
   -3.5310    8.3840   -0.0690 C   0  0  0  0  0  0  0  0  0  0  0  0
   -4.7430    8.4820   -0.9990 C   0  0  0  0  0  0  0  0  0  0  0  0
   -5.4950    7.1870   -1.0680 C   0  0  2  0  0  0  0  0  0  0  0  0
   -5.5840    6.6160   -2.3800 O   0  0  0  0  0  0  0  0  0  0  0  0
   -6.8240    7.0280   -1.7820 C   0  0  0  0  0  0  0  0  0  0  0  0
   -7.4800    8.1800   -2.4750 C   0  0  0  0  0  0  0  0  0  0  0  0
   -7.7130    5.8880   -1.3930 C   0  0  0  0  0  0  0  0  0  0  0  0
   -1.6540    9.8490   -0.8700 C   0  0  1  0  0  0  0  0  0  0  0  0
   -1.2110   10.3820    0.5190 C   0  0  0  0  0  0  0  0  0  0  0  0
    0.0080   11.3080    0.2740 C   0  0  0  0  0  0  0  0  0  0  0  0
    0.0200   11.5410   -1.2550 C   0  0  1  0  0  0  0  0  0  0  0  0
   -1.0390   12.6610   -1.4990 C   0  0  0  0  0  0  0  0  0  0  0  0
    1.4030   11.9060   -1.8870 C   0  0  2  0  0  0  0  0  0  0  0  0
    2.0190   13.2250   -1.3900 C   0  0  0  0  0  0  0  0  0  0  0  0
    1.6540   14.4380   -2.1810 C   0  0  0  0  0  0  0  0  0  0  0  0
    1.0980   14.4340   -3.4060 C   0  0  0  0  0  0  0  0  0  0  0  0
    0.8700   13.1200   -4.1640 C   0  0  1  0  0  0  0  0  0  0  0  0
    1.3590   13.2750   -5.6280 C   0  0  0  0  0  0  0  0  0  0  0  0
    0.7270   14.4720   -6.3320 C   0  0  0  0  0  0  0  0  0  0  0  0
    1.0240   15.7670   -5.5810 C   0  0  2  0  0  0  0  0  0  0  0  0
    2.4270   16.0340   -5.6600 O   0  0  0  0  0  0  0  0  0  0  0  0
    0.5830   15.7250   -4.0910 C   0  0  0  0  0  0  0  0  0  0  0  0
   -0.9630   15.7380   -4.0040 C   0  0  0  0  0  0  0  0  0  0  0  0
    1.0670   17.0350   -3.4130 C   0  0  0  0  0  0  0  0  0  0  0  0
    1.4390   11.8100   -3.4660 C   0  0  1  0  0  0  0  0  0  0  0  0
    2.9320   11.6000   -3.8650 C   0  0  0  0  0  0  0  0  0  0  0  0
    0.6540   10.5570   -4.0080 C   0  0  0  0  0  0  0  0  0  0  0  0
   -0.6410   10.1750   -3.2670 C   0  0  0  0  0  0  0  0  0  0  0  0
   -0.4100   10.1130   -1.7540 C   0  0  2  0  0  0  0  0  0  0  0  0
    0.6360    8.9790   -1.4760 C   0  0  0  0  0  0  0  0  0  0  0  0
   -2.4706    6.7583   -2.1631 H   0  0  0  0  0  0  0  0  0  0  0  0
   -3.1059    8.3286   -2.7607 H   0  0  0  0  0  0  0  0  0  0  0  0
   -1.3369    8.0170   -2.7607 H   0  0  0  0  0  0  0  0  0  0  0  0
   -1.4752    7.7894   -0.2446 H   0  0  0  0  0  0  0  0  0  0  0  0
   -3.5970    7.4386    0.4895 H   0  0  0  0  0  0  0  0  0  0  0  0
   -3.5596    9.2635    0.5911 H   0  0  0  0  0  0  0  0  0  0  0  0
   -5.4173    9.2663   -0.6244 H   0  0  0  0  0  0  0  0  0  0  0  0
   -4.3813    8.7228   -2.0095 H   0  0  0  0  0  0  0  0  0  0  0  0
   -5.1649    6.9142   -0.0548 H   0  0  0  0  0  0  0  0  0  0  0  0
   -7.8785    8.8799   -1.7258 H   0  0  0  0  0  0  0  0  0  0  0  0
   -6.7414    8.6981   -3.1044 H   0  0  0  0  0  0  0  0  0  0  0  0
   -8.3024    7.8092   -3.1044 H   0  0  0  0  0  0  0  0  0  0  0  0
   -7.7650    5.8213   -0.2963 H   0  0  0  0  0  0  0  0  0  0  0  0
   -8.7218    6.0548   -1.7985 H   0  0  0  0  0  0  0  0  0  0  0  0
   -7.3053    4.9502   -1.7985 H   0  0  0  0  0  0  0  0  0  0  0  0
   -2.5339   10.3504   -1.2993 H   0  0  0  0  0  0  0  0  0  0  0  0
   -2.0298   10.9490    0.9860 H   0  0  0  0  0  0  0  0  0  0  0  0
   -0.9492    9.5545    1.1947 H   0  0  0  0  0  0  0  0  0  0  0  0
   -0.1136   12.2603    0.8110 H   0  0  0  0  0  0  0  0  0  0  0  0
    0.9476   10.8651    0.6358 H   0  0  0  0  0  0  0  0  0  0  0  0
   -1.3992   13.0420   -0.5320 H   0  0  0  0  0  0  0  0  0  0  0  0
   -0.5795   13.4823   -2.0685 H   0  0  0  0  0  0  0  0  0  0  0  0
   -1.8847   12.2482   -2.0685 H   0  0  0  0  0  0  0  0  0  0  0  0
    2.0561   11.1082   -1.5037 H   0  0  0  0  0  0  0  0  0  0  0  0
    1.6898   13.3841   -0.3525 H   0  0  0  0  0  0  0  0  0  0  0  0
    3.1080   13.1103   -1.4943 H   0  0  0  0  0  0  0  0  0  0  0  0
    1.8569   15.4175   -1.7233 H   0  0  0  0  0  0  0  0  0  0  0  0
   -0.2159   12.9450   -4.1501 H   0  0  0  0  0  0  0  0  0  0  0  0
    2.4513   13.4051   -5.6231 H   0  0  0  0  0  0  0  0  0  0  0  0
    1.0618   12.3694   -6.1771 H   0  0  0  0  0  0  0  0  0  0  0  0
    1.1337   14.5458   -7.3514 H   0  0  0  0  0  0  0  0  0  0  0  0
   -0.3629   14.3260   -6.3618 H   0  0  0  0  0  0  0  0  0  0  0  0
    0.4400   16.5674   -6.0588 H   0  0  0  0  0  0  0  0  0  0  0  0
    2.5980   16.8560   -5.1690 H   0  0  0  0  0  0  0  0  0  0  0  0
   -1.2708   15.7406   -2.9479 H   0  0  0  0  0  0  0  0  0  0  0  0
   -1.3507   16.6394   -4.5011 H   0  0  0  0  0  0  0  0  0  0  0  0
   -1.3658   14.8432   -4.5011 H   0  0  0  0  0  0  0  0  0  0  0  0
    1.0243   16.9195   -2.3199 H   0  0  0  0  0  0  0  0  0  0  0  0
    2.1023   17.2456   -3.7193 H   0  0  0  0  0  0  0  0  0  0  0  0
    0.4173   17.8681   -3.7193 H   0  0  0  0  0  0  0  0  0  0  0  0
    3.5457   11.5137   -2.9562 H   0  0  0  0  0  0  0  0  0  0  0  0
    3.0265   10.6797   -4.4601 H   0  0  0  0  0  0  0  0  0  0  0  0
    3.2767   12.4585   -4.4601 H   0  0  0  0  0  0  0  0  0  0  0  0
    0.3904   10.7576   -5.0569 H   0  0  0  0  0  0  0  0  0  0  0  0
    1.3333    9.7049   -3.8583 H   0  0  0  0  0  0  0  0  0  0  0  0
   -1.4139   10.9275   -3.4823 H   0  0  0  0  0  0  0  0  0  0  0  0
   -0.9629    9.1818   -3.6133 H   0  0  0  0  0  0  0  0  0  0  0  0
    0.7560    8.8489   -0.3903 H   0  0  0  0  0  0  0  0  0  0  0  0
    0.2828    8.0372   -1.9213 H   0  0  0  0  0  0  0  0  0  0  0  0
    1.6032    9.2551   -1.9213 H   0  0  0  0  0  0  0  0  0  0  0  0
  1  2  1  0
  2  3  1  0
  3  4  1  0
  4  5  1  0
  5  6  1  0
  6  7  1  0
  7  8  1  0
  7  9  1  0
  2 10  1  0
 10 11  1  0
 11 12  1  0
 12 13  1  0
 13 14  1  1
 13 15  1  0
 15 16  1  0
 16 17  1  0
 17 18  2  0
 18 19  1  0
 19 20  1  0
 20 21  1  0
 21 22  1  0
 22 23  1  0
 22 24  1  0
 24 25  1  0
 24 26  1  0
 19 27  1  0
 27 28  1  6
 27 29  1  0
 29 30  1  0
 30 31  1  0
 31 32  1  6
  7  5  1  0
 31 10  1  0
 31 13  1  0
 27 15  1  0
 24 18  1  0
  1 33  1  0
  1 34  1  0
  1 35  1  0
  2 36  1  1
  3 37  1  0
  3 38  1  0
  4 39  1  0
  4 40  1  0
  5 41  1  1
  8 42  1  0
  8 43  1  0
  8 44  1  0
  9 45  1  0
  9 46  1  0
  9 47  1  0
 10 48  1  6
 11 49  1  0
 11 50  1  0
 12 51  1  0
 12 52  1  0
 14 53  1  0
 14 54  1  0
 14 55  1  0
 15 56  1  1
 16 57  1  0
 16 58  1  0
 17 59  1  0
 19 60  1  6
 20 61  1  0
 20 62  1  0
 21 63  1  0
 21 64  1  0
 22 65  1  6
 23 66  1  0
 25 67  1  0
 25 68  1  0
 25 69  1  0
 26 70  1  0
 26 71  1  0
 26 72  1  0
 28 73  1  0
 28 74  1  0
 28 75  1  0
 29 76  1  0
 29 77  1  0
 30 78  1  0
 30 79  1  0
 32 80  1  0
 32 81  1  0
 32 82  1  0
M  END
>  <meeko>  (12) 
{"is_sidechain": [false], "intermolecular_energy": 2.731, "internal_energy": -0.839}

$$$$
EPH_relaxed_0001_pdb2pqr_Repair_70_r2_0001_out
     RDKit          3D

 82 86  0  0  0  0  0  0  0  0999 V2000
  -15.2870    8.4400    0.2370 C   0  0  0  0  0  0  0  0  0  0  0  0
  -14.4380    8.9180   -0.9440 C   0  0  2  0  0  0  0  0  0  0  0  0
  -14.7110    8.1030   -2.2230 C   0  0  0  0  0  0  0  0  0  0  0  0
  -14.6460    8.9340   -3.5080 C   0  0  0  0  0  0  0  0  0  0  0  0
  -15.2870   10.2770   -3.3330 C   0  0  2  0  0  0  0  0  0  0  0  0
  -14.8810   11.2640   -4.2900 O   0  0  0  0  0  0  0  0  0  0  0  0
  -14.5230   11.5220   -2.9220 C   0  0  0  0  0  0  0  0  0  0  0  0
  -13.0500   11.4830   -2.6600 C   0  0  0  0  0  0  0  0  0  0  0  0
  -15.2810   12.6560   -2.3040 C   0  0  0  0  0  0  0  0  0  0  0  0
  -12.9590    8.8440   -0.5840 C   0  0  1  0  0  0  0  0  0  0  0  0
  -12.7050    9.0110    0.9380 C   0  0  0  0  0  0  0  0  0  0  0  0
  -11.5000    8.1020    1.2930 C   0  0  0  0  0  0  0  0  0  0  0  0
  -10.8960    7.7040   -0.0740 C   0  0  1  0  0  0  0  0  0  0  0  0
  -10.0150    8.9220   -0.4930 C   0  0  0  0  0  0  0  0  0  0  0  0
  -10.0860    6.3670   -0.1090 C   0  0  2  0  0  0  0  0  0  0  0  0
   -8.8300    6.3420    0.7800 C   0  0  0  0  0  0  0  0  0  0  0  0
   -7.5710    6.7940    0.1170 C   0  0  0  0  0  0  0  0  0  0  0  0
   -7.3920    6.9330   -1.2100 C   0  0  0  0  0  0  0  0  0  0  0  0
   -8.4920    6.5290   -2.2000 C   0  0  1  0  0  0  0  0  0  0  0  0
   -7.8710    5.6940   -3.3510 C   0  0  0  0  0  0  0  0  0  0  0  0
   -6.7080    6.4100   -4.0310 C   0  0  0  0  0  0  0  0  0  0  0  0
   -5.6090    6.7440   -3.0250 C   0  0  2  0  0  0  0  0  0  0  0  0
   -5.0250    5.5240   -2.5590 O   0  0  0  0  0  0  0  0  0  0  0  0
   -6.1190    7.5750   -1.8150 C   0  0  0  0  0  0  0  0  0  0  0  0
   -6.4720    9.0090   -2.2800 C   0  0  0  0  0  0  0  0  0  0  0  0
   -4.9460    7.7220   -0.8080 C   0  0  0  0  0  0  0  0  0  0  0  0
   -9.7740    5.8350   -1.5660 C   0  0  1  0  0  0  0  0  0  0  0  0
   -9.5400    4.2990   -1.4400 C   0  0  0  0  0  0  0  0  0  0  0  0
  -10.9940    6.0200   -2.5440 C   0  0  0  0  0  0  0  0  0  0  0  0
  -11.8270    7.3060   -2.3810 C   0  0  0  0  0  0  0  0  0  0  0  0
  -12.2120    7.5270   -0.9150 C   0  0  2  0  0  0  0  0  0  0  0  0
  -13.1180    6.3280   -0.4720 C   0  0  0  0  0  0  0  0  0  0  0  0
  -14.7932    8.7180    1.1798 H   0  0  0  0  0  0  0  0  0  0  0  0
  -16.2795    8.9119    0.1898 H   0  0  0  0  0  0  0  0  0  0  0  0
  -15.3982    7.3467    0.1898 H   0  0  0  0  0  0  0  0  0  0  0  0
  -14.7180    9.9612   -1.1523 H   0  0  0  0  0  0  0  0  0  0  0  0
  -13.9616    7.3005   -2.2901 H   0  0  0  0  0  0  0  0  0  0  0  0
  -15.7367    7.7137   -2.1434 H   0  0  0  0  0  0  0  0  0  0  0  0
  -13.5917    9.0760   -3.7876 H   0  0  0  0  0  0  0  0  0  0  0  0
  -15.1931    8.3929   -4.2941 H   0  0  0  0  0  0  0  0  0  0  0  0
  -16.2058    9.8135   -2.9445 H   0  0  0  0  0  0  0  0  0  0  0  0
  -12.8706   11.4783   -1.5747 H   0  0  0  0  0  0  0  0  0  0  0  0
  -12.6221   10.5732   -3.1063 H   0  0  0  0  0  0  0  0  0  0  0  0
  -12.5746   12.3689   -3.1063 H   0  0  0  0  0  0  0  0  0  0  0  0
  -15.2288   12.5778   -1.2080 H   0  0  0  0  0  0  0  0  0  0  0  0
  -14.8388   13.6107   -2.6250 H   0  0  0  0  0  0  0  0  0  0  0  0
  -16.3322   12.6125   -2.6250 H   0  0  0  0  0  0  0  0  0  0  0  0
  -12.5755    9.6627   -1.2106 H   0  0  0  0  0  0  0  0  0  0  0  0
  -12.4693   10.0601    1.1698 H   0  0  0  0  0  0  0  0  0  0  0  0
  -13.5956    8.7314    1.5200 H   0  0  0  0  0  0  0  0  0  0  0  0
  -10.7637    8.6517    1.8977 H   0  0  0  0  0  0  0  0  0  0  0  0
  -11.7988    7.2264    1.8880 H   0  0  0  0  0  0  0  0  0  0  0  0
   -9.6448    9.4338    0.4076 H   0  0  0  0  0  0  0  0  0  0  0  0
   -9.1619    8.5690   -1.0910 H   0  0  0  0  0  0  0  0  0  0  0  0
  -10.6173    9.6218   -1.0910 H   0  0  0  0  0  0  0  0  0  0  0  0
  -10.7889    5.6538    0.3463 H   0  0  0  0  0  0  0  0  0  0  0  0
   -9.0126    6.9965    1.6450 H   0  0  0  0  0  0  0  0  0  0  0  0
   -8.6699    5.2881    1.0514 H   0  0  0  0  0  0  0  0  0  0  0  0
   -6.7173    7.0338    0.7680 H   0  0  0  0  0  0  0  0  0  0  0  0
   -8.9024    7.4682   -2.5993 H   0  0  0  0  0  0  0  0  0  0  0  0
   -7.5063    4.7416   -2.9388 H   0  0  0  0  0  0  0  0  0  0  0  0
   -8.6533    5.5343   -4.1076 H   0  0  0  0  0  0  0  0  0  0  0  0
   -6.2930    5.7588   -4.8144 H   0  0  0  0  0  0  0  0  0  0  0  0
   -7.0807    7.3482   -4.4679 H   0  0  0  0  0  0  0  0  0  0  0  0
   -4.8655    7.3678   -3.5428 H   0  0  0  0  0  0  0  0  0  0  0  0
   -5.5370    5.2280   -1.7870 H   0  0  0  0  0  0  0  0  0  0  0  0
   -6.6300    9.6510   -1.4009 H   0  0  0  0  0  0  0  0  0  0  0  0
   -5.6463    9.4121   -2.8847 H   0  0  0  0  0  0  0  0  0  0  0  0
   -7.3905    8.9827   -2.8847 H   0  0  0  0  0  0  0  0  0  0  0  0
   -5.3363    7.6731    0.2193 H   0  0  0  0  0  0  0  0  0  0  0  0
   -4.2237    6.9073   -0.9650 H   0  0  0  0  0  0  0  0  0  0  0  0
   -4.4471    8.6897   -0.9650 H   0  0  0  0  0  0  0  0  0  0  0  0
   -9.4976    4.0206   -0.3767 H   0  0  0  0  0  0  0  0  0  0  0  0
  -10.3665    3.7610   -1.9272 H   0  0  0  0  0  0  0  0  0  0  0  0
   -8.5907    4.0315   -1.9272 H   0  0  0  0  0  0  0  0  0  0  0  0
  -10.6017    6.0057   -3.5716 H   0  0  0  0  0  0  0  0  0  0  0  0
  -11.6837    5.1980   -2.3021 H   0  0  0  0  0  0  0  0  0  0  0  0
  -11.2355    8.1648   -2.7312 H   0  0  0  0  0  0  0  0  0  0  0  0
  -12.7478    7.2053   -2.9744 H   0  0  0  0  0  0  0  0  0  0  0  0
  -13.1532    6.2814    0.6264 H   0  0  0  0  0  0  0  0  0  0  0  0
  -14.1350    6.4719   -0.8657 H   0  0  0  0  0  0  0  0  0  0  0  0
  -12.7019    5.3890   -0.8657 H   0  0  0  0  0  0  0  0  0  0  0  0
  1  2  1  0
  2  3  1  0
  3  4  1  0
  4  5  1  0
  5  6  1  0
  6  7  1  0
  7  8  1  0
  7  9  1  0
  2 10  1  0
 10 11  1  0
 11 12  1  0
 12 13  1  0
 13 14  1  6
 13 15  1  0
 15 16  1  0
 16 17  1  0
 17 18  2  0
 18 19  1  0
 19 20  1  0
 20 21  1  0
 21 22  1  0
 22 23  1  0
 22 24  1  0
 24 25  1  0
 24 26  1  0
 19 27  1  0
 27 28  1  1
 27 29  1  0
 29 30  1  0
 30 31  1  0
 31 32  1  1
  7  5  1  0
 31 10  1  0
 31 13  1  0
 27 15  1  0
 24 18  1  0
  1 33  1  0
  1 34  1  0
  1 35  1  0
  2 36  1  6
  3 37  1  0
  3 38  1  0
  4 39  1  0
  4 40  1  0
  5 41  1  1
  8 42  1  0
  8 43  1  0
  8 44  1  0
  9 45  1  0
  9 46  1  0
  9 47  1  0
 10 48  1  6
 11 49  1  0
 11 50  1  0
 12 51  1  0
 12 52  1  0
 14 53  1  0
 14 54  1  0
 14 55  1  0
 15 56  1  1
 16 57  1  0
 16 58  1  0
 17 59  1  0
 19 60  1  6
 20 61  1  0
 20 62  1  0
 21 63  1  0
 21 64  1  0
 22 65  1  6
 23 66  1  0
 25 67  1  0
 25 68  1  0
 25 69  1  0
 26 70  1  0
 26 71  1  0
 26 72  1  0
 28 73  1  0
 28 74  1  0
 28 75  1  0
 29 76  1  0
 29 77  1  0
 30 78  1  0
 30 79  1  0
 32 80  1  0
 32 81  1  0
 32 82  1  0
M  END
>  <meeko>  (13) 
{"is_sidechain": [false], "intermolecular_energy": 2.731, "internal_energy": -0.839}

$$$$
EPH_relaxed_0001_pdb2pqr_Repair_70_r2_0001_out
     RDKit          3D

 82 86  0  0  0  0  0  0  0  0999 V2000
    0.1290    9.7990   -4.5030 C   0  0  0  0  0  0  0  0  0  0  0  0
    1.2160   10.5480   -3.7280 C   0  0  2  0  0  0  0  0  0  0  0  0
    1.7140    9.7490   -2.5070 C   0  0  0  0  0  0  0  0  0  0  0  0
    0.7520    8.6450   -2.0600 C   0  0  0  0  0  0  0  0  0  0  0  0
   -0.1250    9.0970   -0.9310 C   0  0  2  0  0  0  0  0  0  0  0  0
   -0.7260    8.0350   -0.1780 O   0  0  0  0  0  0  0  0  0  0  0  0
   -1.6270    8.8880   -0.9040 C   0  0  0  0  0  0  0  0  0  0  0  0
   -2.3410    8.2030   -2.0270 C   0  0  0  0  0  0  0  0  0  0  0  0
   -2.4570    9.7730   -0.0270 C   0  0  0  0  0  0  0  0  0  0  0  0
    0.6940   11.9090   -3.2830 C   0  0  1  0  0  0  0  0  0  0  0  0
   -0.8040   11.8700   -2.8770 C   0  0  0  0  0  0  0  0  0  0  0  0
   -0.9760   12.8750   -1.7090 C   0  0  0  0  0  0  0  0  0  0  0  0
    0.3360   13.6940   -1.7020 C   0  0  1  0  0  0  0  0  0  0  0  0
    0.1450   14.7670   -2.8200 C   0  0  0  0  0  0  0  0  0  0  0  0
    0.7360   14.3460   -0.3380 C   0  0  2  0  0  0  0  0  0  0  0  0
   -0.2580   15.3890    0.2020 C   0  0  0  0  0  0  0  0  0  0  0  0
   -0.0010   16.7960   -0.2250 C   0  0  0  0  0  0  0  0  0  0  0  0
    1.1410   17.2510   -0.7740 C   0  0  0  0  0  0  0  0  0  0  0  0
    2.3620   16.3340   -0.9250 C   0  0  1  0  0  0  0  0  0  0  0  0
    3.6320   17.0800   -0.4380 C   0  0  0  0  0  0  0  0  0  0  0  0
    3.8230   18.4250   -1.1320 C   0  0  0  0  0  0  0  0  0  0  0  0
    2.6140   19.3300   -0.9100 C   0  0  2  0  0  0  0  0  0  0  0  0
    2.5440   19.6750    0.4770 O   0  0  0  0  0  0  0  0  0  0  0  0
    1.2730   18.6800   -1.3550 C   0  0  0  0  0  0  0  0  0  0  0  0
    1.2300   18.5830   -2.9000 C   0  0  0  0  0  0  0  0  0  0  0  0
    0.1210   19.6380   -0.9470 C   0  0  0  0  0  0  0  0  0  0  0  0
    2.2230   14.8850   -0.2890 C   0  0  1  0  0  0  0  0  0  0  0  0
    2.6330   14.9220    1.2150 C   0  0  0  0  0  0  0  0  0  0  0  0
    3.2350   13.9120   -1.0010 C   0  0  0  0  0  0  0  0  0  0  0  0
    2.7390   13.2060   -2.2770 C   0  0  0  0  0  0  0  0  0  0  0  0
    1.3680   12.5610   -2.0500 C   0  0  2  0  0  0  0  0  0  0  0  0
    1.5330   11.4620   -0.9460 C   0  0  0  0  0  0  0  0  0  0  0  0
   -0.5637    9.3217   -3.7943 H   0  0  0  0  0  0  0  0  0  0  0  0
   -0.4248   10.5081   -5.1358 H   0  0  0  0  0  0  0  0  0  0  0  0
    0.5944    9.0290   -5.1358 H   0  0  0  0  0  0  0  0  0  0  0  0
    2.0720   10.6824   -4.4057 H   0  0  0  0  0  0  0  0  0  0  0  0
    2.6781    9.2862   -2.7645 H   0  0  0  0  0  0  0  0  0  0  0  0
    1.7992   10.4590   -1.6712 H   0  0  0  0  0  0  0  0  0  0  0  0
    0.1174    8.3588   -2.9117 H   0  0  0  0  0  0  0  0  0  0  0  0
    1.3497    7.7909   -1.7090 H   0  0  0  0  0  0  0  0  0  0  0  0
    0.4985    9.9892   -0.7722 H   0  0  0  0  0  0  0  0  0  0  0  0
   -3.0774    7.4965   -1.6165 H   0  0  0  0  0  0  0  0  0  0  0  0
   -2.8569    8.9527   -2.6449 H   0  0  0  0  0  0  0  0  0  0  0  0
   -1.6134    7.6564   -2.6449 H   0  0  0  0  0  0  0  0  0  0  0  0
   -2.2447    9.5466    1.0283 H   0  0  0  0  0  0  0  0  0  0  0  0
   -2.2130   10.8257   -0.2325 H   0  0  0  0  0  0  0  0  0  0  0  0
   -3.5232    9.5969   -0.2325 H   0  0  0  0  0  0  0  0  0  0  0  0
    0.9151   12.4960   -4.1867 H   0  0  0  0  0  0  0  0  0  0  0  0
   -1.4351   12.1662   -3.7279 H   0  0  0  0  0  0  0  0  0  0  0  0
   -1.1053   10.8564   -2.5741 H   0  0  0  0  0  0  0  0  0  0  0  0
   -1.8418   13.5303   -1.8850 H   0  0  0  0  0  0  0  0  0  0  0  0
   -1.1579   12.3708   -0.7484 H   0  0  0  0  0  0  0  0  0  0  0  0
   -0.0300   15.7501   -2.3586 H   0  0  0  0  0  0  0  0  0  0  0  0
    1.0495   14.8108   -3.4445 H   0  0  0  0  0  0  0  0  0  0  0  0
   -0.7190   14.4960   -3.4445 H   0  0  0  0  0  0  0  0  0  0  0  0
    0.6823   13.4944    0.3561 H   0  0  0  0  0  0  0  0  0  0  0  0
   -1.2648   15.1083   -0.1409 H   0  0  0  0  0  0  0  0  0  0  0  0
   -0.1460   15.3779    1.2962 H   0  0  0  0  0  0  0  0  0  0  0  0
   -0.8136   17.5228   -0.0787 H   0  0  0  0  0  0  0  0  0  0  0  0
    2.4474   16.1141   -1.9994 H   0  0  0  0  0  0  0  0  0  0  0  0
    3.5467   17.2512    0.6452 H   0  0  0  0  0  0  0  0  0  0  0  0
    4.5018   16.4523   -0.6816 H   0  0  0  0  0  0  0  0  0  0  0  0
    4.7195   18.9158   -0.7254 H   0  0  0  0  0  0  0  0  0  0  0  0
    3.9368   18.2498   -2.2120 H   0  0  0  0  0  0  0  0  0  0  0  0
    2.7524   20.2246   -1.5349 H   0  0  0  0  0  0  0  0  0  0  0  0
    2.2080   20.5850    0.5370 H   0  0  0  0  0  0  0  0  0  0  0  0
    0.8005   17.6142   -3.1947 H   0  0  0  0  0  0  0  0  0  0  0  0
    0.6084   19.3970   -3.3013 H   0  0  0  0  0  0  0  0  0  0  0  0
    2.2506   18.6690   -3.3013 H   0  0  0  0  0  0  0  0  0  0  0  0
    0.0585   19.6900    0.1500 H   0  0  0  0  0  0  0  0  0  0  0  0
    0.3185   20.6419   -1.3510 H   0  0  0  0  0  0  0  0  0  0  0  0
   -0.8300   19.2608   -1.3510 H   0  0  0  0  0  0  0  0  0  0  0  0
    1.7332   14.8408    1.8424 H   0  0  0  0  0  0  0  0  0  0  0  0
    3.3083   14.0811    1.4318 H   0  0  0  0  0  0  0  0  0  0  0  0
    3.1468   15.8702    1.4318 H   0  0  0  0  0  0  0  0  0  0  0  0
    4.1265   14.4977   -1.2699 H   0  0  0  0  0  0  0  0  0  0  0  0
    3.4153   13.1040   -0.2767 H   0  0  0  0  0  0  0  0  0  0  0  0
    2.6593   13.9441   -3.0887 H   0  0  0  0  0  0  0  0  0  0  0  0
    3.4578   12.4169   -2.5429 H   0  0  0  0  0  0  0  0  0  0  0  0
    1.4631   11.9276    0.0482 H   0  0  0  0  0  0  0  0  0  0  0  0
    0.7377   10.7100   -1.0555 H   0  0  0  0  0  0  0  0  0  0  0  0
    2.5141   10.9767   -1.0555 H   0  0  0  0  0  0  0  0  0  0  0  0
  1  2  1  0
  2  3  1  0
  3  4  1  0
  4  5  1  0
  5  6  1  0
  6  7  1  0
  7  8  1  0
  7  9  1  0
  2 10  1  0
 10 11  1  0
 11 12  1  0
 12 13  1  0
 13 14  1  6
 13 15  1  0
 15 16  1  0
 16 17  1  0
 17 18  2  0
 18 19  1  0
 19 20  1  0
 20 21  1  0
 21 22  1  0
 22 23  1  0
 22 24  1  0
 24 25  1  0
 24 26  1  0
 19 27  1  0
 27 28  1  1
 27 29  1  0
 29 30  1  0
 30 31  1  0
 31 32  1  1
  7  5  1  0
 31 10  1  0
 31 13  1  0
 27 15  1  0
 24 18  1  0
  1 33  1  0
  1 34  1  0
  1 35  1  0
  2 36  1  6
  3 37  1  0
  3 38  1  0
  4 39  1  0
  4 40  1  0
  5 41  1  1
  8 42  1  0
  8 43  1  0
  8 44  1  0
  9 45  1  0
  9 46  1  0
  9 47  1  0
 10 48  1  6
 11 49  1  0
 11 50  1  0
 12 51  1  0
 12 52  1  0
 14 53  1  0
 14 54  1  0
 14 55  1  0
 15 56  1  1
 16 57  1  0
 16 58  1  0
 17 59  1  0
 19 60  1  6
 20 61  1  0
 20 62  1  0
 21 63  1  0
 21 64  1  0
 22 65  1  6
 23 66  1  0
 25 67  1  0
 25 68  1  0
 25 69  1  0
 26 70  1  0
 26 71  1  0
 26 72  1  0
 28 73  1  0
 28 74  1  0
 28 75  1  0
 29 76  1  0
 29 77  1  0
 30 78  1  0
 30 79  1  0
 32 80  1  0
 32 81  1  0
 32 82  1  0
M  END
>  <meeko>  (14) 
{"is_sidechain": [false], "intermolecular_energy": 2.731, "internal_energy": -0.839}

$$$$
EPH_relaxed_0001_pdb2pqr_Repair_70_r2_0001_out
     RDKit          3D

 82 86  0  0  0  0  0  0  0  0999 V2000
   -0.0720    9.6620   -2.8270 C   0  0  0  0  0  0  0  0  0  0  0  0
    1.2800   10.3800   -2.8240 C   0  0  2  0  0  0  0  0  0  0  0  0
    2.4390    9.4340   -2.4480 C   0  0  0  0  0  0  0  0  0  0  0  0
    3.8180   10.0960   -2.5090 C   0  0  0  0  0  0  0  0  0  0  0  0
    4.1200   10.6230   -3.8790 C   0  0  2  0  0  0  0  0  0  0  0  0
    4.7830    9.6940   -4.7460 O   0  0  0  0  0  0  0  0  0  0  0  0
    5.5270   10.8700   -4.3900 C   0  0  0  0  0  0  0  0  0  0  0  0
    6.7260   10.5970   -3.5360 C   0  0  0  0  0  0  0  0  0  0  0  0
    5.7190   11.8290   -5.5240 C   0  0  0  0  0  0  0  0  0  0  0  0
    1.2400   11.5620   -1.8620 C   0  0  1  0  0  0  0  0  0  0  0  0
    2.2510   11.4160   -0.6940 C   0  0  0  0  0  0  0  0  0  0  0  0
    2.7650   12.8410   -0.3670 C   0  0  0  0  0  0  0  0  0  0  0  0
    1.8000   13.7870   -1.1200 C   0  0  1  0  0  0  0  0  0  0  0  0
    0.5440   13.8930   -0.2000 C   0  0  0  0  0  0  0  0  0  0  0  0
    2.3640   15.1970   -1.4920 C   0  0  2  0  0  0  0  0  0  0  0  0
    2.7560   16.0800   -0.2940 C   0  0  0  0  0  0  0  0  0  0  0  0
    1.6710   16.9620    0.2290 C   0  0  0  0  0  0  0  0  0  0  0  0
    0.5240   17.2550   -0.4110 C   0  0  0  0  0  0  0  0  0  0  0  0
    0.2690   16.7560   -1.8390 C   0  0  1  0  0  0  0  0  0  0  0  0
   -0.2770   17.9220   -2.7050 C   0  0  0  0  0  0  0  0  0  0  0  0
   -1.5070   18.5820   -2.0890 C   0  0  0  0  0  0  0  0  0  0  0  0
   -1.1980   19.1160   -0.6930 C   0  0  2  0  0  0  0  0  0  0  0  0
   -0.2620   20.1930   -0.8080 O   0  0  0  0  0  0  0  0  0  0  0  0
   -0.6320   18.0320    0.2670 C   0  0  0  0  0  0  0  0  0  0  0  0
   -1.7490   17.0240    0.6300 C   0  0  0  0  0  0  0  0  0  0  0  0
   -0.2300   18.7320    1.5930 C   0  0  0  0  0  0  0  0  0  0  0  0
    1.4790   15.9940   -2.5330 C   0  0  1  0  0  0  0  0  0  0  0  0
    2.4250   17.0210   -3.2280 C   0  0  0  0  0  0  0  0  0  0  0  0
    0.9150   15.0670   -3.6740 C   0  0  0  0  0  0  0  0  0  0  0  0
    0.4860   13.6450   -3.2650 C   0  0  0  0  0  0  0  0  0  0  0  0
    1.5780   12.9590   -2.4380 C   0  0  2  0  0  0  0  0  0  0  0  0
    2.8480   12.8190   -3.3450 C   0  0  0  0  0  0  0  0  0  0  0  0
   -0.3976    9.4891   -1.7906 H   0  0  0  0  0  0  0  0  0  0  0  0
   -0.8162   10.2837   -3.3463 H   0  0  0  0  0  0  0  0  0  0  0  0
    0.0263    8.6973   -3.3463 H   0  0  0  0  0  0  0  0  0  0  0  0
    1.4653   10.7397   -3.8469 H   0  0  0  0  0  0  0  0  0  0  0  0
    2.2728    9.0715   -1.4228 H   0  0  0  0  0  0  0  0  0  0  0  0
    2.4409    8.6186   -3.1863 H   0  0  0  0  0  0  0  0  0  0  0  0
    3.8450   10.9300   -1.7923 H   0  0  0  0  0  0  0  0  0  0  0  0
    4.5740    9.3369   -2.2594 H   0  0  0  0  0  0  0  0  0  0  0  0
    3.2208   11.2563   -3.8582 H   0  0  0  0  0  0  0  0  0  0  0  0
    6.4428   10.6615   -2.4750 H   0  0  0  0  0  0  0  0  0  0  0  0
    7.1087    9.5887   -3.7528 H   0  0  0  0  0  0  0  0  0  0  0  0
    7.5075   11.3402   -3.7528 H   0  0  0  0  0  0  0  0  0  0  0  0
    5.9202   12.8339   -5.1243 H   0  0  0  0  0  0  0  0  0  0  0  0
    6.5696   11.5025   -6.1403 H   0  0  0  0  0  0  0  0  0  0  0  0
    4.8083   11.8551   -6.1403 H   0  0  0  0  0  0  0  0  0  0  0  0
    0.1812   11.5233   -1.5663 H   0  0  0  0  0  0  0  0  0  0  0  0
    1.7534   10.9816    0.1856 H   0  0  0  0  0  0  0  0  0  0  0  0
    3.0817   10.7504   -0.9715 H   0  0  0  0  0  0  0  0  0  0  0  0
    2.7261   13.0287    0.7162 H   0  0  0  0  0  0  0  0  0  0  0  0
    3.8123   12.9862   -0.6703 H   0  0  0  0  0  0  0  0  0  0  0  0
    0.8581   13.8665    0.8539 H   0  0  0  0  0  0  0  0  0  0  0  0
    0.0198   14.8386   -0.4027 H   0  0  0  0  0  0  0  0  0  0  0  0
   -0.1313   13.0487   -0.4027 H   0  0  0  0  0  0  0  0  0  0  0  0
    3.3074   14.9478   -1.9998 H   0  0  0  0  0  0  0  0  0  0  0  0
    3.0810   15.4195    0.5234 H   0  0  0  0  0  0  0  0  0  0  0  0
    3.5470   16.7526   -0.6572 H   0  0  0  0  0  0  0  0  0  0  0  0
    1.8219   17.4106    1.2220 H   0  0  0  0  0  0  0  0  0  0  0  0
   -0.4920   15.9662   -1.7546 H   0  0  0  0  0  0  0  0  0  0  0  0
    0.5126   18.6801   -2.8140 H   0  0  0  0  0  0  0  0  0  0  0  0
   -0.5743   17.5043   -3.6782 H   0  0  0  0  0  0  0  0  0  0  0  0
   -1.8274   19.4160   -2.7307 H   0  0  0  0  0  0  0  0  0  0  0  0
   -2.3057   17.8299   -2.0084 H   0  0  0  0  0  0  0  0  0  0  0  0
   -2.1465   19.4589   -0.2539 H   0  0  0  0  0  0  0  0  0  0  0  0
    0.0250   20.2350   -1.7360 H   0  0  0  0  0  0  0  0  0  0  0  0
   -1.8330   16.9482    1.7242 H   0  0  0  0  0  0  0  0  0  0  0  0
   -2.7056   17.3705    0.2119 H   0  0  0  0  0  0  0  0  0  0  0  0
   -1.5022   16.0369    0.2119 H   0  0  0  0  0  0  0  0  0  0  0  0
   -0.5762   18.1291    2.4455 H   0  0  0  0  0  0  0  0  0  0  0  0
    0.8644   18.8342    1.6366 H   0  0  0  0  0  0  0  0  0  0  0  0
   -0.6933   19.7287    1.6366 H   0  0  0  0  0  0  0  0  0  0  0  0
    2.9605   17.6023   -2.4629 H   0  0  0  0  0  0  0  0  0  0  0  0
    3.1514   16.4840   -3.8556 H   0  0  0  0  0  0  0  0  0  0  0  0
    1.8302   17.7010   -3.8556 H   0  0  0  0  0  0  0  0  0  0  0  0
    0.0364   15.5683   -4.1063 H   0  0  0  0  0  0  0  0  0  0  0  0
    1.7541   14.9253   -4.3710 H   0  0  0  0  0  0  0  0  0  0  0  0
   -0.4346   13.7053   -2.6659 H   0  0  0  0  0  0  0  0  0  0  0  0
    0.3141   13.0547   -4.1771 H   0  0  0  0  0  0  0  0  0  0  0  0
    3.7419   12.7205   -2.7116 H   0  0  0  0  0  0  0  0  0  0  0  0
    2.7484   11.9264   -3.9801 H   0  0  0  0  0  0  0  0  0  0  0  0
    2.9453   13.7119   -3.9801 H   0  0  0  0  0  0  0  0  0  0  0  0
  1  2  1  0
  2  3  1  0
  3  4  1  0
  4  5  1  0
  5  6  1  0
  6  7  1  0
  7  8  1  0
  7  9  1  0
  2 10  1  0
 10 11  1  0
 11 12  1  0
 12 13  1  0
 13 14  1  1
 13 15  1  0
 15 16  1  0
 16 17  1  0
 17 18  2  0
 18 19  1  0
 19 20  1  0
 20 21  1  0
 21 22  1  0
 22 23  1  0
 22 24  1  0
 24 25  1  0
 24 26  1  0
 19 27  1  0
 27 28  1  6
 27 29  1  0
 29 30  1  0
 30 31  1  0
 31 32  1  6
  7  5  1  0
 31 10  1  0
 31 13  1  0
 27 15  1  0
 24 18  1  0
  1 33  1  0
  1 34  1  0
  1 35  1  0
  2 36  1  6
  3 37  1  0
  3 38  1  0
  4 39  1  0
  4 40  1  0
  5 41  1  6
  8 42  1  0
  8 43  1  0
  8 44  1  0
  9 45  1  0
  9 46  1  0
  9 47  1  0
 10 48  1  1
 11 49  1  0
 11 50  1  0
 12 51  1  0
 12 52  1  0
 14 53  1  0
 14 54  1  0
 14 55  1  0
 15 56  1  6
 16 57  1  0
 16 58  1  0
 17 59  1  0
 19 60  1  1
 20 61  1  0
 20 62  1  0
 21 63  1  0
 21 64  1  0
 22 65  1  1
 23 66  1  0
 25 67  1  0
 25 68  1  0
 25 69  1  0
 26 70  1  0
 26 71  1  0
 26 72  1  0
 28 73  1  0
 28 74  1  0
 28 75  1  0
 29 76  1  0
 29 77  1  0
 30 78  1  0
 30 79  1  0
 32 80  1  0
 32 81  1  0
 32 82  1  0
M  END
>  <meeko>  (15) 
{"is_sidechain": [false], "intermolecular_energy": 2.731, "internal_energy": -0.839}

$$$$
EPH_relaxed_0001_pdb2pqr_Repair_70_r2_0001_out
     RDKit          3D

 82 86  0  0  0  0  0  0  0  0999 V2000
    0.9530   14.9080   -2.6650 C   0  0  0  0  0  0  0  0  0  0  0  0
    1.1940   14.2320   -4.0180 C   0  0  2  0  0  0  0  0  0  0  0  0
    0.4720   14.9610   -5.1690 C   0  0  0  0  0  0  0  0  0  0  0  0
    1.0100   14.6030   -6.5570 C   0  0  0  0  0  0  0  0  0  0  0  0
    0.7970   15.7160   -7.5380 C   0  0  2  0  0  0  0  0  0  0  0  0
    0.3970   15.2920   -8.8470 O   0  0  0  0  0  0  0  0  0  0  0  0
    1.6770   15.9390   -8.7540 C   0  0  0  0  0  0  0  0  0  0  0  0
    2.8360   15.0410   -9.0540 C   0  0  0  0  0  0  0  0  0  0  0  0
    1.7100   17.3020   -9.3730 C   0  0  0  0  0  0  0  0  0  0  0  0
    0.7440   12.7770   -3.9590 C   0  0  1  0  0  0  0  0  0  0  0  0
    1.8710   11.7860   -4.3520 C   0  0  0  0  0  0  0  0  0  0  0  0
    1.6800   10.5210   -3.4760 C   0  0  0  0  0  0  0  0  0  0  0  0
    0.2730   10.6850   -2.8550 C   0  0  1  0  0  0  0  0  0  0  0  0
   -0.7140   10.2160   -3.9700 C   0  0  0  0  0  0  0  0  0  0  0  0
    0.0210    9.9340   -1.5070 C   0  0  2  0  0  0  0  0  0  0  0  0
    0.1240    8.4010   -1.5850 C   0  0  0  0  0  0  0  0  0  0  0  0
   -1.1520    7.6910   -1.8950 C   0  0  0  0  0  0  0  0  0  0  0  0
   -2.3840    8.2280   -1.8230 C   0  0  0  0  0  0  0  0  0  0  0  0
   -2.5910    9.6560   -1.3010 C   0  0  1  0  0  0  0  0  0  0  0  0
   -3.7610    9.6700   -0.2820 C   0  0  0  0  0  0  0  0  0  0  0  0
   -5.0410    9.0660   -0.8530 C   0  0  0  0  0  0  0  0  0  0  0  0
   -4.8090    7.6270   -1.3070 C   0  0  2  0  0  0  0  0  0  0  0  0
   -4.5400    6.8180   -0.1580 O   0  0  0  0  0  0  0  0  0  0  0  0
   -3.6460    7.4870   -2.3290 C   0  0  0  0  0  0  0  0  0  0  0  0
   -4.0650    8.1100   -3.6840 C   0  0  0  0  0  0  0  0  0  0  0  0
   -3.4260    5.9740   -2.5970 C   0  0  0  0  0  0  0  0  0  0  0  0
   -1.2930   10.3870   -0.7490 C   0  0  1  0  0  0  0  0  0  0  0  0
   -1.0820   10.0350    0.7550 C   0  0  0  0  0  0  0  0  0  0  0  0
   -1.5130   11.9450   -0.8140 C   0  0  0  0  0  0  0  0  0  0  0  0
   -1.1330   12.6470   -2.1320 C   0  0  0  0  0  0  0  0  0  0  0  0
    0.2700   12.2340   -2.5870 C   0  0  2  0  0  0  0  0  0  0  0  0
    1.2870   12.7130   -1.4960 C   0  0  0  0  0  0  0  0  0  0  0  0
    1.2030   14.2069   -1.8551 H   0  0  0  0  0  0  0  0  0  0  0  0
    1.5875   15.8029   -2.5841 H   0  0  0  0  0  0  0  0  0  0  0  0
   -0.1045   15.1997   -2.5841 H   0  0  0  0  0  0  0  0  0  0  0  0
    2.2735   14.2794   -4.2239 H   0  0  0  0  0  0  0  0  0  0  0  0
   -0.5954   14.6977   -5.1316 H   0  0  0  0  0  0  0  0  0  0  0  0
    0.6436   16.0380   -5.0254 H   0  0  0  0  0  0  0  0  0  0  0  0
    2.0879   14.3975   -6.4795 H   0  0  0  0  0  0  0  0  0  0  0  0
    0.4651   13.7184   -6.9183 H   0  0  0  0  0  0  0  0  0  0  0  0
    0.4620   16.3903   -6.7360 H   0  0  0  0  0  0  0  0  0  0  0  0
    3.2843   14.6937   -8.1115 H   0  0  0  0  0  0  0  0  0  0  0  0
    2.4877   14.1747   -9.6355 H   0  0  0  0  0  0  0  0  0  0  0  0
    3.5879   15.5946   -9.6355 H   0  0  0  0  0  0  0  0  0  0  0  0
    1.7285   18.0644   -8.5803 H   0  0  0  0  0  0  0  0  0  0  0  0
    2.6108   17.3997   -9.9967 H   0  0  0  0  0  0  0  0  0  0  0  0
    0.8150   17.4432   -9.9967 H   0  0  0  0  0  0  0  0  0  0  0  0
   -0.1024   12.8178   -4.6604 H   0  0  0  0  0  0  0  0  0  0  0  0
    1.7909   11.5245   -5.4175 H   0  0  0  0  0  0  0  0  0  0  0  0
    2.8634   12.2322   -4.1903 H   0  0  0  0  0  0  0  0  0  0  0  0
    1.7288    9.6110   -4.0921 H   0  0  0  0  0  0  0  0  0  0  0  0
    2.4643   10.4210   -2.7113 H   0  0  0  0  0  0  0  0  0  0  0  0
   -1.6148    9.7880   -3.5060 H   0  0  0  0  0  0  0  0  0  0  0  0
   -0.9968   11.0760   -4.5948 H   0  0  0  0  0  0  0  0  0  0  0  0
   -0.2258    9.4536   -4.5948 H   0  0  0  0  0  0  0  0  0  0  0  0
    0.8732   10.2597   -0.8924 H   0  0  0  0  0  0  0  0  0  0  0  0
    0.8525    8.1488   -2.3696 H   0  0  0  0  0  0  0  0  0  0  0  0
    0.4232    8.0647   -0.5813 H   0  0  0  0  0  0  0  0  0  0  0  0
   -1.0791    6.6393   -2.2090 H   0  0  0  0  0  0  0  0  0  0  0  0
   -2.8525   10.2658   -2.1784 H   0  0  0  0  0  0  0  0  0  0  0  0
   -3.4632    9.0916    0.6050 H   0  0  0  0  0  0  0  0  0  0  0  0
   -3.9709   10.7197   -0.0287 H   0  0  0  0  0  0  0  0  0  0  0  0
   -5.8216    9.0777   -0.0781 H   0  0  0  0  0  0  0  0  0  0  0  0
   -5.3538    9.6628   -1.7225 H   0  0  0  0  0  0  0  0  0  0  0  0
   -5.7215    7.2929   -1.8225 H   0  0  0  0  0  0  0  0  0  0  0  0
   -3.9830    7.3390    0.4440 H   0  0  0  0  0  0  0  0  0  0  0  0
   -4.6704    9.0102   -3.5021 H   0  0  0  0  0  0  0  0  0  0  0  0
   -3.1658    8.3823   -4.2560 H   0  0  0  0  0  0  0  0  0  0  0  0
   -4.6563    7.3799   -4.2560 H   0  0  0  0  0  0  0  0  0  0  0  0
   -3.3483    5.4394   -1.6388 H   0  0  0  0  0  0  0  0  0  0  0  0
   -4.2757    5.5760   -3.1711 H   0  0  0  0  0  0  0  0  0  0  0  0
   -2.4981    5.8344   -3.1711 H   0  0  0  0  0  0  0  0  0  0  0  0
   -1.5468   10.8104    1.3817 H   0  0  0  0  0  0  0  0  0  0  0  0
   -1.5455    9.0614    0.9722 H   0  0  0  0  0  0  0  0  0  0  0  0
   -0.0048    9.9849    0.9722 H   0  0  0  0  0  0  0  0  0  0  0  0
   -2.5802   12.1381   -0.6300 H   0  0  0  0  0  0  0  0  0  0  0  0
   -0.8313   12.3632   -0.0588 H   0  0  0  0  0  0  0  0  0  0  0  0
   -1.8598   12.3703   -2.9099 H   0  0  0  0  0  0  0  0  0  0  0  0
   -1.1426   13.7344   -1.9662 H   0  0  0  0  0  0  0  0  0  0  0  0
    0.8716   12.5174   -0.4964 H   0  0  0  0  0  0  0  0  0  0  0  0
    2.2345   12.1665   -1.6127 H   0  0  0  0  0  0  0  0  0  0  0  0
    1.4691   13.7915   -1.6127 H   0  0  0  0  0  0  0  0  0  0  0  0
  1  2  1  0
  2  3  1  0
  3  4  1  0
  4  5  1  0
  5  6  1  0
  6  7  1  0
  7  8  1  0
  7  9  1  0
  2 10  1  0
 10 11  1  0
 11 12  1  0
 12 13  1  0
 13 14  1  6
 13 15  1  0
 15 16  1  0
 16 17  1  0
 17 18  2  0
 18 19  1  0
 19 20  1  0
 20 21  1  0
 21 22  1  0
 22 23  1  0
 22 24  1  0
 24 25  1  0
 24 26  1  0
 19 27  1  0
 27 28  1  1
 27 29  1  0
 29 30  1  0
 30 31  1  0
 31 32  1  1
  7  5  1  0
 31 10  1  0
 31 13  1  0
 27 15  1  0
 24 18  1  0
  1 33  1  0
  1 34  1  0
  1 35  1  0
  2 36  1  6
  3 37  1  0
  3 38  1  0
  4 39  1  0
  4 40  1  0
  5 41  1  1
  8 42  1  0
  8 43  1  0
  8 44  1  0
  9 45  1  0
  9 46  1  0
  9 47  1  0
 10 48  1  6
 11 49  1  0
 11 50  1  0
 12 51  1  0
 12 52  1  0
 14 53  1  0
 14 54  1  0
 14 55  1  0
 15 56  1  1
 16 57  1  0
 16 58  1  0
 17 59  1  0
 19 60  1  6
 20 61  1  0
 20 62  1  0
 21 63  1  0
 21 64  1  0
 22 65  1  6
 23 66  1  0
 25 67  1  0
 25 68  1  0
 25 69  1  0
 26 70  1  0
 26 71  1  0
 26 72  1  0
 28 73  1  0
 28 74  1  0
 28 75  1  0
 29 76  1  0
 29 77  1  0
 30 78  1  0
 30 79  1  0
 32 80  1  0
 32 81  1  0
 32 82  1  0
M  END
>  <meeko>  (16) 
{"is_sidechain": [false], "intermolecular_energy": 2.731, "internal_energy": -0.839}

$$$$
EPH_relaxed_0001_pdb2pqr_Repair_70_r2_0001_out
     RDKit          3D

 82 86  0  0  0  0  0  0  0  0999 V2000
   -2.4320    7.6990   -0.0870 C   0  0  0  0  0  0  0  0  0  0  0  0
   -3.0520    9.0990   -0.0570 C   0  0  2  0  0  0  0  0  0  0  0  0
   -4.5490    9.0800   -0.4260 C   0  0  0  0  0  0  0  0  0  0  0  0
   -5.1540    7.6740   -0.4710 C   0  0  0  0  0  0  0  0  0  0  0  0
   -5.8520    7.4120   -1.7710 C   0  0  2  0  0  0  0  0  0  0  0  0
   -6.7720    8.4350   -2.1730 O   0  0  0  0  0  0  0  0  0  0  0  0
   -7.3420    7.1480   -1.8820 C   0  0  0  0  0  0  0  0  0  0  0  0
   -8.2230    7.1310   -0.6730 C   0  0  0  0  0  0  0  0  0  0  0  0
   -7.8520    6.4280   -3.0910 C   0  0  0  0  0  0  0  0  0  0  0  0
   -2.2940   10.0230   -1.0030 C   0  0  1  0  0  0  0  0  0  0  0  0
   -2.9520   11.4230   -1.1250 C   0  0  0  0  0  0  0  0  0  0  0  0
   -1.8000   12.4460   -1.2940 C   0  0  0  0  0  0  0  0  0  0  0  0
   -0.5530   11.5820   -1.5950 C   0  0  1  0  0  0  0  0  0  0  0  0
   -0.6510   11.2530   -3.1170 C   0  0  0  0  0  0  0  0  0  0  0  0
    0.8300   12.2140   -1.2300 C   0  0  2  0  0  0  0  0  0  0  0  0
    1.1810   13.5030   -1.9930 C   0  0  0  0  0  0  0  0  0  0  0  0
    1.9260   13.3030   -3.2720 C   0  0  0  0  0  0  0  0  0  0  0  0
    2.5470   12.1690   -3.6470 C   0  0  0  0  0  0  0  0  0  0  0  0
    2.6210   10.9630   -2.7020 C   0  0  1  0  0  0  0  0  0  0  0  0
    4.0690   10.4070   -2.6840 C   0  0  0  0  0  0  0  0  0  0  0  0
    4.5900   10.0870   -4.0820 C   0  0  0  0  0  0  0  0  0  0  0  0
    4.5560   11.3250   -4.9740 C   0  0  2  0  0  0  0  0  0  0  0  0
    5.4980   12.2790   -4.4750 O   0  0  0  0  0  0  0  0  0  0  0  0
    3.1480   11.9780   -5.0610 C   0  0  0  0  0  0  0  0  0  0  0  0
    2.1990   11.0630   -5.8730 C   0  0  0  0  0  0  0  0  0  0  0  0
    3.2810   13.2940   -5.8740 C   0  0  0  0  0  0  0  0  0  0  0  0
    2.0350   11.1880   -1.2420 C   0  0  1  0  0  0  0  0  0  0  0  0
    3.1370   11.7840   -0.3130 C   0  0  0  0  0  0  0  0  0  0  0  0
    1.6410    9.7940   -0.6260 C   0  0  0  0  0  0  0  0  0  0  0  0
    0.2190    9.2790   -0.9240 C   0  0  0  0  0  0  0  0  0  0  0  0
   -0.8260   10.3620   -0.6420 C   0  0  2  0  0  0  0  0  0  0  0  0
   -0.7660   10.6990    0.8870 C   0  0  0  0  0  0  0  0  0  0  0  0
   -2.2753    7.3452    0.9427 H   0  0  0  0  0  0  0  0  0  0  0  0
   -3.1089    7.0094   -0.6126 H   0  0  0  0  0  0  0  0  0  0  0  0
   -1.4664    7.7368   -0.6126 H   0  0  0  0  0  0  0  0  0  0  0  0
   -2.9715    9.4744    0.9738 H   0  0  0  0  0  0  0  0  0  0  0  0
   -5.0985    9.6708    0.3217 H   0  0  0  0  0  0  0  0  0  0  0  0
   -4.6358    9.4999   -1.4390 H   0  0  0  0  0  0  0  0  0  0  0  0
   -4.3490    6.9353   -0.3435 H   0  0  0  0  0  0  0  0  0  0  0  0
   -5.8948    7.5935    0.3381 H   0  0  0  0  0  0  0  0  0  0  0  0
   -4.9762    6.8716   -2.1596 H   0  0  0  0  0  0  0  0  0  0  0  0
   -7.6010    7.1430    0.2342 H   0  0  0  0  0  0  0  0  0  0  0  0
   -8.8752    8.0167   -0.6821 H   0  0  0  0  0  0  0  0  0  0  0  0
   -8.8406    6.2208   -0.6821 H   0  0  0  0  0  0  0  0  0  0  0  0
   -8.4612    5.5680   -2.7758 H   0  0  0  0  0  0  0  0  0  0  0  0
   -8.4677    7.1126   -3.6929 H   0  0  0  0  0  0  0  0  0  0  0  0
   -7.0019    6.0743   -3.6929 H   0  0  0  0  0  0  0  0  0  0  0  0
   -2.3250    9.4146   -1.9189 H   0  0  0  0  0  0  0  0  0  0  0  0
   -3.6173   11.4538   -2.0005 H   0  0  0  0  0  0  0  0  0  0  0  0
   -3.5573   11.6535   -0.2359 H   0  0  0  0  0  0  0  0  0  0  0  0
   -2.0084   13.1313   -2.1288 H   0  0  0  0  0  0  0  0  0  0  0  0
   -1.6663   13.0753   -0.4018 H   0  0  0  0  0  0  0  0  0  0  0  0
   -0.9628   10.2061   -3.2465 H   0  0  0  0  0  0  0  0  0  0  0  0
   -1.3904   11.9169   -3.5888 H   0  0  0  0  0  0  0  0  0  0  0  0
    0.3311   11.4041   -3.5888 H   0  0  0  0  0  0  0  0  0  0  0  0
    0.6808   12.5187   -0.1836 H   0  0  0  0  0  0  0  0  0  0  0  0
    0.2422   14.0275   -2.2246 H   0  0  0  0  0  0  0  0  0  0  0  0
    1.8528   14.0735   -1.3349 H   0  0  0  0  0  0  0  0  0  0  0  0
    1.9711   14.1548   -3.9666 H   0  0  0  0  0  0  0  0  0  0  0  0
    1.9369   10.2089   -3.1182 H   0  0  0  0  0  0  0  0  0  0  0  0
    4.7293   11.1575   -2.2248 H   0  0  0  0  0  0  0  0  0  0  0  0
    4.0598    9.4697   -2.1083 H   0  0  0  0  0  0  0  0  0  0  0  0
    5.6265    9.7265   -4.0060 H   0  0  0  0  0  0  0  0  0  0  0  0
    3.9458    9.3152   -4.5284 H   0  0  0  0  0  0  0  0  0  0  0  0
    4.8174   11.0045   -5.9933 H   0  0  0  0  0  0  0  0  0  0  0  0
    5.7630   11.9930   -3.5840 H   0  0  0  0  0  0  0  0  0  0  0  0
    1.5827   10.4688   -5.1823 H   0  0  0  0  0  0  0  0  0  0  0  0
    1.5466   11.6816   -6.5068 H   0  0  0  0  0  0  0  0  0  0  0  0
    2.7934   10.3885   -6.5068 H   0  0  0  0  0  0  0  0  0  0  0  0
    3.3670   14.1451   -5.1825 H   0  0  0  0  0  0  0  0  0  0  0  0
    4.1787   13.2443   -6.5078 H   0  0  0  0  0  0  0  0  0  0  0  0
    2.3915   13.4249   -6.5078 H   0  0  0  0  0  0  0  0  0  0  0  0
    2.8527   11.6303    0.7384 H   0  0  0  0  0  0  0  0  0  0  0  0
    4.0950   11.2810   -0.5111 H   0  0  0  0  0  0  0  0  0  0  0  0
    3.2405   12.8611   -0.5111 H   0  0  0  0  0  0  0  0  0  0  0  0
    2.3523    9.0477   -1.0096 H   0  0  0  0  0  0  0  0  0  0  0  0
    1.6708    9.9422    0.4636 H   0  0  0  0  0  0  0  0  0  0  0  0
    0.1568    8.9858   -1.9824 H   0  0  0  0  0  0  0  0  0  0  0  0
    0.0147    8.4162   -0.2730 H   0  0  0  0  0  0  0  0  0  0  0  0
   -0.9294    9.7815    1.4714 H   0  0  0  0  0  0  0  0  0  0  0  0
    0.2210   11.1186    1.1315 H   0  0  0  0  0  0  0  0  0  0  0  0
   -1.5475   11.4335    1.1315 H   0  0  0  0  0  0  0  0  0  0  0  0
  1  2  1  0
  2  3  1  0
  3  4  1  0
  4  5  1  0
  5  6  1  0
  6  7  1  0
  7  8  1  0
  7  9  1  0
  2 10  1  0
 10 11  1  0
 11 12  1  0
 12 13  1  0
 13 14  1  6
 13 15  1  0
 15 16  1  0
 16 17  1  0
 17 18  2  0
 18 19  1  0
 19 20  1  0
 20 21  1  0
 21 22  1  0
 22 23  1  0
 22 24  1  0
 24 25  1  0
 24 26  1  0
 19 27  1  0
 27 28  1  1
 27 29  1  0
 29 30  1  0
 30 31  1  0
 31 32  1  1
  7  5  1  0
 31 10  1  0
 31 13  1  0
 27 15  1  0
 24 18  1  0
  1 33  1  0
  1 34  1  0
  1 35  1  0
  2 36  1  1
  3 37  1  0
  3 38  1  0
  4 39  1  0
  4 40  1  0
  5 41  1  6
  8 42  1  0
  8 43  1  0
  8 44  1  0
  9 45  1  0
  9 46  1  0
  9 47  1  0
 10 48  1  6
 11 49  1  0
 11 50  1  0
 12 51  1  0
 12 52  1  0
 14 53  1  0
 14 54  1  0
 14 55  1  0
 15 56  1  1
 16 57  1  0
 16 58  1  0
 17 59  1  0
 19 60  1  6
 20 61  1  0
 20 62  1  0
 21 63  1  0
 21 64  1  0
 22 65  1  6
 23 66  1  0
 25 67  1  0
 25 68  1  0
 25 69  1  0
 26 70  1  0
 26 71  1  0
 26 72  1  0
 28 73  1  0
 28 74  1  0
 28 75  1  0
 29 76  1  0
 29 77  1  0
 30 78  1  0
 30 79  1  0
 32 80  1  0
 32 81  1  0
 32 82  1  0
M  END
>  <meeko>  (17) 
{"is_sidechain": [false], "intermolecular_energy": 2.731, "internal_energy": -0.839}

$$$$
