EPH_relaxed_0001_pdb2pqr_Repair_240_r2_0001_out
     RDKit          3D

 82 86  0  0  0  0  0  0  0  0999 V2000
   -1.7120    8.5840   -1.8780 C   0  0  0  0  0  0  0  0  0  0  0  0
   -2.0900    9.1070   -0.4890 C   0  0  2  0  0  0  0  0  0  0  0  0
   -3.5840    9.4790   -0.3960 C   0  0  0  0  0  0  0  0  0  0  0  0
   -4.5110    8.2700   -0.2410 C   0  0  0  0  0  0  0  0  0  0  0  0
   -5.2000    7.9300   -1.5280 C   0  0  2  0  0  0  0  0  0  0  0  0
   -6.3460    8.7390   -1.8240 O   0  0  0  0  0  0  0  0  0  0  0  0
   -6.5970    7.3430   -1.5990 C   0  0  0  0  0  0  0  0  0  0  0  0
   -7.3880    7.0590   -0.3600 C   0  0  0  0  0  0  0  0  0  0  0  0
   -6.9970    6.5950   -2.8320 C   0  0  0  0  0  0  0  0  0  0  0  0
   -1.2300   10.3140   -0.1360 C   0  0  1  0  0  0  0  0  0  0  0  0
   -0.2030   10.0080    0.9860 C   0  0  0  0  0  0  0  0  0  0  0  0
    1.0700   10.8330    0.6650 C   0  0  0  0  0  0  0  0  0  0  0  0
    0.6220   11.8300   -0.4290 C   0  0  1  0  0  0  0  0  0  0  0  0
   -0.0850   12.9860    0.3460 C   0  0  0  0  0  0  0  0  0  0  0  0
    1.7450   12.3710   -1.3730 C   0  0  2  0  0  0  0  0  0  0  0  0
    2.8480   13.1860   -0.6750 C   0  0  0  0  0  0  0  0  0  0  0  0
    2.5990   14.6560   -0.5920 C   0  0  0  0  0  0  0  0  0  0  0  0
    1.6800   15.3340   -1.3030 C   0  0  0  0  0  0  0  0  0  0  0  0
    0.8370   14.6320   -2.3750 C   0  0  1  0  0  0  0  0  0  0  0  0
    0.8150   15.4940   -3.6650 C   0  0  0  0  0  0  0  0  0  0  0  0
    0.3530   16.9240   -3.4040 C   0  0  0  0  0  0  0  0  0  0  0  0
    1.2510   17.6090   -2.3760 C   0  0  2  0  0  0  0  0  0  0  0  0
    2.5540   17.7760   -2.9420 O   0  0  0  0  0  0  0  0  0  0  0  0
    1.3580   16.8260   -1.0380 C   0  0  0  0  0  0  0  0  0  0  0  0
    0.0090   16.9040   -0.2800 C   0  0  0  0  0  0  0  0  0  0  0  0
    2.4010   17.5480   -0.1440 C   0  0  0  0  0  0  0  0  0  0  0  0
    1.2070   13.1130   -2.6630 C   0  0  1  0  0  0  0  0  0  0  0  0
    2.3430   13.0350   -3.7280 C   0  0  0  0  0  0  0  0  0  0  0  0
   -0.0420   12.3900   -3.2920 C   0  0  0  0  0  0  0  0  0  0  0  0
   -1.0550   11.7720   -2.3090 C   0  0  0  0  0  0  0  0  0  0  0  0
   -0.3460   10.9110   -1.2600 C   0  0  2  0  0  0  0  0  0  0  0  0
    0.3560    9.7270   -2.0080 C   0  0  0  0  0  0  0  0  0  0  0  0
   -1.0706    7.6965   -1.7736 H   0  0  0  0  0  0  0  0  0  0  0  0
   -2.6249    8.3138   -2.4290 H   0  0  0  0  0  0  0  0  0  0  0  0
   -1.1691    9.3660   -2.4290 H   0  0  0  0  0  0  0  0  0  0  0  0
   -1.9057    8.2964    0.2314 H   0  0  0  0  0  0  0  0  0  0  0  0
   -3.7243   10.1379    0.4736 H   0  0  0  0  0  0  0  0  0  0  0  0
   -3.8524    9.9705   -1.3428 H   0  0  0  0  0  0  0  0  0  0  0  0
   -3.9158    7.4040    0.0841 H   0  0  0  0  0  0  0  0  0  0  0  0
   -5.2807    8.5217    0.5035 H   0  0  0  0  0  0  0  0  0  0  0  0
   -4.2474    7.6246   -1.9855 H   0  0  0  0  0  0  0  0  0  0  0  0
   -6.7739    7.2795    0.5256 H   0  0  0  0  0  0  0  0  0  0  0  0
   -8.2891    7.6897   -0.3476 H   0  0  0  0  0  0  0  0  0  0  0  0
   -7.6821    5.9991   -0.3476 H   0  0  0  0  0  0  0  0  0  0  0  0
   -7.4979    5.6583   -2.5463 H   0  0  0  0  0  0  0  0  0  0  0  0
   -7.6856    7.2120   -3.4280 H   0  0  0  0  0  0  0  0  0  0  0  0
   -6.1015    6.3649   -3.4280 H   0  0  0  0  0  0  0  0  0  0  0  0
   -2.0195   11.0283    0.1405 H   0  0  0  0  0  0  0  0  0  0  0  0
   -0.6104   10.3052    1.9636 H   0  0  0  0  0  0  0  0  0  0  0  0
    0.0243    8.9327    1.0306 H   0  0  0  0  0  0  0  0  0  0  0  0
    1.4211   11.3692    1.5590 H   0  0  0  0  0  0  0  0  0  0  0  0
    1.9062   10.1990    0.3350 H   0  0  0  0  0  0  0  0  0  0  0  0
    0.0176   12.8183    1.4283 H   0  0  0  0  0  0  0  0  0  0  0  0
    0.3808   13.9458    0.0779 H   0  0  0  0  0  0  0  0  0  0  0  0
   -1.1516   13.0085    0.0779 H   0  0  0  0  0  0  0  0  0  0  0  0
    2.2294   11.4451   -1.7165 H   0  0  0  0  0  0  0  0  0  0  0  0
    2.9579   12.8015    0.3497 H   0  0  0  0  0  0  0  0  0  0  0  0
    3.7517   13.0646   -1.2903 H   0  0  0  0  0  0  0  0  0  0  0  0
    3.2193   15.2331    0.1096 H   0  0  0  0  0  0  0  0  0  0  0  0
   -0.1789   14.5557   -1.9602 H   0  0  0  0  0  0  0  0  0  0  0  0
    1.8303   15.5228   -4.0874 H   0  0  0  0  0  0  0  0  0  0  0  0
    0.0997   15.0337   -4.3625 H   0  0  0  0  0  0  0  0  0  0  0  0
    0.3870   17.4908   -4.3461 H   0  0  0  0  0  0  0  0  0  0  0  0
   -0.6733   16.8947   -3.0093 H   0  0  0  0  0  0  0  0  0  0  0  0
    0.7954   18.5806   -2.1344 H   0  0  0  0  0  0  0  0  0  0  0  0
    2.4600   18.3120   -3.7470 H   0  0  0  0  0  0  0  0  0  0  0  0
    0.1963   16.8932    0.8039 H   0  0  0  0  0  0  0  0  0  0  0  0
   -0.5117   17.8338   -0.5529 H   0  0  0  0  0  0  0  0  0  0  0  0
   -0.6154   16.0405   -0.5529 H   0  0  0  0  0  0  0  0  0  0  0  0
    2.1562   17.3785    0.9149 H   0  0  0  0  0  0  0  0  0  0  0  0
    3.4042   17.1501   -0.3566 H   0  0  0  0  0  0  0  0  0  0  0  0
    2.3818   18.6271   -0.3566 H   0  0  0  0  0  0  0  0  0  0  0  0
    3.3169   12.9681   -3.2210 H   0  0  0  0  0  0  0  0  0  0  0  0
    2.1953   12.1449   -4.3572 H   0  0  0  0  0  0  0  0  0  0  0  0
    2.3183   13.9370   -4.3572 H   0  0  0  0  0  0  0  0  0  0  0  0
   -0.5804   13.1283   -3.9044 H   0  0  0  0  0  0  0  0  0  0  0  0
    0.3706   11.5387   -3.8532 H   0  0  0  0  0  0  0  0  0  0  0  0
   -1.6023   12.5798   -1.8012 H   0  0  0  0  0  0  0  0  0  0  0  0
   -1.7488   11.1337   -2.8757 H   0  0  0  0  0  0  0  0  0  0  0  0
    0.7729    9.0239   -1.2718 H   0  0  0  0  0  0  0  0  0  0  0  0
   -0.3785    9.2048   -2.6387 H   0  0  0  0  0  0  0  0  0  0  0  0
    1.1666   10.1209   -2.6387 H   0  0  0  0  0  0  0  0  0  0  0  0
  1  2  1  0
  2  3  1  0
  3  4  1  0
  4  5  1  0
  5  6  1  0
  6  7  1  0
  7  8  1  0
  7  9  1  0
  2 10  1  0
 10 11  1  0
 11 12  1  0
 12 13  1  0
 13 14  1  1
 13 15  1  0
 15 16  1  0
 16 17  1  0
 17 18  2  0
 18 19  1  0
 19 20  1  0
 20 21  1  0
 21 22  1  0
 22 23  1  0
 22 24  1  0
 24 25  1  0
 24 26  1  0
 19 27  1  0
 27 28  1  6
 27 29  1  0
 29 30  1  0
 30 31  1  0
 31 32  1  6
  7  5  1  0
 31 10  1  0
 31 13  1  0
 27 15  1  0
 24 18  1  0
  1 33  1  0
  1 34  1  0
  1 35  1  0
  2 36  1  1
  3 37  1  0
  3 38  1  0
  4 39  1  0
  4 40  1  0
  5 41  1  6
  8 42  1  0
  8 43  1  0
  8 44  1  0
  9 45  1  0
  9 46  1  0
  9 47  1  0
 10 48  1  1
 11 49  1  0
 11 50  1  0
 12 51  1  0
 12 52  1  0
 14 53  1  0
 14 54  1  0
 14 55  1  0
 15 56  1  6
 16 57  1  0
 16 58  1  0
 17 59  1  0
 19 60  1  1
 20 61  1  0
 20 62  1  0
 21 63  1  0
 21 64  1  0
 22 65  1  1
 23 66  1  0
 25 67  1  0
 25 68  1  0
 25 69  1  0
 26 70  1  0
 26 71  1  0
 26 72  1  0
 28 73  1  0
 28 74  1  0
 28 75  1  0
 29 76  1  0
 29 77  1  0
 30 78  1  0
 30 79  1  0
 32 80  1  0
 32 81  1  0
 32 82  1  0
M  END
>  <meeko>  (1) 
{"is_sidechain": [false], "intermolecular_energy": 2.731, "internal_energy": -0.839}

$$$$
EPH_relaxed_0001_pdb2pqr_Repair_240_r2_0001_out
     RDKit          3D

 82 86  0  0  0  0  0  0  0  0999 V2000
    2.3570   18.0200   -2.8020 C   0  0  0  0  0  0  0  0  0  0  0  0
    1.0810   17.6250   -2.0540 C   0  0  2  0  0  0  0  0  0  0  0  0
    1.2600   17.6950   -0.5240 C   0  0  0  0  0  0  0  0  0  0  0  0
    0.9450   19.0700    0.0710 C   0  0  0  0  0  0  0  0  0  0  0  0
   -0.4650   19.1480    0.5730 C   0  0  2  0  0  0  0  0  0  0  0  0
   -1.3870   18.2770   -0.0960 O   0  0  0  0  0  0  0  0  0  0  0  0
   -1.6180   19.6870   -0.2530 C   0  0  0  0  0  0  0  0  0  0  0  0
   -1.4130   20.1850   -1.6490 C   0  0  0  0  0  0  0  0  0  0  0  0
   -2.8390   20.1800    0.4590 C   0  0  0  0  0  0  0  0  0  0  0  0
    0.6500   16.2220   -2.4640 C   0  0  1  0  0  0  0  0  0  0  0  0
    0.7900   15.9770   -3.9900 C   0  0  0  0  0  0  0  0  0  0  0  0
    1.2030   14.4930   -4.1690 C   0  0  0  0  0  0  0  0  0  0  0  0
    0.9640   13.8520   -2.7820 C   0  0  1  0  0  0  0  0  0  0  0  0
   -0.5670   13.5520   -2.7360 C   0  0  0  0  0  0  0  0  0  0  0  0
    1.8120   12.5800   -2.4530 C   0  0  2  0  0  0  0  0  0  0  0  0
    1.5610   11.3730   -3.3750 C   0  0  0  0  0  0  0  0  0  0  0  0
    0.4930   10.4350   -2.9200 C   0  0  0  0  0  0  0  0  0  0  0  0
   -0.0400   10.3960   -1.6850 C   0  0  0  0  0  0  0  0  0  0  0  0
    0.5020   11.2930   -0.5640 C   0  0  1  0  0  0  0  0  0  0  0  0
    0.6960   10.4520    0.7240 C   0  0  0  0  0  0  0  0  0  0  0  0
   -0.5710    9.7080    1.1340 C   0  0  0  0  0  0  0  0  0  0  0  0
   -1.0450    8.7820    0.0170 C   0  0  2  0  0  0  0  0  0  0  0  0
   -0.0830    7.7370   -0.1560 O   0  0  0  0  0  0  0  0  0  0  0  0
   -1.2660    9.5170   -1.3350 C   0  0  0  0  0  0  0  0  0  0  0  0
   -2.5090   10.4360   -1.2310 C   0  0  0  0  0  0  0  0  0  0  0  0
   -1.6050    8.4490   -2.4090 C   0  0  0  0  0  0  0  0  0  0  0  0
    1.7840   12.1590   -0.9280 C   0  0  1  0  0  0  0  0  0  0  0  0
    3.0780   11.3260   -0.6730 C   0  0  0  0  0  0  0  0  0  0  0  0
    1.8570   13.4000    0.0370 C   0  0  0  0  0  0  0  0  0  0  0  0
    1.0970   14.6670   -0.4010 C   0  0  0  0  0  0  0  0  0  0  0  0
    1.4290   15.0310   -1.8510 C   0  0  2  0  0  0  0  0  0  0  0  0
    2.9590   15.3600   -1.9230 C   0  0  0  0  0  0  0  0  0  0  0  0
    3.1467   18.2645   -2.0763 H   0  0  0  0  0  0  0  0  0  0  0  0
    2.6862   17.1817   -3.4336 H   0  0  0  0  0  0  0  0  0  0  0  0
    2.1550   18.8977   -3.4336 H   0  0  0  0  0  0  0  0  0  0  0  0
    0.2994   18.3486   -2.3290 H   0  0  0  0  0  0  0  0  0  0  0  0
    0.5900   16.9550   -0.0619 H   0  0  0  0  0  0  0  0  0  0  0  0
    2.3203   17.4899   -0.3150 H   0  0  0  0  0  0  0  0  0  0  0  0
    1.6324   19.2620    0.9081 H   0  0  0  0  0  0  0  0  0  0  0  0
    1.0685   19.8226   -0.7217 H   0  0  0  0  0  0  0  0  0  0  0  0
   -0.1157   19.3780    1.5904 H   0  0  0  0  0  0  0  0  0  0  0  0
   -0.9944   21.2018   -1.6178 H   0  0  0  0  0  0  0  0  0  0  0  0
   -0.7164   19.5178   -2.1777 H   0  0  0  0  0  0  0  0  0  0  0  0
   -2.3775   20.2015   -2.1777 H   0  0  0  0  0  0  0  0  0  0  0  0
   -2.6807   20.1161    1.5457 H   0  0  0  0  0  0  0  0  0  0  0  0
   -3.0305   21.2259    0.1773 H   0  0  0  0  0  0  0  0  0  0  0  0
   -3.7030   19.5603    0.1773 H   0  0  0  0  0  0  0  0  0  0  0  0
   -0.3837   16.2289   -2.0879 H   0  0  0  0  0  0  0  0  0  0  0  0
   -0.1694   16.1666   -4.4936 H   0  0  0  0  0  0  0  0  0  0  0  0
    1.5388   16.6513   -4.4311 H   0  0  0  0  0  0  0  0  0  0  0  0
    0.5806   14.0062   -4.9343 H   0  0  0  0  0  0  0  0  0  0  0  0
    2.2456   14.3874   -4.5035 H   0  0  0  0  0  0  0  0  0  0  0  0
   -0.8967   13.4874   -1.6886 H   0  0  0  0  0  0  0  0  0  0  0  0
   -1.1144   14.3600   -3.2435 H   0  0  0  0  0  0  0  0  0  0  0  0
   -0.7690   12.5972   -3.2435 H   0  0  0  0  0  0  0  0  0  0  0  0
    2.8365   12.9154   -2.6719 H   0  0  0  0  0  0  0  0  0  0  0  0
    1.2775   11.7557   -4.3665 H   0  0  0  0  0  0  0  0  0  0  0  0
    2.4953   10.7924   -3.3777 H   0  0  0  0  0  0  0  0  0  0  0  0
    0.1089    9.7142   -3.6569 H   0  0  0  0  0  0  0  0  0  0  0  0
   -0.2641   12.0637   -0.3935 H   0  0  0  0  0  0  0  0  0  0  0  0
    1.4951    9.7168    0.5479 H   0  0  0  0  0  0  0  0  0  0  0  0
    0.9547   11.1444    1.5387 H   0  0  0  0  0  0  0  0  0  0  0  0
   -0.3623    9.1099    2.0333 H   0  0  0  0  0  0  0  0  0  0  0  0
   -1.3611   10.4457    1.3378 H   0  0  0  0  0  0  0  0  0  0  0  0
   -2.0222    8.3762    0.3178 H   0  0  0  0  0  0  0  0  0  0  0  0
    0.1750    7.4260    0.7290 H   0  0  0  0  0  0  0  0  0  0  0  0
   -2.7472   10.6121   -0.1716 H   0  0  0  0  0  0  0  0  0  0  0  0
   -2.2972   11.3964   -1.7238 H   0  0  0  0  0  0  0  0  0  0  0  0
   -3.3651    9.9520   -1.7238 H   0  0  0  0  0  0  0  0  0  0  0  0
   -1.9022    7.5127   -1.9140 H   0  0  0  0  0  0  0  0  0  0  0  0
   -2.4326    8.8104   -3.0371 H   0  0  0  0  0  0  0  0  0  0  0  0
   -0.7205    8.2670   -3.0371 H   0  0  0  0  0  0  0  0  0  0  0  0
    3.2396   11.2220    0.4101 H   0  0  0  0  0  0  0  0  0  0  0  0
    2.9673   10.3291   -1.1246 H   0  0  0  0  0  0  0  0  0  0  0  0
    3.9396   11.8395   -1.1246 H   0  0  0  0  0  0  0  0  0  0  0  0
    1.4511   13.0885    1.0108 H   0  0  0  0  0  0  0  0  0  0  0  0
    2.9176   13.6913    0.0512 H   0  0  0  0  0  0  0  0  0  0  0  0
    0.0155   14.4861   -0.3139 H   0  0  0  0  0  0  0  0  0  0  0  0
    1.4012   15.5009    0.2486 H   0  0  0  0  0  0  0  0  0  0  0  0
    3.3637   15.4470   -0.9039 H   0  0  0  0  0  0  0  0  0  0  0  0
    3.4826   14.5539   -2.4578 H   0  0  0  0  0  0  0  0  0  0  0  0
    3.1050   16.3101   -2.4578 H   0  0  0  0  0  0  0  0  0  0  0  0
  1  2  1  0
  2  3  1  0
  3  4  1  0
  4  5  1  0
  5  6  1  0
  6  7  1  0
  7  8  1  0
  7  9  1  0
  2 10  1  0
 10 11  1  0
 11 12  1  0
 12 13  1  0
 13 14  1  1
 13 15  1  0
 15 16  1  0
 16 17  1  0
 17 18  2  0
 18 19  1  0
 19 20  1  0
 20 21  1  0
 21 22  1  0
 22 23  1  0
 22 24  1  0
 24 25  1  0
 24 26  1  0
 19 27  1  0
 27 28  1  1
 27 29  1  0
 29 30  1  0
 30 31  1  0
 31 32  1  1
  7  5  1  0
 31 10  1  0
 31 13  1  0
 27 15  1  0
 24 18  1  0
  1 33  1  0
  1 34  1  0
  1 35  1  0
  2 36  1  6
  3 37  1  0
  3 38  1  0
  4 39  1  0
  4 40  1  0
  5 41  1  1
  8 42  1  0
  8 43  1  0
  8 44  1  0
  9 45  1  0
  9 46  1  0
  9 47  1  0
 10 48  1  1
 11 49  1  0
 11 50  1  0
 12 51  1  0
 12 52  1  0
 14 53  1  0
 14 54  1  0
 14 55  1  0
 15 56  1  6
 16 57  1  0
 16 58  1  0
 17 59  1  0
 19 60  1  1
 20 61  1  0
 20 62  1  0
 21 63  1  0
 21 64  1  0
 22 65  1  1
 23 66  1  0
 25 67  1  0
 25 68  1  0
 25 69  1  0
 26 70  1  0
 26 71  1  0
 26 72  1  0
 28 73  1  0
 28 74  1  0
 28 75  1  0
 29 76  1  0
 29 77  1  0
 30 78  1  0
 30 79  1  0
 32 80  1  0
 32 81  1  0
 32 82  1  0
M  END
>  <meeko>  (2) 
{"is_sidechain": [false], "intermolecular_energy": 2.731, "internal_energy": -0.839}

$$$$
EPH_relaxed_0001_pdb2pqr_Repair_240_r2_0001_out
     RDKit          3D

 82 86  0  0  0  0  0  0  0  0999 V2000
    0.4090   18.4390   -0.1040 C   0  0  0  0  0  0  0  0  0  0  0  0
    1.4880   17.3680   -0.2830 C   0  0  2  0  0  0  0  0  0  0  0  0
    2.7230   17.9080   -1.0330 C   0  0  0  0  0  0  0  0  0  0  0  0
    3.9540   18.0890   -0.1420 C   0  0  0  0  0  0  0  0  0  0  0  0
    3.5800   18.5580    1.2320 C   0  0  2  0  0  0  0  0  0  0  0  0
    3.7870   19.9570    1.4630 O   0  0  0  0  0  0  0  0  0  0  0  0
    4.5890   19.0600    2.2480 C   0  0  0  0  0  0  0  0  0  0  0  0
    6.0510   19.1170    1.9330 C   0  0  0  0  0  0  0  0  0  0  0  0
    4.2190   19.0310    3.6980 C   0  0  0  0  0  0  0  0  0  0  0  0
    0.9120   16.1680   -1.0250 C   0  0  1  0  0  0  0  0  0  0  0  0
    0.7750   16.4180   -2.5510 C   0  0  0  0  0  0  0  0  0  0  0  0
    1.0620   15.0660   -3.2530 C   0  0  0  0  0  0  0  0  0  0  0  0
    1.0260   14.0200   -2.1140 C   0  0  1  0  0  0  0  0  0  0  0  0
   -0.4900   13.7240   -1.8890 C   0  0  0  0  0  0  0  0  0  0  0  0
    1.8400   12.7070   -2.3570 C   0  0  2  0  0  0  0  0  0  0  0  0
    1.3650   11.8550   -3.5460 C   0  0  0  0  0  0  0  0  0  0  0  0
    0.3360   10.8230   -3.2210 C   0  0  0  0  0  0  0  0  0  0  0  0
    0.0210   10.3960   -1.9840 C   0  0  0  0  0  0  0  0  0  0  0  0
    0.7980   10.8920   -0.7570 C   0  0  1  0  0  0  0  0  0  0  0  0
    1.1600    9.6860    0.1490 C   0  0  0  0  0  0  0  0  0  0  0  0
   -0.0600    8.8520    0.5290 C   0  0  0  0  0  0  0  0  0  0  0  0
   -0.7730    8.3290   -0.7160 C   0  0  2  0  0  0  0  0  0  0  0  0
    0.0820    7.3900   -1.3750 O   0  0  0  0  0  0  0  0  0  0  0  0
   -1.1770    9.4540   -1.7090 C   0  0  0  0  0  0  0  0  0  0  0  0
   -2.3270   10.2960   -1.1020 C   0  0  0  0  0  0  0  0  0  0  0  0
   -1.7570    8.7820   -2.9820 C   0  0  0  0  0  0  0  0  0  0  0  0
    2.0480   11.8250   -1.0600 C   0  0  1  0  0  0  0  0  0  0  0  0
    3.3150   10.9520   -1.3130 C   0  0  0  0  0  0  0  0  0  0  0  0
    2.3590   12.6970    0.2140 C   0  0  0  0  0  0  0  0  0  0  0  0
    1.6110   14.0390    0.3360 C   0  0  0  0  0  0  0  0  0  0  0  0
    1.7120   14.8430   -0.9640 C   0  0  2  0  0  0  0  0  0  0  0  0
    3.2240   15.1740   -1.2050 C   0  0  0  0  0  0  0  0  0  0  0  0
    0.2366   18.6101    0.9689 H   0  0  0  0  0  0  0  0  0  0  0  0
    0.7402   19.3757   -0.5761 H   0  0  0  0  0  0  0  0  0  0  0  0
   -0.5252   18.1008   -0.5761 H   0  0  0  0  0  0  0  0  0  0  0  0
    1.8186   17.0607    0.7201 H   0  0  0  0  0  0  0  0  0  0  0  0
    2.9772   17.2016   -1.8370 H   0  0  0  0  0  0  0  0  0  0  0  0
    2.4555   18.9033   -1.4174 H   0  0  0  0  0  0  0  0  0  0  0  0
    4.4789   17.1259   -0.0593 H   0  0  0  0  0  0  0  0  0  0  0  0
    4.6001   18.8520   -0.6007 H   0  0  0  0  0  0  0  0  0  0  0  0
    2.7795   17.8063    1.2968 H   0  0  0  0  0  0  0  0  0  0  0  0
    6.6273   19.1395    2.8697 H   0  0  0  0  0  0  0  0  0  0  0  0
    6.3351   18.2293    1.3489 H   0  0  0  0  0  0  0  0  0  0  0  0
    6.2651   20.0242    1.3489 H   0  0  0  0  0  0  0  0  0  0  0  0
    5.1300   19.1024    4.3104 H   0  0  0  0  0  0  0  0  0  0  0  0
    3.5574   19.8800    3.9246 H   0  0  0  0  0  0  0  0  0  0  0  0
    3.6977   18.0892    3.9246 H   0  0  0  0  0  0  0  0  0  0  0  0
   -0.0403   16.0580   -0.4855 H   0  0  0  0  0  0  0  0  0  0  0  0
   -0.2431   16.7598   -2.7890 H   0  0  0  0  0  0  0  0  0  0  0  0
    1.4765   17.1951   -2.8885 H   0  0  0  0  0  0  0  0  0  0  0  0
    0.2900   14.8475   -4.0055 H   0  0  0  0  0  0  0  0  0  0  0  0
    2.0238   15.0688   -3.7867 H   0  0  0  0  0  0  0  0  0  0  0  0
   -0.6994   13.6831   -0.8099 H   0  0  0  0  0  0  0  0  0  0  0  0
   -1.0916   14.5216   -2.3493 H   0  0  0  0  0  0  0  0  0  0  0  0
   -0.7474   12.7586   -2.3493 H   0  0  0  0  0  0  0  0  0  0  0  0
    2.8296   13.0925   -2.6435 H   0  0  0  0  0  0  0  0  0  0  0  0
    0.9400   12.5325   -4.3012 H   0  0  0  0  0  0  0  0  0  0  0  0
    2.2493   11.3028   -3.8969 H   0  0  0  0  0  0  0  0  0  0  0  0
   -0.2106   10.3739   -4.0633 H   0  0  0  0  0  0  0  0  0  0  0  0
    0.1189   11.5707   -0.2201 H   0  0  0  0  0  0  0  0  0  0  0  0
    1.8731    9.0432   -0.3880 H   0  0  0  0  0  0  0  0  0  0  0  0
    1.5940   10.0848    1.0778 H   0  0  0  0  0  0  0  0  0  0  0  0
    0.2642    7.9990    1.1432 H   0  0  0  0  0  0  0  0  0  0  0  0
   -0.7585    9.4882    1.0923 H   0  0  0  0  0  0  0  0  0  0  0  0
   -1.7078    7.8525   -0.3857 H   0  0  0  0  0  0  0  0  0  0  0  0
    0.3520    6.7260   -0.7190 H   0  0  0  0  0  0  0  0  0  0  0  0
   -2.2713   10.2552   -0.0042 H   0  0  0  0  0  0  0  0  0  0  0  0
   -2.2325   11.3400   -1.4354 H   0  0  0  0  0  0  0  0  0  0  0  0
   -3.2937    9.8907   -1.4354 H   0  0  0  0  0  0  0  0  0  0  0  0
   -2.4499    7.9792   -2.6896 H   0  0  0  0  0  0  0  0  0  0  0  0
   -2.2960    9.5321   -3.5794 H   0  0  0  0  0  0  0  0  0  0  0  0
   -0.9362    8.3584   -3.5794 H   0  0  0  0  0  0  0  0  0  0  0  0
    3.7515   10.6512   -0.3491 H   0  0  0  0  0  0  0  0  0  0  0  0
    3.0341   10.0549   -1.8842 H   0  0  0  0  0  0  0  0  0  0  0  0
    4.0532   11.5340   -1.8842 H   0  0  0  0  0  0  0  0  0  0  0  0
    2.1081   12.0943    1.0993 H   0  0  0  0  0  0  0  0  0  0  0  0
    3.4219   12.9664    0.1264 H   0  0  0  0  0  0  0  0  0  0  0  0
    0.5514   13.8417    0.5557 H   0  0  0  0  0  0  0  0  0  0  0  0
    2.0698   14.6239    1.1468 H   0  0  0  0  0  0  0  0  0  0  0  0
    3.7338   15.2856   -0.2367 H   0  0  0  0  0  0  0  0  0  0  0  0
    3.6921   14.3571   -1.7738 H   0  0  0  0  0  0  0  0  0  0  0  0
    3.3079   16.1118   -1.7738 H   0  0  0  0  0  0  0  0  0  0  0  0
  1  2  1  0
  2  3  1  0
  3  4  1  0
  4  5  1  0
  5  6  1  0
  6  7  1  0
  7  8  1  0
  7  9  1  0
  2 10  1  0
 10 11  1  0
 11 12  1  0
 12 13  1  0
 13 14  1  1
 13 15  1  0
 15 16  1  0
 16 17  1  0
 17 18  2  0
 18 19  1  0
 19 20  1  0
 20 21  1  0
 21 22  1  0
 22 23  1  0
 22 24  1  0
 24 25  1  0
 24 26  1  0
 19 27  1  0
 27 28  1  6
 27 29  1  0
 29 30  1  0
 30 31  1  0
 31 32  1  6
  7  5  1  0
 31 10  1  0
 31 13  1  0
 27 15  1  0
 24 18  1  0
  1 33  1  0
  1 34  1  0
  1 35  1  0
  2 36  1  1
  3 37  1  0
  3 38  1  0
  4 39  1  0
  4 40  1  0
  5 41  1  1
  8 42  1  0
  8 43  1  0
  8 44  1  0
  9 45  1  0
  9 46  1  0
  9 47  1  0
 10 48  1  1
 11 49  1  0
 11 50  1  0
 12 51  1  0
 12 52  1  0
 14 53  1  0
 14 54  1  0
 14 55  1  0
 15 56  1  6
 16 57  1  0
 16 58  1  0
 17 59  1  0
 19 60  1  1
 20 61  1  0
 20 62  1  0
 21 63  1  0
 21 64  1  0
 22 65  1  1
 23 66  1  0
 25 67  1  0
 25 68  1  0
 25 69  1  0
 26 70  1  0
 26 71  1  0
 26 72  1  0
 28 73  1  0
 28 74  1  0
 28 75  1  0
 29 76  1  0
 29 77  1  0
 30 78  1  0
 30 79  1  0
 32 80  1  0
 32 81  1  0
 32 82  1  0
M  END
>  <meeko>  (3) 
{"is_sidechain": [false], "intermolecular_energy": 2.731, "internal_energy": -0.839}

$$$$
EPH_relaxed_0001_pdb2pqr_Repair_240_r2_0001_out
     RDKit          3D

 82 86  0  0  0  0  0  0  0  0999 V2000
   -3.4030    9.3080    0.5110 C   0  0  0  0  0  0  0  0  0  0  0  0
   -2.5730    9.6740   -0.7220 C   0  0  2  0  0  0  0  0  0  0  0  0
   -1.9030    8.4390   -1.3580 C   0  0  0  0  0  0  0  0  0  0  0  0
   -2.8200    7.6610   -2.3060 C   0  0  0  0  0  0  0  0  0  0  0  0
   -4.2570    7.7590   -1.8920 C   0  0  2  0  0  0  0  0  0  0  0  0
   -4.7990    6.5600   -1.3220 O   0  0  0  0  0  0  0  0  0  0  0  0
   -5.3760    6.9870   -2.5660 C   0  0  0  0  0  0  0  0  0  0  0  0
   -5.1070    6.0630   -3.7120 C   0  0  0  0  0  0  0  0  0  0  0  0
   -6.7770    7.4990   -2.4370 C   0  0  0  0  0  0  0  0  0  0  0  0
   -1.5160   10.7060   -0.3500 C   0  0  1  0  0  0  0  0  0  0  0  0
   -0.4180   10.1280    0.5830 C   0  0  0  0  0  0  0  0  0  0  0  0
    0.9120   10.8220    0.1920 C   0  0  0  0  0  0  0  0  0  0  0  0
    0.4850   12.0030   -0.7110 C   0  0  1  0  0  0  0  0  0  0  0  0
    0.0440   13.1260    0.2790 C   0  0  0  0  0  0  0  0  0  0  0  0
    1.5560   12.5180   -1.7270 C   0  0  2  0  0  0  0  0  0  0  0  0
    2.8360   13.0890   -1.0930 C   0  0  0  0  0  0  0  0  0  0  0  0
    2.8090   14.5540   -0.8090 C   0  0  0  0  0  0  0  0  0  0  0  0
    1.9180   15.4310   -1.3090 C   0  0  0  0  0  0  0  0  0  0  0  0
    0.8650   14.9870   -2.3330 C   0  0  1  0  0  0  0  0  0  0  0  0
    0.8160   16.0080   -3.5000 C   0  0  0  0  0  0  0  0  0  0  0  0
    0.5940   17.4380   -3.0170 C   0  0  0  0  0  0  0  0  0  0  0  0
    1.6920   17.8630   -2.0460 C   0  0  2  0  0  0  0  0  0  0  0  0
    2.9320   17.9380   -2.7570 O   0  0  0  0  0  0  0  0  0  0  0  0
    1.8430   16.9030   -0.8330 C   0  0  0  0  0  0  0  0  0  0  0  0
    0.6170   17.0490    0.1020 C   0  0  0  0  0  0  0  0  0  0  0  0
    3.0750   17.3640   -0.0090 C   0  0  0  0  0  0  0  0  0  0  0  0
    0.9810   13.4850   -2.8400 C   0  0  1  0  0  0  0  0  0  0  0  0
    1.9630   13.4060   -4.0490 C   0  0  0  0  0  0  0  0  0  0  0  0
   -0.4220   13.0140   -3.3760 C   0  0  0  0  0  0  0  0  0  0  0  0
   -1.3910   12.4040   -2.3450 C   0  0  0  0  0  0  0  0  0  0  0  0
   -0.6930   11.3300   -1.5050 C   0  0  2  0  0  0  0  0  0  0  0  0
   -0.2570   10.1760   -2.4710 C   0  0  0  0  0  0  0  0  0  0  0  0
   -2.8375    9.5574    1.4209 H   0  0  0  0  0  0  0  0  0  0  0  0
   -4.3464    9.8736    0.4991 H   0  0  0  0  0  0  0  0  0  0  0  0
   -3.6216    8.2300    0.4991 H   0  0  0  0  0  0  0  0  0  0  0  0
   -3.2598   10.0987   -1.4689 H   0  0  0  0  0  0  0  0  0  0  0  0
   -1.0222    8.7751   -1.9248 H   0  0  0  0  0  0  0  0  0  0  0  0
   -1.6382    7.7578   -0.5359 H   0  0  0  0  0  0  0  0  0  0  0  0
   -2.7129    8.0704   -3.3214 H   0  0  0  0  0  0  0  0  0  0  0  0
   -2.5258    6.6015   -2.2749 H   0  0  0  0  0  0  0  0  0  0  0  0
   -4.1387    8.8250   -1.6479 H   0  0  0  0  0  0  0  0  0  0  0  0
   -4.8191    5.0741   -3.3259 H   0  0  0  0  0  0  0  0  0  0  0  0
   -6.0144    5.9668   -4.3263 H   0  0  0  0  0  0  0  0  0  0  0  0
   -4.2897    6.4689   -4.3263 H   0  0  0  0  0  0  0  0  0  0  0  0
   -7.0362    7.5937   -1.3722 H   0  0  0  0  0  0  0  0  0  0  0  0
   -6.8538    8.4833   -2.9220 H   0  0  0  0  0  0  0  0  0  0  0  0
   -7.4704    6.7961   -2.9220 H   0  0  0  0  0  0  0  0  0  0  0  0
   -2.1596   11.4707    0.1093 H   0  0  0  0  0  0  0  0  0  0  0  0
   -0.6625   10.3424    1.6338 H   0  0  0  0  0  0  0  0  0  0  0  0
   -0.3410    9.0362    0.4731 H   0  0  0  0  0  0  0  0  0  0  0  0
    1.4370   11.1874    1.0869 H   0  0  0  0  0  0  0  0  0  0  0  0
    1.6059   10.1371   -0.3173 H   0  0  0  0  0  0  0  0  0  0  0  0
    0.1809   12.7775    1.3133 H   0  0  0  0  0  0  0  0  0  0  0  0
    0.6562   14.0243    0.1107 H   0  0  0  0  0  0  0  0  0  0  0  0
   -1.0158   13.3677    0.1107 H   0  0  0  0  0  0  0  0  0  0  0  0
    1.8627   11.5922   -2.2357 H   0  0  0  0  0  0  0  0  0  0  0  0
    3.0089   12.5619   -0.1431 H   0  0  0  0  0  0  0  0  0  0  0  0
    3.6354   12.9376   -1.8333 H   0  0  0  0  0  0  0  0  0  0  0  0
    3.5821   14.9506   -0.1344 H   0  0  0  0  0  0  0  0  0  0  0  0
   -0.0968   14.9837   -1.7992 H   0  0  0  0  0  0  0  0  0  0  0  0
    1.7694   15.9645   -4.0469 H   0  0  0  0  0  0  0  0  0  0  0  0
   -0.0332   15.7377   -4.1448 H   0  0  0  0  0  0  0  0  0  0  0  0
    0.5981   18.1153   -3.8837 H   0  0  0  0  0  0  0  0  0  0  0  0
   -0.3734   17.4860   -2.4955 H   0  0  0  0  0  0  0  0  0  0  0  0
    1.4084   18.8436   -1.6362 H   0  0  0  0  0  0  0  0  0  0  0  0
    3.2420   18.8580   -2.7110 H   0  0  0  0  0  0  0  0  0  0  0  0
    0.9485   17.0095    1.1501 H   0  0  0  0  0  0  0  0  0  0  0  0
    0.1221   18.0124   -0.0900 H   0  0  0  0  0  0  0  0  0  0  0  0
   -0.0903   16.2287   -0.0900 H   0  0  0  0  0  0  0  0  0  0  0  0
    2.8504   17.2800    1.0645 H   0  0  0  0  0  0  0  0  0  0  0  0
    3.9386   16.7282   -0.2538 H   0  0  0  0  0  0  0  0  0  0  0  0
    3.3091   18.4106   -0.2538 H   0  0  0  0  0  0  0  0  0  0  0  0
    2.9953   13.3230   -3.6781 H   0  0  0  0  0  0  0  0  0  0  0  0
    1.7212   12.5244   -4.6608 H   0  0  0  0  0  0  0  0  0  0  0  0
    1.8652   14.3149   -4.6608 H   0  0  0  0  0  0  0  0  0  0  0  0
   -0.9183   13.8884   -3.8223 H   0  0  0  0  0  0  0  0  0  0  0  0
   -0.2017   12.1989   -4.0810 H   0  0  0  0  0  0  0  0  0  0  0  0
   -1.7564   13.2001   -1.6796 H   0  0  0  0  0  0  0  0  0  0  0  0
   -2.2289   11.9380   -2.8841 H   0  0  0  0  0  0  0  0  0  0  0  0
    0.0710    9.3078   -1.8805 H   0  0  0  0  0  0  0  0  0  0  0  0
   -1.1081    9.8876   -3.1053 H   0  0  0  0  0  0  0  0  0  0  0  0
    0.5722   10.5224   -3.1053 H   0  0  0  0  0  0  0  0  0  0  0  0
  1  2  1  0
  2  3  1  0
  3  4  1  0
  4  5  1  0
  5  6  1  0
  6  7  1  0
  7  8  1  0
  7  9  1  0
  2 10  1  0
 10 11  1  0
 11 12  1  0
 12 13  1  0
 13 14  1  1
 13 15  1  0
 15 16  1  0
 16 17  1  0
 17 18  2  0
 18 19  1  0
 19 20  1  0
 20 21  1  0
 21 22  1  0
 22 23  1  0
 22 24  1  0
 24 25  1  0
 24 26  1  0
 19 27  1  0
 27 28  1  6
 27 29  1  0
 29 30  1  0
 30 31  1  0
 31 32  1  6
  7  5  1  0
 31 10  1  0
 31 13  1  0
 27 15  1  0
 24 18  1  0
  1 33  1  0
  1 34  1  0
  1 35  1  0
  2 36  1  6
  3 37  1  0
  3 38  1  0
  4 39  1  0
  4 40  1  0
  5 41  1  1
  8 42  1  0
  8 43  1  0
  8 44  1  0
  9 45  1  0
  9 46  1  0
  9 47  1  0
 10 48  1  1
 11 49  1  0
 11 50  1  0
 12 51  1  0
 12 52  1  0
 14 53  1  0
 14 54  1  0
 14 55  1  0
 15 56  1  6
 16 57  1  0
 16 58  1  0
 17 59  1  0
 19 60  1  1
 20 61  1  0
 20 62  1  0
 21 63  1  0
 21 64  1  0
 22 65  1  1
 23 66  1  0
 25 67  1  0
 25 68  1  0
 25 69  1  0
 26 70  1  0
 26 71  1  0
 26 72  1  0
 28 73  1  0
 28 74  1  0
 28 75  1  0
 29 76  1  0
 29 77  1  0
 30 78  1  0
 30 79  1  0
 32 80  1  0
 32 81  1  0
 32 82  1  0
M  END
>  <meeko>  (4) 
{"is_sidechain": [false], "intermolecular_energy": 2.731, "internal_energy": -0.839}

$$$$
EPH_relaxed_0001_pdb2pqr_Repair_240_r2_0001_out
     RDKit          3D

 82 86  0  0  0  0  0  0  0  0999 V2000
    3.6400   17.9840    0.7840 C   0  0  0  0  0  0  0  0  0  0  0  0
    2.6740   18.3750   -0.3370 C   0  0  2  0  0  0  0  0  0  0  0  0
    1.9310   19.6910   -0.0310 C   0  0  0  0  0  0  0  0  0  0  0  0
    0.8560   19.5540    1.0500 C   0  0  0  0  0  0  0  0  0  0  0  0
   -0.4360   20.1890    0.6300 C   0  0  2  0  0  0  0  0  0  0  0  0
   -1.4580   20.1880    1.6360 O   0  0  0  0  0  0  0  0  0  0  0  0
   -1.7300   19.4160    0.4550 C   0  0  0  0  0  0  0  0  0  0  0  0
   -1.7950   17.9400    0.6950 C   0  0  0  0  0  0  0  0  0  0  0  0
   -2.8000   19.9990   -0.4140 C   0  0  0  0  0  0  0  0  0  0  0  0
    1.6690   17.2530   -0.5710 C   0  0  1  0  0  0  0  0  0  0  0  0
    0.4770   17.6950   -1.4620 C   0  0  0  0  0  0  0  0  0  0  0  0
    0.0810   16.4660   -2.3210 C   0  0  0  0  0  0  0  0  0  0  0  0
    0.8260   15.2780   -1.6680 C   0  0  1  0  0  0  0  0  0  0  0  0
   -0.0590   14.8700   -0.4490 C   0  0  0  0  0  0  0  0  0  0  0  0
    1.1270   14.0570   -2.5980 C   0  0  2  0  0  0  0  0  0  0  0  0
   -0.1150   13.3440   -3.1610 C   0  0  0  0  0  0  0  0  0  0  0  0
   -0.6390   12.2220   -2.3270 C   0  0  0  0  0  0  0  0  0  0  0  0
    0.0230   11.6170   -1.3240 C   0  0  0  0  0  0  0  0  0  0  0  0
    1.4770   11.9890   -1.0030 C   0  0  1  0  0  0  0  0  0  0  0  0
    2.3130   10.6960   -0.8170 C   0  0  0  0  0  0  0  0  0  0  0  0
    1.7100    9.7530    0.2180 C   0  0  0  0  0  0  0  0  0  0  0  0
    0.2860    9.3590   -0.1660 C   0  0  2  0  0  0  0  0  0  0  0  0
    0.3320    8.5660   -1.3560 O   0  0  0  0  0  0  0  0  0  0  0  0
   -0.6480   10.5820   -0.3890 C   0  0  0  0  0  0  0  0  0  0  0  0
   -0.9390   11.2690    0.9690 C   0  0  0  0  0  0  0  0  0  0  0  0
   -2.0120   10.0520   -0.9080 C   0  0  0  0  0  0  0  0  0  0  0  0
    2.1630   13.0240   -1.9950 C   0  0  1  0  0  0  0  0  0  0  0  0
    2.7890   12.2650   -3.2050 C   0  0  0  0  0  0  0  0  0  0  0  0
    3.3550   13.7360   -1.2520 C   0  0  0  0  0  0  0  0  0  0  0  0
    3.0140   15.0050   -0.4490 C   0  0  0  0  0  0  0  0  0  0  0  0
    2.1810   15.9780   -1.2880 C   0  0  2  0  0  0  0  0  0  0  0  0
    3.0540   16.4240   -2.5100 C   0  0  0  0  0  0  0  0  0  0  0  0
    3.1673   18.1753    1.7587 H   0  0  0  0  0  0  0  0  0  0  0  0
    3.8865   16.9153    0.6995 H   0  0  0  0  0  0  0  0  0  0  0  0
    4.5604   18.5804    0.6995 H   0  0  0  0  0  0  0  0  0  0  0  0
    3.2709   18.5365   -1.2467 H   0  0  0  0  0  0  0  0  0  0  0  0
    2.6677   20.4358    0.3044 H   0  0  0  0  0  0  0  0  0  0  0  0
    1.4193   19.9938   -0.9565 H   0  0  0  0  0  0  0  0  0  0  0  0
    0.6813   18.4858    1.2458 H   0  0  0  0  0  0  0  0  0  0  0  0
    1.2123   20.0672    1.9554 H   0  0  0  0  0  0  0  0  0  0  0  0
    0.0961   20.8947   -0.0248 H   0  0  0  0  0  0  0  0  0  0  0  0
   -1.8036   17.7446    1.7775 H   0  0  0  0  0  0  0  0  0  0  0  0
   -2.7119   17.5349    0.2420 H   0  0  0  0  0  0  0  0  0  0  0  0
   -0.9173   17.4558    0.2420 H   0  0  0  0  0  0  0  0  0  0  0  0
   -3.5909   20.4299    0.2175 H   0  0  0  0  0  0  0  0  0  0  0  0
   -2.3680   20.7865   -1.0491 H   0  0  0  0  0  0  0  0  0  0  0  0
   -3.2275   19.2091   -1.0491 H   0  0  0  0  0  0  0  0  0  0  0  0
    1.4071   17.0192    0.4715 H   0  0  0  0  0  0  0  0  0  0  0  0
   -0.3703   18.0070   -0.8337 H   0  0  0  0  0  0  0  0  0  0  0  0
    0.7543   18.5486   -2.0979 H   0  0  0  0  0  0  0  0  0  0  0  0
   -1.0069   16.3058   -2.2915 H   0  0  0  0  0  0  0  0  0  0  0  0
    0.3473   16.5941   -3.3806 H   0  0  0  0  0  0  0  0  0  0  0  0
    0.4687   15.1133    0.4850 H   0  0  0  0  0  0  0  0  0  0  0  0
   -1.0108   15.4202   -0.4864 H   0  0  0  0  0  0  0  0  0  0  0  0
   -0.2587   13.7889   -0.4864 H   0  0  0  0  0  0  0  0  0  0  0  0
    1.6154   14.5321   -3.4616 H   0  0  0  0  0  0  0  0  0  0  0  0
   -0.9159   14.0904   -3.2685 H   0  0  0  0  0  0  0  0  0  0  0  0
    0.1986   12.8938   -4.1144 H   0  0  0  0  0  0  0  0  0  0  0  0
   -1.6528   11.8590   -2.5517 H   0  0  0  0  0  0  0  0  0  0  0  0
    1.4461   12.5516   -0.0583 H   0  0  0  0  0  0  0  0  0  0  0  0
    2.3693   10.1708   -1.7819 H   0  0  0  0  0  0  0  0  0  0  0  0
    3.3097   10.9920   -0.4580 H   0  0  0  0  0  0  0  0  0  0  0  0
    2.3293    8.8462    0.2826 H   0  0  0  0  0  0  0  0  0  0  0  0
    1.6814   10.2696    1.1887 H   0  0  0  0  0  0  0  0  0  0  0  0
   -0.1371    8.7894    0.6745 H   0  0  0  0  0  0  0  0  0  0  0  0
    1.1160    7.9940   -1.2980 H   0  0  0  0  0  0  0  0  0  0  0  0
   -0.6533   10.5946    1.7897 H   0  0  0  0  0  0  0  0  0  0  0  0
   -0.3581   12.2004    1.0407 H   0  0  0  0  0  0  0  0  0  0  0  0
   -2.0121   11.4997    1.0407 H   0  0  0  0  0  0  0  0  0  0  0  0
   -2.6572    9.8013   -0.0531 H   0  0  0  0  0  0  0  0  0  0  0  0
   -2.4978   10.8268   -1.5193 H   0  0  0  0  0  0  0  0  0  0  0  0
   -1.8473    9.1524   -1.5193 H   0  0  0  0  0  0  0  0  0  0  0  0
    3.4482   11.4658   -2.8352 H   0  0  0  0  0  0  0  0  0  0  0  0
    1.9873   11.8255   -3.8166 H   0  0  0  0  0  0  0  0  0  0  0  0
    3.3731   12.9684   -3.8166 H   0  0  0  0  0  0  0  0  0  0  0  0
    3.7940   13.0083   -0.5536 H   0  0  0  0  0  0  0  0  0  0  0  0
    4.0312   14.0741   -2.0510 H   0  0  0  0  0  0  0  0  0  0  0  0
    2.4417   14.7211    0.4465 H   0  0  0  0  0  0  0  0  0  0  0  0
    3.9529   15.5026   -0.1646 H   0  0  0  0  0  0  0  0  0  0  0  0
    3.9787   16.8964   -2.1470 H   0  0  0  0  0  0  0  0  0  0  0  0
    3.3067   15.5446   -3.1205 H   0  0  0  0  0  0  0  0  0  0  0  0
    2.4895   17.1442   -3.1205 H   0  0  0  0  0  0  0  0  0  0  0  0
  1  2  1  0
  2  3  1  0
  3  4  1  0
  4  5  1  0
  5  6  1  0
  6  7  1  0
  7  8  1  0
  7  9  1  0
  2 10  1  0
 10 11  1  0
 11 12  1  0
 12 13  1  0
 13 14  1  1
 13 15  1  0
 15 16  1  0
 16 17  1  0
 17 18  2  0
 18 19  1  0
 19 20  1  0
 20 21  1  0
 21 22  1  0
 22 23  1  0
 22 24  1  0
 24 25  1  0
 24 26  1  0
 19 27  1  0
 27 28  1  6
 27 29  1  0
 29 30  1  0
 30 31  1  0
 31 32  1  6
  7  5  1  0
 31 10  1  0
 31 13  1  0
 27 15  1  0
 24 18  1  0
  1 33  1  0
  1 34  1  0
  1 35  1  0
  2 36  1  6
  3 37  1  0
  3 38  1  0
  4 39  1  0
  4 40  1  0
  5 41  1  6
  8 42  1  0
  8 43  1  0
  8 44  1  0
  9 45  1  0
  9 46  1  0
  9 47  1  0
 10 48  1  1
 11 49  1  0
 11 50  1  0
 12 51  1  0
 12 52  1  0
 14 53  1  0
 14 54  1  0
 14 55  1  0
 15 56  1  6
 16 57  1  0
 16 58  1  0
 17 59  1  0
 19 60  1  1
 20 61  1  0
 20 62  1  0
 21 63  1  0
 21 64  1  0
 22 65  1  1
 23 66  1  0
 25 67  1  0
 25 68  1  0
 25 69  1  0
 26 70  1  0
 26 71  1  0
 26 72  1  0
 28 73  1  0
 28 74  1  0
 28 75  1  0
 29 76  1  0
 29 77  1  0
 30 78  1  0
 30 79  1  0
 32 80  1  0
 32 81  1  0
 32 82  1  0
M  END
>  <meeko>  (5) 
{"is_sidechain": [false], "intermolecular_energy": 2.731, "internal_energy": -0.839}

$$$$
EPH_relaxed_0001_pdb2pqr_Repair_240_r2_0001_out
     RDKit          3D

 82 86  0  0  0  0  0  0  0  0999 V2000
    4.2130   17.5610   -0.5930 C   0  0  0  0  0  0  0  0  0  0  0  0
    2.8500   18.1260   -0.1800 C   0  0  2  0  0  0  0  0  0  0  0  0
    2.9010   18.8170    1.1970 C   0  0  0  0  0  0  0  0  0  0  0  0
    4.2650   18.7160    1.8860 C   0  0  0  0  0  0  0  0  0  0  0  0
    4.2160   19.2360    3.2910 C   0  0  2  0  0  0  0  0  0  0  0  0
    5.2330   20.1950    3.6110 O   0  0  0  0  0  0  0  0  0  0  0  0
    5.2880   18.9500    4.3270 C   0  0  0  0  0  0  0  0  0  0  0  0
    6.4840   18.1130    4.0010 C   0  0  0  0  0  0  0  0  0  0  0  0
    4.9330   19.0720    5.7760 C   0  0  0  0  0  0  0  0  0  0  0  0
    1.8090   17.0130   -0.1670 C   0  0  1  0  0  0  0  0  0  0  0  0
    0.3780   17.5310   -0.4750 C   0  0  0  0  0  0  0  0  0  0  0  0
   -0.3380   16.4140   -1.2770 C   0  0  0  0  0  0  0  0  0  0  0  0
    0.5730   15.1740   -1.1190 C   0  0  1  0  0  0  0  0  0  0  0  0
    0.2050   14.5820    0.2780 C   0  0  0  0  0  0  0  0  0  0  0  0
    0.4750   14.0960   -2.2470 C   0  0  2  0  0  0  0  0  0  0  0  0
   -0.9020   13.4250   -2.3910 C   0  0  0  0  0  0  0  0  0  0  0  0
   -1.0960   12.1870   -1.5790 C   0  0  0  0  0  0  0  0  0  0  0  0
   -0.1160   11.4770   -0.9900 C   0  0  0  0  0  0  0  0  0  0  0  0
    1.3590   11.8490   -1.1930 C   0  0  1  0  0  0  0  0  0  0  0  0
    2.1760   10.5700   -1.5120 C   0  0  0  0  0  0  0  0  0  0  0  0
    1.9890    9.4790   -0.4610 C   0  0  0  0  0  0  0  0  0  0  0  0
    0.5180    9.0960   -0.3290 C   0  0  2  0  0  0  0  0  0  0  0  0
    0.0950    8.4670   -1.5430 O   0  0  0  0  0  0  0  0  0  0  0  0
   -0.4060   10.3060   -0.0180 C   0  0  0  0  0  0  0  0  0  0  0  0
   -0.1480   10.7990    1.4270 C   0  0  0  0  0  0  0  0  0  0  0  0
   -1.8750    9.8070   -0.0510 C   0  0  0  0  0  0  0  0  0  0  0  0
    1.6410   13.0260   -2.2240 C   0  0  1  0  0  0  0  0  0  0  0  0
    1.7480   12.4530   -3.6700 C   0  0  0  0  0  0  0  0  0  0  0  0
    3.0390   13.6710   -1.8970 C   0  0  0  0  0  0  0  0  0  0  0  0
    3.0530   14.8120   -0.8610 C   0  0  0  0  0  0  0  0  0  0  0  0
    1.9860   15.8610   -1.1870 C   0  0  2  0  0  0  0  0  0  0  0  0
    2.3420   16.4900   -2.5770 C   0  0  0  0  0  0  0  0  0  0  0  0
    4.7974   17.3187    0.3069 H   0  0  0  0  0  0  0  0  0  0  0  0
    4.0661   16.6496   -1.1912 H   0  0  0  0  0  0  0  0  0  0  0  0
    4.7540   18.3090   -1.1912 H   0  0  0  0  0  0  0  0  0  0  0  0
    2.5692   18.8888   -0.9211 H   0  0  0  0  0  0  0  0  0  0  0  0
    2.6587   19.8813    1.0607 H   0  0  0  0  0  0  0  0  0  0  0  0
    2.1754   18.3009    1.8429 H   0  0  0  0  0  0  0  0  0  0  0  0
    4.5767   17.6613    1.9069 H   0  0  0  0  0  0  0  0  0  0  0  0
    4.9820   19.3276    1.3187 H   0  0  0  0  0  0  0  0  0  0  0  0
    3.1209   19.1351    3.3150 H   0  0  0  0  0  0  0  0  0  0  0  0
    6.9624   17.7782    4.9332 H   0  0  0  0  0  0  0  0  0  0  0  0
    6.1696   17.2368    3.4150 H   0  0  0  0  0  0  0  0  0  0  0  0
    7.1996   18.7085    3.4150 H   0  0  0  0  0  0  0  0  0  0  0  0
    5.7955   18.7756    6.3910 H   0  0  0  0  0  0  0  0  0  0  0  0
    4.6632   20.1144    6.0009 H   0  0  0  0  0  0  0  0  0  0  0  0
    4.0794   18.4156    6.0009 H   0  0  0  0  0  0  0  0  0  0  0  0
    1.9558   16.6348    0.8555 H   0  0  0  0  0  0  0  0  0  0  0  0
   -0.1626   17.7307    0.4620 H   0  0  0  0  0  0  0  0  0  0  0  0
    0.4120   18.4693   -1.0480 H   0  0  0  0  0  0  0  0  0  0  0  0
   -1.3372   16.2171   -0.8612 H   0  0  0  0  0  0  0  0  0  0  0  0
   -0.4886   16.6890   -2.3314 H   0  0  0  0  0  0  0  0  0  0  0  0
    0.6085   15.2311    1.0691 H   0  0  0  0  0  0  0  0  0  0  0  0
   -0.8892   14.5231    0.3746 H   0  0  0  0  0  0  0  0  0  0  0  0
    0.6364   13.5747    0.3746 H   0  0  0  0  0  0  0  0  0  0  0  0
    0.6107   14.6959   -3.1590 H   0  0  0  0  0  0  0  0  0  0  0  0
   -1.6685   14.1536   -2.0884 H   0  0  0  0  0  0  0  0  0  0  0  0
   -0.9807   13.1143   -3.4433 H   0  0  0  0  0  0  0  0  0  0  0  0
   -2.1268   11.8247   -1.4515 H   0  0  0  0  0  0  0  0  0  0  0  0
    1.6983   12.2806   -0.2398 H   0  0  0  0  0  0  0  0  0  0  0  0
    1.8522   10.1789   -2.4878 H   0  0  0  0  0  0  0  0  0  0  0  0
    3.2405   10.8470   -1.5201 H   0  0  0  0  0  0  0  0  0  0  0  0
    2.5671    8.5911   -0.7568 H   0  0  0  0  0  0  0  0  0  0  0  0
    2.3408    9.8613    0.5086 H   0  0  0  0  0  0  0  0  0  0  0  0
    0.4320    8.4091    0.5259 H   0  0  0  0  0  0  0  0  0  0  0  0
    0.2860    9.0800   -2.2740 H   0  0  0  0  0  0  0  0  0  0  0  0
   -0.5357   10.0582    2.1418 H   0  0  0  0  0  0  0  0  0  0  0  0
    0.9332   10.9280    1.5828 H   0  0  0  0  0  0  0  0  0  0  0  0
   -0.6583   11.7609    1.5828 H   0  0  0  0  0  0  0  0  0  0  0  0
   -2.2430    9.6820    0.9781 H   0  0  0  0  0  0  0  0  0  0  0  0
   -2.5005   10.5431   -0.5772 H   0  0  0  0  0  0  0  0  0  0  0  0
   -1.9228    8.8422   -0.5772 H   0  0  0  0  0  0  0  0  0  0  0  0
    1.9497   11.3727   -3.6223 H   0  0  0  0  0  0  0  0  0  0  0  0
    0.8020   12.6261   -4.2040 H   0  0  0  0  0  0  0  0  0  0  0  0
    2.5678   12.9559   -4.2040 H   0  0  0  0  0  0  0  0  0  0  0  0
    3.6943   12.8717   -1.5205 H   0  0  0  0  0  0  0  0  0  0  0  0
    3.3698   14.1334   -2.8387 H   0  0  0  0  0  0  0  0  0  0  0  0
    2.8541   14.3944    0.1370 H   0  0  0  0  0  0  0  0  0  0  0  0
    4.0403   15.2963   -0.8857 H   0  0  0  0  0  0  0  0  0  0  0  0
    2.8785   17.4380   -2.4239 H   0  0  0  0  0  0  0  0  0  0  0  0
    2.9803   15.7944   -3.1415 H   0  0  0  0  0  0  0  0  0  0  0  0
    1.4171   16.6792   -3.1415 H   0  0  0  0  0  0  0  0  0  0  0  0
  1  2  1  0
  2  3  1  0
  3  4  1  0
  4  5  1  0
  5  6  1  0
  6  7  1  0
  7  8  1  0
  7  9  1  0
  2 10  1  0
 10 11  1  0
 11 12  1  0
 12 13  1  0
 13 14  1  1
 13 15  1  0
 15 16  1  0
 16 17  1  0
 17 18  2  0
 18 19  1  0
 19 20  1  0
 20 21  1  0
 21 22  1  0
 22 23  1  0
 22 24  1  0
 24 25  1  0
 24 26  1  0
 19 27  1  0
 27 28  1  6
 27 29  1  0
 29 30  1  0
 30 31  1  0
 31 32  1  6
  7  5  1  0
 31 10  1  0
 31 13  1  0
 27 15  1  0
 24 18  1  0
  1 33  1  0
  1 34  1  0
  1 35  1  0
  2 36  1  6
  3 37  1  0
  3 38  1  0
  4 39  1  0
  4 40  1  0
  5 41  1  1
  8 42  1  0
  8 43  1  0
  8 44  1  0
  9 45  1  0
  9 46  1  0
  9 47  1  0
 10 48  1  1
 11 49  1  0
 11 50  1  0
 12 51  1  0
 12 52  1  0
 14 53  1  0
 14 54  1  0
 14 55  1  0
 15 56  1  6
 16 57  1  0
 16 58  1  0
 17 59  1  0
 19 60  1  1
 20 61  1  0
 20 62  1  0
 21 63  1  0
 21 64  1  0
 22 65  1  1
 23 66  1  0
 25 67  1  0
 25 68  1  0
 25 69  1  0
 26 70  1  0
 26 71  1  0
 26 72  1  0
 28 73  1  0
 28 74  1  0
 28 75  1  0
 29 76  1  0
 29 77  1  0
 30 78  1  0
 30 79  1  0
 32 80  1  0
 32 81  1  0
 32 82  1  0
M  END
>  <meeko>  (6) 
{"is_sidechain": [false], "intermolecular_energy": 2.731, "internal_energy": -0.839}

$$$$
EPH_relaxed_0001_pdb2pqr_Repair_240_r2_0001_out
     RDKit          3D

 82 86  0  0  0  0  0  0  0  0999 V2000
   -5.1770    5.8350   -1.6430 C   0  0  0  0  0  0  0  0  0  0  0  0
   -5.4510    7.3380   -1.7460 C   0  0  2  0  0  0  0  0  0  0  0  0
   -5.2130    8.0650   -0.4080 C   0  0  0  0  0  0  0  0  0  0  0  0
   -4.1680    9.1810   -0.4910 C   0  0  0  0  0  0  0  0  0  0  0  0
   -2.8050    8.6420   -0.8040 C   0  0  2  0  0  0  0  0  0  0  0  0
   -1.8000    8.9540    0.1690 O   0  0  0  0  0  0  0  0  0  0  0  0
   -1.6140    9.5210   -1.1380 C   0  0  0  0  0  0  0  0  0  0  0  0
   -1.7320   11.0130   -1.1760 C   0  0  0  0  0  0  0  0  0  0  0  0
   -0.4730    8.9220   -1.8990 C   0  0  0  0  0  0  0  0  0  0  0  0
   -6.8810    7.5740   -2.2200 C   0  0  1  0  0  0  0  0  0  0  0  0
   -7.1810    6.8870   -3.5790 C   0  0  0  0  0  0  0  0  0  0  0  0
   -8.6580    6.4210   -3.5280 C   0  0  0  0  0  0  0  0  0  0  0  0
   -9.2510    7.1390   -2.2930 C   0  0  1  0  0  0  0  0  0  0  0  0
   -9.5910    8.5780   -2.7910 C   0  0  0  0  0  0  0  0  0  0  0  0
  -10.4860    6.4530   -1.6220 C   0  0  2  0  0  0  0  0  0  0  0  0
  -11.7340    6.3380   -2.5160 C   0  0  0  0  0  0  0  0  0  0  0  0
  -12.6830    7.4880   -2.4360 C   0  0  0  0  0  0  0  0  0  0  0  0
  -12.6890    8.4320   -1.4760 C   0  0  0  0  0  0  0  0  0  0  0  0
  -11.7350    8.3440   -0.2790 C   0  0  1  0  0  0  0  0  0  0  0  0
  -12.5200    8.6200    1.0310 C   0  0  0  0  0  0  0  0  0  0  0  0
  -13.2830    9.9410    0.9880 C   0  0  0  0  0  0  0  0  0  0  0  0
  -14.2630    9.9670   -0.1820 C   0  0  2  0  0  0  0  0  0  0  0  0
  -15.2870    8.9960    0.0540 O   0  0  0  0  0  0  0  0  0  0  0  0
  -13.5870    9.6910   -1.5540 C   0  0  0  0  0  0  0  0  0  0  0  0
  -12.7000   10.8980   -1.9490 C   0  0  0  0  0  0  0  0  0  0  0  0
  -14.7050    9.6050   -2.6280 C   0  0  0  0  0  0  0  0  0  0  0  0
  -10.8490    7.0270   -0.1930 C   0  0  1  0  0  0  0  0  0  0  0  0
  -11.6350    5.9050    0.5510 C   0  0  0  0  0  0  0  0  0  0  0  0
   -9.5700    7.3240    0.6750 C   0  0  0  0  0  0  0  0  0  0  0  0
   -8.3430    7.8880   -0.0660 C   0  0  0  0  0  0  0  0  0  0  0  0
   -8.0250    7.0570   -1.3130 C   0  0  2  0  0  0  0  0  0  0  0  0
   -7.6580    5.6090   -0.8420 C   0  0  0  0  0  0  0  0  0  0  0  0
   -5.1239    5.5437   -0.5836 H   0  0  0  0  0  0  0  0  0  0  0  0
   -5.9887    5.2797   -2.1357 H   0  0  0  0  0  0  0  0  0  0  0  0
   -4.2216    5.6019   -2.1357 H   0  0  0  0  0  0  0  0  0  0  0  0
   -4.7429    7.7540   -2.4777 H   0  0  0  0  0  0  0  0  0  0  0  0
   -6.1655    8.5051   -0.0777 H   0  0  0  0  0  0  0  0  0  0  0  0
   -4.8283    7.3166    0.3004 H   0  0  0  0  0  0  0  0  0  0  0  0
   -4.4624    9.8869   -1.2816 H   0  0  0  0  0  0  0  0  0  0  0  0
   -4.1224    9.6815    0.4875 H   0  0  0  0  0  0  0  0  0  0  0  0
   -3.2411    7.7674   -1.3089 H   0  0  0  0  0  0  0  0  0  0  0  0
   -1.7630   11.4046   -0.1485 H   0  0  0  0  0  0  0  0  0  0  0  0
   -0.8645   11.4361   -1.7037 H   0  0  0  0  0  0  0  0  0  0  0  0
   -2.6552   11.2945   -1.7037 H   0  0  0  0  0  0  0  0  0  0  0  0
    0.2735    8.5301   -1.1924 H   0  0  0  0  0  0  0  0  0  0  0  0
   -0.8444    8.1026   -2.5320 H   0  0  0  0  0  0  0  0  0  0  0  0
   -0.0094    9.6930   -2.5320 H   0  0  0  0  0  0  0  0  0  0  0  0
   -6.8879    8.6737   -2.2446 H   0  0  0  0  0  0  0  0  0  0  0  0
   -7.0371    7.6003   -4.4039 H   0  0  0  0  0  0  0  0  0  0  0  0
   -6.5043    6.0367   -3.7496 H   0  0  0  0  0  0  0  0  0  0  0  0
   -9.1909    6.7184   -4.4432 H   0  0  0  0  0  0  0  0  0  0  0  0
   -8.7481    5.3270   -3.4578 H   0  0  0  0  0  0  0  0  0  0  0  0
   -9.7470    9.2383   -1.9252 H   0  0  0  0  0  0  0  0  0  0  0  0
   -8.7588    8.9616   -3.3995 H   0  0  0  0  0  0  0  0  0  0  0  0
  -10.5069    8.5486   -3.3995 H   0  0  0  0  0  0  0  0  0  0  0  0
  -10.1310    5.4229   -1.4709 H   0  0  0  0  0  0  0  0  0  0  0  0
  -11.3977    6.2466   -3.5593 H   0  0  0  0  0  0  0  0  0  0  0  0
  -12.2884    5.4597   -2.1538 H   0  0  0  0  0  0  0  0  0  0  0  0
  -13.4414    7.5710   -3.2284 H   0  0  0  0  0  0  0  0  0  0  0  0
  -10.9801    9.1288   -0.4344 H   0  0  0  0  0  0  0  0  0  0  0  0
  -13.2386    7.8026    1.1905 H   0  0  0  0  0  0  0  0  0  0  0  0
  -11.7898    8.6824    1.8513 H   0  0  0  0  0  0  0  0  0  0  0  0
  -13.8410   10.0652    1.9278 H   0  0  0  0  0  0  0  0  0  0  0  0
  -12.5601   10.7600    0.8588 H   0  0  0  0  0  0  0  0  0  0  0  0
  -14.6830   10.9821   -0.2386 H   0  0  0  0  0  0  0  0  0  0  0  0
  -15.1520    8.6350    0.9460 H   0  0  0  0  0  0  0  0  0  0  0  0
  -12.3334   11.3968   -1.0397 H   0  0  0  0  0  0  0  0  0  0  0  0
  -11.8446   10.5453   -2.5439 H   0  0  0  0  0  0  0  0  0  0  0  0
  -13.2921   11.6090   -2.5439 H   0  0  0  0  0  0  0  0  0  0  0  0
  -15.6843    9.5297   -2.1327 H   0  0  0  0  0  0  0  0  0  0  0  0
  -14.6803   10.5077   -3.2561 H   0  0  0  0  0  0  0  0  0  0  0  0
  -14.5425    8.7167   -3.2561 H   0  0  0  0  0  0  0  0  0  0  0  0
  -11.5359    6.0465    1.6374 H   0  0  0  0  0  0  0  0  0  0  0  0
  -12.6975    5.9537    0.2703 H   0  0  0  0  0  0  0  0  0  0  0  0
  -11.2263    4.9231    0.2703 H   0  0  0  0  0  0  0  0  0  0  0  0
   -9.8548    8.0519    1.4490 H   0  0  0  0  0  0  0  0  0  0  0  0
   -9.2490    6.3444    1.0589 H   0  0  0  0  0  0  0  0  0  0  0  0
   -8.5506    8.9251   -0.3682 H   0  0  0  0  0  0  0  0  0  0  0  0
   -7.4767    7.8499    0.6109 H   0  0  0  0  0  0  0  0  0  0  0  0
   -7.6487    5.5723    0.2573 H   0  0  0  0  0  0  0  0  0  0  0  0
   -8.4044    4.8982   -1.2263 H   0  0  0  0  0  0  0  0  0  0  0  0
   -6.6632    5.3395   -1.2263 H   0  0  0  0  0  0  0  0  0  0  0  0
  1  2  1  0
  2  3  1  0
  3  4  1  0
  4  5  1  0
  5  6  1  0
  6  7  1  0
  7  8  1  0
  7  9  1  0
  2 10  1  0
 10 11  1  0
 11 12  1  0
 12 13  1  0
 13 14  1  6
 13 15  1  0
 15 16  1  0
 16 17  1  0
 17 18  2  0
 18 19  1  0
 19 20  1  0
 20 21  1  0
 21 22  1  0
 22 23  1  0
 22 24  1  0
 24 25  1  0
 24 26  1  0
 19 27  1  0
 27 28  1  1
 27 29  1  0
 29 30  1  0
 30 31  1  0
 31 32  1  1
  7  5  1  0
 31 10  1  0
 31 13  1  0
 27 15  1  0
 24 18  1  0
  1 33  1  0
  1 34  1  0
  1 35  1  0
  2 36  1  6
  3 37  1  0
  3 38  1  0
  4 39  1  0
  4 40  1  0
  5 41  1  6
  8 42  1  0
  8 43  1  0
  8 44  1  0
  9 45  1  0
  9 46  1  0
  9 47  1  0
 10 48  1  6
 11 49  1  0
 11 50  1  0
 12 51  1  0
 12 52  1  0
 14 53  1  0
 14 54  1  0
 14 55  1  0
 15 56  1  1
 16 57  1  0
 16 58  1  0
 17 59  1  0
 19 60  1  6
 20 61  1  0
 20 62  1  0
 21 63  1  0
 21 64  1  0
 22 65  1  6
 23 66  1  0
 25 67  1  0
 25 68  1  0
 25 69  1  0
 26 70  1  0
 26 71  1  0
 26 72  1  0
 28 73  1  0
 28 74  1  0
 28 75  1  0
 29 76  1  0
 29 77  1  0
 30 78  1  0
 30 79  1  0
 32 80  1  0
 32 81  1  0
 32 82  1  0
M  END
>  <meeko>  (7) 
{"is_sidechain": [false], "intermolecular_energy": 2.731, "internal_energy": -0.839}

$$$$
EPH_relaxed_0001_pdb2pqr_Repair_240_r2_0001_out
     RDKit          3D

 82 86  0  0  0  0  0  0  0  0999 V2000
    0.4190    8.8950   -2.5070 C   0  0  0  0  0  0  0  0  0  0  0  0
    1.1840   10.0520   -3.1570 C   0  0  2  0  0  0  0  0  0  0  0  0
    2.6760   10.0510   -2.7690 C   0  0  0  0  0  0  0  0  0  0  0  0
    3.5950   10.6130   -3.8570 C   0  0  0  0  0  0  0  0  0  0  0  0
    4.9890   10.8280   -3.3490 C   0  0  2  0  0  0  0  0  0  0  0  0
    5.6040   12.0470   -3.7860 O   0  0  0  0  0  0  0  0  0  0  0  0
    6.2140   10.8290   -4.2440 C   0  0  0  0  0  0  0  0  0  0  0  0
    6.1030   10.6110   -5.7200 C   0  0  0  0  0  0  0  0  0  0  0  0
    7.5510   10.5560   -3.6280 C   0  0  0  0  0  0  0  0  0  0  0  0
    0.5450   11.3800   -2.7680 C   0  0  1  0  0  0  0  0  0  0  0  0
   -0.8280   11.2000   -2.0680 C   0  0  0  0  0  0  0  0  0  0  0  0
   -0.9400   12.3250   -1.0070 C   0  0  0  0  0  0  0  0  0  0  0  0
    0.2070   13.3030   -1.3530 C   0  0  1  0  0  0  0  0  0  0  0  0
   -0.3490   14.1770   -2.5210 C   0  0  0  0  0  0  0  0  0  0  0  0
    0.7420   14.1840   -0.1780 C   0  0  2  0  0  0  0  0  0  0  0  0
   -0.2870   15.1520    0.4330 C   0  0  0  0  0  0  0  0  0  0  0  0
   -0.3350   16.5080   -0.1890 C   0  0  0  0  0  0  0  0  0  0  0  0
    0.6020   17.0290   -1.0030 C   0  0  0  0  0  0  0  0  0  0  0  0
    1.9030   16.2700   -1.2940 C   0  0  1  0  0  0  0  0  0  0  0  0
    3.1090   17.2360   -1.1560 C   0  0  0  0  0  0  0  0  0  0  0  0
    2.9580   18.4860   -2.0180 C   0  0  0  0  0  0  0  0  0  0  0  0
    1.6830   19.2450   -1.6590 C   0  0  2  0  0  0  0  0  0  0  0  0
    1.8140   19.7660   -0.3330 O   0  0  0  0  0  0  0  0  0  0  0  0
    0.4020   18.3690   -1.7520 C   0  0  0  0  0  0  0  0  0  0  0  0
    0.0930   18.0550   -3.2360 C   0  0  0  0  0  0  0  0  0  0  0  0
   -0.7920   19.2130   -1.2290 C   0  0  0  0  0  0  0  0  0  0  0  0
    2.1110   14.9160   -0.4870 C   0  0  1  0  0  0  0  0  0  0  0  0
    2.7770   15.2150    0.8910 C   0  0  0  0  0  0  0  0  0  0  0  0
    3.1160   13.9960   -1.2760 C   0  0  0  0  0  0  0  0  0  0  0  0
    2.5120   13.0620   -2.3420 C   0  0  0  0  0  0  0  0  0  0  0  0
    1.3230   12.2800   -1.7750 C   0  0  2  0  0  0  0  0  0  0  0  0
    1.8560   11.3750   -0.6120 C   0  0  0  0  0  0  0  0  0  0  0  0
    0.4786    8.9851   -1.4123 H   0  0  0  0  0  0  0  0  0  0  0  0
   -0.6347    8.9299   -2.8210 H   0  0  0  0  0  0  0  0  0  0  0  0
    0.8637    7.9391   -2.8210 H   0  0  0  0  0  0  0  0  0  0  0  0
    1.1264    9.9170   -4.2472 H   0  0  0  0  0  0  0  0  0  0  0  0
    2.7993   10.6602   -1.8614 H   0  0  0  0  0  0  0  0  0  0  0  0
    2.9669    9.0017   -2.6127 H   0  0  0  0  0  0  0  0  0  0  0  0
    3.6273    9.9041   -4.6975 H   0  0  0  0  0  0  0  0  0  0  0  0
    3.1928   11.5856   -4.1767 H   0  0  0  0  0  0  0  0  0  0  0  0
    4.7572   10.2930   -2.4162 H   0  0  0  0  0  0  0  0  0  0  0  0
    5.6116    9.6458   -5.9122 H   0  0  0  0  0  0  0  0  0  0  0  0
    5.5075   11.4210   -6.1665 H   0  0  0  0  0  0  0  0  0  0  0  0
    7.1083   10.6059   -6.1665 H   0  0  0  0  0  0  0  0  0  0  0  0
    7.4604   10.5745   -2.5319 H   0  0  0  0  0  0  0  0  0  0  0  0
    7.9078    9.5665   -3.9498 H   0  0  0  0  0  0  0  0  0  0  0  0
    8.2672   11.3264   -3.9498 H   0  0  0  0  0  0  0  0  0  0  0  0
    0.5020   11.8603   -3.7567 H   0  0  0  0  0  0  0  0  0  0  0  0
   -1.6422   11.2894   -2.8023 H   0  0  0  0  0  0  0  0  0  0  0  0
   -0.9060   10.2072   -1.6008 H   0  0  0  0  0  0  0  0  0  0  0  0
   -1.9150   12.8295   -1.0773 H   0  0  0  0  0  0  0  0  0  0  0  0
   -0.8634   11.9389    0.0202 H   0  0  0  0  0  0  0  0  0  0  0  0
   -0.8961   15.0369   -2.1072 H   0  0  0  0  0  0  0  0  0  0  0  0
    0.4864   14.5370   -3.1394 H   0  0  0  0  0  0  0  0  0  0  0  0
   -1.0292   13.5729   -3.1394 H   0  0  0  0  0  0  0  0  0  0  0  0
    0.9488   13.4360    0.6016 H   0  0  0  0  0  0  0  0  0  0  0  0
   -1.2833   14.6966    0.3326 H   0  0  0  0  0  0  0  0  0  0  0  0
    0.0237   15.3070    1.4768 H   0  0  0  0  0  0  0  0  0  0  0  0
   -1.2103   17.1347    0.0370 H   0  0  0  0  0  0  0  0  0  0  0  0
    1.8235   15.9186   -2.3333 H   0  0  0  0  0  0  0  0  0  0  0  0
    3.1971   17.5421   -0.1031 H   0  0  0  0  0  0  0  0  0  0  0  0
    4.0070   16.7006   -1.4980 H   0  0  0  0  0  0  0  0  0  0  0  0
    3.8256   19.1424   -1.8555 H   0  0  0  0  0  0  0  0  0  0  0  0
    2.8995   18.1802   -3.0730 H   0  0  0  0  0  0  0  0  0  0  0  0
    1.5635   20.0549   -2.3937 H   0  0  0  0  0  0  0  0  0  0  0  0
    1.9050   20.7310   -0.4030 H   0  0  0  0  0  0  0  0  0  0  0  0
   -0.6775   17.2720   -3.2924 H   0  0  0  0  0  0  0  0  0  0  0  0
   -0.2717   18.9649   -3.7351 H   0  0  0  0  0  0  0  0  0  0  0  0
    1.0086   17.7050   -3.7351 H   0  0  0  0  0  0  0  0  0  0  0  0
   -0.7887   19.2107   -0.1290 H   0  0  0  0  0  0  0  0  0  0  0  0
   -0.6981   20.2465   -1.5938 H   0  0  0  0  0  0  0  0  0  0  0  0
   -1.7350   18.7797   -1.5938 H   0  0  0  0  0  0  0  0  0  0  0  0
    2.0976   14.9100    1.7005 H   0  0  0  0  0  0  0  0  0  0  0  0
    3.7195   14.6536    0.9723 H   0  0  0  0  0  0  0  0  0  0  0  0
    2.9838   16.2923    0.9723 H   0  0  0  0  0  0  0  0  0  0  0  0
    3.8415   14.6513   -1.7802 H   0  0  0  0  0  0  0  0  0  0  0  0
    3.5488   13.3263   -0.5183 H   0  0  0  0  0  0  0  0  0  0  0  0
    2.1717   13.6644   -3.1972 H   0  0  0  0  0  0  0  0  0  0  0  0
    3.2842   12.3456   -2.6589 H   0  0  0  0  0  0  0  0  0  0  0  0
    1.5901   11.8265    0.3552 H   0  0  0  0  0  0  0  0  0  0  0  0
    1.4021   10.3759   -0.6874 H   0  0  0  0  0  0  0  0  0  0  0  0
    2.9499   11.2874   -0.6874 H   0  0  0  0  0  0  0  0  0  0  0  0
  1  2  1  0
  2  3  1  0
  3  4  1  0
  4  5  1  0
  5  6  1  0
  6  7  1  0
  7  8  1  0
  7  9  1  0
  2 10  1  0
 10 11  1  0
 11 12  1  0
 12 13  1  0
 13 14  1  6
 13 15  1  0
 15 16  1  0
 16 17  1  0
 17 18  2  0
 18 19  1  0
 19 20  1  0
 20 21  1  0
 21 22  1  0
 22 23  1  0
 22 24  1  0
 24 25  1  0
 24 26  1  0
 19 27  1  0
 27 28  1  1
 27 29  1  0
 29 30  1  0
 30 31  1  0
 31 32  1  1
  7  5  1  0
 31 10  1  0
 31 13  1  0
 27 15  1  0
 24 18  1  0
  1 33  1  0
  1 34  1  0
  1 35  1  0
  2 36  1  6
  3 37  1  0
  3 38  1  0
  4 39  1  0
  4 40  1  0
  5 41  1  1
  8 42  1  0
  8 43  1  0
  8 44  1  0
  9 45  1  0
  9 46  1  0
  9 47  1  0
 10 48  1  6
 11 49  1  0
 11 50  1  0
 12 51  1  0
 12 52  1  0
 14 53  1  0
 14 54  1  0
 14 55  1  0
 15 56  1  1
 16 57  1  0
 16 58  1  0
 17 59  1  0
 19 60  1  6
 20 61  1  0
 20 62  1  0
 21 63  1  0
 21 64  1  0
 22 65  1  6
 23 66  1  0
 25 67  1  0
 25 68  1  0
 25 69  1  0
 26 70  1  0
 26 71  1  0
 26 72  1  0
 28 73  1  0
 28 74  1  0
 28 75  1  0
 29 76  1  0
 29 77  1  0
 30 78  1  0
 30 79  1  0
 32 80  1  0
 32 81  1  0
 32 82  1  0
M  END
>  <meeko>  (8) 
{"is_sidechain": [false], "intermolecular_energy": 2.731, "internal_energy": -0.839}

$$$$
EPH_relaxed_0001_pdb2pqr_Repair_240_r2_0001_out
     RDKit          3D

 82 86  0  0  0  0  0  0  0  0999 V2000
   -0.2890   10.4800   -3.9810 C   0  0  0  0  0  0  0  0  0  0  0  0
    0.9540   10.3440   -3.0960 C   0  0  2  0  0  0  0  0  0  0  0  0
    0.9750    9.0090   -2.3250 C   0  0  0  0  0  0  0  0  0  0  0  0
   -0.4050    8.5580   -1.8370 C   0  0  0  0  0  0  0  0  0  0  0  0
   -0.6430    8.9490   -0.4100 C   0  0  2  0  0  0  0  0  0  0  0  0
   -2.0180    8.9360   -0.0070 O   0  0  0  0  0  0  0  0  0  0  0  0
   -1.3680   10.2170    0.0010 C   0  0  0  0  0  0  0  0  0  0  0  0
   -1.9010   11.1760   -1.0170 C   0  0  0  0  0  0  0  0  0  0  0  0
   -1.1300   10.7640    1.3740 C   0  0  0  0  0  0  0  0  0  0  0  0
    1.0260   11.5110   -2.1190 C   0  0  1  0  0  0  0  0  0  0  0  0
    2.0860   11.2940   -1.0060 C   0  0  0  0  0  0  0  0  0  0  0  0
    2.6920   12.6850   -0.6880 C   0  0  0  0  0  0  0  0  0  0  0  0
    1.7420   13.6910   -1.3780 C   0  0  1  0  0  0  0  0  0  0  0  0
    0.5420   13.8500   -0.3930 C   0  0  0  0  0  0  0  0  0  0  0  0
    2.3610   15.0750   -1.7610 C   0  0  2  0  0  0  0  0  0  0  0  0
    2.8610   15.9170   -0.5740 C   0  0  0  0  0  0  0  0  0  0  0  0
    1.8530   16.8480    0.0160 C   0  0  0  0  0  0  0  0  0  0  0  0
    0.6920   17.2110   -0.5600 C   0  0  0  0  0  0  0  0  0  0  0  0
    0.3390   16.7490   -1.9790 C   0  0  1  0  0  0  0  0  0  0  0  0
   -0.1860   17.9550   -2.8010 C   0  0  0  0  0  0  0  0  0  0  0  0
   -1.3460   18.6700   -2.1140 C   0  0  0  0  0  0  0  0  0  0  0  0
   -0.9380   19.1660   -0.7290 C   0  0  2  0  0  0  0  0  0  0  0  0
    0.0470   20.1930   -0.8790 O   0  0  0  0  0  0  0  0  0  0  0  0
   -0.3840   18.0390    0.1860 C   0  0  0  0  0  0  0  0  0  0  0  0
   -1.5340   17.0860    0.5930 C   0  0  0  0  0  0  0  0  0  0  0  0
    0.1220   18.6950    1.4990 C   0  0  0  0  0  0  0  0  0  0  0  0
    1.4690   15.9350   -2.7450 C   0  0  1  0  0  0  0  0  0  0  0  0
    2.4330   16.9200   -3.4740 C   0  0  0  0  0  0  0  0  0  0  0  0
    0.7990   15.0570   -3.8670 C   0  0  0  0  0  0  0  0  0  0  0  0
    0.3160   13.6530   -3.4550 C   0  0  0  0  0  0  0  0  0  0  0  0
    1.4090   12.8980   -2.6940 C   0  0  2  0  0  0  0  0  0  0  0  0
    2.6220   12.7040   -3.6670 C   0  0  0  0  0  0  0  0  0  0  0  0
   -1.1821   10.5777   -3.3463 H   0  0  0  0  0  0  0  0  0  0  0  0
   -0.1910   11.3728   -4.6161 H   0  0  0  0  0  0  0  0  0  0  0  0
   -0.3864    9.5872   -4.6161 H   0  0  0  0  0  0  0  0  0  0  0  0
    1.8336   10.3571   -3.7565 H   0  0  0  0  0  0  0  0  0  0  0  0
    1.3800    8.2309   -2.9888 H   0  0  0  0  0  0  0  0  0  0  0  0
    1.5973    9.1637   -1.4312 H   0  0  0  0  0  0  0  0  0  0  0  0
   -1.1762    9.0242   -2.4678 H   0  0  0  0  0  0  0  0  0  0  0  0
   -0.4511    7.4610   -1.9044 H   0  0  0  0  0  0  0  0  0  0  0  0
    0.3241    8.5211   -0.1074 H   0  0  0  0  0  0  0  0  0  0  0  0
   -2.3743   12.0275   -0.5061 H   0  0  0  0  0  0  0  0  0  0  0  0
   -1.0752   11.5390   -1.6465 H   0  0  0  0  0  0  0  0  0  0  0  0
   -2.6453   10.6663   -1.6465 H   0  0  0  0  0  0  0  0  0  0  0  0
   -1.4512   10.0258    2.1236 H   0  0  0  0  0  0  0  0  0  0  0  0
   -0.0584   10.9758    1.5037 H   0  0  0  0  0  0  0  0  0  0  0  0
   -1.7055   11.6924    1.5037 H   0  0  0  0  0  0  0  0  0  0  0  0
   -0.0171   11.5235   -1.7701 H   0  0  0  0  0  0  0  0  0  0  0  0
    1.6110   10.8734   -0.1074 H   0  0  0  0  0  0  0  0  0  0  0  0
    2.8646   10.5897   -1.3341 H   0  0  0  0  0  0  0  0  0  0  0  0
    2.7185   12.8580    0.3980 H   0  0  0  0  0  0  0  0  0  0  0  0
    3.7289   12.7794   -1.0429 H   0  0  0  0  0  0  0  0  0  0  0  0
    0.9090   13.8014    0.6428 H   0  0  0  0  0  0  0  0  0  0  0  0
    0.0536   14.8207   -0.5638 H   0  0  0  0  0  0  0  0  0  0  0  0
   -0.1824   13.0400   -0.5638 H   0  0  0  0  0  0  0  0  0  0  0  0
    3.2618   14.7831   -2.3208 H   0  0  0  0  0  0  0  0  0  0  0  0
    3.1911   15.2275    0.2170 H   0  0  0  0  0  0  0  0  0  0  0  0
    3.6677   16.5519   -0.9691 H   0  0  0  0  0  0  0  0  0  0  0  0
    2.0787   17.2730    1.0052 H   0  0  0  0  0  0  0  0  0  0  0  0
   -0.4580   15.9996   -1.8645 H   0  0  0  0  0  0  0  0  0  0  0  0
    0.6368   18.6715   -2.9409 H   0  0  0  0  0  0  0  0  0  0  0  0
   -0.5541   17.5689   -3.7630 H   0  0  0  0  0  0  0  0  0  0  0  0
   -1.6535   19.5294   -2.7280 H   0  0  0  0  0  0  0  0  0  0  0  0
   -2.1787   17.9601   -2.0014 H   0  0  0  0  0  0  0  0  0  0  0  0
   -1.8425   19.5527   -0.2368 H   0  0  0  0  0  0  0  0  0  0  0  0
   -0.3830   20.9530   -1.3070 H   0  0  0  0  0  0  0  0  0  0  0  0
   -1.5964   17.0343    1.6900 H   0  0  0  0  0  0  0  0  0  0  0  0
   -2.4845   17.4648    0.1891 H   0  0  0  0  0  0  0  0  0  0  0  0
   -1.3383   16.0817    0.1891 H   0  0  0  0  0  0  0  0  0  0  0  0
   -0.2942   18.1554    2.3625 H   0  0  0  0  0  0  0  0  0  0  0  0
    1.2205   18.6486    1.5324 H   0  0  0  0  0  0  0  0  0  0  0  0
   -0.2018   19.7457    1.5324 H   0  0  0  0  0  0  0  0  0  0  0  0
    2.9989   17.4982   -2.7287 H   0  0  0  0  0  0  0  0  0  0  0  0
    3.1320   16.3502   -4.1038 H   0  0  0  0  0  0  0  0  0  0  0  0
    1.8482   17.6066   -4.1038 H   0  0  0  0  0  0  0  0  0  0  0  0
   -0.0724   15.6106   -4.2467 H   0  0  0  0  0  0  0  0  0  0  0  0
    1.5929   14.8822   -4.6081 H   0  0  0  0  0  0  0  0  0  0  0  0
   -0.5689   13.7522   -2.8092 H   0  0  0  0  0  0  0  0  0  0  0  0
    0.0677   13.0869   -4.3649 H   0  0  0  0  0  0  0  0  0  0  0  0
    3.5417   12.5569   -3.0817 H   0  0  0  0  0  0  0  0  0  0  0  0
    2.4461   11.8226   -4.3011 H   0  0  0  0  0  0  0  0  0  0  0  0
    2.7297   13.5963   -4.3011 H   0  0  0  0  0  0  0  0  0  0  0  0
  1  2  1  0
  2  3  1  0
  3  4  1  0
  4  5  1  0
  5  6  1  0
  6  7  1  0
  7  8  1  0
  7  9  1  0
  2 10  1  0
 10 11  1  0
 11 12  1  0
 12 13  1  0
 13 14  1  1
 13 15  1  0
 15 16  1  0
 16 17  1  0
 17 18  2  0
 18 19  1  0
 19 20  1  0
 20 21  1  0
 21 22  1  0
 22 23  1  0
 22 24  1  0
 24 25  1  0
 24 26  1  0
 19 27  1  0
 27 28  1  6
 27 29  1  0
 29 30  1  0
 30 31  1  0
 31 32  1  6
  7  5  1  0
 31 10  1  0
 31 13  1  0
 27 15  1  0
 24 18  1  0
  1 33  1  0
  1 34  1  0
  1 35  1  0
  2 36  1  6
  3 37  1  0
  3 38  1  0
  4 39  1  0
  4 40  1  0
  5 41  1  1
  8 42  1  0
  8 43  1  0
  8 44  1  0
  9 45  1  0
  9 46  1  0
  9 47  1  0
 10 48  1  1
 11 49  1  0
 11 50  1  0
 12 51  1  0
 12 52  1  0
 14 53  1  0
 14 54  1  0
 14 55  1  0
 15 56  1  6
 16 57  1  0
 16 58  1  0
 17 59  1  0
 19 60  1  1
 20 61  1  0
 20 62  1  0
 21 63  1  0
 21 64  1  0
 22 65  1  1
 23 66  1  0
 25 67  1  0
 25 68  1  0
 25 69  1  0
 26 70  1  0
 26 71  1  0
 26 72  1  0
 28 73  1  0
 28 74  1  0
 28 75  1  0
 29 76  1  0
 29 77  1  0
 30 78  1  0
 30 79  1  0
 32 80  1  0
 32 81  1  0
 32 82  1  0
M  END
>  <meeko>  (9) 
{"is_sidechain": [false], "intermolecular_energy": 2.731, "internal_energy": -0.839}

$$$$
EPH_relaxed_0001_pdb2pqr_Repair_240_r2_0001_out
     RDKit          3D

 82 86  0  0  0  0  0  0  0  0999 V2000
    3.1630   18.4320   -3.7500 C   0  0  0  0  0  0  0  0  0  0  0  0
    2.0490   18.2550   -2.7140 C   0  0  2  0  0  0  0  0  0  0  0  0
    2.0190   19.4090   -1.6910 C   0  0  0  0  0  0  0  0  0  0  0  0
    0.6750   20.1390   -1.6270 C   0  0  0  0  0  0  0  0  0  0  0  0
   -0.0180   19.9100   -0.3180 C   0  0  2  0  0  0  0  0  0  0  0  0
   -0.7780   18.6970   -0.2460 O   0  0  0  0  0  0  0  0  0  0  0  0
   -1.5270   19.9200   -0.1560 C   0  0  0  0  0  0  0  0  0  0  0  0
   -2.4340   20.1650   -1.3210 C   0  0  0  0  0  0  0  0  0  0  0  0
   -2.1000   20.1780    1.2020 C   0  0  0  0  0  0  0  0  0  0  0  0
    2.2180   16.9230   -1.9920 C   0  0  1  0  0  0  0  0  0  0  0  0
    2.4990   17.0970   -0.4750 C   0  0  0  0  0  0  0  0  0  0  0  0
    1.8020   15.9150    0.2470 C   0  0  0  0  0  0  0  0  0  0  0  0
    1.4320   14.9300   -0.8860 C   0  0  1  0  0  0  0  0  0  0  0  0
    2.7470   14.1410   -1.1780 C   0  0  0  0  0  0  0  0  0  0  0  0
    0.2340   13.9670   -0.6010 C   0  0  2  0  0  0  0  0  0  0  0  0
    0.4440   12.9920    0.5710 C   0  0  0  0  0  0  0  0  0  0  0  0
    1.0490   11.6770    0.2060 C   0  0  0  0  0  0  0  0  0  0  0  0
    1.1460   11.1810   -1.0410 C   0  0  0  0  0  0  0  0  0  0  0  0
    0.5300   11.9220   -2.2350 C   0  0  1  0  0  0  0  0  0  0  0  0
   -0.2580   10.9180   -3.1170 C   0  0  0  0  0  0  0  0  0  0  0  0
    0.5910    9.7250   -3.5460 C   0  0  0  0  0  0  0  0  0  0  0  0
    1.1380    8.9800   -2.3320 C   0  0  2  0  0  0  0  0  0  0  0  0
    0.0460    8.3780   -1.6300 O   0  0  0  0  0  0  0  0  0  0  0  0
    1.9420    9.8920   -1.3640 C   0  0  0  0  0  0  0  0  0  0  0  0
    3.2810   10.3010   -2.0270 C   0  0  0  0  0  0  0  0  0  0  0  0
    2.3160    9.0500   -0.1140 C   0  0  0  0  0  0  0  0  0  0  0  0
   -0.3170   13.2200   -1.8820 C   0  0  1  0  0  0  0  0  0  0  0  0
   -1.7920   12.8230   -1.5670 C   0  0  0  0  0  0  0  0  0  0  0  0
   -0.3700   14.1580   -3.1460 C   0  0  0  0  0  0  0  0  0  0  0  0
    0.7810   15.1690   -3.3090 C   0  0  0  0  0  0  0  0  0  0  0  0
    1.0150   15.9470   -2.0100 C   0  0  2  0  0  0  0  0  0  0  0  0
   -0.2840   16.7670   -1.7030 C   0  0  0  0  0  0  0  0  0  0  0  0
    4.1225   18.5845   -3.2342 H   0  0  0  0  0  0  0  0  0  0  0  0
    3.2242   17.5323   -4.3799 H   0  0  0  0  0  0  0  0  0  0  0  0
    2.9423   19.3064   -4.3799 H   0  0  0  0  0  0  0  0  0  0  0  0
    1.0902   18.2667   -3.2531 H   0  0  0  0  0  0  0  0  0  0  0  0
    2.2379   18.9962   -0.6952 H   0  0  0  0  0  0  0  0  0  0  0  0
    2.7698   20.1451   -2.0142 H   0  0  0  0  0  0  0  0  0  0  0  0
    0.8487   21.2177   -1.7546 H   0  0  0  0  0  0  0  0  0  0  0  0
    0.0325   19.7459   -2.4287 H   0  0  0  0  0  0  0  0  0  0  0  0
    0.7857   20.4298    0.2241 H   0  0  0  0  0  0  0  0  0  0  0  0
   -3.4356   20.4355   -0.9554 H   0  0  0  0  0  0  0  0  0  0  0  0
   -2.0323   20.9868   -1.9319 H   0  0  0  0  0  0  0  0  0  0  0  0
   -2.5007   19.2527   -1.9319 H   0  0  0  0  0  0  0  0  0  0  0  0
   -1.3822   19.8548    1.9703 H   0  0  0  0  0  0  0  0  0  0  0  0
   -2.3008   21.2534    1.3170 H   0  0  0  0  0  0  0  0  0  0  0  0
   -3.0383   19.6155    1.3170 H   0  0  0  0  0  0  0  0  0  0  0  0
    3.0523   16.5028   -2.5729 H   0  0  0  0  0  0  0  0  0  0  0  0
    3.5822   17.0714   -0.2849 H   0  0  0  0  0  0  0  0  0  0  0  0
    2.1180   18.0625   -0.1108 H   0  0  0  0  0  0  0  0  0  0  0  0
    2.4866   15.4408    0.9657 H   0  0  0  0  0  0  0  0  0  0  0  0
    0.9223   16.2381    0.8229 H   0  0  0  0  0  0  0  0  0  0  0  0
    3.2222   13.8559   -0.2278 H   0  0  0  0  0  0  0  0  0  0  0  0
    2.5106   13.2354   -1.7560 H   0  0  0  0  0  0  0  0  0  0  0  0
    3.4348   14.7757   -1.7560 H   0  0  0  0  0  0  0  0  0  0  0  0
   -0.5531   14.6622   -0.2738 H   0  0  0  0  0  0  0  0  0  0  0  0
    1.1048   13.4785    1.3036 H   0  0  0  0  0  0  0  0  0  0  0  0
   -0.5588   12.7672    0.9632 H   0  0  0  0  0  0  0  0  0  0  0  0
    1.4491   11.0618    1.0254 H   0  0  0  0  0  0  0  0  0  0  0  0
    1.3745   12.3362   -2.8053 H   0  0  0  0  0  0  0  0  0  0  0  0
   -1.1219   10.5486   -2.5450 H   0  0  0  0  0  0  0  0  0  0  0  0
   -0.5727   11.4488   -4.0276 H   0  0  0  0  0  0  0  0  0  0  0  0
   -0.0284    9.0378   -4.1410 H   0  0  0  0  0  0  0  0  0  0  0  0
    1.4384   10.0937   -4.1427 H   0  0  0  0  0  0  0  0  0  0  0  0
    1.8408    8.2188   -2.7016 H   0  0  0  0  0  0  0  0  0  0  0  0
   -0.7160    8.3570   -2.2330 H   0  0  0  0  0  0  0  0  0  0  0  0
    4.0224   10.5275   -1.2466 H   0  0  0  0  0  0  0  0  0  0  0  0
    3.6481    9.4740   -2.6526 H   0  0  0  0  0  0  0  0  0  0  0  0
    3.1233   11.1919   -2.6526 H   0  0  0  0  0  0  0  0  0  0  0  0
    2.0654    9.6141    0.7965 H   0  0  0  0  0  0  0  0  0  0  0  0
    1.7529    8.1051   -0.1265 H   0  0  0  0  0  0  0  0  0  0  0  0
    3.3946    8.8343   -0.1265 H   0  0  0  0  0  0  0  0  0  0  0  0
   -1.9365   12.7841   -0.4772 H   0  0  0  0  0  0  0  0  0  0  0  0
   -2.4733   13.5697   -2.0008 H   0  0  0  0  0  0  0  0  0  0  0  0
   -2.0065   11.8352   -2.0008 H   0  0  0  0  0  0  0  0  0  0  0  0
   -0.3766   13.5144   -4.0381 H   0  0  0  0  0  0  0  0  0  0  0  0
   -1.2742   14.7700   -3.0128 H   0  0  0  0  0  0  0  0  0  0  0  0
    1.7008   14.6274   -3.5749 H   0  0  0  0  0  0  0  0  0  0  0  0
    0.5118   15.8825   -4.1017 H   0  0  0  0  0  0  0  0  0  0  0  0
   -0.4162   16.8504   -0.6142 H   0  0  0  0  0  0  0  0  0  0  0  0
   -0.1946   17.7727   -2.1396 H   0  0  0  0  0  0  0  0  0  0  0  0
   -1.1534   16.2537   -2.1396 H   0  0  0  0  0  0  0  0  0  0  0  0
  1  2  1  0
  2  3  1  0
  3  4  1  0
  4  5  1  0
  5  6  1  0
  6  7  1  0
  7  8  1  0
  7  9  1  0
  2 10  1  0
 10 11  1  0
 11 12  1  0
 12 13  1  0
 13 14  1  6
 13 15  1  0
 15 16  1  0
 16 17  1  0
 17 18  2  0
 18 19  1  0
 19 20  1  0
 20 21  1  0
 21 22  1  0
 22 23  1  0
 22 24  1  0
 24 25  1  0
 24 26  1  0
 19 27  1  0
 27 28  1  1
 27 29  1  0
 29 30  1  0
 30 31  1  0
 31 32  1  1
  7  5  1  0
 31 10  1  0
 31 13  1  0
 27 15  1  0
 24 18  1  0
  1 33  1  0
  1 34  1  0
  1 35  1  0
  2 36  1  6
  3 37  1  0
  3 38  1  0
  4 39  1  0
  4 40  1  0
  5 41  1  1
  8 42  1  0
  8 43  1  0
  8 44  1  0
  9 45  1  0
  9 46  1  0
  9 47  1  0
 10 48  1  6
 11 49  1  0
 11 50  1  0
 12 51  1  0
 12 52  1  0
 14 53  1  0
 14 54  1  0
 14 55  1  0
 15 56  1  1
 16 57  1  0
 16 58  1  0
 17 59  1  0
 19 60  1  6
 20 61  1  0
 20 62  1  0
 21 63  1  0
 21 64  1  0
 22 65  1  6
 23 66  1  0
 25 67  1  0
 25 68  1  0
 25 69  1  0
 26 70  1  0
 26 71  1  0
 26 72  1  0
 28 73  1  0
 28 74  1  0
 28 75  1  0
 29 76  1  0
 29 77  1  0
 30 78  1  0
 30 79  1  0
 32 80  1  0
 32 81  1  0
 32 82  1  0
M  END
>  <meeko>  (10) 
{"is_sidechain": [false], "intermolecular_energy": 2.731, "internal_energy": -0.839}

$$$$
EPH_relaxed_0001_pdb2pqr_Repair_240_r2_0001_out
     RDKit          3D

 82 86  0  0  0  0  0  0  0  0999 V2000
   -0.8810   18.9870   -2.6980 C   0  0  0  0  0  0  0  0  0  0  0  0
    0.1760   18.6190   -1.6530 C   0  0  2  0  0  0  0  0  0  0  0  0
    1.2980   19.6730   -1.5670 C   0  0  0  0  0  0  0  0  0  0  0  0
    1.5450   20.1940   -0.1480 C   0  0  0  0  0  0  0  0  0  0  0  0
    2.9700   20.0010    0.2730 C   0  0  2  0  0  0  0  0  0  0  0  0
    3.2480   18.7340    0.8830 O   0  0  0  0  0  0  0  0  0  0  0  0
    3.4060   19.8890    1.7220 C   0  0  0  0  0  0  0  0  0  0  0  0
    2.4170   19.9670    2.8430 C   0  0  0  0  0  0  0  0  0  0  0  0
    4.8300   20.1930    2.0670 C   0  0  0  0  0  0  0  0  0  0  0  0
    0.7690   17.2520   -1.9740 C   0  0  1  0  0  0  0  0  0  0  0  0
    2.2930   17.3150   -2.2640 C   0  0  0  0  0  0  0  0  0  0  0  0
    2.9080   16.0050   -1.7090 C   0  0  0  0  0  0  0  0  0  0  0  0
    1.6920   15.0940   -1.4220 C   0  0  1  0  0  0  0  0  0  0  0  0
    1.3150   14.4780   -2.8060 C   0  0  0  0  0  0  0  0  0  0  0  0
    1.8980   13.9880   -0.3360 C   0  0  2  0  0  0  0  0  0  0  0  0
    2.9720   12.9380   -0.6690 C   0  0  0  0  0  0  0  0  0  0  0  0
    2.4800   11.7330   -1.4000 C   0  0  0  0  0  0  0  0  0  0  0  0
    1.1910   11.3650   -1.5250 C   0  0  0  0  0  0  0  0  0  0  0  0
    0.0780   12.1440   -0.8110 C   0  0  1  0  0  0  0  0  0  0  0  0
   -0.8860   11.1470   -0.1150 C   0  0  0  0  0  0  0  0  0  0  0  0
   -1.4330   10.0950   -1.0750 C   0  0  0  0  0  0  0  0  0  0  0  0
   -0.2980    9.3030   -1.7200 C   0  0  2  0  0  0  0  0  0  0  0  0
    0.3560    8.5280   -0.7110 O   0  0  0  0  0  0  0  0  0  0  0  0
    0.7420   10.2030   -2.4440 C   0  0  0  0  0  0  0  0  0  0  0  0
    0.1080   10.8100   -3.7200 C   0  0  0  0  0  0  0  0  0  0  0  0
    1.9050    9.2950   -2.9280 C   0  0  0  0  0  0  0  0  0  0  0  0
    0.5580   13.3070    0.1590 C   0  0  1  0  0  0  0  0  0  0  0  0
    0.8500   12.7300    1.5780 C   0  0  0  0  0  0  0  0  0  0  0  0
   -0.6120   14.3460    0.3340 C   0  0  0  0  0  0  0  0  0  0  0  0
   -0.6910   15.4840   -0.7020 C   0  0  0  0  0  0  0  0  0  0  0  0
    0.6720   16.1600   -0.8790 C   0  0  2  0  0  0  0  0  0  0  0  0
    1.0670   16.8070    0.4920 C   0  0  0  0  0  0  0  0  0  0  0  0
   -1.8025   19.3078   -2.1902 H   0  0  0  0  0  0  0  0  0  0  0  0
   -0.5046   19.8070   -3.3273 H   0  0  0  0  0  0  0  0  0  0  0  0
   -1.0952   18.1106   -3.3273 H   0  0  0  0  0  0  0  0  0  0  0  0
   -0.3230   18.5873   -0.6732 H   0  0  0  0  0  0  0  0  0  0  0  0
    2.2293   19.2200   -1.9378 H   0  0  0  0  0  0  0  0  0  0  0  0
    0.9790   20.5328   -2.1745 H   0  0  0  0  0  0  0  0  0  0  0  0
    1.3060   21.2672   -0.1156 H   0  0  0  0  0  0  0  0  0  0  0  0
    0.9036   19.6263    0.5422 H   0  0  0  0  0  0  0  0  0  0  0  0
    3.3252   20.6277   -0.5583 H   0  0  0  0  0  0  0  0  0  0  0  0
    2.9490   19.9250    3.8049 H   0  0  0  0  0  0  0  0  0  0  0  0
    1.8582   20.9120    2.7739 H   0  0  0  0  0  0  0  0  0  0  0  0
    1.7170   19.1213    2.7739 H   0  0  0  0  0  0  0  0  0  0  0  0
    4.9451   20.2176    3.1607 H   0  0  0  0  0  0  0  0  0  0  0  0
    5.4834   19.4141    1.6470 H   0  0  0  0  0  0  0  0  0  0  0  0
    5.1083   21.1708    1.6470 H   0  0  0  0  0  0  0  0  0  0  0  0
    0.1435   16.9774   -2.8362 H   0  0  0  0  0  0  0  0  0  0  0  0
    2.4698   17.3873   -3.3473 H   0  0  0  0  0  0  0  0  0  0  0  0
    2.7491   18.1971   -1.7908 H   0  0  0  0  0  0  0  0  0  0  0  0
    3.5727   15.5423   -2.4533 H   0  0  0  0  0  0  0  0  0  0  0  0
    3.5198   16.1790   -0.8116 H   0  0  0  0  0  0  0  0  0  0  0  0
    0.7465   13.5491   -2.6513 H   0  0  0  0  0  0  0  0  0  0  0  0
    0.7004   15.1943   -3.3710 H   0  0  0  0  0  0  0  0  0  0  0  0
    2.2325   14.2566   -3.3710 H   0  0  0  0  0  0  0  0  0  0  0  0
    2.2959   14.5634    0.5128 H   0  0  0  0  0  0  0  0  0  0  0  0
    3.7400   13.4223   -1.2900 H   0  0  0  0  0  0  0  0  0  0  0  0
    3.3520   12.5741    0.2970 H   0  0  0  0  0  0  0  0  0  0  0  0
    3.2350   11.0910   -1.8772 H   0  0  0  0  0  0  0  0  0  0  0  0
   -0.4588   12.6966   -1.5961 H   0  0  0  0  0  0  0  0  0  0  0  0
   -0.3423   10.6373    0.6940 H   0  0  0  0  0  0  0  0  0  0  0  0
   -1.7400   11.7228    0.2712 H   0  0  0  0  0  0  0  0  0  0  0  0
   -2.0838    9.4040   -0.5192 H   0  0  0  0  0  0  0  0  0  0  0  0
   -2.0009   10.6041   -1.8677 H   0  0  0  0  0  0  0  0  0  0  0  0
   -0.7436    8.6562   -2.4901 H   0  0  0  0  0  0  0  0  0  0  0  0
    0.6320    9.1370   -0.0050 H   0  0  0  0  0  0  0  0  0  0  0  0
   -0.6593   11.5446   -3.4343 H   0  0  0  0  0  0  0  0  0  0  0  0
    0.8876   11.3070   -4.3160 H   0  0  0  0  0  0  0  0  0  0  0  0
   -0.3546   10.0095   -4.3160 H   0  0  0  0  0  0  0  0  0  0  0  0
    2.4344    8.8817   -2.0569 H   0  0  0  0  0  0  0  0  0  0  0  0
    1.4995    8.4721   -3.5350 H   0  0  0  0  0  0  0  0  0  0  0  0
    2.6049    9.8880   -3.5350 H   0  0  0  0  0  0  0  0  0  0  0  0
    0.4925   13.4364    2.3417 H   0  0  0  0  0  0  0  0  0  0  0  0
    0.3303   11.7678    1.6966 H   0  0  0  0  0  0  0  0  0  0  0  0
    1.9331   12.5789    1.6966 H   0  0  0  0  0  0  0  0  0  0  0  0
   -1.5601   13.7900    0.2906 H   0  0  0  0  0  0  0  0  0  0  0  0
   -0.4135   14.8442    1.2944 H   0  0  0  0  0  0  0  0  0  0  0  0
   -1.0152   15.0694   -1.6679 H   0  0  0  0  0  0  0  0  0  0  0  0
   -1.4109   16.2347   -0.3441 H   0  0  0  0  0  0  0  0  0  0  0  0
    0.6865   16.1838    1.3147 H   0  0  0  0  0  0  0  0  0  0  0  0
    2.1625   16.8777    0.5620 H   0  0  0  0  0  0  0  0  0  0  0  0
    0.6293   17.8138    0.5620 H   0  0  0  0  0  0  0  0  0  0  0  0
  1  2  1  0
  2  3  1  0
  3  4  1  0
  4  5  1  0
  5  6  1  0
  6  7  1  0
  7  8  1  0
  7  9  1  0
  2 10  1  0
 10 11  1  0
 11 12  1  0
 12 13  1  0
 13 14  1  6
 13 15  1  0
 15 16  1  0
 16 17  1  0
 17 18  2  0
 18 19  1  0
 19 20  1  0
 20 21  1  0
 21 22  1  0
 22 23  1  0
 22 24  1  0
 24 25  1  0
 24 26  1  0
 19 27  1  0
 27 28  1  1
 27 29  1  0
 29 30  1  0
 30 31  1  0
 31 32  1  1
  7  5  1  0
 31 10  1  0
 31 13  1  0
 27 15  1  0
 24 18  1  0
  1 33  1  0
  1 34  1  0
  1 35  1  0
  2 36  1  1
  3 37  1  0
  3 38  1  0
  4 39  1  0
  4 40  1  0
  5 41  1  6
  8 42  1  0
  8 43  1  0
  8 44  1  0
  9 45  1  0
  9 46  1  0
  9 47  1  0
 10 48  1  6
 11 49  1  0
 11 50  1  0
 12 51  1  0
 12 52  1  0
 14 53  1  0
 14 54  1  0
 14 55  1  0
 15 56  1  1
 16 57  1  0
 16 58  1  0
 17 59  1  0
 19 60  1  6
 20 61  1  0
 20 62  1  0
 21 63  1  0
 21 64  1  0
 22 65  1  6
 23 66  1  0
 25 67  1  0
 25 68  1  0
 25 69  1  0
 26 70  1  0
 26 71  1  0
 26 72  1  0
 28 73  1  0
 28 74  1  0
 28 75  1  0
 29 76  1  0
 29 77  1  0
 30 78  1  0
 30 79  1  0
 32 80  1  0
 32 81  1  0
 32 82  1  0
M  END
>  <meeko>  (11) 
{"is_sidechain": [false], "intermolecular_energy": 2.731, "internal_energy": -0.839}

$$$$
EPH_relaxed_0001_pdb2pqr_Repair_240_r2_0001_out
     RDKit          3D

 82 86  0  0  0  0  0  0  0  0999 V2000
    4.0450   17.1390    0.7240 C   0  0  0  0  0  0  0  0  0  0  0  0
    3.3360   16.9300   -0.6170 C   0  0  2  0  0  0  0  0  0  0  0  0
    2.8600   18.2600   -1.2360 C   0  0  0  0  0  0  0  0  0  0  0  0
    2.0320   18.0830   -2.5120 C   0  0  0  0  0  0  0  0  0  0  0  0
    0.7040   18.7700   -2.4110 C   0  0  2  0  0  0  0  0  0  0  0  0
    0.7450   20.1870   -2.6240 O   0  0  0  0  0  0  0  0  0  0  0  0
    0.3530   19.7550   -1.3110 C   0  0  0  0  0  0  0  0  0  0  0  0
    1.3330   20.1060   -0.2370 C   0  0  0  0  0  0  0  0  0  0  0  0
   -1.0920   19.9980   -1.0030 C   0  0  0  0  0  0  0  0  0  0  0  0
    2.1530   15.9860   -0.4380 C   0  0  1  0  0  0  0  0  0  0  0  0
    0.7950   16.7340   -0.3760 C   0  0  0  0  0  0  0  0  0  0  0  0
   -0.2510   15.8200   -1.0630 C   0  0  0  0  0  0  0  0  0  0  0  0
    0.4560   14.4510   -1.1990 C   0  0  1  0  0  0  0  0  0  0  0  0
    0.3060   13.7810    0.2030 C   0  0  0  0  0  0  0  0  0  0  0  0
   -0.0590   13.5180   -2.3430 C   0  0  2  0  0  0  0  0  0  0  0  0
   -1.5260   13.0720   -2.2110 C   0  0  0  0  0  0  0  0  0  0  0  0
   -1.7410   11.8000   -1.4590 C   0  0  0  0  0  0  0  0  0  0  0  0
   -0.7870   10.9000   -1.1570 C   0  0  0  0  0  0  0  0  0  0  0  0
    0.6490   11.0710   -1.6680 C   0  0  1  0  0  0  0  0  0  0  0  0
    1.1570    9.7250   -2.2480 C   0  0  0  0  0  0  0  0  0  0  0  0
    1.0240    8.5740   -1.2560 C   0  0  0  0  0  0  0  0  0  0  0  0
   -0.4270    8.3970   -0.8150 C   0  0  2  0  0  0  0  0  0  0  0  0
   -1.1990    7.9620   -1.9380 O   0  0  0  0  0  0  0  0  0  0  0  0
   -1.0490    9.6920   -0.2230 C   0  0  0  0  0  0  0  0  0  0  0  0
   -0.4080    9.9950    1.1540 C   0  0  0  0  0  0  0  0  0  0  0  0
   -2.5530    9.4180    0.0490 C   0  0  0  0  0  0  0  0  0  0  0  0
    0.8910   12.2920   -2.6570 C   0  0  1  0  0  0  0  0  0  0  0  0
    0.5880   11.8570   -4.1230 C   0  0  0  0  0  0  0  0  0  0  0  0
    2.4140   12.6900   -2.6180 C   0  0  0  0  0  0  0  0  0  0  0  0
    2.8390   13.7070   -1.5410 C   0  0  0  0  0  0  0  0  0  0  0  0
    1.9130   14.9280   -1.5450 C   0  0  2  0  0  0  0  0  0  0  0  0
    2.0600   15.6350   -2.9350 C   0  0  0  0  0  0  0  0  0  0  0  0
    3.3436   16.9322    1.5457 H   0  0  0  0  0  0  0  0  0  0  0  0
    4.9043   16.4560    0.7948 H   0  0  0  0  0  0  0  0  0  0  0  0
    4.3964   18.1789    0.7948 H   0  0  0  0  0  0  0  0  0  0  0  0
    4.0648   16.4853   -1.3106 H   0  0  0  0  0  0  0  0  0  0  0  0
    2.2445   18.7884   -0.4930 H   0  0  0  0  0  0  0  0  0  0  0  0
    3.7612   18.8265   -1.5133 H   0  0  0  0  0  0  0  0  0  0  0  0
    2.5892   18.5073   -3.3602 H   0  0  0  0  0  0  0  0  0  0  0  0
    1.8515   17.0077   -2.6571 H   0  0  0  0  0  0  0  0  0  0  0  0
    0.1872   17.8784   -2.7957 H   0  0  0  0  0  0  0  0  0  0  0  0
    0.8722   19.9409    0.7481 H   0  0  0  0  0  0  0  0  0  0  0  0
    2.2266   19.4721   -0.3346 H   0  0  0  0  0  0  0  0  0  0  0  0
    1.6209   21.1631   -0.3346 H   0  0  0  0  0  0  0  0  0  0  0  0
   -1.2355   20.0221    0.0873 H   0  0  0  0  0  0  0  0  0  0  0  0
   -1.4021   20.9609   -1.4350 H   0  0  0  0  0  0  0  0  0  0  0  0
   -1.7000   19.1895   -1.4350 H   0  0  0  0  0  0  0  0  0  0  0  0
    2.4529   15.4910    0.4975 H   0  0  0  0  0  0  0  0  0  0  0  0
    0.5100   16.9155    0.6708 H   0  0  0  0  0  0  0  0  0  0  0  0
    0.8583   17.7097   -0.8799 H   0  0  0  0  0  0  0  0  0  0  0  0
   -1.1551   15.7302   -0.4428 H   0  0  0  0  0  0  0  0  0  0  0  0
   -0.5788   16.2184   -2.0345 H   0  0  0  0  0  0  0  0  0  0  0  0
    0.4743   14.5325    0.9884 H   0  0  0  0  0  0  0  0  0  0  0  0
   -0.7074   13.3654    0.3042 H   0  0  0  0  0  0  0  0  0  0  0  0
    1.0455   12.9730    0.3042 H   0  0  0  0  0  0  0  0  0  0  0  0
   -0.0257   14.1809   -3.2202 H   0  0  0  0  0  0  0  0  0  0  0  0
   -2.0786   13.8702   -1.6937 H   0  0  0  0  0  0  0  0  0  0  0  0
   -1.8799   12.8834   -3.2353 H   0  0  0  0  0  0  0  0  0  0  0  0
   -2.7653   11.5801   -1.1236 H   0  0  0  0  0  0  0  0  0  0  0  0
    1.2525   11.3502   -0.7918 H   0  0  0  0  0  0  0  0  0  0  0  0
    0.5710    9.4849   -3.1475 H   0  0  0  0  0  0  0  0  0  0  0  0
    2.2255    9.8436   -2.4810 H   0  0  0  0  0  0  0  0  0  0  0  0
    1.3707    7.6457   -1.7335 H   0  0  0  0  0  0  0  0  0  0  0  0
    1.6343    8.8026   -0.3699 H   0  0  0  0  0  0  0  0  0  0  0  0
   -0.4390    7.6474   -0.0101 H   0  0  0  0  0  0  0  0  0  0  0  0
   -1.4880    7.0510   -1.7620 H   0  0  0  0  0  0  0  0  0  0  0  0
   -1.0899    9.6727    1.9547 H   0  0  0  0  0  0  0  0  0  0  0  0
    0.5444    9.4518    1.2426 H   0  0  0  0  0  0  0  0  0  0  0  0
   -0.2233   11.0758    1.2426 H   0  0  0  0  0  0  0  0  0  0  0  0
   -2.7294    9.3859    1.1343 H   0  0  0  0  0  0  0  0  0  0  0  0
   -3.1585   10.2206   -0.3973 H   0  0  0  0  0  0  0  0  0  0  0  0
   -2.8365    8.4534   -0.3973 H   0  0  0  0  0  0  0  0  0  0  0  0
   -0.0407   10.9544   -4.1151 H   0  0  0  0  0  0  0  0  0  0  0  0
    0.0585   12.6682   -4.6442 H   0  0  0  0  0  0  0  0  0  0  0  0
    1.5324   11.6415   -4.6442 H   0  0  0  0  0  0  0  0  0  0  0  0
    2.9943   11.7700   -2.4544 H   0  0  0  0  0  0  0  0  0  0  0  0
    2.6053   13.1910   -3.5784 H   0  0  0  0  0  0  0  0  0  0  0  0
    2.7949   13.2249   -0.5532 H   0  0  0  0  0  0  0  0  0  0  0  0
    3.8635   14.0426   -1.7597 H   0  0  0  0  0  0  0  0  0  0  0  0
    2.2818   16.7015   -2.7823 H   0  0  0  0  0  0  0  0  0  0  0  0
    2.8801   15.1671   -3.4994 H   0  0  0  0  0  0  0  0  0  0  0  0
    1.1214   15.5328   -3.4994 H   0  0  0  0  0  0  0  0  0  0  0  0
  1  2  1  0
  2  3  1  0
  3  4  1  0
  4  5  1  0
  5  6  1  0
  6  7  1  0
  7  8  1  0
  7  9  1  0
  2 10  1  0
 10 11  1  0
 11 12  1  0
 12 13  1  0
 13 14  1  1
 13 15  1  0
 15 16  1  0
 16 17  1  0
 17 18  2  0
 18 19  1  0
 19 20  1  0
 20 21  1  0
 21 22  1  0
 22 23  1  0
 22 24  1  0
 24 25  1  0
 24 26  1  0
 19 27  1  0
 27 28  1  6
 27 29  1  0
 29 30  1  0
 30 31  1  0
 31 32  1  6
  7  5  1  0
 31 10  1  0
 31 13  1  0
 27 15  1  0
 24 18  1  0
  1 33  1  0
  1 34  1  0
  1 35  1  0
  2 36  1  6
  3 37  1  0
  3 38  1  0
  4 39  1  0
  4 40  1  0
  5 41  1  6
  8 42  1  0
  8 43  1  0
  8 44  1  0
  9 45  1  0
  9 46  1  0
  9 47  1  0
 10 48  1  1
 11 49  1  0
 11 50  1  0
 12 51  1  0
 12 52  1  0
 14 53  1  0
 14 54  1  0
 14 55  1  0
 15 56  1  6
 16 57  1  0
 16 58  1  0
 17 59  1  0
 19 60  1  1
 20 61  1  0
 20 62  1  0
 21 63  1  0
 21 64  1  0
 22 65  1  1
 23 66  1  0
 25 67  1  0
 25 68  1  0
 25 69  1  0
 26 70  1  0
 26 71  1  0
 26 72  1  0
 28 73  1  0
 28 74  1  0
 28 75  1  0
 29 76  1  0
 29 77  1  0
 30 78  1  0
 30 79  1  0
 32 80  1  0
 32 81  1  0
 32 82  1  0
M  END
>  <meeko>  (12) 
{"is_sidechain": [false], "intermolecular_energy": 2.731, "internal_energy": -0.839}

$$$$
EPH_relaxed_0001_pdb2pqr_Repair_240_r2_0001_out
     RDKit          3D

 82 86  0  0  0  0  0  0  0  0999 V2000
   -0.8890   16.3570   -5.8360 C   0  0  0  0  0  0  0  0  0  0  0  0
    0.2070   15.6610   -6.6490 C   0  0  2  0  0  0  0  0  0  0  0  0
   -0.1920   15.4820   -8.1270 C   0  0  0  0  0  0  0  0  0  0  0  0
    0.4530   16.5040   -9.0670 C   0  0  0  0  0  0  0  0  0  0  0  0
    1.8540   16.1170   -9.4320 C   0  0  2  0  0  0  0  0  0  0  0  0
    2.3290   16.6760  -10.6630 O   0  0  0  0  0  0  0  0  0  0  0  0
    2.1970   15.2460  -10.6260 C   0  0  0  0  0  0  0  0  0  0  0  0
    1.1330   14.7090  -11.5320 C   0  0  0  0  0  0  0  0  0  0  0  0
    3.5060   14.5200  -10.6290 C   0  0  0  0  0  0  0  0  0  0  0  0
    0.5340   14.3080   -6.0290 C   0  0  1  0  0  0  0  0  0  0  0  0
    1.7970   13.6550   -6.6520 C   0  0  0  0  0  0  0  0  0  0  0  0
    2.5140   12.8890   -5.5100 C   0  0  0  0  0  0  0  0  0  0  0  0
    1.4810   12.8470   -4.3600 C   0  0  1  0  0  0  0  0  0  0  0  0
    0.5250   11.6670   -4.7220 C   0  0  0  0  0  0  0  0  0  0  0  0
    2.0600   12.6990   -2.9160 C   0  0  2  0  0  0  0  0  0  0  0  0
    2.8350   11.3950   -2.6540 C   0  0  0  0  0  0  0  0  0  0  0  0
    2.0160   10.2590   -2.1400 C   0  0  0  0  0  0  0  0  0  0  0  0
    0.7750   10.3580   -1.6280 C   0  0  0  0  0  0  0  0  0  0  0  0
    0.1080   11.7270   -1.4380 C   0  0  1  0  0  0  0  0  0  0  0  0
   -0.5300   11.8000   -0.0260 C   0  0  0  0  0  0  0  0  0  0  0  0
   -1.4870   10.6430    0.2450 C   0  0  0  0  0  0  0  0  0  0  0  0
   -0.7730    9.3010    0.1030 C   0  0  2  0  0  0  0  0  0  0  0  0
    0.1990    9.1830    1.1470 O   0  0  0  0  0  0  0  0  0  0  0  0
   -0.0830    9.1170   -1.2770 C   0  0  0  0  0  0  0  0  0  0  0  0
   -1.1580    8.9420   -2.3780 C   0  0  0  0  0  0  0  0  0  0  0  0
    0.7180    7.7870   -1.2370 C   0  0  0  0  0  0  0  0  0  0  0  0
    1.0150   12.9900   -1.7640 C   0  0  1  0  0  0  0  0  0  0  0  0
    1.8410   13.3930   -0.5040 C   0  0  0  0  0  0  0  0  0  0  0  0
    0.0860   14.2170   -2.0960 C   0  0  0  0  0  0  0  0  0  0  0  0
   -0.3560   14.3770   -3.5630 C   0  0  0  0  0  0  0  0  0  0  0  0
    0.8430   14.2760   -4.5110 C   0  0  2  0  0  0  0  0  0  0  0  0
    1.8110   15.4640   -4.1860 C   0  0  0  0  0  0  0  0  0  0  0  0
   -0.6867   16.2285   -4.7624 H   0  0  0  0  0  0  0  0  0  0  0  0
   -0.9022   17.4293   -6.0809 H   0  0  0  0  0  0  0  0  0  0  0  0
   -1.8651   15.9129   -6.0809 H   0  0  0  0  0  0  0  0  0  0  0  0
    1.0980   16.3056   -6.6240 H   0  0  0  0  0  0  0  0  0  0  0  0
    0.1108   14.4747   -8.4489 H   0  0  0  0  0  0  0  0  0  0  0  0
   -1.2800   15.6324   -8.1866 H   0  0  0  0  0  0  0  0  0  0  0  0
   -0.1484   16.5723   -9.9855 H   0  0  0  0  0  0  0  0  0  0  0  0
    0.4901   17.4722   -8.5462 H   0  0  0  0  0  0  0  0  0  0  0  0
    2.1394   16.0608   -8.3712 H   0  0  0  0  0  0  0  0  0  0  0  0
    0.3121   14.2947  -10.9283 H   0  0  0  0  0  0  0  0  0  0  0  0
    0.7479   15.5207  -12.1667 H   0  0  0  0  0  0  0  0  0  0  0  0
    1.5572   13.9171  -12.1667 H   0  0  0  0  0  0  0  0  0  0  0  0
    3.8285   14.3412   -9.5926 H   0  0  0  0  0  0  0  0  0  0  0  0
    3.3901   13.5572  -11.1483 H   0  0  0  0  0  0  0  0  0  0  0  0
    4.2614   15.1281  -11.1483 H   0  0  0  0  0  0  0  0  0  0  0  0
   -0.4096   13.7802   -6.2317 H   0  0  0  0  0  0  0  0  0  0  0  0
    1.5075   12.9580   -7.4522 H   0  0  0  0  0  0  0  0  0  0  0  0
    2.4580   14.4155   -7.0933 H   0  0  0  0  0  0  0  0  0  0  0  0
    2.7786   11.8709   -5.8317 H   0  0  0  0  0  0  0  0  0  0  0  0
    3.4543   13.3738   -5.2087 H   0  0  0  0  0  0  0  0  0  0  0  0
    0.1491   11.2030   -3.7982 H   0  0  0  0  0  0  0  0  0  0  0  0
   -0.3217   12.0487   -5.3114 H   0  0  0  0  0  0  0  0  0  0  0  0
    1.0740   10.9179   -5.3114 H   0  0  0  0  0  0  0  0  0  0  0  0
    2.8078   13.5049   -2.8795 H   0  0  0  0  0  0  0  0  0  0  0  0
    3.2983   11.0791   -3.6003 H   0  0  0  0  0  0  0  0  0  0  0  0
    3.5630   11.6275   -1.8629 H   0  0  0  0  0  0  0  0  0  0  0  0
    2.4642    9.2554   -2.1830 H   0  0  0  0  0  0  0  0  0  0  0  0
   -0.6769   11.7931   -2.2058 H   0  0  0  0  0  0  0  0  0  0  0  0
    0.2731   11.7765    0.7253 H   0  0  0  0  0  0  0  0  0  0  0  0
   -1.1102   12.7329    0.0300 H   0  0  0  0  0  0  0  0  0  0  0  0
   -1.8821   10.7343    1.2675 H   0  0  0  0  0  0  0  0  0  0  0  0
   -2.3058   10.6849   -0.4884 H   0  0  0  0  0  0  0  0  0  0  0  0
   -1.5357    8.5120    0.1795 H   0  0  0  0  0  0  0  0  0  0  0  0
   -0.2480    9.3760    1.9880 H   0  0  0  0  0  0  0  0  0  0  0  0
   -2.1402    8.7821   -1.9093 H   0  0  0  0  0  0  0  0  0  0  0  0
   -1.1930    9.8463   -3.0034 H   0  0  0  0  0  0  0  0  0  0  0  0
   -0.9044    8.0733   -3.0034 H   0  0  0  0  0  0  0  0  0  0  0  0
    0.8933    7.4959   -0.1908 H   0  0  0  0  0  0  0  0  0  0  0  0
    0.1446    6.9982   -1.7459 H   0  0  0  0  0  0  0  0  0  0  0  0
    1.6834    7.9249   -1.7459 H   0  0  0  0  0  0  0  0  0  0  0  0
    1.2822   13.1203    0.4034 H   0  0  0  0  0  0  0  0  0  0  0  0
    2.8055   12.8643   -0.5133 H   0  0  0  0  0  0  0  0  0  0  0  0
    2.0179   14.4786   -0.5133 H   0  0  0  0  0  0  0  0  0  0  0  0
   -0.8226   14.1218   -1.4833 H   0  0  0  0  0  0  0  0  0  0  0  0
    0.6963   15.1065   -1.8808 H   0  0  0  0  0  0  0  0  0  0  0  0
   -1.0777   13.5844   -3.8099 H   0  0  0  0  0  0  0  0  0  0  0  0
   -0.8166   15.3685   -3.6844 H   0  0  0  0  0  0  0  0  0  0  0  0
    1.9017   15.5753   -3.0954 H   0  0  0  0  0  0  0  0  0  0  0  0
    2.8018   15.2581   -4.6172 H   0  0  0  0  0  0  0  0  0  0  0  0
    1.4093   16.3928   -4.6172 H   0  0  0  0  0  0  0  0  0  0  0  0
  1  2  1  0
  2  3  1  0
  3  4  1  0
  4  5  1  0
  5  6  1  0
  6  7  1  0
  7  8  1  0
  7  9  1  0
  2 10  1  0
 10 11  1  0
 11 12  1  0
 12 13  1  0
 13 14  1  6
 13 15  1  0
 15 16  1  0
 16 17  1  0
 17 18  2  0
 18 19  1  0
 19 20  1  0
 20 21  1  0
 21 22  1  0
 22 23  1  0
 22 24  1  0
 24 25  1  0
 24 26  1  0
 19 27  1  0
 27 28  1  1
 27 29  1  0
 29 30  1  0
 30 31  1  0
 31 32  1  1
  7  5  1  0
 31 10  1  0
 31 13  1  0
 27 15  1  0
 24 18  1  0
  1 33  1  0
  1 34  1  0
  1 35  1  0
  2 36  1  6
  3 37  1  0
  3 38  1  0
  4 39  1  0
  4 40  1  0
  5 41  1  1
  8 42  1  0
  8 43  1  0
  8 44  1  0
  9 45  1  0
  9 46  1  0
  9 47  1  0
 10 48  1  1
 11 49  1  0
 11 50  1  0
 12 51  1  0
 12 52  1  0
 14 53  1  0
 14 54  1  0
 14 55  1  0
 15 56  1  6
 16 57  1  0
 16 58  1  0
 17 59  1  0
 19 60  1  6
 20 61  1  0
 20 62  1  0
 21 63  1  0
 21 64  1  0
 22 65  1  1
 23 66  1  0
 25 67  1  0
 25 68  1  0
 25 69  1  0
 26 70  1  0
 26 71  1  0
 26 72  1  0
 28 73  1  0
 28 74  1  0
 28 75  1  0
 29 76  1  0
 29 77  1  0
 30 78  1  0
 30 79  1  0
 32 80  1  0
 32 81  1  0
 32 82  1  0
M  END
>  <meeko>  (13) 
{"is_sidechain": [false], "intermolecular_energy": 2.731, "internal_energy": -0.839}

$$$$
EPH_relaxed_0001_pdb2pqr_Repair_240_r2_0001_out
     RDKit          3D

 82 86  0  0  0  0  0  0  0  0999 V2000
   -3.7610    7.2240   -3.3940 C   0  0  0  0  0  0  0  0  0  0  0  0
   -3.7700    7.3010   -1.8640 C   0  0  2  0  0  0  0  0  0  0  0  0
   -5.1790    7.0820   -1.2800 C   0  0  0  0  0  0  0  0  0  0  0  0
   -6.3020    7.2170   -2.3120 C   0  0  0  0  0  0  0  0  0  0  0  0
   -7.6320    7.4380   -1.6580 C   0  0  2  0  0  0  0  0  0  0  0  0
   -8.2440    6.2540   -1.1300 O   0  0  0  0  0  0  0  0  0  0  0  0
   -8.9370    6.8970   -2.2130 C   0  0  0  0  0  0  0  0  0  0  0  0
   -8.9750    6.0920   -3.4740 C   0  0  0  0  0  0  0  0  0  0  0  0
  -10.2170    7.5560   -1.8020 C   0  0  0  0  0  0  0  0  0  0  0  0
   -3.2200    8.6480   -1.4090 C   0  0  1  0  0  0  0  0  0  0  0  0
   -3.8300    9.1170   -0.0610 C   0  0  0  0  0  0  0  0  0  0  0  0
   -2.7090    9.8710    0.6990 C   0  0  0  0  0  0  0  0  0  0  0  0
   -1.6060   10.1010   -0.3610 C   0  0  1  0  0  0  0  0  0  0  0  0
   -2.0770   11.3530   -1.1660 C   0  0  0  0  0  0  0  0  0  0  0  0
   -0.1510   10.2780    0.1830 C   0  0  2  0  0  0  0  0  0  0  0  0
    0.0620   11.5030    1.0900 C   0  0  0  0  0  0  0  0  0  0  0  0
    0.4730   12.7540    0.3860 C   0  0  0  0  0  0  0  0  0  0  0  0
    0.9390   12.8250   -0.8750 C   0  0  0  0  0  0  0  0  0  0  0  0
    1.1850   11.5530   -1.6970 C   0  0  1  0  0  0  0  0  0  0  0  0
    2.5720   11.6410   -2.3860 C   0  0  0  0  0  0  0  0  0  0  0  0
    2.7320   12.9120   -3.2160 C   0  0  0  0  0  0  0  0  0  0  0  0
    2.5380   14.1550   -2.3520 C   0  0  2  0  0  0  0  0  0  0  0  0
    3.6120   14.2330   -1.4080 O   0  0  0  0  0  0  0  0  0  0  0  0
    1.1790   14.1720   -1.5990 C   0  0  0  0  0  0  0  0  0  0  0  0
    0.0270   14.3920   -2.6110 C   0  0  0  0  0  0  0  0  0  0  0  0
    1.1700   15.4060   -0.6570 C   0  0  0  0  0  0  0  0  0  0  0  0
    0.9730   10.1780   -0.9270 C   0  0  1  0  0  0  0  0  0  0  0  0
    2.2870    9.7710   -0.1940 C   0  0  0  0  0  0  0  0  0  0  0  0
    0.6780    9.0420   -1.9760 C   0  0  0  0  0  0  0  0  0  0  0  0
   -0.7930    8.8370   -2.3840 C   0  0  0  0  0  0  0  0  0  0  0  0
   -1.6960    8.7440   -1.1500 C   0  0  2  0  0  0  0  0  0  0  0  0
   -1.2600    7.4800   -0.3320 C   0  0  0  0  0  0  0  0  0  0  0  0
   -3.6386    6.1768   -3.7077 H   0  0  0  0  0  0  0  0  0  0  0  0
   -4.7110    7.6157   -3.7864 H   0  0  0  0  0  0  0  0  0  0  0  0
   -2.9269    7.8242   -3.7864 H   0  0  0  0  0  0  0  0  0  0  0  0
   -3.1281    6.4909   -1.4875 H   0  0  0  0  0  0  0  0  0  0  0  0
   -5.2229    6.0707   -0.8495 H   0  0  0  0  0  0  0  0  0  0  0  0
   -5.3396    7.8669   -0.5263 H   0  0  0  0  0  0  0  0  0  0  0  0
   -6.0815    8.0712   -2.9691 H   0  0  0  0  0  0  0  0  0  0  0  0
   -6.3539    6.2806   -2.8868 H   0  0  0  0  0  0  0  0  0  0  0  0
   -7.3302    8.4436   -1.3300 H   0  0  0  0  0  0  0  0  0  0  0  0
   -9.0255    5.0219   -3.2245 H   0  0  0  0  0  0  0  0  0  0  0  0
   -9.8609    6.3736   -4.0622 H   0  0  0  0  0  0  0  0  0  0  0  0
   -8.0666    6.2889   -4.0622 H   0  0  0  0  0  0  0  0  0  0  0  0
  -10.2774    7.5871   -0.7041 H   0  0  0  0  0  0  0  0  0  0  0  0
  -10.2459    8.5811   -2.2000 H   0  0  0  0  0  0  0  0  0  0  0  0
  -11.0682    6.9840   -2.2000 H   0  0  0  0  0  0  0  0  0  0  0  0
   -3.4920    9.2619   -2.2803 H   0  0  0  0  0  0  0  0  0  0  0  0
   -4.6816    9.7888   -0.2440 H   0  0  0  0  0  0  0  0  0  0  0  0
   -4.1979    8.2617    0.5248 H   0  0  0  0  0  0  0  0  0  0  0  0
   -3.0807   10.8307    1.0873 H   0  0  0  0  0  0  0  0  0  0  0  0
   -2.3412    9.3060    1.5682 H   0  0  0  0  0  0  0  0  0  0  0  0
   -2.3759   12.1475   -0.4665 H   0  0  0  0  0  0  0  0  0  0  0  0
   -1.2528   11.7130   -1.7994 H   0  0  0  0  0  0  0  0  0  0  0  0
   -2.9341   11.0806   -1.7994 H   0  0  0  0  0  0  0  0  0  0  0  0
   -0.0345    9.3997    0.8349 H   0  0  0  0  0  0  0  0  0  0  0  0
   -0.8824   11.7041    1.6169 H   0  0  0  0  0  0  0  0  0  0  0  0
    0.8943   11.2439    1.7609 H   0  0  0  0  0  0  0  0  0  0  0  0
    0.3878   13.6975    0.9451 H   0  0  0  0  0  0  0  0  0  0  0  0
    0.3913   11.5252   -2.4581 H   0  0  0  0  0  0  0  0  0  0  0  0
    3.3526   11.6249   -1.6111 H   0  0  0  0  0  0  0  0  0  0  0  0
    2.6618   10.7826   -3.0680 H   0  0  0  0  0  0  0  0  0  0  0  0
    3.7410   12.9316   -3.6537 H   0  0  0  0  0  0  0  0  0  0  0  0
    1.9692   12.9124   -4.0085 H   0  0  0  0  0  0  0  0  0  0  0  0
    2.5351   15.0260   -3.0238 H   0  0  0  0  0  0  0  0  0  0  0  0
    4.2170   13.4940   -1.5890 H   0  0  0  0  0  0  0  0  0  0  0  0
   -0.9112   14.5712   -2.0653 H   0  0  0  0  0  0  0  0  0  0  0  0
    0.2555   15.2627   -3.2431 H   0  0  0  0  0  0  0  0  0  0  0  0
   -0.0814   13.4983   -3.2431 H   0  0  0  0  0  0  0  0  0  0  0  0
    1.1725   15.0682    0.3898 H   0  0  0  0  0  0  0  0  0  0  0  0
    2.0637   16.0186   -0.8467 H   0  0  0  0  0  0  0  0  0  0  0  0
    0.2675   16.0055   -0.8467 H   0  0  0  0  0  0  0  0  0  0  0  0
    2.1302    9.8196    0.8937 H   0  0  0  0  0  0  0  0  0  0  0  0
    2.5633    8.7452   -0.4792 H   0  0  0  0  0  0  0  0  0  0  0  0
    3.0948   10.4610   -0.4792 H   0  0  0  0  0  0  0  0  0  0  0  0
    1.2466    9.2758   -2.8881 H   0  0  0  0  0  0  0  0  0  0  0  0
    0.9707    8.1066   -1.4766 H   0  0  0  0  0  0  0  0  0  0  0  0
   -1.1164    9.6865   -3.0035 H   0  0  0  0  0  0  0  0  0  0  0  0
   -0.8727    7.8965   -2.9488 H   0  0  0  0  0  0  0  0  0  0  0  0
   -1.3345    7.6960    0.7440 H   0  0  0  0  0  0  0  0  0  0  0  0
   -1.9188    6.6356   -0.5830 H   0  0  0  0  0  0  0  0  0  0  0  0
   -0.2207    7.2214   -0.5830 H   0  0  0  0  0  0  0  0  0  0  0  0
  1  2  1  0
  2  3  1  0
  3  4  1  0
  4  5  1  0
  5  6  1  0
  6  7  1  0
  7  8  1  0
  7  9  1  0
  2 10  1  0
 10 11  1  0
 11 12  1  0
 12 13  1  0
 13 14  1  6
 13 15  1  0
 15 16  1  0
 16 17  1  0
 17 18  2  0
 18 19  1  0
 19 20  1  0
 20 21  1  0
 21 22  1  0
 22 23  1  0
 22 24  1  0
 24 25  1  0
 24 26  1  0
 19 27  1  0
 27 28  1  1
 27 29  1  0
 29 30  1  0
 30 31  1  0
 31 32  1  1
  7  5  1  0
 31 10  1  0
 31 13  1  0
 27 15  1  0
 24 18  1  0
  1 33  1  0
  1 34  1  0
  1 35  1  0
  2 36  1  1
  3 37  1  0
  3 38  1  0
  4 39  1  0
  4 40  1  0
  5 41  1  1
  8 42  1  0
  8 43  1  0
  8 44  1  0
  9 45  1  0
  9 46  1  0
  9 47  1  0
 10 48  1  6
 11 49  1  0
 11 50  1  0
 12 51  1  0
 12 52  1  0
 14 53  1  0
 14 54  1  0
 14 55  1  0
 15 56  1  1
 16 57  1  0
 16 58  1  0
 17 59  1  0
 19 60  1  6
 20 61  1  0
 20 62  1  0
 21 63  1  0
 21 64  1  0
 22 65  1  6
 23 66  1  0
 25 67  1  0
 25 68  1  0
 25 69  1  0
 26 70  1  0
 26 71  1  0
 26 72  1  0
 28 73  1  0
 28 74  1  0
 28 75  1  0
 29 76  1  0
 29 77  1  0
 30 78  1  0
 30 79  1  0
 32 80  1  0
 32 81  1  0
 32 82  1  0
M  END
>  <meeko>  (14) 
{"is_sidechain": [false], "intermolecular_energy": 2.731, "internal_energy": -0.839}

$$$$
EPH_relaxed_0001_pdb2pqr_Repair_240_r2_0001_out
     RDKit          3D

 82 86  0  0  0  0  0  0  0  0999 V2000
   -0.2890   15.0920   -7.6460 C   0  0  0  0  0  0  0  0  0  0  0  0
    1.0820   15.0740   -6.9650 C   0  0  2  0  0  0  0  0  0  0  0  0
    2.2370   15.1650   -7.9830 C   0  0  0  0  0  0  0  0  0  0  0  0
    2.2650   16.4810   -8.7660 C   0  0  0  0  0  0  0  0  0  0  0  0
    1.8620   16.2840  -10.1960 C   0  0  2  0  0  0  0  0  0  0  0  0
    1.1970   15.0430  -10.4650 O   0  0  0  0  0  0  0  0  0  0  0  0
    2.4730   15.2290  -11.0990 C   0  0  0  0  0  0  0  0  0  0  0  0
    3.5390   14.3020  -10.6070 C   0  0  0  0  0  0  0  0  0  0  0  0
    2.3870   15.4200  -12.5820 C   0  0  0  0  0  0  0  0  0  0  0  0
    1.2280   13.8120   -6.1230 C   0  0  1  0  0  0  0  0  0  0  0  0
    2.6600   13.2160   -6.1830 C   0  0  0  0  0  0  0  0  0  0  0  0
    2.9530   12.6160   -4.7840 C   0  0  0  0  0  0  0  0  0  0  0  0
    1.5790   12.5880   -4.0760 C   0  0  1  0  0  0  0  0  0  0  0  0
    0.8750   11.3040   -4.6170 C   0  0  0  0  0  0  0  0  0  0  0  0
    1.6060   12.6150   -2.5130 C   0  0  2  0  0  0  0  0  0  0  0  0
    2.2960   11.4090   -1.8510 C   0  0  0  0  0  0  0  0  0  0  0  0
    1.4010   10.2570   -1.5350 C   0  0  0  0  0  0  0  0  0  0  0  0
    0.0560   10.2950   -1.5090 C   0  0  0  0  0  0  0  0  0  0  0  0
   -0.6980   11.6140   -1.7210 C   0  0  1  0  0  0  0  0  0  0  0  0
   -1.8050   11.7560   -0.6430 C   0  0  0  0  0  0  0  0  0  0  0  0
   -2.7380   10.5500   -0.6000 C   0  0  0  0  0  0  0  0  0  0  0  0
   -1.9580    9.2660   -0.3300 C   0  0  2  0  0  0  0  0  0  0  0  0
   -1.4230    9.3220    0.9960 O   0  0  0  0  0  0  0  0  0  0  0  0
   -0.8090    9.0210   -1.3480 C   0  0  0  0  0  0  0  0  0  0  0  0
   -1.4070    8.6610   -2.7310 C   0  0  0  0  0  0  0  0  0  0  0  0
   -0.0150    7.7720   -0.8800 C   0  0  0  0  0  0  0  0  0  0  0  0
    0.2040   12.9160   -1.8450 C   0  0  1  0  0  0  0  0  0  0  0  0
    0.5000   13.4950   -0.4280 C   0  0  0  0  0  0  0  0  0  0  0  0
   -0.6010   14.0270   -2.6180 C   0  0  0  0  0  0  0  0  0  0  0  0
   -0.4920   14.0210   -4.1550 C   0  0  0  0  0  0  0  0  0  0  0  0
    0.9710   13.9390   -4.6010 C   0  0  2  0  0  0  0  0  0  0  0  0
    1.6990   15.2280   -4.0890 C   0  0  0  0  0  0  0  0  0  0  0  0
   -1.0786   15.1024   -6.8803 H   0  0  0  0  0  0  0  0  0  0  0  0
   -0.3749   15.9914   -8.2735 H   0  0  0  0  0  0  0  0  0  0  0  0
   -0.3985   14.1952   -8.2735 H   0  0  0  0  0  0  0  0  0  0  0  0
    1.1416   15.9614   -6.3177 H   0  0  0  0  0  0  0  0  0  0  0  0
    3.1879   15.0640   -7.4393 H   0  0  0  0  0  0  0  0  0  0  0  0
    2.0846   14.3584   -8.7152 H   0  0  0  0  0  0  0  0  0  0  0  0
    1.5699   17.1912   -8.2944 H   0  0  0  0  0  0  0  0  0  0  0  0
    3.2947   16.8676   -8.7501 H   0  0  0  0  0  0  0  0  0  0  0  0
    1.7050   17.3650  -10.3255 H   0  0  0  0  0  0  0  0  0  0  0  0
    3.5429   14.2986   -9.5070 H   0  0  0  0  0  0  0  0  0  0  0  0
    3.3396   13.2851  -10.9761 H   0  0  0  0  0  0  0  0  0  0  0  0
    4.5183   14.6406  -10.9761 H   0  0  0  0  0  0  0  0  0  0  0  0
    1.9443   16.4031  -12.8000 H   0  0  0  0  0  0  0  0  0  0  0  0
    3.3957   15.3673  -13.0176 H   0  0  0  0  0  0  0  0  0  0  0  0
    1.7578   14.6298  -13.0176 H   0  0  0  0  0  0  0  0  0  0  0  0
    0.4472   13.1904   -6.5857 H   0  0  0  0  0  0  0  0  0  0  0  0
    2.7114   12.4299   -6.9507 H   0  0  0  0  0  0  0  0  0  0  0  0
    3.3987   13.9879   -6.4446 H   0  0  0  0  0  0  0  0  0  0  0  0
    3.3634   11.5995   -4.8756 H   0  0  0  0  0  0  0  0  0  0  0  0
    3.6978   13.2027   -4.2262 H   0  0  0  0  0  0  0  0  0  0  0  0
    0.5369   10.6873   -3.7712 H   0  0  0  0  0  0  0  0  0  0  0  0
    0.0085   11.5918   -5.2305 H   0  0  0  0  0  0  0  0  0  0  0  0
    1.5836   10.7282   -5.2305 H   0  0  0  0  0  0  0  0  0  0  0  0
    2.2515   13.4808   -2.3041 H   0  0  0  0  0  0  0  0  0  0  0  0
    3.0826   11.0516   -2.5318 H   0  0  0  0  0  0  0  0  0  0  0  0
    2.6798   11.7701   -0.8854 H   0  0  0  0  0  0  0  0  0  0  0  0
    1.8817    9.2950   -1.3037 H   0  0  0  0  0  0  0  0  0  0  0  0
   -1.1553   11.5463   -2.7192 H   0  0  0  0  0  0  0  0  0  0  0  0
   -1.3265   11.8669    0.3413 H   0  0  0  0  0  0  0  0  0  0  0  0
   -2.4105   12.6375   -0.9005 H   0  0  0  0  0  0  0  0  0  0  0  0
   -3.4787   10.6962    0.2000 H   0  0  0  0  0  0  0  0  0  0  0  0
   -3.2383   10.4583   -1.5753 H   0  0  0  0  0  0  0  0  0  0  0  0
   -2.6585    8.4251   -0.4404 H   0  0  0  0  0  0  0  0  0  0  0  0
   -0.7280   10.0020    1.0040 H   0  0  0  0  0  0  0  0  0  0  0  0
   -2.3417    8.0983   -2.5911 H   0  0  0  0  0  0  0  0  0  0  0  0
   -1.6152    9.5840   -3.2920 H   0  0  0  0  0  0  0  0  0  0  0  0
   -0.6887    8.0451   -3.2920 H   0  0  0  0  0  0  0  0  0  0  0  0
    0.0048    7.7408    0.2194 H   0  0  0  0  0  0  0  0  0  0  0  0
   -0.5015    6.8632   -1.2639 H   0  0  0  0  0  0  0  0  0  0  0  0
    1.0144    7.8269   -1.2639 H   0  0  0  0  0  0  0  0  0  0  0  0
    0.1406   12.7919    0.3378 H   0  0  0  0  0  0  0  0  0  0  0  0
    1.5838   13.6420   -0.3110 H   0  0  0  0  0  0  0  0  0  0  0  0
   -0.0156   14.4596   -0.3110 H   0  0  0  0  0  0  0  0  0  0  0  0
   -1.6636   13.9089   -2.3592 H   0  0  0  0  0  0  0  0  0  0  0  0
   -0.1528   14.9803   -2.3013 H   0  0  0  0  0  0  0  0  0  0  0  0
   -1.0381   13.1521   -4.5510 H   0  0  0  0  0  0  0  0  0  0  0  0
   -0.9242   14.9561   -4.5407 H   0  0  0  0  0  0  0  0  0  0  0  0
    1.7027   15.2346   -2.9890 H   0  0  0  0  0  0  0  0  0  0  0  0
    2.7348   15.2356   -4.4592 H   0  0  0  0  0  0  0  0  0  0  0  0
    1.1707   16.1190   -4.4592 H   0  0  0  0  0  0  0  0  0  0  0  0
  1  2  1  0
  2  3  1  0
  3  4  1  0
  4  5  1  0
  5  6  1  0
  6  7  1  0
  7  8  1  0
  7  9  1  0
  2 10  1  0
 10 11  1  0
 11 12  1  0
 12 13  1  0
 13 14  1  1
 13 15  1  0
 15 16  1  0
 16 17  1  0
 17 18  2  0
 18 19  1  0
 19 20  1  0
 20 21  1  0
 21 22  1  0
 22 23  1  0
 22 24  1  0
 24 25  1  0
 24 26  1  0
 19 27  1  0
 27 28  1  1
 27 29  1  0
 29 30  1  0
 30 31  1  0
 31 32  1  1
  7  5  1  0
 31 10  1  0
 31 13  1  0
 27 15  1  0
 24 18  1  0
  1 33  1  0
  1 34  1  0
  1 35  1  0
  2 36  1  1
  3 37  1  0
  3 38  1  0
  4 39  1  0
  4 40  1  0
  5 41  1  6
  8 42  1  0
  8 43  1  0
  8 44  1  0
  9 45  1  0
  9 46  1  0
  9 47  1  0
 10 48  1  6
 11 49  1  0
 11 50  1  0
 12 51  1  0
 12 52  1  0
 14 53  1  0
 14 54  1  0
 14 55  1  0
 15 56  1  6
 16 57  1  0
 16 58  1  0
 17 59  1  0
 19 60  1  6
 20 61  1  0
 20 62  1  0
 21 63  1  0
 21 64  1  0
 22 65  1  1
 23 66  1  0
 25 67  1  0
 25 68  1  0
 25 69  1  0
 26 70  1  0
 26 71  1  0
 26 72  1  0
 28 73  1  0
 28 74  1  0
 28 75  1  0
 29 76  1  0
 29 77  1  0
 30 78  1  0
 30 79  1  0
 32 80  1  0
 32 81  1  0
 32 82  1  0
M  END
>  <meeko>  (15) 
{"is_sidechain": [false], "intermolecular_energy": 2.731, "internal_energy": -0.839}

$$$$
EPH_relaxed_0001_pdb2pqr_Repair_240_r2_0001_out
     RDKit          3D

 82 86  0  0  0  0  0  0  0  0999 V2000
   -2.0910    7.7750   -2.1760 C   0  0  0  0  0  0  0  0  0  0  0  0
   -2.2260    8.4350   -0.8010 C   0  0  2  0  0  0  0  0  0  0  0  0
   -3.6810    8.4220   -0.2910 C   0  0  0  0  0  0  0  0  0  0  0  0
   -4.6920    7.9190   -1.3250 C   0  0  0  0  0  0  0  0  0  0  0  0
   -5.8480    7.2210   -0.6760 C   0  0  2  0  0  0  0  0  0  0  0  0
   -6.3510    6.0920   -1.4040 O   0  0  0  0  0  0  0  0  0  0  0  0
   -7.2490    7.2040   -1.2590 C   0  0  0  0  0  0  0  0  0  0  0  0
   -7.5680    7.9000   -2.5450 C   0  0  0  0  0  0  0  0  0  0  0  0
   -8.4020    6.9330   -0.3430 C   0  0  0  0  0  0  0  0  0  0  0  0
   -1.7070    9.8670   -0.8580 C   0  0  1  0  0  0  0  0  0  0  0  0
   -1.2890   10.4070    0.5350 C   0  0  0  0  0  0  0  0  0  0  0  0
   -0.0700   11.3370    0.3070 C   0  0  0  0  0  0  0  0  0  0  0  0
   -0.0330   11.5640   -1.2220 C   0  0  1  0  0  0  0  0  0  0  0  0
   -1.0930   12.6790   -1.4870 C   0  0  0  0  0  0  0  0  0  0  0  0
    1.3580   11.9330   -1.8330 C   0  0  2  0  0  0  0  0  0  0  0  0
    1.9610   13.2570   -1.3300 C   0  0  0  0  0  0  0  0  0  0  0  0
    1.6030   14.4650   -2.1310 C   0  0  0  0  0  0  0  0  0  0  0  0
    1.0670   14.4540   -3.3660 C   0  0  0  0  0  0  0  0  0  0  0  0
    0.8580   13.1360   -4.1230 C   0  0  1  0  0  0  0  0  0  0  0  0
    1.3700   13.2880   -5.5790 C   0  0  0  0  0  0  0  0  0  0  0  0
    0.7450   14.4790   -6.2980 C   0  0  0  0  0  0  0  0  0  0  0  0
    1.0240   15.7780   -5.5460 C   0  0  2  0  0  0  0  0  0  0  0  0
    2.4270   16.0520   -5.6040 O   0  0  0  0  0  0  0  0  0  0  0  0
    0.5590   15.7400   -4.0640 C   0  0  0  0  0  0  0  0  0  0  0  0
   -0.9880   15.7470   -4.0030 C   0  0  0  0  0  0  0  0  0  0  0  0
    1.0260   17.0550   -3.3830 C   0  0  0  0  0  0  0  0  0  0  0  0
    1.4210   11.8320   -3.4110 C   0  0  1  0  0  0  0  0  0  0  0  0
    2.9210   11.6260   -3.7840 C   0  0  0  0  0  0  0  0  0  0  0  0
    0.6500   10.5730   -3.9600 C   0  0  0  0  0  0  0  0  0  0  0  0
   -0.6560   10.1890   -3.2390 C   0  0  0  0  0  0  0  0  0  0  0  0
   -0.4490   10.1330   -1.7220 C   0  0  2  0  0  0  0  0  0  0  0  0
    0.5960    9.0050   -1.4230 C   0  0  0  0  0  0  0  0  0  0  0  0
   -1.8720    6.7045   -2.0490 H   0  0  0  0  0  0  0  0  0  0  0  0
   -3.0319    7.8932   -2.7334 H   0  0  0  0  0  0  0  0  0  0  0  0
   -1.2721    8.2531   -2.7334 H   0  0  0  0  0  0  0  0  0  0  0  0
   -1.6224    7.8490   -0.0923 H   0  0  0  0  0  0  0  0  0  0  0  0
   -3.7334    7.7684    0.5922 H   0  0  0  0  0  0  0  0  0  0  0  0
   -3.9495    9.4633   -0.0596 H   0  0  0  0  0  0  0  0  0  0  0  0
   -5.0708    8.7770   -1.8998 H   0  0  0  0  0  0  0  0  0  0  0  0
   -4.1815    7.1990   -1.9815 H   0  0  0  0  0  0  0  0  0  0  0  0
   -5.4684    7.4722    0.3254 H   0  0  0  0  0  0  0  0  0  0  0  0
   -8.0174    8.8806   -2.3295 H   0  0  0  0  0  0  0  0  0  0  0  0
   -6.6440    8.0397   -3.1253 H   0  0  0  0  0  0  0  0  0  0  0  0
   -8.2770    7.2913   -3.1253 H   0  0  0  0  0  0  0  0  0  0  0  0
   -8.0667    7.0118    0.7017 H   0  0  0  0  0  0  0  0  0  0  0  0
   -9.1987    7.6684   -0.5289 H   0  0  0  0  0  0  0  0  0  0  0  0
   -8.7877    5.9197   -0.5289 H   0  0  0  0  0  0  0  0  0  0  0  0
   -2.5820   10.3626   -1.3038 H   0  0  0  0  0  0  0  0  0  0  0  0
   -2.1176   10.9724    0.9863 H   0  0  0  0  0  0  0  0  0  0  0  0
   -1.0347    9.5830    1.2179 H   0  0  0  0  0  0  0  0  0  0  0  0
   -0.2046   12.2909    0.8380 H   0  0  0  0  0  0  0  0  0  0  0  0
    0.8652   10.8994    0.6865 H   0  0  0  0  0  0  0  0  0  0  0  0
   -1.4633   13.0685   -0.5272 H   0  0  0  0  0  0  0  0  0  0  0  0
   -0.6304   13.4959   -2.0603 H   0  0  0  0  0  0  0  0  0  0  0  0
   -1.9323   12.2583   -2.0603 H   0  0  0  0  0  0  0  0  0  0  0  0
    2.0076   11.1387   -1.4366 H   0  0  0  0  0  0  0  0  0  0  0  0
    1.6147   13.4181   -0.2984 H   0  0  0  0  0  0  0  0  0  0  0  0
    3.0521   13.1469   -1.4159 H   0  0  0  0  0  0  0  0  0  0  0  0
    1.7932   15.4471   -1.6734 H   0  0  0  0  0  0  0  0  0  0  0  0
   -0.2271   12.9557   -4.1266 H   0  0  0  0  0  0  0  0  0  0  0  0
    2.4615   13.4229   -5.5566 H   0  0  0  0  0  0  0  0  0  0  0  0
    1.0853   12.3791   -6.1294 H   0  0  0  0  0  0  0  0  0  0  0  0
    1.1687   14.5511   -7.3106 H   0  0  0  0  0  0  0  0  0  0  0  0
   -0.3435   14.3282   -6.3464 H   0  0  0  0  0  0  0  0  0  0  0  0
    0.4437   16.5739   -6.0357 H   0  0  0  0  0  0  0  0  0  0  0  0
    2.6330   16.3450   -6.5080 H   0  0  0  0  0  0  0  0  0  0  0  0
   -1.3135   15.7485   -2.9523 H   0  0  0  0  0  0  0  0  0  0  0  0
   -1.3707   16.6469   -4.5067 H   0  0  0  0  0  0  0  0  0  0  0  0
   -1.3789   14.8506   -4.5067 H   0  0  0  0  0  0  0  0  0  0  0  0
    0.9841   16.9369   -2.2902 H   0  0  0  0  0  0  0  0  0  0  0  0
    2.0587   17.2793   -3.6882 H   0  0  0  0  0  0  0  0  0  0  0  0
    0.3660   17.8804   -3.6882 H   0  0  0  0  0  0  0  0  0  0  0  0
    3.5195   11.5438   -2.8647 H   0  0  0  0  0  0  0  0  0  0  0  0
    3.0286   10.7046   -4.3752 H   0  0  0  0  0  0  0  0  0  0  0  0
    3.2730   12.4842   -4.3752 H   0  0  0  0  0  0  0  0  0  0  0  0
    0.4033   10.7675   -5.0142 H   0  0  0  0  0  0  0  0  0  0  0  0
    1.3301    9.7245   -3.7945 H   0  0  0  0  0  0  0  0  0  0  0  0
   -1.4279   10.9381   -3.4694 H   0  0  0  0  0  0  0  0  0  0  0  0
   -0.9692    9.1937   -3.5872 H   0  0  0  0  0  0  0  0  0  0  0  0
    0.7061    8.8862   -0.3350 H   0  0  0  0  0  0  0  0  0  0  0  0
    0.2490    8.0580   -1.8620 H   0  0  0  0  0  0  0  0  0  0  0  0
    1.5667    9.2787   -1.8620 H   0  0  0  0  0  0  0  0  0  0  0  0
  1  2  1  0
  2  3  1  0
  3  4  1  0
  4  5  1  0
  5  6  1  0
  6  7  1  0
  7  8  1  0
  7  9  1  0
  2 10  1  0
 10 11  1  0
 11 12  1  0
 12 13  1  0
 13 14  1  1
 13 15  1  0
 15 16  1  0
 16 17  1  0
 17 18  2  0
 18 19  1  0
 19 20  1  0
 20 21  1  0
 21 22  1  0
 22 23  1  0
 22 24  1  0
 24 25  1  0
 24 26  1  0
 19 27  1  0
 27 28  1  1
 27 29  1  0
 29 30  1  0
 30 31  1  0
 31 32  1  6
  7  5  1  0
 31 10  1  0
 31 13  1  0
 27 15  1  0
 24 18  1  0
  1 33  1  0
  1 34  1  0
  1 35  1  0
  2 36  1  1
  3 37  1  0
  3 38  1  0
  4 39  1  0
  4 40  1  0
  5 41  1  1
  8 42  1  0
  8 43  1  0
  8 44  1  0
  9 45  1  0
  9 46  1  0
  9 47  1  0
 10 48  1  6
 11 49  1  0
 11 50  1  0
 12 51  1  0
 12 52  1  0
 14 53  1  0
 14 54  1  0
 14 55  1  0
 15 56  1  1
 16 57  1  0
 16 58  1  0
 17 59  1  0
 19 60  1  6
 20 61  1  0
 20 62  1  0
 21 63  1  0
 21 64  1  0
 22 65  1  6
 23 66  1  0
 25 67  1  0
 25 68  1  0
 25 69  1  0
 26 70  1  0
 26 71  1  0
 26 72  1  0
 28 73  1  0
 28 74  1  0
 28 75  1  0
 29 76  1  0
 29 77  1  0
 30 78  1  0
 30 79  1  0
 32 80  1  0
 32 81  1  0
 32 82  1  0
M  END
>  <meeko>  (16) 
{"is_sidechain": [false], "intermolecular_energy": 2.731, "internal_energy": -0.839}

$$$$
EPH_relaxed_0001_pdb2pqr_Repair_240_r2_0001_out
     RDKit          3D

 82 86  0  0  0  0  0  0  0  0999 V2000
    0.0680    9.4690   -2.7500 C   0  0  0  0  0  0  0  0  0  0  0  0
    1.1920   10.4590   -3.0650 C   0  0  2  0  0  0  0  0  0  0  0  0
    2.5780    9.7840   -3.0670 C   0  0  0  0  0  0  0  0  0  0  0  0
    3.5810   10.4390   -4.0210 C   0  0  0  0  0  0  0  0  0  0  0  0
    4.9350   10.5750   -3.3930 C   0  0  2  0  0  0  0  0  0  0  0  0
    5.5380   11.8670   -3.5450 O   0  0  0  0  0  0  0  0  0  0  0  0
    6.2100   10.7730   -4.1910 C   0  0  0  0  0  0  0  0  0  0  0  0
    6.1930   10.8460   -5.6850 C   0  0  0  0  0  0  0  0  0  0  0  0
    7.5160   10.4090   -3.5550 C   0  0  0  0  0  0  0  0  0  0  0  0
    1.1730   11.6050   -2.0600 C   0  0  1  0  0  0  0  0  0  0  0  0
    2.2050   11.4140   -0.9170 C   0  0  0  0  0  0  0  0  0  0  0  0
    2.7290   12.8260   -0.5480 C   0  0  0  0  0  0  0  0  0  0  0  0
    1.7520   13.8000   -1.2470 C   0  0  1  0  0  0  0  0  0  0  0  0
    0.5140   13.8750   -0.3000 C   0  0  0  0  0  0  0  0  0  0  0  0
    2.3130   15.2220   -1.5770 C   0  0  2  0  0  0  0  0  0  0  0  0
    2.7290   16.0590   -0.3560 C   0  0  0  0  0  0  0  0  0  0  0  0
    1.6570   16.9230    0.2200 C   0  0  0  0  0  0  0  0  0  0  0  0
    0.4980   17.2420   -0.3870 C   0  0  0  0  0  0  0  0  0  0  0  0
    0.2160   16.7970   -1.8270 C   0  0  1  0  0  0  0  0  0  0  0  0
   -0.3430   17.9950   -2.6390 C   0  0  0  0  0  0  0  0  0  0  0  0
   -1.5600   18.6340   -1.9770 C   0  0  0  0  0  0  0  0  0  0  0  0
   -1.2230   19.1160   -0.5680 C   0  0  2  0  0  0  0  0  0  0  0  0
   -0.2870   20.1940   -0.6610 O   0  0  0  0  0  0  0  0  0  0  0  0
   -0.6420   17.9970    0.3400 C   0  0  0  0  0  0  0  0  0  0  0  0
   -1.7550   16.9770    0.6870 C   0  0  0  0  0  0  0  0  0  0  0  0
   -0.2140   18.6460    1.6840 C   0  0  0  0  0  0  0  0  0  0  0  0
    1.4100   16.0590   -2.5720 C   0  0  1  0  0  0  0  0  0  0  0  0
    2.3460   17.1080   -3.2460 C   0  0  0  0  0  0  0  0  0  0  0  0
    0.8230   15.1750   -3.7350 C   0  0  0  0  0  0  0  0  0  0  0  0
    0.3980   13.7400   -3.3710 C   0  0  0  0  0  0  0  0  0  0  0  0
    1.5040   13.0220   -2.5910 C   0  0  2  0  0  0  0  0  0  0  0  0
    2.7560   12.9130   -3.5260 C   0  0  0  0  0  0  0  0  0  0  0  0
   -0.0411    9.3729   -1.6596 H   0  0  0  0  0  0  0  0  0  0  0  0
   -0.8750    9.8353   -3.1820 H   0  0  0  0  0  0  0  0  0  0  0  0
    0.3123    8.4873   -3.1820 H   0  0  0  0  0  0  0  0  0  0  0  0
    1.0135   10.8493   -4.0778 H   0  0  0  0  0  0  0  0  0  0  0  0
    2.9879    9.8298   -2.0473 H   0  0  0  0  0  0  0  0  0  0  0  0
    2.4316    8.7508   -3.4148 H   0  0  0  0  0  0  0  0  0  0  0  0
    3.6683    9.8203   -4.9263 H   0  0  0  0  0  0  0  0  0  0  0  0
    3.2137   11.4465   -4.2663 H   0  0  0  0  0  0  0  0  0  0  0  0
    4.6647    9.8638   -2.5985 H   0  0  0  0  0  0  0  0  0  0  0  0
    5.9539   11.8727   -5.9992 H   0  0  0  0  0  0  0  0  0  0  0  0
    7.1810   10.5632   -6.0772 H   0  0  0  0  0  0  0  0  0  0  0  0
    5.4316   10.1558   -6.0772 H   0  0  0  0  0  0  0  0  0  0  0  0
    7.4115   10.4381   -2.4604 H   0  0  0  0  0  0  0  0  0  0  0  0
    7.8068    9.3956   -3.8687 H   0  0  0  0  0  0  0  0  0  0  0  0
    8.2890   11.1259   -3.8687 H   0  0  0  0  0  0  0  0  0  0  0  0
    0.1198   11.5578   -1.7462 H   0  0  0  0  0  0  0  0  0  0  0  0
    1.7226   10.9489   -0.0447 H   0  0  0  0  0  0  0  0  0  0  0  0
    3.0285   10.7570   -1.2336 H   0  0  0  0  0  0  0  0  0  0  0  0
    2.7115   12.9741    0.5418 H   0  0  0  0  0  0  0  0  0  0  0  0
    3.7707   12.9805   -0.8660 H   0  0  0  0  0  0  0  0  0  0  0  0
    0.8513   13.8546    0.7468 H   0  0  0  0  0  0  0  0  0  0  0  0
   -0.0367   14.8082   -0.4896 H   0  0  0  0  0  0  0  0  0  0  0  0
   -0.1453   13.0152   -0.4896 H   0  0  0  0  0  0  0  0  0  0  0  0
    3.2465   14.9899   -2.1107 H   0  0  0  0  0  0  0  0  0  0  0  0
    3.0678   15.3682    0.4301 H   0  0  0  0  0  0  0  0  0  0  0  0
    3.5142   16.7434   -0.7096 H   0  0  0  0  0  0  0  0  0  0  0  0
    1.8282   17.3342    1.2258 H   0  0  0  0  0  0  0  0  0  0  0  0
   -0.5449   16.0057   -1.7568 H   0  0  0  0  0  0  0  0  0  0  0  0
    0.4463   18.7552   -2.7343 H   0  0  0  0  0  0  0  0  0  0  0  0
   -0.6591   17.6139   -3.6213 H   0  0  0  0  0  0  0  0  0  0  0  0
   -1.8903   19.4915   -2.5817 H   0  0  0  0  0  0  0  0  0  0  0  0
   -2.3592   17.8812   -1.9094 H   0  0  0  0  0  0  0  0  0  0  0  0
   -2.1621   19.4444   -0.0988 H   0  0  0  0  0  0  0  0  0  0  0  0
   -0.7620   20.9660   -1.0130 H   0  0  0  0  0  0  0  0  0  0  0  0
   -1.8472   16.8925    1.7799 H   0  0  0  0  0  0  0  0  0  0  0  0
   -2.7109   17.3192    0.2638 H   0  0  0  0  0  0  0  0  0  0  0  0
   -1.4973   15.9949    0.2638 H   0  0  0  0  0  0  0  0  0  0  0  0
   -0.6072   18.0498    2.5207 H   0  0  0  0  0  0  0  0  0  0  0  0
    0.8840   18.6795    1.7418 H   0  0  0  0  0  0  0  0  0  0  0  0
   -0.6156   19.6684    1.7418 H   0  0  0  0  0  0  0  0  0  0  0  0
    2.8646   17.6892   -2.4693 H   0  0  0  0  0  0  0  0  0  0  0  0
    3.0870   16.5895   -3.8721 H   0  0  0  0  0  0  0  0  0  0  0  0
    1.7467   17.7854   -3.8721 H   0  0  0  0  0  0  0  0  0  0  0  0
   -0.0621   15.6933   -4.1325 H   0  0  0  0  0  0  0  0  0  0  0  0
    1.6493   15.0571   -4.4515 H   0  0  0  0  0  0  0  0  0  0  0  0
   -0.5108   13.7797   -2.7526 H   0  0  0  0  0  0  0  0  0  0  0  0
    0.2069   13.1842   -4.3008 H   0  0  0  0  0  0  0  0  0  0  0  0
    3.6658   12.8338   -2.9128 H   0  0  0  0  0  0  0  0  0  0  0  0
    2.6628   12.0196   -4.1609 H   0  0  0  0  0  0  0  0  0  0  0  0
    2.8186   13.8091   -4.1609 H   0  0  0  0  0  0  0  0  0  0  0  0
  1  2  1  0
  2  3  1  0
  3  4  1  0
  4  5  1  0
  5  6  1  0
  6  7  1  0
  7  8  1  0
  7  9  1  0
  2 10  1  0
 10 11  1  0
 11 12  1  0
 12 13  1  0
 13 14  1  1
 13 15  1  0
 15 16  1  0
 16 17  1  0
 17 18  2  0
 18 19  1  0
 19 20  1  0
 20 21  1  0
 21 22  1  0
 22 23  1  0
 22 24  1  0
 24 25  1  0
 24 26  1  0
 19 27  1  0
 27 28  1  6
 27 29  1  0
 29 30  1  0
 30 31  1  0
 31 32  1  6
  7  5  1  0
 31 10  1  0
 31 13  1  0
 27 15  1  0
 24 18  1  0
  1 33  1  0
  1 34  1  0
  1 35  1  0
  2 36  1  6
  3 37  1  0
  3 38  1  0
  4 39  1  0
  4 40  1  0
  5 41  1  1
  8 42  1  0
  8 43  1  0
  8 44  1  0
  9 45  1  0
  9 46  1  0
  9 47  1  0
 10 48  1  1
 11 49  1  0
 11 50  1  0
 12 51  1  0
 12 52  1  0
 14 53  1  0
 14 54  1  0
 14 55  1  0
 15 56  1  6
 16 57  1  0
 16 58  1  0
 17 59  1  0
 19 60  1  1
 20 61  1  0
 20 62  1  0
 21 63  1  0
 21 64  1  0
 22 65  1  1
 23 66  1  0
 25 67  1  0
 25 68  1  0
 25 69  1  0
 26 70  1  0
 26 71  1  0
 26 72  1  0
 28 73  1  0
 28 74  1  0
 28 75  1  0
 29 76  1  0
 29 77  1  0
 30 78  1  0
 30 79  1  0
 32 80  1  0
 32 81  1  0
 32 82  1  0
M  END
>  <meeko>  (17) 
{"is_sidechain": [false], "intermolecular_energy": 2.731, "internal_energy": -0.839}

$$$$
EPH_relaxed_0001_pdb2pqr_Repair_240_r2_0001_out
     RDKit          3D

 82 86  0  0  0  0  0  0  0  0999 V2000
    1.8740   18.4320   -2.6500 C   0  0  0  0  0  0  0  0  0  0  0  0
    1.1200   17.5610   -1.6410 C   0  0  2  0  0  0  0  0  0  0  0  0
    1.5050   17.8930   -0.1850 C   0  0  0  0  0  0  0  0  0  0  0  0
    1.0520   19.2830    0.2700 C   0  0  0  0  0  0  0  0  0  0  0  0
   -0.3480   19.2640    0.8050 C   0  0  2  0  0  0  0  0  0  0  0  0
   -1.2150   18.3100    0.1770 O   0  0  0  0  0  0  0  0  0  0  0  0
   -1.5580   19.6940   -0.0020 C   0  0  0  0  0  0  0  0  0  0  0  0
   -1.4240   20.1760   -1.4130 C   0  0  0  0  0  0  0  0  0  0  0  0
   -2.7960   20.1080    0.7300 C   0  0  0  0  0  0  0  0  0  0  0  0
    1.3840   16.0870   -1.9260 C   0  0  1  0  0  0  0  0  0  0  0  0
    2.8600   15.8090   -2.3150 C   0  0  0  0  0  0  0  0  0  0  0  0
    3.2220   14.4190   -1.7320 C   0  0  0  0  0  0  0  0  0  0  0  0
    1.8640   13.8030   -1.3210 C   0  0  1  0  0  0  0  0  0  0  0  0
    1.2660   13.2320   -2.6440 C   0  0  0  0  0  0  0  0  0  0  0  0
    1.9090   12.7210   -0.1940 C   0  0  2  0  0  0  0  0  0  0  0  0
    2.7080   11.4520   -0.5390 C   0  0  0  0  0  0  0  0  0  0  0  0
    1.9190   10.3540   -1.1730 C   0  0  0  0  0  0  0  0  0  0  0  0
    0.5760   10.2690   -1.1970 C   0  0  0  0  0  0  0  0  0  0  0  0
   -0.2910   11.2960   -0.4560 C   0  0  1  0  0  0  0  0  0  0  0  0
   -1.3920   10.5570    0.3500 C   0  0  0  0  0  0  0  0  0  0  0  0
   -2.2180    9.6130   -0.5170 C   0  0  0  0  0  0  0  0  0  0  0  0
   -1.3280    8.5710   -1.1910 C   0  0  2  0  0  0  0  0  0  0  0  0
   -0.7820    7.7120   -0.1850 O   0  0  0  0  0  0  0  0  0  0  0  0
   -0.1750    9.1980   -2.0250 C   0  0  0  0  0  0  0  0  0  0  0  0
   -0.7580    9.8790   -3.2880 C   0  0  0  0  0  0  0  0  0  0  0  0
    0.7290    8.0420   -2.5320 C   0  0  0  0  0  0  0  0  0  0  0  0
    0.4950   12.3640    0.4200 C   0  0  1  0  0  0  0  0  0  0  0  0
    0.7590   11.7910    1.8460 C   0  0  0  0  0  0  0  0  0  0  0  0
   -0.4120   13.6370    0.6130 C   0  0  0  0  0  0  0  0  0  0  0  0
   -0.3230   14.7250   -0.4740 C   0  0  0  0  0  0  0  0  0  0  0  0
    1.1360   15.0840   -0.7720 C   0  0  2  0  0  0  0  0  0  0  0  0
    1.7580   15.6820    0.5360 C   0  0  0  0  0  0  0  0  0  0  0  0
    2.5018   19.1572   -2.1114 H   0  0  0  0  0  0  0  0  0  0  0  0
    2.5100   17.7944   -3.2817 H   0  0  0  0  0  0  0  0  0  0  0  0
    1.1519   18.9701   -3.2817 H   0  0  0  0  0  0  0  0  0  0  0  0
    0.0473   17.7754   -1.7562 H   0  0  0  0  0  0  0  0  0  0  0  0
    1.0438   17.1440    0.4755 H   0  0  0  0  0  0  0  0  0  0  0  0
    2.6036   17.8797   -0.1321 H   0  0  0  0  0  0  0  0  0  0  0  0
    1.7304   19.6379    1.0599 H   0  0  0  0  0  0  0  0  0  0  0  0
    1.0761   19.9532   -0.6019 H   0  0  0  0  0  0  0  0  0  0  0  0
    0.0062   19.5431    1.8083 H   0  0  0  0  0  0  0  0  0  0  0  0
   -1.1294   21.2358   -1.4120 H   0  0  0  0  0  0  0  0  0  0  0  0
   -0.6568   19.5826   -1.9319 H   0  0  0  0  0  0  0  0  0  0  0  0
   -2.3874   20.0637   -1.9319 H   0  0  0  0  0  0  0  0  0  0  0  0
   -2.6182   20.0486    1.8139 H   0  0  0  0  0  0  0  0  0  0  0  0
   -3.0550   21.1416    0.4570 H   0  0  0  0  0  0  0  0  0  0  0  0
   -3.6247   19.4381    0.4570 H   0  0  0  0  0  0  0  0  0  0  0  0
    0.6534   15.9212   -2.7314 H   0  0  0  0  0  0  0  0  0  0  0  0
    2.9681   15.8005   -3.4096 H   0  0  0  0  0  0  0  0  0  0  0  0
    3.5265   16.5892   -1.9188 H   0  0  0  0  0  0  0  0  0  0  0  0
    3.7170   13.7962   -2.4916 H   0  0  0  0  0  0  0  0  0  0  0  0
    3.9210   14.4906   -0.8856 H   0  0  0  0  0  0  0  0  0  0  0  0
    0.4894   12.4905   -2.4053 H   0  0  0  0  0  0  0  0  0  0  0  0
    0.8232   14.0511   -3.2298 H   0  0  0  0  0  0  0  0  0  0  0  0
    2.0637   12.7519   -3.2298 H   0  0  0  0  0  0  0  0  0  0  0  0
    2.4809   13.2289    0.5965 H   0  0  0  0  0  0  0  0  0  0  0  0
    3.5136   11.7356   -1.2322 H   0  0  0  0  0  0  0  0  0  0  0  0
    3.0715   11.0515    0.4189 H   0  0  0  0  0  0  0  0  0  0  0  0
    2.4833    9.5462   -1.6618 H   0  0  0  0  0  0  0  0  0  0  0  0
   -0.7537   11.9219   -1.2332 H   0  0  0  0  0  0  0  0  0  0  0  0
   -0.9119    9.9727    1.1488 H   0  0  0  0  0  0  0  0  0  0  0  0
   -2.0738   11.3175    0.7583 H   0  0  0  0  0  0  0  0  0  0  0  0
   -2.9584    9.0998    0.1142 H   0  0  0  0  0  0  0  0  0  0  0  0
   -2.7206   10.2029   -1.2976 H   0  0  0  0  0  0  0  0  0  0  0  0
   -1.9554    8.0074   -1.8971 H   0  0  0  0  0  0  0  0  0  0  0  0
   -1.5090    7.4500    0.4040 H   0  0  0  0  0  0  0  0  0  0  0  0
   -1.4460   10.6827   -2.9867 H   0  0  0  0  0  0  0  0  0  0  0  0
    0.0613   10.3031   -3.8871 H   0  0  0  0  0  0  0  0  0  0  0  0
   -1.3033    9.1349   -3.8871 H   0  0  0  0  0  0  0  0  0  0  0  0
    1.1511    7.5022   -1.6715 H   0  0  0  0  0  0  0  0  0  0  0  0
    0.1307    7.3491   -3.1419 H   0  0  0  0  0  0  0  0  0  0  0  0
    1.5457    8.4557   -3.1419 H   0  0  0  0  0  0  0  0  0  0  0  0
    0.4242   12.5177    2.6009 H   0  0  0  0  0  0  0  0  0  0  0  0
    0.2038   10.8497    1.9715 H   0  0  0  0  0  0  0  0  0  0  0  0
    1.8352   11.6014    1.9715 H   0  0  0  0  0  0  0  0  0  0  0  0
   -1.4571   13.2970    0.6587 H   0  0  0  0  0  0  0  0  0  0  0  0
   -0.0426   14.1169    1.5313 H   0  0  0  0  0  0  0  0  0  0  0  0
   -0.7975   14.3538   -1.3944 H   0  0  0  0  0  0  0  0  0  0  0  0
   -0.8390   15.6262   -0.1114 H   0  0  0  0  0  0  0  0  0  0  0  0
    1.2795   15.2219    1.4131 H   0  0  0  0  0  0  0  0  0  0  0  0
    2.8381   15.4745    0.5565 H   0  0  0  0  0  0  0  0  0  0  0  0
    1.5931   16.7694    0.5565 H   0  0  0  0  0  0  0  0  0  0  0  0
  1  2  1  0
  2  3  1  0
  3  4  1  0
  4  5  1  0
  5  6  1  0
  6  7  1  0
  7  8  1  0
  7  9  1  0
  2 10  1  0
 10 11  1  0
 11 12  1  0
 12 13  1  0
 13 14  1  6
 13 15  1  0
 15 16  1  0
 16 17  1  0
 17 18  2  0
 18 19  1  0
 19 20  1  0
 20 21  1  0
 21 22  1  0
 22 23  1  0
 22 24  1  0
 24 25  1  0
 24 26  1  0
 19 27  1  0
 27 28  1  1
 27 29  1  0
 29 30  1  0
 30 31  1  0
 31 32  1  1
  7  5  1  0
 31 10  1  0
 31 13  1  0
 27 15  1  0
 24 18  1  0
  1 33  1  0
  1 34  1  0
  1 35  1  0
  2 36  1  1
  3 37  1  0
  3 38  1  0
  4 39  1  0
  4 40  1  0
  5 41  1  1
  8 42  1  0
  8 43  1  0
  8 44  1  0
  9 45  1  0
  9 46  1  0
  9 47  1  0
 10 48  1  6
 11 49  1  0
 11 50  1  0
 12 51  1  0
 12 52  1  0
 14 53  1  0
 14 54  1  0
 14 55  1  0
 15 56  1  1
 16 57  1  0
 16 58  1  0
 17 59  1  0
 19 60  1  6
 20 61  1  0
 20 62  1  0
 21 63  1  0
 21 64  1  0
 22 65  1  6
 23 66  1  0
 25 67  1  0
 25 68  1  0
 25 69  1  0
 26 70  1  0
 26 71  1  0
 26 72  1  0
 28 73  1  0
 28 74  1  0
 28 75  1  0
 29 76  1  0
 29 77  1  0
 30 78  1  0
 30 79  1  0
 32 80  1  0
 32 81  1  0
 32 82  1  0
M  END
>  <meeko>  (18) 
{"is_sidechain": [false], "intermolecular_energy": 2.731, "internal_energy": -0.839}

$$$$
EPH_relaxed_0001_pdb2pqr_Repair_240_r2_0001_out
     RDKit          3D

 82 86  0  0  0  0  0  0  0  0999 V2000
    2.8650   17.7200   -3.5140 C   0  0  0  0  0  0  0  0  0  0  0  0
    2.5210   17.7090   -2.0220 C   0  0  2  0  0  0  0  0  0  0  0  0
    3.4340   18.6480   -1.2080 C   0  0  0  0  0  0  0  0  0  0  0  0
    3.1680   18.6100    0.2990 C   0  0  0  0  0  0  0  0  0  0  0  0
    4.4220   18.8360    1.0890 C   0  0  2  0  0  0  0  0  0  0  0  0
    4.4600   18.1670    2.3560 O   0  0  0  0  0  0  0  0  0  0  0  0
    4.4600   19.6030    2.3970 C   0  0  0  0  0  0  0  0  0  0  0  0
    3.2200   20.1940    2.9910 C   0  0  0  0  0  0  0  0  0  0  0  0
    5.7610   20.1940    2.8430 C   0  0  0  0  0  0  0  0  0  0  0  0
    2.6170   16.2880   -1.4770 C   0  0  1  0  0  0  0  0  0  0  0  0
    3.2130   16.2360   -0.0460 C   0  0  0  0  0  0  0  0  0  0  0  0
    2.4950   15.0790    0.6960 C   0  0  0  0  0  0  0  0  0  0  0  0
    1.7590   14.2990   -0.4180 C   0  0  1  0  0  0  0  0  0  0  0  0
    2.8510   13.3820   -1.0530 C   0  0  0  0  0  0  0  0  0  0  0  0
    0.5040   13.4790    0.0250 C   0  0  2  0  0  0  0  0  0  0  0  0
    0.7840   12.3490    1.0320 C   0  0  0  0  0  0  0  0  0  0  0  0
    1.0910   11.0190    0.4270 C   0  0  0  0  0  0  0  0  0  0  0  0
    0.8630   10.6700   -0.8520 C   0  0  0  0  0  0  0  0  0  0  0  0
    0.1490   11.6280   -1.8150 C   0  0  1  0  0  0  0  0  0  0  0  0
   -0.9450   10.8550   -2.5980 C   0  0  0  0  0  0  0  0  0  0  0  0
   -0.3950    9.6200   -3.3050 C   0  0  0  0  0  0  0  0  0  0  0  0
    0.2560    8.6650   -2.3080 C   0  0  2  0  0  0  0  0  0  0  0  0
   -0.7580    8.1350   -1.4480 O   0  0  0  0  0  0  0  0  0  0  0  0
    1.3680    9.3350   -1.4530 C   0  0  0  0  0  0  0  0  0  0  0  0
    2.5980    9.6380   -2.3450 C   0  0  0  0  0  0  0  0  0  0  0  0
    1.8420    8.3040   -0.3940 C   0  0  0  0  0  0  0  0  0  0  0  0
   -0.3980   12.9750   -1.1730 C   0  0  1  0  0  0  0  0  0  0  0  0
   -1.8260   12.7460   -0.5900 C   0  0  0  0  0  0  0  0  0  0  0  0
   -0.5490   14.0590   -2.3050 C   0  0  0  0  0  0  0  0  0  0  0  0
    0.6920   14.9180   -2.6150 C   0  0  0  0  0  0  0  0  0  0  0  0
    1.2950   15.4930   -1.3300 C   0  0  2  0  0  0  0  0  0  0  0  0
    0.2270   16.4370   -0.6800 C   0  0  0  0  0  0  0  0  0  0  0  0
    3.9574   17.7549   -3.6382 H   0  0  0  0  0  0  0  0  0  0  0  0
    2.4711   16.8088   -3.9878 H   0  0  0  0  0  0  0  0  0  0  0  0
    2.4137   18.6042   -3.9878 H   0  0  0  0  0  0  0  0  0  0  0  0
    1.4903   18.0789   -1.9176 H   0  0  0  0  0  0  0  0  0  0  0  0
    4.4794   18.3543   -1.3837 H   0  0  0  0  0  0  0  0  0  0  0  0
    3.2239   19.6735   -1.5460 H   0  0  0  0  0  0  0  0  0  0  0  0
    2.4405   19.3952    0.5525 H   0  0  0  0  0  0  0  0  0  0  0  0
    2.7772   17.6137    0.5533 H   0  0  0  0  0  0  0  0  0  0  0  0
    5.0156   18.9206    0.1668 H   0  0  0  0  0  0  0  0  0  0  0  0
    3.2878   20.1617    4.0884 H   0  0  0  0  0  0  0  0  0  0  0  0
    3.1168   21.2381    2.6606 H   0  0  0  0  0  0  0  0  0  0  0  0
    2.3440   19.6166    2.6606 H   0  0  0  0  0  0  0  0  0  0  0  0
    5.7983   20.2110    3.9422 H   0  0  0  0  0  0  0  0  0  0  0  0
    6.5918   19.5849    2.4573 H   0  0  0  0  0  0  0  0  0  0  0  0
    5.8489   21.2204    2.4573 H   0  0  0  0  0  0  0  0  0  0  0  0
    3.2453   15.8328   -2.2568 H   0  0  0  0  0  0  0  0  0  0  0  0
    4.2948   16.0422   -0.0930 H   0  0  0  0  0  0  0  0  0  0  0  0
    3.0665   17.1921    0.4778 H   0  0  0  0  0  0  0  0  0  0  0  0
    3.2246   14.4326    1.2057 H   0  0  0  0  0  0  0  0  0  0  0  0
    1.8078   15.4446    1.4732 H   0  0  0  0  0  0  0  0  0  0  0  0
    3.4306   12.8953   -0.2548 H   0  0  0  0  0  0  0  0  0  0  0  0
    2.3684   12.6144   -1.6759 H   0  0  0  0  0  0  0  0  0  0  0  0
    3.5235   13.9901   -1.6759 H   0  0  0  0  0  0  0  0  0  0  0  0
   -0.0847   14.2289    0.5737 H   0  0  0  0  0  0  0  0  0  0  0  0
    1.6439   12.6486    1.6491 H   0  0  0  0  0  0  0  0  0  0  0  0
   -0.1445   12.2156    1.6066 H   0  0  0  0  0  0  0  0  0  0  0  0
    1.5420   10.2599    1.0830 H   0  0  0  0  0  0  0  0  0  0  0  0
    0.9200   11.9910   -2.5106 H   0  0  0  0  0  0  0  0  0  0  0  0
   -1.7269   10.5384   -1.8920 H   0  0  0  0  0  0  0  0  0  0  0  0
   -1.3451   11.5307   -3.3683 H   0  0  0  0  0  0  0  0  0  0  0  0
   -1.2193    9.1005   -3.8155 H   0  0  0  0  0  0  0  0  0  0  0  0
    0.3659    9.9412   -4.0315 H   0  0  0  0  0  0  0  0  0  0  0  0
    0.7439    7.8669   -2.8867 H   0  0  0  0  0  0  0  0  0  0  0  0
   -0.7900    7.1730   -1.5890 H   0  0  0  0  0  0  0  0  0  0  0  0
    3.4689    9.8525   -1.7081 H   0  0  0  0  0  0  0  0  0  0  0  0
    2.8140    8.7662   -2.9801 H   0  0  0  0  0  0  0  0  0  0  0  0
    2.3844   10.5104   -2.9801 H   0  0  0  0  0  0  0  0  0  0  0  0
    1.6584    8.7033    0.6144 H   0  0  0  0  0  0  0  0  0  0  0  0
    1.2857    7.3638   -0.5229 H   0  0  0  0  0  0  0  0  0  0  0  0
    2.9178    8.1142   -0.5229 H   0  0  0  0  0  0  0  0  0  0  0  0
   -1.7789   12.7535    0.5090 H   0  0  0  0  0  0  0  0  0  0  0  0
   -2.4954   13.5483   -0.9339 H   0  0  0  0  0  0  0  0  0  0  0  0
   -2.2110   11.7746   -0.9339 H   0  0  0  0  0  0  0  0  0  0  0  0
   -0.8314   13.5362   -3.2307 H   0  0  0  0  0  0  0  0  0  0  0  0
   -1.3015   14.7667   -1.9270 H   0  0  0  0  0  0  0  0  0  0  0  0
    1.4452   14.2939   -3.1181 H   0  0  0  0  0  0  0  0  0  0  0  0
    0.3880   15.7525   -3.2640 H   0  0  0  0  0  0  0  0  0  0  0  0
    0.2994   16.3730    0.4157 H   0  0  0  0  0  0  0  0  0  0  0  0
    0.4106   17.4734   -0.9997 H   0  0  0  0  0  0  0  0  0  0  0  0
   -0.7790   16.1275   -0.9997 H   0  0  0  0  0  0  0  0  0  0  0  0
  1  2  1  0
  2  3  1  0
  3  4  1  0
  4  5  1  0
  5  6  1  0
  6  7  1  0
  7  8  1  0
  7  9  1  0
  2 10  1  0
 10 11  1  0
 11 12  1  0
 12 13  1  0
 13 14  1  6
 13 15  1  0
 15 16  1  0
 16 17  1  0
 17 18  2  0
 18 19  1  0
 19 20  1  0
 20 21  1  0
 21 22  1  0
 22 23  1  0
 22 24  1  0
 24 25  1  0
 24 26  1  0
 19 27  1  0
 27 28  1  1
 27 29  1  0
 29 30  1  0
 30 31  1  0
 31 32  1  1
  7  5  1  0
 31 10  1  0
 31 13  1  0
 27 15  1  0
 24 18  1  0
  1 33  1  0
  1 34  1  0
  1 35  1  0
  2 36  1  6
  3 37  1  0
  3 38  1  0
  4 39  1  0
  4 40  1  0
  5 41  1  6
  8 42  1  0
  8 43  1  0
  8 44  1  0
  9 45  1  0
  9 46  1  0
  9 47  1  0
 10 48  1  6
 11 49  1  0
 11 50  1  0
 12 51  1  0
 12 52  1  0
 14 53  1  0
 14 54  1  0
 14 55  1  0
 15 56  1  1
 16 57  1  0
 16 58  1  0
 17 59  1  0
 19 60  1  6
 20 61  1  0
 20 62  1  0
 21 63  1  0
 21 64  1  0
 22 65  1  6
 23 66  1  0
 25 67  1  0
 25 68  1  0
 25 69  1  0
 26 70  1  0
 26 71  1  0
 26 72  1  0
 28 73  1  0
 28 74  1  0
 28 75  1  0
 29 76  1  0
 29 77  1  0
 30 78  1  0
 30 79  1  0
 32 80  1  0
 32 81  1  0
 32 82  1  0
M  END
>  <meeko>  (19) 
{"is_sidechain": [false], "intermolecular_energy": 2.731, "internal_energy": -0.839}

$$$$
