EPH_relaxed_0001_pdb2pqr_Repair_34_r2_0001_out
     RDKit          3D

 82 86  0  0  0  0  0  0  0  0999 V2000
   -1.7200    8.5810   -1.8700 C   0  0  0  0  0  0  0  0  0  0  0  0
   -2.1020    9.1030   -0.4820 C   0  0  2  0  0  0  0  0  0  0  0  0
   -3.5970    9.4690   -0.3910 C   0  0  0  0  0  0  0  0  0  0  0  0
   -4.5180    8.2580   -0.2230 C   0  0  0  0  0  0  0  0  0  0  0  0
   -5.2180    7.9120   -1.5020 C   0  0  2  0  0  0  0  0  0  0  0  0
   -6.3460    8.7410   -1.8110 O   0  0  0  0  0  0  0  0  0  0  0  0
   -6.6280    7.3540   -1.5600 C   0  0  0  0  0  0  0  0  0  0  0  0
   -7.4230    7.1100   -0.3150 C   0  0  0  0  0  0  0  0  0  0  0  0
   -7.0480    6.5940   -2.7800 C   0  0  0  0  0  0  0  0  0  0  0  0
   -1.2470   10.3140   -0.1280 C   0  0  1  0  0  0  0  0  0  0  0  0
   -0.2280   10.0150    1.0040 C   0  0  0  0  0  0  0  0  0  0  0  0
    1.0450   10.8410    0.6890 C   0  0  0  0  0  0  0  0  0  0  0  0
    0.6050   11.8320   -0.4140 C   0  0  1  0  0  0  0  0  0  0  0  0
   -0.1100   12.9900    0.3490 C   0  0  0  0  0  0  0  0  0  0  0  0
    1.7350   12.3690   -1.3520 C   0  0  2  0  0  0  0  0  0  0  0  0
    2.8310   13.1900   -0.6490 C   0  0  0  0  0  0  0  0  0  0  0  0
    2.5790   14.6590   -0.5760 C   0  0  0  0  0  0  0  0  0  0  0  0
    1.6640   15.3330   -1.2980 C   0  0  0  0  0  0  0  0  0  0  0  0
    0.8310   14.6230   -2.3730 C   0  0  1  0  0  0  0  0  0  0  0  0
    0.8190   15.4780   -3.6680 C   0  0  0  0  0  0  0  0  0  0  0  0
    0.3520   16.9090   -3.4180 C   0  0  0  0  0  0  0  0  0  0  0  0
    1.2400   17.6010   -2.3870 C   0  0  2  0  0  0  0  0  0  0  0  0
    2.5480   17.7670   -2.9420 O   0  0  0  0  0  0  0  0  0  0  0  0
    1.3370   16.8250   -1.0440 C   0  0  0  0  0  0  0  0  0  0  0  0
   -0.0180   16.9050   -0.2970 C   0  0  0  0  0  0  0  0  0  0  0  0
    2.3720   17.5540   -0.1450 C   0  0  0  0  0  0  0  0  0  0  0  0
    1.2060   13.1030   -2.6500 C   0  0  1  0  0  0  0  0  0  0  0  0
    2.3510   13.0210   -3.7050 C   0  0  0  0  0  0  0  0  0  0  0  0
   -0.0360   12.3740   -3.2850 C   0  0  0  0  0  0  0  0  0  0  0  0
   -1.0560   11.7600   -2.3070 C   0  0  0  0  0  0  0  0  0  0  0  0
   -0.3540   10.9060   -1.2480 C   0  0  2  0  0  0  0  0  0  0  0  0
    0.3560    9.7190   -1.9840 C   0  0  0  0  0  0  0  0  0  0  0  0
   -1.0734    7.6974   -1.7643 H   0  0  0  0  0  0  0  0  0  0  0  0
   -2.6309    8.3049   -2.4214 H   0  0  0  0  0  0  0  0  0  0  0  0
   -1.1813    9.3657   -2.4214 H   0  0  0  0  0  0  0  0  0  0  0  0
   -1.9155    8.2932    0.2388 H   0  0  0  0  0  0  0  0  0  0  0  0
   -3.7393   10.1359    0.4721 H   0  0  0  0  0  0  0  0  0  0  0  0
   -3.8686    9.9499   -1.3423 H   0  0  0  0  0  0  0  0  0  0  0  0
   -3.9168    7.3949    0.0990 H   0  0  0  0  0  0  0  0  0  0  0  0
   -5.2812    8.5094    0.5283 H   0  0  0  0  0  0  0  0  0  0  0  0
   -4.2732    7.5780   -1.9557 H   0  0  0  0  0  0  0  0  0  0  0  0
   -6.7933    7.3033    0.5659 H   0  0  0  0  0  0  0  0  0  0  0  0
   -8.2934    7.7823   -0.2981 H   0  0  0  0  0  0  0  0  0  0  0  0
   -7.7664    6.0651   -0.2981 H   0  0  0  0  0  0  0  0  0  0  0  0
   -7.5595    5.6684   -2.4773 H   0  0  0  0  0  0  0  0  0  0  0  0
   -7.7326    7.2121   -3.3794 H   0  0  0  0  0  0  0  0  0  0  0  0
   -6.1604    6.3432   -3.3794 H   0  0  0  0  0  0  0  0  0  0  0  0
   -2.0399   11.0285    0.1383 H   0  0  0  0  0  0  0  0  0  0  0  0
   -0.6436   10.3158    1.9770 H   0  0  0  0  0  0  0  0  0  0  0  0
    0.0011    8.9404    1.0556 H   0  0  0  0  0  0  0  0  0  0  0  0
    1.3876   11.3824    1.5832 H   0  0  0  0  0  0  0  0  0  0  0  0
    1.8848   10.2068    0.3687 H   0  0  0  0  0  0  0  0  0  0  0  0
   -0.0116   12.8306    1.4329 H   0  0  0  0  0  0  0  0  0  0  0  0
    0.3530   13.9498    0.0760 H   0  0  0  0  0  0  0  0  0  0  0  0
   -1.1755   13.0060    0.0760 H   0  0  0  0  0  0  0  0  0  0  0  0
    2.2240   11.4423   -1.6868 H   0  0  0  0  0  0  0  0  0  0  0  0
    2.9330   12.8112    0.3787 H   0  0  0  0  0  0  0  0  0  0  0  0
    3.7400   13.0670   -1.2561 H   0  0  0  0  0  0  0  0  0  0  0  0
    3.1929   15.2406    0.1274 H   0  0  0  0  0  0  0  0  0  0  0  0
   -0.1881   14.5467   -1.9659 H   0  0  0  0  0  0  0  0  0  0  0  0
    1.8379   15.5064   -4.0816 H   0  0  0  0  0  0  0  0  0  0  0  0
    0.1110   15.0127   -4.3696 H   0  0  0  0  0  0  0  0  0  0  0  0
    0.3923   17.4710   -4.3628 H   0  0  0  0  0  0  0  0  0  0  0  0
   -0.6773   16.8796   -3.0312 H   0  0  0  0  0  0  0  0  0  0  0  0
    0.7808   18.5734   -2.1555 H   0  0  0  0  0  0  0  0  0  0  0  0
    3.1720   17.2820   -2.3760 H   0  0  0  0  0  0  0  0  0  0  0  0
    0.1605   16.8945    0.7884 H   0  0  0  0  0  0  0  0  0  0  0  0
   -0.5353   17.8353   -0.5745 H   0  0  0  0  0  0  0  0  0  0  0  0
   -0.6412   16.0421   -0.5745 H   0  0  0  0  0  0  0  0  0  0  0  0
    2.1255   17.3804    0.9129 H   0  0  0  0  0  0  0  0  0  0  0  0
    3.3791   17.1648   -0.3555 H   0  0  0  0  0  0  0  0  0  0  0  0
    2.3447   18.6333   -0.3555 H   0  0  0  0  0  0  0  0  0  0  0  0
    3.3203   12.9516   -3.1895 H   0  0  0  0  0  0  0  0  0  0  0  0
    2.2061   12.1309   -4.3349 H   0  0  0  0  0  0  0  0  0  0  0  0
    2.3344   13.9226   -4.3349 H   0  0  0  0  0  0  0  0  0  0  0  0
   -0.5706   13.1076   -3.9063 H   0  0  0  0  0  0  0  0  0  0  0  0
    0.3830   11.5201   -3.8376 H   0  0  0  0  0  0  0  0  0  0  0  0
   -1.6085   12.5697   -1.8080 H   0  0  0  0  0  0  0  0  0  0  0  0
   -1.7445   11.1177   -2.8757 H   0  0  0  0  0  0  0  0  0  0  0  0
    0.7722    9.0231   -1.2407 H   0  0  0  0  0  0  0  0  0  0  0  0
   -0.3737    9.1892   -2.6140 H   0  0  0  0  0  0  0  0  0  0  0  0
    1.1679   10.1113   -2.6140 H   0  0  0  0  0  0  0  0  0  0  0  0
  1  2  1  0
  2  3  1  0
  3  4  1  0
  4  5  1  0
  5  6  1  0
  6  7  1  0
  7  8  1  0
  7  9  1  0
  2 10  1  0
 10 11  1  0
 11 12  1  0
 12 13  1  0
 13 14  1  1
 13 15  1  0
 15 16  1  0
 16 17  1  0
 17 18  2  0
 18 19  1  0
 19 20  1  0
 20 21  1  0
 21 22  1  0
 22 23  1  0
 22 24  1  0
 24 25  1  0
 24 26  1  0
 19 27  1  0
 27 28  1  6
 27 29  1  0
 29 30  1  0
 30 31  1  0
 31 32  1  6
  7  5  1  0
 31 10  1  0
 31 13  1  0
 27 15  1  0
 24 18  1  0
  1 33  1  0
  1 34  1  0
  1 35  1  0
  2 36  1  1
  3 37  1  0
  3 38  1  0
  4 39  1  0
  4 40  1  0
  5 41  1  6
  8 42  1  0
  8 43  1  0
  8 44  1  0
  9 45  1  0
  9 46  1  0
  9 47  1  0
 10 48  1  1
 11 49  1  0
 11 50  1  0
 12 51  1  0
 12 52  1  0
 14 53  1  0
 14 54  1  0
 14 55  1  0
 15 56  1  6
 16 57  1  0
 16 58  1  0
 17 59  1  0
 19 60  1  1
 20 61  1  0
 20 62  1  0
 21 63  1  0
 21 64  1  0
 22 65  1  1
 23 66  1  0
 25 67  1  0
 25 68  1  0
 25 69  1  0
 26 70  1  0
 26 71  1  0
 26 72  1  0
 28 73  1  0
 28 74  1  0
 28 75  1  0
 29 76  1  0
 29 77  1  0
 30 78  1  0
 30 79  1  0
 32 80  1  0
 32 81  1  0
 32 82  1  0
M  END
>  <meeko>  (1) 
{"is_sidechain": [false], "intermolecular_energy": 2.731, "internal_energy": -0.839}

$$$$
EPH_relaxed_0001_pdb2pqr_Repair_34_r2_0001_out
     RDKit          3D

 82 86  0  0  0  0  0  0  0  0999 V2000
    2.3640   18.0450   -2.6740 C   0  0  0  0  0  0  0  0  0  0  0  0
    1.0610   17.6610   -1.9670 C   0  0  2  0  0  0  0  0  0  0  0  0
    1.1910   17.7270   -0.4320 C   0  0  0  0  0  0  0  0  0  0  0  0
    0.8450   19.0980    0.1560 C   0  0  0  0  0  0  0  0  0  0  0  0
   -0.6030   19.1910    0.5310 C   0  0  2  0  0  0  0  0  0  0  0  0
   -1.4600   18.2740   -0.1620 O   0  0  0  0  0  0  0  0  0  0  0  0
   -1.6840   19.6700   -0.4210 C   0  0  0  0  0  0  0  0  0  0  0  0
   -1.3610   20.0880   -1.8210 C   0  0  0  0  0  0  0  0  0  0  0  0
   -2.9630   20.1930    0.1550 C   0  0  0  0  0  0  0  0  0  0  0  0
    0.6320   16.2620   -2.3940 C   0  0  1  0  0  0  0  0  0  0  0  0
    0.7780   16.0320   -3.9220 C   0  0  0  0  0  0  0  0  0  0  0  0
    1.1910   14.5500   -4.1140 C   0  0  0  0  0  0  0  0  0  0  0  0
    0.9470   13.8950   -2.7340 C   0  0  1  0  0  0  0  0  0  0  0  0
   -0.5840   13.5950   -2.6970 C   0  0  0  0  0  0  0  0  0  0  0  0
    1.7930   12.6200   -2.4150 C   0  0  2  0  0  0  0  0  0  0  0  0
    1.5460   11.4230   -3.3500 C   0  0  0  0  0  0  0  0  0  0  0  0
    0.4760   10.4800   -2.9090 C   0  0  0  0  0  0  0  0  0  0  0  0
   -0.0610   10.4280   -1.6760 C   0  0  0  0  0  0  0  0  0  0  0  0
    0.4760   11.3140   -0.5450 C   0  0  1  0  0  0  0  0  0  0  0  0
    0.6660   10.4600    0.7360 C   0  0  0  0  0  0  0  0  0  0  0  0
   -0.6030    9.7110    1.1340 C   0  0  0  0  0  0  0  0  0  0  0  0
   -1.0730    8.7970    0.0050 C   0  0  2  0  0  0  0  0  0  0  0  0
   -0.1110    7.7540   -0.1740 O   0  0  0  0  0  0  0  0  0  0  0  0
   -1.2890    9.5460   -1.3400 C   0  0  0  0  0  0  0  0  0  0  0  0
   -2.5320   10.4640   -1.2310 C   0  0  0  0  0  0  0  0  0  0  0  0
   -1.6240    8.4880   -2.4260 C   0  0  0  0  0  0  0  0  0  0  0  0
    1.7600   12.1830   -0.8950 C   0  0  1  0  0  0  0  0  0  0  0  0
    3.0520   11.3480   -0.6430 C   0  0  0  0  0  0  0  0  0  0  0  0
    1.8290   13.4150    0.0830 C   0  0  0  0  0  0  0  0  0  0  0  0
    1.0710   14.6850   -0.3450 C   0  0  0  0  0  0  0  0  0  0  0  0
    1.4080   15.0650   -1.7900 C   0  0  2  0  0  0  0  0  0  0  0  0
    2.9390   15.3940   -1.8530 C   0  0  0  0  0  0  0  0  0  0  0  0
    3.1353   18.2723   -1.9233 H   0  0  0  0  0  0  0  0  0  0  0  0
    2.7002   17.2078   -3.3033 H   0  0  0  0  0  0  0  0  0  0  0  0
    2.1925   18.9308   -3.3033 H   0  0  0  0  0  0  0  0  0  0  0  0
    0.2950   18.3924   -2.2643 H   0  0  0  0  0  0  0  0  0  0  0  0
    0.5132   16.9798    0.0065 H   0  0  0  0  0  0  0  0  0  0  0  0
    2.2457   17.5298   -0.1896 H   0  0  0  0  0  0  0  0  0  0  0  0
    1.4573   19.2654    1.0543 H   0  0  0  0  0  0  0  0  0  0  0  0
    1.0507   19.8610   -0.6092 H   0  0  0  0  0  0  0  0  0  0  0  0
   -0.3433   19.4828    1.5593 H   0  0  0  0  0  0  0  0  0  0  0  0
   -0.6886   20.9582   -1.7979 H   0  0  0  0  0  0  0  0  0  0  0  0
   -0.8678   19.2574   -2.3471 H   0  0  0  0  0  0  0  0  0  0  0  0
   -2.2892   20.3557   -2.3471 H   0  0  0  0  0  0  0  0  0  0  0  0
   -2.9069   20.1701    1.2533 H   0  0  0  0  0  0  0  0  0  0  0  0
   -3.1210   21.2279   -0.1825 H   0  0  0  0  0  0  0  0  0  0  0  0
   -3.8009   19.5653   -0.1825 H   0  0  0  0  0  0  0  0  0  0  0  0
   -0.4034   16.2657   -2.0225 H   0  0  0  0  0  0  0  0  0  0  0  0
   -0.1793   16.2270   -4.4276 H   0  0  0  0  0  0  0  0  0  0  0  0
    1.5289   16.7103   -4.3535 H   0  0  0  0  0  0  0  0  0  0  0  0
    0.5711   14.0710   -4.8862 H   0  0  0  0  0  0  0  0  0  0  0  0
    2.2348   14.4474   -4.4457 H   0  0  0  0  0  0  0  0  0  0  0  0
   -0.9196   13.5292   -1.6515 H   0  0  0  0  0  0  0  0  0  0  0  0
   -1.1285   14.4035   -3.2067 H   0  0  0  0  0  0  0  0  0  0  0  0
   -0.7831   12.6408   -3.2067 H   0  0  0  0  0  0  0  0  0  0  0  0
    2.8181   12.9582   -2.6266 H   0  0  0  0  0  0  0  0  0  0  0  0
    1.2665   11.8159   -4.3387 H   0  0  0  0  0  0  0  0  0  0  0  0
    2.4804   10.8425   -3.3548 H   0  0  0  0  0  0  0  0  0  0  0  0
    0.0942    9.7674   -3.6549 H   0  0  0  0  0  0  0  0  0  0  0  0
   -0.2912   12.0828   -0.3707 H   0  0  0  0  0  0  0  0  0  0  0  0
    1.4661    9.7270    0.5556 H   0  0  0  0  0  0  0  0  0  0  0  0
    0.9215   11.1443    1.5585 H   0  0  0  0  0  0  0  0  0  0  0  0
   -0.3972    9.1032    2.0274 H   0  0  0  0  0  0  0  0  0  0  0  0
   -1.3940   10.4462    1.3433 H   0  0  0  0  0  0  0  0  0  0  0  0
   -2.0518    8.3886    0.2968 H   0  0  0  0  0  0  0  0  0  0  0  0
   -0.4150    6.9820    0.3330 H   0  0  0  0  0  0  0  0  0  0  0  0
   -2.7675   10.6379   -0.1707 H   0  0  0  0  0  0  0  0  0  0  0  0
   -2.3220   11.4254   -1.7225 H   0  0  0  0  0  0  0  0  0  0  0  0
   -3.3891    9.9805   -1.7225 H   0  0  0  0  0  0  0  0  0  0  0  0
   -1.9221    7.5466   -1.9412 H   0  0  0  0  0  0  0  0  0  0  0  0
   -2.4499    8.8550   -3.0531 H   0  0  0  0  0  0  0  0  0  0  0  0
   -0.7374    8.3128   -3.0531 H   0  0  0  0  0  0  0  0  0  0  0  0
    3.2151   11.2426    0.4397 H   0  0  0  0  0  0  0  0  0  0  0  0
    2.9388   10.3518   -1.0955 H   0  0  0  0  0  0  0  0  0  0  0  0
    3.9138   11.8604   -1.0955 H   0  0  0  0  0  0  0  0  0  0  0  0
    1.4195   13.0938    1.0521 H   0  0  0  0  0  0  0  0  0  0  0  0
    2.8895   13.7064    0.1042 H   0  0  0  0  0  0  0  0  0  0  0  0
   -0.0108   14.5027   -0.2640 H   0  0  0  0  0  0  0  0  0  0  0  0
    1.3730   15.5121    0.3143 H   0  0  0  0  0  0  0  0  0  0  0  0
    3.3379   15.4797   -0.8315 H   0  0  0  0  0  0  0  0  0  0  0  0
    3.4655   14.5885   -2.3859 H   0  0  0  0  0  0  0  0  0  0  0  0
    3.0881   16.3447   -2.3859 H   0  0  0  0  0  0  0  0  0  0  0  0
  1  2  1  0
  2  3  1  0
  3  4  1  0
  4  5  1  0
  5  6  1  0
  6  7  1  0
  7  8  1  0
  7  9  1  0
  2 10  1  0
 10 11  1  0
 11 12  1  0
 12 13  1  0
 13 14  1  1
 13 15  1  0
 15 16  1  0
 16 17  1  0
 17 18  2  0
 18 19  1  0
 19 20  1  0
 20 21  1  0
 21 22  1  0
 22 23  1  0
 22 24  1  0
 24 25  1  0
 24 26  1  0
 19 27  1  0
 27 28  1  1
 27 29  1  0
 29 30  1  0
 30 31  1  0
 31 32  1  1
  7  5  1  0
 31 10  1  0
 31 13  1  0
 27 15  1  0
 24 18  1  0
  1 33  1  0
  1 34  1  0
  1 35  1  0
  2 36  1  6
  3 37  1  0
  3 38  1  0
  4 39  1  0
  4 40  1  0
  5 41  1  1
  8 42  1  0
  8 43  1  0
  8 44  1  0
  9 45  1  0
  9 46  1  0
  9 47  1  0
 10 48  1  1
 11 49  1  0
 11 50  1  0
 12 51  1  0
 12 52  1  0
 14 53  1  0
 14 54  1  0
 14 55  1  0
 15 56  1  6
 16 57  1  0
 16 58  1  0
 17 59  1  0
 19 60  1  1
 20 61  1  0
 20 62  1  0
 21 63  1  0
 21 64  1  0
 22 65  1  1
 23 66  1  0
 25 67  1  0
 25 68  1  0
 25 69  1  0
 26 70  1  0
 26 71  1  0
 26 72  1  0
 28 73  1  0
 28 74  1  0
 28 75  1  0
 29 76  1  0
 29 77  1  0
 30 78  1  0
 30 79  1  0
 32 80  1  0
 32 81  1  0
 32 82  1  0
M  END
>  <meeko>  (2) 
{"is_sidechain": [false], "intermolecular_energy": 2.731, "internal_energy": -0.839}

$$$$
EPH_relaxed_0001_pdb2pqr_Repair_34_r2_0001_out
     RDKit          3D

 82 86  0  0  0  0  0  0  0  0999 V2000
    1.9900   19.6510   -0.6130 C   0  0  0  0  0  0  0  0  0  0  0  0
    2.3740   18.4340    0.2320 C   0  0  2  0  0  0  0  0  0  0  0  0
    3.8290   17.9880   -0.0180 C   0  0  0  0  0  0  0  0  0  0  0  0
    4.7580   18.2200    1.1760 C   0  0  0  0  0  0  0  0  0  0  0  0
    4.0870   19.0150    2.2550 C   0  0  2  0  0  0  0  0  0  0  0  0
    4.7960   20.1940    2.6580 O   0  0  0  0  0  0  0  0  0  0  0  0
    4.6510   19.1690    3.6550 C   0  0  0  0  0  0  0  0  0  0  0  0
    5.9390   18.5210    4.0530 C   0  0  0  0  0  0  0  0  0  0  0  0
    3.7170   19.5370    4.7660 C   0  0  0  0  0  0  0  0  0  0  0  0
    1.4200   17.2800   -0.0540 C   0  0  1  0  0  0  0  0  0  0  0  0
    0.1490   17.7330   -0.8210 C   0  0  0  0  0  0  0  0  0  0  0  0
   -0.2360   16.5730   -1.7750 C   0  0  0  0  0  0  0  0  0  0  0  0
    0.6160   15.3750   -1.2940 C   0  0  1  0  0  0  0  0  0  0  0  0
   -0.1620   14.7950   -0.0710 C   0  0  0  0  0  0  0  0  0  0  0  0
    0.9210   14.2720   -2.3600 C   0  0  2  0  0  0  0  0  0  0  0  0
   -0.3140   13.5430   -2.9160 C   0  0  0  0  0  0  0  0  0  0  0  0
   -0.7190   12.3140   -2.1710 C   0  0  0  0  0  0  0  0  0  0  0  0
    0.0410   11.6560   -1.2770 C   0  0  0  0  0  0  0  0  0  0  0  0
    1.4900   12.0830   -1.0090 C   0  0  1  0  0  0  0  0  0  0  0  0
    2.4070   10.8320   -1.0080 C   0  0  0  0  0  0  0  0  0  0  0  0
    1.9270    9.7560   -0.0390 C   0  0  0  0  0  0  0  0  0  0  0  0
    0.5050    9.3150   -0.3740 C   0  0  2  0  0  0  0  0  0  0  0  0
    0.5150    8.6470   -1.6390 O   0  0  0  0  0  0  0  0  0  0  0  0
   -0.5080   10.4940   -0.4140 C   0  0  0  0  0  0  0  0  0  0  0  0
   -0.7450   11.0240    1.0220 C   0  0  0  0  0  0  0  0  0  0  0  0
   -1.8720    9.9340   -0.9000 C   0  0  0  0  0  0  0  0  0  0  0  0
    2.0500   13.2500   -1.9300 C   0  0  1  0  0  0  0  0  0  0  0  0
    2.6360   12.6540   -3.2470 C   0  0  0  0  0  0  0  0  0  0  0  0
    3.2480   13.9580   -1.1920 C   0  0  0  0  0  0  0  0  0  0  0  0
    2.8920   15.1180   -0.2440 C   0  0  0  0  0  0  0  0  0  0  0  0
    1.9520   16.1160   -0.9270 C   0  0  2  0  0  0  0  0  0  0  0  0
    2.7160   16.7330   -2.1480 C   0  0  0  0  0  0  0  0  0  0  0  0
    1.7257   20.4886    0.0493 H   0  0  0  0  0  0  0  0  0  0  0  0
    2.8407   19.9398   -1.2478 H   0  0  0  0  0  0  0  0  0  0  0  0
    1.1276   19.3993   -1.2478 H   0  0  0  0  0  0  0  0  0  0  0  0
    2.2958   18.7283    1.2890 H   0  0  0  0  0  0  0  0  0  0  0  0
    3.8272   16.9134   -0.2528 H   0  0  0  0  0  0  0  0  0  0  0  0
    4.2140   18.5986   -0.8480 H   0  0  0  0  0  0  0  0  0  0  0  0
    5.0603   17.2455    1.5870 H   0  0  0  0  0  0  0  0  0  0  0  0
    5.6319   18.7883    0.8248 H   0  0  0  0  0  0  0  0  0  0  0  0
    3.0933   18.7174    1.8890 H   0  0  0  0  0  0  0  0  0  0  0  0
    6.0082   18.4862    5.1503 H   0  0  0  0  0  0  0  0  0  0  0  0
    5.9743   17.4978    3.6507 H   0  0  0  0  0  0  0  0  0  0  0  0
    6.7817   19.1025    3.6507 H   0  0  0  0  0  0  0  0  0  0  0  0
    4.2042   19.3450    5.7334 H   0  0  0  0  0  0  0  0  0  0  0  0
    3.4596   20.6038    4.6904 H   0  0  0  0  0  0  0  0  0  0  0  0
    2.8011   18.9325    4.6904 H   0  0  0  0  0  0  0  0  0  0  0  0
    1.2425   16.9287    0.9732 H   0  0  0  0  0  0  0  0  0  0  0  0
   -0.6703   17.9293   -0.1137 H   0  0  0  0  0  0  0  0  0  0  0  0
    0.3364   18.6601   -1.3826 H   0  0  0  0  0  0  0  0  0  0  0  0
   -1.3089   16.3438   -1.6949 H   0  0  0  0  0  0  0  0  0  0  0  0
   -0.0499   16.8209   -2.8304 H   0  0  0  0  0  0  0  0  0  0  0  0
    0.3066   15.1444    0.8609 H   0  0  0  0  0  0  0  0  0  0  0  0
   -1.2072   15.1361   -0.1061 H   0  0  0  0  0  0  0  0  0  0  0  0
   -0.1336   13.6959   -0.1061 H   0  0  0  0  0  0  0  0  0  0  0  0
    1.3240   14.8592   -3.1983 H   0  0  0  0  0  0  0  0  0  0  0  0
   -1.1601   14.2457   -2.8978 H   0  0  0  0  0  0  0  0  0  0  0  0
   -0.0400   13.2089   -3.9276 H   0  0  0  0  0  0  0  0  0  0  0  0
   -1.7237   11.9127   -2.3700 H   0  0  0  0  0  0  0  0  0  0  0  0
    1.4910   12.5465   -0.0114 H   0  0  0  0  0  0  0  0  0  0  0  0
    2.4273   10.4088   -2.0231 H   0  0  0  0  0  0  0  0  0  0  0  0
    3.4080   11.1518   -0.6828 H   0  0  0  0  0  0  0  0  0  0  0  0
    2.5983    8.8870   -0.1048 H   0  0  0  0  0  0  0  0  0  0  0  0
    1.9347   10.1720    0.9793 H   0  0  0  0  0  0  0  0  0  0  0  0
    0.1711    8.6407    0.4284 H   0  0  0  0  0  0  0  0  0  0  0  0
    0.5670    9.3280   -2.3310 H   0  0  0  0  0  0  0  0  0  0  0  0
   -0.4086   10.2717    1.7507 H   0  0  0  0  0  0  0  0  0  0  0  0
   -0.1774   11.9550    1.1676 H   0  0  0  0  0  0  0  0  0  0  0  0
   -1.8173   11.2217    1.1676 H   0  0  0  0  0  0  0  0  0  0  0  0
   -2.4945    9.6784   -0.0298 H   0  0  0  0  0  0  0  0  0  0  0  0
   -2.3851   10.6942   -1.5073 H   0  0  0  0  0  0  0  0  0  0  0  0
   -1.7029    9.0325   -1.5073 H   0  0  0  0  0  0  0  0  0  0  0  0
    3.3877   11.8895   -3.0009 H   0  0  0  0  0  0  0  0  0  0  0  0
    1.8264   12.1964   -3.8344 H   0  0  0  0  0  0  0  0  0  0  0  0
    3.1072   13.4558   -3.8344 H   0  0  0  0  0  0  0  0  0  0  0  0
    3.7725   13.1935   -0.6000 H   0  0  0  0  0  0  0  0  0  0  0  0
    3.8492   14.4146   -1.9921 H   0  0  0  0  0  0  0  0  0  0  0  0
    2.3974   14.7124    0.6509 H   0  0  0  0  0  0  0  0  0  0  0  0
    3.8189   15.6420    0.0322 H   0  0  0  0  0  0  0  0  0  0  0  0
    3.5235   17.3851   -1.7837 H   0  0  0  0  0  0  0  0  0  0  0  0
    3.1447   15.9248   -2.7587 H   0  0  0  0  0  0  0  0  0  0  0  0
    2.0161   17.3222   -2.7587 H   0  0  0  0  0  0  0  0  0  0  0  0
  1  2  1  0
  2  3  1  0
  3  4  1  0
  4  5  1  0
  5  6  1  0
  6  7  1  0
  7  8  1  0
  7  9  1  0
  2 10  1  0
 10 11  1  0
 11 12  1  0
 12 13  1  0
 13 14  1  1
 13 15  1  0
 15 16  1  0
 16 17  1  0
 17 18  2  0
 18 19  1  0
 19 20  1  0
 20 21  1  0
 21 22  1  0
 22 23  1  0
 22 24  1  0
 24 25  1  0
 24 26  1  0
 19 27  1  0
 27 28  1  6
 27 29  1  0
 29 30  1  0
 30 31  1  0
 31 32  1  6
  7  5  1  0
 31 10  1  0
 31 13  1  0
 27 15  1  0
 24 18  1  0
  1 33  1  0
  1 34  1  0
  1 35  1  0
  2 36  1  1
  3 37  1  0
  3 38  1  0
  4 39  1  0
  4 40  1  0
  5 41  1  1
  8 42  1  0
  8 43  1  0
  8 44  1  0
  9 45  1  0
  9 46  1  0
  9 47  1  0
 10 48  1  1
 11 49  1  0
 11 50  1  0
 12 51  1  0
 12 52  1  0
 14 53  1  0
 14 54  1  0
 14 55  1  0
 15 56  1  6
 16 57  1  0
 16 58  1  0
 17 59  1  0
 19 60  1  1
 20 61  1  0
 20 62  1  0
 21 63  1  0
 21 64  1  0
 22 65  1  1
 23 66  1  0
 25 67  1  0
 25 68  1  0
 25 69  1  0
 26 70  1  0
 26 71  1  0
 26 72  1  0
 28 73  1  0
 28 74  1  0
 28 75  1  0
 29 76  1  0
 29 77  1  0
 30 78  1  0
 30 79  1  0
 32 80  1  0
 32 81  1  0
 32 82  1  0
M  END
>  <meeko>  (3) 
{"is_sidechain": [false], "intermolecular_energy": 2.731, "internal_energy": -0.839}

$$$$
EPH_relaxed_0001_pdb2pqr_Repair_34_r2_0001_out
     RDKit          3D

 82 86  0  0  0  0  0  0  0  0999 V2000
    0.3970   18.4230   -0.0660 C   0  0  0  0  0  0  0  0  0  0  0  0
    1.4830   17.3610   -0.2630 C   0  0  2  0  0  0  0  0  0  0  0  0
    2.7060   17.9150   -1.0200 C   0  0  0  0  0  0  0  0  0  0  0  0
    3.9390   18.1160   -0.1350 C   0  0  0  0  0  0  0  0  0  0  0  0
    3.5650   18.6020    1.2330 C   0  0  2  0  0  0  0  0  0  0  0  0
    3.7960   19.9990    1.4560 O   0  0  0  0  0  0  0  0  0  0  0  0
    4.5770   19.0930    2.2520 C   0  0  0  0  0  0  0  0  0  0  0  0
    6.0420   19.1210    1.9460 C   0  0  0  0  0  0  0  0  0  0  0  0
    4.1970   19.0820    3.7000 C   0  0  0  0  0  0  0  0  0  0  0  0
    0.9080   16.1620   -1.0090 C   0  0  1  0  0  0  0  0  0  0  0  0
    0.7750   16.4150   -2.5340 C   0  0  0  0  0  0  0  0  0  0  0  0
    1.0640   15.0640   -3.2390 C   0  0  0  0  0  0  0  0  0  0  0  0
    1.0240   14.0160   -2.1020 C   0  0  1  0  0  0  0  0  0  0  0  0
   -0.4920   13.7210   -1.8810 C   0  0  0  0  0  0  0  0  0  0  0  0
    1.8390   12.7040   -2.3450 C   0  0  2  0  0  0  0  0  0  0  0  0
    1.3660   11.8530   -3.5370 C   0  0  0  0  0  0  0  0  0  0  0  0
    0.3360   10.8220   -3.2160 C   0  0  0  0  0  0  0  0  0  0  0  0
    0.0170   10.3920   -1.9810 C   0  0  0  0  0  0  0  0  0  0  0  0
    0.7910   10.8850   -0.7520 C   0  0  1  0  0  0  0  0  0  0  0  0
    1.1490    9.6770    0.1530 C   0  0  0  0  0  0  0  0  0  0  0  0
   -0.0720    8.8440    0.5280 C   0  0  0  0  0  0  0  0  0  0  0  0
   -0.7810    8.3240   -0.7200 C   0  0  2  0  0  0  0  0  0  0  0  0
    0.0750    7.3850   -1.3790 O   0  0  0  0  0  0  0  0  0  0  0  0
   -1.1830    9.4510   -1.7120 C   0  0  0  0  0  0  0  0  0  0  0  0
   -2.3340   10.2910   -1.1060 C   0  0  0  0  0  0  0  0  0  0  0  0
   -1.7590    8.7810   -2.9880 C   0  0  0  0  0  0  0  0  0  0  0  0
    2.0420   11.8190   -1.0490 C   0  0  1  0  0  0  0  0  0  0  0  0
    3.3090   10.9450   -1.3010 C   0  0  0  0  0  0  0  0  0  0  0  0
    2.3490   12.6880    0.2280 C   0  0  0  0  0  0  0  0  0  0  0  0
    1.6020   14.0300    0.3500 C   0  0  0  0  0  0  0  0  0  0  0  0
    1.7070   14.8360   -0.9480 C   0  0  2  0  0  0  0  0  0  0  0  0
    3.2200   15.1680   -1.1850 C   0  0  0  0  0  0  0  0  0  0  0  0
    0.2324   18.5840    1.0096 H   0  0  0  0  0  0  0  0  0  0  0  0
    0.7173   19.3660   -0.5331 H   0  0  0  0  0  0  0  0  0  0  0  0
   -0.5386   18.0817   -0.5331 H   0  0  0  0  0  0  0  0  0  0  0  0
    1.8258   17.0490    0.7346 H   0  0  0  0  0  0  0  0  0  0  0  0
    2.9662   17.2095   -1.8229 H   0  0  0  0  0  0  0  0  0  0  0  0
    2.4231   18.9053   -1.4064 H   0  0  0  0  0  0  0  0  0  0  0  0
    4.4701   17.1574   -0.0401 H   0  0  0  0  0  0  0  0  0  0  0  0
    4.5797   18.8760   -0.6062 H   0  0  0  0  0  0  0  0  0  0  0  0
    2.7504   17.8656    1.2977 H   0  0  0  0  0  0  0  0  0  0  0  0
    6.6128   19.1319    2.8862 H   0  0  0  0  0  0  0  0  0  0  0  0
    6.3120   18.2279    1.3634 H   0  0  0  0  0  0  0  0  0  0  0  0
    6.2777   20.0238    1.3634 H   0  0  0  0  0  0  0  0  0  0  0  0
    5.1066   19.1083    4.3180 H   0  0  0  0  0  0  0  0  0  0  0  0
    3.5766   19.9626    3.9230 H   0  0  0  0  0  0  0  0  0  0  0  0
    3.6286   18.1670    3.9230 H   0  0  0  0  0  0  0  0  0  0  0  0
   -0.0458   16.0514   -0.4722 H   0  0  0  0  0  0  0  0  0  0  0  0
   -0.2425   16.7573   -2.7738 H   0  0  0  0  0  0  0  0  0  0  0  0
    1.4775   17.1928   -2.8679 H   0  0  0  0  0  0  0  0  0  0  0  0
    0.2943   14.8474   -3.9944 H   0  0  0  0  0  0  0  0  0  0  0  0
    2.0272   15.0676   -3.7702 H   0  0  0  0  0  0  0  0  0  0  0  0
   -0.7041   13.6797   -0.8024 H   0  0  0  0  0  0  0  0  0  0  0  0
   -1.0919   14.5192   -2.3424 H   0  0  0  0  0  0  0  0  0  0  0  0
   -0.7488   12.7560   -2.3424 H   0  0  0  0  0  0  0  0  0  0  0  0
    2.8294   13.0902   -2.6278 H   0  0  0  0  0  0  0  0  0  0  0  0
    0.9435   12.5317   -4.2926 H   0  0  0  0  0  0  0  0  0  0  0  0
    2.2507   11.3005   -3.8862 H   0  0  0  0  0  0  0  0  0  0  0  0
   -0.2090   10.3753   -4.0606 H   0  0  0  0  0  0  0  0  0  0  0  0
    0.1112   11.5636   -0.2160 H   0  0  0  0  0  0  0  0  0  0  0  0
    1.8629    9.0344   -0.3831 H   0  0  0  0  0  0  0  0  0  0  0  0
    1.5806   10.0739    1.0837 H   0  0  0  0  0  0  0  0  0  0  0  0
    0.2496    7.9897    1.1418 H   0  0  0  0  0  0  0  0  0  0  0  0
   -0.7717    9.4796    1.0906 H   0  0  0  0  0  0  0  0  0  0  0  0
   -1.7167    7.8471   -0.3927 H   0  0  0  0  0  0  0  0  0  0  0  0
    0.9420    7.4190   -0.9390 H   0  0  0  0  0  0  0  0  0  0  0  0
   -2.2787   10.2506   -0.0081 H   0  0  0  0  0  0  0  0  0  0  0  0
   -2.2410   11.3350   -1.4397 H   0  0  0  0  0  0  0  0  0  0  0  0
   -3.2999    9.8841   -1.4397 H   0  0  0  0  0  0  0  0  0  0  0  0
   -2.4509    7.9762   -2.6990 H   0  0  0  0  0  0  0  0  0  0  0  0
   -2.2982    9.5315   -3.5847 H   0  0  0  0  0  0  0  0  0  0  0  0
   -0.9361    8.3605   -3.5847 H   0  0  0  0  0  0  0  0  0  0  0  0
    3.7448   10.6444   -0.3368 H   0  0  0  0  0  0  0  0  0  0  0  0
    3.0279   10.0478   -1.8720 H   0  0  0  0  0  0  0  0  0  0  0  0
    4.0479   11.5264   -1.8720 H   0  0  0  0  0  0  0  0  0  0  0  0
    2.0942   12.0837    1.1111 H   0  0  0  0  0  0  0  0  0  0  0  0
    3.4125   12.9566    0.1450 H   0  0  0  0  0  0  0  0  0  0  0  0
    0.5416   13.8332    0.5665 H   0  0  0  0  0  0  0  0  0  0  0  0
    2.0593   14.6132    1.1629 H   0  0  0  0  0  0  0  0  0  0  0  0
    3.7272   15.2793   -0.2153 H   0  0  0  0  0  0  0  0  0  0  0  0
    3.6899   14.3516   -1.7530 H   0  0  0  0  0  0  0  0  0  0  0  0
    3.3049   16.1061   -1.7530 H   0  0  0  0  0  0  0  0  0  0  0  0
  1  2  1  0
  2  3  1  0
  3  4  1  0
  4  5  1  0
  5  6  1  0
  6  7  1  0
  7  8  1  0
  7  9  1  0
  2 10  1  0
 10 11  1  0
 11 12  1  0
 12 13  1  0
 13 14  1  1
 13 15  1  0
 15 16  1  0
 16 17  1  0
 17 18  2  0
 18 19  1  0
 19 20  1  0
 20 21  1  0
 21 22  1  0
 22 23  1  0
 22 24  1  0
 24 25  1  0
 24 26  1  0
 19 27  1  0
 27 28  1  6
 27 29  1  0
 29 30  1  0
 30 31  1  0
 31 32  1  6
  7  5  1  0
 31 10  1  0
 31 13  1  0
 27 15  1  0
 24 18  1  0
  1 33  1  0
  1 34  1  0
  1 35  1  0
  2 36  1  1
  3 37  1  0
  3 38  1  0
  4 39  1  0
  4 40  1  0
  5 41  1  1
  8 42  1  0
  8 43  1  0
  8 44  1  0
  9 45  1  0
  9 46  1  0
  9 47  1  0
 10 48  1  1
 11 49  1  0
 11 50  1  0
 12 51  1  0
 12 52  1  0
 14 53  1  0
 14 54  1  0
 14 55  1  0
 15 56  1  6
 16 57  1  0
 16 58  1  0
 17 59  1  0
 19 60  1  1
 20 61  1  0
 20 62  1  0
 21 63  1  0
 21 64  1  0
 22 65  1  1
 23 66  1  0
 25 67  1  0
 25 68  1  0
 25 69  1  0
 26 70  1  0
 26 71  1  0
 26 72  1  0
 28 73  1  0
 28 74  1  0
 28 75  1  0
 29 76  1  0
 29 77  1  0
 30 78  1  0
 30 79  1  0
 32 80  1  0
 32 81  1  0
 32 82  1  0
M  END
>  <meeko>  (4) 
{"is_sidechain": [false], "intermolecular_energy": 2.731, "internal_energy": -0.839}

$$$$
EPH_relaxed_0001_pdb2pqr_Repair_34_r2_0001_out
     RDKit          3D

 82 86  0  0  0  0  0  0  0  0999 V2000
   -0.8550    9.0170   -1.9880 C   0  0  0  0  0  0  0  0  0  0  0  0
   -1.1900    9.3470   -0.5300 C   0  0  2  0  0  0  0  0  0  0  0  0
   -2.7110    9.3880   -0.2790 C   0  0  0  0  0  0  0  0  0  0  0  0
   -3.4110    8.0490   -0.5230 C   0  0  0  0  0  0  0  0  0  0  0  0
   -4.8760    8.2290   -0.7840 C   0  0  2  0  0  0  0  0  0  0  0  0
   -5.7210    7.2630   -0.1460 O   0  0  0  0  0  0  0  0  0  0  0  0
   -5.7110    7.2460   -1.5830 C   0  0  0  0  0  0  0  0  0  0  0  0
   -5.1080    6.0090   -2.1720 C   0  0  0  0  0  0  0  0  0  0  0  0
   -6.9870    7.7270   -2.2000 C   0  0  0  0  0  0  0  0  0  0  0  0
   -0.5610   10.6800   -0.1410 C   0  0  1  0  0  0  0  0  0  0  0  0
    0.5380   10.5280    0.9430 C   0  0  0  0  0  0  0  0  0  0  0  0
    1.6230   11.5910    0.6330 C   0  0  0  0  0  0  0  0  0  0  0  0
    0.9640   12.5290   -0.4060 C   0  0  1  0  0  0  0  0  0  0  0  0
    0.0760   13.4980    0.4360 C   0  0  0  0  0  0  0  0  0  0  0  0
    1.9380   13.3090   -1.3480 C   0  0  2  0  0  0  0  0  0  0  0  0
    2.8880   14.2890   -0.6380 C   0  0  0  0  0  0  0  0  0  0  0  0
    2.3710   15.6810   -0.4840 C   0  0  0  0  0  0  0  0  0  0  0  0
    1.3190   16.2020   -1.1430 C   0  0  0  0  0  0  0  0  0  0  0  0
    0.5920   15.3960   -2.2270 C   0  0  1  0  0  0  0  0  0  0  0  0
    0.3700   16.2900   -3.4760 C   0  0  0  0  0  0  0  0  0  0  0  0
   -0.3440   17.5960   -3.1410 C   0  0  0  0  0  0  0  0  0  0  0  0
    0.4390   18.3960   -2.1030 C   0  0  2  0  0  0  0  0  0  0  0  0
    1.6710   18.8280   -2.6880 O   0  0  0  0  0  0  0  0  0  0  0  0
    0.7310   17.5940   -0.8040 C   0  0  0  0  0  0  0  0  0  0  0  0
   -0.5850   17.3860   -0.0140 C   0  0  0  0  0  0  0  0  0  0  0  0
    1.6460   18.4640    0.0990 C   0  0  0  0  0  0  0  0  0  0  0  0
    1.2310   13.9880   -2.5910 C   0  0  1  0  0  0  0  0  0  0  0  0
    2.3300   14.1680   -3.6830 C   0  0  0  0  0  0  0  0  0  0  0  0
    0.1220   13.0680   -3.2250 C   0  0  0  0  0  0  0  0  0  0  0  0
   -0.7270   12.2310   -2.2500 C   0  0  0  0  0  0  0  0  0  0  0  0
    0.1620   11.4770   -1.2560 C   0  0  2  0  0  0  0  0  0  0  0  0
    1.0510   10.4780   -2.0720 C   0  0  0  0  0  0  0  0  0  0  0  0
   -0.0717    8.2454   -2.0186 H   0  0  0  0  0  0  0  0  0  0  0  0
   -1.7567    8.6445   -2.4961 H   0  0  0  0  0  0  0  0  0  0  0  0
   -0.4961    9.9242   -2.4961 H   0  0  0  0  0  0  0  0  0  0  0  0
   -0.7739    8.5435    0.0956 H   0  0  0  0  0  0  0  0  0  0  0  0
   -2.8826    9.6842    0.7664 H   0  0  0  0  0  0  0  0  0  0  0  0
   -3.1356   10.1078   -0.9942 H   0  0  0  0  0  0  0  0  0  0  0  0
   -2.9511    7.5598   -1.3943 H   0  0  0  0  0  0  0  0  0  0  0  0
   -3.2968    7.4326    0.3809 H   0  0  0  0  0  0  0  0  0  0  0  0
   -4.7530    9.3199   -0.8541 H   0  0  0  0  0  0  0  0  0  0  0  0
   -4.7815    5.3392   -1.3628 H   0  0  0  0  0  0  0  0  0  0  0  0
   -5.8570    5.4959   -2.7930 H   0  0  0  0  0  0  0  0  0  0  0  0
   -4.2424    6.2829   -2.7930 H   0  0  0  0  0  0  0  0  0  0  0  0
   -7.6996    7.9956   -1.4063 H   0  0  0  0  0  0  0  0  0  0  0  0
   -6.7828    8.6099   -2.8236 H   0  0  0  0  0  0  0  0  0  0  0  0
   -7.4164    6.9290   -2.8236 H   0  0  0  0  0  0  0  0  0  0  0  0
   -1.4616   11.2211    0.1849 H   0  0  0  0  0  0  0  0  0  0  0  0
    0.1114   10.7024    1.9418 H   0  0  0  0  0  0  0  0  0  0  0  0
    0.9646    9.5141    0.9331 H   0  0  0  0  0  0  0  0  0  0  0  0
    1.8927   12.1475    1.5427 H   0  0  0  0  0  0  0  0  0  0  0  0
    2.5535   11.1404    0.2574 H   0  0  0  0  0  0  0  0  0  0  0  0
    0.2454   13.3132    1.5071 H   0  0  0  0  0  0  0  0  0  0  0  0
    0.3406   14.5387    0.1972 H   0  0  0  0  0  0  0  0  0  0  0  0
   -0.9837   13.3250    0.1972 H   0  0  0  0  0  0  0  0  0  0  0  0
    2.5781   12.5062   -1.7427 H   0  0  0  0  0  0  0  0  0  0  0  0
    3.0979   13.8915    0.3660 H   0  0  0  0  0  0  0  0  0  0  0  0
    3.7798   14.3650   -1.2775 H   0  0  0  0  0  0  0  0  0  0  0  0
    2.8938   16.3364    0.2281 H   0  0  0  0  0  0  0  0  0  0  0  0
   -0.3782   15.1114   -1.7938 H   0  0  0  0  0  0  0  0  0  0  0  0
    1.3488   16.5267   -3.9187 H   0  0  0  0  0  0  0  0  0  0  0  0
   -0.2671   15.7315   -4.1775 H   0  0  0  0  0  0  0  0  0  0  0  0
   -0.4445   18.1964   -4.0572 H   0  0  0  0  0  0  0  0  0  0  0  0
   -1.3345   17.3578   -2.7262 H   0  0  0  0  0  0  0  0  0  0  0  0
   -0.1839   19.2536   -1.8089 H   0  0  0  0  0  0  0  0  0  0  0  0
    1.4680   19.1910   -3.5670 H   0  0  0  0  0  0  0  0  0  0  0  0
   -0.3741   17.4193    1.0651 H   0  0  0  0  0  0  0  0  0  0  0  0
   -1.2980   18.1826   -0.2730 H   0  0  0  0  0  0  0  0  0  0  0  0
   -1.0175   16.4083   -0.2730 H   0  0  0  0  0  0  0  0  0  0  0  0
    1.4249   18.2538    1.1559 H   0  0  0  0  0  0  0  0  0  0  0  0
    2.6996   18.2265   -0.1095 H   0  0  0  0  0  0  0  0  0  0  0  0
    1.4619   19.5283   -0.1095 H   0  0  0  0  0  0  0  0  0  0  0  0
    3.3049   14.3277   -3.1992 H   0  0  0  0  0  0  0  0  0  0  0  0
    2.3753   13.2653   -4.3100 H   0  0  0  0  0  0  0  0  0  0  0  0
    2.0849   15.0380   -4.3100 H   0  0  0  0  0  0  0  0  0  0  0  0
   -0.5634   13.7154   -3.7917 H   0  0  0  0  0  0  0  0  0  0  0  0
    0.6705   12.3332   -3.8327 H   0  0  0  0  0  0  0  0  0  0  0  0
   -1.4009   12.8998   -1.6944 H   0  0  0  0  0  0  0  0  0  0  0  0
   -1.3051   11.4967   -2.8302 H   0  0  0  0  0  0  0  0  0  0  0  0
    1.6182    9.8406   -1.3777 H   0  0  0  0  0  0  0  0  0  0  0  0
    0.4086    9.8489   -2.7056 H   0  0  0  0  0  0  0  0  0  0  0  0
    1.7505   11.0430   -2.7056 H   0  0  0  0  0  0  0  0  0  0  0  0
  1  2  1  0
  2  3  1  0
  3  4  1  0
  4  5  1  0
  5  6  1  0
  6  7  1  0
  7  8  1  0
  7  9  1  0
  2 10  1  0
 10 11  1  0
 11 12  1  0
 12 13  1  0
 13 14  1  1
 13 15  1  0
 15 16  1  0
 16 17  1  0
 17 18  2  0
 18 19  1  0
 19 20  1  0
 20 21  1  0
 21 22  1  0
 22 23  1  0
 22 24  1  0
 24 25  1  0
 24 26  1  0
 19 27  1  0
 27 28  1  6
 27 29  1  0
 29 30  1  0
 30 31  1  0
 31 32  1  6
  7  5  1  0
 31 10  1  0
 31 13  1  0
 27 15  1  0
 24 18  1  0
  1 33  1  0
  1 34  1  0
  1 35  1  0
  2 36  1  1
  3 37  1  0
  3 38  1  0
  4 39  1  0
  4 40  1  0
  5 41  1  6
  8 42  1  0
  8 43  1  0
  8 44  1  0
  9 45  1  0
  9 46  1  0
  9 47  1  0
 10 48  1  1
 11 49  1  0
 11 50  1  0
 12 51  1  0
 12 52  1  0
 14 53  1  0
 14 54  1  0
 14 55  1  0
 15 56  1  6
 16 57  1  0
 16 58  1  0
 17 59  1  0
 19 60  1  1
 20 61  1  0
 20 62  1  0
 21 63  1  0
 21 64  1  0
 22 65  1  1
 23 66  1  0
 25 67  1  0
 25 68  1  0
 25 69  1  0
 26 70  1  0
 26 71  1  0
 26 72  1  0
 28 73  1  0
 28 74  1  0
 28 75  1  0
 29 76  1  0
 29 77  1  0
 30 78  1  0
 30 79  1  0
 32 80  1  0
 32 81  1  0
 32 82  1  0
M  END
>  <meeko>  (5) 
{"is_sidechain": [false], "intermolecular_energy": 2.731, "internal_energy": -0.839}

$$$$
EPH_relaxed_0001_pdb2pqr_Repair_34_r2_0001_out
     RDKit          3D

 82 86  0  0  0  0  0  0  0  0999 V2000
    3.7340   17.7460    0.5910 C   0  0  0  0  0  0  0  0  0  0  0  0
    2.7900   18.0410   -0.5780 C   0  0  2  0  0  0  0  0  0  0  0  0
    2.1080   19.4170   -0.4410 C   0  0  0  0  0  0  0  0  0  0  0  0
    1.2150   19.5410    0.7970 C   0  0  0  0  0  0  0  0  0  0  0  0
   -0.1260   20.1170    0.4570 C   0  0  2  0  0  0  0  0  0  0  0  0
   -1.0540   20.1580    1.5490 O   0  0  0  0  0  0  0  0  0  0  0  0
   -1.4080   19.3050    0.4480 C   0  0  0  0  0  0  0  0  0  0  0  0
   -1.4100   17.8470    0.7830 C   0  0  0  0  0  0  0  0  0  0  0  0
   -2.5670   19.8080   -0.3550 C   0  0  0  0  0  0  0  0  0  0  0  0
    1.7360   16.9460   -0.6850 C   0  0  1  0  0  0  0  0  0  0  0  0
    0.4530   17.4200   -1.4190 C   0  0  0  0  0  0  0  0  0  0  0  0
   -0.0790   16.2050   -2.2200 C   0  0  0  0  0  0  0  0  0  0  0  0
    0.7110   14.9960   -1.6670 C   0  0  1  0  0  0  0  0  0  0  0  0
   -0.0240   14.6070   -0.3460 C   0  0  0  0  0  0  0  0  0  0  0  0
    0.8620   13.7710   -2.6260 C   0  0  2  0  0  0  0  0  0  0  0  0
   -0.4590   13.0910   -3.0290 C   0  0  0  0  0  0  0  0  0  0  0  0
   -0.9030   11.9800   -2.1360 C   0  0  0  0  0  0  0  0  0  0  0  0
   -0.1350   11.3560   -1.2230 C   0  0  0  0  0  0  0  0  0  0  0  0
    1.3560   11.6900   -1.0870 C   0  0  1  0  0  0  0  0  0  0  0  0
    2.1760   10.3760   -1.0080 C   0  0  0  0  0  0  0  0  0  0  0  0
    1.6840    9.4450    0.0960 C   0  0  0  0  0  0  0  0  0  0  0  0
    0.2130    9.0890   -0.1070 C   0  0  2  0  0  0  0  0  0  0  0  0
    0.0890    8.2980   -1.2920 O   0  0  0  0  0  0  0  0  0  0  0  0
   -0.7100   10.3350   -0.2110 C   0  0  0  0  0  0  0  0  0  0  0  0
   -0.8110   11.0250    1.1720 C   0  0  0  0  0  0  0  0  0  0  0  0
   -2.1420    9.8420   -0.5540 C   0  0  0  0  0  0  0  0  0  0  0  0
    1.9380   12.7100   -2.1580 C   0  0  1  0  0  0  0  0  0  0  0  0
    2.3880   11.9390   -3.4370 C   0  0  0  0  0  0  0  0  0  0  0  0
    3.2320   13.3890   -1.5710 C   0  0  0  0  0  0  0  0  0  0  0  0
    3.0270   14.6640   -0.7310 C   0  0  0  0  0  0  0  0  0  0  0  0
    2.1210   15.6610   -1.4600 C   0  0  2  0  0  0  0  0  0  0  0  0
    2.8450   16.0870   -2.7820 C   0  0  0  0  0  0  0  0  0  0  0  0
    3.2043   17.9115    1.5408 H   0  0  0  0  0  0  0  0  0  0  0  0
    4.0700   16.7000    0.5360 H   0  0  0  0  0  0  0  0  0  0  0  0
    4.6058   18.4145    0.5360 H   0  0  0  0  0  0  0  0  0  0  0  0
    3.3970   18.0632   -1.4951 H   0  0  0  0  0  0  0  0  0  0  0  0
    2.8903   20.1882   -0.3835 H   0  0  0  0  0  0  0  0  0  0  0  0
    1.4584   19.5427   -1.3198 H   0  0  0  0  0  0  0  0  0  0  0  0
    1.0733   18.5424    1.2359 H   0  0  0  0  0  0  0  0  0  0  0  0
    1.7086   20.2181    1.5097 H   0  0  0  0  0  0  0  0  0  0  0  0
    0.3256   20.7907   -0.2861 H   0  0  0  0  0  0  0  0  0  0  0  0
   -1.4102   17.7219    1.8759 H   0  0  0  0  0  0  0  0  0  0  0  0
   -2.3088   17.3748    0.3597 H   0  0  0  0  0  0  0  0  0  0  0  0
   -0.5125   17.3723    0.3597 H   0  0  0  0  0  0  0  0  0  0  0  0
   -3.3612   20.1527    0.3236 H   0  0  0  0  0  0  0  0  0  0  0  0
   -2.2382   20.6444   -0.9893 H   0  0  0  0  0  0  0  0  0  0  0  0
   -2.9533   18.9966   -0.9893 H   0  0  0  0  0  0  0  0  0  0  0  0
    1.6015   16.7160    0.3822 H   0  0  0  0  0  0  0  0  0  0  0  0
   -0.3002   17.7516   -0.6892 H   0  0  0  0  0  0  0  0  0  0  0  0
    0.6699   18.2678   -2.0854 H   0  0  0  0  0  0  0  0  0  0  0  0
   -1.1582   16.0726   -2.0533 H   0  0  0  0  0  0  0  0  0  0  0  0
    0.0552   16.3297   -3.3046 H   0  0  0  0  0  0  0  0  0  0  0  0
    0.5791   14.9262    0.5168 H   0  0  0  0  0  0  0  0  0  0  0  0
   -1.0046   15.1042   -0.3119 H   0  0  0  0  0  0  0  0  0  0  0  0
   -0.1644   13.5165   -0.3119 H   0  0  0  0  0  0  0  0  0  0  0  0
    1.2510   14.2367   -3.5435 H   0  0  0  0  0  0  0  0  0  0  0  0
   -1.2477   13.8577   -3.0354 H   0  0  0  0  0  0  0  0  0  0  0  0
   -0.2787   12.6359   -4.0141 H   0  0  0  0  0  0  0  0  0  0  0  0
   -1.9456   11.6428   -2.2321 H   0  0  0  0  0  0  0  0  0  0  0  0
    1.4579   12.2499   -0.1457 H   0  0  0  0  0  0  0  0  0  0  0  0
    2.0968    9.8524   -1.9722 H   0  0  0  0  0  0  0  0  0  0  0  0
    3.2174   10.6455   -0.7781 H   0  0  0  0  0  0  0  0  0  0  0  0
    2.2830    8.5225    0.0827 H   0  0  0  0  0  0  0  0  0  0  0  0
    1.7912    9.9587    1.0628 H   0  0  0  0  0  0  0  0  0  0  0  0
   -0.1160    8.5284    0.7804 H   0  0  0  0  0  0  0  0  0  0  0  0
   -0.2120    7.4130   -1.0260 H   0  0  0  0  0  0  0  0  0  0  0  0
   -0.7008   10.2721    1.9663 H   0  0  0  0  0  0  0  0  0  0  0  0
   -0.0133   11.7766    1.2659 H   0  0  0  0  0  0  0  0  0  0  0  0
   -1.7906   11.5164    1.2659 H   0  0  0  0  0  0  0  0  0  0  0  0
   -2.6967    9.6510    0.3765 H   0  0  0  0  0  0  0  0  0  0  0  0
   -2.6642   10.6121   -1.1407 H   0  0  0  0  0  0  0  0  0  0  0  0
   -2.0795    8.9136   -1.1407 H   0  0  0  0  0  0  0  0  0  0  0  0
    2.9225   11.0233   -3.1441 H   0  0  0  0  0  0  0  0  0  0  0  0
    1.5038   11.6723   -4.0345 H   0  0  0  0  0  0  0  0  0  0  0  0
    3.0551   12.5777   -4.0345 H   0  0  0  0  0  0  0  0  0  0  0  0
    3.7367   12.6481   -0.9336 H   0  0  0  0  0  0  0  0  0  0  0  0
    3.8108   13.7124   -2.4487 H   0  0  0  0  0  0  0  0  0  0  0  0
    2.5637   14.3919    0.2288 H   0  0  0  0  0  0  0  0  0  0  0  0
    4.0066   15.1363   -0.5655 H   0  0  0  0  0  0  0  0  0  0  0  0
    3.7689   16.6306   -2.5353 H   0  0  0  0  0  0  0  0  0  0  0  0
    3.0927   15.1907   -3.3696 H   0  0  0  0  0  0  0  0  0  0  0  0
    2.1818   16.7389   -3.3696 H   0  0  0  0  0  0  0  0  0  0  0  0
  1  2  1  0
  2  3  1  0
  3  4  1  0
  4  5  1  0
  5  6  1  0
  6  7  1  0
  7  8  1  0
  7  9  1  0
  2 10  1  0
 10 11  1  0
 11 12  1  0
 12 13  1  0
 13 14  1  1
 13 15  1  0
 15 16  1  0
 16 17  1  0
 17 18  2  0
 18 19  1  0
 19 20  1  0
 20 21  1  0
 21 22  1  0
 22 23  1  0
 22 24  1  0
 24 25  1  0
 24 26  1  0
 19 27  1  0
 27 28  1  6
 27 29  1  0
 29 30  1  0
 30 31  1  0
 31 32  1  6
  7  5  1  0
 31 10  1  0
 31 13  1  0
 27 15  1  0
 24 18  1  0
  1 33  1  0
  1 34  1  0
  1 35  1  0
  2 36  1  6
  3 37  1  0
  3 38  1  0
  4 39  1  0
  4 40  1  0
  5 41  1  6
  8 42  1  0
  8 43  1  0
  8 44  1  0
  9 45  1  0
  9 46  1  0
  9 47  1  0
 10 48  1  1
 11 49  1  0
 11 50  1  0
 12 51  1  0
 12 52  1  0
 14 53  1  0
 14 54  1  0
 14 55  1  0
 15 56  1  6
 16 57  1  0
 16 58  1  0
 17 59  1  0
 19 60  1  1
 20 61  1  0
 20 62  1  0
 21 63  1  0
 21 64  1  0
 22 65  1  1
 23 66  1  0
 25 67  1  0
 25 68  1  0
 25 69  1  0
 26 70  1  0
 26 71  1  0
 26 72  1  0
 28 73  1  0
 28 74  1  0
 28 75  1  0
 29 76  1  0
 29 77  1  0
 30 78  1  0
 30 79  1  0
 32 80  1  0
 32 81  1  0
 32 82  1  0
M  END
>  <meeko>  (6) 
{"is_sidechain": [false], "intermolecular_energy": 2.731, "internal_energy": -0.839}

$$$$
EPH_relaxed_0001_pdb2pqr_Repair_34_r2_0001_out
     RDKit          3D

 82 86  0  0  0  0  0  0  0  0999 V2000
    3.7320   17.4100    0.6940 C   0  0  0  0  0  0  0  0  0  0  0  0
    3.3780   16.7330   -0.6330 C   0  0  2  0  0  0  0  0  0  0  0  0
    3.0530   17.7580   -1.7390 C   0  0  0  0  0  0  0  0  0  0  0  0
    2.3760   19.0290   -1.2210 C   0  0  0  0  0  0  0  0  0  0  0  0
    0.8830   18.9370   -1.3070 C   0  0  2  0  0  0  0  0  0  0  0  0
    0.2140   20.1930   -1.4820 O   0  0  0  0  0  0  0  0  0  0  0  0
   -0.0530   19.4990   -0.2530 C   0  0  0  0  0  0  0  0  0  0  0  0
    0.4710   20.1940    0.9640 C   0  0  0  0  0  0  0  0  0  0  0  0
   -1.4410   18.9470   -0.1610 C   0  0  0  0  0  0  0  0  0  0  0  0
    2.1980   15.7890   -0.4360 C   0  0  1  0  0  0  0  0  0  0  0  0
    0.8510   16.5420   -0.2680 C   0  0  0  0  0  0  0  0  0  0  0  0
   -0.2380   15.6670   -0.9410 C   0  0  0  0  0  0  0  0  0  0  0  0
    0.4500   14.3020   -1.1770 C   0  0  1  0  0  0  0  0  0  0  0  0
    0.3680   13.5680    0.1980 C   0  0  0  0  0  0  0  0  0  0  0  0
   -0.1320   13.4260   -2.3340 C   0  0  2  0  0  0  0  0  0  0  0  0
   -1.5930   12.9830   -2.1460 C   0  0  0  0  0  0  0  0  0  0  0  0
   -1.7800   11.6790   -1.4430 C   0  0  0  0  0  0  0  0  0  0  0  0
   -0.8190   10.7600   -1.2340 C   0  0  0  0  0  0  0  0  0  0  0  0
    0.5900   10.9460   -1.8110 C   0  0  1  0  0  0  0  0  0  0  0  0
    1.0550    9.6260   -2.4780 C   0  0  0  0  0  0  0  0  0  0  0  0
    0.9650    8.4300   -1.5350 C   0  0  0  0  0  0  0  0  0  0  0  0
   -0.4630    8.2420   -1.0280 C   0  0  2  0  0  0  0  0  0  0  0  0
   -1.2960    7.8640   -2.1280 O   0  0  0  0  0  0  0  0  0  0  0  0
   -1.0420    9.5120   -0.3440 C   0  0  0  0  0  0  0  0  0  0  0  0
   -0.3280    9.7460    1.0100 C   0  0  0  0  0  0  0  0  0  0  0  0
   -2.5320    9.2340   -0.0060 C   0  0  0  0  0  0  0  0  0  0  0  0
    0.7910   12.2100   -2.7540 C   0  0  1  0  0  0  0  0  0  0  0  0
    0.4080   11.8460   -4.2210 C   0  0  0  0  0  0  0  0  0  0  0  0
    2.3170   12.5970   -2.7760 C   0  0  0  0  0  0  0  0  0  0  0  0
    2.8060   13.5600   -1.6780 C   0  0  0  0  0  0  0  0  0  0  0  0
    1.8920   14.7850   -1.5760 C   0  0  2  0  0  0  0  0  0  0  0  0
    1.9710   15.5560   -2.9380 C   0  0  0  0  0  0  0  0  0  0  0  0
    3.4003   16.7756    1.5292 H   0  0  0  0  0  0  0  0  0  0  0  0
    4.8209   17.5542    0.7531 H   0  0  0  0  0  0  0  0  0  0  0  0
    3.2291   18.3865    0.7531 H   0  0  0  0  0  0  0  0  0  0  0  0
    4.2602   16.1628   -0.9594 H   0  0  0  0  0  0  0  0  0  0  0  0
    3.9924   18.0427   -2.2354 H   0  0  0  0  0  0  0  0  0  0  0  0
    2.3442   17.2742   -2.4271 H   0  0  0  0  0  0  0  0  0  0  0  0
    2.6636   19.1831   -0.1705 H   0  0  0  0  0  0  0  0  0  0  0  0
    2.7040   19.8715   -1.8476 H   0  0  0  0  0  0  0  0  0  0  0  0
    0.9488   17.9477   -1.7835 H   0  0  0  0  0  0  0  0  0  0  0  0
    0.0916   19.6908    1.8655 H   0  0  0  0  0  0  0  0  0  0  0  0
    1.5705   20.1604    0.9606 H   0  0  0  0  0  0  0  0  0  0  0  0
    0.1362   21.2418    0.9606 H   0  0  0  0  0  0  0  0  0  0  0  0
   -1.7218   18.8353    0.8967 H   0  0  0  0  0  0  0  0  0  0  0  0
   -2.1426   19.6345   -0.6560 H   0  0  0  0  0  0  0  0  0  0  0  0
   -1.4788   17.9654   -0.6560 H   0  0  0  0  0  0  0  0  0  0  0  0
    2.5419   15.2492    0.4586 H   0  0  0  0  0  0  0  0  0  0  0  0
    0.6227   16.6762    0.7996 H   0  0  0  0  0  0  0  0  0  0  0  0
    0.8963   17.5398   -0.7289 H   0  0  0  0  0  0  0  0  0  0  0  0
   -1.1091   15.5536   -0.2790 H   0  0  0  0  0  0  0  0  0  0  0  0
   -0.6133   16.1122   -1.8743 H   0  0  0  0  0  0  0  0  0  0  0  0
    0.4502   14.3036    1.0118 H   0  0  0  0  0  0  0  0  0  0  0  0
   -0.5946   13.0413    0.2756 H   0  0  0  0  0  0  0  0  0  0  0  0
    1.1906   12.8419    0.2756 H   0  0  0  0  0  0  0  0  0  0  0  0
   -0.1396   14.1288   -3.1802 H   0  0  0  0  0  0  0  0  0  0  0  0
   -2.1113   13.7597   -1.5645 H   0  0  0  0  0  0  0  0  0  0  0  0
   -2.0007   12.8436   -3.1581 H   0  0  0  0  0  0  0  0  0  0  0  0
   -2.7871   11.4503   -1.0643 H   0  0  0  0  0  0  0  0  0  0  0  0
    1.2405   11.1807   -0.9556 H   0  0  0  0  0  0  0  0  0  0  0  0
    0.4204    9.4317   -3.3553 H   0  0  0  0  0  0  0  0  0  0  0  0
    2.1108    9.7491   -2.7610 H   0  0  0  0  0  0  0  0  0  0  0  0
    1.2786    7.5231   -2.0727 H   0  0  0  0  0  0  0  0  0  0  0  0
    1.6230    8.6122   -0.6725 H   0  0  0  0  0  0  0  0  0  0  0  0
   -0.4402    7.4556   -0.2592 H   0  0  0  0  0  0  0  0  0  0  0  0
   -1.2020    8.5450   -2.8160 H   0  0  0  0  0  0  0  0  0  0  0  0
   -1.0207    9.5190    1.8338 H   0  0  0  0  0  0  0  0  0  0  0  0
    0.5516    9.0891    1.0790 H   0  0  0  0  0  0  0  0  0  0  0  0
   -0.0078   10.7961    1.0790 H   0  0  0  0  0  0  0  0  0  0  0  0
   -2.6619    9.2098    1.0860 H   0  0  0  0  0  0  0  0  0  0  0  0
   -3.1595   10.0306   -0.4323 H   0  0  0  0  0  0  0  0  0  0  0  0
   -2.8300    8.2648   -0.4323 H   0  0  0  0  0  0  0  0  0  0  0  0
   -0.3893   11.0882   -4.2145 H   0  0  0  0  0  0  0  0  0  0  0  0
    0.0528   12.7475   -4.7417 H   0  0  0  0  0  0  0  0  0  0  0  0
    1.2903   11.4455   -4.7417 H   0  0  0  0  0  0  0  0  0  0  0  0
    2.8973   11.6670   -2.6853 H   0  0  0  0  0  0  0  0  0  0  0  0
    2.4619   13.1411   -3.7209 H   0  0  0  0  0  0  0  0  0  0  0  0
    2.8100   13.0327   -0.7126 H   0  0  0  0  0  0  0  0  0  0  0  0
    3.8201   13.8996   -1.9356 H   0  0  0  0  0  0  0  0  0  0  0  0
    2.0814   16.6331   -2.7438 H   0  0  0  0  0  0  0  0  0  0  0  0
    2.8370   15.1965   -3.5131 H   0  0  0  0  0  0  0  0  0  0  0  0
    1.0501   15.3796   -3.5131 H   0  0  0  0  0  0  0  0  0  0  0  0
  1  2  1  0
  2  3  1  0
  3  4  1  0
  4  5  1  0
  5  6  1  0
  6  7  1  0
  7  8  1  0
  7  9  1  0
  2 10  1  0
 10 11  1  0
 11 12  1  0
 12 13  1  0
 13 14  1  1
 13 15  1  0
 15 16  1  0
 16 17  1  0
 17 18  2  0
 18 19  1  0
 19 20  1  0
 20 21  1  0
 21 22  1  0
 22 23  1  0
 22 24  1  0
 24 25  1  0
 24 26  1  0
 19 27  1  0
 27 28  1  6
 27 29  1  0
 29 30  1  0
 30 31  1  0
 31 32  1  6
  7  5  1  0
 31 10  1  0
 31 13  1  0
 27 15  1  0
 24 18  1  0
  1 33  1  0
  1 34  1  0
  1 35  1  0
  2 36  1  6
  3 37  1  0
  3 38  1  0
  4 39  1  0
  4 40  1  0
  5 41  1  6
  8 42  1  0
  8 43  1  0
  8 44  1  0
  9 45  1  0
  9 46  1  0
  9 47  1  0
 10 48  1  1
 11 49  1  0
 11 50  1  0
 12 51  1  0
 12 52  1  0
 14 53  1  0
 14 54  1  0
 14 55  1  0
 15 56  1  6
 16 57  1  0
 16 58  1  0
 17 59  1  0
 19 60  1  1
 20 61  1  0
 20 62  1  0
 21 63  1  0
 21 64  1  0
 22 65  1  1
 23 66  1  0
 25 67  1  0
 25 68  1  0
 25 69  1  0
 26 70  1  0
 26 71  1  0
 26 72  1  0
 28 73  1  0
 28 74  1  0
 28 75  1  0
 29 76  1  0
 29 77  1  0
 30 78  1  0
 30 79  1  0
 32 80  1  0
 32 81  1  0
 32 82  1  0
M  END
>  <meeko>  (7) 
{"is_sidechain": [false], "intermolecular_energy": 2.731, "internal_energy": -0.839}

$$$$
EPH_relaxed_0001_pdb2pqr_Repair_34_r2_0001_out
     RDKit          3D

 82 86  0  0  0  0  0  0  0  0999 V2000
   -5.2090    5.8290   -1.5630 C   0  0  0  0  0  0  0  0  0  0  0  0
   -5.4500    7.3270   -1.7700 C   0  0  2  0  0  0  0  0  0  0  0  0
   -5.1780    8.1410   -0.4890 C   0  0  0  0  0  0  0  0  0  0  0  0
   -4.1940    9.2960   -0.6910 C   0  0  0  0  0  0  0  0  0  0  0  0
   -2.7920    8.8970   -0.3460 C   0  0  2  0  0  0  0  0  0  0  0  0
   -2.1980    9.6510    0.7180 O   0  0  0  0  0  0  0  0  0  0  0  0
   -1.5870    9.7900   -0.5740 C   0  0  0  0  0  0  0  0  0  0  0  0
   -1.7300   11.1550   -1.1720 C   0  0  0  0  0  0  0  0  0  0  0  0
   -0.2340    9.1570   -0.6730 C   0  0  0  0  0  0  0  0  0  0  0  0
   -6.8800    7.5620   -2.2430 C   0  0  1  0  0  0  0  0  0  0  0  0
   -7.1800    6.8760   -3.6020 C   0  0  0  0  0  0  0  0  0  0  0  0
   -8.6580    6.4090   -3.5500 C   0  0  0  0  0  0  0  0  0  0  0  0
   -9.2510    7.1270   -2.3150 C   0  0  1  0  0  0  0  0  0  0  0  0
   -9.5910    8.5660   -2.8130 C   0  0  0  0  0  0  0  0  0  0  0  0
  -10.4850    6.4410   -1.6440 C   0  0  2  0  0  0  0  0  0  0  0  0
  -11.7330    6.3260   -2.5370 C   0  0  0  0  0  0  0  0  0  0  0  0
  -12.6820    7.4750   -2.4570 C   0  0  0  0  0  0  0  0  0  0  0  0
  -12.6890    8.4190   -1.4970 C   0  0  0  0  0  0  0  0  0  0  0  0
  -11.7340    8.3320   -0.3000 C   0  0  1  0  0  0  0  0  0  0  0  0
  -12.5180    8.6070    1.0100 C   0  0  0  0  0  0  0  0  0  0  0  0
  -13.2810    9.9280    0.9680 C   0  0  0  0  0  0  0  0  0  0  0  0
  -14.2620    9.9540   -0.2020 C   0  0  2  0  0  0  0  0  0  0  0  0
  -15.2860    8.9830    0.0340 O   0  0  0  0  0  0  0  0  0  0  0  0
  -13.5870    9.6780   -1.5740 C   0  0  0  0  0  0  0  0  0  0  0  0
  -12.7000   10.8850   -1.9690 C   0  0  0  0  0  0  0  0  0  0  0  0
  -14.7050    9.5920   -2.6480 C   0  0  0  0  0  0  0  0  0  0  0  0
  -10.8480    7.0150   -0.2150 C   0  0  1  0  0  0  0  0  0  0  0  0
  -11.6330    5.8920    0.5300 C   0  0  0  0  0  0  0  0  0  0  0  0
   -9.5680    7.3120    0.6530 C   0  0  0  0  0  0  0  0  0  0  0  0
   -8.3410    7.8760   -0.0880 C   0  0  0  0  0  0  0  0  0  0  0  0
   -8.0240    7.0450   -1.3350 C   0  0  2  0  0  0  0  0  0  0  0  0
   -7.6560    5.5970   -0.8640 C   0  0  0  0  0  0  0  0  0  0  0  0
   -5.1736    5.6087   -0.4859 H   0  0  0  0  0  0  0  0  0  0  0  0
   -6.0269    5.2584   -2.0272 H   0  0  0  0  0  0  0  0  0  0  0  0
   -4.2534    5.5438   -2.0272 H   0  0  0  0  0  0  0  0  0  0  0  0
   -4.7425    7.6737   -2.5376 H   0  0  0  0  0  0  0  0  0  0  0  0
   -6.1321    8.5561   -0.1322 H   0  0  0  0  0  0  0  0  0  0  0  0
   -4.7214    7.4532    0.2379 H   0  0  0  0  0  0  0  0  0  0  0  0
   -4.2258    9.6112   -1.7444 H   0  0  0  0  0  0  0  0  0  0  0  0
   -4.4900   10.1190   -0.0238 H   0  0  0  0  0  0  0  0  0  0  0  0
   -2.9985    7.8518   -0.6199 H   0  0  0  0  0  0  0  0  0  0  0  0
   -1.8082   11.9013   -0.3677 H   0  0  0  0  0  0  0  0  0  0  0  0
   -0.8502   11.3769   -1.7938 H   0  0  0  0  0  0  0  0  0  0  0  0
   -2.6367   11.1897   -1.7938 H   0  0  0  0  0  0  0  0  0  0  0  0
    0.1595    8.9729    0.3376 H   0  0  0  0  0  0  0  0  0  0  0  0
   -0.3143    8.2030   -1.2147 H   0  0  0  0  0  0  0  0  0  0  0  0
    0.4469    9.8300   -1.2147 H   0  0  0  0  0  0  0  0  0  0  0  0
   -6.8875    8.6617   -2.2672 H   0  0  0  0  0  0  0  0  0  0  0  0
   -7.0370    7.5899   -4.4266 H   0  0  0  0  0  0  0  0  0  0  0  0
   -6.5028    6.0263   -3.7739 H   0  0  0  0  0  0  0  0  0  0  0  0
   -9.1914    6.7059   -4.4650 H   0  0  0  0  0  0  0  0  0  0  0  0
   -8.7475    5.3149   -3.4793 H   0  0  0  0  0  0  0  0  0  0  0  0
   -9.7470    9.2263   -1.9472 H   0  0  0  0  0  0  0  0  0  0  0  0
   -8.7588    8.9496   -3.4215 H   0  0  0  0  0  0  0  0  0  0  0  0
  -10.5069    8.5366   -3.4215 H   0  0  0  0  0  0  0  0  0  0  0  0
  -10.1294    5.4110   -1.4933 H   0  0  0  0  0  0  0  0  0  0  0  0
  -11.3971    6.2346   -3.5805 H   0  0  0  0  0  0  0  0  0  0  0  0
  -12.2871    5.4478   -2.1741 H   0  0  0  0  0  0  0  0  0  0  0  0
  -13.4402    7.5577   -3.2497 H   0  0  0  0  0  0  0  0  0  0  0  0
  -10.9799    9.1176   -0.4553 H   0  0  0  0  0  0  0  0  0  0  0  0
  -13.2365    7.7895    1.1693 H   0  0  0  0  0  0  0  0  0  0  0  0
  -11.7875    8.6689    1.8300 H   0  0  0  0  0  0  0  0  0  0  0  0
  -13.8385   10.0519    1.9082 H   0  0  0  0  0  0  0  0  0  0  0  0
  -12.5583   10.7472    0.8388 H   0  0  0  0  0  0  0  0  0  0  0  0
  -14.6818   10.9692   -0.2579 H   0  0  0  0  0  0  0  0  0  0  0  0
  -14.9370    8.1160   -0.2340 H   0  0  0  0  0  0  0  0  0  0  0  0
  -12.3334   11.3838   -1.0597 H   0  0  0  0  0  0  0  0  0  0  0  0
  -11.8446   10.5323   -2.5639 H   0  0  0  0  0  0  0  0  0  0  0  0
  -13.2921   11.5960   -2.5639 H   0  0  0  0  0  0  0  0  0  0  0  0
  -15.6843    9.5167   -2.1527 H   0  0  0  0  0  0  0  0  0  0  0  0
  -14.6803   10.4947   -3.2761 H   0  0  0  0  0  0  0  0  0  0  0  0
  -14.5425    8.7037   -3.2761 H   0  0  0  0  0  0  0  0  0  0  0  0
  -11.5337    6.0340    1.6163 H   0  0  0  0  0  0  0  0  0  0  0  0
  -12.6956    5.9395    0.2496 H   0  0  0  0  0  0  0  0  0  0  0  0
  -11.2233    4.9104    0.2496 H   0  0  0  0  0  0  0  0  0  0  0  0
   -9.8526    8.0398    1.4272 H   0  0  0  0  0  0  0  0  0  0  0  0
   -9.2470    6.3323    1.0365 H   0  0  0  0  0  0  0  0  0  0  0  0
   -8.5483    8.9132   -0.3899 H   0  0  0  0  0  0  0  0  0  0  0  0
   -7.4745    7.8379    0.5886 H   0  0  0  0  0  0  0  0  0  0  0  0
   -7.6467    5.5603    0.2353 H   0  0  0  0  0  0  0  0  0  0  0  0
   -8.4019    4.8857   -1.2483 H   0  0  0  0  0  0  0  0  0  0  0  0
   -6.6610    5.3282   -1.2483 H   0  0  0  0  0  0  0  0  0  0  0  0
  1  2  1  0
  2  3  1  0
  3  4  1  0
  4  5  1  0
  5  6  1  0
  6  7  1  0
  7  8  1  0
  7  9  1  0
  2 10  1  0
 10 11  1  0
 11 12  1  0
 12 13  1  0
 13 14  1  6
 13 15  1  0
 15 16  1  0
 16 17  1  0
 17 18  2  0
 18 19  1  0
 19 20  1  0
 20 21  1  0
 21 22  1  0
 22 23  1  0
 22 24  1  0
 24 25  1  0
 24 26  1  0
 19 27  1  0
 27 28  1  1
 27 29  1  0
 29 30  1  0
 30 31  1  0
 31 32  1  1
  7  5  1  0
 31 10  1  0
 31 13  1  0
 27 15  1  0
 24 18  1  0
  1 33  1  0
  1 34  1  0
  1 35  1  0
  2 36  1  6
  3 37  1  0
  3 38  1  0
  4 39  1  0
  4 40  1  0
  5 41  1  1
  8 42  1  0
  8 43  1  0
  8 44  1  0
  9 45  1  0
  9 46  1  0
  9 47  1  0
 10 48  1  6
 11 49  1  0
 11 50  1  0
 12 51  1  0
 12 52  1  0
 14 53  1  0
 14 54  1  0
 14 55  1  0
 15 56  1  1
 16 57  1  0
 16 58  1  0
 17 59  1  0
 19 60  1  6
 20 61  1  0
 20 62  1  0
 21 63  1  0
 21 64  1  0
 22 65  1  6
 23 66  1  0
 25 67  1  0
 25 68  1  0
 25 69  1  0
 26 70  1  0
 26 71  1  0
 26 72  1  0
 28 73  1  0
 28 74  1  0
 28 75  1  0
 29 76  1  0
 29 77  1  0
 30 78  1  0
 30 79  1  0
 32 80  1  0
 32 81  1  0
 32 82  1  0
M  END
>  <meeko>  (8) 
{"is_sidechain": [false], "intermolecular_energy": 2.731, "internal_energy": -0.839}

$$$$
EPH_relaxed_0001_pdb2pqr_Repair_34_r2_0001_out
     RDKit          3D

 82 86  0  0  0  0  0  0  0  0999 V2000
    0.4180    8.8740   -2.5190 C   0  0  0  0  0  0  0  0  0  0  0  0
    1.1820   10.0340   -3.1640 C   0  0  2  0  0  0  0  0  0  0  0  0
    2.6740   10.0340   -2.7770 C   0  0  0  0  0  0  0  0  0  0  0  0
    3.5900   10.6220   -3.8540 C   0  0  0  0  0  0  0  0  0  0  0  0
    4.9830   10.8320   -3.3430 C   0  0  2  0  0  0  0  0  0  0  0  0
    5.5990   12.0540   -3.7690 O   0  0  0  0  0  0  0  0  0  0  0  0
    6.2090   10.8410   -4.2360 C   0  0  0  0  0  0  0  0  0  0  0  0
    6.0990   10.6350   -5.7150 C   0  0  0  0  0  0  0  0  0  0  0  0
    7.5450   10.5610   -3.6210 C   0  0  0  0  0  0  0  0  0  0  0  0
    0.5420   11.3600   -2.7710 C   0  0  1  0  0  0  0  0  0  0  0  0
   -0.8350   11.1770   -2.0780 C   0  0  0  0  0  0  0  0  0  0  0  0
   -0.9510   12.2960   -1.0120 C   0  0  0  0  0  0  0  0  0  0  0  0
    0.1980   13.2760   -1.3470 C   0  0  1  0  0  0  0  0  0  0  0  0
   -0.3530   14.1560   -2.5130 C   0  0  0  0  0  0  0  0  0  0  0  0
    0.7280   14.1500   -0.1640 C   0  0  2  0  0  0  0  0  0  0  0  0
   -0.3030   15.1150    0.4470 C   0  0  0  0  0  0  0  0  0  0  0  0
   -0.3480   16.4740   -0.1680 C   0  0  0  0  0  0  0  0  0  0  0  0
    0.5930   16.9990   -0.9740 C   0  0  0  0  0  0  0  0  0  0  0  0
    1.8950   16.2410   -1.2630 C   0  0  1  0  0  0  0  0  0  0  0  0
    3.1000   17.2060   -1.1150 C   0  0  0  0  0  0  0  0  0  0  0  0
    2.9540   18.4610   -1.9700 C   0  0  0  0  0  0  0  0  0  0  0  0
    1.6780   19.2190   -1.6130 C   0  0  2  0  0  0  0  0  0  0  0  0
    1.8030   19.7320   -0.2830 O   0  0  0  0  0  0  0  0  0  0  0  0
    0.3970   18.3440   -1.7160 C   0  0  0  0  0  0  0  0  0  0  0  0
    0.0940   18.0380   -3.2040 C   0  0  0  0  0  0  0  0  0  0  0  0
   -0.7990   19.1860   -1.1950 C   0  0  0  0  0  0  0  0  0  0  0  0
    2.0980   14.8830   -0.4630 C   0  0  1  0  0  0  0  0  0  0  0  0
    2.7590   15.1730    0.9190 C   0  0  0  0  0  0  0  0  0  0  0  0
    3.1070   13.9670   -1.2530 C   0  0  0  0  0  0  0  0  0  0  0  0
    2.5070   13.0390   -2.3270 C   0  0  0  0  0  0  0  0  0  0  0  0
    1.3160   12.2540   -1.7700 C   0  0  2  0  0  0  0  0  0  0  0  0
    1.8430   11.3430   -0.6090 C   0  0  0  0  0  0  0  0  0  0  0  0
    0.4753    8.9611   -1.4239 H   0  0  0  0  0  0  0  0  0  0  0  0
   -0.6351    8.9079   -2.8349 H   0  0  0  0  0  0  0  0  0  0  0  0
    0.8650    7.9199   -2.8349 H   0  0  0  0  0  0  0  0  0  0  0  0
    1.1244    9.9019   -4.2545 H   0  0  0  0  0  0  0  0  0  0  0  0
    2.7942   10.6262   -1.8579 H   0  0  0  0  0  0  0  0  0  0  0  0
    2.9707    8.9834   -2.6416 H   0  0  0  0  0  0  0  0  0  0  0  0
    3.6244    9.9307   -4.7089 H   0  0  0  0  0  0  0  0  0  0  0  0
    3.1837   11.5994   -4.1533 H   0  0  0  0  0  0  0  0  0  0  0  0
    4.7497   10.2888   -2.4153 H   0  0  0  0  0  0  0  0  0  0  0  0
    5.5895    9.6809   -5.9154 H   0  0  0  0  0  0  0  0  0  0  0  0
    5.5211   11.4594   -6.1581 H   0  0  0  0  0  0  0  0  0  0  0  0
    7.1056   10.6133   -6.1581 H   0  0  0  0  0  0  0  0  0  0  0  0
    7.4552   10.5798   -2.5248 H   0  0  0  0  0  0  0  0  0  0  0  0
    7.8964    9.5697   -3.9432 H   0  0  0  0  0  0  0  0  0  0  0  0
    8.2649   11.3278   -3.9432 H   0  0  0  0  0  0  0  0  0  0  0  0
    0.5036   11.8456   -3.7572 H   0  0  0  0  0  0  0  0  0  0  0  0
   -1.6457   11.2708   -2.8155 H   0  0  0  0  0  0  0  0  0  0  0  0
   -0.9158   10.1818   -1.6165 H   0  0  0  0  0  0  0  0  0  0  0  0
   -1.9255   12.8012   -1.0840 H   0  0  0  0  0  0  0  0  0  0  0  0
   -0.8789   11.9040    0.0133 H   0  0  0  0  0  0  0  0  0  0  0  0
   -0.8934   15.0191   -2.0972 H   0  0  0  0  0  0  0  0  0  0  0  0
    0.4844   14.5111   -3.1317 H   0  0  0  0  0  0  0  0  0  0  0  0
   -1.0381   13.5578   -3.1317 H   0  0  0  0  0  0  0  0  0  0  0  0
    0.9307   13.3978    0.6125 H   0  0  0  0  0  0  0  0  0  0  0  0
   -1.2990   14.6605    0.3399 H   0  0  0  0  0  0  0  0  0  0  0  0
    0.0033   15.2647    1.4928 H   0  0  0  0  0  0  0  0  0  0  0  0
   -1.2246   17.0995    0.0566 H   0  0  0  0  0  0  0  0  0  0  0  0
    1.8209   15.8947   -2.3044 H   0  0  0  0  0  0  0  0  0  0  0  0
    3.1838   17.5060   -0.0600 H   0  0  0  0  0  0  0  0  0  0  0  0
    3.9988   16.6721   -1.4571 H   0  0  0  0  0  0  0  0  0  0  0  0
    3.8213   19.1157   -1.7994 H   0  0  0  0  0  0  0  0  0  0  0  0
    2.9003   18.1614   -3.0270 H   0  0  0  0  0  0  0  0  0  0  0  0
    1.5627   20.0330   -2.3439 H   0  0  0  0  0  0  0  0  0  0  0  0
    1.0250   19.4390    0.2200 H   0  0  0  0  0  0  0  0  0  0  0  0
   -0.6787   17.2577   -3.2679 H   0  0  0  0  0  0  0  0  0  0  0  0
   -0.2655   18.9515   -3.7004 H   0  0  0  0  0  0  0  0  0  0  0  0
    1.0110   17.6876   -3.7004 H   0  0  0  0  0  0  0  0  0  0  0  0
   -0.7969   19.1845   -0.0950 H   0  0  0  0  0  0  0  0  0  0  0  0
   -0.7067   20.2194   -1.5604 H   0  0  0  0  0  0  0  0  0  0  0  0
   -1.7407   18.7506   -1.5604 H   0  0  0  0  0  0  0  0  0  0  0  0
    2.0726   14.8719    1.7241 H   0  0  0  0  0  0  0  0  0  0  0  0
    3.6962   14.6034    1.0039 H   0  0  0  0  0  0  0  0  0  0  0  0
    2.9745   16.2483    1.0039 H   0  0  0  0  0  0  0  0  0  0  0  0
    3.8347   14.6250   -1.7504 H   0  0  0  0  0  0  0  0  0  0  0  0
    3.5368   13.2931   -0.4973 H   0  0  0  0  0  0  0  0  0  0  0  0
    2.1703   13.6464   -3.1800 H   0  0  0  0  0  0  0  0  0  0  0  0
    3.2804   12.3242   -2.6446 H   0  0  0  0  0  0  0  0  0  0  0  0
    1.5816   11.7949    0.3592 H   0  0  0  0  0  0  0  0  0  0  0  0
    1.3813   10.3475   -0.6856 H   0  0  0  0  0  0  0  0  0  0  0  0
    2.9361   11.2470   -0.6856 H   0  0  0  0  0  0  0  0  0  0  0  0
  1  2  1  0
  2  3  1  0
  3  4  1  0
  4  5  1  0
  5  6  1  0
  6  7  1  0
  7  8  1  0
  7  9  1  0
  2 10  1  0
 10 11  1  0
 11 12  1  0
 12 13  1  0
 13 14  1  6
 13 15  1  0
 15 16  1  0
 16 17  1  0
 17 18  2  0
 18 19  1  0
 19 20  1  0
 20 21  1  0
 21 22  1  0
 22 23  1  0
 22 24  1  0
 24 25  1  0
 24 26  1  0
 19 27  1  0
 27 28  1  1
 27 29  1  0
 29 30  1  0
 30 31  1  0
 31 32  1  1
  7  5  1  0
 31 10  1  0
 31 13  1  0
 27 15  1  0
 24 18  1  0
  1 33  1  0
  1 34  1  0
  1 35  1  0
  2 36  1  6
  3 37  1  0
  3 38  1  0
  4 39  1  0
  4 40  1  0
  5 41  1  1
  8 42  1  0
  8 43  1  0
  8 44  1  0
  9 45  1  0
  9 46  1  0
  9 47  1  0
 10 48  1  6
 11 49  1  0
 11 50  1  0
 12 51  1  0
 12 52  1  0
 14 53  1  0
 14 54  1  0
 14 55  1  0
 15 56  1  1
 16 57  1  0
 16 58  1  0
 17 59  1  0
 19 60  1  6
 20 61  1  0
 20 62  1  0
 21 63  1  0
 21 64  1  0
 22 65  1  6
 23 66  1  0
 25 67  1  0
 25 68  1  0
 25 69  1  0
 26 70  1  0
 26 71  1  0
 26 72  1  0
 28 73  1  0
 28 74  1  0
 28 75  1  0
 29 76  1  0
 29 77  1  0
 30 78  1  0
 30 79  1  0
 32 80  1  0
 32 81  1  0
 32 82  1  0
M  END
>  <meeko>  (9) 
{"is_sidechain": [false], "intermolecular_energy": 2.731, "internal_energy": -0.839}

$$$$
EPH_relaxed_0001_pdb2pqr_Repair_34_r2_0001_out
     RDKit          3D

 82 86  0  0  0  0  0  0  0  0999 V2000
   -0.0920   10.6500   -4.2100 C   0  0  0  0  0  0  0  0  0  0  0  0
    1.0020   10.3940   -3.1690 C   0  0  2  0  0  0  0  0  0  0  0  0
    0.8000    9.0540   -2.4320 C   0  0  0  0  0  0  0  0  0  0  0  0
   -0.6360    8.8260   -1.9530 C   0  0  0  0  0  0  0  0  0  0  0  0
   -0.7870    9.1230   -0.4920 C   0  0  2  0  0  0  0  0  0  0  0  0
   -2.1380    9.1020   -0.0130 O   0  0  0  0  0  0  0  0  0  0  0  0
   -1.4660   10.3700    0.0420 C   0  0  0  0  0  0  0  0  0  0  0  0
   -2.0370   11.4030   -0.8780 C   0  0  0  0  0  0  0  0  0  0  0  0
   -1.1430   10.8210    1.4330 C   0  0  0  0  0  0  0  0  0  0  0  0
    1.0420   11.5390   -2.1650 C   0  0  1  0  0  0  0  0  0  0  0  0
    2.0670   11.2980   -1.0240 C   0  0  0  0  0  0  0  0  0  0  0  0
    2.6620   12.6820   -0.6570 C   0  0  0  0  0  0  0  0  0  0  0  0
    1.7330   13.7030   -1.3550 C   0  0  1  0  0  0  0  0  0  0  0  0
    0.5020   13.8410   -0.4050 C   0  0  0  0  0  0  0  0  0  0  0  0
    2.3640   15.0950   -1.6880 C   0  0  2  0  0  0  0  0  0  0  0  0
    2.8240   15.9110   -0.4680 C   0  0  0  0  0  0  0  0  0  0  0  0
    1.7980   16.8290    0.1100 C   0  0  0  0  0  0  0  0  0  0  0  0
    0.6560   17.2050   -0.4940 C   0  0  0  0  0  0  0  0  0  0  0  0
    0.3480   16.7730   -1.9340 C   0  0  1  0  0  0  0  0  0  0  0  0
   -0.1520   17.9970   -2.7460 C   0  0  0  0  0  0  0  0  0  0  0  0
   -1.3340   18.6970   -2.0810 C   0  0  0  0  0  0  0  0  0  0  0  0
   -0.9700   19.1620   -0.6730 C   0  0  2  0  0  0  0  0  0  0  0  0
    0.0190   20.1920   -0.7700 O   0  0  0  0  0  0  0  0  0  0  0  0
   -0.4430   18.0160    0.2350 C   0  0  0  0  0  0  0  0  0  0  0  0
   -1.6060   17.0540    0.5850 C   0  0  0  0  0  0  0  0  0  0  0  0
    0.0200   18.6440    1.5770 C   0  0  0  0  0  0  0  0  0  0  0  0
    1.5020   15.9760   -2.6810 C   0  0  1  0  0  0  0  0  0  0  0  0
    2.4880   16.9760   -3.3580 C   0  0  0  0  0  0  0  0  0  0  0  0
    0.8680   15.1220   -3.8420 C   0  0  0  0  0  0  0  0  0  0  0  0
    0.3730   13.7100   -3.4760 C   0  0  0  0  0  0  0  0  0  0  0  0
    1.4430   12.9380   -2.6970 C   0  0  2  0  0  0  0  0  0  0  0  0
    2.6860   12.7650   -3.6350 C   0  0  0  0  0  0  0  0  0  0  0  0
   -1.0402   10.8719   -3.6985 H   0  0  0  0  0  0  0  0  0  0  0  0
    0.1939   11.5055   -4.8396 H   0  0  0  0  0  0  0  0  0  0  0  0
   -0.2154    9.7565   -4.8396 H   0  0  0  0  0  0  0  0  0  0  0  0
    1.9611   10.3353   -3.7044 H   0  0  0  0  0  0  0  0  0  0  0  0
    1.0718    8.2368   -3.1163 H   0  0  0  0  0  0  0  0  0  0  0  0
    1.4376    9.0804   -1.5360 H   0  0  0  0  0  0  0  0  0  0  0  0
   -1.3101    9.4833   -2.5219 H   0  0  0  0  0  0  0  0  0  0  0  0
   -0.8875    7.7675   -2.1154 H   0  0  0  0  0  0  0  0  0  0  0  0
    0.1878    8.6624   -0.2736 H   0  0  0  0  0  0  0  0  0  0  0  0
   -2.4853   12.2141   -0.2854 H   0  0  0  0  0  0  0  0  0  0  0  0
   -1.2366   11.8116   -1.5124 H   0  0  0  0  0  0  0  0  0  0  0  0
   -2.8087   10.9426   -1.5124 H   0  0  0  0  0  0  0  0  0  0  0  0
   -1.6248   10.1482    2.1577 H   0  0  0  0  0  0  0  0  0  0  0  0
   -0.0533   10.8001    1.5815 H   0  0  0  0  0  0  0  0  0  0  0  0
   -1.5137   11.8460    1.5815 H   0  0  0  0  0  0  0  0  0  0  0  0
   -0.0117   11.5437   -1.8493 H   0  0  0  0  0  0  0  0  0  0  0  0
    1.5644   10.8580   -0.1500 H   0  0  0  0  0  0  0  0  0  0  0  0
    2.8560   10.6010   -1.3428 H   0  0  0  0  0  0  0  0  0  0  0  0
    2.6543   12.8315    0.4328 H   0  0  0  0  0  0  0  0  0  0  0  0
    3.7095   12.7841   -0.9769 H   0  0  0  0  0  0  0  0  0  0  0  0
    0.8401   13.8031    0.6411 H   0  0  0  0  0  0  0  0  0  0  0  0
   -0.0007   14.8011   -0.5933 H   0  0  0  0  0  0  0  0  0  0  0  0
   -0.2008   13.0160   -0.5933 H   0  0  0  0  0  0  0  0  0  0  0  0
    3.2829   14.8157   -2.2242 H   0  0  0  0  0  0  0  0  0  0  0  0
    3.1289   15.2044    0.3179 H   0  0  0  0  0  0  0  0  0  0  0  0
    3.6419   16.5548   -0.8238 H   0  0  0  0  0  0  0  0  0  0  0  0
    1.9923   17.2321    1.1149 H   0  0  0  0  0  0  0  0  0  0  0  0
   -0.4515   16.0210   -1.8612 H   0  0  0  0  0  0  0  0  0  0  0  0
    0.6743   18.7165   -2.8441 H   0  0  0  0  0  0  0  0  0  0  0  0
   -0.4892   17.6317   -3.7272 H   0  0  0  0  0  0  0  0  0  0  0  0
   -1.6221   19.5698   -2.6853 H   0  0  0  0  0  0  0  0  0  0  0  0
   -2.1698   17.9853   -2.0110 H   0  0  0  0  0  0  0  0  0  0  0  0
   -1.8904   19.5367   -0.2013 H   0  0  0  0  0  0  0  0  0  0  0  0
   -0.4450   21.0470   -0.7620 H   0  0  0  0  0  0  0  0  0  0  0  0
   -1.7007   16.9757    1.6781 H   0  0  0  0  0  0  0  0  0  0  0  0
   -2.5440   17.4437    0.1627 H   0  0  0  0  0  0  0  0  0  0  0  0
   -1.3990   16.0596    0.1627 H   0  0  0  0  0  0  0  0  0  0  0  0
   -0.4027   18.0707    2.4152 H   0  0  0  0  0  0  0  0  0  0  0  0
    1.1183   18.6202    1.6334 H   0  0  0  0  0  0  0  0  0  0  0  0
   -0.3275   19.6861    1.6334 H   0  0  0  0  0  0  0  0  0  0  0  0
    3.0361   17.5319   -2.5830 H   0  0  0  0  0  0  0  0  0  0  0  0
    3.2013   16.4203   -3.9843 H   0  0  0  0  0  0  0  0  0  0  0  0
    1.9223   17.6814   -3.9843 H   0  0  0  0  0  0  0  0  0  0  0  0
    0.0087   15.6837   -4.2370 H   0  0  0  0  0  0  0  0  0  0  0  0
    1.6851   14.9628   -4.5610 H   0  0  0  0  0  0  0  0  0  0  0  0
   -0.5318   13.7954   -2.8562 H   0  0  0  0  0  0  0  0  0  0  0  0
    0.1534   13.1637   -4.4052 H   0  0  0  0  0  0  0  0  0  0  0  0
    3.5918   12.6389   -3.0238 H   0  0  0  0  0  0  0  0  0  0  0  0
    2.5456   11.8777   -4.2699 H   0  0  0  0  0  0  0  0  0  0  0  0
    2.7932   13.6569   -4.2699 H   0  0  0  0  0  0  0  0  0  0  0  0
  1  2  1  0
  2  3  1  0
  3  4  1  0
  4  5  1  0
  5  6  1  0
  6  7  1  0
  7  8  1  0
  7  9  1  0
  2 10  1  0
 10 11  1  0
 11 12  1  0
 12 13  1  0
 13 14  1  1
 13 15  1  0
 15 16  1  0
 16 17  1  0
 17 18  2  0
 18 19  1  0
 19 20  1  0
 20 21  1  0
 21 22  1  0
 22 23  1  0
 22 24  1  0
 24 25  1  0
 24 26  1  0
 19 27  1  0
 27 28  1  6
 27 29  1  0
 29 30  1  0
 30 31  1  0
 31 32  1  6
  7  5  1  0
 31 10  1  0
 31 13  1  0
 27 15  1  0
 24 18  1  0
  1 33  1  0
  1 34  1  0
  1 35  1  0
  2 36  1  6
  3 37  1  0
  3 38  1  0
  4 39  1  0
  4 40  1  0
  5 41  1  1
  8 42  1  0
  8 43  1  0
  8 44  1  0
  9 45  1  0
  9 46  1  0
  9 47  1  0
 10 48  1  1
 11 49  1  0
 11 50  1  0
 12 51  1  0
 12 52  1  0
 14 53  1  0
 14 54  1  0
 14 55  1  0
 15 56  1  6
 16 57  1  0
 16 58  1  0
 17 59  1  0
 19 60  1  1
 20 61  1  0
 20 62  1  0
 21 63  1  0
 21 64  1  0
 22 65  1  1
 23 66  1  0
 25 67  1  0
 25 68  1  0
 25 69  1  0
 26 70  1  0
 26 71  1  0
 26 72  1  0
 28 73  1  0
 28 74  1  0
 28 75  1  0
 29 76  1  0
 29 77  1  0
 30 78  1  0
 30 79  1  0
 32 80  1  0
 32 81  1  0
 32 82  1  0
M  END
>  <meeko>  (10) 
{"is_sidechain": [false], "intermolecular_energy": 2.731, "internal_energy": -0.839}

$$$$
EPH_relaxed_0001_pdb2pqr_Repair_34_r2_0001_out
     RDKit          3D

 82 86  0  0  0  0  0  0  0  0999 V2000
    2.8710   17.9520   -3.8840 C   0  0  0  0  0  0  0  0  0  0  0  0
    2.0190   17.9020   -2.6120 C   0  0  2  0  0  0  0  0  0  0  0  0
    2.3520   19.0550   -1.6440 C   0  0  0  0  0  0  0  0  0  0  0  0
    1.3040   20.1710   -1.6330 C   0  0  0  0  0  0  0  0  0  0  0  0
    0.2750   19.9550   -0.5650 C   0  0  2  0  0  0  0  0  0  0  0  0
   -0.4440   18.7190   -0.6680 O   0  0  0  0  0  0  0  0  0  0  0  0
   -1.2170   19.9180   -0.8370 C   0  0  0  0  0  0  0  0  0  0  0  0
   -1.7640   20.1000   -2.2180 C   0  0  0  0  0  0  0  0  0  0  0  0
   -2.1570   20.1940    0.2950 C   0  0  0  0  0  0  0  0  0  0  0  0
    2.2100   16.5620   -1.9120 C   0  0  1  0  0  0  0  0  0  0  0  0
    2.6570   16.7180   -0.4340 C   0  0  0  0  0  0  0  0  0  0  0  0
    1.9950   15.5620    0.3590 C   0  0  0  0  0  0  0  0  0  0  0  0
    1.4660   14.5970   -0.7280 C   0  0  1  0  0  0  0  0  0  0  0  0
    2.7090   13.7570   -1.1580 C   0  0  0  0  0  0  0  0  0  0  0  0
    0.2660   13.6830   -0.3150 C   0  0  2  0  0  0  0  0  0  0  0  0
    0.5610   12.6960    0.8280 C   0  0  0  0  0  0  0  0  0  0  0  0
    1.0690   11.3590    0.4010 C   0  0  0  0  0  0  0  0  0  0  0  0
    1.0130   10.8630   -0.8490 C   0  0  0  0  0  0  0  0  0  0  0  0
    0.3030   11.6330   -1.9700 C   0  0  1  0  0  0  0  0  0  0  0  0
   -0.6150   10.6660   -2.7630 C   0  0  0  0  0  0  0  0  0  0  0  0
    0.1340    9.4410   -3.2800 C   0  0  0  0  0  0  0  0  0  0  0  0
    0.7770    8.6700   -2.1300 C   0  0  2  0  0  0  0  0  0  0  0  0
   -0.2570    8.1100   -1.3150 O   0  0  0  0  0  0  0  0  0  0  0  0
    1.7170    9.5450   -1.2550 C   0  0  0  0  0  0  0  0  0  0  0  0
    2.9930    9.9020   -2.0570 C   0  0  0  0  0  0  0  0  0  0  0  0
    2.1880    8.6840   -0.0510 C   0  0  0  0  0  0  0  0  0  0  0  0
   -0.4480   12.9630   -1.5300 C   0  0  1  0  0  0  0  0  0  0  0  0
   -1.8960   12.6260   -1.0590 C   0  0  0  0  0  0  0  0  0  0  0  0
   -0.5970   13.9080   -2.7810 C   0  0  0  0  0  0  0  0  0  0  0  0
    0.5700   14.8720   -3.0670 C   0  0  0  0  0  0  0  0  0  0  0  0
    0.9730   15.6350   -1.8010 C   0  0  2  0  0  0  0  0  0  0  0  0
   -0.2510   16.5060   -1.3570 C   0  0  0  0  0  0  0  0  0  0  0  0
    3.9347   18.0144   -3.6106 H   0  0  0  0  0  0  0  0  0  0  0  0
    2.6977   17.0421   -4.4774 H   0  0  0  0  0  0  0  0  0  0  0  0
    2.5925   18.8353   -4.4774 H   0  0  0  0  0  0  0  0  0  0  0  0
    0.9673   18.0179   -2.9129 H   0  0  0  0  0  0  0  0  0  0  0  0
    2.4313   18.6429   -0.6272 H   0  0  0  0  0  0  0  0  0  0  0  0
    3.2952   19.5030   -1.9898 H   0  0  0  0  0  0  0  0  0  0  0  0
    1.8084   21.1318   -1.4529 H   0  0  0  0  0  0  0  0  0  0  0  0
    0.7926   20.1705   -2.6069 H   0  0  0  0  0  0  0  0  0  0  0  0
    0.8786   20.5162    0.1635 H   0  0  0  0  0  0  0  0  0  0  0  0
   -2.8061   20.4467   -2.1569 H   0  0  0  0  0  0  0  0  0  0  0  0
   -1.1604   20.8457   -2.7561 H   0  0  0  0  0  0  0  0  0  0  0  0
   -1.7275   19.1413   -2.7561 H   0  0  0  0  0  0  0  0  0  0  0  0
   -1.6348   20.0407    1.2509 H   0  0  0  0  0  0  0  0  0  0  0  0
   -2.5104   21.2338    0.2329 H   0  0  0  0  0  0  0  0  0  0  0  0
   -3.0165   19.5103    0.2329 H   0  0  0  0  0  0  0  0  0  0  0  0
    2.9602   16.1114   -2.5785 H   0  0  0  0  0  0  0  0  0  0  0  0
    3.7524   16.6489   -0.3604 H   0  0  0  0  0  0  0  0  0  0  0  0
    2.3549   17.6962   -0.0316 H   0  0  0  0  0  0  0  0  0  0  0  0
    2.7333   15.0579    1.0000 H   0  0  0  0  0  0  0  0  0  0  0  0
    1.1960   15.9175    1.0263 H   0  0  0  0  0  0  0  0  0  0  0  0
    3.2378   13.3996   -0.2621 H   0  0  0  0  0  0  0  0  0  0  0  0
    2.3798   12.8955   -1.7575 H   0  0  0  0  0  0  0  0  0  0  0  0
    3.3856   14.3838   -1.7575 H   0  0  0  0  0  0  0  0  0  0  0  0
   -0.4530   14.4079    0.0942 H   0  0  0  0  0  0  0  0  0  0  0  0
    1.3161   13.1525    1.4848 H   0  0  0  0  0  0  0  0  0  0  0  0
   -0.4021   12.5106    1.3260 H   0  0  0  0  0  0  0  0  0  0  0  0
    1.5283   10.7250    1.1737 H   0  0  0  0  0  0  0  0  0  0  0  0
    1.0987   12.0147   -2.6267 H   0  0  0  0  0  0  0  0  0  0  0  0
   -1.4276   10.3297   -2.1022 H   0  0  0  0  0  0  0  0  0  0  0  0
   -1.0028   11.2131   -3.6349 H   0  0  0  0  0  0  0  0  0  0  0  0
   -0.5729    8.7816   -3.8048 H   0  0  0  0  0  0  0  0  0  0  0  0
    0.9268    9.7769   -3.9645 H   0  0  0  0  0  0  0  0  0  0  0  0
    1.4046    7.8820   -2.5718 H   0  0  0  0  0  0  0  0  0  0  0  0
   -0.8330    8.8390   -1.0290 H   0  0  0  0  0  0  0  0  0  0  0  0
    3.8122   10.1312   -1.3596 H   0  0  0  0  0  0  0  0  0  0  0  0
    3.2785    9.0492   -2.6905 H   0  0  0  0  0  0  0  0  0  0  0  0
    2.7945   10.7791   -2.6905 H   0  0  0  0  0  0  0  0  0  0  0  0
    1.9134    9.1860    0.8885 H   0  0  0  0  0  0  0  0  0  0  0  0
    1.7041    7.6971   -0.0944 H   0  0  0  0  0  0  0  0  0  0  0  0
    3.2800    8.5592   -0.0944 H   0  0  0  0  0  0  0  0  0  0  0  0
   -1.9314   12.6178    0.0404 H   0  0  0  0  0  0  0  0  0  0  0  0
   -2.5926   13.3860   -1.4426 H   0  0  0  0  0  0  0  0  0  0  0  0
   -2.1854   11.6365   -1.4426 H   0  0  0  0  0  0  0  0  0  0  0  0
   -0.7254   13.2690   -3.6671 H   0  0  0  0  0  0  0  0  0  0  0  0
   -1.4556   14.5561   -2.5511 H   0  0  0  0  0  0  0  0  0  0  0  0
    1.4333   14.2946   -3.4294 H   0  0  0  0  0  0  0  0  0  0  0  0
    0.2468   15.5987   -3.8269 H   0  0  0  0  0  0  0  0  0  0  0  0
   -0.2980   16.5394   -0.2585 H   0  0  0  0  0  0  0  0  0  0  0  0
   -0.1365   17.5269   -1.7504 H   0  0  0  0  0  0  0  0  0  0  0  0
   -1.1780   16.0633   -1.7504 H   0  0  0  0  0  0  0  0  0  0  0  0
  1  2  1  0
  2  3  1  0
  3  4  1  0
  4  5  1  0
  5  6  1  0
  6  7  1  0
  7  8  1  0
  7  9  1  0
  2 10  1  0
 10 11  1  0
 11 12  1  0
 12 13  1  0
 13 14  1  6
 13 15  1  0
 15 16  1  0
 16 17  1  0
 17 18  2  0
 18 19  1  0
 19 20  1  0
 20 21  1  0
 21 22  1  0
 22 23  1  0
 22 24  1  0
 24 25  1  0
 24 26  1  0
 19 27  1  0
 27 28  1  1
 27 29  1  0
 29 30  1  0
 30 31  1  0
 31 32  1  1
  7  5  1  0
 31 10  1  0
 31 13  1  0
 27 15  1  0
 24 18  1  0
  1 33  1  0
  1 34  1  0
  1 35  1  0
  2 36  1  6
  3 37  1  0
  3 38  1  0
  4 39  1  0
  4 40  1  0
  5 41  1  1
  8 42  1  0
  8 43  1  0
  8 44  1  0
  9 45  1  0
  9 46  1  0
  9 47  1  0
 10 48  1  6
 11 49  1  0
 11 50  1  0
 12 51  1  0
 12 52  1  0
 14 53  1  0
 14 54  1  0
 14 55  1  0
 15 56  1  1
 16 57  1  0
 16 58  1  0
 17 59  1  0
 19 60  1  6
 20 61  1  0
 20 62  1  0
 21 63  1  0
 21 64  1  0
 22 65  1  6
 23 66  1  0
 25 67  1  0
 25 68  1  0
 25 69  1  0
 26 70  1  0
 26 71  1  0
 26 72  1  0
 28 73  1  0
 28 74  1  0
 28 75  1  0
 29 76  1  0
 29 77  1  0
 30 78  1  0
 30 79  1  0
 32 80  1  0
 32 81  1  0
 32 82  1  0
M  END
>  <meeko>  (11) 
{"is_sidechain": [false], "intermolecular_energy": 2.731, "internal_energy": -0.839}

$$$$
EPH_relaxed_0001_pdb2pqr_Repair_34_r2_0001_out
     RDKit          3D

 82 86  0  0  0  0  0  0  0  0999 V2000
    3.0840   18.7730   -1.3020 C   0  0  0  0  0  0  0  0  0  0  0  0
    1.8830   18.8860   -0.3590 C   0  0  2  0  0  0  0  0  0  0  0  0
    2.2630   19.5270    0.9910 C   0  0  0  0  0  0  0  0  0  0  0  0
    3.3960   18.8010    1.7200 C   0  0  0  0  0  0  0  0  0  0  0  0
    4.2370   19.7480    2.5210 C   0  0  2  0  0  0  0  0  0  0  0  0
    5.5600   19.9530    2.0100 O   0  0  0  0  0  0  0  0  0  0  0  0
    5.4690   19.3220    3.2980 C   0  0  0  0  0  0  0  0  0  0  0  0
    5.9280   17.8980    3.3120 C   0  0  0  0  0  0  0  0  0  0  0  0
    5.9370   20.1860    4.4270 C   0  0  0  0  0  0  0  0  0  0  0  0
    1.2730   17.5080   -0.1270 C   0  0  1  0  0  0  0  0  0  0  0  0
   -0.1990   17.5810    0.3610 C   0  0  0  0  0  0  0  0  0  0  0  0
   -0.9370   16.3680   -0.2600 C   0  0  0  0  0  0  0  0  0  0  0  0
    0.1910   15.4620   -0.8060 C   0  0  1  0  0  0  0  0  0  0  0  0
    0.7080   14.6720    0.4360 C   0  0  0  0  0  0  0  0  0  0  0  0
   -0.1980   14.5050   -1.9790 C   0  0  2  0  0  0  0  0  0  0  0  0
   -1.2690   13.4540   -1.6360 C   0  0  0  0  0  0  0  0  0  0  0  0
   -0.7460   12.1550   -1.1210 C   0  0  0  0  0  0  0  0  0  0  0  0
    0.5310   11.7360   -1.2070 C   0  0  0  0  0  0  0  0  0  0  0  0
    1.5810   12.5620   -1.9610 C   0  0  1  0  0  0  0  0  0  0  0  0
    2.4060   11.6290   -2.8870 C   0  0  0  0  0  0  0  0  0  0  0  0
    3.0190   10.4510   -2.1350 C   0  0  0  0  0  0  0  0  0  0  0  0
    1.9380    9.6220   -1.4470 C   0  0  2  0  0  0  0  0  0  0  0  0
    1.1300    8.9960   -2.4490 O   0  0  0  0  0  0  0  0  0  0  0  0
    1.0370   10.4570   -0.4950 C   0  0  0  0  0  0  0  0  0  0  0  0
    1.8520   10.8840    0.7510 C   0  0  0  0  0  0  0  0  0  0  0  0
   -0.0970    9.5320    0.0240 C   0  0  0  0  0  0  0  0  0  0  0  0
    1.0380   13.8490   -2.7180 C   0  0  1  0  0  0  0  0  0  0  0  0
    0.5480   13.4590   -4.1460 C   0  0  0  0  0  0  0  0  0  0  0  0
    2.2240   14.8660   -2.9190 C   0  0  0  0  0  0  0  0  0  0  0  0
    2.4820   15.8650   -1.7750 C   0  0  0  0  0  0  0  0  0  0  0  0
    1.1840   16.5560   -1.3460 C   0  0  2  0  0  0  0  0  0  0  0  0
    0.6520   17.3770   -2.5700 C   0  0  0  0  0  0  0  0  0  0  0  0
    4.0075   18.6861   -0.7108 H   0  0  0  0  0  0  0  0  0  0  0  0
    2.9695   17.8817   -1.9364 H   0  0  0  0  0  0  0  0  0  0  0  0
    3.1378   19.6701   -1.9364 H   0  0  0  0  0  0  0  0  0  0  0  0
    1.1447   19.5437   -0.8410 H   0  0  0  0  0  0  0  0  0  0  0  0
    2.5778   20.5647    0.8063 H   0  0  0  0  0  0  0  0  0  0  0  0
    1.3746   19.4663    1.6368 H   0  0  0  0  0  0  0  0  0  0  0  0
    2.9612   18.0508    2.3968 H   0  0  0  0  0  0  0  0  0  0  0  0
    4.0397   18.3255    0.9653 H   0  0  0  0  0  0  0  0  0  0  0  0
    3.3489   20.3302    2.8078 H   0  0  0  0  0  0  0  0  0  0  0  0
    6.0375   17.5583    4.3525 H   0  0  0  0  0  0  0  0  0  0  0  0
    5.1871   17.2689    2.7969 H   0  0  0  0  0  0  0  0  0  0  0  0
    6.8968   17.8200    2.7969 H   0  0  0  0  0  0  0  0  0  0  0  0
    5.6791   19.7098    5.3844 H   0  0  0  0  0  0  0  0  0  0  0  0
    7.0277   20.3138    4.3632 H   0  0  0  0  0  0  0  0  0  0  0  0
    5.4482   21.1694    4.3632 H   0  0  0  0  0  0  0  0  0  0  0  0
    1.9871   17.1114    0.6097 H   0  0  0  0  0  0  0  0  0  0  0  0
   -0.2372   17.5260    1.4590 H   0  0  0  0  0  0  0  0  0  0  0  0
   -0.6694   18.5275    0.0564 H   0  0  0  0  0  0  0  0  0  0  0  0
   -1.5247   15.8383    0.5042 H   0  0  0  0  0  0  0  0  0  0  0  0
   -1.6467   16.6689   -1.0447 H   0  0  0  0  0  0  0  0  0  0  0  0
    0.3774   15.1772    1.3555 H   0  0  0  0  0  0  0  0  0  0  0  0
    0.3040   13.6491    0.4141 H   0  0  0  0  0  0  0  0  0  0  0  0
    1.8071   14.6327    0.4141 H   0  0  0  0  0  0  0  0  0  0  0  0
   -0.6712   15.1920   -2.6960 H   0  0  0  0  0  0  0  0  0  0  0  0
   -1.9314   13.8817   -0.8690 H   0  0  0  0  0  0  0  0  0  0  0  0
   -1.7813   13.2222   -2.5814 H   0  0  0  0  0  0  0  0  0  0  0  0
   -1.4644   11.4825   -0.6294 H   0  0  0  0  0  0  0  0  0  0  0  0
    2.2353   12.9979   -1.1917 H   0  0  0  0  0  0  0  0  0  0  0  0
    1.7443   11.2388   -3.6743 H   0  0  0  0  0  0  0  0  0  0  0  0
    3.2312   12.2218   -3.3085 H   0  0  0  0  0  0  0  0  0  0  0  0
    3.5634    9.8132   -2.8470 H   0  0  0  0  0  0  0  0  0  0  0  0
    3.7037   10.8418   -1.3679 H   0  0  0  0  0  0  0  0  0  0  0  0
    2.4453    8.8735   -0.8206 H   0  0  0  0  0  0  0  0  0  0  0  0
    1.7220    8.4920   -3.0320 H   0  0  0  0  0  0  0  0  0  0  0  0
    1.3059   10.5979    1.6620 H   0  0  0  0  0  0  0  0  0  0  0  0
    2.8313   10.3831    0.7379 H   0  0  0  0  0  0  0  0  0  0  0  0
    1.9976   11.9742    0.7379 H   0  0  0  0  0  0  0  0  0  0  0  0
   -0.0962    9.5327    1.1240 H   0  0  0  0  0  0  0  0  0  0  0  0
   -1.0668    9.9000   -0.3422 H   0  0  0  0  0  0  0  0  0  0  0  0
    0.0686    8.5080   -0.3422 H   0  0  0  0  0  0  0  0  0  0  0  0
   -0.3103   12.7758   -4.0653 H   0  0  0  0  0  0  0  0  0  0  0  0
    0.2450   14.3658   -4.6901 H   0  0  0  0  0  0  0  0  0  0  0  0
    1.3637   12.9603   -4.6901 H   0  0  0  0  0  0  0  0  0  0  0  0
    3.1439   14.2805   -3.0636 H   0  0  0  0  0  0  0  0  0  0  0  0
    1.9313   15.4837   -3.7808 H   0  0  0  0  0  0  0  0  0  0  0  0
    2.9035   15.3251   -0.9143 H   0  0  0  0  0  0  0  0  0  0  0  0
    3.1857   16.6316   -2.1314 H   0  0  0  0  0  0  0  0  0  0  0  0
    0.0870   18.2490   -2.2089 H   0  0  0  0  0  0  0  0  0  0  0  0
    1.5015   17.7176   -3.1802 H   0  0  0  0  0  0  0  0  0  0  0  0
   -0.0060   16.7408   -3.1802 H   0  0  0  0  0  0  0  0  0  0  0  0
  1  2  1  0
  2  3  1  0
  3  4  1  0
  4  5  1  0
  5  6  1  0
  6  7  1  0
  7  8  1  0
  7  9  1  0
  2 10  1  0
 10 11  1  0
 11 12  1  0
 12 13  1  0
 13 14  1  1
 13 15  1  0
 15 16  1  0
 16 17  1  0
 17 18  2  0
 18 19  1  0
 19 20  1  0
 20 21  1  0
 21 22  1  0
 22 23  1  0
 22 24  1  0
 24 25  1  0
 24 26  1  0
 19 27  1  0
 27 28  1  6
 27 29  1  0
 29 30  1  0
 30 31  1  0
 31 32  1  6
  7  5  1  0
 31 10  1  0
 31 13  1  0
 27 15  1  0
 24 18  1  0
  1 33  1  0
  1 34  1  0
  1 35  1  0
  2 36  1  6
  3 37  1  0
  3 38  1  0
  4 39  1  0
  4 40  1  0
  5 41  1  1
  8 42  1  0
  8 43  1  0
  8 44  1  0
  9 45  1  0
  9 46  1  0
  9 47  1  0
 10 48  1  1
 11 49  1  0
 11 50  1  0
 12 51  1  0
 12 52  1  0
 14 53  1  0
 14 54  1  0
 14 55  1  0
 15 56  1  6
 16 57  1  0
 16 58  1  0
 17 59  1  0
 19 60  1  1
 20 61  1  0
 20 62  1  0
 21 63  1  0
 21 64  1  0
 22 65  1  1
 23 66  1  0
 25 67  1  0
 25 68  1  0
 25 69  1  0
 26 70  1  0
 26 71  1  0
 26 72  1  0
 28 73  1  0
 28 74  1  0
 28 75  1  0
 29 76  1  0
 29 77  1  0
 30 78  1  0
 30 79  1  0
 32 80  1  0
 32 81  1  0
 32 82  1  0
M  END
>  <meeko>  (12) 
{"is_sidechain": [false], "intermolecular_energy": 2.731, "internal_energy": -0.839}

$$$$
EPH_relaxed_0001_pdb2pqr_Repair_34_r2_0001_out
     RDKit          3D

 82 86  0  0  0  0  0  0  0  0999 V2000
   -3.7120    7.2030   -3.4380 C   0  0  0  0  0  0  0  0  0  0  0  0
   -3.7270    7.2720   -1.9080 C   0  0  2  0  0  0  0  0  0  0  0  0
   -5.1370    7.0340   -1.3300 C   0  0  0  0  0  0  0  0  0  0  0  0
   -6.2600    7.2140   -2.3550 C   0  0  0  0  0  0  0  0  0  0  0  0
   -7.5830    7.4520   -1.6910 C   0  0  2  0  0  0  0  0  0  0  0  0
   -8.1890    6.2820   -1.1270 O   0  0  0  0  0  0  0  0  0  0  0  0
   -8.8940    6.8990   -2.2170 C   0  0  0  0  0  0  0  0  0  0  0  0
   -8.9480    6.0650   -3.4580 C   0  0  0  0  0  0  0  0  0  0  0  0
  -10.1690    7.5690   -1.8070 C   0  0  0  0  0  0  0  0  0  0  0  0
   -3.1940    8.6210   -1.4430 C   0  0  1  0  0  0  0  0  0  0  0  0
   -3.8230    9.0820   -0.1010 C   0  0  0  0  0  0  0  0  0  0  0  0
   -2.7160    9.8430    0.6740 C   0  0  0  0  0  0  0  0  0  0  0  0
   -1.6030   10.0840   -0.3730 C   0  0  1  0  0  0  0  0  0  0  0  0
   -2.0740   11.3340   -1.1790 C   0  0  0  0  0  0  0  0  0  0  0  0
   -0.1560   10.2710    0.1890 C   0  0  2  0  0  0  0  0  0  0  0  0
    0.0370   11.4950    1.1010 C   0  0  0  0  0  0  0  0  0  0  0  0
    0.4470   12.7500    0.4060 C   0  0  0  0  0  0  0  0  0  0  0  0
    0.9270   12.8280   -0.8490 C   0  0  0  0  0  0  0  0  0  0  0  0
    1.1920   11.5600   -1.6710 C   0  0  1  0  0  0  0  0  0  0  0  0
    2.5870   11.6610   -2.3440 C   0  0  0  0  0  0  0  0  0  0  0  0
    2.7470   12.9350   -3.1680 C   0  0  0  0  0  0  0  0  0  0  0  0
    2.5340   14.1750   -2.3040 C   0  0  2  0  0  0  0  0  0  0  0  0
    3.5950   14.2580   -1.3470 O   0  0  0  0  0  0  0  0  0  0  0  0
    1.1650   14.1790   -1.5670 C   0  0  0  0  0  0  0  0  0  0  0  0
    0.0240   14.3930   -2.5920 C   0  0  0  0  0  0  0  0  0  0  0  0
    1.1360   15.4110   -0.6220 C   0  0  0  0  0  0  0  0  0  0  0  0
    0.9820   10.1820   -0.9080 C   0  0  1  0  0  0  0  0  0  0  0  0
    2.2910    9.7820   -0.1600 C   0  0  0  0  0  0  0  0  0  0  0  0
    0.7080    9.0460   -1.9630 C   0  0  0  0  0  0  0  0  0  0  0  0
   -0.7570    8.8310   -2.3880 C   0  0  0  0  0  0  0  0  0  0  0  0
   -1.6730    8.7280   -1.1660 C   0  0  2  0  0  0  0  0  0  0  0  0
   -1.2370    7.4660   -0.3460 C   0  0  0  0  0  0  0  0  0  0  0  0
   -3.4883    6.1741   -3.7565 H   0  0  0  0  0  0  0  0  0  0  0  0
   -4.6961    7.5019   -3.8282 H   0  0  0  0  0  0  0  0  0  0  0  0
   -2.9408    7.8834   -3.8282 H   0  0  0  0  0  0  0  0  0  0  0  0
   -3.0769    6.4673   -1.5341 H   0  0  0  0  0  0  0  0  0  0  0  0
   -5.1838    6.0064   -0.9402 H   0  0  0  0  0  0  0  0  0  0  0  0
   -5.2943    7.7879   -0.5446 H   0  0  0  0  0  0  0  0  0  0  0  0
   -6.0227    8.0756   -2.9963 H   0  0  0  0  0  0  0  0  0  0  0  0
   -6.3348    6.2905   -2.9479 H   0  0  0  0  0  0  0  0  0  0  0  0
   -7.2770    8.4652   -1.3914 H   0  0  0  0  0  0  0  0  0  0  0  0
   -9.0168    5.0022   -3.1828 H   0  0  0  0  0  0  0  0  0  0  0  0
   -9.8297    6.3479   -4.0518 H   0  0  0  0  0  0  0  0  0  0  0  0
   -8.0372    6.2318   -4.0518 H   0  0  0  0  0  0  0  0  0  0  0  0
  -10.2298    7.6010   -0.7091 H   0  0  0  0  0  0  0  0  0  0  0  0
  -10.1891    8.5941   -2.2053 H   0  0  0  0  0  0  0  0  0  0  0  0
  -11.0246    7.0040   -2.2053 H   0  0  0  0  0  0  0  0  0  0  0  0
   -3.4615    9.2352   -2.3155 H   0  0  0  0  0  0  0  0  0  0  0  0
   -4.6775    9.7478   -0.2921 H   0  0  0  0  0  0  0  0  0  0  0  0
   -4.1911    8.2225    0.4785 H   0  0  0  0  0  0  0  0  0  0  0  0
   -3.0994   10.7989    1.0604 H   0  0  0  0  0  0  0  0  0  0  0  0
   -2.3537    9.2787    1.5460 H   0  0  0  0  0  0  0  0  0  0  0  0
   -2.3736   12.1292   -0.4805 H   0  0  0  0  0  0  0  0  0  0  0  0
   -1.2498   11.6938   -1.8124 H   0  0  0  0  0  0  0  0  0  0  0  0
   -2.9307   11.0604   -1.8124 H   0  0  0  0  0  0  0  0  0  0  0  0
   -0.0409    9.3923    0.8407 H   0  0  0  0  0  0  0  0  0  0  0  0
   -0.9152   11.6878    1.6169 H   0  0  0  0  0  0  0  0  0  0  0  0
    0.8632   11.2402    1.7810 H   0  0  0  0  0  0  0  0  0  0  0  0
    0.3486   13.6912    0.9668 H   0  0  0  0  0  0  0  0  0  0  0  0
    0.4069   11.5278   -2.4408 H   0  0  0  0  0  0  0  0  0  0  0  0
    3.3586   11.6486   -1.5601 H   0  0  0  0  0  0  0  0  0  0  0  0
    2.6912   10.8054   -3.0275 H   0  0  0  0  0  0  0  0  0  0  0  0
    3.7608   12.9631   -3.5939 H   0  0  0  0  0  0  0  0  0  0  0  0
    1.9928   12.9318   -3.9687 H   0  0  0  0  0  0  0  0  0  0  0  0
    2.5336   15.0479   -2.9734 H   0  0  0  0  0  0  0  0  0  0  0  0
    3.1930   14.4000   -0.4730 H   0  0  0  0  0  0  0  0  0  0  0  0
   -0.9208   14.5702   -2.0573 H   0  0  0  0  0  0  0  0  0  0  0  0
    0.2567   15.2632   -3.2234 H   0  0  0  0  0  0  0  0  0  0  0  0
   -0.0744   13.4976   -3.2234 H   0  0  0  0  0  0  0  0  0  0  0  0
    1.1440   15.0710    0.4241 H   0  0  0  0  0  0  0  0  0  0  0  0
    2.0196   16.0385   -0.8104 H   0  0  0  0  0  0  0  0  0  0  0  0
    0.2238   15.9962   -0.8104 H   0  0  0  0  0  0  0  0  0  0  0  0
    2.1231    9.8333    0.9259 H   0  0  0  0  0  0  0  0  0  0  0  0
    2.5741    8.7564   -0.4392 H   0  0  0  0  0  0  0  0  0  0  0  0
    3.0990   10.4742   -0.4392 H   0  0  0  0  0  0  0  0  0  0  0  0
    1.2852    9.2862   -2.8681 H   0  0  0  0  0  0  0  0  0  0  0  0
    1.0025    8.1117   -1.4627 H   0  0  0  0  0  0  0  0  0  0  0  0
   -1.0797    9.6797   -3.0090 H   0  0  0  0  0  0  0  0  0  0  0  0
   -0.8230    7.8911   -2.9557 H   0  0  0  0  0  0  0  0  0  0  0  0
   -1.3122    7.6837    0.7296 H   0  0  0  0  0  0  0  0  0  0  0  0
   -1.8953    6.6209   -0.5960 H   0  0  0  0  0  0  0  0  0  0  0  0
   -0.1974    7.2075   -0.5960 H   0  0  0  0  0  0  0  0  0  0  0  0
  1  2  1  0
  2  3  1  0
  3  4  1  0
  4  5  1  0
  5  6  1  0
  6  7  1  0
  7  8  1  0
  7  9  1  0
  2 10  1  0
 10 11  1  0
 11 12  1  0
 12 13  1  0
 13 14  1  6
 13 15  1  0
 15 16  1  0
 16 17  1  0
 17 18  2  0
 18 19  1  0
 19 20  1  0
 20 21  1  0
 21 22  1  0
 22 23  1  0
 22 24  1  0
 24 25  1  0
 24 26  1  0
 19 27  1  0
 27 28  1  1
 27 29  1  0
 29 30  1  0
 30 31  1  0
 31 32  1  1
  7  5  1  0
 31 10  1  0
 31 13  1  0
 27 15  1  0
 24 18  1  0
  1 33  1  0
  1 34  1  0
  1 35  1  0
  2 36  1  1
  3 37  1  0
  3 38  1  0
  4 39  1  0
  4 40  1  0
  5 41  1  1
  8 42  1  0
  8 43  1  0
  8 44  1  0
  9 45  1  0
  9 46  1  0
  9 47  1  0
 10 48  1  6
 11 49  1  0
 11 50  1  0
 12 51  1  0
 12 52  1  0
 14 53  1  0
 14 54  1  0
 14 55  1  0
 15 56  1  1
 16 57  1  0
 16 58  1  0
 17 59  1  0
 19 60  1  6
 20 61  1  0
 20 62  1  0
 21 63  1  0
 21 64  1  0
 22 65  1  6
 23 66  1  0
 25 67  1  0
 25 68  1  0
 25 69  1  0
 26 70  1  0
 26 71  1  0
 26 72  1  0
 28 73  1  0
 28 74  1  0
 28 75  1  0
 29 76  1  0
 29 77  1  0
 30 78  1  0
 30 79  1  0
 32 80  1  0
 32 81  1  0
 32 82  1  0
M  END
>  <meeko>  (13) 
{"is_sidechain": [false], "intermolecular_energy": 2.731, "internal_energy": -0.839}

$$$$
EPH_relaxed_0001_pdb2pqr_Repair_34_r2_0001_out
     RDKit          3D

 82 86  0  0  0  0  0  0  0  0999 V2000
    0.1500   17.8000   -2.5570 C   0  0  0  0  0  0  0  0  0  0  0  0
    0.1030   17.0820   -1.2050 C   0  0  2  0  0  0  0  0  0  0  0  0
    0.2800   18.0570   -0.0230 C   0  0  0  0  0  0  0  0  0  0  0  0
    1.3040   19.1630   -0.2860 C   0  0  0  0  0  0  0  0  0  0  0  0
    2.1830   19.3990    0.9040 C   0  0  2  0  0  0  0  0  0  0  0  0
    3.3470   20.1940    0.6420 O   0  0  0  0  0  0  0  0  0  0  0  0
    3.5850   18.8330    1.0350 C   0  0  0  0  0  0  0  0  0  0  0  0
    4.1870   17.9850   -0.0410 C   0  0  0  0  0  0  0  0  0  0  0  0
    4.1770   18.6960    2.4030 C   0  0  0  0  0  0  0  0  0  0  0  0
    1.1760   16.0010   -1.1530 C   0  0  1  0  0  0  0  0  0  0  0  0
    1.4650   15.5140    0.2920 C   0  0  0  0  0  0  0  0  0  0  0  0
    1.7870   14.0010    0.1990 C   0  0  0  0  0  0  0  0  0  0  0  0
    2.0000   13.7400   -1.3100 C   0  0  1  0  0  0  0  0  0  0  0  0
    3.4640   14.1980   -1.5940 C   0  0  0  0  0  0  0  0  0  0  0  0
    1.7470   12.2770   -1.8000 C   0  0  2  0  0  0  0  0  0  0  0  0
    2.6780   11.2140   -1.1910 C   0  0  0  0  0  0  0  0  0  0  0  0
    3.9350   10.9540   -1.9530 C   0  0  0  0  0  0  0  0  0  0  0  0
    4.1720   11.3350   -3.2220 C   0  0  0  0  0  0  0  0  0  0  0  0
    3.0820   12.0180   -4.0570 C   0  0  1  0  0  0  0  0  0  0  0  0
    3.0220   11.3660   -5.4630 C   0  0  0  0  0  0  0  0  0  0  0  0
    4.3770   11.3620   -6.1650 C   0  0  0  0  0  0  0  0  0  0  0  0
    5.4200   10.6230   -5.3310 C   0  0  2  0  0  0  0  0  0  0  0  0
    5.0680    9.2370   -5.2740 O   0  0  0  0  0  0  0  0  0  0  0  0
    5.5620   11.1860   -3.8890 C   0  0  0  0  0  0  0  0  0  0  0  0
    6.2300   12.5830   -3.9390 C   0  0  0  0  0  0  0  0  0  0  0  0
    6.5410   10.2650   -3.1110 C   0  0  0  0  0  0  0  0  0  0  0  0
    1.6510   12.1270   -3.3730 C   0  0  1  0  0  0  0  0  0  0  0  0
    0.8300   10.8310   -3.6480 C   0  0  0  0  0  0  0  0  0  0  0  0
    0.8520   13.3090   -4.0390 C   0  0  0  0  0  0  0  0  0  0  0  0
    1.0530   14.7120   -3.4330 C   0  0  0  0  0  0  0  0  0  0  0  0
    0.8910   14.6790   -1.9100 C   0  0  2  0  0  0  0  0  0  0  0  0
   -0.5800   14.2430   -1.5940 C   0  0  0  0  0  0  0  0  0  0  0  0
    0.2211   18.8854   -2.3934 H   0  0  0  0  0  0  0  0  0  0  0  0
    1.0276   17.4565   -3.1243 H   0  0  0  0  0  0  0  0  0  0  0  0
   -0.7649   17.5738   -3.1243 H   0  0  0  0  0  0  0  0  0  0  0  0
   -0.8921   16.6233   -1.1086 H   0  0  0  0  0  0  0  0  0  0  0  0
   -0.6920   18.5267    0.1882 H   0  0  0  0  0  0  0  0  0  0  0  0
    0.6547   17.4674    0.8267 H   0  0  0  0  0  0  0  0  0  0  0  0
    1.9320   18.8714   -1.1408 H   0  0  0  0  0  0  0  0  0  0  0  0
    0.7568   20.0934   -0.4979 H   0  0  0  0  0  0  0  0  0  0  0  0
    1.3138   19.3808    1.5779 H   0  0  0  0  0  0  0  0  0  0  0  0
    4.7662   17.1691    0.4161 H   0  0  0  0  0  0  0  0  0  0  0  0
    3.3863   17.5613   -0.6650 H   0  0  0  0  0  0  0  0  0  0  0  0
    4.8510   18.6012   -0.6650 H   0  0  0  0  0  0  0  0  0  0  0  0
    3.3986   18.8761    3.1591 H   0  0  0  0  0  0  0  0  0  0  0  0
    4.5812   17.6806    2.5276 H   0  0  0  0  0  0  0  0  0  0  0  0
    4.9862   19.4306    2.5276 H   0  0  0  0  0  0  0  0  0  0  0  0
    2.0043   16.5409   -1.6351 H   0  0  0  0  0  0  0  0  0  0  0  0
    2.3240   16.0589    0.7105 H   0  0  0  0  0  0  0  0  0  0  0  0
    0.6014   15.6939    0.9491 H   0  0  0  0  0  0  0  0  0  0  0  0
    2.6983   13.7622    0.7669 H   0  0  0  0  0  0  0  0  0  0  0  0
    0.9856   13.3771    0.6214 H   0  0  0  0  0  0  0  0  0  0  0  0
    3.9883   14.3620   -0.6410 H   0  0  0  0  0  0  0  0  0  0  0  0
    3.9862   13.4203   -2.1706 H   0  0  0  0  0  0  0  0  0  0  0  0
    3.4498   15.1346   -2.1706 H   0  0  0  0  0  0  0  0  0  0  0  0
    0.7459   12.0642   -1.3968 H   0  0  0  0  0  0  0  0  0  0  0  0
    2.9562   11.5453   -0.1797 H   0  0  0  0  0  0  0  0  0  0  0  0
    2.1128   10.2704   -1.2062 H   0  0  0  0  0  0  0  0  0  0  0  0
    4.7346   10.4051   -1.4340 H   0  0  0  0  0  0  0  0  0  0  0  0
    3.3835   13.0720   -4.1472 H   0  0  0  0  0  0  0  0  0  0  0  0
    2.6777   10.3268   -5.3553 H   0  0  0  0  0  0  0  0  0  0  0  0
    2.3297   11.9605   -6.0772 H   0  0  0  0  0  0  0  0  0  0  0  0
    4.2760   10.8630   -7.1401 H   0  0  0  0  0  0  0  0  0  0  0  0
    4.7068   12.4029   -6.2986 H   0  0  0  0  0  0  0  0  0  0  0  0
    6.3947   10.7650   -5.8207 H   0  0  0  0  0  0  0  0  0  0  0  0
    5.6290    8.8190   -4.6000 H   0  0  0  0  0  0  0  0  0  0  0  0
    6.4025   12.9438   -2.9143 H   0  0  0  0  0  0  0  0  0  0  0  0
    7.1912   12.5111   -4.4691 H   0  0  0  0  0  0  0  0  0  0  0  0
    5.5706   13.2860   -4.4691 H   0  0  0  0  0  0  0  0  0  0  0  0
    6.3937   10.4035   -2.0297 H   0  0  0  0  0  0  0  0  0  0  0  0
    6.3459    9.2154   -3.3761 H   0  0  0  0  0  0  0  0  0  0  0  0
    7.5767   10.5237   -3.3761 H   0  0  0  0  0  0  0  0  0  0  0  0
    0.5389   10.3715   -2.6919 H   0  0  0  0  0  0  0  0  0  0  0  0
   -0.0729   11.0840   -4.2231 H   0  0  0  0  0  0  0  0  0  0  0  0
    1.4445   10.1228   -4.2231 H   0  0  0  0  0  0  0  0  0  0  0  0
    1.1498   13.3576   -5.0968 H   0  0  0  0  0  0  0  0  0  0  0  0
   -0.2085   13.0713   -3.8692 H   0  0  0  0  0  0  0  0  0  0  0  0
    2.0636   15.0693   -3.6798 H   0  0  0  0  0  0  0  0  0  0  0  0
    0.2930   15.3877   -3.8523 H   0  0  0  0  0  0  0  0  0  0  0  0
   -0.7237   14.2004   -0.5043 H   0  0  0  0  0  0  0  0  0  0  0  0
   -1.2798   14.9723   -2.0279 H   0  0  0  0  0  0  0  0  0  0  0  0
   -0.7694   13.2501   -2.0279 H   0  0  0  0  0  0  0  0  0  0  0  0
  1  2  1  0
  2  3  1  0
  3  4  1  0
  4  5  1  0
  5  6  1  0
  6  7  1  0
  7  8  1  0
  7  9  1  0
  2 10  1  0
 10 11  1  0
 11 12  1  0
 12 13  1  0
 13 14  1  6
 13 15  1  0
 15 16  1  0
 16 17  1  0
 17 18  2  0
 18 19  1  0
 19 20  1  0
 20 21  1  0
 21 22  1  0
 22 23  1  0
 22 24  1  0
 24 25  1  0
 24 26  1  0
 19 27  1  0
 27 28  1  1
 27 29  1  0
 29 30  1  0
 30 31  1  0
 31 32  1  6
  7  5  1  0
 31 10  1  0
 31 13  1  0
 27 15  1  0
 24 18  1  0
  1 33  1  0
  1 34  1  0
  1 35  1  0
  2 36  1  1
  3 37  1  0
  3 38  1  0
  4 39  1  0
  4 40  1  0
  5 41  1  1
  8 42  1  0
  8 43  1  0
  8 44  1  0
  9 45  1  0
  9 46  1  0
  9 47  1  0
 10 48  1  6
 11 49  1  0
 11 50  1  0
 12 51  1  0
 12 52  1  0
 14 53  1  0
 14 54  1  0
 14 55  1  0
 15 56  1  1
 16 57  1  0
 16 58  1  0
 17 59  1  0
 19 60  1  6
 20 61  1  0
 20 62  1  0
 21 63  1  0
 21 64  1  0
 22 65  1  6
 23 66  1  0
 25 67  1  0
 25 68  1  0
 25 69  1  0
 26 70  1  0
 26 71  1  0
 26 72  1  0
 28 73  1  0
 28 74  1  0
 28 75  1  0
 29 76  1  0
 29 77  1  0
 30 78  1  0
 30 79  1  0
 32 80  1  0
 32 81  1  0
 32 82  1  0
M  END
>  <meeko>  (14) 
{"is_sidechain": [false], "intermolecular_energy": 2.731, "internal_energy": -0.839}

$$$$
EPH_relaxed_0001_pdb2pqr_Repair_34_r2_0001_out
     RDKit          3D

 82 86  0  0  0  0  0  0  0  0999 V2000
   -0.8600   16.3490   -5.8360 C   0  0  0  0  0  0  0  0  0  0  0  0
    0.2260   15.6460   -6.6550 C   0  0  2  0  0  0  0  0  0  0  0  0
   -0.1840   15.4640   -8.1300 C   0  0  0  0  0  0  0  0  0  0  0  0
    0.4480   16.4890   -9.0760 C   0  0  0  0  0  0  0  0  0  0  0  0
    1.8490   16.1090   -9.4480 C   0  0  2  0  0  0  0  0  0  0  0  0
    2.3130   16.6680  -10.6840 O   0  0  0  0  0  0  0  0  0  0  0  0
    2.1910   15.2370  -10.6420 C   0  0  0  0  0  0  0  0  0  0  0  0
    1.1250   14.6900  -11.5390 C   0  0  0  0  0  0  0  0  0  0  0  0
    3.5040   14.5190  -10.6510 C   0  0  0  0  0  0  0  0  0  0  0  0
    0.5510   14.2930   -6.0340 C   0  0  1  0  0  0  0  0  0  0  0  0
    1.8170   13.6410   -6.6510 C   0  0  0  0  0  0  0  0  0  0  0  0
    2.5290   12.8750   -5.5070 C   0  0  0  0  0  0  0  0  0  0  0  0
    1.4910   12.8330   -4.3610 C   0  0  1  0  0  0  0  0  0  0  0  0
    0.5380   11.6520   -4.7270 C   0  0  0  0  0  0  0  0  0  0  0  0
    2.0650   12.6840   -2.9140 C   0  0  2  0  0  0  0  0  0  0  0  0
    2.8390   11.3810   -2.6490 C   0  0  0  0  0  0  0  0  0  0  0  0
    2.0180   10.2440   -2.1380 C   0  0  0  0  0  0  0  0  0  0  0  0
    0.7750   10.3430   -1.6320 C   0  0  0  0  0  0  0  0  0  0  0  0
    0.1060   11.7110   -1.4450 C   0  0  1  0  0  0  0  0  0  0  0  0
   -0.5380   11.7840   -0.0360 C   0  0  0  0  0  0  0  0  0  0  0  0
   -1.4950   10.6260    0.2310 C   0  0  0  0  0  0  0  0  0  0  0  0
   -0.7800    9.2850    0.0920 C   0  0  2  0  0  0  0  0  0  0  0  0
    0.1870    9.1670    1.1400 O   0  0  0  0  0  0  0  0  0  0  0  0
   -0.0830    9.1010   -1.2850 C   0  0  0  0  0  0  0  0  0  0  0  0
   -1.1540    8.9260   -2.3910 C   0  0  0  0  0  0  0  0  0  0  0  0
    0.7170    7.7720   -1.2420 C   0  0  0  0  0  0  0  0  0  0  0  0
    1.0140   12.9750   -1.7670 C   0  0  1  0  0  0  0  0  0  0  0  0
    1.8340   13.3780   -0.5030 C   0  0  0  0  0  0  0  0  0  0  0  0
    0.0850   14.2020   -2.1030 C   0  0  0  0  0  0  0  0  0  0  0  0
   -0.3500   14.3620   -3.5720 C   0  0  0  0  0  0  0  0  0  0  0  0
    0.8530   14.2610   -4.5150 C   0  0  2  0  0  0  0  0  0  0  0  0
    1.8190   15.4500   -4.1850 C   0  0  0  0  0  0  0  0  0  0  0  0
   -0.6544   16.2159   -4.7636 H   0  0  0  0  0  0  0  0  0  0  0  0
   -0.8648   17.4220   -6.0780 H   0  0  0  0  0  0  0  0  0  0  0  0
   -1.8410   15.9141   -6.0780 H   0  0  0  0  0  0  0  0  0  0  0  0
    1.1196   16.2873   -6.6382 H   0  0  0  0  0  0  0  0  0  0  0  0
    0.1216   14.4581   -8.4537 H   0  0  0  0  0  0  0  0  0  0  0  0
   -1.2733   15.6087   -8.1809 H   0  0  0  0  0  0  0  0  0  0  0  0
   -0.1593   16.5518   -9.9910 H   0  0  0  0  0  0  0  0  0  0  0  0
    0.4815   17.4589   -8.5582 H   0  0  0  0  0  0  0  0  0  0  0  0
    2.1409   16.0569   -8.3887 H   0  0  0  0  0  0  0  0  0  0  0  0
    0.3109   14.2722  -10.9285 H   0  0  0  0  0  0  0  0  0  0  0  0
    0.7303   15.4970  -12.1739 H   0  0  0  0  0  0  0  0  0  0  0  0
    1.5504   13.8988  -12.1739 H   0  0  0  0  0  0  0  0  0  0  0  0
    3.8312   14.3401   -9.6161 H   0  0  0  0  0  0  0  0  0  0  0  0
    3.3920   13.5566  -11.1717 H   0  0  0  0  0  0  0  0  0  0  0  0
    4.2539   15.1326  -11.1717 H   0  0  0  0  0  0  0  0  0  0  0  0
   -0.3912   13.7646   -6.2414 H   0  0  0  0  0  0  0  0  0  0  0  0
    1.5316   12.9443   -7.4529 H   0  0  0  0  0  0  0  0  0  0  0  0
    2.4797   14.4022   -7.0885 H   0  0  0  0  0  0  0  0  0  0  0  0
    2.7947   11.8569   -5.8278 H   0  0  0  0  0  0  0  0  0  0  0  0
    3.4682   13.3594   -5.2018 H   0  0  0  0  0  0  0  0  0  0  0  0
    0.1615   11.1854   -3.8048 H   0  0  0  0  0  0  0  0  0  0  0  0
   -0.3085   12.0332   -5.3171 H   0  0  0  0  0  0  0  0  0  0  0  0
    1.0895   10.9052   -5.3171 H   0  0  0  0  0  0  0  0  0  0  0  0
    2.8136   13.4889   -2.8738 H   0  0  0  0  0  0  0  0  0  0  0  0
    3.3063   11.0652   -3.5934 H   0  0  0  0  0  0  0  0  0  0  0  0
    3.5637   11.6139   -1.8549 H   0  0  0  0  0  0  0  0  0  0  0  0
    2.4669    9.2406   -2.1784 H   0  0  0  0  0  0  0  0  0  0  0  0
   -0.6758   11.7760   -2.2161 H   0  0  0  0  0  0  0  0  0  0  0  0
    0.2619   11.7615    0.7188 H   0  0  0  0  0  0  0  0  0  0  0  0
   -1.1192   12.7164    0.0174 H   0  0  0  0  0  0  0  0  0  0  0  0
   -1.8944   10.7170    1.2519 H   0  0  0  0  0  0  0  0  0  0  0  0
   -2.3106   10.6673   -0.5059 H   0  0  0  0  0  0  0  0  0  0  0  0
   -1.5431    8.4961    0.1646 H   0  0  0  0  0  0  0  0  0  0  0  0
   -0.1650    9.6300    1.9190 H   0  0  0  0  0  0  0  0  0  0  0  0
   -2.1380    8.7652   -1.9264 H   0  0  0  0  0  0  0  0  0  0  0  0
   -1.1870    9.8307   -3.0159 H   0  0  0  0  0  0  0  0  0  0  0  0
   -0.8973    8.0579   -3.0159 H   0  0  0  0  0  0  0  0  0  0  0  0
    0.8912    7.4826   -0.1951 H   0  0  0  0  0  0  0  0  0  0  0  0
    0.1440    6.9825   -1.7502 H   0  0  0  0  0  0  0  0  0  0  0  0
    1.6829    7.9089   -1.7502 H   0  0  0  0  0  0  0  0  0  0  0  0
    1.2725   13.1020    0.4017 H   0  0  0  0  0  0  0  0  0  0  0  0
    2.8001   12.8520   -0.5096 H   0  0  0  0  0  0  0  0  0  0  0  0
    2.0078   14.4642   -0.5096 H   0  0  0  0  0  0  0  0  0  0  0  0
   -0.8264   14.1058   -1.4946 H   0  0  0  0  0  0  0  0  0  0  0  0
    0.6933   15.0920   -1.8844 H   0  0  0  0  0  0  0  0  0  0  0  0
   -1.0706   13.5694   -3.8221 H   0  0  0  0  0  0  0  0  0  0  0  0
   -0.8096   15.3537   -3.6953 H   0  0  0  0  0  0  0  0  0  0  0  0
    1.9073   15.5587   -3.0940 H   0  0  0  0  0  0  0  0  0  0  0  0
    2.8110   15.2466   -4.6147 H   0  0  0  0  0  0  0  0  0  0  0  0
    1.4168   16.3793   -4.6147 H   0  0  0  0  0  0  0  0  0  0  0  0
  1  2  1  0
  2  3  1  0
  3  4  1  0
  4  5  1  0
  5  6  1  0
  6  7  1  0
  7  8  1  0
  7  9  1  0
  2 10  1  0
 10 11  1  0
 11 12  1  0
 12 13  1  0
 13 14  1  6
 13 15  1  0
 15 16  1  0
 16 17  1  0
 17 18  2  0
 18 19  1  0
 19 20  1  0
 20 21  1  0
 21 22  1  0
 22 23  1  0
 22 24  1  0
 24 25  1  0
 24 26  1  0
 19 27  1  0
 27 28  1  1
 27 29  1  0
 29 30  1  0
 30 31  1  0
 31 32  1  1
  7  5  1  0
 31 10  1  0
 31 13  1  0
 27 15  1  0
 24 18  1  0
  1 33  1  0
  1 34  1  0
  1 35  1  0
  2 36  1  6
  3 37  1  0
  3 38  1  0
  4 39  1  0
  4 40  1  0
  5 41  1  1
  8 42  1  0
  8 43  1  0
  8 44  1  0
  9 45  1  0
  9 46  1  0
  9 47  1  0
 10 48  1  1
 11 49  1  0
 11 50  1  0
 12 51  1  0
 12 52  1  0
 14 53  1  0
 14 54  1  0
 14 55  1  0
 15 56  1  6
 16 57  1  0
 16 58  1  0
 17 59  1  0
 19 60  1  6
 20 61  1  0
 20 62  1  0
 21 63  1  0
 21 64  1  0
 22 65  1  1
 23 66  1  0
 25 67  1  0
 25 68  1  0
 25 69  1  0
 26 70  1  0
 26 71  1  0
 26 72  1  0
 28 73  1  0
 28 74  1  0
 28 75  1  0
 29 76  1  0
 29 77  1  0
 30 78  1  0
 30 79  1  0
 32 80  1  0
 32 81  1  0
 32 82  1  0
M  END
>  <meeko>  (15) 
{"is_sidechain": [false], "intermolecular_energy": 2.731, "internal_energy": -0.839}

$$$$
EPH_relaxed_0001_pdb2pqr_Repair_34_r2_0001_out
     RDKit          3D

 82 86  0  0  0  0  0  0  0  0999 V2000
   -0.2840   15.0500   -7.6480 C   0  0  0  0  0  0  0  0  0  0  0  0
    1.0790   15.0460   -6.9510 C   0  0  2  0  0  0  0  0  0  0  0  0
    2.2450   15.1470   -7.9550 C   0  0  0  0  0  0  0  0  0  0  0  0
    2.2860   16.4730   -8.7190 C   0  0  0  0  0  0  0  0  0  0  0  0
    1.8860   16.2990  -10.1530 C   0  0  2  0  0  0  0  0  0  0  0  0
    1.1930   15.0760  -10.4370 O   0  0  0  0  0  0  0  0  0  0  0  0
    2.4760   15.2380  -11.0630 C   0  0  0  0  0  0  0  0  0  0  0  0
    3.5170   14.2810  -10.5730 C   0  0  0  0  0  0  0  0  0  0  0  0
    2.4020   15.4440  -12.5440 C   0  0  0  0  0  0  0  0  0  0  0  0
    1.2270   13.7860   -6.1060 C   0  0  1  0  0  0  0  0  0  0  0  0
    2.6600   13.1940   -6.1620 C   0  0  0  0  0  0  0  0  0  0  0  0
    2.9530   12.5980   -4.7610 C   0  0  0  0  0  0  0  0  0  0  0  0
    1.5780   12.5670   -4.0550 C   0  0  1  0  0  0  0  0  0  0  0  0
    0.8780   11.2810   -4.5950 C   0  0  0  0  0  0  0  0  0  0  0  0
    1.6030   12.5980   -2.4920 C   0  0  2  0  0  0  0  0  0  0  0  0
    2.2950   11.3960   -1.8270 C   0  0  0  0  0  0  0  0  0  0  0  0
    1.4020   10.2410   -1.5100 C   0  0  0  0  0  0  0  0  0  0  0  0
    0.0570   10.2760   -1.4860 C   0  0  0  0  0  0  0  0  0  0  0  0
   -0.7010   11.5930   -1.7010 C   0  0  1  0  0  0  0  0  0  0  0  0
   -1.8090   11.7340   -0.6250 C   0  0  0  0  0  0  0  0  0  0  0  0
   -2.7400   10.5260   -0.5820 C   0  0  0  0  0  0  0  0  0  0  0  0
   -1.9570    9.2440   -0.3080 C   0  0  2  0  0  0  0  0  0  0  0  0
   -1.4230    9.3050    1.0190 O   0  0  0  0  0  0  0  0  0  0  0  0
   -0.8060    9.0010   -1.3230 C   0  0  0  0  0  0  0  0  0  0  0  0
   -1.4000    8.6360   -2.7060 C   0  0  0  0  0  0  0  0  0  0  0  0
   -0.0090    7.7540   -0.8510 C   0  0  0  0  0  0  0  0  0  0  0  0
    0.1980   12.8970   -1.8270 C   0  0  1  0  0  0  0  0  0  0  0  0
    0.4910   13.4800   -0.4100 C   0  0  0  0  0  0  0  0  0  0  0  0
   -0.6080   14.0040   -2.6040 C   0  0  0  0  0  0  0  0  0  0  0  0
   -0.4970   13.9950   -4.1410 C   0  0  0  0  0  0  0  0  0  0  0  0
    0.9670   13.9160   -4.5840 C   0  0  2  0  0  0  0  0  0  0  0  0
    1.6920   15.2080   -4.0740 C   0  0  0  0  0  0  0  0  0  0  0  0
   -1.0826   15.0523   -6.8916 H   0  0  0  0  0  0  0  0  0  0  0  0
   -0.3717   15.9484   -8.2766 H   0  0  0  0  0  0  0  0  0  0  0  0
   -0.3770   14.1521   -8.2766 H   0  0  0  0  0  0  0  0  0  0  0  0
    1.1225   15.9347   -6.3042 H   0  0  0  0  0  0  0  0  0  0  0  0
    3.1896   15.0351   -7.4026 H   0  0  0  0  0  0  0  0  0  0  0  0
    2.0977   14.3512   -8.6999 H   0  0  0  0  0  0  0  0  0  0  0  0
    1.5951   17.1821   -8.2397 H   0  0  0  0  0  0  0  0  0  0  0  0
    3.3187   16.8512   -8.6944 H   0  0  0  0  0  0  0  0  0  0  0  0
    1.7556   17.3846  -10.2731 H   0  0  0  0  0  0  0  0  0  0  0  0
    3.5221   14.2763   -9.4730 H   0  0  0  0  0  0  0  0  0  0  0  0
    3.2892   13.2704  -10.9429 H   0  0  0  0  0  0  0  0  0  0  0  0
    4.5049   14.5928  -10.9429 H   0  0  0  0  0  0  0  0  0  0  0  0
    2.0370   16.4600  -12.7551 H   0  0  0  0  0  0  0  0  0  0  0  0
    3.4026   15.3153  -12.9825 H   0  0  0  0  0  0  0  0  0  0  0  0
    1.7120   14.7080  -12.9825 H   0  0  0  0  0  0  0  0  0  0  0  0
    0.4489   13.1612   -6.5688 H   0  0  0  0  0  0  0  0  0  0  0  0
    2.7147   12.4062   -6.9277 H   0  0  0  0  0  0  0  0  0  0  0  0
    3.3969   13.9675   -6.4240 H   0  0  0  0  0  0  0  0  0  0  0  0
    3.3669   11.5827   -4.8497 H   0  0  0  0  0  0  0  0  0  0  0  0
    3.6950   13.1884   -4.2034 H   0  0  0  0  0  0  0  0  0  0  0  0
    0.5420   10.6637   -3.7488 H   0  0  0  0  0  0  0  0  0  0  0  0
    0.0105   11.5658   -5.2084 H   0  0  0  0  0  0  0  0  0  0  0  0
    1.5882   10.7071   -5.2084 H   0  0  0  0  0  0  0  0  0  0  0  0
    2.2459   13.4658   -2.2834 H   0  0  0  0  0  0  0  0  0  0  0  0
    3.0838   11.0396   -2.5058 H   0  0  0  0  0  0  0  0  0  0  0  0
    2.6762   11.7600   -0.8615 H   0  0  0  0  0  0  0  0  0  0  0  0
    1.8848    9.2806   -1.2764 H   0  0  0  0  0  0  0  0  0  0  0  0
   -1.1578   11.5223   -2.6992 H   0  0  0  0  0  0  0  0  0  0  0  0
   -1.3319   11.8467    0.3597 H   0  0  0  0  0  0  0  0  0  0  0  0
   -2.4158   12.6141   -0.8840 H   0  0  0  0  0  0  0  0  0  0  0  0
   -3.4827   10.6719    0.2162 H   0  0  0  0  0  0  0  0  0  0  0  0
   -3.2384   10.4315   -1.5580 H   0  0  0  0  0  0  0  0  0  0  0  0
   -2.6551    8.4010   -0.4174 H   0  0  0  0  0  0  0  0  0  0  0  0
   -1.4610    8.4080    1.3920 H   0  0  0  0  0  0  0  0  0  0  0  0
   -2.3296    8.0648   -2.5666 H   0  0  0  0  0  0  0  0  0  0  0  0
   -1.6163    9.5572   -3.2668 H   0  0  0  0  0  0  0  0  0  0  0  0
   -0.6759    8.0268   -3.2668 H   0  0  0  0  0  0  0  0  0  0  0  0
    0.0094    7.7252    0.2485 H   0  0  0  0  0  0  0  0  0  0  0  0
   -0.4928    6.8432   -1.2336 H   0  0  0  0  0  0  0  0  0  0  0  0
    1.0208    7.8106   -1.2336 H   0  0  0  0  0  0  0  0  0  0  0  0
    0.1369   12.7753    0.3568 H   0  0  0  0  0  0  0  0  0  0  0  0
    1.5739   13.6346   -0.2938 H   0  0  0  0  0  0  0  0  0  0  0  0
   -0.0311   14.4412   -0.2938 H   0  0  0  0  0  0  0  0  0  0  0  0
   -1.6707   13.8841   -2.3465 H   0  0  0  0  0  0  0  0  0  0  0  0
   -0.1619   14.9589   -2.2890 H   0  0  0  0  0  0  0  0  0  0  0  0
   -1.0401   13.1238   -4.5360 H   0  0  0  0  0  0  0  0  0  0  0  0
   -0.9314   14.9279   -4.5297 H   0  0  0  0  0  0  0  0  0  0  0  0
    1.6965   15.2160   -2.9740 H   0  0  0  0  0  0  0  0  0  0  0  0
    2.7275   15.2180   -4.4450 H   0  0  0  0  0  0  0  0  0  0  0  0
    1.1610   16.0971   -4.4450 H   0  0  0  0  0  0  0  0  0  0  0  0
  1  2  1  0
  2  3  1  0
  3  4  1  0
  4  5  1  0
  5  6  1  0
  6  7  1  0
  7  8  1  0
  7  9  1  0
  2 10  1  0
 10 11  1  0
 11 12  1  0
 12 13  1  0
 13 14  1  1
 13 15  1  0
 15 16  1  0
 16 17  1  0
 17 18  2  0
 18 19  1  0
 19 20  1  0
 20 21  1  0
 21 22  1  0
 22 23  1  0
 22 24  1  0
 24 25  1  0
 24 26  1  0
 19 27  1  0
 27 28  1  1
 27 29  1  0
 29 30  1  0
 30 31  1  0
 31 32  1  1
  7  5  1  0
 31 10  1  0
 31 13  1  0
 27 15  1  0
 24 18  1  0
  1 33  1  0
  1 34  1  0
  1 35  1  0
  2 36  1  1
  3 37  1  0
  3 38  1  0
  4 39  1  0
  4 40  1  0
  5 41  1  6
  8 42  1  0
  8 43  1  0
  8 44  1  0
  9 45  1  0
  9 46  1  0
  9 47  1  0
 10 48  1  6
 11 49  1  0
 11 50  1  0
 12 51  1  0
 12 52  1  0
 14 53  1  0
 14 54  1  0
 14 55  1  0
 15 56  1  6
 16 57  1  0
 16 58  1  0
 17 59  1  0
 19 60  1  6
 20 61  1  0
 20 62  1  0
 21 63  1  0
 21 64  1  0
 22 65  1  1
 23 66  1  0
 25 67  1  0
 25 68  1  0
 25 69  1  0
 26 70  1  0
 26 71  1  0
 26 72  1  0
 28 73  1  0
 28 74  1  0
 28 75  1  0
 29 76  1  0
 29 77  1  0
 30 78  1  0
 30 79  1  0
 32 80  1  0
 32 81  1  0
 32 82  1  0
M  END
>  <meeko>  (16) 
{"is_sidechain": [false], "intermolecular_energy": 2.731, "internal_energy": -0.839}

$$$$
EPH_relaxed_0001_pdb2pqr_Repair_34_r2_0001_out
     RDKit          3D

 82 86  0  0  0  0  0  0  0  0999 V2000
   -2.3090    7.8460   -2.1690 C   0  0  0  0  0  0  0  0  0  0  0  0
   -2.2490    8.4480   -0.7630 C   0  0  2  0  0  0  0  0  0  0  0  0
   -3.6220    8.4280   -0.0630 C   0  0  0  0  0  0  0  0  0  0  0  0
   -4.8070    8.5000   -1.0300 C   0  0  0  0  0  0  0  0  0  0  0  0
   -5.6000    7.2290   -1.0310 C   0  0  2  0  0  0  0  0  0  0  0  0
   -5.6750    6.5700   -2.3020 O   0  0  0  0  0  0  0  0  0  0  0  0
   -6.9150    7.0630   -1.7700 C   0  0  0  0  0  0  0  0  0  0  0  0
   -7.5130    8.1850   -2.5600 C   0  0  0  0  0  0  0  0  0  0  0  0
   -7.8530    5.9830   -1.3290 C   0  0  0  0  0  0  0  0  0  0  0  0
   -1.7200    9.8760   -0.8310 C   0  0  1  0  0  0  0  0  0  0  0  0
   -1.2890   10.4210    0.5560 C   0  0  0  0  0  0  0  0  0  0  0  0
   -0.0650   11.3410    0.3150 C   0  0  0  0  0  0  0  0  0  0  0  0
   -0.0380   11.5600   -1.2160 C   0  0  1  0  0  0  0  0  0  0  0  0
   -1.0920   12.6810   -1.4800 C   0  0  0  0  0  0  0  0  0  0  0  0
    1.3520   11.9160   -1.8390 C   0  0  2  0  0  0  0  0  0  0  0  0
    1.9670   13.2390   -1.3480 C   0  0  0  0  0  0  0  0  0  0  0  0
    1.6120   14.4450   -2.1530 C   0  0  0  0  0  0  0  0  0  0  0  0
    1.0670   14.4310   -3.3830 C   0  0  0  0  0  0  0  0  0  0  0  0
    0.8440   13.1110   -4.1310 C   0  0  1  0  0  0  0  0  0  0  0  0
    1.3470   13.2510   -5.5920 C   0  0  0  0  0  0  0  0  0  0  0  0
    0.7240   14.4430   -6.3130 C   0  0  0  0  0  0  0  0  0  0  0  0
    1.0180   15.7440   -5.5700 C   0  0  2  0  0  0  0  0  0  0  0  0
    2.4220   16.0070   -5.6390 O   0  0  0  0  0  0  0  0  0  0  0  0
    0.5630   15.7170   -4.0840 C   0  0  0  0  0  0  0  0  0  0  0  0
   -0.9840   15.7350   -4.0130 C   0  0  0  0  0  0  0  0  0  0  0  0
    1.0440   17.0320   -3.4140 C   0  0  0  0  0  0  0  0  0  0  0  0
    1.4030   11.8060   -3.4170 C   0  0  1  0  0  0  0  0  0  0  0  0
    2.8980   11.5880   -3.8000 C   0  0  0  0  0  0  0  0  0  0  0  0
    0.6200   10.5500   -3.9540 C   0  0  0  0  0  0  0  0  0  0  0  0
   -0.6840   10.1780   -3.2210 C   0  0  0  0  0  0  0  0  0  0  0  0
   -0.4670   10.1290   -1.7060 C   0  0  2  0  0  0  0  0  0  0  0  0
    0.5730    8.9950   -1.4080 C   0  0  0  0  0  0  0  0  0  0  0  0
   -2.4179    6.7538   -2.0959 H   0  0  0  0  0  0  0  0  0  0  0  0
   -3.1699    8.2648   -2.7108 H   0  0  0  0  0  0  0  0  0  0  0  0
   -1.3824    8.0867   -2.7108 H   0  0  0  0  0  0  0  0  0  0  0  0
   -1.5655    7.8261   -0.1663 H   0  0  0  0  0  0  0  0  0  0  0  0
   -3.7028    7.4966    0.5165 H   0  0  0  0  0  0  0  0  0  0  0  0
   -3.6715    9.3239    0.5734 H   0  0  0  0  0  0  0  0  0  0  0  0
   -5.4635    9.3294   -0.7281 H   0  0  0  0  0  0  0  0  0  0  0  0
   -4.4123    8.6585   -2.0445 H   0  0  0  0  0  0  0  0  0  0  0  0
   -5.3053    7.0177    0.0075 H   0  0  0  0  0  0  0  0  0  0  0  0
   -7.9169    8.9429   -1.8726 H   0  0  0  0  0  0  0  0  0  0  0  0
   -6.7382    8.6408   -3.1940 H   0  0  0  0  0  0  0  0  0  0  0  0
   -8.3234    7.7959   -3.1940 H   0  0  0  0  0  0  0  0  0  0  0  0
   -7.8824    5.9491   -0.2299 H   0  0  0  0  0  0  0  0  0  0  0  0
   -8.8610    6.1921   -1.7165 H   0  0  0  0  0  0  0  0  0  0  0  0
   -7.5048    5.0142   -1.7165 H   0  0  0  0  0  0  0  0  0  0  0  0
   -2.5948   10.3753   -1.2731 H   0  0  0  0  0  0  0  0  0  0  0  0
   -2.1107   10.9949    1.0094 H   0  0  0  0  0  0  0  0  0  0  0  0
   -1.0360    9.5990    1.2418 H   0  0  0  0  0  0  0  0  0  0  0  0
   -0.1889   12.2984    0.8423 H   0  0  0  0  0  0  0  0  0  0  0  0
    0.8698   10.8989    0.6900 H   0  0  0  0  0  0  0  0  0  0  0  0
   -1.4597   13.0721   -0.5198 H   0  0  0  0  0  0  0  0  0  0  0  0
   -0.6251   13.4956   -2.0531 H   0  0  0  0  0  0  0  0  0  0  0  0
   -1.9338   12.2652   -2.0531 H   0  0  0  0  0  0  0  0  0  0  0  0
    1.9990   11.1196   -1.4427 H   0  0  0  0  0  0  0  0  0  0  0  0
    1.6288   13.4083   -0.3151 H   0  0  0  0  0  0  0  0  0  0  0  0
    3.0567   13.1210   -1.4412 H   0  0  0  0  0  0  0  0  0  0  0  0
    1.8130   15.4282   -1.7025 H   0  0  0  0  0  0  0  0  0  0  0  0
   -0.2425   12.9393   -4.1249 H   0  0  0  0  0  0  0  0  0  0  0  0
    2.4395   13.3787   -5.5782 H   0  0  0  0  0  0  0  0  0  0  0  0
    1.0530   12.3409   -6.1353 H   0  0  0  0  0  0  0  0  0  0  0  0
    1.1401   14.5068   -7.3293 H   0  0  0  0  0  0  0  0  0  0  0  0
   -0.3659   14.2994   -6.3522 H   0  0  0  0  0  0  0  0  0  0  0  0
    0.4404   16.5417   -6.0600 H   0  0  0  0  0  0  0  0  0  0  0  0
    2.6930   16.3870   -4.7860 H   0  0  0  0  0  0  0  0  0  0  0  0
   -1.3027   15.7387   -2.9602 H   0  0  0  0  0  0  0  0  0  0  0  0
   -1.3636   16.6376   -4.5142 H   0  0  0  0  0  0  0  0  0  0  0  0
   -1.3845   14.8415   -4.5142 H   0  0  0  0  0  0  0  0  0  0  0  0
    1.0038   16.9222   -2.3202 H   0  0  0  0  0  0  0  0  0  0  0  0
    2.0780   17.2443   -3.7235 H   0  0  0  0  0  0  0  0  0  0  0  0
    0.3910   17.8614   -3.7235 H   0  0  0  0  0  0  0  0  0  0  0  0
    3.5019   11.4999   -2.8848 H   0  0  0  0  0  0  0  0  0  0  0  0
    2.9940   10.6664   -4.3927 H   0  0  0  0  0  0  0  0  0  0  0  0
    3.2532   12.4438   -4.3927 H   0  0  0  0  0  0  0  0  0  0  0  0
    0.3668   10.7411   -5.0073 H   0  0  0  0  0  0  0  0  0  0  0  0
    1.2957    9.6977   -3.7895 H   0  0  0  0  0  0  0  0  0  0  0  0
   -1.4528   10.9307   -3.4501 H   0  0  0  0  0  0  0  0  0  0  0  0
   -1.0057    9.1827   -3.5614 H   0  0  0  0  0  0  0  0  0  0  0  0
    0.6830    8.8750   -0.3201 H   0  0  0  0  0  0  0  0  0  0  0  0
    0.2210    8.0500   -1.8474 H   0  0  0  0  0  0  0  0  0  0  0  0
    1.5449    9.2641   -1.8474 H   0  0  0  0  0  0  0  0  0  0  0  0
  1  2  1  0
  2  3  1  0
  3  4  1  0
  4  5  1  0
  5  6  1  0
  6  7  1  0
  7  8  1  0
  7  9  1  0
  2 10  1  0
 10 11  1  0
 11 12  1  0
 12 13  1  0
 13 14  1  1
 13 15  1  0
 15 16  1  0
 16 17  1  0
 17 18  2  0
 18 19  1  0
 19 20  1  0
 20 21  1  0
 21 22  1  0
 22 23  1  0
 22 24  1  0
 24 25  1  0
 24 26  1  0
 19 27  1  0
 27 28  1  1
 27 29  1  0
 29 30  1  0
 30 31  1  0
 31 32  1  6
  7  5  1  0
 31 10  1  0
 31 13  1  0
 27 15  1  0
 24 18  1  0
  1 33  1  0
  1 34  1  0
  1 35  1  0
  2 36  1  1
  3 37  1  0
  3 38  1  0
  4 39  1  0
  4 40  1  0
  5 41  1  1
  8 42  1  0
  8 43  1  0
  8 44  1  0
  9 45  1  0
  9 46  1  0
  9 47  1  0
 10 48  1  6
 11 49  1  0
 11 50  1  0
 12 51  1  0
 12 52  1  0
 14 53  1  0
 14 54  1  0
 14 55  1  0
 15 56  1  1
 16 57  1  0
 16 58  1  0
 17 59  1  0
 19 60  1  6
 20 61  1  0
 20 62  1  0
 21 63  1  0
 21 64  1  0
 22 65  1  6
 23 66  1  0
 25 67  1  0
 25 68  1  0
 25 69  1  0
 26 70  1  0
 26 71  1  0
 26 72  1  0
 28 73  1  0
 28 74  1  0
 28 75  1  0
 29 76  1  0
 29 77  1  0
 30 78  1  0
 30 79  1  0
 32 80  1  0
 32 81  1  0
 32 82  1  0
M  END
>  <meeko>  (17) 
{"is_sidechain": [false], "intermolecular_energy": 2.731, "internal_energy": -0.839}

$$$$
EPH_relaxed_0001_pdb2pqr_Repair_34_r2_0001_out
     RDKit          3D

 82 86  0  0  0  0  0  0  0  0999 V2000
    0.1510    9.2550   -2.0380 C   0  0  0  0  0  0  0  0  0  0  0  0
    1.1310   10.2910   -2.5960 C   0  0  2  0  0  0  0  0  0  0  0  0
    2.5500    9.7140   -2.7680 C   0  0  0  0  0  0  0  0  0  0  0  0
    3.3900   10.4480   -3.8160 C   0  0  0  0  0  0  0  0  0  0  0  0
    4.7820   10.7100   -3.3270 C   0  0  2  0  0  0  0  0  0  0  0  0
    5.3780   11.9130   -3.8310 O   0  0  0  0  0  0  0  0  0  0  0  0
    6.0040   10.6820   -4.2270 C   0  0  0  0  0  0  0  0  0  0  0  0
    5.8900   10.3830   -5.6890 C   0  0  0  0  0  0  0  0  0  0  0  0
    7.3470   10.4610   -3.6030 C   0  0  0  0  0  0  0  0  0  0  0  0
    1.1710   11.5120   -1.6840 C   0  0  1  0  0  0  0  0  0  0  0  0
    2.2660   11.4030   -0.5890 C   0  0  0  0  0  0  0  0  0  0  0  0
    2.8150   12.8360   -0.3610 C   0  0  0  0  0  0  0  0  0  0  0  0
    1.8020   13.7590   -1.0790 C   0  0  1  0  0  0  0  0  0  0  0  0
    0.6200   13.9160   -0.0720 C   0  0  0  0  0  0  0  0  0  0  0  0
    2.3470   15.1470   -1.5500 C   0  0  2  0  0  0  0  0  0  0  0  0
    2.8340   16.0740   -0.4230 C   0  0  0  0  0  0  0  0  0  0  0  0
    1.7990   16.9880    0.1430 C   0  0  0  0  0  0  0  0  0  0  0  0
    0.6090   17.2670   -0.4210 C   0  0  0  0  0  0  0  0  0  0  0  0
    0.2440   16.7130   -1.8040 C   0  0  1  0  0  0  0  0  0  0  0  0
   -0.3570   17.8480   -2.6740 C   0  0  0  0  0  0  0  0  0  0  0  0
   -1.5320   18.5450   -1.9960 C   0  0  0  0  0  0  0  0  0  0  0  0
   -1.1150   19.1330   -0.6500 C   0  0  2  0  0  0  0  0  0  0  0  0
   -0.1830   20.1940   -0.8800 O   0  0  0  0  0  0  0  0  0  0  0  0
   -0.4860   18.0840    0.3080 C   0  0  0  0  0  0  0  0  0  0  0  0
   -1.5810   17.1030    0.7960 C   0  0  0  0  0  0  0  0  0  0  0  0
    0.0190   18.8330    1.5710 C   0  0  0  0  0  0  0  0  0  0  0  0
    1.3920   15.9110   -2.5550 C   0  0  1  0  0  0  0  0  0  0  0  0
    2.2910   16.8980   -3.3600 C   0  0  0  0  0  0  0  0  0  0  0  0
    0.7380   14.9430   -3.6100 C   0  0  0  0  0  0  0  0  0  0  0  0
    0.3300   13.5440   -3.1120 C   0  0  0  0  0  0  0  0  0  0  0  0
    1.4760   12.8810   -2.3410 C   0  0  2  0  0  0  0  0  0  0  0  0
    2.6730   12.6900   -3.3340 C   0  0  0  0  0  0  0  0  0  0  0  0
    0.1760    9.2815   -0.9386 H   0  0  0  0  0  0  0  0  0  0  0  0
   -0.8660    9.4869   -2.3873 H   0  0  0  0  0  0  0  0  0  0  0  0
    0.4390    8.2525   -2.3873 H   0  0  0  0  0  0  0  0  0  0  0  0
    0.7714   10.5839   -3.5934 H   0  0  0  0  0  0  0  0  0  0  0  0
    3.0698    9.7763   -1.8006 H   0  0  0  0  0  0  0  0  0  0  0  0
    2.4352    8.6771   -3.1169 H   0  0  0  0  0  0  0  0  0  0  0  0
    3.4419    9.8323   -4.7261 H   0  0  0  0  0  0  0  0  0  0  0  0
    2.9111   11.4167   -4.0219 H   0  0  0  0  0  0  0  0  0  0  0  0
    4.5614   10.2219   -2.3662 H   0  0  0  0  0  0  0  0  0  0  0  0
    5.5011    9.3631   -5.8254 H   0  0  0  0  0  0  0  0  0  0  0  0
    5.2033   11.1030   -6.1581 H   0  0  0  0  0  0  0  0  0  0  0  0
    6.8817   10.4631   -6.1581 H   0  0  0  0  0  0  0  0  0  0  0  0
    7.2494   10.4771   -2.5075 H   0  0  0  0  0  0  0  0  0  0  0  0
    7.7433    9.4856   -3.9216 H   0  0  0  0  0  0  0  0  0  0  0  0
    8.0350   11.2580   -3.9216 H   0  0  0  0  0  0  0  0  0  0  0  0
    0.1368   11.4969   -1.3097 H   0  0  0  0  0  0  0  0  0  0  0  0
    1.8323   11.0108    0.3427 H   0  0  0  0  0  0  0  0  0  0  0  0
    3.0682   10.7174   -0.8995 H   0  0  0  0  0  0  0  0  0  0  0  0
    2.8593   13.0688    0.7132 H   0  0  0  0  0  0  0  0  0  0  0  0
    3.8378   12.9579   -0.7470 H   0  0  0  0  0  0  0  0  0  0  0  0
    1.0056   13.8648    0.9569 H   0  0  0  0  0  0  0  0  0  0  0  0
    0.1289   14.8873   -0.2316 H   0  0  0  0  0  0  0  0  0  0  0  0
   -0.1076   13.1066   -0.2316 H   0  0  0  0  0  0  0  0  0  0  0  0
    3.2478   14.8667   -2.1157 H   0  0  0  0  0  0  0  0  0  0  0  0
    3.2147   15.4441    0.3945 H   0  0  0  0  0  0  0  0  0  0  0  0
    3.5998   16.7231   -0.8726 H   0  0  0  0  0  0  0  0  0  0  0  0
    2.0279   17.4750    1.1024 H   0  0  0  0  0  0  0  0  0  0  0  0
   -0.5139   15.9350   -1.6296 H   0  0  0  0  0  0  0  0  0  0  0  0
    0.4276   18.5928   -2.8730 H   0  0  0  0  0  0  0  0  0  0  0  0
   -0.7296   17.3940   -3.6041 H   0  0  0  0  0  0  0  0  0  0  0  0
   -1.8938   19.3552   -2.6462 H   0  0  0  0  0  0  0  0  0  0  0  0
   -2.3276   17.8050   -1.8245 H   0  0  0  0  0  0  0  0  0  0  0  0
   -2.0250   19.5034   -0.1554 H   0  0  0  0  0  0  0  0  0  0  0  0
    0.5560   19.8300   -1.3970 H   0  0  0  0  0  0  0  0  0  0  0  0
   -1.5968   17.0888    1.8958 H   0  0  0  0  0  0  0  0  0  0  0  0
   -2.5612   17.4307    0.4194 H   0  0  0  0  0  0  0  0  0  0  0  0
   -1.3626   16.0928    0.4194 H   0  0  0  0  0  0  0  0  0  0  0  0
   -0.3333   18.3104    2.4726 H   0  0  0  0  0  0  0  0  0  0  0  0
    1.1187   18.8575    1.5676 H   0  0  0  0  0  0  0  0  0  0  0  0
   -0.3707   19.8617    1.5676 H   0  0  0  0  0  0  0  0  0  0  0  0
    2.8630   17.5260   -2.6612 H   0  0  0  0  0  0  0  0  0  0  0  0
    2.9861   16.3274   -3.9934 H   0  0  0  0  0  0  0  0  0  0  0  0
    1.6581   17.5370   -3.9934 H   0  0  0  0  0  0  0  0  0  0  0  0
   -0.1666   15.4351   -3.9968 H   0  0  0  0  0  0  0  0  0  0  0  0
    1.5226   14.7633   -4.3598 H   0  0  0  0  0  0  0  0  0  0  0  0
   -0.5427   13.6383   -2.4490 H   0  0  0  0  0  0  0  0  0  0  0  0
    0.0855   12.9188   -3.9834 H   0  0  0  0  0  0  0  0  0  0  0  0
    3.6021   12.5417   -2.7641 H   0  0  0  0  0  0  0  0  0  0  0  0
    2.4871   11.8102   -3.9675 H   0  0  0  0  0  0  0  0  0  0  0  0
    2.7701   13.5840   -3.9675 H   0  0  0  0  0  0  0  0  0  0  0  0
  1  2  1  0
  2  3  1  0
  3  4  1  0
  4  5  1  0
  5  6  1  0
  6  7  1  0
  7  8  1  0
  7  9  1  0
  2 10  1  0
 10 11  1  0
 11 12  1  0
 12 13  1  0
 13 14  1  1
 13 15  1  0
 15 16  1  0
 16 17  1  0
 17 18  2  0
 18 19  1  0
 19 20  1  0
 20 21  1  0
 21 22  1  0
 22 23  1  0
 22 24  1  0
 24 25  1  0
 24 26  1  0
 19 27  1  0
 27 28  1  6
 27 29  1  0
 29 30  1  0
 30 31  1  0
 31 32  1  6
  7  5  1  0
 31 10  1  0
 31 13  1  0
 27 15  1  0
 24 18  1  0
  1 33  1  0
  1 34  1  0
  1 35  1  0
  2 36  1  6
  3 37  1  0
  3 38  1  0
  4 39  1  0
  4 40  1  0
  5 41  1  1
  8 42  1  0
  8 43  1  0
  8 44  1  0
  9 45  1  0
  9 46  1  0
  9 47  1  0
 10 48  1  1
 11 49  1  0
 11 50  1  0
 12 51  1  0
 12 52  1  0
 14 53  1  0
 14 54  1  0
 14 55  1  0
 15 56  1  6
 16 57  1  0
 16 58  1  0
 17 59  1  0
 19 60  1  1
 20 61  1  0
 20 62  1  0
 21 63  1  0
 21 64  1  0
 22 65  1  1
 23 66  1  0
 25 67  1  0
 25 68  1  0
 25 69  1  0
 26 70  1  0
 26 71  1  0
 26 72  1  0
 28 73  1  0
 28 74  1  0
 28 75  1  0
 29 76  1  0
 29 77  1  0
 30 78  1  0
 30 79  1  0
 32 80  1  0
 32 81  1  0
 32 82  1  0
M  END
>  <meeko>  (18) 
{"is_sidechain": [false], "intermolecular_energy": 2.731, "internal_energy": -0.839}

$$$$
EPH_relaxed_0001_pdb2pqr_Repair_34_r2_0001_out
     RDKit          3D

 82 86  0  0  0  0  0  0  0  0999 V2000
    2.8330   11.3510   -5.3660 C   0  0  0  0  0  0  0  0  0  0  0  0
    1.8200   11.0460   -4.2580 C   0  0  2  0  0  0  0  0  0  0  0  0
    0.6990   10.1030   -4.7390 C   0  0  0  0  0  0  0  0  0  0  0  0
   -0.3730    9.8310   -3.6810 C   0  0  0  0  0  0  0  0  0  0  0  0
    0.1700    9.0350   -2.5330 C   0  0  2  0  0  0  0  0  0  0  0  0
   -0.6570    7.9390   -2.1210 O   0  0  0  0  0  0  0  0  0  0  0  0
   -0.4790    8.9940   -1.1620 C   0  0  0  0  0  0  0  0  0  0  0  0
   -1.7280    9.7640   -0.8670 C   0  0  0  0  0  0  0  0  0  0  0  0
    0.3590    8.6050    0.0150 C   0  0  0  0  0  0  0  0  0  0  0  0
    1.2190   12.3430   -3.7310 C   0  0  1  0  0  0  0  0  0  0  0  0
   -0.3200   12.2590   -3.5520 C   0  0  0  0  0  0  0  0  0  0  0  0
   -0.6730   13.1150   -2.3080 C   0  0  0  0  0  0  0  0  0  0  0  0
    0.6120   13.9240   -2.0140 C   0  0  1  0  0  0  0  0  0  0  0  0
    0.5660   15.1250   -3.0100 C   0  0  0  0  0  0  0  0  0  0  0  0
    0.8030   14.4050   -0.5390 C   0  0  2  0  0  0  0  0  0  0  0  0
   -0.2730   15.3760   -0.0240 C   0  0  0  0  0  0  0  0  0  0  0  0
    0.0210   16.8240   -0.2380 C   0  0  0  0  0  0  0  0  0  0  0  0
    1.2220   17.3400   -0.5580 C   0  0  0  0  0  0  0  0  0  0  0  0
    2.4660   16.4450   -0.6420 C   0  0  1  0  0  0  0  0  0  0  0  0
    3.6420   17.1230    0.1090 C   0  0  0  0  0  0  0  0  0  0  0  0
    3.9100   18.5420   -0.3820 C   0  0  0  0  0  0  0  0  0  0  0  0
    2.6680   19.4160   -0.2290 C   0  0  2  0  0  0  0  0  0  0  0  0
    2.3960   19.5900    1.1650 O   0  0  0  0  0  0  0  0  0  0  0  0
    1.4150   18.8290   -0.9370 C   0  0  0  0  0  0  0  0  0  0  0  0
    1.5940   18.9210   -2.4720 C   0  0  0  0  0  0  0  0  0  0  0  0
    0.2020   19.7320   -0.5860 C   0  0  0  0  0  0  0  0  0  0  0  0
    2.2600   14.9290   -0.2120 C   0  0  1  0  0  0  0  0  0  0  0  0
    2.4500   14.7830    1.3290 C   0  0  0  0  0  0  0  0  0  0  0  0
    3.3780   14.0480   -0.8830 C   0  0  0  0  0  0  0  0  0  0  0  0
    3.0800   13.5030   -2.2930 C   0  0  0  0  0  0  0  0  0  0  0  0
    1.7010   12.8390   -2.3450 C   0  0  2  0  0  0  0  0  0  0  0  0
    1.7230   11.6140   -1.3690 C   0  0  0  0  0  0  0  0  0  0  0  0
    3.7937   11.6403   -4.9150 H   0  0  0  0  0  0  0  0  0  0  0  0
    2.9753   10.4559   -5.9893 H   0  0  0  0  0  0  0  0  0  0  0  0
    2.4574   12.1759   -5.9893 H   0  0  0  0  0  0  0  0  0  0  0  0
    2.3599   10.5313   -3.4495 H   0  0  0  0  0  0  0  0  0  0  0  0
    0.2144   10.5584   -5.6152 H   0  0  0  0  0  0  0  0  0  0  0  0
    1.1704    9.1374   -4.9744 H   0  0  0  0  0  0  0  0  0  0  0  0
   -0.7510   10.7917   -3.3014 H   0  0  0  0  0  0  0  0  0  0  0  0
   -1.1787    9.2483   -4.1514 H   0  0  0  0  0  0  0  0  0  0  0  0
    1.2034    9.2319   -2.8543 H   0  0  0  0  0  0  0  0  0  0  0  0
   -1.8600    9.8454    0.2220 H   0  0  0  0  0  0  0  0  0  0  0  0
   -1.6497   10.7708   -1.3031 H   0  0  0  0  0  0  0  0  0  0  0  0
   -2.5923    9.2417   -1.3031 H   0  0  0  0  0  0  0  0  0  0  0  0
   -0.1756    8.8532    0.9438 H   0  0  0  0  0  0  0  0  0  0  0  0
    0.5562    7.5233   -0.0168 H   0  0  0  0  0  0  0  0  0  0  0  0
    1.3125    9.1526   -0.0168 H   0  0  0  0  0  0  0  0  0  0  0  0
    1.5574   13.0349   -4.5163 H   0  0  0  0  0  0  0  0  0  0  0  0
   -0.8273   12.6580   -4.4427 H   0  0  0  0  0  0  0  0  0  0  0  0
   -0.6460   11.2168   -3.4197 H   0  0  0  0  0  0  0  0  0  0  0  0
   -1.5147   13.7887   -2.5263 H   0  0  0  0  0  0  0  0  0  0  0  0
   -0.9829   12.4983   -1.4515 H   0  0  0  0  0  0  0  0  0  0  0  0
    0.5299   16.0684   -2.4454 H   0  0  0  0  0  0  0  0  0  0  0  0
    1.4653   15.1109   -3.6432 H   0  0  0  0  0  0  0  0  0  0  0  0
   -0.3296   15.0421   -3.6432 H   0  0  0  0  0  0  0  0  0  0  0  0
    0.6625   13.4754    0.0320 H   0  0  0  0  0  0  0  0  0  0  0  0
   -1.2169   15.1411   -0.5376 H   0  0  0  0  0  0  0  0  0  0  0  0
   -0.3172   15.2318    1.0656 H   0  0  0  0  0  0  0  0  0  0  0  0
   -0.8155   17.5293   -0.1244 H   0  0  0  0  0  0  0  0  0  0  0  0
    2.7067   16.3574   -1.7118 H   0  0  0  0  0  0  0  0  0  0  0  0
    3.4003   17.1609    1.1814 H   0  0  0  0  0  0  0  0  0  0  0  0
    4.5470   16.5276   -0.0816 H   0  0  0  0  0  0  0  0  0  0  0  0
    4.7312   18.9774    0.2062 H   0  0  0  0  0  0  0  0  0  0  0  0
    4.1804   18.4996   -1.4474 H   0  0  0  0  0  0  0  0  0  0  0  0
    2.8802   20.3795   -0.7155 H   0  0  0  0  0  0  0  0  0  0  0  0
    2.5840   20.5170    1.3880 H   0  0  0  0  0  0  0  0  0  0  0  0
    2.5510   19.4128   -2.7007 H   0  0  0  0  0  0  0  0  0  0  0  0
    1.5897   17.9089   -2.9030 H   0  0  0  0  0  0  0  0  0  0  0  0
    0.7686   19.5066   -2.9030 H   0  0  0  0  0  0  0  0  0  0  0  0
    0.1036   19.8053    0.5071 H   0  0  0  0  0  0  0  0  0  0  0  0
    0.3578   20.7357   -1.0082 H   0  0  0  0  0  0  0  0  0  0  0  0
   -0.7149   19.2949   -1.0082 H   0  0  0  0  0  0  0  0  0  0  0  0
    1.6821   15.3731    1.8507 H   0  0  0  0  0  0  0  0  0  0  0  0
    2.3537   13.7243    1.6116 H   0  0  0  0  0  0  0  0  0  0  0  0
    3.4482   15.1486    1.6116 H   0  0  0  0  0  0  0  0  0  0  0  0
    4.2895   14.6603   -0.9486 H   0  0  0  0  0  0  0  0  0  0  0  0
    3.4658   13.1577   -0.2429 H   0  0  0  0  0  0  0  0  0  0  0  0
    3.1063   14.3343   -3.0129 H   0  0  0  0  0  0  0  0  0  0  0  0
    3.8411   12.7501   -2.5456 H   0  0  0  0  0  0  0  0  0  0  0  0
    1.7165   11.9733   -0.3294 H   0  0  0  0  0  0  0  0  0  0  0  0
    0.8360   10.9881   -1.5461 H   0  0  0  0  0  0  0  0  0  0  0  0
    2.6320   11.0203   -1.5461 H   0  0  0  0  0  0  0  0  0  0  0  0
  1  2  1  0
  2  3  1  0
  3  4  1  0
  4  5  1  0
  5  6  1  0
  6  7  1  0
  7  8  1  0
  7  9  1  0
  2 10  1  0
 10 11  1  0
 11 12  1  0
 12 13  1  0
 13 14  1  6
 13 15  1  0
 15 16  1  0
 16 17  1  0
 17 18  2  0
 18 19  1  0
 19 20  1  0
 20 21  1  0
 21 22  1  0
 22 23  1  0
 22 24  1  0
 24 25  1  0
 24 26  1  0
 19 27  1  0
 27 28  1  1
 27 29  1  0
 29 30  1  0
 30 31  1  0
 31 32  1  1
  7  5  1  0
 31 10  1  0
 31 13  1  0
 27 15  1  0
 24 18  1  0
  1 33  1  0
  1 34  1  0
  1 35  1  0
  2 36  1  1
  3 37  1  0
  3 38  1  0
  4 39  1  0
  4 40  1  0
  5 41  1  1
  8 42  1  0
  8 43  1  0
  8 44  1  0
  9 45  1  0
  9 46  1  0
  9 47  1  0
 10 48  1  6
 11 49  1  0
 11 50  1  0
 12 51  1  0
 12 52  1  0
 14 53  1  0
 14 54  1  0
 14 55  1  0
 15 56  1  1
 16 57  1  0
 16 58  1  0
 17 59  1  0
 19 60  1  6
 20 61  1  0
 20 62  1  0
 21 63  1  0
 21 64  1  0
 22 65  1  6
 23 66  1  0
 25 67  1  0
 25 68  1  0
 25 69  1  0
 26 70  1  0
 26 71  1  0
 26 72  1  0
 28 73  1  0
 28 74  1  0
 28 75  1  0
 29 76  1  0
 29 77  1  0
 30 78  1  0
 30 79  1  0
 32 80  1  0
 32 81  1  0
 32 82  1  0
M  END
>  <meeko>  (19) 
{"is_sidechain": [false], "intermolecular_energy": 2.731, "internal_energy": -0.839}

$$$$
EPH_relaxed_0001_pdb2pqr_Repair_34_r2_0001_out
     RDKit          3D

 82 86  0  0  0  0  0  0  0  0999 V2000
    0.4970   18.8370   -2.4570 C   0  0  0  0  0  0  0  0  0  0  0  0
    0.1560   17.8720   -1.3180 C   0  0  2  0  0  0  0  0  0  0  0  0
    0.7740   18.3150    0.0230 C   0  0  0  0  0  0  0  0  0  0  0  0
    1.9380   19.2970   -0.1300 C   0  0  0  0  0  0  0  0  0  0  0  0
    2.6910   19.4710    1.1540 C   0  0  2  0  0  0  0  0  0  0  0  0
    3.9220   20.1940    1.0340 O   0  0  0  0  0  0  0  0  0  0  0  0
    4.0320   18.8180    1.4330 C   0  0  0  0  0  0  0  0  0  0  0  0
    4.6990   17.9420    0.4190 C   0  0  0  0  0  0  0  0  0  0  0  0
    4.4570   18.6350    2.8560 C   0  0  0  0  0  0  0  0  0  0  0  0
    0.6260   16.4660   -1.6700 C   0  0  1  0  0  0  0  0  0  0  0  0
    2.1000   16.4330   -2.1540 C   0  0  0  0  0  0  0  0  0  0  0  0
    2.7090   15.1020   -1.6420 C   0  0  0  0  0  0  0  0  0  0  0  0
    1.4910   14.2700   -1.1750 C   0  0  1  0  0  0  0  0  0  0  0  0
    0.9060   13.6470   -2.4810 C   0  0  0  0  0  0  0  0  0  0  0  0
    1.7740   13.1790   -0.0910 C   0  0  2  0  0  0  0  0  0  0  0  0
    2.7370   12.0610   -0.5270 C   0  0  0  0  0  0  0  0  0  0  0  0
    2.0890   10.8700   -1.1530 C   0  0  0  0  0  0  0  0  0  0  0  0
    0.7760   10.5770   -1.1010 C   0  0  0  0  0  0  0  0  0  0  0  0
   -0.1910   11.4350   -0.2760 C   0  0  1  0  0  0  0  0  0  0  0  0
   -1.1110   10.5130    0.5670 C   0  0  0  0  0  0  0  0  0  0  0  0
   -1.8340    9.4730   -0.2840 C   0  0  0  0  0  0  0  0  0  0  0  0
   -0.8380    8.6020   -1.0440 C   0  0  2  0  0  0  0  0  0  0  0  0
   -0.1030    7.8130   -0.1030 O   0  0  0  0  0  0  0  0  0  0  0  0
    0.1490    9.4220   -1.9210 C   0  0  0  0  0  0  0  0  0  0  0  0
   -0.6100   10.0360   -3.1230 C   0  0  0  0  0  0  0  0  0  0  0  0
    1.1880    8.4360   -2.5210 C   0  0  0  0  0  0  0  0  0  0  0  0
    0.4740   12.5900    0.5900 C   0  0  1  0  0  0  0  0  0  0  0  0
    0.9130   12.0290    1.9770 C   0  0  0  0  0  0  0  0  0  0  0  0
   -0.6050   13.7000    0.8810 C   0  0  0  0  0  0  0  0  0  0  0  0
   -0.7540   14.8160   -0.1700 C   0  0  0  0  0  0  0  0  0  0  0  0
    0.6100   15.4070   -0.5400 C   0  0  2  0  0  0  0  0  0  0  0  0
    1.2130   16.0610    0.7500 C   0  0  0  0  0  0  0  0  0  0  0  0
    0.8357   19.7954   -2.0366 H   0  0  0  0  0  0  0  0  0  0  0  0
    1.2970   18.4052   -3.0763 H   0  0  0  0  0  0  0  0  0  0  0  0
   -0.3967   19.0036   -3.0763 H   0  0  0  0  0  0  0  0  0  0  0  0
   -0.9371   17.8781   -1.1949 H   0  0  0  0  0  0  0  0  0  0  0  0
   -0.0106   18.7976    0.6243 H   0  0  0  0  0  0  0  0  0  0  0  0
    1.1768   17.4120    0.5050 H   0  0  0  0  0  0  0  0  0  0  0  0
    2.6270   18.9158   -0.8981 H   0  0  0  0  0  0  0  0  0  0  0  0
    1.5251   20.2746   -0.4197 H   0  0  0  0  0  0  0  0  0  0  0  0
    1.7523   19.5026    1.7266 H   0  0  0  0  0  0  0  0  0  0  0  0
    5.2880   17.1684    0.9335 H   0  0  0  0  0  0  0  0  0  0  0  0
    3.9350   17.4628   -0.2108 H   0  0  0  0  0  0  0  0  0  0  0  0
    5.3642   18.5510   -0.2108 H   0  0  0  0  0  0  0  0  0  0  0  0
    3.6553   18.9802    3.5254 H   0  0  0  0  0  0  0  0  0  0  0  0
    4.6589   17.5702    3.0443 H   0  0  0  0  0  0  0  0  0  0  0  0
    5.3693   19.2201    3.0443 H   0  0  0  0  0  0  0  0  0  0  0  0
   -0.1197   16.2087   -2.4366 H   0  0  0  0  0  0  0  0  0  0  0  0
    2.1389   16.4695   -3.2527 H   0  0  0  0  0  0  0  0  0  0  0  0
    2.6613   17.2977   -1.7703 H   0  0  0  0  0  0  0  0  0  0  0  0
    3.2460   14.5843   -2.4504 H   0  0  0  0  0  0  0  0  0  0  0  0
    3.4400   15.2606   -0.8354 H   0  0  0  0  0  0  0  0  0  0  0  0
    0.1745   12.8680   -2.2199 H   0  0  0  0  0  0  0  0  0  0  0  0
    0.4108   14.4318   -3.0717 H   0  0  0  0  0  0  0  0  0  0  0  0
    1.7203   13.2021   -3.0717 H   0  0  0  0  0  0  0  0  0  0  0  0
    2.3090   13.7484    0.6833 H   0  0  0  0  0  0  0  0  0  0  0  0
    3.4436   12.4857   -1.2553 H   0  0  0  0  0  0  0  0  0  0  0  0
    3.2183   11.6976    0.3929 H   0  0  0  0  0  0  0  0  0  0  0  0
    2.7392   10.1736   -1.7028 H   0  0  0  0  0  0  0  0  0  0  0  0
   -0.7935   11.9993   -1.0031 H   0  0  0  0  0  0  0  0  0  0  0  0
   -0.4969    9.9911    1.3156 H   0  0  0  0  0  0  0  0  0  0  0  0
   -1.8750   11.1465    1.0412 H   0  0  0  0  0  0  0  0  0  0  0  0
   -2.4449    8.8339    0.3706 H   0  0  0  0  0  0  0  0  0  0  0  0
   -2.4700    9.9966   -1.0129 H   0  0  0  0  0  0  0  0  0  0  0  0
   -1.4146    7.9658   -1.7316 H   0  0  0  0  0  0  0  0  0  0  0  0
    0.6410    7.4050   -0.5780 H   0  0  0  0  0  0  0  0  0  0  0  0
   -1.4156   10.6877   -2.7538 H   0  0  0  0  0  0  0  0  0  0  0  0
    0.0881   10.6265   -3.7345 H   0  0  0  0  0  0  0  0  0  0  0  0
   -1.0417    9.2300   -3.7345 H   0  0  0  0  0  0  0  0  0  0  0  0
    1.7240    7.9274   -1.7061 H   0  0  0  0  0  0  0  0  0  0  0  0
    0.6697    7.6896   -3.1409 H   0  0  0  0  0  0  0  0  0  0  0  0
    1.9062    8.9926   -3.1409 H   0  0  0  0  0  0  0  0  0  0  0  0
    0.4477   12.6236    2.7770 H   0  0  0  0  0  0  0  0  0  0  0  0
    0.5932   10.9803    2.0663 H   0  0  0  0  0  0  0  0  0  0  0  0
    2.0078   12.0873    2.0663 H   0  0  0  0  0  0  0  0  0  0  0  0
   -1.5800   13.1996    0.9756 H   0  0  0  0  0  0  0  0  0  0  0  0
   -0.2571   14.2077    1.7927 H   0  0  0  0  0  0  0  0  0  0  0  0
   -1.2225   14.3989   -1.0737 H   0  0  0  0  0  0  0  0  0  0  0  0
   -1.3792   15.6156    0.2540 H   0  0  0  0  0  0  0  0  0  0  0  0
    0.7754   15.5863    1.6406 H   0  0  0  0  0  0  0  0  0  0  0  0
    2.3038   15.9191    0.7575 H   0  0  0  0  0  0  0  0  0  0  0  0
    0.9832   17.1367    0.7575 H   0  0  0  0  0  0  0  0  0  0  0  0
  1  2  1  0
  2  3  1  0
  3  4  1  0
  4  5  1  0
  5  6  1  0
  6  7  1  0
  7  8  1  0
  7  9  1  0
  2 10  1  0
 10 11  1  0
 11 12  1  0
 12 13  1  0
 13 14  1  6
 13 15  1  0
 15 16  1  0
 16 17  1  0
 17 18  2  0
 18 19  1  0
 19 20  1  0
 20 21  1  0
 21 22  1  0
 22 23  1  0
 22 24  1  0
 24 25  1  0
 24 26  1  0
 19 27  1  0
 27 28  1  1
 27 29  1  0
 29 30  1  0
 30 31  1  0
 31 32  1  1
  7  5  1  0
 31 10  1  0
 31 13  1  0
 27 15  1  0
 24 18  1  0
  1 33  1  0
  1 34  1  0
  1 35  1  0
  2 36  1  1
  3 37  1  0
  3 38  1  0
  4 39  1  0
  4 40  1  0
  5 41  1  1
  8 42  1  0
  8 43  1  0
  8 44  1  0
  9 45  1  0
  9 46  1  0
  9 47  1  0
 10 48  1  6
 11 49  1  0
 11 50  1  0
 12 51  1  0
 12 52  1  0
 14 53  1  0
 14 54  1  0
 14 55  1  0
 15 56  1  1
 16 57  1  0
 16 58  1  0
 17 59  1  0
 19 60  1  6
 20 61  1  0
 20 62  1  0
 21 63  1  0
 21 64  1  0
 22 65  1  6
 23 66  1  0
 25 67  1  0
 25 68  1  0
 25 69  1  0
 26 70  1  0
 26 71  1  0
 26 72  1  0
 28 73  1  0
 28 74  1  0
 28 75  1  0
 29 76  1  0
 29 77  1  0
 30 78  1  0
 30 79  1  0
 32 80  1  0
 32 81  1  0
 32 82  1  0
M  END
>  <meeko>  (20) 
{"is_sidechain": [false], "intermolecular_energy": 2.731, "internal_energy": -0.839}

$$$$
