EPH_relaxed_0001_pdb2pqr_Repair_24_r2_0001_out
     RDKit          3D

 82 86  0  0  0  0  0  0  0  0999 V2000
   -1.7150    8.5820   -1.8750 C   0  0  0  0  0  0  0  0  0  0  0  0
   -2.0950    9.1050   -0.4870 C   0  0  2  0  0  0  0  0  0  0  0  0
   -3.5890    9.4740   -0.3940 C   0  0  0  0  0  0  0  0  0  0  0  0
   -4.5140    8.2630   -0.2390 C   0  0  0  0  0  0  0  0  0  0  0  0
   -5.2130    7.9310   -1.5220 C   0  0  2  0  0  0  0  0  0  0  0  0
   -6.3520    8.7520   -1.8130 O   0  0  0  0  0  0  0  0  0  0  0  0
   -6.6160    7.3580   -1.5860 C   0  0  0  0  0  0  0  0  0  0  0  0
   -7.4040    7.0810   -0.3440 C   0  0  0  0  0  0  0  0  0  0  0  0
   -7.0300    6.6140   -2.8180 C   0  0  0  0  0  0  0  0  0  0  0  0
   -1.2370   10.3140   -0.1350 C   0  0  1  0  0  0  0  0  0  0  0  0
   -0.2120   10.0120    0.9910 C   0  0  0  0  0  0  0  0  0  0  0  0
    1.0600   10.8380    0.6720 C   0  0  0  0  0  0  0  0  0  0  0  0
    0.6150   11.8310   -0.4270 C   0  0  1  0  0  0  0  0  0  0  0  0
   -0.0960   12.9880    0.3430 C   0  0  0  0  0  0  0  0  0  0  0  0
    1.7400   12.3700   -1.3690 C   0  0  2  0  0  0  0  0  0  0  0  0
    2.8400   13.1880   -0.6700 C   0  0  0  0  0  0  0  0  0  0  0  0
    2.5900   14.6580   -0.5920 C   0  0  0  0  0  0  0  0  0  0  0  0
    1.6720   15.3340   -1.3080 C   0  0  0  0  0  0  0  0  0  0  0  0
    0.8320   14.6270   -2.3800 C   0  0  1  0  0  0  0  0  0  0  0  0
    0.8140   15.4860   -3.6720 C   0  0  0  0  0  0  0  0  0  0  0  0
    0.3490   16.9160   -3.4170 C   0  0  0  0  0  0  0  0  0  0  0  0
    1.2430   17.6050   -2.3880 C   0  0  2  0  0  0  0  0  0  0  0  0
    2.5490   17.7710   -2.9510 O   0  0  0  0  0  0  0  0  0  0  0  0
    1.3470   16.8250   -1.0480 C   0  0  0  0  0  0  0  0  0  0  0  0
   -0.0030   16.9050   -0.2940 C   0  0  0  0  0  0  0  0  0  0  0  0
    2.3870   17.5520   -0.1530 C   0  0  0  0  0  0  0  0  0  0  0  0
    1.2050   13.1080   -2.6620 C   0  0  1  0  0  0  0  0  0  0  0  0
    2.3440   13.0280   -3.7240 C   0  0  0  0  0  0  0  0  0  0  0  0
   -0.0420   12.3820   -3.2930 C   0  0  0  0  0  0  0  0  0  0  0  0
   -1.0570   11.7660   -2.3110 C   0  0  0  0  0  0  0  0  0  0  0  0
   -0.3500   10.9080   -1.2570 C   0  0  2  0  0  0  0  0  0  0  0  0
    0.3560    9.7230   -2.0000 C   0  0  0  0  0  0  0  0  0  0  0  0
   -1.0714    7.6962   -1.7695 H   0  0  0  0  0  0  0  0  0  0  0  0
   -2.6269    8.3091   -2.4263 H   0  0  0  0  0  0  0  0  0  0  0  0
   -1.1737    9.3650   -2.4263 H   0  0  0  0  0  0  0  0  0  0  0  0
   -1.9101    8.2950    0.2339 H   0  0  0  0  0  0  0  0  0  0  0  0
   -3.7305   10.1326    0.4756 H   0  0  0  0  0  0  0  0  0  0  0  0
   -3.8583    9.9650   -1.3408 H   0  0  0  0  0  0  0  0  0  0  0  0
   -3.9155    7.3954    0.0756 H   0  0  0  0  0  0  0  0  0  0  0  0
   -5.2777    8.5092    0.5135 H   0  0  0  0  0  0  0  0  0  0  0  0
   -4.2657    7.6161   -1.9841 H   0  0  0  0  0  0  0  0  0  0  0  0
   -6.7852    7.2985    0.5390 H   0  0  0  0  0  0  0  0  0  0  0  0
   -8.3008    7.7178   -0.3291 H   0  0  0  0  0  0  0  0  0  0  0  0
   -7.7051    6.0231   -0.3291 H   0  0  0  0  0  0  0  0  0  0  0  0
   -7.5462    5.6863   -2.5300 H   0  0  0  0  0  0  0  0  0  0  0  0
   -7.7088    7.2413   -3.4145 H   0  0  0  0  0  0  0  0  0  0  0  0
   -6.1391    6.3679   -3.4145 H   0  0  0  0  0  0  0  0  0  0  0  0
   -2.0284   11.0280    0.1368 H   0  0  0  0  0  0  0  0  0  0  0  0
   -0.6226   10.3106    1.9669 H   0  0  0  0  0  0  0  0  0  0  0  0
    0.0170    8.9371    1.0384 H   0  0  0  0  0  0  0  0  0  0  0  0
    1.4068   11.3776    1.5656 H   0  0  0  0  0  0  0  0  0  0  0  0
    1.8983   10.2042    0.3469 H   0  0  0  0  0  0  0  0  0  0  0  0
    0.0048   12.8239    1.4260 H   0  0  0  0  0  0  0  0  0  0  0  0
    0.3683   13.9479    0.0728 H   0  0  0  0  0  0  0  0  0  0  0  0
   -1.1621   13.0074    0.0728 H   0  0  0  0  0  0  0  0  0  0  0  0
    2.2264   11.4437   -1.7087 H   0  0  0  0  0  0  0  0  0  0  0  0
    2.9469   12.8066    0.3562 H   0  0  0  0  0  0  0  0  0  0  0  0
    3.7456   13.0656   -1.2823 H   0  0  0  0  0  0  0  0  0  0  0  0
    3.2080   15.2374    0.1096 H   0  0  0  0  0  0  0  0  0  0  0  0
   -0.1853   14.5496   -1.9687 H   0  0  0  0  0  0  0  0  0  0  0  0
    1.8310   15.5152   -4.0903 H   0  0  0  0  0  0  0  0  0  0  0  0
    0.1020   15.0229   -4.3710 H   0  0  0  0  0  0  0  0  0  0  0  0
    0.3853   17.4801   -4.3607 H   0  0  0  0  0  0  0  0  0  0  0  0
   -0.6787   16.8867   -3.0259 H   0  0  0  0  0  0  0  0  0  0  0  0
    0.7859   18.5769   -2.1504 H   0  0  0  0  0  0  0  0  0  0  0  0
    2.9720   16.8960   -2.9770 H   0  0  0  0  0  0  0  0  0  0  0  0
    0.1815   16.8941    0.7904 H   0  0  0  0  0  0  0  0  0  0  0  0
   -0.5216   17.8355   -0.5684 H   0  0  0  0  0  0  0  0  0  0  0  0
   -0.6279   16.0423   -0.5684 H   0  0  0  0  0  0  0  0  0  0  0  0
    2.1427   17.3812    0.9058 H   0  0  0  0  0  0  0  0  0  0  0  0
    3.3921   17.1588   -0.3654 H   0  0  0  0  0  0  0  0  0  0  0  0
    2.3630   18.6310   -0.3654 H   0  0  0  0  0  0  0  0  0  0  0  0
    3.3164   12.9597   -3.2143 H   0  0  0  0  0  0  0  0  0  0  0  0
    2.1966   12.1380   -4.3534 H   0  0  0  0  0  0  0  0  0  0  0  0
    2.3225   13.9299   -4.3534 H   0  0  0  0  0  0  0  0  0  0  0  0
   -0.5793   13.1182   -3.9089 H   0  0  0  0  0  0  0  0  0  0  0  0
    0.3728   11.5296   -3.8509 H   0  0  0  0  0  0  0  0  0  0  0  0
   -1.6063   12.5748   -1.8070 H   0  0  0  0  0  0  0  0  0  0  0  0
   -1.7486   11.1254   -2.8779 H   0  0  0  0  0  0  0  0  0  0  0  0
    0.7730    9.0232   -1.2608 H   0  0  0  0  0  0  0  0  0  0  0  0
   -0.3762    9.1972   -2.6304 H   0  0  0  0  0  0  0  0  0  0  0  0
    1.1669   10.1166   -2.6304 H   0  0  0  0  0  0  0  0  0  0  0  0
  1  2  1  0
  2  3  1  0
  3  4  1  0
  4  5  1  0
  5  6  1  0
  6  7  1  0
  7  8  1  0
  7  9  1  0
  2 10  1  0
 10 11  1  0
 11 12  1  0
 12 13  1  0
 13 14  1  1
 13 15  1  0
 15 16  1  0
 16 17  1  0
 17 18  2  0
 18 19  1  0
 19 20  1  0
 20 21  1  0
 21 22  1  0
 22 23  1  0
 22 24  1  0
 24 25  1  0
 24 26  1  0
 19 27  1  0
 27 28  1  6
 27 29  1  0
 29 30  1  0
 30 31  1  0
 31 32  1  6
  7  5  1  0
 31 10  1  0
 31 13  1  0
 27 15  1  0
 24 18  1  0
  1 33  1  0
  1 34  1  0
  1 35  1  0
  2 36  1  1
  3 37  1  0
  3 38  1  0
  4 39  1  0
  4 40  1  0
  5 41  1  6
  8 42  1  0
  8 43  1  0
  8 44  1  0
  9 45  1  0
  9 46  1  0
  9 47  1  0
 10 48  1  1
 11 49  1  0
 11 50  1  0
 12 51  1  0
 12 52  1  0
 14 53  1  0
 14 54  1  0
 14 55  1  0
 15 56  1  6
 16 57  1  0
 16 58  1  0
 17 59  1  0
 19 60  1  1
 20 61  1  0
 20 62  1  0
 21 63  1  0
 21 64  1  0
 22 65  1  1
 23 66  1  0
 25 67  1  0
 25 68  1  0
 25 69  1  0
 26 70  1  0
 26 71  1  0
 26 72  1  0
 28 73  1  0
 28 74  1  0
 28 75  1  0
 29 76  1  0
 29 77  1  0
 30 78  1  0
 30 79  1  0
 32 80  1  0
 32 81  1  0
 32 82  1  0
M  END
>  <meeko>  (1) 
{"is_sidechain": [false], "intermolecular_energy": 2.731, "internal_energy": -0.839}

$$$$
EPH_relaxed_0001_pdb2pqr_Repair_24_r2_0001_out
     RDKit          3D

 82 86  0  0  0  0  0  0  0  0999 V2000
    4.2030   17.5510   -0.6340 C   0  0  0  0  0  0  0  0  0  0  0  0
    2.8430   18.1220   -0.2240 C   0  0  2  0  0  0  0  0  0  0  0  0
    2.8960   18.8200    1.1490 C   0  0  0  0  0  0  0  0  0  0  0  0
    4.2620   18.7270    1.8350 C   0  0  0  0  0  0  0  0  0  0  0  0
    4.2130   19.2460    3.2400 C   0  0  2  0  0  0  0  0  0  0  0  0
    5.2380   20.1940    3.5640 O   0  0  0  0  0  0  0  0  0  0  0  0
    5.2780   18.9480    4.2790 C   0  0  0  0  0  0  0  0  0  0  0  0
    6.4670   18.0990    3.9560 C   0  0  0  0  0  0  0  0  0  0  0  0
    4.9200   19.0720    5.7270 C   0  0  0  0  0  0  0  0  0  0  0  0
    1.7990   17.0120   -0.2040 C   0  0  1  0  0  0  0  0  0  0  0  0
    0.3700   17.5300   -0.5200 C   0  0  0  0  0  0  0  0  0  0  0  0
   -0.3470   16.4080   -1.3150 C   0  0  0  0  0  0  0  0  0  0  0  0
    0.5610   15.1670   -1.1430 C   0  0  1  0  0  0  0  0  0  0  0  0
    0.1880   14.5880    0.2570 C   0  0  0  0  0  0  0  0  0  0  0  0
    0.4640   14.0800   -2.2630 C   0  0  2  0  0  0  0  0  0  0  0  0
   -0.9140   13.4110   -2.4040 C   0  0  0  0  0  0  0  0  0  0  0  0
   -1.1130   12.1800   -1.5820 C   0  0  0  0  0  0  0  0  0  0  0  0
   -0.1360   11.4730   -0.9840 C   0  0  0  0  0  0  0  0  0  0  0  0
    1.3400   11.8400   -1.1870 C   0  0  1  0  0  0  0  0  0  0  0  0
    2.1550   10.5560   -1.4920 C   0  0  0  0  0  0  0  0  0  0  0  0
    1.9630    9.4750   -0.4330 C   0  0  0  0  0  0  0  0  0  0  0  0
    0.4900    9.0960   -0.3010 C   0  0  2  0  0  0  0  0  0  0  0  0
    0.0690    8.4580   -1.5110 O   0  0  0  0  0  0  0  0  0  0  0  0
   -0.4310   10.3120   -0.0030 C   0  0  0  0  0  0  0  0  0  0  0  0
   -0.1770   10.8160    1.4380 C   0  0  0  0  0  0  0  0  0  0  0  0
   -1.9020    9.8150   -0.0360 C   0  0  0  0  0  0  0  0  0  0  0  0
    1.6270   13.0070   -2.2260 C   0  0  1  0  0  0  0  0  0  0  0  0
    1.7370   12.4210   -3.6670 C   0  0  0  0  0  0  0  0  0  0  0  0
    3.0260   13.6520   -1.9010 C   0  0  0  0  0  0  0  0  0  0  0  0
    3.0400   14.8020   -0.8760 C   0  0  0  0  0  0  0  0  0  0  0  0
    1.9760   15.8500   -1.2140 C   0  0  2  0  0  0  0  0  0  0  0  0
    2.3370   16.4670   -2.6080 C   0  0  0  0  0  0  0  0  0  0  0  0
    4.7848   17.3067    0.2670 H   0  0  0  0  0  0  0  0  0  0  0  0
    4.0530   16.6399   -1.2318 H   0  0  0  0  0  0  0  0  0  0  0  0
    4.7484   18.2961   -1.2318 H   0  0  0  0  0  0  0  0  0  0  0  0
    2.5646   18.8816   -0.9693 H   0  0  0  0  0  0  0  0  0  0  0  0
    2.6500   19.8828    1.0079 H   0  0  0  0  0  0  0  0  0  0  0  0
    2.1740   18.3046    1.7995 H   0  0  0  0  0  0  0  0  0  0  0  0
    4.5801   17.6742    1.8547 H   0  0  0  0  0  0  0  0  0  0  0  0
    4.9740   19.3432    1.2664 H   0  0  0  0  0  0  0  0  0  0  0  0
    3.1169   19.1562    3.2602 H   0  0  0  0  0  0  0  0  0  0  0  0
    6.9406   17.7609    4.8895 H   0  0  0  0  0  0  0  0  0  0  0  0
    6.1454   17.2251    3.3705 H   0  0  0  0  0  0  0  0  0  0  0  0
    7.1892   18.6869    3.3705 H   0  0  0  0  0  0  0  0  0  0  0  0
    5.7804   18.7740    6.3442 H   0  0  0  0  0  0  0  0  0  0  0  0
    4.6522   20.1152    5.9505 H   0  0  0  0  0  0  0  0  0  0  0  0
    4.0643   18.4179    5.9505 H   0  0  0  0  0  0  0  0  0  0  0  0
    1.9422   16.6430    0.8223 H   0  0  0  0  0  0  0  0  0  0  0  0
   -0.1725   17.7385    0.4139 H   0  0  0  0  0  0  0  0  0  0  0  0
    0.4077   18.4634   -1.1009 H   0  0  0  0  0  0  0  0  0  0  0  0
   -1.3480   16.2173   -0.9007 H   0  0  0  0  0  0  0  0  0  0  0  0
   -0.4941   16.6742   -2.3721 H   0  0  0  0  0  0  0  0  0  0  0  0
    0.6043   15.2342    1.0438 H   0  0  0  0  0  0  0  0  0  0  0  0
   -0.9067   14.5472    0.3571 H   0  0  0  0  0  0  0  0  0  0  0  0
    0.6034   13.5744    0.3571 H   0  0  0  0  0  0  0  0  0  0  0  0
    0.6041   14.6712   -3.1800 H   0  0  0  0  0  0  0  0  0  0  0  0
   -1.6794   14.1440   -2.1091 H   0  0  0  0  0  0  0  0  0  0  0  0
   -0.9910   13.0915   -3.4538 H   0  0  0  0  0  0  0  0  0  0  0  0
   -2.1449   11.8208   -1.4545 H   0  0  0  0  0  0  0  0  0  0  0  0
    1.6783   12.2795   -0.2371 H   0  0  0  0  0  0  0  0  0  0  0  0
    1.8331   10.1571   -2.4653 H   0  0  0  0  0  0  0  0  0  0  0  0
    3.2201   10.8308   -1.4989 H   0  0  0  0  0  0  0  0  0  0  0  0
    2.5398    8.5834   -0.7200 H   0  0  0  0  0  0  0  0  0  0  0  0
    2.3133    9.8648    0.5341 H   0  0  0  0  0  0  0  0  0  0  0  0
    0.3992    8.4164    0.5591 H   0  0  0  0  0  0  0  0  0  0  0  0
    0.7710    8.5870   -2.1710 H   0  0  0  0  0  0  0  0  0  0  0  0
   -0.5514   10.0731    2.1576 H   0  0  0  0  0  0  0  0  0  0  0  0
    0.9025   10.9624    1.5903 H   0  0  0  0  0  0  0  0  0  0  0  0
   -0.7016   11.7708    1.5903 H   0  0  0  0  0  0  0  0  0  0  0  0
   -2.2702    9.6906    0.9931 H   0  0  0  0  0  0  0  0  0  0  0  0
   -2.5263   10.5521   -0.5622 H   0  0  0  0  0  0  0  0  0  0  0  0
   -1.9514    8.8503   -0.5622 H   0  0  0  0  0  0  0  0  0  0  0  0
    1.9397   11.3414   -3.6093 H   0  0  0  0  0  0  0  0  0  0  0  0
    0.7917   12.5884   -4.2041 H   0  0  0  0  0  0  0  0  0  0  0  0
    2.5572   12.9198   -4.2041 H   0  0  0  0  0  0  0  0  0  0  0  0
    3.6784   12.8547   -1.5154 H   0  0  0  0  0  0  0  0  0  0  0  0
    3.3603   14.1050   -2.8460 H   0  0  0  0  0  0  0  0  0  0  0  0
    2.8380   14.3940    0.1254 H   0  0  0  0  0  0  0  0  0  0  0  0
    4.0284   15.2841   -0.9030 H   0  0  0  0  0  0  0  0  0  0  0  0
    2.8875   17.4079   -2.4610 H   0  0  0  0  0  0  0  0  0  0  0  0
    2.9637   15.7596   -3.1709 H   0  0  0  0  0  0  0  0  0  0  0  0
    1.4133   16.6667   -3.1709 H   0  0  0  0  0  0  0  0  0  0  0  0
  1  2  1  0
  2  3  1  0
  3  4  1  0
  4  5  1  0
  5  6  1  0
  6  7  1  0
  7  8  1  0
  7  9  1  0
  2 10  1  0
 10 11  1  0
 11 12  1  0
 12 13  1  0
 13 14  1  1
 13 15  1  0
 15 16  1  0
 16 17  1  0
 17 18  2  0
 18 19  1  0
 19 20  1  0
 20 21  1  0
 21 22  1  0
 22 23  1  0
 22 24  1  0
 24 25  1  0
 24 26  1  0
 19 27  1  0
 27 28  1  6
 27 29  1  0
 29 30  1  0
 30 31  1  0
 31 32  1  6
  7  5  1  0
 31 10  1  0
 31 13  1  0
 27 15  1  0
 24 18  1  0
  1 33  1  0
  1 34  1  0
  1 35  1  0
  2 36  1  6
  3 37  1  0
  3 38  1  0
  4 39  1  0
  4 40  1  0
  5 41  1  1
  8 42  1  0
  8 43  1  0
  8 44  1  0
  9 45  1  0
  9 46  1  0
  9 47  1  0
 10 48  1  1
 11 49  1  0
 11 50  1  0
 12 51  1  0
 12 52  1  0
 14 53  1  0
 14 54  1  0
 14 55  1  0
 15 56  1  6
 16 57  1  0
 16 58  1  0
 17 59  1  0
 19 60  1  1
 20 61  1  0
 20 62  1  0
 21 63  1  0
 21 64  1  0
 22 65  1  1
 23 66  1  0
 25 67  1  0
 25 68  1  0
 25 69  1  0
 26 70  1  0
 26 71  1  0
 26 72  1  0
 28 73  1  0
 28 74  1  0
 28 75  1  0
 29 76  1  0
 29 77  1  0
 30 78  1  0
 30 79  1  0
 32 80  1  0
 32 81  1  0
 32 82  1  0
M  END
>  <meeko>  (2) 
{"is_sidechain": [false], "intermolecular_energy": 2.731, "internal_energy": -0.839}

$$$$
EPH_relaxed_0001_pdb2pqr_Repair_24_r2_0001_out
     RDKit          3D

 82 86  0  0  0  0  0  0  0  0999 V2000
    2.3610   18.0270   -2.6550 C   0  0  0  0  0  0  0  0  0  0  0  0
    1.0410   17.6520   -1.9760 C   0  0  2  0  0  0  0  0  0  0  0  0
    1.1360   17.7290   -0.4390 C   0  0  0  0  0  0  0  0  0  0  0  0
    0.7920   19.1070    0.1310 C   0  0  0  0  0  0  0  0  0  0  0  0
   -0.6520   19.2000    0.5220 C   0  0  2  0  0  0  0  0  0  0  0  0
   -1.5160   18.2760   -0.1530 O   0  0  0  0  0  0  0  0  0  0  0  0
   -1.7460   19.6690   -0.4200 C   0  0  0  0  0  0  0  0  0  0  0  0
   -1.4410   20.0770   -1.8270 C   0  0  0  0  0  0  0  0  0  0  0  0
   -3.0190   20.1930    0.1670 C   0  0  0  0  0  0  0  0  0  0  0  0
    0.6170   16.2520   -2.4030 C   0  0  1  0  0  0  0  0  0  0  0  0
    0.7680   16.0210   -3.9300 C   0  0  0  0  0  0  0  0  0  0  0  0
    1.1850   14.5400   -4.1200 C   0  0  0  0  0  0  0  0  0  0  0  0
    0.9390   13.8860   -2.7400 C   0  0  1  0  0  0  0  0  0  0  0  0
   -0.5920   13.5820   -2.7070 C   0  0  0  0  0  0  0  0  0  0  0  0
    1.7870   12.6130   -2.4180 C   0  0  2  0  0  0  0  0  0  0  0  0
    1.5450   11.4140   -3.3520 C   0  0  0  0  0  0  0  0  0  0  0  0
    0.4760   10.4690   -2.9130 C   0  0  0  0  0  0  0  0  0  0  0  0
   -0.0650   10.4170   -1.6820 C   0  0  0  0  0  0  0  0  0  0  0  0
    0.4670   11.3050   -0.5500 C   0  0  1  0  0  0  0  0  0  0  0  0
    0.6550   10.4530    0.7320 C   0  0  0  0  0  0  0  0  0  0  0  0
   -0.6130    9.7010    1.1270 C   0  0  0  0  0  0  0  0  0  0  0  0
   -1.0770    8.7850   -0.0020 C   0  0  2  0  0  0  0  0  0  0  0  0
   -0.1120    7.7440   -0.1780 O   0  0  0  0  0  0  0  0  0  0  0  0
   -1.2910    9.5320   -1.3490 C   0  0  0  0  0  0  0  0  0  0  0  0
   -2.5360   10.4470   -1.2440 C   0  0  0  0  0  0  0  0  0  0  0  0
   -1.6210    8.4730   -2.4350 C   0  0  0  0  0  0  0  0  0  0  0  0
    1.7500   12.1770   -0.8970 C   0  0  1  0  0  0  0  0  0  0  0  0
    3.0440   11.3450   -0.6400 C   0  0  0  0  0  0  0  0  0  0  0  0
    1.8130   13.4100    0.0800 C   0  0  0  0  0  0  0  0  0  0  0  0
    1.0530   14.6780   -0.3510 C   0  0  0  0  0  0  0  0  0  0  0  0
    1.3940   15.0570   -1.7950 C   0  0  2  0  0  0  0  0  0  0  0  0
    2.9240   15.3900   -1.8540 C   0  0  0  0  0  0  0  0  0  0  0  0
    3.1196   18.2425   -1.8881 H   0  0  0  0  0  0  0  0  0  0  0  0
    2.7014   17.1900   -3.2824 H   0  0  0  0  0  0  0  0  0  0  0  0
    2.2105   18.9179   -3.2824 H   0  0  0  0  0  0  0  0  0  0  0  0
    0.2843   18.3833   -2.2962 H   0  0  0  0  0  0  0  0  0  0  0  0
    0.4400   16.9926   -0.0108 H   0  0  0  0  0  0  0  0  0  0  0  0
    2.1828   17.5228   -0.1712 H   0  0  0  0  0  0  0  0  0  0  0  0
    1.4144   19.2910    1.0191 H   0  0  0  0  0  0  0  0  0  0  0  0
    0.9855   19.8587   -0.6484 H   0  0  0  0  0  0  0  0  0  0  0  0
   -0.3798   19.5006    1.5445 H   0  0  0  0  0  0  0  0  0  0  0  0
   -0.7824   20.9580   -1.8187 H   0  0  0  0  0  0  0  0  0  0  0  0
   -0.9388   19.2487   -2.3483 H   0  0  0  0  0  0  0  0  0  0  0  0
   -2.3776   20.3242   -2.3483 H   0  0  0  0  0  0  0  0  0  0  0  0
   -2.9547   20.1665    1.2648 H   0  0  0  0  0  0  0  0  0  0  0  0
   -3.1771   21.2293   -0.1662 H   0  0  0  0  0  0  0  0  0  0  0  0
   -3.8608   19.5683   -0.1662 H   0  0  0  0  0  0  0  0  0  0  0  0
   -0.4195   16.2535   -2.0348 H   0  0  0  0  0  0  0  0  0  0  0  0
   -0.1883   16.2134   -4.4385 H   0  0  0  0  0  0  0  0  0  0  0  0
    1.5187   16.7006   -4.3596 H   0  0  0  0  0  0  0  0  0  0  0  0
    0.5682   14.0589   -4.8933 H   0  0  0  0  0  0  0  0  0  0  0  0
    2.2297   14.4395   -4.4493 H   0  0  0  0  0  0  0  0  0  0  0  0
   -0.9301   13.5149   -1.6624 H   0  0  0  0  0  0  0  0  0  0  0  0
   -1.1372   14.3894   -3.2177 H   0  0  0  0  0  0  0  0  0  0  0  0
   -0.7874   12.6275   -3.2177 H   0  0  0  0  0  0  0  0  0  0  0  0
    2.8117   12.9533   -2.6279 H   0  0  0  0  0  0  0  0  0  0  0  0
    1.2674   11.8050   -4.3420 H   0  0  0  0  0  0  0  0  0  0  0  0
    2.4806   10.8356   -3.3531 H   0  0  0  0  0  0  0  0  0  0  0  0
    0.0984    9.7544   -3.6592 H   0  0  0  0  0  0  0  0  0  0  0  0
   -0.3025   12.0721   -0.3786 H   0  0  0  0  0  0  0  0  0  0  0  0
    1.4576    9.7220    0.5548 H   0  0  0  0  0  0  0  0  0  0  0  0
    0.9059   11.1389    1.5545 H   0  0  0  0  0  0  0  0  0  0  0  0
   -0.4082    9.0946    2.0216 H   0  0  0  0  0  0  0  0  0  0  0  0
   -1.4066   10.4343    1.3333 H   0  0  0  0  0  0  0  0  0  0  0  0
   -2.0554    8.3746    0.2882 H   0  0  0  0  0  0  0  0  0  0  0  0
   -0.2010    7.4100   -1.0870 H   0  0  0  0  0  0  0  0  0  0  0  0
   -2.7741   10.6220   -0.1844 H   0  0  0  0  0  0  0  0  0  0  0  0
   -2.3272   11.4082   -1.7365 H   0  0  0  0  0  0  0  0  0  0  0  0
   -3.3910    9.9607   -1.7365 H   0  0  0  0  0  0  0  0  0  0  0  0
   -1.9148    7.5302   -1.9505 H   0  0  0  0  0  0  0  0  0  0  0  0
   -2.4485    8.8364   -3.0620 H   0  0  0  0  0  0  0  0  0  0  0  0
   -0.7335    8.3020   -3.0620 H   0  0  0  0  0  0  0  0  0  0  0  0
    3.2045   11.2418    0.4433 H   0  0  0  0  0  0  0  0  0  0  0  0
    2.9343   10.3477   -1.0910 H   0  0  0  0  0  0  0  0  0  0  0  0
    3.9058   11.8587   -1.0910 H   0  0  0  0  0  0  0  0  0  0  0  0
    1.4015   13.0886    1.0482 H   0  0  0  0  0  0  0  0  0  0  0  0
    2.8727   13.7041    0.1037 H   0  0  0  0  0  0  0  0  0  0  0  0
   -0.0286   14.4932   -0.2733 H   0  0  0  0  0  0  0  0  0  0  0  0
    1.3504   15.5065    0.3087 H   0  0  0  0  0  0  0  0  0  0  0  0
    3.3202   15.4762   -0.8315 H   0  0  0  0  0  0  0  0  0  0  0  0
    3.4540   14.5862   -2.3860 H   0  0  0  0  0  0  0  0  0  0  0  0
    3.0719   16.3414   -2.3860 H   0  0  0  0  0  0  0  0  0  0  0  0
  1  2  1  0
  2  3  1  0
  3  4  1  0
  4  5  1  0
  5  6  1  0
  6  7  1  0
  7  8  1  0
  7  9  1  0
  2 10  1  0
 10 11  1  0
 11 12  1  0
 12 13  1  0
 13 14  1  1
 13 15  1  0
 15 16  1  0
 16 17  1  0
 17 18  2  0
 18 19  1  0
 19 20  1  0
 20 21  1  0
 21 22  1  0
 22 23  1  0
 22 24  1  0
 24 25  1  0
 24 26  1  0
 19 27  1  0
 27 28  1  1
 27 29  1  0
 29 30  1  0
 30 31  1  0
 31 32  1  1
  7  5  1  0
 31 10  1  0
 31 13  1  0
 27 15  1  0
 24 18  1  0
  1 33  1  0
  1 34  1  0
  1 35  1  0
  2 36  1  6
  3 37  1  0
  3 38  1  0
  4 39  1  0
  4 40  1  0
  5 41  1  1
  8 42  1  0
  8 43  1  0
  8 44  1  0
  9 45  1  0
  9 46  1  0
  9 47  1  0
 10 48  1  6
 11 49  1  0
 11 50  1  0
 12 51  1  0
 12 52  1  0
 14 53  1  0
 14 54  1  0
 14 55  1  0
 15 56  1  6
 16 57  1  0
 16 58  1  0
 17 59  1  0
 19 60  1  1
 20 61  1  0
 20 62  1  0
 21 63  1  0
 21 64  1  0
 22 65  1  1
 23 66  1  0
 25 67  1  0
 25 68  1  0
 25 69  1  0
 26 70  1  0
 26 71  1  0
 26 72  1  0
 28 73  1  0
 28 74  1  0
 28 75  1  0
 29 76  1  0
 29 77  1  0
 30 78  1  0
 30 79  1  0
 32 80  1  0
 32 81  1  0
 32 82  1  0
M  END
>  <meeko>  (3) 
{"is_sidechain": [false], "intermolecular_energy": 2.731, "internal_energy": -0.839}

$$$$
EPH_relaxed_0001_pdb2pqr_Repair_24_r2_0001_out
     RDKit          3D

 82 86  0  0  0  0  0  0  0  0999 V2000
    0.3670   18.4280   -0.0600 C   0  0  0  0  0  0  0  0  0  0  0  0
    1.4620   17.3780   -0.2650 C   0  0  2  0  0  0  0  0  0  0  0  0
    2.6770   17.9460   -1.0260 C   0  0  0  0  0  0  0  0  0  0  0  0
    3.9110   18.1580   -0.1450 C   0  0  0  0  0  0  0  0  0  0  0  0
    3.5380   18.6460    1.2220 C   0  0  2  0  0  0  0  0  0  0  0  0
    3.7960   20.0380    1.4520 O   0  0  0  0  0  0  0  0  0  0  0  0
    4.5530   19.1130    2.2490 C   0  0  0  0  0  0  0  0  0  0  0  0
    6.0200   19.1130    1.9520 C   0  0  0  0  0  0  0  0  0  0  0  0
    4.1650   19.1050    3.6950 C   0  0  0  0  0  0  0  0  0  0  0  0
    0.8960   16.1760   -1.0120 C   0  0  1  0  0  0  0  0  0  0  0  0
    0.7840   16.4200   -2.5410 C   0  0  0  0  0  0  0  0  0  0  0  0
    1.0810   15.0650   -3.2330 C   0  0  0  0  0  0  0  0  0  0  0  0
    1.0250   14.0230   -2.0920 C   0  0  1  0  0  0  0  0  0  0  0  0
   -0.4950   13.7310   -1.8900 C   0  0  0  0  0  0  0  0  0  0  0  0
    1.8400   12.7080   -2.3160 C   0  0  2  0  0  0  0  0  0  0  0  0
    1.3840   11.8520   -3.5100 C   0  0  0  0  0  0  0  0  0  0  0  0
    0.3480   10.8240   -3.1980 C   0  0  0  0  0  0  0  0  0  0  0  0
    0.0110   10.4010   -1.9650 C   0  0  0  0  0  0  0  0  0  0  0  0
    0.7680   10.9000   -0.7280 C   0  0  1  0  0  0  0  0  0  0  0  0
    1.1130    9.6970    0.1890 C   0  0  0  0  0  0  0  0  0  0  0  0
   -0.1150    8.8670    0.5510 C   0  0  0  0  0  0  0  0  0  0  0  0
   -0.8070    8.3410   -0.7030 C   0  0  2  0  0  0  0  0  0  0  0  0
    0.0570    7.3980   -1.3450 O   0  0  0  0  0  0  0  0  0  0  0  0
   -1.1930    9.4630   -1.7070 C   0  0  0  0  0  0  0  0  0  0  0  0
   -2.3510   10.3080   -1.1220 C   0  0  0  0  0  0  0  0  0  0  0  0
   -1.7530    8.7860   -2.9870 C   0  0  0  0  0  0  0  0  0  0  0  0
    2.0250   11.8300   -1.0120 C   0  0  1  0  0  0  0  0  0  0  0  0
    3.2950   10.9540   -1.2420 C   0  0  0  0  0  0  0  0  0  0  0  0
    2.3160   12.7070    0.2630 C   0  0  0  0  0  0  0  0  0  0  0  0
    1.5690   14.0500    0.3680 C   0  0  0  0  0  0  0  0  0  0  0  0
    1.6920   14.8490   -0.9330 C   0  0  2  0  0  0  0  0  0  0  0  0
    3.2090   15.1770   -1.1510 C   0  0  0  0  0  0  0  0  0  0  0  0
    0.2050   18.5834    1.0169 H   0  0  0  0  0  0  0  0  0  0  0  0
    0.6762   19.3758   -0.5248 H   0  0  0  0  0  0  0  0  0  0  0  0
   -0.5670   18.0793   -0.5248 H   0  0  0  0  0  0  0  0  0  0  0  0
    1.8119   17.0669    0.7304 H   0  0  0  0  0  0  0  0  0  0  0  0
    2.9414   17.2445   -1.8310 H   0  0  0  0  0  0  0  0  0  0  0  0
    2.3826   18.9339   -1.4099 H   0  0  0  0  0  0  0  0  0  0  0  0
    4.4485   17.2032   -0.0484 H   0  0  0  0  0  0  0  0  0  0  0  0
    4.5453   18.9207   -0.6205 H   0  0  0  0  0  0  0  0  0  0  0  0
    2.7084   17.9259    1.2787 H   0  0  0  0  0  0  0  0  0  0  0  0
    6.3794   18.0759    1.8792 H   0  0  0  0  0  0  0  0  0  0  0  0
    6.2012   19.6315    0.9990 H   0  0  0  0  0  0  0  0  0  0  0  0
    6.5576   19.6315    2.7595 H   0  0  0  0  0  0  0  0  0  0  0  0
    5.0714   19.1237    4.3180 H   0  0  0  0  0  0  0  0  0  0  0  0
    3.5507   19.9907    3.9147 H   0  0  0  0  0  0  0  0  0  0  0  0
    3.5878   18.1948    3.9147 H   0  0  0  0  0  0  0  0  0  0  0  0
   -0.0650   16.0704   -0.4873 H   0  0  0  0  0  0  0  0  0  0  0  0
   -0.2298   16.7618   -2.7968 H   0  0  0  0  0  0  0  0  0  0  0  0
    1.4917   17.1951   -2.8702 H   0  0  0  0  0  0  0  0  0  0  0  0
    0.3213   14.8448   -3.9975 H   0  0  0  0  0  0  0  0  0  0  0  0
    2.0518   15.0650   -3.7503 H   0  0  0  0  0  0  0  0  0  0  0  0
   -0.7202   13.6877   -0.8142 H   0  0  0  0  0  0  0  0  0  0  0  0
   -1.0874   14.5318   -2.3567 H   0  0  0  0  0  0  0  0  0  0  0  0
   -0.7485   12.7677   -2.3567 H   0  0  0  0  0  0  0  0  0  0  0  0
    2.8349   13.0911   -2.5870 H   0  0  0  0  0  0  0  0  0  0  0  0
    0.9734   12.5271   -4.2752 H   0  0  0  0  0  0  0  0  0  0  0  0
    2.2730   11.2969   -3.8439 H   0  0  0  0  0  0  0  0  0  0  0  0
   -0.1857   10.3735   -4.0478 H   0  0  0  0  0  0  0  0  0  0  0  0
    0.0804   11.5821   -0.2065 H   0  0  0  0  0  0  0  0  0  0  0  0
    1.8340    9.0509   -0.3331 H   0  0  0  0  0  0  0  0  0  0  0  0
    1.5322   10.0985    1.1234 H   0  0  0  0  0  0  0  0  0  0  0  0
    0.1968    8.0157    1.1740 H   0  0  0  0  0  0  0  0  0  0  0  0
   -0.8218    9.5068    1.0997 H   0  0  0  0  0  0  0  0  0  0  0  0
   -1.7476    7.8670   -0.3859 H   0  0  0  0  0  0  0  0  0  0  0  0
    0.8480    7.2980   -0.7890 H   0  0  0  0  0  0  0  0  0  0  0  0
   -2.3087   10.2771   -0.0232 H   0  0  0  0  0  0  0  0  0  0  0  0
   -2.2541   11.3491   -1.4636 H   0  0  0  0  0  0  0  0  0  0  0  0
   -3.3129    9.8981   -1.4636 H   0  0  0  0  0  0  0  0  0  0  0  0
   -2.4302    7.9673   -2.7024 H   0  0  0  0  0  0  0  0  0  0  0  0
   -2.3048    9.5280   -3.5828 H   0  0  0  0  0  0  0  0  0  0  0  0
   -0.9207    8.3831   -3.5828 H   0  0  0  0  0  0  0  0  0  0  0  0
    3.7194   10.6613   -0.2703 H   0  0  0  0  0  0  0  0  0  0  0  0
    3.0206   10.0522   -1.8089 H   0  0  0  0  0  0  0  0  0  0  0  0
    4.0406   11.5308   -1.8089 H   0  0  0  0  0  0  0  0  0  0  0  0
    2.0497   12.1082    1.1465 H   0  0  0  0  0  0  0  0  0  0  0  0
    3.3805   12.9748    0.1911 H   0  0  0  0  0  0  0  0  0  0  0  0
    0.5057   13.8553    0.5716 H   0  0  0  0  0  0  0  0  0  0  0  0
    2.0160   14.6371    1.1837 H   0  0  0  0  0  0  0  0  0  0  0  0
    3.7049   15.2842   -0.1750 H   0  0  0  0  0  0  0  0  0  0  0  0
    3.6832   14.3606   -1.7155 H   0  0  0  0  0  0  0  0  0  0  0  0
    3.3036   16.1164   -1.7155 H   0  0  0  0  0  0  0  0  0  0  0  0
  1  2  1  0
  2  3  1  0
  3  4  1  0
  4  5  1  0
  5  6  1  0
  6  7  1  0
  7  8  1  0
  7  9  1  0
  2 10  1  0
 10 11  1  0
 11 12  1  0
 12 13  1  0
 13 14  1  1
 13 15  1  0
 15 16  1  0
 16 17  1  0
 17 18  2  0
 18 19  1  0
 19 20  1  0
 20 21  1  0
 21 22  1  0
 22 23  1  0
 22 24  1  0
 24 25  1  0
 24 26  1  0
 19 27  1  0
 27 28  1  6
 27 29  1  0
 29 30  1  0
 30 31  1  0
 31 32  1  6
  7  5  1  0
 31 10  1  0
 31 13  1  0
 27 15  1  0
 24 18  1  0
  1 33  1  0
  1 34  1  0
  1 35  1  0
  2 36  1  1
  3 37  1  0
  3 38  1  0
  4 39  1  0
  4 40  1  0
  5 41  1  1
  8 42  1  0
  8 43  1  0
  8 44  1  0
  9 45  1  0
  9 46  1  0
  9 47  1  0
 10 48  1  1
 11 49  1  0
 11 50  1  0
 12 51  1  0
 12 52  1  0
 14 53  1  0
 14 54  1  0
 14 55  1  0
 15 56  1  6
 16 57  1  0
 16 58  1  0
 17 59  1  0
 19 60  1  1
 20 61  1  0
 20 62  1  0
 21 63  1  0
 21 64  1  0
 22 65  1  1
 23 66  1  0
 25 67  1  0
 25 68  1  0
 25 69  1  0
 26 70  1  0
 26 71  1  0
 26 72  1  0
 28 73  1  0
 28 74  1  0
 28 75  1  0
 29 76  1  0
 29 77  1  0
 30 78  1  0
 30 79  1  0
 32 80  1  0
 32 81  1  0
 32 82  1  0
M  END
>  <meeko>  (4) 
{"is_sidechain": [false], "intermolecular_energy": 2.731, "internal_energy": -0.839}

$$$$
EPH_relaxed_0001_pdb2pqr_Repair_24_r2_0001_out
     RDKit          3D

 82 86  0  0  0  0  0  0  0  0999 V2000
   -3.4120    9.3180    0.5430 C   0  0  0  0  0  0  0  0  0  0  0  0
   -2.5830    9.6770   -0.6940 C   0  0  2  0  0  0  0  0  0  0  0  0
   -1.9150    8.4380   -1.3240 C   0  0  0  0  0  0  0  0  0  0  0  0
   -2.8290    7.6640   -2.2770 C   0  0  0  0  0  0  0  0  0  0  0  0
   -4.2690    7.7700   -1.8740 C   0  0  2  0  0  0  0  0  0  0  0  0
   -4.8250    6.5720   -1.3170 O   0  0  0  0  0  0  0  0  0  0  0  0
   -5.3890    7.0130   -2.5620 C   0  0  0  0  0  0  0  0  0  0  0  0
   -5.1180    6.0950   -3.7120 C   0  0  0  0  0  0  0  0  0  0  0  0
   -6.7870    7.5360   -2.4390 C   0  0  0  0  0  0  0  0  0  0  0  0
   -1.5250   10.7100   -0.3280 C   0  0  1  0  0  0  0  0  0  0  0  0
   -0.4260   10.1350    0.6050 C   0  0  0  0  0  0  0  0  0  0  0  0
    0.9040   10.8270    0.2100 C   0  0  0  0  0  0  0  0  0  0  0  0
    0.4760   12.0040   -0.6980 C   0  0  1  0  0  0  0  0  0  0  0  0
    0.0370   13.1320    0.2880 C   0  0  0  0  0  0  0  0  0  0  0  0
    1.5460   12.5140   -1.7180 C   0  0  2  0  0  0  0  0  0  0  0  0
    2.8270   13.0870   -1.0890 C   0  0  0  0  0  0  0  0  0  0  0  0
    2.8010   14.5540   -0.8120 C   0  0  0  0  0  0  0  0  0  0  0  0
    1.9100   15.4290   -1.3130 C   0  0  0  0  0  0  0  0  0  0  0  0
    0.8550   14.9810   -2.3330 C   0  0  1  0  0  0  0  0  0  0  0  0
    0.8040   15.9970   -3.5050 C   0  0  0  0  0  0  0  0  0  0  0  0
    0.5840   17.4290   -3.0280 C   0  0  0  0  0  0  0  0  0  0  0  0
    1.6850   17.8570   -2.0600 C   0  0  2  0  0  0  0  0  0  0  0  0
    2.9230   17.9290   -2.7740 O   0  0  0  0  0  0  0  0  0  0  0  0
    1.8360   16.9030   -0.8440 C   0  0  0  0  0  0  0  0  0  0  0  0
    0.6120   17.0540    0.0930 C   0  0  0  0  0  0  0  0  0  0  0  0
    3.0700   17.3670   -0.0230 C   0  0  0  0  0  0  0  0  0  0  0  0
    0.9690   13.4770   -2.8340 C   0  0  1  0  0  0  0  0  0  0  0  0
    1.9490   13.3920   -4.0440 C   0  0  0  0  0  0  0  0  0  0  0  0
   -0.4350   13.0040   -3.3660 C   0  0  0  0  0  0  0  0  0  0  0  0
   -1.4020   12.4000   -2.3300 C   0  0  0  0  0  0  0  0  0  0  0  0
   -0.7040   11.3280   -1.4870 C   0  0  2  0  0  0  0  0  0  0  0  0
   -0.2700   10.1700   -2.4490 C   0  0  0  0  0  0  0  0  0  0  0  0
   -2.8419    9.5649    1.4508 H   0  0  0  0  0  0  0  0  0  0  0  0
   -4.3516    9.8898    0.5333 H   0  0  0  0  0  0  0  0  0  0  0  0
   -3.6378    8.2415    0.5333 H   0  0  0  0  0  0  0  0  0  0  0  0
   -3.2699   10.0982   -1.4428 H   0  0  0  0  0  0  0  0  0  0  0  0
   -1.0286    8.7689   -1.8851 H   0  0  0  0  0  0  0  0  0  0  0  0
   -1.6593    7.7564   -0.4993 H   0  0  0  0  0  0  0  0  0  0  0  0
   -2.7122    8.0713   -3.2921 H   0  0  0  0  0  0  0  0  0  0  0  0
   -2.5407    6.6030   -2.2419 H   0  0  0  0  0  0  0  0  0  0  0  0
   -4.1437    8.8333   -1.6215 H   0  0  0  0  0  0  0  0  0  0  0  0
   -4.8259    5.1055   -3.3304 H   0  0  0  0  0  0  0  0  0  0  0  0
   -6.0258    5.9980   -4.3255 H   0  0  0  0  0  0  0  0  0  0  0  0
   -4.3030    6.5066   -4.3255 H   0  0  0  0  0  0  0  0  0  0  0  0
   -7.0495    7.6342   -1.3753 H   0  0  0  0  0  0  0  0  0  0  0  0
   -6.8545    8.5202   -2.9257 H   0  0  0  0  0  0  0  0  0  0  0  0
   -7.4839    6.8378   -2.9257 H   0  0  0  0  0  0  0  0  0  0  0  0
   -2.1670   11.4772    0.1295 H   0  0  0  0  0  0  0  0  0  0  0  0
   -0.6689   10.3530    1.6555 H   0  0  0  0  0  0  0  0  0  0  0  0
   -0.3495    9.0429    0.4984 H   0  0  0  0  0  0  0  0  0  0  0  0
    1.4298   11.1964    1.1028 H   0  0  0  0  0  0  0  0  0  0  0  0
    1.5977   10.1398   -0.2966 H   0  0  0  0  0  0  0  0  0  0  0  0
    0.1715   12.7865    1.3236 H   0  0  0  0  0  0  0  0  0  0  0  0
    0.6521   14.0279    0.1175 H   0  0  0  0  0  0  0  0  0  0  0  0
   -1.0219   13.3764    0.1175 H   0  0  0  0  0  0  0  0  0  0  0  0
    1.8518   11.5858   -2.2230 H   0  0  0  0  0  0  0  0  0  0  0  0
    3.0011   12.5644   -0.1368 H   0  0  0  0  0  0  0  0  0  0  0  0
    3.6253   12.9315   -1.8296 H   0  0  0  0  0  0  0  0  0  0  0  0
    3.5761   14.9533   -0.1414 H   0  0  0  0  0  0  0  0  0  0  0  0
   -0.1054   14.9805   -1.7967 H   0  0  0  0  0  0  0  0  0  0  0  0
    1.7562   15.9504   -4.0538 H   0  0  0  0  0  0  0  0  0  0  0  0
   -0.0467   15.7242   -4.1468 H   0  0  0  0  0  0  0  0  0  0  0  0
    0.5873   18.1026   -3.8976 H   0  0  0  0  0  0  0  0  0  0  0  0
   -0.3825   17.4804   -2.5054 H   0  0  0  0  0  0  0  0  0  0  0  0
    1.4040   18.8395   -1.6530 H   0  0  0  0  0  0  0  0  0  0  0  0
    2.7830   18.4970   -3.5500 H   0  0  0  0  0  0  0  0  0  0  0  0
    0.9449   17.0129    1.1406 H   0  0  0  0  0  0  0  0  0  0  0  0
    0.1209   18.0195   -0.0981 H   0  0  0  0  0  0  0  0  0  0  0  0
   -0.0991   16.2368   -0.0981 H   0  0  0  0  0  0  0  0  0  0  0  0
    2.8482   17.2836    1.0512 H   0  0  0  0  0  0  0  0  0  0  0  0
    3.9340   16.7323   -0.2693 H   0  0  0  0  0  0  0  0  0  0  0  0
    3.3018   18.4137   -0.2693 H   0  0  0  0  0  0  0  0  0  0  0  0
    2.9811   13.3025   -3.6743 H   0  0  0  0  0  0  0  0  0  0  0  0
    1.7010   12.5120   -4.6556 H   0  0  0  0  0  0  0  0  0  0  0  0
    1.8562   14.3016   -4.6556 H   0  0  0  0  0  0  0  0  0  0  0  0
   -0.9316   13.8763   -3.8160 H   0  0  0  0  0  0  0  0  0  0  0  0
   -0.2165   12.1856   -4.0677 H   0  0  0  0  0  0  0  0  0  0  0  0
   -1.7642   13.1996   -1.6670 H   0  0  0  0  0  0  0  0  0  0  0  0
   -2.2420   11.9330   -2.8652 H   0  0  0  0  0  0  0  0  0  0  0  0
    0.0550    9.3027   -1.8556 H   0  0  0  0  0  0  0  0  0  0  0  0
   -1.1212    9.8819   -3.0834 H   0  0  0  0  0  0  0  0  0  0  0  0
    0.5609   10.5123   -3.0834 H   0  0  0  0  0  0  0  0  0  0  0  0
  1  2  1  0
  2  3  1  0
  3  4  1  0
  4  5  1  0
  5  6  1  0
  6  7  1  0
  7  8  1  0
  7  9  1  0
  2 10  1  0
 10 11  1  0
 11 12  1  0
 12 13  1  0
 13 14  1  1
 13 15  1  0
 15 16  1  0
 16 17  1  0
 17 18  2  0
 18 19  1  0
 19 20  1  0
 20 21  1  0
 21 22  1  0
 22 23  1  0
 22 24  1  0
 24 25  1  0
 24 26  1  0
 19 27  1  0
 27 28  1  6
 27 29  1  0
 29 30  1  0
 30 31  1  0
 31 32  1  6
  7  5  1  0
 31 10  1  0
 31 13  1  0
 27 15  1  0
 24 18  1  0
  1 33  1  0
  1 34  1  0
  1 35  1  0
  2 36  1  6
  3 37  1  0
  3 38  1  0
  4 39  1  0
  4 40  1  0
  5 41  1  1
  8 42  1  0
  8 43  1  0
  8 44  1  0
  9 45  1  0
  9 46  1  0
  9 47  1  0
 10 48  1  1
 11 49  1  0
 11 50  1  0
 12 51  1  0
 12 52  1  0
 14 53  1  0
 14 54  1  0
 14 55  1  0
 15 56  1  6
 16 57  1  0
 16 58  1  0
 17 59  1  0
 19 60  1  1
 20 61  1  0
 20 62  1  0
 21 63  1  0
 21 64  1  0
 22 65  1  1
 23 66  1  0
 25 67  1  0
 25 68  1  0
 25 69  1  0
 26 70  1  0
 26 71  1  0
 26 72  1  0
 28 73  1  0
 28 74  1  0
 28 75  1  0
 29 76  1  0
 29 77  1  0
 30 78  1  0
 30 79  1  0
 32 80  1  0
 32 81  1  0
 32 82  1  0
M  END
>  <meeko>  (5) 
{"is_sidechain": [false], "intermolecular_energy": 2.731, "internal_energy": -0.839}

$$$$
EPH_relaxed_0001_pdb2pqr_Repair_24_r2_0001_out
     RDKit          3D

 82 86  0  0  0  0  0  0  0  0999 V2000
    3.6810   17.2500    0.3790 C   0  0  0  0  0  0  0  0  0  0  0  0
    2.8300   17.4310   -0.8810 C   0  0  2  0  0  0  0  0  0  0  0  0
    2.2190   18.8440   -0.9720 C   0  0  0  0  0  0  0  0  0  0  0  0
    1.7620   19.4040    0.3780 C   0  0  0  0  0  0  0  0  0  0  0  0
    0.4510   20.1220    0.2640 C   0  0  2  0  0  0  0  0  0  0  0  0
   -0.3000   20.1940    1.4830 O   0  0  0  0  0  0  0  0  0  0  0  0
   -0.8940   19.4370    0.4170 C   0  0  0  0  0  0  0  0  0  0  0  0
   -0.9950   17.9700    0.6940 C   0  0  0  0  0  0  0  0  0  0  0  0
   -2.1010   20.0880   -0.1850 C   0  0  0  0  0  0  0  0  0  0  0  0
    1.7250   16.3820   -0.9170 C   0  0  1  0  0  0  0  0  0  0  0  0
    0.4500   16.8830   -1.6480 C   0  0  0  0  0  0  0  0  0  0  0  0
   -0.1540   15.6580   -2.3820 C   0  0  0  0  0  0  0  0  0  0  0  0
    0.5920   14.4400   -1.7890 C   0  0  1  0  0  0  0  0  0  0  0  0
   -0.1330   14.1460   -0.4380 C   0  0  0  0  0  0  0  0  0  0  0  0
    0.6660   13.1670   -2.6930 C   0  0  2  0  0  0  0  0  0  0  0  0
   -0.6920   12.5330   -3.0390 C   0  0  0  0  0  0  0  0  0  0  0  0
   -1.1680   11.4850   -2.0880 C   0  0  0  0  0  0  0  0  0  0  0  0
   -0.4110   10.8680   -1.1620 C   0  0  0  0  0  0  0  0  0  0  0  0
    1.0970   11.1380   -1.0700 C   0  0  1  0  0  0  0  0  0  0  0  0
    1.8570    9.7910   -0.9460 C   0  0  0  0  0  0  0  0  0  0  0  0
    1.3460    8.9350    0.2090 C   0  0  0  0  0  0  0  0  0  0  0  0
   -0.1430    8.6390    0.0510 C   0  0  2  0  0  0  0  0  0  0  0  0
   -0.3280    7.8020   -1.0950 O   0  0  0  0  0  0  0  0  0  0  0  0
   -1.0100    9.9210   -0.0930 C   0  0  0  0  0  0  0  0  0  0  0  0
   -1.0500   10.6770    1.2580 C   0  0  0  0  0  0  0  0  0  0  0  0
   -2.4700    9.4800   -0.3870 C   0  0  0  0  0  0  0  0  0  0  0  0
    1.7030   12.0790   -2.1970 C   0  0  1  0  0  0  0  0  0  0  0  0
    2.0900   11.2310   -3.4470 C   0  0  0  0  0  0  0  0  0  0  0  0
    3.0380   12.7230   -1.6670 C   0  0  0  0  0  0  0  0  0  0  0  0
    2.9090   14.0430   -0.8820 C   0  0  0  0  0  0  0  0  0  0  0  0
    2.0340   15.0470   -1.6390 C   0  0  2  0  0  0  0  0  0  0  0  0
    2.7490   15.3790   -2.9930 C   0  0  0  0  0  0  0  0  0  0  0  0
    3.0500   17.3842    1.2700 H   0  0  0  0  0  0  0  0  0  0  0  0
    4.1153   16.2394    0.3861 H   0  0  0  0  0  0  0  0  0  0  0  0
    4.4890   17.9964    0.3861 H   0  0  0  0  0  0  0  0  0  0  0  0
    3.4932   17.3023   -1.7491 H   0  0  0  0  0  0  0  0  0  0  0  0
    2.9755   19.5233   -1.3918 H   0  0  0  0  0  0  0  0  0  0  0  0
    1.3249   18.7678   -1.6082 H   0  0  0  0  0  0  0  0  0  0  0  0
    1.6528   18.5730    1.0904 H   0  0  0  0  0  0  0  0  0  0  0  0
    2.5184   20.1232    0.7252 H   0  0  0  0  0  0  0  0  0  0  0  0
    0.8561   20.7875   -0.5126 H   0  0  0  0  0  0  0  0  0  0  0  0
   -1.0066   17.8021    1.7810 H   0  0  0  0  0  0  0  0  0  0  0  0
   -1.9224   17.5764    0.2523 H   0  0  0  0  0  0  0  0  0  0  0  0
   -0.1303   17.4531    0.2523 H   0  0  0  0  0  0  0  0  0  0  0  0
   -2.7634   20.4453    0.6172 H   0  0  0  0  0  0  0  0  0  0  0  0
   -1.7867   20.9389   -0.8072 H   0  0  0  0  0  0  0  0  0  0  0  0
   -2.6394   19.3579   -0.8072 H   0  0  0  0  0  0  0  0  0  0  0  0
    1.6028   16.2059    0.1619 H   0  0  0  0  0  0  0  0  0  0  0  0
   -0.2717   17.2825   -0.9203 H   0  0  0  0  0  0  0  0  0  0  0  0
    0.6914   17.6890   -2.3566 H   0  0  0  0  0  0  0  0  0  0  0  0
   -1.2343   15.5834   -2.1886 H   0  0  0  0  0  0  0  0  0  0  0  0
   -0.0375   15.7271   -3.4736 H   0  0  0  0  0  0  0  0  0  0  0  0
    0.5284   14.4142    0.3990 H   0  0  0  0  0  0  0  0  0  0  0  0
   -1.0566   14.7406   -0.3806 H   0  0  0  0  0  0  0  0  0  0  0  0
   -0.3816   13.0760   -0.3806 H   0  0  0  0  0  0  0  0  0  0  0  0
    1.0561   13.5715   -3.6386 H   0  0  0  0  0  0  0  0  0  0  0  0
   -1.4445   13.3349   -3.0654 H   0  0  0  0  0  0  0  0  0  0  0  0
   -0.5536   12.0263   -4.0055 H   0  0  0  0  0  0  0  0  0  0  0  0
   -2.2266   11.1926   -2.1494 H   0  0  0  0  0  0  0  0  0  0  0  0
    1.2441   11.7353   -0.1581 H   0  0  0  0  0  0  0  0  0  0  0  0
    1.7332    9.2287   -1.8833 H   0  0  0  0  0  0  0  0  0  0  0  0
    2.9144   10.0212   -0.7486 H   0  0  0  0  0  0  0  0  0  0  0  0
    1.9018    7.9859    0.2272 H   0  0  0  0  0  0  0  0  0  0  0  0
    1.4966    9.4868    1.1486 H   0  0  0  0  0  0  0  0  0  0  0  0
   -0.4783    8.1346    0.9692 H   0  0  0  0  0  0  0  0  0  0  0  0
   -1.1680    8.0570   -1.5130 H   0  0  0  0  0  0  0  0  0  0  0  0
   -1.0117    9.9525    2.0848 H   0  0  0  0  0  0  0  0  0  0  0  0
   -0.1865   11.3552    1.3244 H   0  0  0  0  0  0  0  0  0  0  0  0
   -1.9803   11.2603    1.3244 H   0  0  0  0  0  0  0  0  0  0  0  0
   -3.0026    9.3191    0.5619 H   0  0  0  0  0  0  0  0  0  0  0  0
   -2.9804   10.2641   -0.9656 H   0  0  0  0  0  0  0  0  0  0  0  0
   -2.4610    8.5445   -0.9656 H   0  0  0  0  0  0  0  0  0  0  0  0
    2.5262   10.2753   -3.1210 H   0  0  0  0  0  0  0  0  0  0  0  0
    1.1913   11.0369   -4.0509 H   0  0  0  0  0  0  0  0  0  0  0  0
    2.8255   11.7827   -4.0509 H   0  0  0  0  0  0  0  0  0  0  0  0
    3.5222   11.9889   -1.0063 H   0  0  0  0  0  0  0  0  0  0  0  0
    3.6118   12.9798   -2.5696 H   0  0  0  0  0  0  0  0  0  0  0  0
    2.4540   13.8361    0.0979 H   0  0  0  0  0  0  0  0  0  0  0  0
    3.9122   14.4763   -0.7565 H   0  0  0  0  0  0  0  0  0  0  0  0
    3.7292   15.8342   -2.7881 H   0  0  0  0  0  0  0  0  0  0  0  0
    2.8881   14.4534   -3.5708 H   0  0  0  0  0  0  0  0  0  0  0  0
    2.1316   16.0826   -3.5708 H   0  0  0  0  0  0  0  0  0  0  0  0
  1  2  1  0
  2  3  1  0
  3  4  1  0
  4  5  1  0
  5  6  1  0
  6  7  1  0
  7  8  1  0
  7  9  1  0
  2 10  1  0
 10 11  1  0
 11 12  1  0
 12 13  1  0
 13 14  1  1
 13 15  1  0
 15 16  1  0
 16 17  1  0
 17 18  2  0
 18 19  1  0
 19 20  1  0
 20 21  1  0
 21 22  1  0
 22 23  1  0
 22 24  1  0
 24 25  1  0
 24 26  1  0
 19 27  1  0
 27 28  1  6
 27 29  1  0
 29 30  1  0
 30 31  1  0
 31 32  1  6
  7  5  1  0
 31 10  1  0
 31 13  1  0
 27 15  1  0
 24 18  1  0
  1 33  1  0
  1 34  1  0
  1 35  1  0
  2 36  1  6
  3 37  1  0
  3 38  1  0
  4 39  1  0
  4 40  1  0
  5 41  1  6
  8 42  1  0
  8 43  1  0
  8 44  1  0
  9 45  1  0
  9 46  1  0
  9 47  1  0
 10 48  1  1
 11 49  1  0
 11 50  1  0
 12 51  1  0
 12 52  1  0
 14 53  1  0
 14 54  1  0
 14 55  1  0
 15 56  1  6
 16 57  1  0
 16 58  1  0
 17 59  1  0
 19 60  1  1
 20 61  1  0
 20 62  1  0
 21 63  1  0
 21 64  1  0
 22 65  1  1
 23 66  1  0
 25 67  1  0
 25 68  1  0
 25 69  1  0
 26 70  1  0
 26 71  1  0
 26 72  1  0
 28 73  1  0
 28 74  1  0
 28 75  1  0
 29 76  1  0
 29 77  1  0
 30 78  1  0
 30 79  1  0
 32 80  1  0
 32 81  1  0
 32 82  1  0
M  END
>  <meeko>  (6) 
{"is_sidechain": [false], "intermolecular_energy": 2.731, "internal_energy": -0.839}

$$$$
EPH_relaxed_0001_pdb2pqr_Repair_24_r2_0001_out
     RDKit          3D

 82 86  0  0  0  0  0  0  0  0999 V2000
   -5.1280    5.8790   -1.8260 C   0  0  0  0  0  0  0  0  0  0  0  0
   -5.4540    7.3760   -1.8210 C   0  0  2  0  0  0  0  0  0  0  0  0
   -5.2390    8.0120   -0.4340 C   0  0  0  0  0  0  0  0  0  0  0  0
   -4.1540    9.0920   -0.4130 C   0  0  0  0  0  0  0  0  0  0  0  0
   -2.8380    8.5640   -0.8990 C   0  0  2  0  0  0  0  0  0  0  0  0
   -1.7510    8.7260    0.0220 O   0  0  0  0  0  0  0  0  0  0  0  0
   -1.6470    9.4490   -1.2160 C   0  0  0  0  0  0  0  0  0  0  0  0
   -1.7170   10.9360   -1.0590 C   0  0  0  0  0  0  0  0  0  0  0  0
   -0.5890    8.9230   -2.1340 C   0  0  0  0  0  0  0  0  0  0  0  0
   -6.8910    7.5960   -2.2790 C   0  0  1  0  0  0  0  0  0  0  0  0
   -7.1990    6.9060   -3.6350 C   0  0  0  0  0  0  0  0  0  0  0  0
   -8.6710    6.4230   -3.5670 C   0  0  0  0  0  0  0  0  0  0  0  0
   -9.2570    7.1350   -2.3260 C   0  0  1  0  0  0  0  0  0  0  0  0
   -9.6180    8.5710   -2.8200 C   0  0  0  0  0  0  0  0  0  0  0  0
  -10.4770    6.4370   -1.6410 C   0  0  2  0  0  0  0  0  0  0  0  0
  -11.7330    6.3080   -2.5200 C   0  0  0  0  0  0  0  0  0  0  0  0
  -12.6940    7.4480   -2.4300 C   0  0  0  0  0  0  0  0  0  0  0  0
  -12.7000    8.3920   -1.4710 C   0  0  0  0  0  0  0  0  0  0  0  0
  -11.7310    8.3140   -0.2840 C   0  0  1  0  0  0  0  0  0  0  0  0
  -12.5040    8.5820    1.0340 C   0  0  0  0  0  0  0  0  0  0  0  0
  -13.2820    9.8950    1.0000 C   0  0  0  0  0  0  0  0  0  0  0  0
  -14.2750    9.9100   -0.1590 C   0  0  2  0  0  0  0  0  0  0  0  0
  -15.2870    8.9280    0.0880 O   0  0  0  0  0  0  0  0  0  0  0  0
  -13.6120    9.6410   -1.5380 C   0  0  0  0  0  0  0  0  0  0  0  0
  -12.7420   10.8570   -1.9430 C   0  0  0  0  0  0  0  0  0  0  0  0
  -14.7410    9.5430   -2.6000 C   0  0  0  0  0  0  0  0  0  0  0  0
  -10.8300    7.0070   -0.2080 C   0  0  1  0  0  0  0  0  0  0  0  0
  -11.5960    5.8760    0.5450 C   0  0  0  0  0  0  0  0  0  0  0  0
   -9.5450    7.3180    0.6460 C   0  0  0  0  0  0  0  0  0  0  0  0
   -8.3320    7.8950   -0.1090 C   0  0  0  0  0  0  0  0  0  0  0  0
   -8.0190    7.0670   -1.3590 C   0  0  2  0  0  0  0  0  0  0  0  0
   -7.6310    5.6230   -0.8920 C   0  0  0  0  0  0  0  0  0  0  0  0
   -5.0493    5.5174   -0.7901 H   0  0  0  0  0  0  0  0  0  0  0  0
   -5.9279    5.3313   -2.3457 H   0  0  0  0  0  0  0  0  0  0  0  0
   -4.1728    5.7135   -2.3457 H   0  0  0  0  0  0  0  0  0  0  0  0
   -4.7619    7.8683   -2.5200 H   0  0  0  0  0  0  0  0  0  0  0  0
   -6.1870    8.4659   -0.1095 H   0  0  0  0  0  0  0  0  0  0  0  0
   -4.9057    7.2087    0.2395 H   0  0  0  0  0  0  0  0  0  0  0  0
   -4.4661    9.9237   -1.0617 H   0  0  0  0  0  0  0  0  0  0  0  0
   -4.0258    9.4297    0.6260 H   0  0  0  0  0  0  0  0  0  0  0  0
   -3.3410    7.7711   -1.4720 H   0  0  0  0  0  0  0  0  0  0  0  0
   -1.7290   11.1916    0.0108 H   0  0  0  0  0  0  0  0  0  0  0  0
   -0.8396   11.3968   -1.5362 H   0  0  0  0  0  0  0  0  0  0  0  0
   -2.6339   11.3123   -1.5362 H   0  0  0  0  0  0  0  0  0  0  0  0
    0.2400    8.5108   -1.5400 H   0  0  0  0  0  0  0  0  0  0  0  0
   -1.0144    8.1315   -2.7684 H   0  0  0  0  0  0  0  0  0  0  0  0
   -0.2148    9.7400   -2.7684 H   0  0  0  0  0  0  0  0  0  0  0  0
   -6.9100    8.6956   -2.3038 H   0  0  0  0  0  0  0  0  0  0  0  0
   -7.0728    7.6211   -4.4612 H   0  0  0  0  0  0  0  0  0  0  0  0
   -6.5147    6.0635   -3.8139 H   0  0  0  0  0  0  0  0  0  0  0  0
   -9.2177    6.7139   -4.4761 H   0  0  0  0  0  0  0  0  0  0  0  0
   -8.7483    5.3281   -3.4955 H   0  0  0  0  0  0  0  0  0  0  0  0
   -9.7828    9.2266   -1.9523 H   0  0  0  0  0  0  0  0  0  0  0  0
   -8.7917    8.9681   -3.4279 H   0  0  0  0  0  0  0  0  0  0  0  0
  -10.5338    8.5302   -3.4279 H   0  0  0  0  0  0  0  0  0  0  0  0
  -10.1089    5.4109   -1.4938 H   0  0  0  0  0  0  0  0  0  0  0  0
  -11.4076    6.2195   -3.5670 H   0  0  0  0  0  0  0  0  0  0  0  0
  -12.2737    5.4241   -2.1507 H   0  0  0  0  0  0  0  0  0  0  0  0
  -13.4619    7.5221   -3.2141 H   0  0  0  0  0  0  0  0  0  0  0  0
  -10.9859    9.1065   -0.4478 H   0  0  0  0  0  0  0  0  0  0  0  0
  -13.2120    7.7569    1.2015 H   0  0  0  0  0  0  0  0  0  0  0  0
  -11.7651    8.6528    1.8458 H   0  0  0  0  0  0  0  0  0  0  0  0
  -13.8308   10.0130    1.9460 H   0  0  0  0  0  0  0  0  0  0  0  0
  -12.5697   10.7220    0.8632 H   0  0  0  0  0  0  0  0  0  0  0  0
  -14.7059   10.9208   -0.2105 H   0  0  0  0  0  0  0  0  0  0  0  0
  -16.0840    9.3960    0.3890 H   0  0  0  0  0  0  0  0  0  0  0  0
  -12.3783   11.3653   -1.0378 H   0  0  0  0  0  0  0  0  0  0  0  0
  -11.8845   10.5120   -2.5394 H   0  0  0  0  0  0  0  0  0  0  0  0
  -13.3454   11.5572   -2.5394 H   0  0  0  0  0  0  0  0  0  0  0  0
  -15.7140    9.4585   -2.0940 H   0  0  0  0  0  0  0  0  0  0  0  0
  -14.7320   10.4453   -3.2291 H   0  0  0  0  0  0  0  0  0  0  0  0
  -14.5766    8.6557   -3.2291 H   0  0  0  0  0  0  0  0  0  0  0  0
  -11.4953    6.0247    1.6302 H   0  0  0  0  0  0  0  0  0  0  0  0
  -12.6601    5.9065    0.2679 H   0  0  0  0  0  0  0  0  0  0  0  0
  -11.1728    4.8992    0.2679 H   0  0  0  0  0  0  0  0  0  0  0  0
   -9.8292    8.0431    1.4228 H   0  0  0  0  0  0  0  0  0  0  0  0
   -9.2094    6.3422    1.0269 H   0  0  0  0  0  0  0  0  0  0  0  0
   -8.5540    8.9297   -0.4092 H   0  0  0  0  0  0  0  0  0  0  0  0
   -7.4579    7.8665    0.5582 H   0  0  0  0  0  0  0  0  0  0  0  0
   -7.6204    5.5836    0.2072 H   0  0  0  0  0  0  0  0  0  0  0  0
   -8.3674    4.9026   -1.2777 H   0  0  0  0  0  0  0  0  0  0  0  0
   -6.6327    5.3688   -1.2777 H   0  0  0  0  0  0  0  0  0  0  0  0
  1  2  1  0
  2  3  1  0
  3  4  1  0
  4  5  1  0
  5  6  1  0
  6  7  1  0
  7  8  1  0
  7  9  1  0
  2 10  1  0
 10 11  1  0
 11 12  1  0
 12 13  1  0
 13 14  1  6
 13 15  1  0
 15 16  1  0
 16 17  1  0
 17 18  2  0
 18 19  1  0
 19 20  1  0
 20 21  1  0
 21 22  1  0
 22 23  1  0
 22 24  1  0
 24 25  1  0
 24 26  1  0
 19 27  1  0
 27 28  1  1
 27 29  1  0
 29 30  1  0
 30 31  1  0
 31 32  1  1
  7  5  1  0
 31 10  1  0
 31 13  1  0
 27 15  1  0
 24 18  1  0
  1 33  1  0
  1 34  1  0
  1 35  1  0
  2 36  1  6
  3 37  1  0
  3 38  1  0
  4 39  1  0
  4 40  1  0
  5 41  1  6
  8 42  1  0
  8 43  1  0
  8 44  1  0
  9 45  1  0
  9 46  1  0
  9 47  1  0
 10 48  1  6
 11 49  1  0
 11 50  1  0
 12 51  1  0
 12 52  1  0
 14 53  1  0
 14 54  1  0
 14 55  1  0
 15 56  1  1
 16 57  1  0
 16 58  1  0
 17 59  1  0
 19 60  1  6
 20 61  1  0
 20 62  1  0
 21 63  1  0
 21 64  1  0
 22 65  1  6
 23 66  1  0
 25 67  1  0
 25 68  1  0
 25 69  1  0
 26 70  1  0
 26 71  1  0
 26 72  1  0
 28 73  1  0
 28 74  1  0
 28 75  1  0
 29 76  1  0
 29 77  1  0
 30 78  1  0
 30 79  1  0
 32 80  1  0
 32 81  1  0
 32 82  1  0
M  END
>  <meeko>  (7) 
{"is_sidechain": [false], "intermolecular_energy": 2.731, "internal_energy": -0.839}

$$$$
EPH_relaxed_0001_pdb2pqr_Repair_24_r2_0001_out
     RDKit          3D

 82 86  0  0  0  0  0  0  0  0999 V2000
    0.3830    8.8040   -2.3450 C   0  0  0  0  0  0  0  0  0  0  0  0
    1.1250    9.9420   -3.0510 C   0  0  2  0  0  0  0  0  0  0  0  0
    2.6280    9.9560   -2.7080 C   0  0  0  0  0  0  0  0  0  0  0  0
    3.5060   10.5540   -3.8100 C   0  0  0  0  0  0  0  0  0  0  0  0
    4.9020   10.8120   -3.3290 C   0  0  2  0  0  0  0  0  0  0  0  0
    5.4920   12.0200   -3.8260 O   0  0  0  0  0  0  0  0  0  0  0  0
    6.1170   10.7940   -4.2370 C   0  0  0  0  0  0  0  0  0  0  0  0
    5.9920   10.5090   -5.7010 C   0  0  0  0  0  0  0  0  0  0  0  0
    7.4640   10.5680   -3.6250 C   0  0  0  0  0  0  0  0  0  0  0  0
    0.4950   11.2800   -2.6840 C   0  0  1  0  0  0  0  0  0  0  0  0
   -0.8770   11.1200   -1.9750 C   0  0  0  0  0  0  0  0  0  0  0  0
   -0.9790   12.2640   -0.9350 C   0  0  0  0  0  0  0  0  0  0  0  0
    0.1710   13.2300   -1.3030 C   0  0  1  0  0  0  0  0  0  0  0  0
   -0.3850   14.0850   -2.4840 C   0  0  0  0  0  0  0  0  0  0  0  0
    0.7150   14.1300   -0.1450 C   0  0  2  0  0  0  0  0  0  0  0  0
   -0.3060   15.1130    0.4520 C   0  0  0  0  0  0  0  0  0  0  0  0
   -0.3500   16.4580   -0.1950 C   0  0  0  0  0  0  0  0  0  0  0  0
    0.5860   16.9600   -1.0210 C   0  0  0  0  0  0  0  0  0  0  0  0
    1.8820   16.1880   -1.3030 C   0  0  1  0  0  0  0  0  0  0  0  0
    3.0930   17.1510   -1.1880 C   0  0  0  0  0  0  0  0  0  0  0  0
    2.9450   18.3860   -2.0710 C   0  0  0  0  0  0  0  0  0  0  0  0
    1.6750   19.1580   -1.7210 C   0  0  2  0  0  0  0  0  0  0  0  0
    1.8150   19.7020   -0.4050 O   0  0  0  0  0  0  0  0  0  0  0  0
    0.3900   18.2870   -1.7940 C   0  0  0  0  0  0  0  0  0  0  0  0
    0.0730   17.9480   -3.2710 C   0  0  0  0  0  0  0  0  0  0  0  0
   -0.7980   19.1460   -1.2820 C   0  0  0  0  0  0  0  0  0  0  0  0
    2.0870   14.8490   -0.4730 C   0  0  1  0  0  0  0  0  0  0  0  0
    2.7600   15.1690    0.8960 C   0  0  0  0  0  0  0  0  0  0  0  0
    3.0840   13.9100   -1.2500 C   0  0  0  0  0  0  0  0  0  0  0  0
    2.4710   12.9590   -2.2960 C   0  0  0  0  0  0  0  0  0  0  0  0
    1.2810   12.1930   -1.7100 C   0  0  2  0  0  0  0  0  0  0  0  0
    1.8140   11.3070   -0.5330 C   0  0  0  0  0  0  0  0  0  0  0  0
    0.4665    8.9321   -1.2557 H   0  0  0  0  0  0  0  0  0  0  0  0
   -0.6777    8.8217   -2.6360 H   0  0  0  0  0  0  0  0  0  0  0  0
    0.8270    7.8406   -2.6360 H   0  0  0  0  0  0  0  0  0  0  0  0
    1.0350    9.7734   -4.1343 H   0  0  0  0  0  0  0  0  0  0  0  0
    2.7694   10.5482   -1.7918 H   0  0  0  0  0  0  0  0  0  0  0  0
    2.9386    8.9082   -2.5832 H   0  0  0  0  0  0  0  0  0  0  0  0
    3.5446    9.8514   -4.6555 H   0  0  0  0  0  0  0  0  0  0  0  0
    3.0658   11.5148   -4.1151 H   0  0  0  0  0  0  0  0  0  0  0  0
    4.6893   10.3139   -2.3716 H   0  0  0  0  0  0  0  0  0  0  0  0
    5.5539    9.5102   -5.8440 H   0  0  0  0  0  0  0  0  0  0  0  0
    5.3426   11.2644   -6.1675 H   0  0  0  0  0  0  0  0  0  0  0  0
    6.9876   10.5429   -6.1675 H   0  0  0  0  0  0  0  0  0  0  0  0
    7.3758   10.5828   -2.5286 H   0  0  0  0  0  0  0  0  0  0  0  0
    7.8545    9.5918   -3.9483 H   0  0  0  0  0  0  0  0  0  0  0  0
    8.1517   11.3633   -3.9483 H   0  0  0  0  0  0  0  0  0  0  0  0
    0.4511   11.7426   -3.6810 H   0  0  0  0  0  0  0  0  0  0  0  0
   -1.6936   11.2002   -2.7076 H   0  0  0  0  0  0  0  0  0  0  0  0
   -0.9582   10.1364   -1.4893 H   0  0  0  0  0  0  0  0  0  0  0  0
   -1.9518   12.7718   -1.0106 H   0  0  0  0  0  0  0  0  0  0  0  0
   -0.8999   11.8961    0.0986 H   0  0  0  0  0  0  0  0  0  0  0  0
   -0.9436   14.9439   -2.0837 H   0  0  0  0  0  0  0  0  0  0  0  0
    0.4512   14.4465   -3.1004 H   0  0  0  0  0  0  0  0  0  0  0  0
   -1.0546   13.4673   -3.1004 H   0  0  0  0  0  0  0  0  0  0  0  0
    0.9207   13.3958    0.6478 H   0  0  0  0  0  0  0  0  0  0  0  0
   -1.3048   14.6607    0.3641 H   0  0  0  0  0  0  0  0  0  0  0  0
    0.0096   15.2855    1.4915 H   0  0  0  0  0  0  0  0  0  0  0  0
   -1.2219   17.0925    0.0222 H   0  0  0  0  0  0  0  0  0  0  0  0
    1.7959   15.8166   -2.3348 H   0  0  0  0  0  0  0  0  0  0  0  0
    3.1872   17.4754   -0.1412 H   0  0  0  0  0  0  0  0  0  0  0  0
    3.9865   16.6051   -1.5250 H   0  0  0  0  0  0  0  0  0  0  0  0
    3.8165   19.0407   -1.9233 H   0  0  0  0  0  0  0  0  0  0  0  0
    2.8809   18.0618   -3.1202 H   0  0  0  0  0  0  0  0  0  0  0  0
    1.5555   19.9554   -2.4692 H   0  0  0  0  0  0  0  0  0  0  0  0
    2.6550   19.3770   -0.0400 H   0  0  0  0  0  0  0  0  0  0  0  0
   -0.6778   17.1451   -3.3099 H   0  0  0  0  0  0  0  0  0  0  0  0
   -0.3202   18.8425   -3.7763 H   0  0  0  0  0  0  0  0  0  0  0  0
    0.9918   17.6156   -3.7763 H   0  0  0  0  0  0  0  0  0  0  0  0
   -0.8014   19.1485   -0.1820 H   0  0  0  0  0  0  0  0  0  0  0  0
   -0.6908   20.1768   -1.6507 H   0  0  0  0  0  0  0  0  0  0  0  0
   -1.7433   18.7212   -1.6507 H   0  0  0  0  0  0  0  0  0  0  0  0
    2.0957   14.8531    1.7139 H   0  0  0  0  0  0  0  0  0  0  0  0
    3.7153   14.6287    0.9701 H   0  0  0  0  0  0  0  0  0  0  0  0
    2.9440   16.2510    0.9701 H   0  0  0  0  0  0  0  0  0  0  0  0
    3.8098   14.5528   -1.7696 H   0  0  0  0  0  0  0  0  0  0  0  0
    3.5173   13.2522   -0.4821 H   0  0  0  0  0  0  0  0  0  0  0  0
    2.1298   13.5471   -3.1607 H   0  0  0  0  0  0  0  0  0  0  0  0
    3.2386   12.2332   -2.6026 H   0  0  0  0  0  0  0  0  0  0  0  0
    1.5371   11.7673    0.4269 H   0  0  0  0  0  0  0  0  0  0  0  0
    1.3700   10.3028   -0.5998 H   0  0  0  0  0  0  0  0  0  0  0  0
    2.9092   11.2288   -0.5998 H   0  0  0  0  0  0  0  0  0  0  0  0
  1  2  1  0
  2  3  1  0
  3  4  1  0
  4  5  1  0
  5  6  1  0
  6  7  1  0
  7  8  1  0
  7  9  1  0
  2 10  1  0
 10 11  1  0
 11 12  1  0
 12 13  1  0
 13 14  1  6
 13 15  1  0
 15 16  1  0
 16 17  1  0
 17 18  2  0
 18 19  1  0
 19 20  1  0
 20 21  1  0
 21 22  1  0
 22 23  1  0
 22 24  1  0
 24 25  1  0
 24 26  1  0
 19 27  1  0
 27 28  1  1
 27 29  1  0
 29 30  1  0
 30 31  1  0
 31 32  1  1
  7  5  1  0
 31 10  1  0
 31 13  1  0
 27 15  1  0
 24 18  1  0
  1 33  1  0
  1 34  1  0
  1 35  1  0
  2 36  1  6
  3 37  1  0
  3 38  1  0
  4 39  1  0
  4 40  1  0
  5 41  1  1
  8 42  1  0
  8 43  1  0
  8 44  1  0
  9 45  1  0
  9 46  1  0
  9 47  1  0
 10 48  1  6
 11 49  1  0
 11 50  1  0
 12 51  1  0
 12 52  1  0
 14 53  1  0
 14 54  1  0
 14 55  1  0
 15 56  1  1
 16 57  1  0
 16 58  1  0
 17 59  1  0
 19 60  1  6
 20 61  1  0
 20 62  1  0
 21 63  1  0
 21 64  1  0
 22 65  1  6
 23 66  1  0
 25 67  1  0
 25 68  1  0
 25 69  1  0
 26 70  1  0
 26 71  1  0
 26 72  1  0
 28 73  1  0
 28 74  1  0
 28 75  1  0
 29 76  1  0
 29 77  1  0
 30 78  1  0
 30 79  1  0
 32 80  1  0
 32 81  1  0
 32 82  1  0
M  END
>  <meeko>  (8) 
{"is_sidechain": [false], "intermolecular_energy": 2.731, "internal_energy": -0.839}

$$$$
EPH_relaxed_0001_pdb2pqr_Repair_24_r2_0001_out
     RDKit          3D

 82 86  0  0  0  0  0  0  0  0999 V2000
   -0.2620   10.5120   -4.0300 C   0  0  0  0  0  0  0  0  0  0  0  0
    0.9560   10.3630   -3.1140 C   0  0  2  0  0  0  0  0  0  0  0  0
    0.9510    9.0220   -2.3540 C   0  0  0  0  0  0  0  0  0  0  0  0
   -0.4340    8.6050   -1.8490 C   0  0  0  0  0  0  0  0  0  0  0  0
   -0.6380    8.9840   -0.4140 C   0  0  2  0  0  0  0  0  0  0  0  0
   -1.9980    8.9220    0.0340 O   0  0  0  0  0  0  0  0  0  0  0  0
   -1.3930   10.2250    0.0250 C   0  0  0  0  0  0  0  0  0  0  0  0
   -1.9910   11.1680   -0.9720 C   0  0  0  0  0  0  0  0  0  0  0  0
   -1.1290   10.7770    1.3910 C   0  0  0  0  0  0  0  0  0  0  0  0
    1.0070   11.5220   -2.1250 C   0  0  1  0  0  0  0  0  0  0  0  0
    2.0410   11.2940   -0.9900 C   0  0  0  0  0  0  0  0  0  0  0  0
    2.6410   12.6820   -0.6470 C   0  0  0  0  0  0  0  0  0  0  0  0
    1.7090   13.6950   -1.3500 C   0  0  1  0  0  0  0  0  0  0  0  0
    0.4860   13.8470   -0.3910 C   0  0  0  0  0  0  0  0  0  0  0  0
    2.3380   15.0810   -1.7070 C   0  0  2  0  0  0  0  0  0  0  0  0
    2.8110   15.9130   -0.5020 C   0  0  0  0  0  0  0  0  0  0  0  0
    1.7910   16.8400    0.0730 C   0  0  0  0  0  0  0  0  0  0  0  0
    0.6440   17.2090   -0.5270 C   0  0  0  0  0  0  0  0  0  0  0  0
    0.3220   16.7590   -1.9580 C   0  0  1  0  0  0  0  0  0  0  0  0
   -0.1830   17.9730   -2.7810 C   0  0  0  0  0  0  0  0  0  0  0  0
   -1.3570   18.6840   -2.1150 C   0  0  0  0  0  0  0  0  0  0  0  0
   -0.9810   19.1670   -0.7170 C   0  0  2  0  0  0  0  0  0  0  0  0
    0.0090   20.1940   -0.8360 O   0  0  0  0  0  0  0  0  0  0  0  0
   -0.4480   18.0320    0.2010 C   0  0  0  0  0  0  0  0  0  0  0  0
   -1.6080   17.0770    0.5750 C   0  0  0  0  0  0  0  0  0  0  0  0
    0.0280   18.6770    1.5310 C   0  0  0  0  0  0  0  0  0  0  0  0
    1.4690   15.9500   -2.7040 C   0  0  1  0  0  0  0  0  0  0  0  0
    2.4500   16.9400   -3.4030 C   0  0  0  0  0  0  0  0  0  0  0  0
    0.8240   15.0820   -3.8480 C   0  0  0  0  0  0  0  0  0  0  0  0
    0.3290   13.6760   -3.4590 C   0  0  0  0  0  0  0  0  0  0  0  0
    1.4050   12.9130   -2.6800 C   0  0  2  0  0  0  0  0  0  0  0  0
    2.6390   12.7260   -3.6260 C   0  0  0  0  0  0  0  0  0  0  0  0
   -1.1694   10.6230   -3.4183 H   0  0  0  0  0  0  0  0  0  0  0  0
   -0.1367   11.4015   -4.6649 H   0  0  0  0  0  0  0  0  0  0  0  0
   -0.3548    9.6185   -4.6649 H   0  0  0  0  0  0  0  0  0  0  0  0
    1.8527   10.3776   -3.7510 H   0  0  0  0  0  0  0  0  0  0  0  0
    1.3245    8.2385   -3.0298 H   0  0  0  0  0  0  0  0  0  0  0  0
    1.5901    9.1523   -1.4683 H   0  0  0  0  0  0  0  0  0  0  0  0
   -1.2011    9.1016   -2.4613 H   0  0  0  0  0  0  0  0  0  0  0  0
   -0.5130    7.5108   -1.9292 H   0  0  0  0  0  0  0  0  0  0  0  0
    0.3529    8.5896   -0.1448 H   0  0  0  0  0  0  0  0  0  0  0  0
   -2.5074   11.9823   -0.4426 H   0  0  0  0  0  0  0  0  0  0  0  0
   -1.1940   11.5883   -1.6030 H   0  0  0  0  0  0  0  0  0  0  0  0
   -2.7110   10.6263   -1.6030 H   0  0  0  0  0  0  0  0  0  0  0  0
   -1.4727   10.0584    2.1496 H   0  0  0  0  0  0  0  0  0  0  0  0
   -0.0499   10.9516    1.5137 H   0  0  0  0  0  0  0  0  0  0  0  0
   -1.6704   11.7267    1.5137 H   0  0  0  0  0  0  0  0  0  0  0  0
   -0.0436   11.5332   -1.7994 H   0  0  0  0  0  0  0  0  0  0  0  0
    1.5452   10.8666   -0.1060 H   0  0  0  0  0  0  0  0  0  0  0  0
    2.8260   10.5912   -1.3058 H   0  0  0  0  0  0  0  0  0  0  0  0
    2.6427   12.8461    0.4407 H   0  0  0  0  0  0  0  0  0  0  0  0
    3.6858   12.7777   -0.9776 H   0  0  0  0  0  0  0  0  0  0  0  0
    0.8309   13.8041    0.6527 H   0  0  0  0  0  0  0  0  0  0  0  0
   -0.0064   14.8133   -0.5751 H   0  0  0  0  0  0  0  0  0  0  0  0
   -0.2280   13.0307   -0.5751 H   0  0  0  0  0  0  0  0  0  0  0  0
    3.2514   14.7928   -2.2479 H   0  0  0  0  0  0  0  0  0  0  0  0
    3.1226   15.2167    0.2905 H   0  0  0  0  0  0  0  0  0  0  0  0
    3.6265   16.5507   -0.8738 H   0  0  0  0  0  0  0  0  0  0  0  0
    1.9941   17.2562    1.0707 H   0  0  0  0  0  0  0  0  0  0  0  0
   -0.4786   16.0099   -1.8692 H   0  0  0  0  0  0  0  0  0  0  0  0
    0.6438   18.6894   -2.8960 H   0  0  0  0  0  0  0  0  0  0  0  0
   -0.5300   17.5954   -3.7541 H   0  0  0  0  0  0  0  0  0  0  0  0
   -1.6486   19.5493   -2.7284 H   0  0  0  0  0  0  0  0  0  0  0  0
   -2.1931   17.9746   -2.0280 H   0  0  0  0  0  0  0  0  0  0  0  0
   -1.8967   19.5496   -0.2425 H   0  0  0  0  0  0  0  0  0  0  0  0
    0.8200   19.8720   -0.4090 H   0  0  0  0  0  0  0  0  0  0  0  0
   -1.6893   17.0101    1.6699 H   0  0  0  0  0  0  0  0  0  0  0  0
   -2.5502   17.4646    0.1604 H   0  0  0  0  0  0  0  0  0  0  0  0
   -1.4085   16.0778    0.1604 H   0  0  0  0  0  0  0  0  0  0  0  0
   -0.3870   18.1146    2.3804 H   0  0  0  0  0  0  0  0  0  0  0  0
    1.1268   18.6533    1.5774 H   0  0  0  0  0  0  0  0  0  0  0  0
   -0.3186   19.7200    1.5774 H   0  0  0  0  0  0  0  0  0  0  0  0
    3.0080   17.5031   -2.6403 H   0  0  0  0  0  0  0  0  0  0  0  0
    3.1550   16.3755   -4.0309 H   0  0  0  0  0  0  0  0  0  0  0  0
    1.8791   17.6399   -4.0309 H   0  0  0  0  0  0  0  0  0  0  0  0
   -0.0373   15.6402   -4.2436 H   0  0  0  0  0  0  0  0  0  0  0  0
    1.6350   14.9113   -4.5713 H   0  0  0  0  0  0  0  0  0  0  0  0
   -0.5698   13.7714   -2.8321 H   0  0  0  0  0  0  0  0  0  0  0  0
    0.0990   13.1178   -4.3785 H   0  0  0  0  0  0  0  0  0  0  0  0
    3.5473   12.5884   -3.0210 H   0  0  0  0  0  0  0  0  0  0  0  0
    2.4837   11.8411   -4.2607 H   0  0  0  0  0  0  0  0  0  0  0  0
    2.7528   13.6172   -4.2607 H   0  0  0  0  0  0  0  0  0  0  0  0
  1  2  1  0
  2  3  1  0
  3  4  1  0
  4  5  1  0
  5  6  1  0
  6  7  1  0
  7  8  1  0
  7  9  1  0
  2 10  1  0
 10 11  1  0
 11 12  1  0
 12 13  1  0
 13 14  1  1
 13 15  1  0
 15 16  1  0
 16 17  1  0
 17 18  2  0
 18 19  1  0
 19 20  1  0
 20 21  1  0
 21 22  1  0
 22 23  1  0
 22 24  1  0
 24 25  1  0
 24 26  1  0
 19 27  1  0
 27 28  1  6
 27 29  1  0
 29 30  1  0
 30 31  1  0
 31 32  1  6
  7  5  1  0
 31 10  1  0
 31 13  1  0
 27 15  1  0
 24 18  1  0
  1 33  1  0
  1 34  1  0
  1 35  1  0
  2 36  1  6
  3 37  1  0
  3 38  1  0
  4 39  1  0
  4 40  1  0
  5 41  1  1
  8 42  1  0
  8 43  1  0
  8 44  1  0
  9 45  1  0
  9 46  1  0
  9 47  1  0
 10 48  1  1
 11 49  1  0
 11 50  1  0
 12 51  1  0
 12 52  1  0
 14 53  1  0
 14 54  1  0
 14 55  1  0
 15 56  1  6
 16 57  1  0
 16 58  1  0
 17 59  1  0
 19 60  1  1
 20 61  1  0
 20 62  1  0
 21 63  1  0
 21 64  1  0
 22 65  1  1
 23 66  1  0
 25 67  1  0
 25 68  1  0
 25 69  1  0
 26 70  1  0
 26 71  1  0
 26 72  1  0
 28 73  1  0
 28 74  1  0
 28 75  1  0
 29 76  1  0
 29 77  1  0
 30 78  1  0
 30 79  1  0
 32 80  1  0
 32 81  1  0
 32 82  1  0
M  END
>  <meeko>  (9) 
{"is_sidechain": [false], "intermolecular_energy": 2.731, "internal_energy": -0.839}

$$$$
EPH_relaxed_0001_pdb2pqr_Repair_24_r2_0001_out
     RDKit          3D

 82 86  0  0  0  0  0  0  0  0999 V2000
    2.0390   19.7080   -1.6050 C   0  0  0  0  0  0  0  0  0  0  0  0
    1.5460   19.4920   -0.1720 C   0  0  2  0  0  0  0  0  0  0  0  0
    2.6210   19.8530    0.8720 C   0  0  0  0  0  0  0  0  0  0  0  0
    3.4510   18.6540    1.3400 C   0  0  0  0  0  0  0  0  0  0  0  0
    4.7960   19.0760    1.8490 C   0  0  2  0  0  0  0  0  0  0  0  0
    5.4610   18.1010    2.6630 O   0  0  0  0  0  0  0  0  0  0  0  0
    5.0950   19.3270    3.3150 C   0  0  0  0  0  0  0  0  0  0  0  0
    4.0400   19.1670    4.3650 C   0  0  0  0  0  0  0  0  0  0  0  0
    6.2630   20.1940    3.6690 C   0  0  0  0  0  0  0  0  0  0  0  0
    1.1040   18.0450    0.0130 C   0  0  1  0  0  0  0  0  0  0  0  0
   -0.3080   17.9280    0.6460 C   0  0  0  0  0  0  0  0  0  0  0  0
   -0.9820   16.6850    0.0100 C   0  0  0  0  0  0  0  0  0  0  0  0
    0.1690   15.9430   -0.7090 C   0  0  1  0  0  0  0  0  0  0  0  0
    0.8890   15.1340    0.4150 C   0  0  0  0  0  0  0  0  0  0  0  0
   -0.2420   15.0270   -1.9080 C   0  0  2  0  0  0  0  0  0  0  0  0
   -1.1610   13.8480   -1.5420 C   0  0  0  0  0  0  0  0  0  0  0  0
   -0.4590   12.5810   -1.1790 C   0  0  0  0  0  0  0  0  0  0  0  0
    0.8370   12.3090   -1.4190 C   0  0  0  0  0  0  0  0  0  0  0  0
    1.7160   13.2890   -2.2070 C   0  0  1  0  0  0  0  0  0  0  0  0
    2.5290   12.5120   -3.2750 C   0  0  0  0  0  0  0  0  0  0  0  0
    3.3320   11.3610   -2.6770 C   0  0  0  0  0  0  0  0  0  0  0  0
    2.4170   10.3770   -1.9510 C   0  0  2  0  0  0  0  0  0  0  0  0
    1.5760    9.7340   -2.9140 O   0  0  0  0  0  0  0  0  0  0  0  0
    1.5400   11.0480   -0.8570 C   0  0  0  0  0  0  0  0  0  0  0  0
    2.4330   11.4790    0.3330 C   0  0  0  0  0  0  0  0  0  0  0  0
    0.5650    9.9750   -0.3020 C   0  0  0  0  0  0  0  0  0  0  0  0
    0.9710   14.5570   -2.8100 C   0  0  1  0  0  0  0  0  0  0  0  0
    0.3760   14.2090   -4.2090 C   0  0  0  0  0  0  0  0  0  0  0  0
    2.0210   15.7060   -3.0460 C   0  0  0  0  0  0  0  0  0  0  0  0
    2.2950   16.6520   -1.8620 C   0  0  0  0  0  0  0  0  0  0  0  0
    0.9850   17.1690   -1.2590 C   0  0  2  0  0  0  0  0  0  0  0  0
    0.2500   18.0060   -2.3600 C   0  0  0  0  0  0  0  0  0  0  0  0
    3.0463   20.1494   -1.5836 H   0  0  0  0  0  0  0  0  0  0  0  0
    2.0729   18.7423   -2.1306 H   0  0  0  0  0  0  0  0  0  0  0  0
    1.3520   20.3876   -2.1306 H   0  0  0  0  0  0  0  0  0  0  0  0
    0.6908   20.1649   -0.0109 H   0  0  0  0  0  0  0  0  0  0  0  0
    3.3015   20.5944    0.4279 H   0  0  0  0  0  0  0  0  0  0  0  0
    2.0937   20.2436    1.7549 H   0  0  0  0  0  0  0  0  0  0  0  0
    2.9097   18.1391    2.1474 H   0  0  0  0  0  0  0  0  0  0  0  0
    3.6040   17.9859    0.4796 H   0  0  0  0  0  0  0  0  0  0  0  0
    4.9748   19.6780    0.9459 H   0  0  0  0  0  0  0  0  0  0  0  0
    4.5008   19.2369    5.3614 H   0  0  0  0  0  0  0  0  0  0  0  0
    3.2873   19.9613    4.2526 H   0  0  0  0  0  0  0  0  0  0  0  0
    3.5567   18.1853    4.2526 H   0  0  0  0  0  0  0  0  0  0  0  0
    6.3522   20.2602    4.7634 H   0  0  0  0  0  0  0  0  0  0  0  0
    7.1829   19.7583    3.2519 H   0  0  0  0  0  0  0  0  0  0  0  0
    6.1122   21.2006    3.2519 H   0  0  0  0  0  0  0  0  0  0  0  0
    1.9274   17.6805    0.6448 H   0  0  0  0  0  0  0  0  0  0  0  0
   -0.2252   17.7982    1.7352 H   0  0  0  0  0  0  0  0  0  0  0  0
   -0.9002   18.8363    0.4609 H   0  0  0  0  0  0  0  0  0  0  0  0
   -1.4308   16.0470    0.7856 H   0  0  0  0  0  0  0  0  0  0  0  0
   -1.7965   16.9576   -0.6772 H   0  0  0  0  0  0  0  0  0  0  0  0
    0.5616   15.5018    1.3986 H   0  0  0  0  0  0  0  0  0  0  0  0
    0.6355   14.0679    0.3193 H   0  0  0  0  0  0  0  0  0  0  0  0
    1.9773   15.2621    0.3193 H   0  0  0  0  0  0  0  0  0  0  0  0
   -0.8537   15.7029   -2.5236 H   0  0  0  0  0  0  0  0  0  0  0  0
   -1.7787   14.1521   -0.6842 H   0  0  0  0  0  0  0  0  0  0  0  0
   -1.7441   13.6242   -2.4475 H   0  0  0  0  0  0  0  0  0  0  0  0
   -1.0512   11.8045   -0.6727 H   0  0  0  0  0  0  0  0  0  0  0  0
    2.4002   13.7412   -1.4739 H   0  0  0  0  0  0  0  0  0  0  0  0
    1.8313   12.1046   -4.0215 H   0  0  0  0  0  0  0  0  0  0  0  0
    3.2422   13.2160   -3.7286 H   0  0  0  0  0  0  0  0  0  0  0  0
    3.8603   10.8329   -3.4844 H   0  0  0  0  0  0  0  0  0  0  0  0
    4.0502   11.7728   -1.9527 H   0  0  0  0  0  0  0  0  0  0  0  0
    3.0594    9.6487   -1.4344 H   0  0  0  0  0  0  0  0  0  0  0  0
    1.6790   10.2070   -3.7570 H   0  0  0  0  0  0  0  0  0  0  0  0
    1.9268   11.2347    1.2786 H   0  0  0  0  0  0  0  0  0  0  0  0
    3.3936   10.9453    0.2827 H   0  0  0  0  0  0  0  0  0  0  0  0
    2.6128   12.5630    0.2827 H   0  0  0  0  0  0  0  0  0  0  0  0
    0.5841    9.9960    0.7976 H   0  0  0  0  0  0  0  0  0  0  0  0
   -0.4547   10.1884   -0.6552 H   0  0  0  0  0  0  0  0  0  0  0  0
    0.8748    8.9804   -0.6552 H   0  0  0  0  0  0  0  0  0  0  0  0
   -0.5669   13.6575   -4.0795 H   0  0  0  0  0  0  0  0  0  0  0  0
    0.1842   15.1373   -4.7671 H   0  0  0  0  0  0  0  0  0  0  0  0
    1.0911   13.5867   -4.7671 H   0  0  0  0  0  0  0  0  0  0  0  0
    2.9752   15.2331   -3.3215 H   0  0  0  0  0  0  0  0  0  0  0  0
    1.5792   16.3430   -3.8264 H   0  0  0  0  0  0  0  0  0  0  0  0
    2.8569   16.1075   -1.0888 H   0  0  0  0  0  0  0  0  0  0  0  0
    2.8765   17.5115   -2.2269 H   0  0  0  0  0  0  0  0  0  0  0  0
   -0.4031   18.7498   -1.8802 H   0  0  0  0  0  0  0  0  0  0  0  0
    0.9933   18.5207   -2.9866 H   0  0  0  0  0  0  0  0  0  0  0  0
   -0.3564   17.3354   -2.9866 H   0  0  0  0  0  0  0  0  0  0  0  0
  1  2  1  0
  2  3  1  0
  3  4  1  0
  4  5  1  0
  5  6  1  0
  6  7  1  0
  7  8  1  0
  7  9  1  0
  2 10  1  0
 10 11  1  0
 11 12  1  0
 12 13  1  0
 13 14  1  1
 13 15  1  0
 15 16  1  0
 16 17  1  0
 17 18  2  0
 18 19  1  0
 19 20  1  0
 20 21  1  0
 21 22  1  0
 22 23  1  0
 22 24  1  0
 24 25  1  0
 24 26  1  0
 19 27  1  0
 27 28  1  6
 27 29  1  0
 29 30  1  0
 30 31  1  0
 31 32  1  6
  7  5  1  0
 31 10  1  0
 31 13  1  0
 27 15  1  0
 24 18  1  0
  1 33  1  0
  1 34  1  0
  1 35  1  0
  2 36  1  1
  3 37  1  0
  3 38  1  0
  4 39  1  0
  4 40  1  0
  5 41  1  6
  8 42  1  0
  8 43  1  0
  8 44  1  0
  9 45  1  0
  9 46  1  0
  9 47  1  0
 10 48  1  1
 11 49  1  0
 11 50  1  0
 12 51  1  0
 12 52  1  0
 14 53  1  0
 14 54  1  0
 14 55  1  0
 15 56  1  6
 16 57  1  0
 16 58  1  0
 17 59  1  0
 19 60  1  1
 20 61  1  0
 20 62  1  0
 21 63  1  0
 21 64  1  0
 22 65  1  1
 23 66  1  0
 25 67  1  0
 25 68  1  0
 25 69  1  0
 26 70  1  0
 26 71  1  0
 26 72  1  0
 28 73  1  0
 28 74  1  0
 28 75  1  0
 29 76  1  0
 29 77  1  0
 30 78  1  0
 30 79  1  0
 32 80  1  0
 32 81  1  0
 32 82  1  0
M  END
>  <meeko>  (10) 
{"is_sidechain": [false], "intermolecular_energy": 2.731, "internal_energy": -0.839}

$$$$
EPH_relaxed_0001_pdb2pqr_Repair_24_r2_0001_out
     RDKit          3D

 82 86  0  0  0  0  0  0  0  0999 V2000
   -3.7330    7.2220   -3.4250 C   0  0  0  0  0  0  0  0  0  0  0  0
   -3.7380    7.2740   -1.8940 C   0  0  2  0  0  0  0  0  0  0  0  0
   -5.1440    7.0300   -1.3100 C   0  0  0  0  0  0  0  0  0  0  0  0
   -6.2710    7.1830   -2.3350 C   0  0  0  0  0  0  0  0  0  0  0  0
   -7.5940    7.4220   -1.6720 C   0  0  2  0  0  0  0  0  0  0  0  0
   -8.2150    6.2470   -1.1330 O   0  0  0  0  0  0  0  0  0  0  0  0
   -8.9090    6.8930   -2.2130 C   0  0  0  0  0  0  0  0  0  0  0  0
   -8.9660    6.0830   -3.4700 C   0  0  0  0  0  0  0  0  0  0  0  0
  -10.1780    7.5670   -1.7960 C   0  0  0  0  0  0  0  0  0  0  0  0
   -3.2030    8.6190   -1.4180 C   0  0  1  0  0  0  0  0  0  0  0  0
   -3.8220    9.0640   -0.0660 C   0  0  0  0  0  0  0  0  0  0  0  0
   -2.7110    9.8180    0.7090 C   0  0  0  0  0  0  0  0  0  0  0  0
   -1.6050   10.0710   -0.3420 C   0  0  1  0  0  0  0  0  0  0  0  0
   -2.0830   11.3300   -1.1320 C   0  0  0  0  0  0  0  0  0  0  0  0
   -0.1540   10.2530    0.2110 C   0  0  2  0  0  0  0  0  0  0  0  0
    0.0440   11.4670    1.1350 C   0  0  0  0  0  0  0  0  0  0  0  0
    0.4480   12.7310    0.4510 C   0  0  0  0  0  0  0  0  0  0  0  0
    0.9190   12.8230   -0.8070 C   0  0  0  0  0  0  0  0  0  0  0  0
    1.1790   11.5640   -1.6450 C   0  0  1  0  0  0  0  0  0  0  0  0
    2.5680   11.6740   -2.3270 C   0  0  0  0  0  0  0  0  0  0  0  0
    2.7220   12.9580   -3.1370 C   0  0  0  0  0  0  0  0  0  0  0  0
    2.5130   14.1870   -2.2570 C   0  0  2  0  0  0  0  0  0  0  0  0
    3.5810   14.2610   -1.3080 O   0  0  0  0  0  0  0  0  0  0  0  0
    1.1500   14.1830   -1.5110 C   0  0  0  0  0  0  0  0  0  0  0  0
    0.0010   14.4070   -2.5250 C   0  0  0  0  0  0  0  0  0  0  0  0
    1.1270   15.4030   -0.5520 C   0  0  0  0  0  0  0  0  0  0  0  0
    0.9750   10.1780   -0.8950 C   0  0  1  0  0  0  0  0  0  0  0  0
    2.2900    9.7710   -0.1620 C   0  0  0  0  0  0  0  0  0  0  0  0
    0.6950    9.0540   -1.9610 C   0  0  0  0  0  0  0  0  0  0  0  0
   -0.7730    8.8420   -2.3780 C   0  0  0  0  0  0  0  0  0  0  0  0
   -1.6800    8.7240   -1.1500 C   0  0  2  0  0  0  0  0  0  0  0  0
   -1.2380    7.4530   -0.3480 C   0  0  0  0  0  0  0  0  0  0  0  0
   -3.6326    6.1778   -3.7561 H   0  0  0  0  0  0  0  0  0  0  0  0
   -4.6754    7.6395   -3.8091 H   0  0  0  0  0  0  0  0  0  0  0  0
   -2.8874    7.8114   -3.8091 H   0  0  0  0  0  0  0  0  0  0  0  0
   -3.0852    6.4655   -1.5331 H   0  0  0  0  0  0  0  0  0  0  0  0
   -5.1793    6.0079   -0.9050 H   0  0  0  0  0  0  0  0  0  0  0  0
   -5.3076    7.7940   -0.5357 H   0  0  0  0  0  0  0  0  0  0  0  0
   -6.0423    8.0351   -2.9919 H   0  0  0  0  0  0  0  0  0  0  0  0
   -6.3398    6.2486   -2.9114 H   0  0  0  0  0  0  0  0  0  0  0  0
   -7.2785    8.4260   -1.3520 H   0  0  0  0  0  0  0  0  0  0  0  0
   -9.0411    5.0155   -3.2152 H   0  0  0  0  0  0  0  0  0  0  0  0
   -9.8453    6.3821   -4.0594 H   0  0  0  0  0  0  0  0  0  0  0  0
   -8.0535    6.2560   -4.0594 H   0  0  0  0  0  0  0  0  0  0  0  0
  -10.2337    7.5966   -0.6978 H   0  0  0  0  0  0  0  0  0  0  0  0
  -10.1953    8.5932   -2.1918 H   0  0  0  0  0  0  0  0  0  0  0  0
  -11.0379    7.0068   -2.1918 H   0  0  0  0  0  0  0  0  0  0  0  0
   -3.4777    9.2425   -2.2816 H   0  0  0  0  0  0  0  0  0  0  0  0
   -4.6791    9.7304   -0.2431 H   0  0  0  0  0  0  0  0  0  0  0  0
   -4.1838    8.1973    0.5066 H   0  0  0  0  0  0  0  0  0  0  0  0
   -3.0929   10.7695    1.1075 H   0  0  0  0  0  0  0  0  0  0  0  0
   -2.3425    9.2450    1.5726 H   0  0  0  0  0  0  0  0  0  0  0  0
   -2.3815   12.1163   -0.4230 H   0  0  0  0  0  0  0  0  0  0  0  0
   -1.2625   11.6992   -1.7648 H   0  0  0  0  0  0  0  0  0  0  0  0
   -2.9418   11.0616   -1.7648 H   0  0  0  0  0  0  0  0  0  0  0  0
   -0.0324    9.3671    0.8516 H   0  0  0  0  0  0  0  0  0  0  0  0
   -0.9048   11.6529    1.6596 H   0  0  0  0  0  0  0  0  0  0  0  0
    0.8753   11.2056    1.8062 H   0  0  0  0  0  0  0  0  0  0  0  0
    0.3529   13.6658    1.0229 H   0  0  0  0  0  0  0  0  0  0  0  0
    0.3888   11.5387   -2.4099 H   0  0  0  0  0  0  0  0  0  0  0  0
    3.3455   11.6524   -1.5491 H   0  0  0  0  0  0  0  0  0  0  0  0
    2.6669   10.8270   -3.0218 H   0  0  0  0  0  0  0  0  0  0  0  0
    3.7332   12.9922   -3.5686 H   0  0  0  0  0  0  0  0  0  0  0  0
    1.9632   12.9636   -3.9334 H   0  0  0  0  0  0  0  0  0  0  0  0
    2.5057   15.0672   -2.9167 H   0  0  0  0  0  0  0  0  0  0  0  0
    3.6000   13.4200   -0.8200 H   0  0  0  0  0  0  0  0  0  0  0  0
   -0.9375   14.5900   -1.9812 H   0  0  0  0  0  0  0  0  0  0  0  0
    0.2341   15.2766   -3.1570 H   0  0  0  0  0  0  0  0  0  0  0  0
   -0.1097   13.5135   -3.1570 H   0  0  0  0  0  0  0  0  0  0  0  0
    1.1336   15.0505    0.4900 H   0  0  0  0  0  0  0  0  0  0  0  0
    2.0135   16.0285   -0.7331 H   0  0  0  0  0  0  0  0  0  0  0  0
    0.2175   15.9947   -0.7331 H   0  0  0  0  0  0  0  0  0  0  0  0
    2.1335    9.8194    0.9257 H   0  0  0  0  0  0  0  0  0  0  0  0
    2.5664    8.7453   -0.4474 H   0  0  0  0  0  0  0  0  0  0  0  0
    3.0976   10.4612   -0.4474 H   0  0  0  0  0  0  0  0  0  0  0  0
    1.2654    9.3055   -2.8673 H   0  0  0  0  0  0  0  0  0  0  0  0
    0.9943    8.1143   -1.4737 H   0  0  0  0  0  0  0  0  0  0  0  0
   -1.1012    9.6973   -2.9869 H   0  0  0  0  0  0  0  0  0  0  0  0
   -0.8421    7.9087   -2.9561 H   0  0  0  0  0  0  0  0  0  0  0  0
   -1.3089    7.6570    0.7306 H   0  0  0  0  0  0  0  0  0  0  0  0
   -1.8957    6.6098   -0.6057 H   0  0  0  0  0  0  0  0  0  0  0  0
   -0.1990    7.1998   -0.6057 H   0  0  0  0  0  0  0  0  0  0  0  0
  1  2  1  0
  2  3  1  0
  3  4  1  0
  4  5  1  0
  5  6  1  0
  6  7  1  0
  7  8  1  0
  7  9  1  0
  2 10  1  0
 10 11  1  0
 11 12  1  0
 12 13  1  0
 13 14  1  6
 13 15  1  0
 15 16  1  0
 16 17  1  0
 17 18  2  0
 18 19  1  0
 19 20  1  0
 20 21  1  0
 21 22  1  0
 22 23  1  0
 22 24  1  0
 24 25  1  0
 24 26  1  0
 19 27  1  0
 27 28  1  1
 27 29  1  0
 29 30  1  0
 30 31  1  0
 31 32  1  1
  7  5  1  0
 31 10  1  0
 31 13  1  0
 27 15  1  0
 24 18  1  0
  1 33  1  0
  1 34  1  0
  1 35  1  0
  2 36  1  1
  3 37  1  0
  3 38  1  0
  4 39  1  0
  4 40  1  0
  5 41  1  1
  8 42  1  0
  8 43  1  0
  8 44  1  0
  9 45  1  0
  9 46  1  0
  9 47  1  0
 10 48  1  6
 11 49  1  0
 11 50  1  0
 12 51  1  0
 12 52  1  0
 14 53  1  0
 14 54  1  0
 14 55  1  0
 15 56  1  1
 16 57  1  0
 16 58  1  0
 17 59  1  0
 19 60  1  6
 20 61  1  0
 20 62  1  0
 21 63  1  0
 21 64  1  0
 22 65  1  6
 23 66  1  0
 25 67  1  0
 25 68  1  0
 25 69  1  0
 26 70  1  0
 26 71  1  0
 26 72  1  0
 28 73  1  0
 28 74  1  0
 28 75  1  0
 29 76  1  0
 29 77  1  0
 30 78  1  0
 30 79  1  0
 32 80  1  0
 32 81  1  0
 32 82  1  0
M  END
>  <meeko>  (11) 
{"is_sidechain": [false], "intermolecular_energy": 2.731, "internal_energy": -0.839}

$$$$
EPH_relaxed_0001_pdb2pqr_Repair_24_r2_0001_out
     RDKit          3D

 82 86  0  0  0  0  0  0  0  0999 V2000
   -0.8800   16.3560   -5.8350 C   0  0  0  0  0  0  0  0  0  0  0  0
    0.2060   15.6560   -6.6570 C   0  0  2  0  0  0  0  0  0  0  0  0
   -0.2060   15.4800   -8.1330 C   0  0  0  0  0  0  0  0  0  0  0  0
    0.4430   16.4950   -9.0780 C   0  0  0  0  0  0  0  0  0  0  0  0
    1.8490   16.1100   -9.4250 C   0  0  2  0  0  0  0  0  0  0  0  0
    2.3370   16.6690  -10.6520 O   0  0  0  0  0  0  0  0  0  0  0  0
    2.2080   15.2380  -10.6140 C   0  0  0  0  0  0  0  0  0  0  0  0
    1.1560   14.6980  -11.5320 C   0  0  0  0  0  0  0  0  0  0  0  0
    3.5180   14.5150  -10.6020 C   0  0  0  0  0  0  0  0  0  0  0  0
    0.5300   14.2990   -6.0420 C   0  0  1  0  0  0  0  0  0  0  0  0
    1.7920   13.6470   -6.6650 C   0  0  0  0  0  0  0  0  0  0  0  0
    2.5070   12.8760   -5.5250 C   0  0  0  0  0  0  0  0  0  0  0  0
    1.4720   12.8320   -4.3760 C   0  0  1  0  0  0  0  0  0  0  0  0
    0.5160   11.6540   -4.7430 C   0  0  0  0  0  0  0  0  0  0  0  0
    2.0500   12.6780   -2.9320 C   0  0  2  0  0  0  0  0  0  0  0  0
    2.8220   11.3720   -2.6740 C   0  0  0  0  0  0  0  0  0  0  0  0
    2.0010   10.2350   -2.1640 C   0  0  0  0  0  0  0  0  0  0  0  0
    0.7590   10.3340   -1.6540 C   0  0  0  0  0  0  0  0  0  0  0  0
    0.0940   11.7030   -1.4600 C   0  0  1  0  0  0  0  0  0  0  0  0
   -0.5460   11.7720   -0.0480 C   0  0  0  0  0  0  0  0  0  0  0  0
   -1.5050   10.6150    0.2170 C   0  0  0  0  0  0  0  0  0  0  0  0
   -0.7930    9.2730    0.0710 C   0  0  2  0  0  0  0  0  0  0  0  0
    0.1780    9.1510    1.1160 O   0  0  0  0  0  0  0  0  0  0  0  0
   -0.1000    9.0930   -1.3090 C   0  0  0  0  0  0  0  0  0  0  0  0
   -1.1750    8.9240   -2.4110 C   0  0  0  0  0  0  0  0  0  0  0  0
    0.6980    7.7620   -1.2720 C   0  0  0  0  0  0  0  0  0  0  0  0
    1.0030   12.9670   -1.7810 C   0  0  1  0  0  0  0  0  0  0  0  0
    1.8270   13.3630   -0.5180 C   0  0  0  0  0  0  0  0  0  0  0  0
    0.0760   14.1960   -2.1100 C   0  0  0  0  0  0  0  0  0  0  0  0
   -0.3640   14.3620   -3.5770 C   0  0  0  0  0  0  0  0  0  0  0  0
    0.8360   14.2620   -4.5240 C   0  0  2  0  0  0  0  0  0  0  0  0
    1.8060   15.4480   -4.1930 C   0  0  0  0  0  0  0  0  0  0  0  0
   -0.6721   16.2220   -4.7632 H   0  0  0  0  0  0  0  0  0  0  0  0
   -0.8874   17.4293   -6.0757 H   0  0  0  0  0  0  0  0  0  0  0  0
   -1.8606   15.9195   -6.0757 H   0  0  0  0  0  0  0  0  0  0  0  0
    1.1002   16.2964   -6.6374 H   0  0  0  0  0  0  0  0  0  0  0  0
    0.0840   14.4694   -8.4565 H   0  0  0  0  0  0  0  0  0  0  0  0
   -1.2929   15.6413   -8.1850 H   0  0  0  0  0  0  0  0  0  0  0  0
   -0.1499   16.5505  -10.0029 H   0  0  0  0  0  0  0  0  0  0  0  0
    0.4705   17.4692   -8.5679 H   0  0  0  0  0  0  0  0  0  0  0  0
    2.1222   16.0555   -8.3609 H   0  0  0  0  0  0  0  0  0  0  0  0
    0.3325   14.2753  -10.9376 H   0  0  0  0  0  0  0  0  0  0  0  0
    0.7711   15.5100  -12.1665 H   0  0  0  0  0  0  0  0  0  0  0  0
    1.5914   13.9119  -12.1665 H   0  0  0  0  0  0  0  0  0  0  0  0
    3.8317   14.3419   -9.5620 H   0  0  0  0  0  0  0  0  0  0  0  0
    3.4087   13.5495  -11.1176 H   0  0  0  0  0  0  0  0  0  0  0  0
    4.2766   15.1222  -11.1176 H   0  0  0  0  0  0  0  0  0  0  0  0
   -0.4134   13.7724   -6.2487 H   0  0  0  0  0  0  0  0  0  0  0  0
    1.5026   12.9531   -7.4680 H   0  0  0  0  0  0  0  0  0  0  0  0
    2.4545   14.4083   -7.1026 H   0  0  0  0  0  0  0  0  0  0  0  0
    2.7704   11.8586   -5.8498 H   0  0  0  0  0  0  0  0  0  0  0  0
    3.4479   13.3580   -5.2211 H   0  0  0  0  0  0  0  0  0  0  0  0
    0.1378   11.1879   -3.8212 H   0  0  0  0  0  0  0  0  0  0  0  0
   -0.3291   12.0379   -5.3332 H   0  0  0  0  0  0  0  0  0  0  0  0
    1.0656   10.9060   -5.3332 H   0  0  0  0  0  0  0  0  0  0  0  0
    2.8001   13.4816   -2.8911 H   0  0  0  0  0  0  0  0  0  0  0  0
    3.2852   11.0585   -3.6212 H   0  0  0  0  0  0  0  0  0  0  0  0
    3.5497   11.6008   -1.8814 H   0  0  0  0  0  0  0  0  0  0  0  0
    2.4485    9.2311   -2.2085 H   0  0  0  0  0  0  0  0  0  0  0  0
   -0.6897   11.7726   -2.2288 H   0  0  0  0  0  0  0  0  0  0  0  0
    0.2560   11.7446    0.7044 H   0  0  0  0  0  0  0  0  0  0  0  0
   -1.1248   12.7056    0.0110 H   0  0  0  0  0  0  0  0  0  0  0  0
   -1.9016   10.7029    1.2392 H   0  0  0  0  0  0  0  0  0  0  0  0
   -2.3225   10.6608   -0.5176 H   0  0  0  0  0  0  0  0  0  0  0  0
   -1.5569    8.4848    0.1431 H   0  0  0  0  0  0  0  0  0  0  0  0
    0.3730    8.2050    1.2260 H   0  0  0  0  0  0  0  0  0  0  0  0
   -2.1585    8.7694   -1.9432 H   0  0  0  0  0  0  0  0  0  0  0  0
   -1.2045    9.8285   -3.0363 H   0  0  0  0  0  0  0  0  0  0  0  0
   -0.9255    8.0540   -3.0363 H   0  0  0  0  0  0  0  0  0  0  0  0
    0.8738    7.4688   -0.2265 H   0  0  0  0  0  0  0  0  0  0  0  0
    0.1225    6.9752   -1.7817 H   0  0  0  0  0  0  0  0  0  0  0  0
    1.6632    7.8988   -1.7817 H   0  0  0  0  0  0  0  0  0  0  0  0
    1.2636   13.0922    0.3871 H   0  0  0  0  0  0  0  0  0  0  0  0
    2.7884   12.8286   -0.5250 H   0  0  0  0  0  0  0  0  0  0  0  0
    2.0103   14.4476   -0.5250 H   0  0  0  0  0  0  0  0  0  0  0  0
   -0.8335   14.0997   -1.4988 H   0  0  0  0  0  0  0  0  0  0  0  0
    0.6872   15.0839   -1.8909 H   0  0  0  0  0  0  0  0  0  0  0  0
   -1.0869   13.5717   -3.8275 H   0  0  0  0  0  0  0  0  0  0  0  0
   -0.8225   15.3548   -3.6955 H   0  0  0  0  0  0  0  0  0  0  0  0
    1.8943   15.5559   -3.1019 H   0  0  0  0  0  0  0  0  0  0  0  0
    2.7975   15.2416   -4.6224 H   0  0  0  0  0  0  0  0  0  0  0  0
    1.4070   16.3788   -4.6224 H   0  0  0  0  0  0  0  0  0  0  0  0
  1  2  1  0
  2  3  1  0
  3  4  1  0
  4  5  1  0
  5  6  1  0
  6  7  1  0
  7  8  1  0
  7  9  1  0
  2 10  1  0
 10 11  1  0
 11 12  1  0
 12 13  1  0
 13 14  1  6
 13 15  1  0
 15 16  1  0
 16 17  1  0
 17 18  2  0
 18 19  1  0
 19 20  1  0
 20 21  1  0
 21 22  1  0
 22 23  1  0
 22 24  1  0
 24 25  1  0
 24 26  1  0
 19 27  1  0
 27 28  1  1
 27 29  1  0
 29 30  1  0
 30 31  1  0
 31 32  1  1
  7  5  1  0
 31 10  1  0
 31 13  1  0
 27 15  1  0
 24 18  1  0
  1 33  1  0
  1 34  1  0
  1 35  1  0
  2 36  1  6
  3 37  1  0
  3 38  1  0
  4 39  1  0
  4 40  1  0
  5 41  1  1
  8 42  1  0
  8 43  1  0
  8 44  1  0
  9 45  1  0
  9 46  1  0
  9 47  1  0
 10 48  1  1
 11 49  1  0
 11 50  1  0
 12 51  1  0
 12 52  1  0
 14 53  1  0
 14 54  1  0
 14 55  1  0
 15 56  1  6
 16 57  1  0
 16 58  1  0
 17 59  1  0
 19 60  1  6
 20 61  1  0
 20 62  1  0
 21 63  1  0
 21 64  1  0
 22 65  1  1
 23 66  1  0
 25 67  1  0
 25 68  1  0
 25 69  1  0
 26 70  1  0
 26 71  1  0
 26 72  1  0
 28 73  1  0
 28 74  1  0
 28 75  1  0
 29 76  1  0
 29 77  1  0
 30 78  1  0
 30 79  1  0
 32 80  1  0
 32 81  1  0
 32 82  1  0
M  END
>  <meeko>  (12) 
{"is_sidechain": [false], "intermolecular_energy": 2.731, "internal_energy": -0.839}

$$$$
EPH_relaxed_0001_pdb2pqr_Repair_24_r2_0001_out
     RDKit          3D

 82 86  0  0  0  0  0  0  0  0999 V2000
    3.6130   18.4380   -2.5010 C   0  0  0  0  0  0  0  0  0  0  0  0
    2.3050   17.6720   -2.7140 C   0  0  2  0  0  0  0  0  0  0  0  0
    1.0720   18.5010   -2.3020 C   0  0  0  0  0  0  0  0  0  0  0  0
    1.3450   19.4840   -1.1600 C   0  0  0  0  0  0  0  0  0  0  0  0
    0.0820   20.1160   -0.6590 C   0  0  2  0  0  0  0  0  0  0  0  0
   -0.0270   20.1860    0.7690 O   0  0  0  0  0  0  0  0  0  0  0  0
   -0.9900   19.3560    0.1000 C   0  0  0  0  0  0  0  0  0  0  0  0
   -0.8470   17.8960    0.4000 C   0  0  0  0  0  0  0  0  0  0  0  0
   -2.3810   19.9090    0.1210 C   0  0  0  0  0  0  0  0  0  0  0  0
    2.3360   16.3630   -1.9340 C   0  0  1  0  0  0  0  0  0  0  0  0
    2.5980   16.5760   -0.4200 C   0  0  0  0  0  0  0  0  0  0  0  0
    1.7820   15.4930    0.3320 C   0  0  0  0  0  0  0  0  0  0  0  0
    1.3490   14.4970   -0.7690 C   0  0  1  0  0  0  0  0  0  0  0  0
    2.5930   13.5820   -0.9940 C   0  0  0  0  0  0  0  0  0  0  0  0
    0.0620   13.6590   -0.4750 C   0  0  2  0  0  0  0  0  0  0  0  0
    0.1570   12.7210    0.7410 C   0  0  0  0  0  0  0  0  0  0  0  0
    0.6480   11.3420    0.4460 C   0  0  0  0  0  0  0  0  0  0  0  0
    0.7270   10.7860   -0.7770 C   0  0  0  0  0  0  0  0  0  0  0  0
    0.2060   11.5270   -2.0150 C   0  0  1  0  0  0  0  0  0  0  0  0
   -0.6500   10.5610   -2.8750 C   0  0  0  0  0  0  0  0  0  0  0  0
    0.0970    9.2790   -3.2340 C   0  0  0  0  0  0  0  0  0  0  0  0
    0.5470    8.5410   -1.9760 C   0  0  2  0  0  0  0  0  0  0  0  0
   -0.6100    8.0710   -1.2780 O   0  0  0  0  0  0  0  0  0  0  0  0
    1.4100    9.4180   -1.0260 C   0  0  0  0  0  0  0  0  0  0  0  0
    2.7940    9.6770   -1.6710 C   0  0  0  0  0  0  0  0  0  0  0  0
    1.6790    8.6010    0.2660 C   0  0  0  0  0  0  0  0  0  0  0  0
   -0.5270   12.9100   -1.7380 C   0  0  1  0  0  0  0  0  0  0  0  0
   -2.0380   12.6610   -1.4450 C   0  0  0  0  0  0  0  0  0  0  0  0
   -0.4660   13.7930   -3.0400 C   0  0  0  0  0  0  0  0  0  0  0  0
    0.7750   14.6890   -3.2150 C   0  0  0  0  0  0  0  0  0  0  0  0
    1.0510   15.4980   -1.9430 C   0  0  2  0  0  0  0  0  0  0  0  0
   -0.1750   16.4440   -1.7030 C   0  0  0  0  0  0  0  0  0  0  0  0
    3.8018   18.5486   -1.4230 H   0  0  0  0  0  0  0  0  0  0  0  0
    4.4425   17.8829   -2.9635 H   0  0  0  0  0  0  0  0  0  0  0  0
    3.5347   19.4330   -2.9635 H   0  0  0  0  0  0  0  0  0  0  0  0
    2.2169   17.4619   -3.7902 H   0  0  0  0  0  0  0  0  0  0  0  0
    0.7292   19.0721   -3.1774 H   0  0  0  0  0  0  0  0  0  0  0  0
    0.3133   17.7911   -1.9408 H   0  0  0  0  0  0  0  0  0  0  0  0
    1.8261   18.9433   -0.3316 H   0  0  0  0  0  0  0  0  0  0  0  0
    1.9990   20.2813   -1.5428 H   0  0  0  0  0  0  0  0  0  0  0  0
    0.0363   20.7766   -1.5374 H   0  0  0  0  0  0  0  0  0  0  0  0
   -0.8322   17.7453    1.4895 H   0  0  0  0  0  0  0  0  0  0  0  0
   -1.6957   17.3475   -0.0346 H   0  0  0  0  0  0  0  0  0  0  0  0
    0.0920   17.5226   -0.0346 H   0  0  0  0  0  0  0  0  0  0  0  0
   -2.7082   20.0391    1.1631 H   0  0  0  0  0  0  0  0  0  0  0  0
   -2.3967   20.8817   -0.3924 H   0  0  0  0  0  0  0  0  0  0  0  0
   -3.0603   19.2125   -0.3924 H   0  0  0  0  0  0  0  0  0  0  0  0
    3.1412   15.8454   -2.4760 H   0  0  0  0  0  0  0  0  0  0  0  0
    3.6701   16.4623   -0.2014 H   0  0  0  0  0  0  0  0  0  0  0  0
    2.2974   17.5863   -0.1055 H   0  0  0  0  0  0  0  0  0  0  0  0
    2.4055   14.9910    1.0865 H   0  0  0  0  0  0  0  0  0  0  0  0
    0.9229   15.9177    0.8719 H   0  0  0  0  0  0  0  0  0  0  0  0
    3.0057   13.2784   -0.0206 H   0  0  0  0  0  0  0  0  0  0  0  0
    2.2929   12.6878   -1.5600 H   0  0  0  0  0  0  0  0  0  0  0  0
    3.3572   14.1348   -1.5600 H   0  0  0  0  0  0  0  0  0  0  0  0
   -0.6656   14.4357   -0.1967 H   0  0  0  0  0  0  0  0  0  0  0  0
    0.8431   13.1775    1.4696 H   0  0  0  0  0  0  0  0  0  0  0  0
   -0.8704   12.6044    1.1164 H   0  0  0  0  0  0  0  0  0  0  0  0
    0.9723   10.7292    1.3000 H   0  0  0  0  0  0  0  0  0  0  0  0
    1.0969   11.8390   -2.5797 H   0  0  0  0  0  0  0  0  0  0  0  0
   -1.5559   10.2950   -2.3105 H   0  0  0  0  0  0  0  0  0  0  0  0
   -0.8956   11.0785   -3.8141 H   0  0  0  0  0  0  0  0  0  0  0  0
   -0.5688    8.6252   -3.8165 H   0  0  0  0  0  0  0  0  0  0  0  0
    0.9870    9.5439   -3.8236 H   0  0  0  0  0  0  0  0  0  0  0  0
    1.1852    7.7041   -2.2958 H   0  0  0  0  0  0  0  0  0  0  0  0
   -0.3470    7.8910   -0.3590 H   0  0  0  0  0  0  0  0  0  0  0  0
    3.5462    9.8178   -0.8808 H   0  0  0  0  0  0  0  0  0  0  0  0
    3.0746    8.8158   -2.2951 H   0  0  0  0  0  0  0  0  0  0  0  0
    2.7442   10.5814   -2.2951 H   0  0  0  0  0  0  0  0  0  0  0  0
    1.4726    9.2280    1.1459 H   0  0  0  0  0  0  0  0  0  0  0  0
    1.0244    7.7171    0.2839 H   0  0  0  0  0  0  0  0  0  0  0  0
    2.7306    8.2789    0.2839 H   0  0  0  0  0  0  0  0  0  0  0  0
   -2.2010   12.6341   -0.3575 H   0  0  0  0  0  0  0  0  0  0  0  0
   -2.6355   13.4728   -1.8854 H   0  0  0  0  0  0  0  0  0  0  0  0
   -2.3435   11.7004   -1.8854 H   0  0  0  0  0  0  0  0  0  0  0  0
   -0.5109   13.1144   -3.9046 H   0  0  0  0  0  0  0  0  0  0  0  0
   -1.3135   14.4891   -2.9553 H   0  0  0  0  0  0  0  0  0  0  0  0
    1.6474   14.0564   -3.4355 H   0  0  0  0  0  0  0  0  0  0  0  0
    0.5883   15.3892   -4.0425 H   0  0  0  0  0  0  0  0  0  0  0  0
   -0.3361   16.5683   -0.6220 H   0  0  0  0  0  0  0  0  0  0  0  0
    0.0239   17.4249   -2.1593 H   0  0  0  0  0  0  0  0  0  0  0  0
   -1.0734   16.0028   -2.1593 H   0  0  0  0  0  0  0  0  0  0  0  0
  1  2  1  0
  2  3  1  0
  3  4  1  0
  4  5  1  0
  5  6  1  0
  6  7  1  0
  7  8  1  0
  7  9  1  0
  2 10  1  0
 10 11  1  0
 11 12  1  0
 12 13  1  0
 13 14  1  6
 13 15  1  0
 15 16  1  0
 16 17  1  0
 17 18  2  0
 18 19  1  0
 19 20  1  0
 20 21  1  0
 21 22  1  0
 22 23  1  0
 22 24  1  0
 24 25  1  0
 24 26  1  0
 19 27  1  0
 27 28  1  1
 27 29  1  0
 29 30  1  0
 30 31  1  0
 31 32  1  1
  7  5  1  0
 31 10  1  0
 31 13  1  0
 27 15  1  0
 24 18  1  0
  1 33  1  0
  1 34  1  0
  1 35  1  0
  2 36  1  6
  3 37  1  0
  3 38  1  0
  4 39  1  0
  4 40  1  0
  5 41  1  6
  8 42  1  0
  8 43  1  0
  8 44  1  0
  9 45  1  0
  9 46  1  0
  9 47  1  0
 10 48  1  6
 11 49  1  0
 11 50  1  0
 12 51  1  0
 12 52  1  0
 14 53  1  0
 14 54  1  0
 14 55  1  0
 15 56  1  1
 16 57  1  0
 16 58  1  0
 17 59  1  0
 19 60  1  6
 20 61  1  0
 20 62  1  0
 21 63  1  0
 21 64  1  0
 22 65  1  6
 23 66  1  0
 25 67  1  0
 25 68  1  0
 25 69  1  0
 26 70  1  0
 26 71  1  0
 26 72  1  0
 28 73  1  0
 28 74  1  0
 28 75  1  0
 29 76  1  0
 29 77  1  0
 30 78  1  0
 30 79  1  0
 32 80  1  0
 32 81  1  0
 32 82  1  0
M  END
>  <meeko>  (13) 
{"is_sidechain": [false], "intermolecular_energy": 2.731, "internal_energy": -0.839}

$$$$
EPH_relaxed_0001_pdb2pqr_Repair_24_r2_0001_out
     RDKit          3D

 82 86  0  0  0  0  0  0  0  0999 V2000
   -0.1410    9.2990   -2.0980 C   0  0  0  0  0  0  0  0  0  0  0  0
    0.9330   10.2590   -2.6140 C   0  0  2  0  0  0  0  0  0  0  0  0
    2.3140    9.5820   -2.7220 C   0  0  0  0  0  0  0  0  0  0  0  0
    3.2320   10.2180   -3.7700 C   0  0  0  0  0  0  0  0  0  0  0  0
    4.6150   10.4390   -3.2350 C   0  0  2  0  0  0  0  0  0  0  0  0
    5.1220   11.7670   -3.4170 O   0  0  0  0  0  0  0  0  0  0  0  0
    5.8170   10.7210   -4.1160 C   0  0  0  0  0  0  0  0  0  0  0  0
    5.6920   10.7970   -5.6050 C   0  0  0  0  0  0  0  0  0  0  0  0
    7.1840   10.4380   -3.5740 C   0  0  0  0  0  0  0  0  0  0  0  0
    1.0210   11.4790   -1.7040 C   0  0  1  0  0  0  0  0  0  0  0  0
    2.1310   11.3430   -0.6280 C   0  0  0  0  0  0  0  0  0  0  0  0
    2.7190   12.7610   -0.4110 C   0  0  0  0  0  0  0  0  0  0  0  0
    1.7190   13.7100   -1.1120 C   0  0  1  0  0  0  0  0  0  0  0  0
    0.5580   13.8980   -0.0860 C   0  0  0  0  0  0  0  0  0  0  0  0
    2.2910   15.0830   -1.5940 C   0  0  2  0  0  0  0  0  0  0  0  0
    2.8210   15.9980   -0.4760 C   0  0  0  0  0  0  0  0  0  0  0  0
    1.8180   16.9380    0.1060 C   0  0  0  0  0  0  0  0  0  0  0  0
    0.6270   17.2470   -0.4380 C   0  0  0  0  0  0  0  0  0  0  0  0
    0.2240   16.7020   -1.8140 C   0  0  1  0  0  0  0  0  0  0  0  0
   -0.3610   17.8510   -2.6760 C   0  0  0  0  0  0  0  0  0  0  0  0
   -1.5070   18.5790   -1.9790 C   0  0  0  0  0  0  0  0  0  0  0  0
   -1.0520   19.1570   -0.6410 C   0  0  2  0  0  0  0  0  0  0  0  0
   -0.0970   20.1940   -0.8870 O   0  0  0  0  0  0  0  0  0  0  0  0
   -0.4350   18.0920    0.3080 C   0  0  0  0  0  0  0  0  0  0  0  0
   -1.5460   17.1400    0.8150 C   0  0  0  0  0  0  0  0  0  0  0  0
    0.1100   18.8290    1.5610 C   0  0  0  0  0  0  0  0  0  0  0  0
    1.3390   15.8700   -2.5830 C   0  0  1  0  0  0  0  0  0  0  0  0
    2.2500   16.8330   -3.4050 C   0  0  0  0  0  0  0  0  0  0  0  0
    0.6430   14.9190   -3.6270 C   0  0  0  0  0  0  0  0  0  0  0  0
    0.2080   13.5310   -3.1200 C   0  0  0  0  0  0  0  0  0  0  0  0
    1.3490   12.8400   -2.3680 C   0  0  2  0  0  0  0  0  0  0  0  0
    2.5240   12.6170   -3.3810 C   0  0  0  0  0  0  0  0  0  0  0  0
   -0.1376    9.3020   -0.9980 H   0  0  0  0  0  0  0  0  0  0  0  0
   -1.1273    9.6220   -2.4625 H   0  0  0  0  0  0  0  0  0  0  0  0
    0.0698    8.2828   -2.4625 H   0  0  0  0  0  0  0  0  0  0  0  0
    0.6382   10.5711   -3.6268 H   0  0  0  0  0  0  0  0  0  0  0  0
    2.8095    9.6458   -1.7420 H   0  0  0  0  0  0  0  0  0  0  0  0
    2.1384    8.5428   -3.0371 H   0  0  0  0  0  0  0  0  0  0  0  0
    3.2900    9.5525   -4.6440 H   0  0  0  0  0  0  0  0  0  0  0  0
    2.8110   11.1959   -4.0463 H   0  0  0  0  0  0  0  0  0  0  0  0
    4.4457    9.7090   -2.4297 H   0  0  0  0  0  0  0  0  0  0  0  0
    4.7795   11.3518   -5.8685 H   0  0  0  0  0  0  0  0  0  0  0  0
    6.5689   11.3150   -6.0206 H   0  0  0  0  0  0  0  0  0  0  0  0
    5.6357    9.7801   -6.0206 H   0  0  0  0  0  0  0  0  0  0  0  0
    7.1511   10.4448   -2.4745 H   0  0  0  0  0  0  0  0  0  0  0  0
    7.5204    9.4512   -3.9247 H   0  0  0  0  0  0  0  0  0  0  0  0
    7.8846   11.2102   -3.9247 H   0  0  0  0  0  0  0  0  0  0  0  0
   -0.0065   11.4902   -1.3114 H   0  0  0  0  0  0  0  0  0  0  0  0
    1.7035   10.9623    0.3113 H   0  0  0  0  0  0  0  0  0  0  0  0
    2.9104   10.6372   -0.9513 H   0  0  0  0  0  0  0  0  0  0  0  0
    2.7873   12.9929    0.6621 H   0  0  0  0  0  0  0  0  0  0  0  0
    3.7376   12.8563   -0.8151 H   0  0  0  0  0  0  0  0  0  0  0  0
    0.9582   13.8332    0.9365 H   0  0  0  0  0  0  0  0  0  0  0  0
    0.0923   14.8833   -0.2357 H   0  0  0  0  0  0  0  0  0  0  0  0
   -0.1948   13.1101   -0.2357 H   0  0  0  0  0  0  0  0  0  0  0  0
    3.1745   14.7798   -2.1750 H   0  0  0  0  0  0  0  0  0  0  0  0
    3.1995   15.3592    0.3356 H   0  0  0  0  0  0  0  0  0  0  0  0
    3.5959   16.6270   -0.9385 H   0  0  0  0  0  0  0  0  0  0  0  0
    2.0747   17.4191    1.0613 H   0  0  0  0  0  0  0  0  0  0  0  0
   -0.5517   15.9451   -1.6257 H   0  0  0  0  0  0  0  0  0  0  0  0
    0.4393   18.5750   -2.8888 H   0  0  0  0  0  0  0  0  0  0  0  0
   -0.7600   17.4063   -3.5996 H   0  0  0  0  0  0  0  0  0  0  0  0
   -1.8587   19.3977   -2.6240 H   0  0  0  0  0  0  0  0  0  0  0  0
   -2.3186   17.8601   -1.7934 H   0  0  0  0  0  0  0  0  0  0  0  0
   -1.9437   19.5516   -0.1318 H   0  0  0  0  0  0  0  0  0  0  0  0
   -0.3890   20.9840   -0.4010 H   0  0  0  0  0  0  0  0  0  0  0  0
   -1.5512   17.1355    1.9150 H   0  0  0  0  0  0  0  0  0  0  0  0
   -2.5224   17.4861    0.4451 H   0  0  0  0  0  0  0  0  0  0  0  0
   -1.3536   16.1221    0.4451 H   0  0  0  0  0  0  0  0  0  0  0  0
   -0.2590   18.3301    2.4693 H   0  0  0  0  0  0  0  0  0  0  0  0
    1.2097   18.8056    1.5508 H   0  0  0  0  0  0  0  0  0  0  0  0
   -0.2346   19.8736    1.5508 H   0  0  0  0  0  0  0  0  0  0  0  0
    2.8397   17.4564   -2.7168 H   0  0  0  0  0  0  0  0  0  0  0  0
    2.9288   16.2436   -4.0389 H   0  0  0  0  0  0  0  0  0  0  0  0
    1.6239   17.4781   -4.0389 H   0  0  0  0  0  0  0  0  0  0  0  0
   -0.2550   15.4338   -3.9991 H   0  0  0  0  0  0  0  0  0  0  0  0
    1.4095   14.7194   -4.3903 H   0  0  0  0  0  0  0  0  0  0  0  0
   -0.6506   13.6482   -2.4424 H   0  0  0  0  0  0  0  0  0  0  0  0
   -0.0671   12.9114   -3.9863 H   0  0  0  0  0  0  0  0  0  0  0  0
    3.4574   12.4398   -2.8266 H   0  0  0  0  0  0  0  0  0  0  0  0
    2.3021   11.7449   -4.0137 H   0  0  0  0  0  0  0  0  0  0  0  0
    2.6371   13.5097   -4.0137 H   0  0  0  0  0  0  0  0  0  0  0  0
  1  2  1  0
  2  3  1  0
  3  4  1  0
  4  5  1  0
  5  6  1  0
  6  7  1  0
  7  8  1  0
  7  9  1  0
  2 10  1  0
 10 11  1  0
 11 12  1  0
 12 13  1  0
 13 14  1  1
 13 15  1  0
 15 16  1  0
 16 17  1  0
 17 18  2  0
 18 19  1  0
 19 20  1  0
 20 21  1  0
 21 22  1  0
 22 23  1  0
 22 24  1  0
 24 25  1  0
 24 26  1  0
 19 27  1  0
 27 28  1  6
 27 29  1  0
 29 30  1  0
 30 31  1  0
 31 32  1  6
  7  5  1  0
 31 10  1  0
 31 13  1  0
 27 15  1  0
 24 18  1  0
  1 33  1  0
  1 34  1  0
  1 35  1  0
  2 36  1  6
  3 37  1  0
  3 38  1  0
  4 39  1  0
  4 40  1  0
  5 41  1  1
  8 42  1  0
  8 43  1  0
  8 44  1  0
  9 45  1  0
  9 46  1  0
  9 47  1  0
 10 48  1  1
 11 49  1  0
 11 50  1  0
 12 51  1  0
 12 52  1  0
 14 53  1  0
 14 54  1  0
 14 55  1  0
 15 56  1  6
 16 57  1  0
 16 58  1  0
 17 59  1  0
 19 60  1  1
 20 61  1  0
 20 62  1  0
 21 63  1  0
 21 64  1  0
 22 65  1  1
 23 66  1  0
 25 67  1  0
 25 68  1  0
 25 69  1  0
 26 70  1  0
 26 71  1  0
 26 72  1  0
 28 73  1  0
 28 74  1  0
 28 75  1  0
 29 76  1  0
 29 77  1  0
 30 78  1  0
 30 79  1  0
 32 80  1  0
 32 81  1  0
 32 82  1  0
M  END
>  <meeko>  (14) 
{"is_sidechain": [false], "intermolecular_energy": 2.731, "internal_energy": -0.839}

$$$$
EPH_relaxed_0001_pdb2pqr_Repair_24_r2_0001_out
     RDKit          3D

 82 86  0  0  0  0  0  0  0  0999 V2000
   -2.3590    7.8470   -2.2340 C   0  0  0  0  0  0  0  0  0  0  0  0
   -2.2630    8.4260   -0.8200 C   0  0  2  0  0  0  0  0  0  0  0  0
   -3.6190    8.3920   -0.0860 C   0  0  0  0  0  0  0  0  0  0  0  0
   -4.8280    8.4820   -1.0210 C   0  0  0  0  0  0  0  0  0  0  0  0
   -5.6300    7.2170   -1.0140 C   0  0  2  0  0  0  0  0  0  0  0  0
   -5.7130    6.5530   -2.2820 O   0  0  0  0  0  0  0  0  0  0  0  0
   -6.9480    7.0570   -1.7490 C   0  0  0  0  0  0  0  0  0  0  0  0
   -7.5400    8.1800   -2.5410 C   0  0  0  0  0  0  0  0  0  0  0  0
   -7.8930    5.9870   -1.2990 C   0  0  0  0  0  0  0  0  0  0  0  0
   -1.7380    9.8550   -0.8780 C   0  0  1  0  0  0  0  0  0  0  0  0
   -1.3200   10.3960    0.5160 C   0  0  0  0  0  0  0  0  0  0  0  0
   -0.0970   11.3200    0.2890 C   0  0  0  0  0  0  0  0  0  0  0  0
   -0.0570   11.5450   -1.2410 C   0  0  1  0  0  0  0  0  0  0  0  0
   -1.1110   12.6640   -1.5100 C   0  0  0  0  0  0  0  0  0  0  0  0
    1.3370   11.9080   -1.8490 C   0  0  2  0  0  0  0  0  0  0  0  0
    1.9450   13.2300   -1.3480 C   0  0  0  0  0  0  0  0  0  0  0  0
    1.5940   14.4380   -2.1510 C   0  0  0  0  0  0  0  0  0  0  0  0
    1.0600   14.4280   -3.3870 C   0  0  0  0  0  0  0  0  0  0  0  0
    0.8470   13.1100   -4.1420 C   0  0  1  0  0  0  0  0  0  0  0  0
    1.3630   13.2580   -5.5970 C   0  0  0  0  0  0  0  0  0  0  0  0
    0.7440   14.4500   -6.3190 C   0  0  0  0  0  0  0  0  0  0  0  0
    1.0270   15.7490   -5.5690 C   0  0  2  0  0  0  0  0  0  0  0  0
    2.4310   16.0170   -5.6240 O   0  0  0  0  0  0  0  0  0  0  0  0
    0.5590   15.7150   -4.0870 C   0  0  0  0  0  0  0  0  0  0  0  0
   -0.9890   15.7280   -4.0290 C   0  0  0  0  0  0  0  0  0  0  0  0
    1.0300   17.0290   -3.4070 C   0  0  0  0  0  0  0  0  0  0  0  0
    1.4030   11.8040   -3.4270 C   0  0  1  0  0  0  0  0  0  0  0  0
    2.9030   11.5920   -3.7970 C   0  0  0  0  0  0  0  0  0  0  0  0
    0.6280   10.5480   -3.9760 C   0  0  0  0  0  0  0  0  0  0  0  0
   -0.6810   10.1700   -3.2570 C   0  0  0  0  0  0  0  0  0  0  0  0
   -0.4770   10.1150   -1.7400 C   0  0  2  0  0  0  0  0  0  0  0  0
    0.5620    8.9830   -1.4380 C   0  0  0  0  0  0  0  0  0  0  0  0
   -2.5387    6.7634   -2.1751 H   0  0  0  0  0  0  0  0  0  0  0  0
   -3.1897    8.3277   -2.7714 H   0  0  0  0  0  0  0  0  0  0  0  0
   -1.4176    8.0339   -2.7714 H   0  0  0  0  0  0  0  0  0  0  0  0
   -1.5633    7.7961   -0.2510 H   0  0  0  0  0  0  0  0  0  0  0  0
   -3.6853    7.4496    0.4774 H   0  0  0  0  0  0  0  0  0  0  0  0
   -3.6524    9.2757    0.5682 H   0  0  0  0  0  0  0  0  0  0  0  0
   -5.4703    9.3130   -0.6940 H   0  0  0  0  0  0  0  0  0  0  0  0
   -4.4585    8.6478   -2.0438 H   0  0  0  0  0  0  0  0  0  0  0  0
   -5.3343    7.0083    0.0247 H   0  0  0  0  0  0  0  0  0  0  0  0
   -7.9411    8.9408   -1.8552 H   0  0  0  0  0  0  0  0  0  0  0  0
   -6.7626    8.6312   -3.1750 H   0  0  0  0  0  0  0  0  0  0  0  0
   -8.3516    7.7936   -3.1750 H   0  0  0  0  0  0  0  0  0  0  0  0
   -7.9181    5.9586   -0.1997 H   0  0  0  0  0  0  0  0  0  0  0  0
   -8.9009    6.2026   -1.6833 H   0  0  0  0  0  0  0  0  0  0  0  0
   -7.5545    5.0135   -1.6833 H   0  0  0  0  0  0  0  0  0  0  0  0
   -2.6103   10.3531   -1.3263 H   0  0  0  0  0  0  0  0  0  0  0  0
   -2.1471   10.9658    0.9647 H   0  0  0  0  0  0  0  0  0  0  0  0
   -1.0706    9.5720    1.2007 H   0  0  0  0  0  0  0  0  0  0  0  0
   -0.2282   12.2751    0.8187 H   0  0  0  0  0  0  0  0  0  0  0  0
    0.8357   10.8789    0.6704 H   0  0  0  0  0  0  0  0  0  0  0  0
   -1.4812   13.0570   -0.5516 H   0  0  0  0  0  0  0  0  0  0  0  0
   -0.6436   13.4777   -2.0840 H   0  0  0  0  0  0  0  0  0  0  0  0
   -1.9511   12.2460   -2.0840 H   0  0  0  0  0  0  0  0  0  0  0  0
    1.9820   11.1121   -1.4483 H   0  0  0  0  0  0  0  0  0  0  0  0
    1.5981   13.3945   -0.3172 H   0  0  0  0  0  0  0  0  0  0  0  0
    3.0357   13.1147   -1.4328 H   0  0  0  0  0  0  0  0  0  0  0  0
    1.7880   15.4198   -1.6944 H   0  0  0  0  0  0  0  0  0  0  0  0
   -0.2388   12.9342   -4.1472 H   0  0  0  0  0  0  0  0  0  0  0  0
    2.4549   13.3890   -5.5722 H   0  0  0  0  0  0  0  0  0  0  0  0
    1.0765   12.3493   -6.1467 H   0  0  0  0  0  0  0  0  0  0  0  0
    1.1696   14.5186   -7.3310 H   0  0  0  0  0  0  0  0  0  0  0  0
   -0.3451   14.3034   -6.3689 H   0  0  0  0  0  0  0  0  0  0  0  0
    0.4512   16.5463   -6.0616 H   0  0  0  0  0  0  0  0  0  0  0  0
    2.7120   15.9260   -6.5500 H   0  0  0  0  0  0  0  0  0  0  0  0
   -1.3166   15.7308   -2.9789 H   0  0  0  0  0  0  0  0  0  0  0  0
   -1.3673   16.6294   -4.5335 H   0  0  0  0  0  0  0  0  0  0  0  0
   -1.3824   14.8331   -4.5335 H   0  0  0  0  0  0  0  0  0  0  0  0
    0.9880   16.9117   -2.3141 H   0  0  0  0  0  0  0  0  0  0  0  0
    2.0633   17.2500   -3.7126 H   0  0  0  0  0  0  0  0  0  0  0  0
    0.3724   17.8561   -3.7126 H   0  0  0  0  0  0  0  0  0  0  0  0
    3.4993   11.5077   -2.8765 H   0  0  0  0  0  0  0  0  0  0  0  0
    3.0082   10.6701   -4.3877 H   0  0  0  0  0  0  0  0  0  0  0  0
    3.2596   12.4487   -4.3877 H   0  0  0  0  0  0  0  0  0  0  0  0
    0.3840   10.7425   -5.0308 H   0  0  0  0  0  0  0  0  0  0  0  0
    1.3043    9.6968   -3.8084 H   0  0  0  0  0  0  0  0  0  0  0  0
   -1.4495   10.9219   -3.4897 H   0  0  0  0  0  0  0  0  0  0  0  0
   -0.9976    9.1756   -3.6046 H   0  0  0  0  0  0  0  0  0  0  0  0
    0.6700    8.8653   -0.3497 H   0  0  0  0  0  0  0  0  0  0  0  0
    0.2112    8.0369   -1.8761 H   0  0  0  0  0  0  0  0  0  0  0  0
    1.5346    9.2516   -1.8761 H   0  0  0  0  0  0  0  0  0  0  0  0
  1  2  1  0
  2  3  1  0
  3  4  1  0
  4  5  1  0
  5  6  1  0
  6  7  1  0
  7  8  1  0
  7  9  1  0
  2 10  1  0
 10 11  1  0
 11 12  1  0
 12 13  1  0
 13 14  1  1
 13 15  1  0
 15 16  1  0
 16 17  1  0
 17 18  2  0
 18 19  1  0
 19 20  1  0
 20 21  1  0
 21 22  1  0
 22 23  1  0
 22 24  1  0
 24 25  1  0
 24 26  1  0
 19 27  1  0
 27 28  1  1
 27 29  1  0
 29 30  1  0
 30 31  1  0
 31 32  1  6
  7  5  1  0
 31 10  1  0
 31 13  1  0
 27 15  1  0
 24 18  1  0
  1 33  1  0
  1 34  1  0
  1 35  1  0
  2 36  1  1
  3 37  1  0
  3 38  1  0
  4 39  1  0
  4 40  1  0
  5 41  1  1
  8 42  1  0
  8 43  1  0
  8 44  1  0
  9 45  1  0
  9 46  1  0
  9 47  1  0
 10 48  1  6
 11 49  1  0
 11 50  1  0
 12 51  1  0
 12 52  1  0
 14 53  1  0
 14 54  1  0
 14 55  1  0
 15 56  1  1
 16 57  1  0
 16 58  1  0
 17 59  1  0
 19 60  1  6
 20 61  1  0
 20 62  1  0
 21 63  1  0
 21 64  1  0
 22 65  1  6
 23 66  1  0
 25 67  1  0
 25 68  1  0
 25 69  1  0
 26 70  1  0
 26 71  1  0
 26 72  1  0
 28 73  1  0
 28 74  1  0
 28 75  1  0
 29 76  1  0
 29 77  1  0
 30 78  1  0
 30 79  1  0
 32 80  1  0
 32 81  1  0
 32 82  1  0
M  END
>  <meeko>  (15) 
{"is_sidechain": [false], "intermolecular_energy": 2.731, "internal_energy": -0.839}

$$$$
EPH_relaxed_0001_pdb2pqr_Repair_24_r2_0001_out
     RDKit          3D

 82 86  0  0  0  0  0  0  0  0999 V2000
    0.2820    9.9040   -4.7050 C   0  0  0  0  0  0  0  0  0  0  0  0
    1.2790   10.5860   -3.7640 C   0  0  2  0  0  0  0  0  0  0  0  0
    1.6360    9.6990   -2.5540 C   0  0  0  0  0  0  0  0  0  0  0  0
    0.5550    8.6730   -2.2030 C   0  0  0  0  0  0  0  0  0  0  0  0
   -0.2960    9.1350   -1.0590 C   0  0  2  0  0  0  0  0  0  0  0  0
   -0.7960    8.0830   -0.2230 O   0  0  0  0  0  0  0  0  0  0  0  0
   -1.7800    8.8380   -0.9490 C   0  0  0  0  0  0  0  0  0  0  0  0
   -2.4990    8.0510   -1.9990 C   0  0  0  0  0  0  0  0  0  0  0  0
   -2.6230    9.7210   -0.0810 C   0  0  0  0  0  0  0  0  0  0  0  0
    0.7140   11.9180   -3.2850 C   0  0  1  0  0  0  0  0  0  0  0  0
   -0.7610   11.8070   -2.8170 C   0  0  0  0  0  0  0  0  0  0  0  0
   -0.9310   12.7950   -1.6340 C   0  0  0  0  0  0  0  0  0  0  0  0
    0.3420   13.6730   -1.6740 C   0  0  1  0  0  0  0  0  0  0  0  0
    0.0560   14.7440   -2.7730 C   0  0  0  0  0  0  0  0  0  0  0  0
    0.7680   14.3330   -0.3220 C   0  0  2  0  0  0  0  0  0  0  0  0
   -0.2490   15.3250    0.2690 C   0  0  0  0  0  0  0  0  0  0  0  0
   -0.0740   16.7460   -0.1560 C   0  0  0  0  0  0  0  0  0  0  0  0
    1.0220   17.2560   -0.7480 C   0  0  0  0  0  0  0  0  0  0  0  0
    2.2760   16.3980   -0.9580 C   0  0  1  0  0  0  0  0  0  0  0  0
    3.5300   17.1970   -0.5170 C   0  0  0  0  0  0  0  0  0  0  0  0
    3.6310   18.5550   -1.2050 C   0  0  0  0  0  0  0  0  0  0  0  0
    2.3920   19.4010   -0.9250 C   0  0  2  0  0  0  0  0  0  0  0  0
    2.3650   19.7320    0.4660 O   0  0  0  0  0  0  0  0  0  0  0  0
    1.0650   18.6940   -1.3200 C   0  0  0  0  0  0  0  0  0  0  0  0
    0.9610   18.6070   -2.8630 C   0  0  0  0  0  0  0  0  0  0  0  0
   -0.1120   19.5950   -0.8570 C   0  0  0  0  0  0  0  0  0  0  0  0
    2.2300   14.9380   -0.3300 C   0  0  1  0  0  0  0  0  0  0  0  0
    2.7010   14.9840    1.1560 C   0  0  0  0  0  0  0  0  0  0  0  0
    3.2550   14.0180   -1.0920 C   0  0  0  0  0  0  0  0  0  0  0  0
    2.7390   13.2990   -2.3530 C   0  0  0  0  0  0  0  0  0  0  0  0
    1.4100   12.5910   -2.0750 C   0  0  2  0  0  0  0  0  0  0  0  0
    1.6700   11.4930   -0.9890 C   0  0  0  0  0  0  0  0  0  0  0  0
   -0.4828    9.3809   -4.1122 H   0  0  0  0  0  0  0  0  0  0  0  0
   -0.2008   10.6619   -5.3394 H   0  0  0  0  0  0  0  0  0  0  0  0
    0.8134    9.1793   -5.3394 H   0  0  0  0  0  0  0  0  0  0  0  0
    2.2054   10.7578   -4.3317 H   0  0  0  0  0  0  0  0  0  0  0  0
    2.5667    9.1588   -2.7819 H   0  0  0  0  0  0  0  0  0  0  0  0
    1.7401   10.3663   -1.6857 H   0  0  0  0  0  0  0  0  0  0  0  0
   -0.0858    8.5148   -3.0830 H   0  0  0  0  0  0  0  0  0  0  0  0
    1.0526    7.7383   -1.9051 H   0  0  0  0  0  0  0  0  0  0  0  0
    0.2774   10.0702   -0.9776 H   0  0  0  0  0  0  0  0  0  0  0  0
   -3.1661    7.3208   -1.5174 H   0  0  0  0  0  0  0  0  0  0  0  0
   -3.0928    8.7326   -2.6257 H   0  0  0  0  0  0  0  0  0  0  0  0
   -1.7667    7.5210   -2.6257 H   0  0  0  0  0  0  0  0  0  0  0  0
   -2.4144    9.5025    0.9767 H   0  0  0  0  0  0  0  0  0  0  0  0
   -2.3872   10.7747   -0.2911 H   0  0  0  0  0  0  0  0  0  0  0  0
   -3.6865    9.5343   -0.2911 H   0  0  0  0  0  0  0  0  0  0  0  0
    0.8685   12.5214   -4.1917 H   0  0  0  0  0  0  0  0  0  0  0  0
   -1.4404   12.0790   -3.6382 H   0  0  0  0  0  0  0  0  0  0  0  0
   -1.0014   10.7784   -2.5100 H   0  0  0  0  0  0  0  0  0  0  0  0
   -1.8322   13.4111   -1.7689 H   0  0  0  0  0  0  0  0  0  0  0  0
   -1.0506   12.2768   -0.6711 H   0  0  0  0  0  0  0  0  0  0  0  0
   -0.1996   15.7010   -2.2947 H   0  0  0  0  0  0  0  0  0  0  0  0
    0.9507   14.8746   -3.3994 H   0  0  0  0  0  0  0  0  0  0  0  0
   -0.7847   14.4111   -3.3994 H   0  0  0  0  0  0  0  0  0  0  0  0
    0.7813   13.4752    0.3665 H   0  0  0  0  0  0  0  0  0  0  0  0
   -1.2556   15.0010   -0.0340 H   0  0  0  0  0  0  0  0  0  0  0  0
   -0.0911   15.3109    1.3575 H   0  0  0  0  0  0  0  0  0  0  0  0
   -0.9117   17.4341    0.0306 H   0  0  0  0  0  0  0  0  0  0  0  0
    2.3261   16.1913   -2.0372 H   0  0  0  0  0  0  0  0  0  0  0  0
    3.4826   17.3555    0.5705 H   0  0  0  0  0  0  0  0  0  0  0  0
    4.4162   16.6114   -0.8028 H   0  0  0  0  0  0  0  0  0  0  0  0
    4.5200   19.0833   -0.8302 H   0  0  0  0  0  0  0  0  0  0  0  0
    3.7087   18.3941   -2.2904 H   0  0  0  0  0  0  0  0  0  0  0  0
    2.4625   20.3053   -1.5473 H   0  0  0  0  0  0  0  0  0  0  0  0
    1.8590   20.5570    0.5620 H   0  0  0  0  0  0  0  0  0  0  0  0
    0.1440   17.9235   -3.1375 H   0  0  0  0  0  0  0  0  0  0  0  0
    0.7563   19.6067   -3.2737 H   0  0  0  0  0  0  0  0  0  0  0  0
    1.9089   18.2290   -3.2737 H   0  0  0  0  0  0  0  0  0  0  0  0
   -0.1444   19.6198    0.2422 H   0  0  0  0  0  0  0  0  0  0  0  0
    0.0333   20.6149   -1.2426 H   0  0  0  0  0  0  0  0  0  0  0  0
   -1.0586   19.1885   -1.2426 H   0  0  0  0  0  0  0  0  0  0  0  0
    1.8282   14.8988    1.8201 H   0  0  0  0  0  0  0  0  0  0  0  0
    3.3908   14.1490    1.3480 H   0  0  0  0  0  0  0  0  0  0  0  0
    3.2162   15.9367    1.3480 H   0  0  0  0  0  0  0  0  0  0  0  0
    4.1067   14.6461   -1.3921 H   0  0  0  0  0  0  0  0  0  0  0  0
    3.5023   13.2140   -0.3832 H   0  0  0  0  0  0  0  0  0  0  0  0
    2.5922   14.0384   -3.1541 H   0  0  0  0  0  0  0  0  0  0  0  0
    3.4812   12.5456   -2.6557 H   0  0  0  0  0  0  0  0  0  0  0  0
    1.5652   11.9357    0.0125 H   0  0  0  0  0  0  0  0  0  0  0  0
    0.9398   10.6791   -1.1083 H   0  0  0  0  0  0  0  0  0  0  0  0
    2.6877   11.0930   -1.1083 H   0  0  0  0  0  0  0  0  0  0  0  0
  1  2  1  0
  2  3  1  0
  3  4  1  0
  4  5  1  0
  5  6  1  0
  6  7  1  0
  7  8  1  0
  7  9  1  0
  2 10  1  0
 10 11  1  0
 11 12  1  0
 12 13  1  0
 13 14  1  6
 13 15  1  0
 15 16  1  0
 16 17  1  0
 17 18  2  0
 18 19  1  0
 19 20  1  0
 20 21  1  0
 21 22  1  0
 22 23  1  0
 22 24  1  0
 24 25  1  0
 24 26  1  0
 19 27  1  0
 27 28  1  1
 27 29  1  0
 29 30  1  0
 30 31  1  0
 31 32  1  1
  7  5  1  0
 31 10  1  0
 31 13  1  0
 27 15  1  0
 24 18  1  0
  1 33  1  0
  1 34  1  0
  1 35  1  0
  2 36  1  6
  3 37  1  0
  3 38  1  0
  4 39  1  0
  4 40  1  0
  5 41  1  1
  8 42  1  0
  8 43  1  0
  8 44  1  0
  9 45  1  0
  9 46  1  0
  9 47  1  0
 10 48  1  6
 11 49  1  0
 11 50  1  0
 12 51  1  0
 12 52  1  0
 14 53  1  0
 14 54  1  0
 14 55  1  0
 15 56  1  1
 16 57  1  0
 16 58  1  0
 17 59  1  0
 19 60  1  6
 20 61  1  0
 20 62  1  0
 21 63  1  0
 21 64  1  0
 22 65  1  6
 23 66  1  0
 25 67  1  0
 25 68  1  0
 25 69  1  0
 26 70  1  0
 26 71  1  0
 26 72  1  0
 28 73  1  0
 28 74  1  0
 28 75  1  0
 29 76  1  0
 29 77  1  0
 30 78  1  0
 30 79  1  0
 32 80  1  0
 32 81  1  0
 32 82  1  0
M  END
>  <meeko>  (16) 
{"is_sidechain": [false], "intermolecular_energy": 2.731, "internal_energy": -0.839}

$$$$
EPH_relaxed_0001_pdb2pqr_Repair_24_r2_0001_out
     RDKit          3D

 82 86  0  0  0  0  0  0  0  0999 V2000
    0.8840   14.9110   -2.5960 C   0  0  0  0  0  0  0  0  0  0  0  0
    1.1660   14.2390   -3.9420 C   0  0  2  0  0  0  0  0  0  0  0  0
    0.4760   14.9700   -5.1120 C   0  0  0  0  0  0  0  0  0  0  0  0
    1.0490   14.6120   -6.4850 C   0  0  0  0  0  0  0  0  0  0  0  0
    0.8080   15.6990   -7.4880 C   0  0  2  0  0  0  0  0  0  0  0  0
    0.3520   15.2430   -8.7680 O   0  0  0  0  0  0  0  0  0  0  0  0
    1.6410   15.8790   -8.7440 C   0  0  0  0  0  0  0  0  0  0  0  0
    2.7780   14.9610   -9.0640 C   0  0  0  0  0  0  0  0  0  0  0  0
    1.6620   17.2240   -9.4020 C   0  0  0  0  0  0  0  0  0  0  0  0
    0.7170   12.7830   -3.9010 C   0  0  1  0  0  0  0  0  0  0  0  0
    1.8500   11.7970   -4.2890 C   0  0  0  0  0  0  0  0  0  0  0  0
    1.6510   10.5240   -3.4270 C   0  0  0  0  0  0  0  0  0  0  0  0
    0.2370   10.6810   -2.8210 C   0  0  1  0  0  0  0  0  0  0  0  0
   -0.7370   10.2200   -3.9510 C   0  0  0  0  0  0  0  0  0  0  0  0
   -0.0300    9.9180   -1.4830 C   0  0  2  0  0  0  0  0  0  0  0  0
    0.0760    8.3860   -1.5720 C   0  0  0  0  0  0  0  0  0  0  0  0
   -1.1950    7.6770   -1.9030 C   0  0  0  0  0  0  0  0  0  0  0  0
   -2.4280    8.2120   -1.8410 C   0  0  0  0  0  0  0  0  0  0  0  0
   -2.6440    9.6340   -1.3090 C   0  0  1  0  0  0  0  0  0  0  0  0
   -3.8250    9.6380   -0.3030 C   0  0  0  0  0  0  0  0  0  0  0  0
   -5.0970    9.0370   -0.8930 C   0  0  0  0  0  0  0  0  0  0  0  0
   -4.8580    7.6030   -1.3580 C   0  0  2  0  0  0  0  0  0  0  0  0
   -4.6010    6.7840   -0.2130 O   0  0  0  0  0  0  0  0  0  0  0  0
   -3.6830    7.4730   -2.3670 C   0  0  0  0  0  0  0  0  0  0  0  0
   -4.0880    8.1070   -3.7210 C   0  0  0  0  0  0  0  0  0  0  0  0
   -3.4570    5.9630   -2.6460 C   0  0  0  0  0  0  0  0  0  0  0  0
   -1.3530   10.3630   -0.7360 C   0  0  1  0  0  0  0  0  0  0  0  0
   -1.1590    9.9980    0.7680 C   0  0  0  0  0  0  0  0  0  0  0  0
   -1.5750   11.9210   -0.7900 C   0  0  0  0  0  0  0  0  0  0  0  0
   -1.1810   12.6340   -2.0970 C   0  0  0  0  0  0  0  0  0  0  0  0
    0.2280   12.2280   -2.5400 C   0  0  2  0  0  0  0  0  0  0  0  0
    1.2320   12.6980   -1.4330 C   0  0  0  0  0  0  0  0  0  0  0  0
    1.1693   14.2310   -1.7798 H   0  0  0  0  0  0  0  0  0  0  0  0
    1.4682   15.8400   -2.5205 H   0  0  0  0  0  0  0  0  0  0  0  0
   -0.1882   15.1449   -2.5205 H   0  0  0  0  0  0  0  0  0  0  0  0
    2.2512   14.2886   -4.1151 H   0  0  0  0  0  0  0  0  0  0  0  0
   -0.5925   14.7088   -5.1028 H   0  0  0  0  0  0  0  0  0  0  0  0
    0.6463   16.0465   -4.9635 H   0  0  0  0  0  0  0  0  0  0  0  0
    2.1328   14.4509   -6.3878 H   0  0  0  0  0  0  0  0  0  0  0  0
    0.5447   13.7010   -6.8396 H   0  0  0  0  0  0  0  0  0  0  0  0
    0.5118   16.3988   -6.6927 H   0  0  0  0  0  0  0  0  0  0  0  0
    3.2293   14.5966   -8.1293 H   0  0  0  0  0  0  0  0  0  0  0  0
    2.4062   14.1069   -9.6490 H   0  0  0  0  0  0  0  0  0  0  0  0
    3.5346   15.5045   -9.6490 H   0  0  0  0  0  0  0  0  0  0  0  0
    1.6743   18.0090   -8.6315 H   0  0  0  0  0  0  0  0  0  0  0  0
    2.5616   17.3115  -10.0289 H   0  0  0  0  0  0  0  0  0  0  0  0
    0.7655   17.3395  -10.0289 H   0  0  0  0  0  0  0  0  0  0  0  0
   -0.1212   12.8287   -4.6119 H   0  0  0  0  0  0  0  0  0  0  0  0
    1.7831   11.5449   -5.3576 H   0  0  0  0  0  0  0  0  0  0  0  0
    2.8395   12.2433   -4.1111 H   0  0  0  0  0  0  0  0  0  0  0  0
    1.7081    9.6197   -4.0507 H   0  0  0  0  0  0  0  0  0  0  0  0
    2.4267   10.4177   -2.6544 H   0  0  0  0  0  0  0  0  0  0  0  0
   -1.6441    9.7907   -3.5006 H   0  0  0  0  0  0  0  0  0  0  0  0
   -1.0108   11.0841   -4.5742 H   0  0  0  0  0  0  0  0  0  0  0  0
   -0.2423    9.4605   -4.5742 H   0  0  0  0  0  0  0  0  0  0  0  0
    0.8150   10.2395   -0.8564 H   0  0  0  0  0  0  0  0  0  0  0  0
    0.8143    8.1410   -2.3498 H   0  0  0  0  0  0  0  0  0  0  0  0
    0.3635    8.0421   -0.5675 H   0  0  0  0  0  0  0  0  0  0  0  0
   -1.1171    6.6281   -2.2250 H   0  0  0  0  0  0  0  0  0  0  0  0
   -2.8976   10.2501   -2.1843 H   0  0  0  0  0  0  0  0  0  0  0  0
   -3.5361    9.0528    0.5825 H   0  0  0  0  0  0  0  0  0  0  0  0
   -4.0394   10.6852   -0.0434 H   0  0  0  0  0  0  0  0  0  0  0  0
   -5.8858    9.0401   -0.1263 H   0  0  0  0  0  0  0  0  0  0  0  0
   -5.4013    9.6412   -1.7604 H   0  0  0  0  0  0  0  0  0  0  0  0
   -5.7639    7.2733   -1.8878 H   0  0  0  0  0  0  0  0  0  0  0  0
   -3.6940    6.4430   -0.2930 H   0  0  0  0  0  0  0  0  0  0  0  0
   -4.6719    9.0211   -3.5378 H   0  0  0  0  0  0  0  0  0  0  0  0
   -3.1830    8.3586   -4.2934 H   0  0  0  0  0  0  0  0  0  0  0  0
   -4.6967    7.3916   -4.2934 H   0  0  0  0  0  0  0  0  0  0  0  0
   -3.3760    5.4219   -1.6917 H   0  0  0  0  0  0  0  0  0  0  0  0
   -4.3057    5.5655   -3.2220 H   0  0  0  0  0  0  0  0  0  0  0  0
   -2.5292    5.8314   -3.2220 H   0  0  0  0  0  0  0  0  0  0  0  0
   -1.5827   10.7952    1.3964 H   0  0  0  0  0  0  0  0  0  0  0  0
   -1.6718    9.0492    0.9841 H   0  0  0  0  0  0  0  0  0  0  0  0
   -0.0856    9.8922    0.9841 H   0  0  0  0  0  0  0  0  0  0  0  0
   -2.6446   12.1109   -0.6168 H   0  0  0  0  0  0  0  0  0  0  0  0
   -0.9032   12.3341   -0.0232 H   0  0  0  0  0  0  0  0  0  0  0  0
   -1.8983   12.3623   -2.8854 H   0  0  0  0  0  0  0  0  0  0  0  0
   -1.1942   13.7199   -1.9218 H   0  0  0  0  0  0  0  0  0  0  0  0
    0.8033   12.4973   -0.4401 H   0  0  0  0  0  0  0  0  0  0  0  0
    2.1796   12.1499   -1.5408 H   0  0  0  0  0  0  0  0  0  0  0  0
    1.4180   13.7768   -1.5408 H   0  0  0  0  0  0  0  0  0  0  0  0
  1  2  1  0
  2  3  1  0
  3  4  1  0
  4  5  1  0
  5  6  1  0
  6  7  1  0
  7  8  1  0
  7  9  1  0
  2 10  1  0
 10 11  1  0
 11 12  1  0
 12 13  1  0
 13 14  1  6
 13 15  1  0
 15 16  1  0
 16 17  1  0
 17 18  2  0
 18 19  1  0
 19 20  1  0
 20 21  1  0
 21 22  1  0
 22 23  1  0
 22 24  1  0
 24 25  1  0
 24 26  1  0
 19 27  1  0
 27 28  1  1
 27 29  1  0
 29 30  1  0
 30 31  1  0
 31 32  1  1
  7  5  1  0
 31 10  1  0
 31 13  1  0
 27 15  1  0
 24 18  1  0
  1 33  1  0
  1 34  1  0
  1 35  1  0
  2 36  1  6
  3 37  1  0
  3 38  1  0
  4 39  1  0
  4 40  1  0
  5 41  1  1
  8 42  1  0
  8 43  1  0
  8 44  1  0
  9 45  1  0
  9 46  1  0
  9 47  1  0
 10 48  1  6
 11 49  1  0
 11 50  1  0
 12 51  1  0
 12 52  1  0
 14 53  1  0
 14 54  1  0
 14 55  1  0
 15 56  1  1
 16 57  1  0
 16 58  1  0
 17 59  1  0
 19 60  1  6
 20 61  1  0
 20 62  1  0
 21 63  1  0
 21 64  1  0
 22 65  1  6
 23 66  1  0
 25 67  1  0
 25 68  1  0
 25 69  1  0
 26 70  1  0
 26 71  1  0
 26 72  1  0
 28 73  1  0
 28 74  1  0
 28 75  1  0
 29 76  1  0
 29 77  1  0
 30 78  1  0
 30 79  1  0
 32 80  1  0
 32 81  1  0
 32 82  1  0
M  END
>  <meeko>  (17) 
{"is_sidechain": [false], "intermolecular_energy": 2.731, "internal_energy": -0.839}

$$$$
EPH_relaxed_0001_pdb2pqr_Repair_24_r2_0001_out
     RDKit          3D

 82 86  0  0  0  0  0  0  0  0999 V2000
    0.9720    9.3450   -0.4640 C   0  0  0  0  0  0  0  0  0  0  0  0
   -0.2790   10.2280   -0.4440 C   0  0  2  0  0  0  0  0  0  0  0  0
   -0.9420   10.3280   -1.8330 C   0  0  0  0  0  0  0  0  0  0  0  0
   -0.0750    9.7780   -2.9690 C   0  0  0  0  0  0  0  0  0  0  0  0
    0.0700   10.7680   -4.0850 C   0  0  2  0  0  0  0  0  0  0  0  0
    0.7290   10.2620   -5.2530 O   0  0  0  0  0  0  0  0  0  0  0  0
    1.4080   11.3140   -4.5490 C   0  0  0  0  0  0  0  0  0  0  0  0
    2.6900   10.8880   -3.9070 C   0  0  0  0  0  0  0  0  0  0  0  0
    1.4310   12.6160   -5.2880 C   0  0  0  0  0  0  0  0  0  0  0  0
    0.0760   11.6200    0.0650 C   0  0  1  0  0  0  0  0  0  0  0  0
    1.1220   11.5890    1.2110 C   0  0  0  0  0  0  0  0  0  0  0  0
    2.0130   12.8450    1.0380 C   0  0  0  0  0  0  0  0  0  0  0  0
    1.2560   13.7230    0.0140 C   0  0  1  0  0  0  0  0  0  0  0  0
    0.1610   14.4590    0.8500 C   0  0  0  0  0  0  0  0  0  0  0  0
    2.1240   14.7270   -0.8110 C   0  0  2  0  0  0  0  0  0  0  0  0
    2.8400   15.8060    0.0190 C   0  0  0  0  0  0  0  0  0  0  0  0
    2.0730   17.0710    0.2190 C   0  0  0  0  0  0  0  0  0  0  0  0
    0.9840   17.4440   -0.4780 C   0  0  0  0  0  0  0  0  0  0  0  0
    0.4760   16.6010   -1.6550 C   0  0  1  0  0  0  0  0  0  0  0  0
    0.1670   17.5280   -2.8600 C   0  0  0  0  0  0  0  0  0  0  0  0
   -0.7890   18.6600   -2.4980 C   0  0  0  0  0  0  0  0  0  0  0  0
   -0.2220   19.5100   -1.3640 C   0  0  2  0  0  0  0  0  0  0  0  0
    0.9430   20.1930   -1.8370 O   0  0  0  0  0  0  0  0  0  0  0  0
    0.1360   18.6830   -0.0980 C   0  0  0  0  0  0  0  0  0  0  0  0
   -1.1630   18.1910    0.5870 C   0  0  0  0  0  0  0  0  0  0  0  0
    0.8270   19.6350    0.9150 C   0  0  0  0  0  0  0  0  0  0  0  0
    1.3780   15.3570   -2.0570 C   0  0  1  0  0  0  0  0  0  0  0  0
    2.4860   15.8040   -3.0600 C   0  0  0  0  0  0  0  0  0  0  0  0
    0.4910   14.3020   -2.8190 C   0  0  0  0  0  0  0  0  0  0  0  0
   -0.2480   13.2620   -1.9540 C   0  0  0  0  0  0  0  0  0  0  0  0
    0.7050   12.6090   -0.9490 C   0  0  2  0  0  0  0  0  0  0  0  0
    1.8050   11.8420   -1.7600 C   0  0  0  0  0  0  0  0  0  0  0  0
    1.2826    9.1258    0.5682 H   0  0  0  0  0  0  0  0  0  0  0  0
    0.7481    8.4037   -0.9873 H   0  0  0  0  0  0  0  0  0  0  0  0
    1.7839    9.8713   -0.9873 H   0  0  0  0  0  0  0  0  0  0  0  0
   -1.0053    9.7575    0.2351 H   0  0  0  0  0  0  0  0  0  0  0  0
   -1.8845    9.7614   -1.8097 H   0  0  0  0  0  0  0  0  0  0  0  0
   -1.1005   11.3971   -2.0378 H   0  0  0  0  0  0  0  0  0  0  0  0
    0.9228    9.5393   -2.5724 H   0  0  0  0  0  0  0  0  0  0  0  0
   -0.5654    8.8787   -3.3700 H   0  0  0  0  0  0  0  0  0  0  0  0
   -0.8707   11.2622   -3.8008 H   0  0  0  0  0  0  0  0  0  0  0  0
    2.5818   10.9239   -2.8129 H   0  0  0  0  0  0  0  0  0  0  0  0
    2.9323    9.8611   -4.2180 H   0  0  0  0  0  0  0  0  0  0  0  0
    3.4987   11.5657   -4.2180 H   0  0  0  0  0  0  0  0  0  0  0  0
    1.4457   13.4466   -4.5670 H   0  0  0  0  0  0  0  0  0  0  0  0
    2.3301   12.6631   -5.9200 H   0  0  0  0  0  0  0  0  0  0  0  0
    0.5341   12.6948   -5.9200 H   0  0  0  0  0  0  0  0  0  0  0  0
   -0.9246   11.9688    0.3601 H   0  0  0  0  0  0  0  0  0  0  0  0
    0.6153   11.6156    2.1870 H   0  0  0  0  0  0  0  0  0  0  0  0
    1.7242   10.6693    1.1710 H   0  0  0  0  0  0  0  0  0  0  0  0
    2.1266   13.3752    1.9951 H   0  0  0  0  0  0  0  0  0  0  0  0
    3.0288   12.5922    0.7001 H   0  0  0  0  0  0  0  0  0  0  0  0
    0.3646   14.3221    1.9223 H   0  0  0  0  0  0  0  0  0  0  0  0
    0.1746   15.5320    0.6082 H   0  0  0  0  0  0  0  0  0  0  0  0
   -0.8274   14.0412    0.6082 H   0  0  0  0  0  0  0  0  0  0  0  0
    2.9193   14.0793   -1.2084 H   0  0  0  0  0  0  0  0  0  0  0  0
    3.0603   15.3820    1.0098 H   0  0  0  0  0  0  0  0  0  0  0  0
    3.7386   16.0824   -0.5521 H   0  0  0  0  0  0  0  0  0  0  0  0
    2.4282   17.7564    1.0026 H   0  0  0  0  0  0  0  0  0  0  0  0
   -0.4500   16.1197   -1.3074 H   0  0  0  0  0  0  0  0  0  0  0  0
    1.1103   17.9648   -3.2197 H   0  0  0  0  0  0  0  0  0  0  0  0
   -0.3182   16.9168   -3.6353 H   0  0  0  0  0  0  0  0  0  0  0  0
   -0.9449   19.2962   -3.3817 H   0  0  0  0  0  0  0  0  0  0  0  0
   -1.7423   18.2225   -2.1666 H   0  0  0  0  0  0  0  0  0  0  0  0
   -1.0050   20.2216   -1.0630 H   0  0  0  0  0  0  0  0  0  0  0  0
    0.7010   20.6530   -2.6590 H   0  0  0  0  0  0  0  0  0  0  0  0
   -1.0416   18.2370    1.6793 H   0  0  0  0  0  0  0  0  0  0  0  0
   -2.0031   18.8332    0.2841 H   0  0  0  0  0  0  0  0  0  0  0  0
   -1.3669   17.1534    0.2841 H   0  0  0  0  0  0  0  0  0  0  0  0
    0.5927   19.3122    1.9401 H   0  0  0  0  0  0  0  0  0  0  0  0
    1.9158   19.6061    0.7613 H   0  0  0  0  0  0  0  0  0  0  0  0
    0.4621   20.6613    0.7613 H   0  0  0  0  0  0  0  0  0  0  0  0
    3.3648   16.1585   -2.5014 H   0  0  0  0  0  0  0  0  0  0  0  0
    2.7733   14.9514   -3.6929 H   0  0  0  0  0  0  0  0  0  0  0  0
    2.1012   16.6172   -3.6929 H   0  0  0  0  0  0  0  0  0  0  0  0
   -0.2663   14.8562   -3.3929 H   0  0  0  0  0  0  0  0  0  0  0  0
    1.1967   13.7197   -3.4297 H   0  0  0  0  0  0  0  0  0  0  0  0
   -1.0611   13.7614   -1.4068 H   0  0  0  0  0  0  0  0  0  0  0  0
   -0.6518   12.4800   -2.6139 H   0  0  0  0  0  0  0  0  0  0  0  0
    2.5026   11.3556   -1.0623 H   0  0  0  0  0  0  0  0  0  0  0  0
    1.3285   11.0793   -2.3935 H   0  0  0  0  0  0  0  0  0  0  0  0
    2.3560   12.5528   -2.3935 H   0  0  0  0  0  0  0  0  0  0  0  0
  1  2  1  0
  2  3  1  0
  3  4  1  0
  4  5  1  0
  5  6  1  0
  6  7  1  0
  7  8  1  0
  7  9  1  0
  2 10  1  0
 10 11  1  0
 11 12  1  0
 12 13  1  0
 13 14  1  1
 13 15  1  0
 15 16  1  0
 16 17  1  0
 17 18  2  0
 18 19  1  0
 19 20  1  0
 20 21  1  0
 21 22  1  0
 22 23  1  0
 22 24  1  0
 24 25  1  0
 24 26  1  0
 19 27  1  0
 27 28  1  6
 27 29  1  0
 29 30  1  0
 30 31  1  0
 31 32  1  6
  7  5  1  0
 31 10  1  0
 31 13  1  0
 27 15  1  0
 24 18  1  0
  1 33  1  0
  1 34  1  0
  1 35  1  0
  2 36  1  1
  3 37  1  0
  3 38  1  0
  4 39  1  0
  4 40  1  0
  5 41  1  6
  8 42  1  0
  8 43  1  0
  8 44  1  0
  9 45  1  0
  9 46  1  0
  9 47  1  0
 10 48  1  1
 11 49  1  0
 11 50  1  0
 12 51  1  0
 12 52  1  0
 14 53  1  0
 14 54  1  0
 14 55  1  0
 15 56  1  6
 16 57  1  0
 16 58  1  0
 17 59  1  0
 19 60  1  1
 20 61  1  0
 20 62  1  0
 21 63  1  0
 21 64  1  0
 22 65  1  1
 23 66  1  0
 25 67  1  0
 25 68  1  0
 25 69  1  0
 26 70  1  0
 26 71  1  0
 26 72  1  0
 28 73  1  0
 28 74  1  0
 28 75  1  0
 29 76  1  0
 29 77  1  0
 30 78  1  0
 30 79  1  0
 32 80  1  0
 32 81  1  0
 32 82  1  0
M  END
>  <meeko>  (18) 
{"is_sidechain": [false], "intermolecular_energy": 2.731, "internal_energy": -0.839}

$$$$
EPH_relaxed_0001_pdb2pqr_Repair_24_r2_0001_out
     RDKit          3D

 82 86  0  0  0  0  0  0  0  0999 V2000
   -1.7230   14.8280    0.5390 C   0  0  0  0  0  0  0  0  0  0  0  0
   -0.3870   15.5290    0.2800 C   0  0  2  0  0  0  0  0  0  0  0  0
   -0.4700   16.5190   -0.9000 C   0  0  0  0  0  0  0  0  0  0  0  0
   -0.0540   17.9470   -0.5360 C   0  0  0  0  0  0  0  0  0  0  0  0
    1.3700   18.0090   -0.0750 C   0  0  2  0  0  0  0  0  0  0  0  0
    2.0460   19.2360   -0.3830 O   0  0  0  0  0  0  0  0  0  0  0  0
    2.5550   18.0540   -1.0220 C   0  0  0  0  0  0  0  0  0  0  0  0
    2.3680   18.0380   -2.5070 C   0  0  0  0  0  0  0  0  0  0  0  0
    3.8950   17.6230   -0.5130 C   0  0  0  0  0  0  0  0  0  0  0  0
    0.7010   14.4950    0.0180 C   0  0  1  0  0  0  0  0  0  0  0  0
    0.8270   13.4570    1.1640 C   0  0  0  0  0  0  0  0  0  0  0  0
    1.2000   12.1040    0.5040 C   0  0  0  0  0  0  0  0  0  0  0  0
    1.6000   12.4740   -0.9440 C   0  0  1  0  0  0  0  0  0  0  0  0
    3.0750   12.9730   -0.8380 C   0  0  0  0  0  0  0  0  0  0  0  0
    1.4480   11.3440   -2.0130 C   0  0  2  0  0  0  0  0  0  0  0  0
    2.3280   10.1030   -1.7800 C   0  0  0  0  0  0  0  0  0  0  0  0
    3.6740   10.1450   -2.4240 C   0  0  0  0  0  0  0  0  0  0  0  0
    4.0520   11.0030   -3.3900 C   0  0  0  0  0  0  0  0  0  0  0  0
    3.0510   11.9930   -4.0000 C   0  0  1  0  0  0  0  0  0  0  0  0
    3.1790   11.9710   -5.5460 C   0  0  0  0  0  0  0  0  0  0  0  0
    4.6080   12.2200   -6.0190 C   0  0  0  0  0  0  0  0  0  0  0  0
    5.5630   11.1810   -5.4380 C   0  0  2  0  0  0  0  0  0  0  0  0
    5.2450    9.9010   -5.9920 O   0  0  0  0  0  0  0  0  0  0  0  0
    5.5150   11.1050   -3.8860 C   0  0  0  0  0  0  0  0  0  0  0  0
    6.1450   12.3850   -3.2830 C   0  0  0  0  0  0  0  0  0  0  0  0
    6.4190    9.9250   -3.4380 C   0  0  0  0  0  0  0  0  0  0  0  0
    1.5470   11.8490   -3.5090 C   0  0  1  0  0  0  0  0  0  0  0  0
    0.8000   10.7960   -4.3850 C   0  0  0  0  0  0  0  0  0  0  0  0
    0.8010   13.2180   -3.7290 C   0  0  0  0  0  0  0  0  0  0  0  0
    0.8880   14.2480   -2.5860 C   0  0  0  0  0  0  0  0  0  0  0  0
    0.5460   13.6030   -1.2400 C   0  0  2  0  0  0  0  0  0  0  0  0
   -0.9400   13.1110   -1.3090 C   0  0  0  0  0  0  0  0  0  0  0  0
   -1.8876   14.7416    1.6232 H   0  0  0  0  0  0  0  0  0  0  0  0
   -2.5380   15.4146    0.0900 H   0  0  0  0  0  0  0  0  0  0  0  0
   -1.7034   13.8240    0.0900 H   0  0  0  0  0  0  0  0  0  0  0  0
   -0.1378   16.1094    1.1806 H   0  0  0  0  0  0  0  0  0  0  0  0
    0.1904   16.1588   -1.7026 H   0  0  0  0  0  0  0  0  0  0  0  0
   -1.5243   16.5608   -1.2110 H   0  0  0  0  0  0  0  0  0  0  0  0
   -0.1702   18.5888   -1.4217 H   0  0  0  0  0  0  0  0  0  0  0  0
   -0.6963   18.2918    0.2877 H   0  0  0  0  0  0  0  0  0  0  0  0
    1.1420   17.3712    0.7917 H   0  0  0  0  0  0  0  0  0  0  0  0
    1.2970   17.9464   -2.7407 H   0  0  0  0  0  0  0  0  0  0  0  0
    2.7582   18.9728   -2.9358 H   0  0  0  0  0  0  0  0  0  0  0  0
    2.9113   17.1831   -2.9358 H   0  0  0  0  0  0  0  0  0  0  0  0
    3.8875   17.6254    0.5870 H   0  0  0  0  0  0  0  0  0  0  0  0
    4.1161   16.6084   -0.8760 H   0  0  0  0  0  0  0  0  0  0  0  0
    4.6661   18.3184   -0.8760 H   0  0  0  0  0  0  0  0  0  0  0  0
    1.5667   15.1636   -0.0990 H   0  0  0  0  0  0  0  0  0  0  0  0
    1.6139   13.7644    1.8685 H   0  0  0  0  0  0  0  0  0  0  0  0
   -0.1141   13.3751    1.7276 H   0  0  0  0  0  0  0  0  0  0  0  0
    2.0428   11.6337    1.0317 H   0  0  0  0  0  0  0  0  0  0  0  0
    0.3714   11.3813    0.5364 H   0  0  0  0  0  0  0  0  0  0  0  0
    3.3548   13.0677    0.2216 H   0  0  0  0  0  0  0  0  0  0  0  0
    3.7427   12.2507   -1.3304 H   0  0  0  0  0  0  0  0  0  0  0  0
    3.1671   13.9523   -1.3304 H   0  0  0  0  0  0  0  0  0  0  0  0
    0.4117   11.0099   -1.8568 H   0  0  0  0  0  0  0  0  0  0  0  0
    2.4736    9.9884   -0.6957 H   0  0  0  0  0  0  0  0  0  0  0  0
    1.7948    9.2606   -2.2448 H   0  0  0  0  0  0  0  0  0  0  0  0
    4.4199    9.4132   -2.0803 H   0  0  0  0  0  0  0  0  0  0  0  0
    3.3312   12.9852   -3.6166 H   0  0  0  0  0  0  0  0  0  0  0  0
    2.8528   10.9866   -5.9127 H   0  0  0  0  0  0  0  0  0  0  0  0
    2.5499   12.7806   -5.9444 H   0  0  0  0  0  0  0  0  0  0  0  0
    4.6389   12.1633   -7.1171 H   0  0  0  0  0  0  0  0  0  0  0  0
    4.9228   13.2169   -5.6767 H   0  0  0  0  0  0  0  0  0  0  0  0
    6.5851   11.4867   -5.7059 H   0  0  0  0  0  0  0  0  0  0  0  0
    4.2800    9.7920   -5.9460 H   0  0  0  0  0  0  0  0  0  0  0  0
    6.1158   12.3258   -2.1850 H   0  0  0  0  0  0  0  0  0  0  0  0
    7.1891   12.4725   -3.6179 H   0  0  0  0  0  0  0  0  0  0  0  0
    5.5775   13.2658   -3.6179 H   0  0  0  0  0  0  0  0  0  0  0  0
    6.4505    9.8839   -2.3392 H   0  0  0  0  0  0  0  0  0  0  0  0
    6.0105    8.9813   -3.8287 H   0  0  0  0  0  0  0  0  0  0  0  0
    7.4365   10.0737   -3.8287 H   0  0  0  0  0  0  0  0  0  0  0  0
    0.2875   10.0736   -3.7327 H   0  0  0  0  0  0  0  0  0  0  0  0
    0.0604   11.3057   -5.0200 H   0  0  0  0  0  0  0  0  0  0  0  0
    1.5254   10.2663   -5.0200 H   0  0  0  0  0  0  0  0  0  0  0  0
    1.2225   13.6855   -4.6311 H   0  0  0  0  0  0  0  0  0  0  0  0
   -0.2651   12.9567   -3.8006 H   0  0  0  0  0  0  0  0  0  0  0  0
    1.9104   14.6515   -2.5423 H   0  0  0  0  0  0  0  0  0  0  0  0
    0.1646   15.0528   -2.7832 H   0  0  0  0  0  0  0  0  0  0  0  0
   -1.3311   12.9815   -0.2891 H   0  0  0  0  0  0  0  0  0  0  0  0
   -1.5484   13.8557   -1.8432 H   0  0  0  0  0  0  0  0  0  0  0  0
   -0.9838   12.1504   -1.8432 H   0  0  0  0  0  0  0  0  0  0  0  0
  1  2  1  0
  2  3  1  0
  3  4  1  0
  4  5  1  0
  5  6  1  0
  6  7  1  0
  7  8  1  0
  7  9  1  0
  2 10  1  0
 10 11  1  0
 11 12  1  0
 12 13  1  0
 13 14  1  1
 13 15  1  0
 15 16  1  0
 16 17  1  0
 17 18  2  0
 18 19  1  0
 19 20  1  0
 20 21  1  0
 21 22  1  0
 22 23  1  0
 22 24  1  0
 24 25  1  0
 24 26  1  0
 19 27  1  0
 27 28  1  6
 27 29  1  0
 29 30  1  0
 30 31  1  0
 31 32  1  6
  7  5  1  0
 31 10  1  0
 31 13  1  0
 27 15  1  0
 24 18  1  0
  1 33  1  0
  1 34  1  0
  1 35  1  0
  2 36  1  1
  3 37  1  0
  3 38  1  0
  4 39  1  0
  4 40  1  0
  5 41  1  1
  8 42  1  0
  8 43  1  0
  8 44  1  0
  9 45  1  0
  9 46  1  0
  9 47  1  0
 10 48  1  6
 11 49  1  0
 11 50  1  0
 12 51  1  0
 12 52  1  0
 14 53  1  0
 14 54  1  0
 14 55  1  0
 15 56  1  6
 16 57  1  0
 16 58  1  0
 17 59  1  0
 19 60  1  1
 20 61  1  0
 20 62  1  0
 21 63  1  0
 21 64  1  0
 22 65  1  1
 23 66  1  0
 25 67  1  0
 25 68  1  0
 25 69  1  0
 26 70  1  0
 26 71  1  0
 26 72  1  0
 28 73  1  0
 28 74  1  0
 28 75  1  0
 29 76  1  0
 29 77  1  0
 30 78  1  0
 30 79  1  0
 32 80  1  0
 32 81  1  0
 32 82  1  0
M  END
>  <meeko>  (19) 
{"is_sidechain": [false], "intermolecular_energy": 2.731, "internal_energy": -0.839}

$$$$
