EPH_relaxed_0001_pdb2pqr_Repair_90_r2_0001_out
     RDKit          3D

 82 86  0  0  0  0  0  0  0  0999 V2000
   -1.5450    8.5820   -1.7830 C   0  0  0  0  0  0  0  0  0  0  0  0
   -1.9820    9.1770   -0.4420 C   0  0  2  0  0  0  0  0  0  0  0  0
   -3.4730    9.5700   -0.4400 C   0  0  0  0  0  0  0  0  0  0  0  0
   -4.4140    8.4180   -0.8020 C   0  0  0  0  0  0  0  0  0  0  0  0
   -5.7740    8.9140   -1.1930 C   0  0  2  0  0  0  0  0  0  0  0  0
   -6.8570    8.0600   -0.8050 O   0  0  0  0  0  0  0  0  0  0  0  0
   -6.6540    8.2240   -2.2180 C   0  0  0  0  0  0  0  0  0  0  0  0
   -6.2070    6.9790   -2.9170 C   0  0  0  0  0  0  0  0  0  0  0  0
   -7.7260    9.0210   -2.8930 C   0  0  0  0  0  0  0  0  0  0  0  0
   -1.1230   10.3900   -0.1060 C   0  0  1  0  0  0  0  0  0  0  0  0
   -0.0590   10.0850    0.9820 C   0  0  0  0  0  0  0  0  0  0  0  0
    1.1950   10.9250    0.6280 C   0  0  0  0  0  0  0  0  0  0  0  0
    0.7050   11.9260   -0.4450 C   0  0  1  0  0  0  0  0  0  0  0  0
    0.0110   13.0690    0.3610 C   0  0  0  0  0  0  0  0  0  0  0  0
    1.7940   12.4840   -1.4180 C   0  0  2  0  0  0  0  0  0  0  0  0
    2.9090   13.3040   -0.7480 C   0  0  0  0  0  0  0  0  0  0  0  0
    2.6500   14.7710   -0.6470 C   0  0  0  0  0  0  0  0  0  0  0  0
    1.7020   15.4460   -1.3240 C   0  0  0  0  0  0  0  0  0  0  0  0
    0.8340   14.7430   -2.3750 C   0  0  1  0  0  0  0  0  0  0  0  0
    0.7640   15.6140   -3.6560 C   0  0  0  0  0  0  0  0  0  0  0  0
    0.2970   17.0380   -3.3710 C   0  0  0  0  0  0  0  0  0  0  0  0
    1.2190   17.7240   -2.3660 C   0  0  2  0  0  0  0  0  0  0  0  0
    2.5030   17.9070   -2.9700 O   0  0  0  0  0  0  0  0  0  0  0  0
    1.3740   16.9320   -1.0370 C   0  0  0  0  0  0  0  0  0  0  0  0
    0.0500   16.9920   -0.2380 C   0  0  0  0  0  0  0  0  0  0  0  0
    2.4380   17.6580   -0.1700 C   0  0  0  0  0  0  0  0  0  0  0  0
    1.2090   13.2300   -2.6850 C   0  0  1  0  0  0  0  0  0  0  0  0
    2.3120   13.1700   -3.7850 C   0  0  0  0  0  0  0  0  0  0  0  0
   -0.0520   12.4990   -3.2810 C   0  0  0  0  0  0  0  0  0  0  0  0
   -1.0290   11.8650   -2.2720 C   0  0  0  0  0  0  0  0  0  0  0  0
   -0.2790   11.0030   -1.2520 C   0  0  2  0  0  0  0  0  0  0  0  0
    0.4110    9.8310   -2.0300 C   0  0  0  0  0  0  0  0  0  0  0  0
   -0.9025    7.7072   -1.6041 H   0  0  0  0  0  0  0  0  0  0  0  0
   -2.4331    8.2739   -2.3543 H   0  0  0  0  0  0  0  0  0  0  0  0
   -0.9853    9.3373   -2.3543 H   0  0  0  0  0  0  0  0  0  0  0  0
   -1.8439    8.4007    0.3250 H   0  0  0  0  0  0  0  0  0  0  0  0
   -3.7358    9.9300    0.5656 H   0  0  0  0  0  0  0  0  0  0  0  0
   -3.6021   10.3445   -1.2104 H   0  0  0  0  0  0  0  0  0  0  0  0
   -3.9833    7.8574   -1.6447 H   0  0  0  0  0  0  0  0  0  0  0  0
   -4.5253    7.7752    0.0837 H   0  0  0  0  0  0  0  0  0  0  0  0
   -5.4494    9.9593   -1.0840 H   0  0  0  0  0  0  0  0  0  0  0  0
   -5.9337    6.2179   -2.1714 H   0  0  0  0  0  0  0  0  0  0  0  0
   -7.0246    6.5984   -3.5468 H   0  0  0  0  0  0  0  0  0  0  0  0
   -5.3340    7.2054   -3.5468 H   0  0  0  0  0  0  0  0  0  0  0  0
   -8.3640    9.4953   -2.1327 H   0  0  0  0  0  0  0  0  0  0  0  0
   -7.2651    9.7975   -3.5212 H   0  0  0  0  0  0  0  0  0  0  0  0
   -8.3368    8.3560   -3.5212 H   0  0  0  0  0  0  0  0  0  0  0  0
   -1.9101   11.0950    0.1999 H   0  0  0  0  0  0  0  0  0  0  0  0
   -0.4388   10.3707    1.9740 H   0  0  0  0  0  0  0  0  0  0  0  0
    0.1797    9.0116    1.0116 H   0  0  0  0  0  0  0  0  0  0  0  0
    1.5681   11.4583    1.5148 H   0  0  0  0  0  0  0  0  0  0  0  0
    2.0263   10.3013    0.2676 H   0  0  0  0  0  0  0  0  0  0  0  0
    0.1259   12.8798    1.4385 H   0  0  0  0  0  0  0  0  0  0  0  0
    0.4768   14.0324    0.1062 H   0  0  0  0  0  0  0  0  0  0  0  0
   -1.0586   13.1001    0.1062 H   0  0  0  0  0  0  0  0  0  0  0  0
    2.2776   11.5658   -1.7829 H   0  0  0  0  0  0  0  0  0  0  0  0
    3.0529   12.9135    0.2702 H   0  0  0  0  0  0  0  0  0  0  0  0
    3.7947   13.1953   -1.3912 H   0  0  0  0  0  0  0  0  0  0  0  0
    3.2874   15.3490    0.0383 H   0  0  0  0  0  0  0  0  0  0  0  0
   -0.1680   14.6529   -1.9302 H   0  0  0  0  0  0  0  0  0  0  0  0
    1.7654   15.6555   -4.1092 H   0  0  0  0  0  0  0  0  0  0  0  0
    0.0313   15.1520   -4.3340 H   0  0  0  0  0  0  0  0  0  0  0  0
    0.2974   17.6116   -4.3096 H   0  0  0  0  0  0  0  0  0  0  0  0
   -0.7167   16.9965   -2.9459 H   0  0  0  0  0  0  0  0  0  0  0  0
    0.7620   18.6896   -2.1037 H   0  0  0  0  0  0  0  0  0  0  0  0
    2.3740   18.4150   -3.7890 H   0  0  0  0  0  0  0  0  0  0  0  0
    0.2712   16.9820    0.8395 H   0  0  0  0  0  0  0  0  0  0  0  0
   -0.4905   17.9156   -0.4928 H   0  0  0  0  0  0  0  0  0  0  0  0
   -0.5718   16.1211   -0.4928 H   0  0  0  0  0  0  0  0  0  0  0  0
    2.2109   17.5030    0.8951 H   0  0  0  0  0  0  0  0  0  0  0  0
    3.4347   17.2507   -0.3954 H   0  0  0  0  0  0  0  0  0  0  0  0
    2.4222   18.7345   -0.3954 H   0  0  0  0  0  0  0  0  0  0  0  0
    3.3021   13.1161   -3.3089 H   0  0  0  0  0  0  0  0  0  0  0  0
    2.1573   12.2789   -4.4112 H   0  0  0  0  0  0  0  0  0  0  0  0
    2.2549   14.0726   -4.4112 H   0  0  0  0  0  0  0  0  0  0  0  0
   -0.6156   13.2361   -3.8718 H   0  0  0  0  0  0  0  0  0  0  0  0
    0.3514   11.6553   -3.8601 H   0  0  0  0  0  0  0  0  0  0  0  0
   -1.5675   12.6641   -1.7414 H   0  0  0  0  0  0  0  0  0  0  0  0
   -1.7349   11.2248   -2.8214 H   0  0  0  0  0  0  0  0  0  0  0  0
    0.8337    9.1130   -1.3119 H   0  0  0  0  0  0  0  0  0  0  0  0
   -0.3321    9.3229   -2.6622 H   0  0  0  0  0  0  0  0  0  0  0  0
    1.2158   10.2343   -2.6622 H   0  0  0  0  0  0  0  0  0  0  0  0
  1  2  1  0
  2  3  1  0
  3  4  1  0
  4  5  1  0
  5  6  1  0
  6  7  1  0
  7  8  1  0
  7  9  1  0
  2 10  1  0
 10 11  1  0
 11 12  1  0
 12 13  1  0
 13 14  1  1
 13 15  1  0
 15 16  1  0
 16 17  1  0
 17 18  2  0
 18 19  1  0
 19 20  1  0
 20 21  1  0
 21 22  1  0
 22 23  1  0
 22 24  1  0
 24 25  1  0
 24 26  1  0
 19 27  1  0
 27 28  1  6
 27 29  1  0
 29 30  1  0
 30 31  1  0
 31 32  1  6
  7  5  1  0
 31 10  1  0
 31 13  1  0
 27 15  1  0
 24 18  1  0
  1 33  1  0
  1 34  1  0
  1 35  1  0
  2 36  1  1
  3 37  1  0
  3 38  1  0
  4 39  1  0
  4 40  1  0
  5 41  1  1
  8 42  1  0
  8 43  1  0
  8 44  1  0
  9 45  1  0
  9 46  1  0
  9 47  1  0
 10 48  1  1
 11 49  1  0
 11 50  1  0
 12 51  1  0
 12 52  1  0
 14 53  1  0
 14 54  1  0
 14 55  1  0
 15 56  1  6
 16 57  1  0
 16 58  1  0
 17 59  1  0
 19 60  1  1
 20 61  1  0
 20 62  1  0
 21 63  1  0
 21 64  1  0
 22 65  1  1
 23 66  1  0
 25 67  1  0
 25 68  1  0
 25 69  1  0
 26 70  1  0
 26 71  1  0
 26 72  1  0
 28 73  1  0
 28 74  1  0
 28 75  1  0
 29 76  1  0
 29 77  1  0
 30 78  1  0
 30 79  1  0
 32 80  1  0
 32 81  1  0
 32 82  1  0
M  END
>  <meeko>  (1) 
{"is_sidechain": [false], "intermolecular_energy": 2.731, "internal_energy": -0.839}

$$$$
EPH_relaxed_0001_pdb2pqr_Repair_90_r2_0001_out
     RDKit          3D

 82 86  0  0  0  0  0  0  0  0999 V2000
    4.2390   17.5250   -0.6030 C   0  0  0  0  0  0  0  0  0  0  0  0
    2.8780   18.0950   -0.1920 C   0  0  2  0  0  0  0  0  0  0  0  0
    2.9290   18.7810    1.1880 C   0  0  0  0  0  0  0  0  0  0  0  0
    4.3060   18.7190    1.8550 C   0  0  0  0  0  0  0  0  0  0  0  0
    4.2830   19.3190    3.2290 C   0  0  2  0  0  0  0  0  0  0  0  0
    5.3810   20.1940    3.5190 O   0  0  0  0  0  0  0  0  0  0  0  0
    5.3050   18.9910    4.3010 C   0  0  0  0  0  0  0  0  0  0  0  0
    6.4220   18.0280    4.0470 C   0  0  0  0  0  0  0  0  0  0  0  0
    4.9400   19.2270    5.7340 C   0  0  0  0  0  0  0  0  0  0  0  0
    1.8310   16.9870   -0.1850 C   0  0  1  0  0  0  0  0  0  0  0  0
    0.4020   17.5140   -0.4800 C   0  0  0  0  0  0  0  0  0  0  0  0
   -0.3240   16.4090   -1.2900 C   0  0  0  0  0  0  0  0  0  0  0  0
    0.5820   15.1640   -1.1490 C   0  0  1  0  0  0  0  0  0  0  0  0
    0.2190   14.5580    0.2430 C   0  0  0  0  0  0  0  0  0  0  0  0
    0.4740   14.0980   -2.2890 C   0  0  2  0  0  0  0  0  0  0  0  0
   -0.9070   13.4350   -2.4320 C   0  0  0  0  0  0  0  0  0  0  0  0
   -1.1030   12.1900   -1.6330 C   0  0  0  0  0  0  0  0  0  0  0  0
   -0.1230   11.4690   -1.0560 C   0  0  0  0  0  0  0  0  0  0  0  0
    1.3520   11.8360   -1.2630 C   0  0  1  0  0  0  0  0  0  0  0  0
    2.1620   10.5560   -1.5990 C   0  0  0  0  0  0  0  0  0  0  0  0
    1.9750    9.4560   -0.5590 C   0  0  0  0  0  0  0  0  0  0  0  0
    0.5020    9.0780   -0.4240 C   0  0  2  0  0  0  0  0  0  0  0  0
    0.0700    8.4640   -1.6420 O   0  0  0  0  0  0  0  0  0  0  0  0
   -0.4140   10.2890   -0.0950 C   0  0  0  0  0  0  0  0  0  0  0  0
   -0.1470   10.7660    1.3540 C   0  0  0  0  0  0  0  0  0  0  0  0
   -1.8860    9.7970   -0.1260 C   0  0  0  0  0  0  0  0  0  0  0  0
    1.6340   13.0220   -2.2820 C   0  0  1  0  0  0  0  0  0  0  0  0
    1.7310   12.4640   -3.7350 C   0  0  0  0  0  0  0  0  0  0  0  0
    3.0370   13.6580   -1.9560 C   0  0  0  0  0  0  0  0  0  0  0  0
    3.0620   14.7870   -0.9090 C   0  0  0  0  0  0  0  0  0  0  0  0
    1.9980   15.8450   -1.2180 C   0  0  2  0  0  0  0  0  0  0  0  0
    2.3500   16.4870   -2.6030 C   0  0  0  0  0  0  0  0  0  0  0  0
    4.8215   17.2811    0.2977 H   0  0  0  0  0  0  0  0  0  0  0  0
    4.0895   16.6139   -1.2009 H   0  0  0  0  0  0  0  0  0  0  0  0
    4.7834   18.2707   -1.2009 H   0  0  0  0  0  0  0  0  0  0  0  0
    2.6029   18.8613   -0.9316 H   0  0  0  0  0  0  0  0  0  0  0  0
    2.6518   19.8379    1.0610 H   0  0  0  0  0  0  0  0  0  0  0  0
    2.2298   18.2398    1.8424 H   0  0  0  0  0  0  0  0  0  0  0  0
    4.6188   17.6671    1.9303 H   0  0  0  0  0  0  0  0  0  0  0  0
    5.0118   19.2965    1.2399 H   0  0  0  0  0  0  0  0  0  0  0  0
    3.1830   19.3236    3.2346 H   0  0  0  0  0  0  0  0  0  0  0  0
    6.8290   17.6771    5.0068 H   0  0  0  0  0  0  0  0  0  0  0  0
    6.0426   17.1693    3.4737 H   0  0  0  0  0  0  0  0  0  0  0  0
    7.2155   18.5298    3.4737 H   0  0  0  0  0  0  0  0  0  0  0  0
    5.6840   18.7459    6.3859 H   0  0  0  0  0  0  0  0  0  0  0  0
    4.9216   20.3084    5.9344 H   0  0  0  0  0  0  0  0  0  0  0  0
    3.9463   18.8000    5.9344 H   0  0  0  0  0  0  0  0  0  0  0  0
    1.9804   16.5980    0.8330 H   0  0  0  0  0  0  0  0  0  0  0  0
   -0.1327   17.7064    0.4618 H   0  0  0  0  0  0  0  0  0  0  0  0
    0.4377   18.4579   -1.0437 H   0  0  0  0  0  0  0  0  0  0  0  0
   -1.3220   16.2126   -0.8711 H   0  0  0  0  0  0  0  0  0  0  0  0
   -0.4792   16.6954   -2.3406 H   0  0  0  0  0  0  0  0  0  0  0  0
    0.6090   15.2090    1.0393 H   0  0  0  0  0  0  0  0  0  0  0  0
   -0.8744   14.4805    0.3353 H   0  0  0  0  0  0  0  0  0  0  0  0
    0.6666   13.5574    0.3353 H   0  0  0  0  0  0  0  0  0  0  0  0
    0.6091   14.7063   -3.1955 H   0  0  0  0  0  0  0  0  0  0  0  0
   -1.6681   14.1641   -2.1172 H   0  0  0  0  0  0  0  0  0  0  0  0
   -0.9927   13.1357   -3.4870 H   0  0  0  0  0  0  0  0  0  0  0  0
   -2.1348   11.8311   -1.5046 H   0  0  0  0  0  0  0  0  0  0  0  0
    1.6984   12.2561   -0.3072 H   0  0  0  0  0  0  0  0  0  0  0  0
    1.8318   10.1763   -2.5772 H   0  0  0  0  0  0  0  0  0  0  0  0
    3.2277   10.8282   -1.6093 H   0  0  0  0  0  0  0  0  0  0  0  0
    2.5477    8.5686   -0.8665 H   0  0  0  0  0  0  0  0  0  0  0  0
    2.3330    9.8268    0.4128 H   0  0  0  0  0  0  0  0  0  0  0  0
    0.4167    8.3819    0.4235 H   0  0  0  0  0  0  0  0  0  0  0  0
   -0.8990    8.5300   -1.6770 H   0  0  0  0  0  0  0  0  0  0  0  0
   -0.5577   10.0322    2.0631 H   0  0  0  0  0  0  0  0  0  0  0  0
    0.9369   10.8636    1.5140 H   0  0  0  0  0  0  0  0  0  0  0  0
   -0.6305   11.7410    1.5140 H   0  0  0  0  0  0  0  0  0  0  0  0
   -2.2533    9.6742    0.9036 H   0  0  0  0  0  0  0  0  0  0  0  0
   -2.5086   10.5359   -0.6518 H   0  0  0  0  0  0  0  0  0  0  0  0
   -1.9392    8.8322   -0.6518 H   0  0  0  0  0  0  0  0  0  0  0  0
    1.9193   11.3808   -3.7000 H   0  0  0  0  0  0  0  0  0  0  0  0
    0.7862   12.6550   -4.2650 H   0  0  0  0  0  0  0  0  0  0  0  0
    2.5559   12.9626   -4.2650 H   0  0  0  0  0  0  0  0  0  0  0  0
    3.6910   12.8520   -1.5918 H   0  0  0  0  0  0  0  0  0  0  0  0
    3.3642   14.1291   -2.8946 H   0  0  0  0  0  0  0  0  0  0  0  0
    2.8665   14.3598    0.0856 H   0  0  0  0  0  0  0  0  0  0  0  0
    4.0515   15.2669   -0.9342 H   0  0  0  0  0  0  0  0  0  0  0  0
    2.8732   17.4412   -2.4425 H   0  0  0  0  0  0  0  0  0  0  0  0
    2.9995   15.8035   -3.1695 H   0  0  0  0  0  0  0  0  0  0  0  0
    1.4245   16.6671   -3.1695 H   0  0  0  0  0  0  0  0  0  0  0  0
  1  2  1  0
  2  3  1  0
  3  4  1  0
  4  5  1  0
  5  6  1  0
  6  7  1  0
  7  8  1  0
  7  9  1  0
  2 10  1  0
 10 11  1  0
 11 12  1  0
 12 13  1  0
 13 14  1  1
 13 15  1  0
 15 16  1  0
 16 17  1  0
 17 18  2  0
 18 19  1  0
 19 20  1  0
 20 21  1  0
 21 22  1  0
 22 23  1  0
 22 24  1  0
 24 25  1  0
 24 26  1  0
 19 27  1  0
 27 28  1  6
 27 29  1  0
 29 30  1  0
 30 31  1  0
 31 32  1  6
  7  5  1  0
 31 10  1  0
 31 13  1  0
 27 15  1  0
 24 18  1  0
  1 33  1  0
  1 34  1  0
  1 35  1  0
  2 36  1  6
  3 37  1  0
  3 38  1  0
  4 39  1  0
  4 40  1  0
  5 41  1  1
  8 42  1  0
  8 43  1  0
  8 44  1  0
  9 45  1  0
  9 46  1  0
  9 47  1  0
 10 48  1  1
 11 49  1  0
 11 50  1  0
 12 51  1  0
 12 52  1  0
 14 53  1  0
 14 54  1  0
 14 55  1  0
 15 56  1  6
 16 57  1  0
 16 58  1  0
 17 59  1  0
 19 60  1  1
 20 61  1  0
 20 62  1  0
 21 63  1  0
 21 64  1  0
 22 65  1  1
 23 66  1  0
 25 67  1  0
 25 68  1  0
 25 69  1  0
 26 70  1  0
 26 71  1  0
 26 72  1  0
 28 73  1  0
 28 74  1  0
 28 75  1  0
 29 76  1  0
 29 77  1  0
 30 78  1  0
 30 79  1  0
 32 80  1  0
 32 81  1  0
 32 82  1  0
M  END
>  <meeko>  (2) 
{"is_sidechain": [false], "intermolecular_energy": 2.731, "internal_energy": -0.839}

$$$$
EPH_relaxed_0001_pdb2pqr_Repair_90_r2_0001_out
     RDKit          3D

 82 86  0  0  0  0  0  0  0  0999 V2000
    0.4440   18.4630    0.0510 C   0  0  0  0  0  0  0  0  0  0  0  0
    1.5310   17.4100   -0.1830 C   0  0  2  0  0  0  0  0  0  0  0  0
    2.7430   17.9850   -0.9430 C   0  0  0  0  0  0  0  0  0  0  0  0
    3.9770   18.1960   -0.0630 C   0  0  0  0  0  0  0  0  0  0  0  0
    3.6040   18.6600    1.3130 C   0  0  2  0  0  0  0  0  0  0  0  0
    3.8490   20.0500    1.5620 O   0  0  0  0  0  0  0  0  0  0  0  0
    4.6180   19.1210    2.3430 C   0  0  0  0  0  0  0  0  0  0  0  0
    6.0840   19.1400    2.0420 C   0  0  0  0  0  0  0  0  0  0  0  0
    4.2340   19.0870    3.7900 C   0  0  0  0  0  0  0  0  0  0  0  0
    0.9500   16.2260   -0.9480 C   0  0  1  0  0  0  0  0  0  0  0  0
    0.7920   16.5140   -2.4650 C   0  0  0  0  0  0  0  0  0  0  0  0
    1.0770   15.1810   -3.2050 C   0  0  0  0  0  0  0  0  0  0  0  0
    1.0600   14.1060   -2.0930 C   0  0  1  0  0  0  0  0  0  0  0  0
   -0.4510   13.7980   -1.8560 C   0  0  0  0  0  0  0  0  0  0  0  0
    1.8770   12.8040   -2.3790 C   0  0  2  0  0  0  0  0  0  0  0  0
    1.3910   11.9800   -3.5830 C   0  0  0  0  0  0  0  0  0  0  0  0
    0.3710   10.9360   -3.2710 C   0  0  0  0  0  0  0  0  0  0  0  0
    0.0730   10.4750   -2.0420 C   0  0  0  0  0  0  0  0  0  0  0  0
    0.8640   10.9440   -0.8130 C   0  0  1  0  0  0  0  0  0  0  0  0
    1.2420    9.7170    0.0570 C   0  0  0  0  0  0  0  0  0  0  0  0
    0.0310    8.8680    0.4310 C   0  0  0  0  0  0  0  0  0  0  0  0
   -0.6950    8.3730   -0.8170 C   0  0  2  0  0  0  0  0  0  0  0  0
    0.1560    7.4550   -1.5110 O   0  0  0  0  0  0  0  0  0  0  0  0
   -1.1170    9.5210   -1.7760 C   0  0  0  0  0  0  0  0  0  0  0  0
   -2.2630   10.3410   -1.1330 C   0  0  0  0  0  0  0  0  0  0  0  0
   -1.7100    8.8780   -3.0590 C   0  0  0  0  0  0  0  0  0  0  0  0
    2.1060   11.8900   -1.1070 C   0  0  1  0  0  0  0  0  0  0  0  0
    3.3730   11.0300   -1.3990 C   0  0  0  0  0  0  0  0  0  0  0  0
    2.4280   12.7310    0.1840 C   0  0  0  0  0  0  0  0  0  0  0  0
    1.6760   14.0660    0.3500 C   0  0  0  0  0  0  0  0  0  0  0  0
    1.7570   14.9030   -0.9300 C   0  0  2  0  0  0  0  0  0  0  0  0
    3.2640   15.2480   -1.1830 C   0  0  0  0  0  0  0  0  0  0  0  0
    0.2976   18.6049    1.1319 H   0  0  0  0  0  0  0  0  0  0  0  0
    0.7517   19.4153   -0.4054 H   0  0  0  0  0  0  0  0  0  0  0  0
   -0.4981   18.1252   -0.4054 H   0  0  0  0  0  0  0  0  0  0  0  0
    1.8879   17.0774    0.8029 H   0  0  0  0  0  0  0  0  0  0  0  0
    3.0082   17.2882   -1.7518 H   0  0  0  0  0  0  0  0  0  0  0  0
    2.4453   18.9739   -1.3218 H   0  0  0  0  0  0  0  0  0  0  0  0
    4.5242   17.2452    0.0175 H   0  0  0  0  0  0  0  0  0  0  0  0
    4.6018   18.9722   -0.5290 H   0  0  0  0  0  0  0  0  0  0  0  0
    2.7816   17.9312    1.3622 H   0  0  0  0  0  0  0  0  0  0  0  0
    6.6517   19.1474    2.9842 H   0  0  0  0  0  0  0  0  0  0  0  0
    6.3505   18.2452    1.4603 H   0  0  0  0  0  0  0  0  0  0  0  0
    6.3272   20.0414    1.4603 H   0  0  0  0  0  0  0  0  0  0  0  0
    5.1382   19.1671    4.4113 H   0  0  0  0  0  0  0  0  0  0  0  0
    3.5616   19.9291    4.0108 H   0  0  0  0  0  0  0  0  0  0  0  0
    3.7201   18.1398    4.0108 H   0  0  0  0  0  0  0  0  0  0  0  0
    0.0049   16.0979   -0.3999 H   0  0  0  0  0  0  0  0  0  0  0  0
   -0.2308   16.8562   -2.6812 H   0  0  0  0  0  0  0  0  0  0  0  0
    1.4850   17.3033   -2.7917 H   0  0  0  0  0  0  0  0  0  0  0  0
    0.2969   14.9779   -3.9534 H   0  0  0  0  0  0  0  0  0  0  0  0
    2.0323   15.2024   -3.7499 H   0  0  0  0  0  0  0  0  0  0  0  0
   -0.6517   13.7571   -0.7752 H   0  0  0  0  0  0  0  0  0  0  0  0
   -1.0627   14.5899   -2.3128 H   0  0  0  0  0  0  0  0  0  0  0  0
   -0.7039   12.8298   -2.3128 H   0  0  0  0  0  0  0  0  0  0  0  0
    2.8611   13.2018   -2.6676 H   0  0  0  0  0  0  0  0  0  0  0  0
    0.9537   12.6742   -4.3157 H   0  0  0  0  0  0  0  0  0  0  0  0
    2.2731   11.4409   -3.9588 H   0  0  0  0  0  0  0  0  0  0  0  0
   -0.1846   10.5067   -4.1177 H   0  0  0  0  0  0  0  0  0  0  0  0
    0.1893   11.6068   -0.2513 H   0  0  0  0  0  0  0  0  0  0  0  0
    1.9509    9.0914   -0.5052 H   0  0  0  0  0  0  0  0  0  0  0  0
    1.6857   10.0941    0.9902 H   0  0  0  0  0  0  0  0  0  0  0  0
    0.3668    8.0015    1.0195 H   0  0  0  0  0  0  0  0  0  0  0  0
   -0.6632    9.4866    1.0187 H   0  0  0  0  0  0  0  0  0  0  0  0
   -1.6229    7.8832   -0.4868 H   0  0  0  0  0  0  0  0  0  0  0  0
   -0.1370    7.4250   -2.4380 H   0  0  0  0  0  0  0  0  0  0  0  0
   -2.1842   10.2846   -0.0373 H   0  0  0  0  0  0  0  0  0  0  0  0
   -2.1867   11.3908   -1.4525 H   0  0  0  0  0  0  0  0  0  0  0  0
   -3.2320    9.9300   -1.4525 H   0  0  0  0  0  0  0  0  0  0  0  0
   -2.4310    8.0963   -2.7778 H   0  0  0  0  0  0  0  0  0  0  0  0
   -2.2198    9.6500   -3.6541 H   0  0  0  0  0  0  0  0  0  0  0  0
   -0.8993    8.4322   -3.6541 H   0  0  0  0  0  0  0  0  0  0  0  0
    3.8317   10.7186   -0.4489 H   0  0  0  0  0  0  0  0  0  0  0  0
    3.0862   10.1391   -1.9770 H   0  0  0  0  0  0  0  0  0  0  0  0
    4.0951   11.6254   -1.9770 H   0  0  0  0  0  0  0  0  0  0  0  0
    2.1907   12.1048    1.0567 H   0  0  0  0  0  0  0  0  0  0  0  0
    3.4883   13.0081    0.0896 H   0  0  0  0  0  0  0  0  0  0  0  0
    0.6201   13.8584    0.5781 H   0  0  0  0  0  0  0  0  0  0  0  0
    2.1426   14.6321    1.1696 H   0  0  0  0  0  0  0  0  0  0  0  0
    3.7800   15.3661   -0.2187 H   0  0  0  0  0  0  0  0  0  0  0  0
    3.7355   14.4346   -1.7540 H   0  0  0  0  0  0  0  0  0  0  0  0
    3.3347   16.1856   -1.7540 H   0  0  0  0  0  0  0  0  0  0  0  0
  1  2  1  0
  2  3  1  0
  3  4  1  0
  4  5  1  0
  5  6  1  0
  6  7  1  0
  7  8  1  0
  7  9  1  0
  2 10  1  0
 10 11  1  0
 11 12  1  0
 12 13  1  0
 13 14  1  1
 13 15  1  0
 15 16  1  0
 16 17  1  0
 17 18  2  0
 18 19  1  0
 19 20  1  0
 20 21  1  0
 21 22  1  0
 22 23  1  0
 22 24  1  0
 24 25  1  0
 24 26  1  0
 19 27  1  0
 27 28  1  6
 27 29  1  0
 29 30  1  0
 30 31  1  0
 31 32  1  6
  7  5  1  0
 31 10  1  0
 31 13  1  0
 27 15  1  0
 24 18  1  0
  1 33  1  0
  1 34  1  0
  1 35  1  0
  2 36  1  1
  3 37  1  0
  3 38  1  0
  4 39  1  0
  4 40  1  0
  5 41  1  1
  8 42  1  0
  8 43  1  0
  8 44  1  0
  9 45  1  0
  9 46  1  0
  9 47  1  0
 10 48  1  1
 11 49  1  0
 11 50  1  0
 12 51  1  0
 12 52  1  0
 14 53  1  0
 14 54  1  0
 14 55  1  0
 15 56  1  6
 16 57  1  0
 16 58  1  0
 17 59  1  0
 19 60  1  1
 20 61  1  0
 20 62  1  0
 21 63  1  0
 21 64  1  0
 22 65  1  1
 23 66  1  0
 25 67  1  0
 25 68  1  0
 25 69  1  0
 26 70  1  0
 26 71  1  0
 26 72  1  0
 28 73  1  0
 28 74  1  0
 28 75  1  0
 29 76  1  0
 29 77  1  0
 30 78  1  0
 30 79  1  0
 32 80  1  0
 32 81  1  0
 32 82  1  0
M  END
>  <meeko>  (3) 
{"is_sidechain": [false], "intermolecular_energy": 2.731, "internal_energy": -0.839}

$$$$
EPH_relaxed_0001_pdb2pqr_Repair_90_r2_0001_out
     RDKit          3D

 82 86  0  0  0  0  0  0  0  0999 V2000
    2.4160   18.0120   -2.6740 C   0  0  0  0  0  0  0  0  0  0  0  0
    1.1050   17.6430   -1.9750 C   0  0  2  0  0  0  0  0  0  0  0  0
    1.2270   17.7040   -0.4390 C   0  0  0  0  0  0  0  0  0  0  0  0
    0.8890   19.0760    0.1510 C   0  0  0  0  0  0  0  0  0  0  0  0
   -0.5580   19.1760    0.5280 C   0  0  2  0  0  0  0  0  0  0  0  0
   -1.4210   18.2630   -0.1620 O   0  0  0  0  0  0  0  0  0  0  0  0
   -1.6380   19.6590   -0.4210 C   0  0  0  0  0  0  0  0  0  0  0  0
   -1.3170   20.0760   -1.8220 C   0  0  0  0  0  0  0  0  0  0  0  0
   -2.9140   20.1880    0.1570 C   0  0  0  0  0  0  0  0  0  0  0  0
    0.6600   16.2500   -2.4070 C   0  0  1  0  0  0  0  0  0  0  0  0
    0.7700   16.0370   -3.9410 C   0  0  0  0  0  0  0  0  0  0  0  0
    1.1720   14.5560   -4.1590 C   0  0  0  0  0  0  0  0  0  0  0  0
    0.9580   13.8870   -2.7810 C   0  0  1  0  0  0  0  0  0  0  0  0
   -0.5730   13.5920   -2.7120 C   0  0  0  0  0  0  0  0  0  0  0  0
    1.8060   12.6040   -2.4970 C   0  0  2  0  0  0  0  0  0  0  0  0
    1.5320   11.4190   -3.4380 C   0  0  0  0  0  0  0  0  0  0  0  0
    0.4690   10.4750   -2.9830 C   0  0  0  0  0  0  0  0  0  0  0  0
   -0.0400   10.4110   -1.7390 C   0  0  0  0  0  0  0  0  0  0  0  0
    0.5270   11.2820   -0.6110 C   0  0  1  0  0  0  0  0  0  0  0  0
    0.7430   10.4130    0.6560 C   0  0  0  0  0  0  0  0  0  0  0  0
   -0.5190    9.6650    1.0740 C   0  0  0  0  0  0  0  0  0  0  0  0
   -1.0190    8.7660   -0.0530 C   0  0  2  0  0  0  0  0  0  0  0  0
   -0.0650    7.7210   -0.2660 O   0  0  0  0  0  0  0  0  0  0  0  0
   -1.2630    9.5300   -1.3840 C   0  0  0  0  0  0  0  0  0  0  0  0
   -2.4990   10.4510   -1.2360 C   0  0  0  0  0  0  0  0  0  0  0  0
   -1.6280    8.4860   -2.4740 C   0  0  0  0  0  0  0  0  0  0  0  0
    1.8060   12.1500   -0.9810 C   0  0  1  0  0  0  0  0  0  0  0  0
    3.1000   11.3080   -0.7680 C   0  0  0  0  0  0  0  0  0  0  0  0
    1.9030   13.3710    0.0090 C   0  0  0  0  0  0  0  0  0  0  0  0
    1.1400   14.6490   -0.3870 C   0  0  0  0  0  0  0  0  0  0  0  0
    1.4450   15.0440   -1.8350 C   0  0  2  0  0  0  0  0  0  0  0  0
    2.9750   15.3680   -1.9300 C   0  0  0  0  0  0  0  0  0  0  0  0
    3.1858   18.2287   -1.9188 H   0  0  0  0  0  0  0  0  0  0  0  0
    2.7454   17.1717   -3.3028 H   0  0  0  0  0  0  0  0  0  0  0  0
    2.2588   18.9008   -3.3028 H   0  0  0  0  0  0  0  0  0  0  0  0
    0.3505   18.3850   -2.2753 H   0  0  0  0  0  0  0  0  0  0  0  0
    0.5407   16.9612   -0.0063 H   0  0  0  0  0  0  0  0  0  0  0  0
    2.2788   17.4977   -0.1915 H   0  0  0  0  0  0  0  0  0  0  0  0
    1.5034   19.2392    1.0487 H   0  0  0  0  0  0  0  0  0  0  0  0
    1.0977   19.8389   -0.6135 H   0  0  0  0  0  0  0  0  0  0  0  0
   -0.2944   19.4673    1.5554 H   0  0  0  0  0  0  0  0  0  0  0  0
   -0.6461   20.9475   -1.8006 H   0  0  0  0  0  0  0  0  0  0  0  0
   -0.8228   19.2457   -2.3476 H   0  0  0  0  0  0  0  0  0  0  0  0
   -2.2462   20.3414   -2.3476 H   0  0  0  0  0  0  0  0  0  0  0  0
   -2.8566   20.1642    1.2552 H   0  0  0  0  0  0  0  0  0  0  0  0
   -3.0674   21.2239   -0.1798 H   0  0  0  0  0  0  0  0  0  0  0  0
   -3.7553   19.5645   -0.1798 H   0  0  0  0  0  0  0  0  0  0  0  0
   -0.3663   16.2529   -2.0113 H   0  0  0  0  0  0  0  0  0  0  0  0
   -0.1978   16.2416   -4.4222 H   0  0  0  0  0  0  0  0  0  0  0  0
    1.5136   16.7172   -4.3819 H   0  0  0  0  0  0  0  0  0  0  0  0
    0.5320   14.0880   -4.9215 H   0  0  0  0  0  0  0  0  0  0  0  0
    2.2071   14.4529   -4.5166 H   0  0  0  0  0  0  0  0  0  0  0  0
   -0.8877   13.5314   -1.6597 H   0  0  0  0  0  0  0  0  0  0  0  0
   -1.1251   14.4003   -3.2138 H   0  0  0  0  0  0  0  0  0  0  0  0
   -0.7853   12.6364   -3.2138 H   0  0  0  0  0  0  0  0  0  0  0  0
    2.8271   12.9401   -2.7301 H   0  0  0  0  0  0  0  0  0  0  0  0
    1.2311   11.8239   -4.4155 H   0  0  0  0  0  0  0  0  0  0  0  0
    2.4636   10.8349   -3.4704 H   0  0  0  0  0  0  0  0  0  0  0  0
    0.0677    9.7720   -3.7278 H   0  0  0  0  0  0  0  0  0  0  0  0
   -0.2327   12.0518   -0.4104 H   0  0  0  0  0  0  0  0  0  0  0  0
    1.5358    9.6791    0.4493 H   0  0  0  0  0  0  0  0  0  0  0  0
    1.0202   11.0869    1.4800 H   0  0  0  0  0  0  0  0  0  0  0  0
   -0.2954    9.0463    1.9556 H   0  0  0  0  0  0  0  0  0  0  0  0
   -1.3017   10.4013    1.3091 H   0  0  0  0  0  0  0  0  0  0  0  0
   -1.9925    8.3585    0.2572 H   0  0  0  0  0  0  0  0  0  0  0  0
   -0.3880    7.1740   -1.0030 H   0  0  0  0  0  0  0  0  0  0  0  0
   -2.7122   10.6099   -0.1686 H   0  0  0  0  0  0  0  0  0  0  0  0
   -2.2948   11.4189   -1.7171 H   0  0  0  0  0  0  0  0  0  0  0  0
   -3.3681    9.9785   -1.7171 H   0  0  0  0  0  0  0  0  0  0  0  0
   -1.9544    7.5523   -1.9927 H   0  0  0  0  0  0  0  0  0  0  0  0
   -2.4419    8.8795   -3.1007 H   0  0  0  0  0  0  0  0  0  0  0  0
   -0.7462    8.2867   -3.1007 H   0  0  0  0  0  0  0  0  0  0  0  0
    3.2856   11.1872    0.3095 H   0  0  0  0  0  0  0  0  0  0  0  0
    2.9740   10.3184   -1.2316 H   0  0  0  0  0  0  0  0  0  0  0  0
    3.9537   11.8240   -1.2316 H   0  0  0  0  0  0  0  0  0  0  0  0
    1.5151   13.0405    0.9838 H   0  0  0  0  0  0  0  0  0  0  0  0
    2.9649   13.6581    0.0084 H   0  0  0  0  0  0  0  0  0  0  0  0
    0.0597   14.4698   -0.2830 H   0  0  0  0  0  0  0  0  0  0  0  0
    1.4603   15.4675    0.2744 H   0  0  0  0  0  0  0  0  0  0  0  0
    3.3946   15.4568   -0.9170 H   0  0  0  0  0  0  0  0  0  0  0  0
    3.4884   14.5587   -2.4698 H   0  0  0  0  0  0  0  0  0  0  0  0
    3.1162   16.3160   -2.4698 H   0  0  0  0  0  0  0  0  0  0  0  0
  1  2  1  0
  2  3  1  0
  3  4  1  0
  4  5  1  0
  5  6  1  0
  6  7  1  0
  7  8  1  0
  7  9  1  0
  2 10  1  0
 10 11  1  0
 11 12  1  0
 12 13  1  0
 13 14  1  1
 13 15  1  0
 15 16  1  0
 16 17  1  0
 17 18  2  0
 18 19  1  0
 19 20  1  0
 20 21  1  0
 21 22  1  0
 22 23  1  0
 22 24  1  0
 24 25  1  0
 24 26  1  0
 19 27  1  0
 27 28  1  6
 27 29  1  0
 29 30  1  0
 30 31  1  0
 31 32  1  1
  7  5  1  0
 31 10  1  0
 31 13  1  0
 27 15  1  0
 24 18  1  0
  1 33  1  0
  1 34  1  0
  1 35  1  0
  2 36  1  6
  3 37  1  0
  3 38  1  0
  4 39  1  0
  4 40  1  0
  5 41  1  1
  8 42  1  0
  8 43  1  0
  8 44  1  0
  9 45  1  0
  9 46  1  0
  9 47  1  0
 10 48  1  1
 11 49  1  0
 11 50  1  0
 12 51  1  0
 12 52  1  0
 14 53  1  0
 14 54  1  0
 14 55  1  0
 15 56  1  6
 16 57  1  0
 16 58  1  0
 17 59  1  0
 19 60  1  1
 20 61  1  0
 20 62  1  0
 21 63  1  0
 21 64  1  0
 22 65  1  1
 23 66  1  0
 25 67  1  0
 25 68  1  0
 25 69  1  0
 26 70  1  0
 26 71  1  0
 26 72  1  0
 28 73  1  0
 28 74  1  0
 28 75  1  0
 29 76  1  0
 29 77  1  0
 30 78  1  0
 30 79  1  0
 32 80  1  0
 32 81  1  0
 32 82  1  0
M  END
>  <meeko>  (4) 
{"is_sidechain": [false], "intermolecular_energy": 2.731, "internal_energy": -0.839}

$$$$
EPH_relaxed_0001_pdb2pqr_Repair_90_r2_0001_out
     RDKit          3D

 82 86  0  0  0  0  0  0  0  0999 V2000
   -3.3790    9.4110    0.2490 C   0  0  0  0  0  0  0  0  0  0  0  0
   -2.3090    9.5910   -0.8320 C   0  0  2  0  0  0  0  0  0  0  0  0
   -1.5440    8.2830   -1.1160 C   0  0  0  0  0  0  0  0  0  0  0  0
   -1.9330    7.6170   -2.4380 C   0  0  0  0  0  0  0  0  0  0  0  0
   -3.3780    7.8410   -2.7680 C   0  0  2  0  0  0  0  0  0  0  0  0
   -4.2980    7.3810   -1.7700 O   0  0  0  0  0  0  0  0  0  0  0  0
   -4.3580    6.7160   -3.0420 C   0  0  0  0  0  0  0  0  0  0  0  0
   -3.9320    5.2820   -3.0000 C   0  0  0  0  0  0  0  0  0  0  0  0
   -5.5980    7.0210   -3.8240 C   0  0  0  0  0  0  0  0  0  0  0  0
   -1.3330   10.6860   -0.4180 C   0  0  1  0  0  0  0  0  0  0  0  0
   -0.2520   10.1790    0.5750 C   0  0  0  0  0  0  0  0  0  0  0  0
    1.0540   10.9460    0.2440 C   0  0  0  0  0  0  0  0  0  0  0  0
    0.6060   12.0930   -0.6930 C   0  0  1  0  0  0  0  0  0  0  0  0
    0.0520   13.1960    0.2620 C   0  0  0  0  0  0  0  0  0  0  0  0
    1.6960   12.6600   -1.6600 C   0  0  2  0  0  0  0  0  0  0  0  0
    2.9080   13.3090   -0.9680 C   0  0  0  0  0  0  0  0  0  0  0  0
    2.7830   14.7730   -0.7030 C   0  0  0  0  0  0  0  0  0  0  0  0
    1.8690   15.5930   -1.2560 C   0  0  0  0  0  0  0  0  0  0  0  0
    0.8970   15.0810   -2.3260 C   0  0  1  0  0  0  0  0  0  0  0  0
    0.8480   16.0870   -3.5050 C   0  0  0  0  0  0  0  0  0  0  0  0
    0.5200   17.5060   -3.0500 C   0  0  0  0  0  0  0  0  0  0  0  0
    1.5430   18.0010   -2.0300 C   0  0  2  0  0  0  0  0  0  0  0  0
    2.8100   18.1420   -2.6790 O   0  0  0  0  0  0  0  0  0  0  0  0
    1.6860   17.0610   -0.8010 C   0  0  0  0  0  0  0  0  0  0  0  0
    0.4080   17.1450    0.0700 C   0  0  0  0  0  0  0  0  0  0  0  0
    2.8460   17.6000    0.0790 C   0  0  0  0  0  0  0  0  0  0  0  0
    1.1240   13.5840   -2.8100 C   0  0  1  0  0  0  0  0  0  0  0  0
    2.1690   13.5520   -3.9680 C   0  0  0  0  0  0  0  0  0  0  0  0
   -0.2210   13.0280   -3.4110 C   0  0  0  0  0  0  0  0  0  0  0  0
   -1.2040   12.3720   -2.4230 C   0  0  0  0  0  0  0  0  0  0  0  0
   -0.4890   11.3460   -1.5370 C   0  0  2  0  0  0  0  0  0  0  0  0
    0.0600   10.2120   -2.4680 C   0  0  0  0  0  0  0  0  0  0  0  0
   -2.9133    9.4893    1.2425 H   0  0  0  0  0  0  0  0  0  0  0  0
   -4.1451   10.1929    0.1404 H   0  0  0  0  0  0  0  0  0  0  0  0
   -3.8471    8.4215    0.1404 H   0  0  0  0  0  0  0  0  0  0  0  0
   -2.8219    9.8809   -1.7609 H   0  0  0  0  0  0  0  0  0  0  0  0
   -0.4679    8.5093   -1.1447 H   0  0  0  0  0  0  0  0  0  0  0  0
   -1.8035    7.5780   -0.3125 H   0  0  0  0  0  0  0  0  0  0  0  0
   -1.3140    8.0371   -3.2444 H   0  0  0  0  0  0  0  0  0  0  0  0
   -1.7682    6.5340   -2.3377 H   0  0  0  0  0  0  0  0  0  0  0  0
   -3.1330    8.7576   -3.3245 H   0  0  0  0  0  0  0  0  0  0  0  0
   -3.8359    4.9586   -1.9530 H   0  0  0  0  0  0  0  0  0  0  0  0
   -4.6844    4.6609   -3.5081 H   0  0  0  0  0  0  0  0  0  0  0  0
   -2.9625    5.1725   -3.5081 H   0  0  0  0  0  0  0  0  0  0  0  0
   -6.4276    7.2250   -3.1311 H   0  0  0  0  0  0  0  0  0  0  0  0
   -5.4242    7.9032   -4.4577 H   0  0  0  0  0  0  0  0  0  0  0  0
   -5.8532    6.1589   -4.4577 H   0  0  0  0  0  0  0  0  0  0  0  0
   -2.0415   11.4162    0.0002 H   0  0  0  0  0  0  0  0  0  0  0  0
   -0.5612   10.3865    1.6100 H   0  0  0  0  0  0  0  0  0  0  0  0
   -0.1070    9.0927    0.4803 H   0  0  0  0  0  0  0  0  0  0  0  0
    1.5106   11.3488    1.1601 H   0  0  0  0  0  0  0  0  0  0  0  0
    1.8115   10.2985   -0.2218 H   0  0  0  0  0  0  0  0  0  0  0  0
    0.2067   12.8880    1.3066 H   0  0  0  0  0  0  0  0  0  0  0  0
    0.5820   14.1418    0.0763 H   0  0  0  0  0  0  0  0  0  0  0  0
   -1.0232   13.3356    0.0763 H   0  0  0  0  0  0  0  0  0  0  0  0
    2.0800   11.7495   -2.1432 H   0  0  0  0  0  0  0  0  0  0  0  0
    3.0614   12.8011   -0.0044 H   0  0  0  0  0  0  0  0  0  0  0  0
    3.7520   13.1969   -1.6645 H   0  0  0  0  0  0  0  0  0  0  0  0
    3.4979   15.2196    0.0037 H   0  0  0  0  0  0  0  0  0  0  0  0
   -0.0885   15.0269   -1.8404 H   0  0  0  0  0  0  0  0  0  0  0  0
    1.8286   16.0943   -4.0033 H   0  0  0  0  0  0  0  0  0  0  0  0
    0.0492   15.7623   -4.1880 H   0  0  0  0  0  0  0  0  0  0  0  0
    0.5288   18.1753   -3.9229 H   0  0  0  0  0  0  0  0  0  0  0  0
   -0.4737   17.5031   -2.5783 H   0  0  0  0  0  0  0  0  0  0  0  0
    1.1849   18.9673   -1.6452 H   0  0  0  0  0  0  0  0  0  0  0  0
    3.4170   17.4930   -2.2830 H   0  0  0  0  0  0  0  0  0  0  0  0
    0.6874   17.1266    1.1338 H   0  0  0  0  0  0  0  0  0  0  0  0
   -0.1266   18.0802   -0.1526 H   0  0  0  0  0  0  0  0  0  0  0  0
   -0.2444   16.2878   -0.1526 H   0  0  0  0  0  0  0  0  0  0  0  0
    2.5869   17.4796    1.1412 H   0  0  0  0  0  0  0  0  0  0  0  0
    3.7650   17.0366   -0.1404 H   0  0  0  0  0  0  0  0  0  0  0  0
    3.0080   18.6657   -0.1404 H   0  0  0  0  0  0  0  0  0  0  0  0
    3.1840   13.5209   -3.5452 H   0  0  0  0  0  0  0  0  0  0  0  0
    2.0024   12.6585   -4.5877 H   0  0  0  0  0  0  0  0  0  0  0  0
    2.0574   14.4540   -4.5877 H   0  0  0  0  0  0  0  0  0  0  0  0
   -0.7433   13.8684   -3.8916 H   0  0  0  0  0  0  0  0  0  0  0  0
    0.0810   12.2213   -4.0951 H   0  0  0  0  0  0  0  0  0  0  0  0
   -1.6470   13.1513   -1.7854 H   0  0  0  0  0  0  0  0  0  0  0  0
   -1.9858   11.8543   -2.9981 H   0  0  0  0  0  0  0  0  0  0  0  0
    0.4571    9.3918   -1.8518 H   0  0  0  0  0  0  0  0  0  0  0  0
   -0.7542    9.8326   -3.1029 H   0  0  0  0  0  0  0  0  0  0  0  0
    0.8626   10.6153   -3.1029 H   0  0  0  0  0  0  0  0  0  0  0  0
  1  2  1  0
  2  3  1  0
  3  4  1  0
  4  5  1  0
  5  6  1  0
  6  7  1  0
  7  8  1  0
  7  9  1  0
  2 10  1  0
 10 11  1  0
 11 12  1  0
 12 13  1  0
 13 14  1  1
 13 15  1  0
 15 16  1  0
 16 17  1  0
 17 18  2  0
 18 19  1  0
 19 20  1  0
 20 21  1  0
 21 22  1  0
 22 23  1  0
 22 24  1  0
 24 25  1  0
 24 26  1  0
 19 27  1  0
 27 28  1  6
 27 29  1  0
 29 30  1  0
 30 31  1  0
 31 32  1  6
  7  5  1  0
 31 10  1  0
 31 13  1  0
 27 15  1  0
 24 18  1  0
  1 33  1  0
  1 34  1  0
  1 35  1  0
  2 36  1  6
  3 37  1  0
  3 38  1  0
  4 39  1  0
  4 40  1  0
  5 41  1  6
  8 42  1  0
  8 43  1  0
  8 44  1  0
  9 45  1  0
  9 46  1  0
  9 47  1  0
 10 48  1  1
 11 49  1  0
 11 50  1  0
 12 51  1  0
 12 52  1  0
 14 53  1  0
 14 54  1  0
 14 55  1  0
 15 56  1  6
 16 57  1  0
 16 58  1  0
 17 59  1  0
 19 60  1  1
 20 61  1  0
 20 62  1  0
 21 63  1  0
 21 64  1  0
 22 65  1  1
 23 66  1  0
 25 67  1  0
 25 68  1  0
 25 69  1  0
 26 70  1  0
 26 71  1  0
 26 72  1  0
 28 73  1  0
 28 74  1  0
 28 75  1  0
 29 76  1  0
 29 77  1  0
 30 78  1  0
 30 79  1  0
 32 80  1  0
 32 81  1  0
 32 82  1  0
M  END
>  <meeko>  (5) 
{"is_sidechain": [false], "intermolecular_energy": 2.731, "internal_energy": -0.839}

$$$$
EPH_relaxed_0001_pdb2pqr_Repair_90_r2_0001_out
     RDKit          3D

 82 86  0  0  0  0  0  0  0  0999 V2000
    3.7040   17.6830    0.6390 C   0  0  0  0  0  0  0  0  0  0  0  0
    2.8010   18.0100   -0.5540 C   0  0  2  0  0  0  0  0  0  0  0  0
    2.1390   19.3960   -0.4190 C   0  0  0  0  0  0  0  0  0  0  0  0
    1.2460   19.5330    0.8170 C   0  0  0  0  0  0  0  0  0  0  0  0
   -0.0850   20.1330    0.4760 C   0  0  2  0  0  0  0  0  0  0  0  0
   -1.0120   20.1930    1.5670 O   0  0  0  0  0  0  0  0  0  0  0  0
   -1.3810   19.3440    0.4680 C   0  0  0  0  0  0  0  0  0  0  0  0
   -1.4090   17.8870    0.8070 C   0  0  0  0  0  0  0  0  0  0  0  0
   -2.5300   19.8650   -0.3370 C   0  0  0  0  0  0  0  0  0  0  0  0
    1.7320   16.9350   -0.7070 C   0  0  1  0  0  0  0  0  0  0  0  0
    0.4950   17.4310   -1.5010 C   0  0  0  0  0  0  0  0  0  0  0  0
   -0.0230   16.2230   -2.3240 C   0  0  0  0  0  0  0  0  0  0  0  0
    0.7170   15.0010   -1.7300 C   0  0  1  0  0  0  0  0  0  0  0  0
   -0.0870   14.6310   -0.4440 C   0  0  0  0  0  0  0  0  0  0  0  0
    0.8890   13.7700   -2.6780 C   0  0  2  0  0  0  0  0  0  0  0  0
   -0.4240   13.1140   -3.1400 C   0  0  0  0  0  0  0  0  0  0  0  0
   -0.9310   12.0150   -2.2650 C   0  0  0  0  0  0  0  0  0  0  0  0
   -0.2190   11.3800   -1.3160 C   0  0  0  0  0  0  0  0  0  0  0  0
    1.2700   11.6860   -1.1110 C   0  0  1  0  0  0  0  0  0  0  0  0
    2.0600   10.3560   -0.9900 C   0  0  0  0  0  0  0  0  0  0  0  0
    1.4990    9.4390    0.0920 C   0  0  0  0  0  0  0  0  0  0  0  0
    0.0320    9.1110   -0.1780 C   0  0  2  0  0  0  0  0  0  0  0  0
   -0.0510    8.3180   -1.3660 O   0  0  0  0  0  0  0  0  0  0  0  0
   -0.8610   10.3740   -0.3290 C   0  0  0  0  0  0  0  0  0  0  0  0
   -1.0120   11.0710    1.0460 C   0  0  0  0  0  0  0  0  0  0  0  0
   -2.2840    9.9070   -0.7380 C   0  0  0  0  0  0  0  0  0  0  0  0
    1.9220   12.6900   -2.1570 C   0  0  1  0  0  0  0  0  0  0  0  0
    2.4160   11.9050   -3.4110 C   0  0  0  0  0  0  0  0  0  0  0  0
    3.1990   13.3460   -1.5120 C   0  0  0  0  0  0  0  0  0  0  0  0
    2.9800   14.6280   -0.6860 C   0  0  0  0  0  0  0  0  0  0  0  0
    2.1280   15.6400   -1.4590 C   0  0  2  0  0  0  0  0  0  0  0  0
    2.9210   16.0470   -2.7470 C   0  0  0  0  0  0  0  0  0  0  0  0
    3.1606   17.8798    1.5749 H   0  0  0  0  0  0  0  0  0  0  0  0
    3.9942   16.6227    0.5995 H   0  0  0  0  0  0  0  0  0  0  0  0
    4.6058   18.3117    0.5995 H   0  0  0  0  0  0  0  0  0  0  0  0
    3.4356   18.0336   -1.4522 H   0  0  0  0  0  0  0  0  0  0  0  0
    2.9324   20.1557   -0.3603 H   0  0  0  0  0  0  0  0  0  0  0  0
    1.4932   19.5312   -1.2991 H   0  0  0  0  0  0  0  0  0  0  0  0
    1.0862   18.5361    1.2536 H   0  0  0  0  0  0  0  0  0  0  0  0
    1.7499   20.2003    1.5317 H   0  0  0  0  0  0  0  0  0  0  0  0
    0.3789   20.7973   -0.2679 H   0  0  0  0  0  0  0  0  0  0  0  0
   -1.4113   17.7649    1.9002 H   0  0  0  0  0  0  0  0  0  0  0  0
   -2.3161   17.4297    0.3850 H   0  0  0  0  0  0  0  0  0  0  0  0
   -0.5201   17.3952    0.3850 H   0  0  0  0  0  0  0  0  0  0  0  0
   -3.3196   20.2230    0.3400 H   0  0  0  0  0  0  0  0  0  0  0  0
   -2.1866   20.6954   -0.9714 H   0  0  0  0  0  0  0  0  0  0  0  0
   -2.9284   19.0595   -0.9714 H   0  0  0  0  0  0  0  0  0  0  0  0
    1.5430   16.7113    0.3533 H   0  0  0  0  0  0  0  0  0  0  0  0
   -0.2850   17.7795   -0.8080 H   0  0  0  0  0  0  0  0  0  0  0  0
    0.7594   18.2723   -2.1585 H   0  0  0  0  0  0  0  0  0  0  0  0
   -1.1113   16.1121   -2.2082 H   0  0  0  0  0  0  0  0  0  0  0  0
    0.1640   16.3410   -3.4015 H   0  0  0  0  0  0  0  0  0  0  0  0
    0.5002   14.9013    0.4460 H   0  0  0  0  0  0  0  0  0  0  0  0
   -1.0394   15.1814   -0.4359 H   0  0  0  0  0  0  0  0  0  0  0  0
   -0.2884   13.5496   -0.4359 H   0  0  0  0  0  0  0  0  0  0  0  0
    1.3289   14.2249   -3.5778 H   0  0  0  0  0  0  0  0  0  0  0  0
   -1.1966   13.8957   -3.1859 H   0  0  0  0  0  0  0  0  0  0  0  0
   -0.2065   12.6514   -4.1140 H   0  0  0  0  0  0  0  0  0  0  0  0
   -1.9745   11.6979   -2.4084 H   0  0  0  0  0  0  0  0  0  0  0  0
    1.3380   12.2478   -0.1678 H   0  0  0  0  0  0  0  0  0  0  0  0
    2.0158    9.8305   -1.9554 H   0  0  0  0  0  0  0  0  0  0  0  0
    3.0946   10.6062   -0.7123 H   0  0  0  0  0  0  0  0  0  0  0  0
    2.0796    8.5049    0.1090 H   0  0  0  0  0  0  0  0  0  0  0  0
    1.5712    9.9541    1.0613 H   0  0  0  0  0  0  0  0  0  0  0  0
   -0.3493    8.5608    0.6949 H   0  0  0  0  0  0  0  0  0  0  0  0
   -0.9820    8.3050   -1.6460 H   0  0  0  0  0  0  0  0  0  0  0  0
   -0.8528   10.3362    1.8490 H   0  0  0  0  0  0  0  0  0  0  0  0
   -0.2674   11.8760    1.1327 H   0  0  0  0  0  0  0  0  0  0  0  0
   -2.0230   11.4957    1.1327 H   0  0  0  0  0  0  0  0  0  0  0  0
   -2.8797    9.7115    0.1659 H   0  0  0  0  0  0  0  0  0  0  0  0
   -2.7703   10.6927   -1.3348 H   0  0  0  0  0  0  0  0  0  0  0  0
   -2.2102    8.9859   -1.3348 H   0  0  0  0  0  0  0  0  0  0  0  0
    2.9762   11.0148   -3.0891 H   0  0  0  0  0  0  0  0  0  0  0  0
    1.5499   11.5949   -4.0142 H   0  0  0  0  0  0  0  0  0  0  0  0
    3.0702   12.5517   -4.0142 H   0  0  0  0  0  0  0  0  0  0  0  0
    3.6587   12.5979   -0.8495 H   0  0  0  0  0  0  0  0  0  0  0  0
    3.8243   13.6552   -2.3626 H   0  0  0  0  0  0  0  0  0  0  0  0
    2.4676   14.3684    0.2521 H   0  0  0  0  0  0  0  0  0  0  0  0
    3.9599   15.0819   -0.4768 H   0  0  0  0  0  0  0  0  0  0  0  0
    3.8653   16.5317   -2.4583 H   0  0  0  0  0  0  0  0  0  0  0  0
    3.1374   15.1485   -3.3436 H   0  0  0  0  0  0  0  0  0  0  0  0
    2.3172   16.7466   -3.3436 H   0  0  0  0  0  0  0  0  0  0  0  0
  1  2  1  0
  2  3  1  0
  3  4  1  0
  4  5  1  0
  5  6  1  0
  6  7  1  0
  7  8  1  0
  7  9  1  0
  2 10  1  0
 10 11  1  0
 11 12  1  0
 12 13  1  0
 13 14  1  1
 13 15  1  0
 15 16  1  0
 16 17  1  0
 17 18  2  0
 18 19  1  0
 19 20  1  0
 20 21  1  0
 21 22  1  0
 22 23  1  0
 22 24  1  0
 24 25  1  0
 24 26  1  0
 19 27  1  0
 27 28  1  6
 27 29  1  0
 29 30  1  0
 30 31  1  0
 31 32  1  6
  7  5  1  0
 31 10  1  0
 31 13  1  0
 27 15  1  0
 24 18  1  0
  1 33  1  0
  1 34  1  0
  1 35  1  0
  2 36  1  6
  3 37  1  0
  3 38  1  0
  4 39  1  0
  4 40  1  0
  5 41  1  6
  8 42  1  0
  8 43  1  0
  8 44  1  0
  9 45  1  0
  9 46  1  0
  9 47  1  0
 10 48  1  1
 11 49  1  0
 11 50  1  0
 12 51  1  0
 12 52  1  0
 14 53  1  0
 14 54  1  0
 14 55  1  0
 15 56  1  6
 16 57  1  0
 16 58  1  0
 17 59  1  0
 19 60  1  1
 20 61  1  0
 20 62  1  0
 21 63  1  0
 21 64  1  0
 22 65  1  1
 23 66  1  0
 25 67  1  0
 25 68  1  0
 25 69  1  0
 26 70  1  0
 26 71  1  0
 26 72  1  0
 28 73  1  0
 28 74  1  0
 28 75  1  0
 29 76  1  0
 29 77  1  0
 30 78  1  0
 30 79  1  0
 32 80  1  0
 32 81  1  0
 32 82  1  0
M  END
>  <meeko>  (6) 
{"is_sidechain": [false], "intermolecular_energy": 2.731, "internal_energy": -0.839}

$$$$
EPH_relaxed_0001_pdb2pqr_Repair_90_r2_0001_out
     RDKit          3D

 82 86  0  0  0  0  0  0  0  0999 V2000
    0.4120    8.8080   -2.4220 C   0  0  0  0  0  0  0  0  0  0  0  0
    1.1620    9.9540   -3.1080 C   0  0  2  0  0  0  0  0  0  0  0  0
    2.6600    9.9660   -2.7470 C   0  0  0  0  0  0  0  0  0  0  0  0
    3.5500   10.5790   -3.8310 C   0  0  0  0  0  0  0  0  0  0  0  0
    4.9450   10.8130   -3.3370 C   0  0  2  0  0  0  0  0  0  0  0  0
    5.5500   12.0270   -3.8030 O   0  0  0  0  0  0  0  0  0  0  0  0
    6.1650   10.8040   -4.2390 C   0  0  0  0  0  0  0  0  0  0  0  0
    6.0460   10.5530   -5.7100 C   0  0  0  0  0  0  0  0  0  0  0  0
    7.5070   10.5520   -3.6250 C   0  0  0  0  0  0  0  0  0  0  0  0
    0.5250   11.2880   -2.7360 C   0  0  1  0  0  0  0  0  0  0  0  0
   -0.8570   11.1200   -2.0510 C   0  0  0  0  0  0  0  0  0  0  0  0
   -0.9760   12.2520   -0.9990 C   0  0  0  0  0  0  0  0  0  0  0  0
    0.1800   13.2220   -1.3380 C   0  0  1  0  0  0  0  0  0  0  0  0
   -0.3580   14.0900   -2.5180 C   0  0  0  0  0  0  0  0  0  0  0  0
    0.7060   14.1090   -0.1620 C   0  0  2  0  0  0  0  0  0  0  0  0
   -0.3250   15.0850    0.4300 C   0  0  0  0  0  0  0  0  0  0  0  0
   -0.3590   16.4370   -0.2020 C   0  0  0  0  0  0  0  0  0  0  0  0
    0.5900   16.9480   -1.0080 C   0  0  0  0  0  0  0  0  0  0  0  0
    1.8910   16.1800   -1.2790 C   0  0  1  0  0  0  0  0  0  0  0  0
    3.0990   17.1410   -1.1330 C   0  0  0  0  0  0  0  0  0  0  0  0
    2.9650   18.3860   -2.0050 C   0  0  0  0  0  0  0  0  0  0  0  0
    1.6900   19.1540   -1.6660 C   0  0  2  0  0  0  0  0  0  0  0  0
    1.8080   19.6830   -0.3420 O   0  0  0  0  0  0  0  0  0  0  0  0
    0.4060   18.2850   -1.7680 C   0  0  0  0  0  0  0  0  0  0  0  0
    0.1120   17.9620   -3.2550 C   0  0  0  0  0  0  0  0  0  0  0  0
   -0.7900   19.1380   -1.2660 C   0  0  0  0  0  0  0  0  0  0  0  0
    2.0820   14.8310   -0.4600 C   0  0  1  0  0  0  0  0  0  0  0  0
    2.7340   15.1360    0.9230 C   0  0  0  0  0  0  0  0  0  0  0  0
    3.0910   13.9010   -1.2320 C   0  0  0  0  0  0  0  0  0  0  0  0
    2.4950   12.9620   -2.2980 C   0  0  0  0  0  0  0  0  0  0  0  0
    1.2960   12.1900   -1.7400 C   0  0  2  0  0  0  0  0  0  0  0  0
    1.8110   11.2910   -0.5650 C   0  0  0  0  0  0  0  0  0  0  0  0
    0.4868    8.9223   -1.3305 H   0  0  0  0  0  0  0  0  0  0  0  0
   -0.6462    8.8312   -2.7214 H   0  0  0  0  0  0  0  0  0  0  0  0
    0.8568    7.8475   -2.7214 H   0  0  0  0  0  0  0  0  0  0  0  0
    1.0862    9.7960   -4.1939 H   0  0  0  0  0  0  0  0  0  0  0  0
    2.7895   10.5470   -1.8220 H   0  0  0  0  0  0  0  0  0  0  0  0
    2.9709    8.9172   -2.6314 H   0  0  0  0  0  0  0  0  0  0  0  0
    3.5867    9.8943   -4.6912 H   0  0  0  0  0  0  0  0  0  0  0  0
    3.1207   11.5503   -4.1178 H   0  0  0  0  0  0  0  0  0  0  0  0
    4.7220   10.2954   -2.3923 H   0  0  0  0  0  0  0  0  0  0  0  0
    5.5803    9.5707   -5.8779 H   0  0  0  0  0  0  0  0  0  0  0  0
    5.4236   11.3367   -6.1665 H   0  0  0  0  0  0  0  0  0  0  0  0
    7.0467   10.5672   -6.1665 H   0  0  0  0  0  0  0  0  0  0  0  0
    7.4176   10.5688   -2.5288 H   0  0  0  0  0  0  0  0  0  0  0  0
    7.8789    9.5683   -3.9476 H   0  0  0  0  0  0  0  0  0  0  0  0
    8.2104   11.3338   -3.9476 H   0  0  0  0  0  0  0  0  0  0  0  0
    0.4957   11.7617   -3.7283 H   0  0  0  0  0  0  0  0  0  0  0  0
   -1.6619   11.2088   -2.7955 H   0  0  0  0  0  0  0  0  0  0  0  0
   -0.9454   10.1308   -1.5781 H   0  0  0  0  0  0  0  0  0  0  0  0
   -1.9475   12.7608   -1.0841 H   0  0  0  0  0  0  0  0  0  0  0  0
   -0.9136   11.8723    0.0315 H   0  0  0  0  0  0  0  0  0  0  0  0
   -0.8975   14.9605   -2.1166 H   0  0  0  0  0  0  0  0  0  0  0  0
    0.4856   14.4338   -3.1346 H   0  0  0  0  0  0  0  0  0  0  0  0
   -1.0412   13.4875   -3.1346 H   0  0  0  0  0  0  0  0  0  0  0  0
    0.9002   13.3661    0.6257 H   0  0  0  0  0  0  0  0  0  0  0  0
   -1.3222   14.6336    0.3209 H   0  0  0  0  0  0  0  0  0  0  0  0
   -0.0263   15.2456    1.4764 H   0  0  0  0  0  0  0  0  0  0  0  0
   -1.2340   17.0693    0.0090 H   0  0  0  0  0  0  0  0  0  0  0  0
    1.8228   15.8215   -2.3167 H   0  0  0  0  0  0  0  0  0  0  0  0
    3.1756   17.4538   -0.0812 H   0  0  0  0  0  0  0  0  0  0  0  0
    3.9983   16.5990   -1.4608 H   0  0  0  0  0  0  0  0  0  0  0  0
    3.8342   19.0388   -1.8366 H   0  0  0  0  0  0  0  0  0  0  0  0
    2.9174   18.0736   -3.0586 H   0  0  0  0  0  0  0  0  0  0  0  0
    1.5838   19.9594   -2.4076 H   0  0  0  0  0  0  0  0  0  0  0  0
    1.4230   19.0340    0.2700 H   0  0  0  0  0  0  0  0  0  0  0  0
   -0.6274   17.1497   -3.3145 H   0  0  0  0  0  0  0  0  0  0  0  0
   -0.2869   18.8581   -3.7529 H   0  0  0  0  0  0  0  0  0  0  0  0
    1.0415   17.6489   -3.7529 H   0  0  0  0  0  0  0  0  0  0  0  0
   -0.7994   19.1447   -0.1661 H   0  0  0  0  0  0  0  0  0  0  0  0
   -0.6875   20.1681   -1.6381 H   0  0  0  0  0  0  0  0  0  0  0  0
   -1.7305   18.7056   -1.6381 H   0  0  0  0  0  0  0  0  0  0  0  0
    2.0541   14.8179    1.7271 H   0  0  0  0  0  0  0  0  0  0  0  0
    3.6845   14.5891    1.0088 H   0  0  0  0  0  0  0  0  0  0  0  0
    2.9234   16.2162    1.0088 H   0  0  0  0  0  0  0  0  0  0  0  0
    3.8247   14.5497   -1.7329 H   0  0  0  0  0  0  0  0  0  0  0  0
    3.5122   13.2345   -0.4649 H   0  0  0  0  0  0  0  0  0  0  0  0
    2.1678   13.5597   -3.1615 H   0  0  0  0  0  0  0  0  0  0  0  0
    3.2674   12.2395   -2.6002 H   0  0  0  0  0  0  0  0  0  0  0  0
    1.5449   11.7556    0.3959 H   0  0  0  0  0  0  0  0  0  0  0  0
    1.3455   10.2966   -0.6329 H   0  0  0  0  0  0  0  0  0  0  0  0
    2.9042   11.1895   -0.6329 H   0  0  0  0  0  0  0  0  0  0  0  0
  1  2  1  0
  2  3  1  0
  3  4  1  0
  4  5  1  0
  5  6  1  0
  6  7  1  0
  7  8  1  0
  7  9  1  0
  2 10  1  0
 10 11  1  0
 11 12  1  0
 12 13  1  0
 13 14  1  6
 13 15  1  0
 15 16  1  0
 16 17  1  0
 17 18  2  0
 18 19  1  0
 19 20  1  0
 20 21  1  0
 21 22  1  0
 22 23  1  0
 22 24  1  0
 24 25  1  0
 24 26  1  0
 19 27  1  0
 27 28  1  1
 27 29  1  0
 29 30  1  0
 30 31  1  0
 31 32  1  1
  7  5  1  0
 31 10  1  0
 31 13  1  0
 27 15  1  0
 24 18  1  0
  1 33  1  0
  1 34  1  0
  1 35  1  0
  2 36  1  6
  3 37  1  0
  3 38  1  0
  4 39  1  0
  4 40  1  0
  5 41  1  1
  8 42  1  0
  8 43  1  0
  8 44  1  0
  9 45  1  0
  9 46  1  0
  9 47  1  0
 10 48  1  6
 11 49  1  0
 11 50  1  0
 12 51  1  0
 12 52  1  0
 14 53  1  0
 14 54  1  0
 14 55  1  0
 15 56  1  1
 16 57  1  0
 16 58  1  0
 17 59  1  0
 19 60  1  6
 20 61  1  0
 20 62  1  0
 21 63  1  0
 21 64  1  0
 22 65  1  6
 23 66  1  0
 25 67  1  0
 25 68  1  0
 25 69  1  0
 26 70  1  0
 26 71  1  0
 26 72  1  0
 28 73  1  0
 28 74  1  0
 28 75  1  0
 29 76  1  0
 29 77  1  0
 30 78  1  0
 30 79  1  0
 32 80  1  0
 32 81  1  0
 32 82  1  0
M  END
>  <meeko>  (7) 
{"is_sidechain": [false], "intermolecular_energy": 2.731, "internal_energy": -0.839}

$$$$
EPH_relaxed_0001_pdb2pqr_Repair_90_r2_0001_out
     RDKit          3D

 82 86  0  0  0  0  0  0  0  0999 V2000
    2.2770   19.0310   -2.2090 C   0  0  0  0  0  0  0  0  0  0  0  0
    1.7610   18.9940   -0.7680 C   0  0  2  0  0  0  0  0  0  0  0  0
    2.8080   19.5130    0.2380 C   0  0  0  0  0  0  0  0  0  0  0  0
    3.4640   18.4070    1.0690 C   0  0  0  0  0  0  0  0  0  0  0  0
    4.7420   18.8710    1.6990 C   0  0  2  0  0  0  0  0  0  0  0  0
    5.2600   18.0000    2.7140 O   0  0  0  0  0  0  0  0  0  0  0  0
    4.8500   19.3070    3.1480 C   0  0  0  0  0  0  0  0  0  0  0  0
    3.6600   19.3010    4.0560 C   0  0  0  0  0  0  0  0  0  0  0  0
    5.9880   20.1940    3.5460 C   0  0  0  0  0  0  0  0  0  0  0  0
    1.3450   17.5750   -0.4010 C   0  0  1  0  0  0  0  0  0  0  0  0
    0.0430   17.5330    0.4420 C   0  0  0  0  0  0  0  0  0  0  0  0
   -0.7250   16.2540    0.0170 C   0  0  0  0  0  0  0  0  0  0  0  0
    0.3020   15.4380   -0.8030 C   0  0  1  0  0  0  0  0  0  0  0  0
    1.1780   14.7090    0.2640 C   0  0  0  0  0  0  0  0  0  0  0  0
   -0.2890   14.4350   -1.8470 C   0  0  2  0  0  0  0  0  0  0  0  0
   -1.1480   13.3050   -1.2540 C   0  0  0  0  0  0  0  0  0  0  0  0
   -0.4060   12.0600   -0.8970 C   0  0  0  0  0  0  0  0  0  0  0  0
    0.8380   11.7470   -1.3050 C   0  0  0  0  0  0  0  0  0  0  0  0
    1.5930   12.6460   -2.2920 C   0  0  1  0  0  0  0  0  0  0  0  0
    2.2330   11.7720   -3.4030 C   0  0  0  0  0  0  0  0  0  0  0  0
    3.1110   10.6590   -2.8390 C   0  0  0  0  0  0  0  0  0  0  0  0
    2.3100    9.7530   -1.9070 C   0  0  2  0  0  0  0  0  0  0  0  0
    1.3310    9.0490   -2.6780 O   0  0  0  0  0  0  0  0  0  0  0  0
    1.6110   10.5240   -0.7530 C   0  0  0  0  0  0  0  0  0  0  0  0
    2.6740   11.0330    0.2510 C   0  0  0  0  0  0  0  0  0  0  0  0
    0.7250    9.5150    0.0270 C   0  0  0  0  0  0  0  0  0  0  0  0
    0.7720   13.8740   -2.8790 C   0  0  1  0  0  0  0  0  0  0  0  0
   -0.0270   13.4260   -4.1400 C   0  0  0  0  0  0  0  0  0  0  0  0
    1.7810   14.9820   -3.3620 C   0  0  0  0  0  0  0  0  0  0  0  0
    2.2340   16.0150   -2.3130 C   0  0  0  0  0  0  0  0  0  0  0  0
    1.0330   16.6020   -1.5660 C   0  0  2  0  0  0  0  0  0  0  0  0
    0.1440   17.3600   -2.6100 C   0  0  0  0  0  0  0  0  0  0  0  0
    3.3742   19.1097   -2.2037 H   0  0  0  0  0  0  0  0  0  0  0  0
    1.9780   18.1091   -2.7293 H   0  0  0  0  0  0  0  0  0  0  0  0
    1.8495   19.9008   -2.7293 H   0  0  0  0  0  0  0  0  0  0  0  0
    0.8897   19.6631   -0.7118 H   0  0  0  0  0  0  0  0  0  0  0  0
    3.5949   20.0406   -0.3209 H   0  0  0  0  0  0  0  0  0  0  0  0
    2.2787   20.1726    0.9414 H   0  0  0  0  0  0  0  0  0  0  0  0
    2.7678   18.0965    1.8621 H   0  0  0  0  0  0  0  0  0  0  0  0
    3.6976   17.5670    0.3983 H   0  0  0  0  0  0  0  0  0  0  0  0
    5.0599   19.3470    0.7596 H   0  0  0  0  0  0  0  0  0  0  0  0
    3.9976   19.3027    5.1029 H   0  0  0  0  0  0  0  0  0  0  0  0
    3.0494   20.1961    3.8662 H   0  0  0  0  0  0  0  0  0  0  0  0
    3.0585   18.3998    3.8662 H   0  0  0  0  0  0  0  0  0  0  0  0
    6.0493   20.2418    4.6433 H   0  0  0  0  0  0  0  0  0  0  0  0
    6.9277   19.7877    3.1436 H   0  0  0  0  0  0  0  0  0  0  0  0
    5.8234   21.2044    3.1436 H   0  0  0  0  0  0  0  0  0  0  0  0
    2.2515   17.2485    0.1298 H   0  0  0  0  0  0  0  0  0  0  0  0
    0.2870   17.4897    1.5137 H   0  0  0  0  0  0  0  0  0  0  0  0
   -0.5658   18.4334    0.2730 H   0  0  0  0  0  0  0  0  0  0  0  0
   -1.0551   15.6875    0.9002 H   0  0  0  0  0  0  0  0  0  0  0  0
   -1.6323   16.4843   -0.5607 H   0  0  0  0  0  0  0  0  0  0  0  0
    0.8389   14.9912    1.2717 H   0  0  0  0  0  0  0  0  0  0  0  0
    1.0816   13.6207    0.1361 H   0  0  0  0  0  0  0  0  0  0  0  0
    2.2307   15.0014    0.1361 H   0  0  0  0  0  0  0  0  0  0  0  0
   -0.9839   15.0700   -2.4161 H   0  0  0  0  0  0  0  0  0  0  0  0
   -1.6295   13.6871   -0.3418 H   0  0  0  0  0  0  0  0  0  0  0  0
   -1.8606   13.0192   -2.0418 H   0  0  0  0  0  0  0  0  0  0  0  0
   -0.9191   11.3373   -0.2455 H   0  0  0  0  0  0  0  0  0  0  0  0
    2.3811   13.1440   -1.7082 H   0  0  0  0  0  0  0  0  0  0  0  0
    1.4293   11.3181   -4.0014 H   0  0  0  0  0  0  0  0  0  0  0  0
    2.8734   12.4251   -4.0141 H   0  0  0  0  0  0  0  0  0  0  0  0
    3.5097   10.0586   -3.6700 H   0  0  0  0  0  0  0  0  0  0  0  0
    3.9320   11.1149   -2.2662 H   0  0  0  0  0  0  0  0  0  0  0  0
    3.0189    9.0575   -1.4340 H   0  0  0  0  0  0  0  0  0  0  0  0
    1.5730    8.1070   -2.6720 H   0  0  0  0  0  0  0  0  0  0  0  0
    2.3192   10.8631    1.2782 H   0  0  0  0  0  0  0  0  0  0  0  0
    3.6169   10.4887    0.0940 H   0  0  0  0  0  0  0  0  0  0  0  0
    2.8411   12.1088    0.0940 H   0  0  0  0  0  0  0  0  0  0  0  0
    0.8595    9.6682    1.1079 H   0  0  0  0  0  0  0  0  0  0  0  0
   -0.3309    9.6737   -0.2372 H   0  0  0  0  0  0  0  0  0  0  0  0
    1.0188    8.4884   -0.2372 H   0  0  0  0  0  0  0  0  0  0  0  0
   -0.9468   12.9102   -3.8271 H   0  0  0  0  0  0  0  0  0  0  0  0
   -0.2883   14.3092   -4.7414 H   0  0  0  0  0  0  0  0  0  0  0  0
    0.5902   12.7424   -4.7414 H   0  0  0  0  0  0  0  0  0  0  0  0
    2.6807   14.4720   -3.7367 H   0  0  0  0  0  0  0  0  0  0  0  0
    1.2309   15.5620   -4.1176 H   0  0  0  0  0  0  0  0  0  0  0  0
    2.9023   15.5242   -1.5902 H   0  0  0  0  0  0  0  0  0  0  0  0
    2.7585   16.8321   -2.8298 H   0  0  0  0  0  0  0  0  0  0  0  0
   -0.5899   17.9858   -2.0810 H   0  0  0  0  0  0  0  0  0  0  0  0
    0.7816   17.9967   -3.2410 H   0  0  0  0  0  0  0  0  0  0  0  0
   -0.3839   16.6298   -3.2410 H   0  0  0  0  0  0  0  0  0  0  0  0
  1  2  1  0
  2  3  1  0
  3  4  1  0
  4  5  1  0
  5  6  1  0
  6  7  1  0
  7  8  1  0
  7  9  1  0
  2 10  1  0
 10 11  1  0
 11 12  1  0
 12 13  1  0
 13 14  1  1
 13 15  1  0
 15 16  1  0
 16 17  1  0
 17 18  2  0
 18 19  1  0
 19 20  1  0
 20 21  1  0
 21 22  1  0
 22 23  1  0
 22 24  1  0
 24 25  1  0
 24 26  1  0
 19 27  1  0
 27 28  1  6
 27 29  1  0
 29 30  1  0
 30 31  1  0
 31 32  1  6
  7  5  1  0
 31 10  1  0
 31 13  1  0
 27 15  1  0
 24 18  1  0
  1 33  1  0
  1 34  1  0
  1 35  1  0
  2 36  1  6
  3 37  1  0
  3 38  1  0
  4 39  1  0
  4 40  1  0
  5 41  1  6
  8 42  1  0
  8 43  1  0
  8 44  1  0
  9 45  1  0
  9 46  1  0
  9 47  1  0
 10 48  1  1
 11 49  1  0
 11 50  1  0
 12 51  1  0
 12 52  1  0
 14 53  1  0
 14 54  1  0
 14 55  1  0
 15 56  1  6
 16 57  1  0
 16 58  1  0
 17 59  1  0
 19 60  1  1
 20 61  1  0
 20 62  1  0
 21 63  1  0
 21 64  1  0
 22 65  1  1
 23 66  1  0
 25 67  1  0
 25 68  1  0
 25 69  1  0
 26 70  1  0
 26 71  1  0
 26 72  1  0
 28 73  1  0
 28 74  1  0
 28 75  1  0
 29 76  1  0
 29 77  1  0
 30 78  1  0
 30 79  1  0
 32 80  1  0
 32 81  1  0
 32 82  1  0
M  END
>  <meeko>  (8) 
{"is_sidechain": [false], "intermolecular_energy": 2.731, "internal_energy": -0.839}

$$$$
EPH_relaxed_0001_pdb2pqr_Repair_90_r2_0001_out
     RDKit          3D

 82 86  0  0  0  0  0  0  0  0999 V2000
    0.8600   11.0360   -4.6620 C   0  0  0  0  0  0  0  0  0  0  0  0
    1.0320   10.4540   -3.2560 C   0  0  2  0  0  0  0  0  0  0  0  0
   -0.0770    9.4410   -2.9070 C   0  0  0  0  0  0  0  0  0  0  0  0
    0.0760    8.8150   -1.5180 C   0  0  0  0  0  0  0  0  0  0  0  0
   -1.2530    8.5640   -0.8730 C   0  0  2  0  0  0  0  0  0  0  0  0
   -2.3790    8.7000   -1.7500 O   0  0  0  0  0  0  0  0  0  0  0  0
   -2.3010    9.6430   -0.6690 C   0  0  0  0  0  0  0  0  0  0  0  0
   -2.0640   11.0540   -1.1080 C   0  0  0  0  0  0  0  0  0  0  0  0
   -3.3420    9.4380    0.3860 C   0  0  0  0  0  0  0  0  0  0  0  0
    1.0520   11.5790   -2.2280 C   0  0  1  0  0  0  0  0  0  0  0  0
    2.0710   11.3250   -1.0840 C   0  0  0  0  0  0  0  0  0  0  0  0
    2.6480   12.7070   -0.6840 C   0  0  0  0  0  0  0  0  0  0  0  0
    1.7140   13.7320   -1.3670 C   0  0  1  0  0  0  0  0  0  0  0  0
    0.4750   13.8370   -0.4240 C   0  0  0  0  0  0  0  0  0  0  0  0
    2.3320   15.1370   -1.6660 C   0  0  2  0  0  0  0  0  0  0  0  0
    2.7750   15.9330   -0.4260 C   0  0  0  0  0  0  0  0  0  0  0  0
    1.7340   16.8270    0.1640 C   0  0  0  0  0  0  0  0  0  0  0  0
    0.5930   17.2030   -0.4420 C   0  0  0  0  0  0  0  0  0  0  0  0
    0.3000   16.7990   -1.8920 C   0  0  1  0  0  0  0  0  0  0  0  0
   -0.2070   18.0340   -2.6820 C   0  0  0  0  0  0  0  0  0  0  0  0
   -1.4010   18.7070   -2.0120 C   0  0  0  0  0  0  0  0  0  0  0  0
   -1.0530   19.1470   -0.5920 C   0  0  2  0  0  0  0  0  0  0  0  0
   -0.0750   20.1890   -0.6590 O   0  0  0  0  0  0  0  0  0  0  0  0
   -0.5210   17.9870    0.2960 C   0  0  0  0  0  0  0  0  0  0  0  0
   -1.6750   17.0060    0.6170 C   0  0  0  0  0  0  0  0  0  0  0  0
   -0.0740   18.5920    1.6540 C   0  0  0  0  0  0  0  0  0  0  0  0
    1.4680   16.0300   -2.6470 C   0  0  1  0  0  0  0  0  0  0  0  0
    2.4480   17.0550   -3.2960 C   0  0  0  0  0  0  0  0  0  0  0  0
    0.8520   15.1940   -3.8310 C   0  0  0  0  0  0  0  0  0  0  0  0
    0.3690   13.7690   -3.4980 C   0  0  0  0  0  0  0  0  0  0  0  0
    1.4420   12.9930   -2.7280 C   0  0  2  0  0  0  0  0  0  0  0  0
    2.6930   12.8530   -3.6600 C   0  0  0  0  0  0  0  0  0  0  0  0
    0.5490   12.0885   -4.5876 H   0  0  0  0  0  0  0  0  0  0  0  0
    1.8151   10.9733   -5.2041 H   0  0  0  0  0  0  0  0  0  0  0  0
    0.0924   10.4642   -5.2041 H   0  0  0  0  0  0  0  0  0  0  0  0
    1.9901    9.9140   -3.2358 H   0  0  0  0  0  0  0  0  0  0  0  0
   -1.0464    9.9590   -2.9496 H   0  0  0  0  0  0  0  0  0  0  0  0
   -0.0062    8.6222   -3.6382 H   0  0  0  0  0  0  0  0  0  0  0  0
    0.6113    7.8589   -1.6150 H   0  0  0  0  0  0  0  0  0  0  0  0
    0.6366    9.5186   -0.8850 H   0  0  0  0  0  0  0  0  0  0  0  0
   -0.8079    7.8284   -0.1869 H   0  0  0  0  0  0  0  0  0  0  0  0
   -1.9555   11.6997   -0.2241 H   0  0  0  0  0  0  0  0  0  0  0  0
   -1.1454   11.1009   -1.7113 H   0  0  0  0  0  0  0  0  0  0  0  0
   -2.9169   11.3985   -1.7113 H   0  0  0  0  0  0  0  0  0  0  0  0
   -2.8796    9.5291    1.3799 H   0  0  0  0  0  0  0  0  0  0  0  0
   -4.1294   10.1983    0.2768 H   0  0  0  0  0  0  0  0  0  0  0  0
   -3.7823    8.4359    0.2768 H   0  0  0  0  0  0  0  0  0  0  0  0
   -0.0041   11.5663   -1.9205 H   0  0  0  0  0  0  0  0  0  0  0  0
    1.5665   10.8616   -0.2233 H   0  0  0  0  0  0  0  0  0  0  0  0
    2.8699   10.6431   -1.4108 H   0  0  0  0  0  0  0  0  0  0  0  0
    2.6307   12.8336    0.4086 H   0  0  0  0  0  0  0  0  0  0  0  0
    3.6966   12.8268   -0.9940 H   0  0  0  0  0  0  0  0  0  0  0  0
    0.8083   13.8088    0.6239 H   0  0  0  0  0  0  0  0  0  0  0  0
   -0.0525   14.7831   -0.6156 H   0  0  0  0  0  0  0  0  0  0  0  0
   -0.2042   12.9932   -0.6156 H   0  0  0  0  0  0  0  0  0  0  0  0
    3.2575   14.8777   -2.2009 H   0  0  0  0  0  0  0  0  0  0  0  0
    3.0833   15.2139    0.3472 H   0  0  0  0  0  0  0  0  0  0  0  0
    3.5877   16.5934   -0.7628 H   0  0  0  0  0  0  0  0  0  0  0  0
    1.9154   17.2101    1.1790 H   0  0  0  0  0  0  0  0  0  0  0  0
   -0.4923   16.0377   -1.8407 H   0  0  0  0  0  0  0  0  0  0  0  0
    0.6121   18.7642   -2.7587 H   0  0  0  0  0  0  0  0  0  0  0  0
   -0.5328   17.6857   -3.6732 H   0  0  0  0  0  0  0  0  0  0  0  0
   -1.6942   19.5889   -2.6005 H   0  0  0  0  0  0  0  0  0  0  0  0
   -2.2293   17.9848   -1.9629 H   0  0  0  0  0  0  0  0  0  0  0  0
   -1.9808   19.5028   -0.1202 H   0  0  0  0  0  0  0  0  0  0  0  0
   -0.4910   20.9560   -1.0870 H   0  0  0  0  0  0  0  0  0  0  0  0
   -1.7845   16.9129    1.7076 H   0  0  0  0  0  0  0  0  0  0  0  0
   -2.6119   17.3883    0.1857 H   0  0  0  0  0  0  0  0  0  0  0  0
   -1.4485   16.0197    0.1857 H   0  0  0  0  0  0  0  0  0  0  0  0
   -0.5075   18.0052    2.4773 H   0  0  0  0  0  0  0  0  0  0  0  0
    1.0235   18.5660    1.7235 H   0  0  0  0  0  0  0  0  0  0  0  0
   -0.4212   19.6334    1.7235 H   0  0  0  0  0  0  0  0  0  0  0  0
    2.9767   17.6079   -2.5056 H   0  0  0  0  0  0  0  0  0  0  0  0
    3.1785   16.5193   -3.9201 H   0  0  0  0  0  0  0  0  0  0  0  0
    1.8801   17.7607   -3.9201 H   0  0  0  0  0  0  0  0  0  0  0  0
   -0.0101   15.7549   -4.2211 H   0  0  0  0  0  0  0  0  0  0  0  0
    1.6761   15.0586   -4.5469 H   0  0  0  0  0  0  0  0  0  0  0  0
   -0.5408   13.8318   -2.8829 H   0  0  0  0  0  0  0  0  0  0  0  0
    0.1610   13.2399   -4.4397 H   0  0  0  0  0  0  0  0  0  0  0  0
    3.5991   12.7516   -3.0447 H   0  0  0  0  0  0  0  0  0  0  0  0
    2.5793   11.9620   -4.2949 H   0  0  0  0  0  0  0  0  0  0  0  0
    2.7791   13.7471   -4.2949 H   0  0  0  0  0  0  0  0  0  0  0  0
  1  2  1  0
  2  3  1  0
  3  4  1  0
  4  5  1  0
  5  6  1  0
  6  7  1  0
  7  8  1  0
  7  9  1  0
  2 10  1  0
 10 11  1  0
 11 12  1  0
 12 13  1  0
 13 14  1  1
 13 15  1  0
 15 16  1  0
 16 17  1  0
 17 18  2  0
 18 19  1  0
 19 20  1  0
 20 21  1  0
 21 22  1  0
 22 23  1  0
 22 24  1  0
 24 25  1  0
 24 26  1  0
 19 27  1  0
 27 28  1  6
 27 29  1  0
 29 30  1  0
 30 31  1  0
 31 32  1  6
  7  5  1  0
 31 10  1  0
 31 13  1  0
 27 15  1  0
 24 18  1  0
  1 33  1  0
  1 34  1  0
  1 35  1  0
  2 36  1  6
  3 37  1  0
  3 38  1  0
  4 39  1  0
  4 40  1  0
  5 41  1  1
  8 42  1  0
  8 43  1  0
  8 44  1  0
  9 45  1  0
  9 46  1  0
  9 47  1  0
 10 48  1  1
 11 49  1  0
 11 50  1  0
 12 51  1  0
 12 52  1  0
 14 53  1  0
 14 54  1  0
 14 55  1  0
 15 56  1  6
 16 57  1  0
 16 58  1  0
 17 59  1  0
 19 60  1  1
 20 61  1  0
 20 62  1  0
 21 63  1  0
 21 64  1  0
 22 65  1  1
 23 66  1  0
 25 67  1  0
 25 68  1  0
 25 69  1  0
 26 70  1  0
 26 71  1  0
 26 72  1  0
 28 73  1  0
 28 74  1  0
 28 75  1  0
 29 76  1  0
 29 77  1  0
 30 78  1  0
 30 79  1  0
 32 80  1  0
 32 81  1  0
 32 82  1  0
M  END
>  <meeko>  (9) 
{"is_sidechain": [false], "intermolecular_energy": 2.731, "internal_energy": -0.839}

$$$$
EPH_relaxed_0001_pdb2pqr_Repair_90_r2_0001_out
     RDKit          3D

 82 86  0  0  0  0  0  0  0  0999 V2000
    3.5270   18.5300   -2.5080 C   0  0  0  0  0  0  0  0  0  0  0  0
    2.2440   17.7230   -2.7250 C   0  0  2  0  0  0  0  0  0  0  0  0
    0.9860   18.5060   -2.2990 C   0  0  0  0  0  0  0  0  0  0  0  0
    1.2130   19.4280   -1.0980 C   0  0  0  0  0  0  0  0  0  0  0  0
   -0.0570   20.0960   -0.6640 C   0  0  2  0  0  0  0  0  0  0  0  0
   -0.2260   20.1940    0.7560 O   0  0  0  0  0  0  0  0  0  0  0  0
   -1.1770   19.3720    0.0600 C   0  0  0  0  0  0  0  0  0  0  0  0
   -1.0800   17.9160    0.3910 C   0  0  0  0  0  0  0  0  0  0  0  0
   -2.5550   19.9550    0.0100 C   0  0  0  0  0  0  0  0  0  0  0  0
    2.3220   16.4070   -1.9610 C   0  0  1  0  0  0  0  0  0  0  0  0
    2.6630   16.6060   -0.4610 C   0  0  0  0  0  0  0  0  0  0  0  0
    1.8920   15.5120    0.3220 C   0  0  0  0  0  0  0  0  0  0  0  0
    1.4050   14.5250   -0.7640 C   0  0  1  0  0  0  0  0  0  0  0  0
    2.6400   13.6180   -1.0640 C   0  0  0  0  0  0  0  0  0  0  0  0
    0.1390   13.6780   -0.4110 C   0  0  2  0  0  0  0  0  0  0  0  0
    0.3030   12.7290    0.7890 C   0  0  0  0  0  0  0  0  0  0  0  0
    0.7830   11.3550    0.4540 C   0  0  0  0  0  0  0  0  0  0  0  0
    0.8000   10.8110   -0.7770 C   0  0  0  0  0  0  0  0  0  0  0  0
    0.2110   11.5620   -1.9780 C   0  0  1  0  0  0  0  0  0  0  0  0
   -0.6850   10.6000   -2.8020 C   0  0  0  0  0  0  0  0  0  0  0  0
    0.0470    9.3260   -3.2120 C   0  0  0  0  0  0  0  0  0  0  0  0
    0.5660    8.5770   -1.9870 C   0  0  2  0  0  0  0  0  0  0  0  0
   -0.5510    8.0950   -1.2340 O   0  0  0  0  0  0  0  0  0  0  0  0
    1.4740    9.4490   -1.0760 C   0  0  0  0  0  0  0  0  0  0  0  0
    2.8220    9.7210   -1.7900 C   0  0  0  0  0  0  0  0  0  0  0  0
    1.8140    8.6210    0.1930 C   0  0  0  0  0  0  0  0  0  0  0  0
   -0.5120   12.9390   -1.6490 C   0  0  1  0  0  0  0  0  0  0  0  0
   -2.0040   12.6800   -1.2790 C   0  0  0  0  0  0  0  0  0  0  0  0
   -0.5240   13.8350   -2.9430 C   0  0  0  0  0  0  0  0  0  0  0  0
    0.7020   14.7390   -3.1740 C   0  0  0  0  0  0  0  0  0  0  0  0
    1.0420   15.5360   -1.9110 C   0  0  2  0  0  0  0  0  0  0  0  0
   -0.1730   16.4740   -1.5970 C   0  0  0  0  0  0  0  0  0  0  0  0
    3.7098   18.6450   -1.4294 H   0  0  0  0  0  0  0  0  0  0  0  0
    4.3746   18.0021   -2.9693 H   0  0  0  0  0  0  0  0  0  0  0  0
    3.4183   19.5226   -2.9693 H   0  0  0  0  0  0  0  0  0  0  0  0
    2.1582   17.5222   -3.8031 H   0  0  0  0  0  0  0  0  0  0  0  0
    0.6538   19.1191   -3.1497 H   0  0  0  0  0  0  0  0  0  0  0  0
    0.2321   17.7640   -1.9970 H   0  0  0  0  0  0  0  0  0  0  0  0
    1.6067   18.8327   -0.2610 H   0  0  0  0  0  0  0  0  0  0  0  0
    1.9272   20.2098   -1.3960 H   0  0  0  0  0  0  0  0  0  0  0  0
   -0.0503   20.7417   -1.5545 H   0  0  0  0  0  0  0  0  0  0  0  0
   -1.0715   17.7881    1.4835 H   0  0  0  0  0  0  0  0  0  0  0  0
   -1.9448   17.3850   -0.0336 H   0  0  0  0  0  0  0  0  0  0  0  0
   -0.1524   17.5045   -0.0336 H   0  0  0  0  0  0  0  0  0  0  0  0
   -2.9244   20.1113    1.0343 H   0  0  0  0  0  0  0  0  0  0  0  0
   -2.5266   20.9182   -0.5205 H   0  0  0  0  0  0  0  0  0  0  0  0
   -3.2265   19.2639   -0.5205 H   0  0  0  0  0  0  0  0  0  0  0  0
    3.0998   15.8988   -2.5499 H   0  0  0  0  0  0  0  0  0  0  0  0
    3.7455   16.4947   -0.3006 H   0  0  0  0  0  0  0  0  0  0  0  0
    2.3757   17.6118   -0.1207 H   0  0  0  0  0  0  0  0  0  0  0  0
    2.5565   15.0053    1.0374 H   0  0  0  0  0  0  0  0  0  0  0  0
    1.0610   15.9278    0.9107 H   0  0  0  0  0  0  0  0  0  0  0  0
    3.0906   13.2871   -0.1167 H   0  0  0  0  0  0  0  0  0  0  0  0
    2.3181   12.7401   -1.6433 H   0  0  0  0  0  0  0  0  0  0  0  0
    3.3814   14.1879   -1.6433 H   0  0  0  0  0  0  0  0  0  0  0  0
   -0.5772   14.4474   -0.0868 H   0  0  0  0  0  0  0  0  0  0  0  0
    1.0255   13.1815    1.4841 H   0  0  0  0  0  0  0  0  0  0  0  0
   -0.7021   12.6043    1.2183 H   0  0  0  0  0  0  0  0  0  0  0  0
    1.1540   10.7351    1.2835 H   0  0  0  0  0  0  0  0  0  0  0  0
    1.0695   11.8843   -2.5855 H   0  0  0  0  0  0  0  0  0  0  0  0
   -1.5590   10.3243   -2.1937 H   0  0  0  0  0  0  0  0  0  0  0  0
   -0.9815   11.1255   -3.7218 H   0  0  0  0  0  0  0  0  0  0  0  0
   -0.6458    8.6749   -3.7653 H   0  0  0  0  0  0  0  0  0  0  0  0
    0.9039    9.6013   -3.8444 H   0  0  0  0  0  0  0  0  0  0  0  0
    1.1897    7.7458   -2.3477 H   0  0  0  0  0  0  0  0  0  0  0  0
   -1.1390    7.6250   -1.8480 H   0  0  0  0  0  0  0  0  0  0  0  0
    3.6094    9.8799   -1.0385 H   0  0  0  0  0  0  0  0  0  0  0  0
    3.0844    8.8577   -2.4192 H   0  0  0  0  0  0  0  0  0  0  0  0
    2.7291   10.6185   -2.4192 H   0  0  0  0  0  0  0  0  0  0  0  0
    1.5724    9.2095    1.0904 H   0  0  0  0  0  0  0  0  0  0  0  0
    1.2244    7.6924    0.1937 H   0  0  0  0  0  0  0  0  0  0  0  0
    2.8861    8.3747    0.1937 H   0  0  0  0  0  0  0  0  0  0  0  0
   -2.1124   12.6612   -0.1845 H   0  0  0  0  0  0  0  0  0  0  0  0
   -2.6298   13.4829   -1.6957 H   0  0  0  0  0  0  0  0  0  0  0  0
   -2.3226   11.7131   -1.6957 H   0  0  0  0  0  0  0  0  0  0  0  0
   -0.6114   13.1648   -3.8109 H   0  0  0  0  0  0  0  0  0  0  0  0
   -1.3691   14.5258   -2.8066 H   0  0  0  0  0  0  0  0  0  0  0  0
    1.5642   14.1129   -3.4473 H   0  0  0  0  0  0  0  0  0  0  0  0
    0.4681   15.4469   -3.9828 H   0  0  0  0  0  0  0  0  0  0  0  0
   -0.2928   16.5665   -0.5075 H   0  0  0  0  0  0  0  0  0  0  0  0
    0.0092   17.4680   -2.0315 H   0  0  0  0  0  0  0  0  0  0  0  0
   -1.0885   16.0461   -2.0315 H   0  0  0  0  0  0  0  0  0  0  0  0
  1  2  1  0
  2  3  1  0
  3  4  1  0
  4  5  1  0
  5  6  1  0
  6  7  1  0
  7  8  1  0
  7  9  1  0
  2 10  1  0
 10 11  1  0
 11 12  1  0
 12 13  1  0
 13 14  1  6
 13 15  1  0
 15 16  1  0
 16 17  1  0
 17 18  2  0
 18 19  1  0
 19 20  1  0
 20 21  1  0
 21 22  1  0
 22 23  1  0
 22 24  1  0
 24 25  1  0
 24 26  1  0
 19 27  1  0
 27 28  1  1
 27 29  1  0
 29 30  1  0
 30 31  1  0
 31 32  1  1
  7  5  1  0
 31 10  1  0
 31 13  1  0
 27 15  1  0
 24 18  1  0
  1 33  1  0
  1 34  1  0
  1 35  1  0
  2 36  1  6
  3 37  1  0
  3 38  1  0
  4 39  1  0
  4 40  1  0
  5 41  1  6
  8 42  1  0
  8 43  1  0
  8 44  1  0
  9 45  1  0
  9 46  1  0
  9 47  1  0
 10 48  1  6
 11 49  1  0
 11 50  1  0
 12 51  1  0
 12 52  1  0
 14 53  1  0
 14 54  1  0
 14 55  1  0
 15 56  1  1
 16 57  1  0
 16 58  1  0
 17 59  1  0
 19 60  1  6
 20 61  1  0
 20 62  1  0
 21 63  1  0
 21 64  1  0
 22 65  1  6
 23 66  1  0
 25 67  1  0
 25 68  1  0
 25 69  1  0
 26 70  1  0
 26 71  1  0
 26 72  1  0
 28 73  1  0
 28 74  1  0
 28 75  1  0
 29 76  1  0
 29 77  1  0
 30 78  1  0
 30 79  1  0
 32 80  1  0
 32 81  1  0
 32 82  1  0
M  END
>  <meeko>  (10) 
{"is_sidechain": [false], "intermolecular_energy": 2.731, "internal_energy": -0.839}

$$$$
EPH_relaxed_0001_pdb2pqr_Repair_90_r2_0001_out
     RDKit          3D

 82 86  0  0  0  0  0  0  0  0999 V2000
   -0.9220   16.4030   -5.8740 C   0  0  0  0  0  0  0  0  0  0  0  0
    0.1770   15.7060   -6.6810 C   0  0  2  0  0  0  0  0  0  0  0  0
   -0.2220   15.5140   -8.1580 C   0  0  0  0  0  0  0  0  0  0  0  0
    0.4380   16.5170   -9.1090 C   0  0  0  0  0  0  0  0  0  0  0  0
    1.8440   16.1210   -9.4430 C   0  0  2  0  0  0  0  0  0  0  0  0
    2.3500   16.6790  -10.6630 O   0  0  0  0  0  0  0  0  0  0  0  0
    2.2080   15.2500  -10.6310 C   0  0  0  0  0  0  0  0  0  0  0  0
    1.1610   14.7210  -11.5610 C   0  0  0  0  0  0  0  0  0  0  0  0
    3.5120   14.5150  -10.6070 C   0  0  0  0  0  0  0  0  0  0  0  0
    0.5080   14.3570   -6.0520 C   0  0  1  0  0  0  0  0  0  0  0  0
    1.7300   13.6710   -6.7190 C   0  0  0  0  0  0  0  0  0  0  0  0
    2.4840   12.9130   -5.5970 C   0  0  0  0  0  0  0  0  0  0  0  0
    1.5040   12.9100   -4.4010 C   0  0  1  0  0  0  0  0  0  0  0  0
    0.5130   11.7410   -4.6980 C   0  0  0  0  0  0  0  0  0  0  0  0
    2.1460   12.7760   -2.9810 C   0  0  2  0  0  0  0  0  0  0  0  0
    2.9090   11.4640   -2.7310 C   0  0  0  0  0  0  0  0  0  0  0  0
    2.0940   10.3510   -2.1600 C   0  0  0  0  0  0  0  0  0  0  0  0
    0.8800   10.4810   -1.5950 C   0  0  0  0  0  0  0  0  0  0  0  0
    0.2460   11.8650   -1.4000 C   0  0  1  0  0  0  0  0  0  0  0  0
   -0.3270   11.9740    0.0380 C   0  0  0  0  0  0  0  0  0  0  0  0
   -1.2900   10.8390    0.3720 C   0  0  0  0  0  0  0  0  0  0  0  0
   -0.6060    9.4820    0.2230 C   0  0  2  0  0  0  0  0  0  0  0  0
    0.4100    9.3660    1.2240 O   0  0  0  0  0  0  0  0  0  0  0  0
    0.0180    9.2620   -1.1840 C   0  0  0  0  0  0  0  0  0  0  0  0
   -1.1090    9.0870   -2.2320 C   0  0  0  0  0  0  0  0  0  0  0  0
    0.7960    7.9190   -1.1550 C   0  0  0  0  0  0  0  0  0  0  0  0
    1.1580   13.1060   -1.7900 C   0  0  1  0  0  0  0  0  0  0  0  0
    2.0470   13.5160   -0.5750 C   0  0  0  0  0  0  0  0  0  0  0  0
    0.2360   14.3440   -2.1020 C   0  0  0  0  0  0  0  0  0  0  0  0
   -0.2690   14.4860   -3.5510 C   0  0  0  0  0  0  0  0  0  0  0  0
    0.8840   14.3470   -4.5490 C   0  0  2  0  0  0  0  0  0  0  0  0
    1.8860   15.5230   -4.2900 C   0  0  0  0  0  0  0  0  0  0  0  0
   -0.7236   16.2772   -4.7994 H   0  0  0  0  0  0  0  0  0  0  0  0
   -0.9349   17.4747   -6.1215 H   0  0  0  0  0  0  0  0  0  0  0  0
   -1.8970   15.9578   -6.1215 H   0  0  0  0  0  0  0  0  0  0  0  0
    1.0654   16.3542   -6.6595 H   0  0  0  0  0  0  0  0  0  0  0  0
    0.0686   14.4991   -8.4672 H   0  0  0  0  0  0  0  0  0  0  0  0
   -1.3080   15.6771   -8.2216 H   0  0  0  0  0  0  0  0  0  0  0  0
   -0.1487   16.5666  -10.0381 H   0  0  0  0  0  0  0  0  0  0  0  0
    0.4671   17.4962   -8.6086 H   0  0  0  0  0  0  0  0  0  0  0  0
    2.1053   16.0609   -8.3762 H   0  0  0  0  0  0  0  0  0  0  0  0
    0.3295   14.3009  -10.9761 H   0  0  0  0  0  0  0  0  0  0  0  0
    0.7871   15.5383  -12.1951 H   0  0  0  0  0  0  0  0  0  0  0  0
    1.5971   13.9351  -12.1951 H   0  0  0  0  0  0  0  0  0  0  0  0
    3.8169   14.3431   -9.5642 H   0  0  0  0  0  0  0  0  0  0  0  0
    3.3976   13.5485  -11.1196 H   0  0  0  0  0  0  0  0  0  0  0  0
    4.2796   15.1133  -11.1196 H   0  0  0  0  0  0  0  0  0  0  0  0
   -0.4521   13.8418   -6.2029 H   0  0  0  0  0  0  0  0  0  0  0  0
    1.3929   12.9653   -7.4925 H   0  0  0  0  0  0  0  0  0  0  0  0
    2.3832   14.4116   -7.2035 H   0  0  0  0  0  0  0  0  0  0  0  0
    2.7161   11.8847   -5.9113 H   0  0  0  0  0  0  0  0  0  0  0  0
    3.4451   13.3861   -5.3473 H   0  0  0  0  0  0  0  0  0  0  0  0
    0.1526   11.3159   -3.7496 H   0  0  0  0  0  0  0  0  0  0  0  0
   -0.3411   12.1225   -5.2768 H   0  0  0  0  0  0  0  0  0  0  0  0
    1.0291   10.9609   -5.2768 H   0  0  0  0  0  0  0  0  0  0  0  0
    2.9096   13.5677   -2.9915 H   0  0  0  0  0  0  0  0  0  0  0  0
    3.3236   11.1236   -3.6914 H   0  0  0  0  0  0  0  0  0  0  0  0
    3.6760   11.6969   -1.9777 H   0  0  0  0  0  0  0  0  0  0  0  0
    2.5225    9.3389   -2.2051 H   0  0  0  0  0  0  0  0  0  0  0  0
   -0.5714   11.9317   -2.1331 H   0  0  0  0  0  0  0  0  0  0  0  0
    0.5084   11.9495    0.7532 H   0  0  0  0  0  0  0  0  0  0  0  0
   -0.8882   12.9178    0.1029 H   0  0  0  0  0  0  0  0  0  0  0  0
   -1.6375   10.9551    1.4092 H   0  0  0  0  0  0  0  0  0  0  0  0
   -2.1397   10.8826   -0.3253 H   0  0  0  0  0  0  0  0  0  0  0  0
   -1.3771    8.7076    0.3484 H   0  0  0  0  0  0  0  0  0  0  0  0
    1.2090    9.8030    0.8840 H   0  0  0  0  0  0  0  0  0  0  0  0
   -2.0692    8.9379   -1.7164 H   0  0  0  0  0  0  0  0  0  0  0  0
   -1.1669    9.9869   -2.8619 H   0  0  0  0  0  0  0  0  0  0  0  0
   -0.8913    8.2119   -2.8619 H   0  0  0  0  0  0  0  0  0  0  0  0
    0.9701    7.6185   -0.1112 H   0  0  0  0  0  0  0  0  0  0  0  0
    0.2075    7.1432   -1.6666 H   0  0  0  0  0  0  0  0  0  0  0  0
    1.7618    8.0436   -1.6666 H   0  0  0  0  0  0  0  0  0  0  0  0
    1.5226   13.2741    0.3612 H   0  0  0  0  0  0  0  0  0  0  0  0
    2.9987   12.9659   -0.6148 H   0  0  0  0  0  0  0  0  0  0  0  0
    2.2464   14.5970   -0.6148 H   0  0  0  0  0  0  0  0  0  0  0  0
   -0.6454   14.2759   -1.4475 H   0  0  0  0  0  0  0  0  0  0  0  0
    0.8703   15.2261   -1.9303 H   0  0  0  0  0  0  0  0  0  0  0  0
   -1.0144   13.7021   -3.7508 H   0  0  0  0  0  0  0  0  0  0  0  0
   -0.7178   15.4832   -3.6700 H   0  0  0  0  0  0  0  0  0  0  0  0
    2.0093   15.6677   -3.2066 H   0  0  0  0  0  0  0  0  0  0  0  0
    2.8598   15.2810   -4.7408 H   0  0  0  0  0  0  0  0  0  0  0  0
    1.4925   16.4460   -4.7408 H   0  0  0  0  0  0  0  0  0  0  0  0
  1  2  1  0
  2  3  1  0
  3  4  1  0
  4  5  1  0
  5  6  1  0
  6  7  1  0
  7  8  1  0
  7  9  1  0
  2 10  1  0
 10 11  1  0
 11 12  1  0
 12 13  1  0
 13 14  1  6
 13 15  1  0
 15 16  1  0
 16 17  1  0
 17 18  2  0
 18 19  1  0
 19 20  1  0
 20 21  1  0
 21 22  1  0
 22 23  1  0
 22 24  1  0
 24 25  1  0
 24 26  1  0
 19 27  1  0
 27 28  1  1
 27 29  1  0
 29 30  1  0
 30 31  1  0
 31 32  1  6
  7  5  1  0
 31 10  1  0
 31 13  1  0
 27 15  1  0
 24 18  1  0
  1 33  1  0
  1 34  1  0
  1 35  1  0
  2 36  1  6
  3 37  1  0
  3 38  1  0
  4 39  1  0
  4 40  1  0
  5 41  1  1
  8 42  1  0
  8 43  1  0
  8 44  1  0
  9 45  1  0
  9 46  1  0
  9 47  1  0
 10 48  1  1
 11 49  1  0
 11 50  1  0
 12 51  1  0
 12 52  1  0
 14 53  1  0
 14 54  1  0
 14 55  1  0
 15 56  1  6
 16 57  1  0
 16 58  1  0
 17 59  1  0
 19 60  1  6
 20 61  1  0
 20 62  1  0
 21 63  1  0
 21 64  1  0
 22 65  1  1
 23 66  1  0
 25 67  1  0
 25 68  1  0
 25 69  1  0
 26 70  1  0
 26 71  1  0
 26 72  1  0
 28 73  1  0
 28 74  1  0
 28 75  1  0
 29 76  1  0
 29 77  1  0
 30 78  1  0
 30 79  1  0
 32 80  1  0
 32 81  1  0
 32 82  1  0
M  END
>  <meeko>  (11) 
{"is_sidechain": [false], "intermolecular_energy": 2.731, "internal_energy": -0.839}

$$$$
EPH_relaxed_0001_pdb2pqr_Repair_90_r2_0001_out
     RDKit          3D

 82 86  0  0  0  0  0  0  0  0999 V2000
   -0.0490    9.3370   -2.3110 C   0  0  0  0  0  0  0  0  0  0  0  0
    1.0440   10.3130   -2.7540 C   0  0  2  0  0  0  0  0  0  0  0  0
    2.4320    9.6450   -2.8110 C   0  0  0  0  0  0  0  0  0  0  0  0
    3.3790   10.2770   -3.8350 C   0  0  0  0  0  0  0  0  0  0  0  0
    4.7630   10.4400   -3.2830 C   0  0  2  0  0  0  0  0  0  0  0  0
    5.2970   11.7660   -3.3890 O   0  0  0  0  0  0  0  0  0  0  0  0
    5.9750   10.7480   -4.1420 C   0  0  0  0  0  0  0  0  0  0  0  0
    5.8590   10.9100   -5.6260 C   0  0  0  0  0  0  0  0  0  0  0  0
    7.3330   10.4090   -3.6120 C   0  0  0  0  0  0  0  0  0  0  0  0
    1.0810   11.5130   -1.8150 C   0  0  1  0  0  0  0  0  0  0  0  0
    2.1500   11.3640   -0.6990 C   0  0  0  0  0  0  0  0  0  0  0  0
    2.7130   12.7820   -0.4270 C   0  0  0  0  0  0  0  0  0  0  0  0
    1.7310   13.7370   -1.1450 C   0  0  1  0  0  0  0  0  0  0  0  0
    0.5280   13.8890   -0.1620 C   0  0  0  0  0  0  0  0  0  0  0  0
    2.3050   15.1260   -1.5740 C   0  0  2  0  0  0  0  0  0  0  0  0
    2.7800   16.0210   -0.4150 C   0  0  0  0  0  0  0  0  0  0  0  0
    1.7450   16.9370    0.1480 C   0  0  0  0  0  0  0  0  0  0  0  0
    0.5730   17.2460   -0.4360 C   0  0  0  0  0  0  0  0  0  0  0  0
    0.2310   16.7280   -1.8390 C   0  0  1  0  0  0  0  0  0  0  0  0
   -0.3340   17.8910   -2.6970 C   0  0  0  0  0  0  0  0  0  0  0  0
   -1.5140   18.5910   -2.0300 C   0  0  0  0  0  0  0  0  0  0  0  0
   -1.1190   19.1420   -0.6620 C   0  0  2  0  0  0  0  0  0  0  0  0
   -0.1670   20.1940   -0.8470 O   0  0  0  0  0  0  0  0  0  0  0  0
   -0.5270   18.0630    0.2870 C   0  0  0  0  0  0  0  0  0  0  0  0
   -1.6460   17.0880    0.7280 C   0  0  0  0  0  0  0  0  0  0  0  0
   -0.0400   18.7760    1.5770 C   0  0  0  0  0  0  0  0  0  0  0  0
    1.3840   15.9260   -2.5820 C   0  0  1  0  0  0  0  0  0  0  0  0
    2.3150   16.9170   -3.3450 C   0  0  0  0  0  0  0  0  0  0  0  0
    0.7400   14.9920   -3.6730 C   0  0  0  0  0  0  0  0  0  0  0  0
    0.3010   13.5880   -3.2150 C   0  0  0  0  0  0  0  0  0  0  0  0
    1.4200   12.8920   -2.4340 C   0  0  2  0  0  0  0  0  0  0  0  0
    2.6360   12.7050   -3.4040 C   0  0  0  0  0  0  0  0  0  0  0  0
   -0.0869    9.3031   -1.2122 H   0  0  0  0  0  0  0  0  0  0  0  0
   -1.0209    9.6732   -2.7013 H   0  0  0  0  0  0  0  0  0  0  0  0
    0.1755    8.3334   -2.7013 H   0  0  0  0  0  0  0  0  0  0  0  0
    0.7967   10.6457   -3.7729 H   0  0  0  0  0  0  0  0  0  0  0  0
    2.8952    9.7218   -1.8162 H   0  0  0  0  0  0  0  0  0  0  0  0
    2.2736    8.6017   -3.1215 H   0  0  0  0  0  0  0  0  0  0  0  0
    3.4238    9.6320   -4.7249 H   0  0  0  0  0  0  0  0  0  0  0  0
    2.9919   11.2744   -4.0904 H   0  0  0  0  0  0  0  0  0  0  0  0
    4.5755    9.6695   -2.5207 H   0  0  0  0  0  0  0  0  0  0  0  0
    5.2322   11.7854   -5.8514 H   0  0  0  0  0  0  0  0  0  0  0  0
    6.8600   11.0547   -6.0584 H   0  0  0  0  0  0  0  0  0  0  0  0
    5.3996   10.0089   -6.0584 H   0  0  0  0  0  0  0  0  0  0  0  0
    7.3094   10.4149   -2.5123 H   0  0  0  0  0  0  0  0  0  0  0  0
    7.6263    9.4101   -3.9671 H   0  0  0  0  0  0  0  0  0  0  0  0
    8.0614   11.1529   -3.9671 H   0  0  0  0  0  0  0  0  0  0  0  0
    0.0384   11.5048   -1.4645 H   0  0  0  0  0  0  0  0  0  0  0  0
    1.6904   10.9574    0.2139 H   0  0  0  0  0  0  0  0  0  0  0  0
    2.9494   10.6741   -1.0073 H   0  0  0  0  0  0  0  0  0  0  0  0
    2.7367   12.9897    0.6530 H   0  0  0  0  0  0  0  0  0  0  0  0
    3.7455   12.8969   -0.7885 H   0  0  0  0  0  0  0  0  0  0  0  0
    0.8934   13.8428    0.8745 H   0  0  0  0  0  0  0  0  0  0  0  0
    0.0340   14.8567   -0.3339 H   0  0  0  0  0  0  0  0  0  0  0  0
   -0.1911   13.0746   -0.3339 H   0  0  0  0  0  0  0  0  0  0  0  0
    3.2132   14.8450   -2.1274 H   0  0  0  0  0  0  0  0  0  0  0  0
    3.1333   15.3676    0.3963 H   0  0  0  0  0  0  0  0  0  0  0  0
    3.5651   16.6686   -0.8324 H   0  0  0  0  0  0  0  0  0  0  0  0
    1.9585   17.3987    1.1233 H   0  0  0  0  0  0  0  0  0  0  0  0
   -0.5419   15.9579   -1.6988 H   0  0  0  0  0  0  0  0  0  0  0  0
    0.4657   18.6281   -2.8621 H   0  0  0  0  0  0  0  0  0  0  0  0
   -0.6923   17.4629   -3.6448 H   0  0  0  0  0  0  0  0  0  0  0  0
   -1.8486   19.4211   -2.6696 H   0  0  0  0  0  0  0  0  0  0  0  0
   -2.3245   17.8600   -1.8935 H   0  0  0  0  0  0  0  0  0  0  0  0
   -2.0350   19.5141   -0.1797 H   0  0  0  0  0  0  0  0  0  0  0  0
    0.5420   20.0680   -0.1940 H   0  0  0  0  0  0  0  0  0  0  0  0
   -1.6883   17.0512    1.8266 H   0  0  0  0  0  0  0  0  0  0  0  0
   -2.6124   17.4372    0.3354 H   0  0  0  0  0  0  0  0  0  0  0  0
   -1.4323   16.0829    0.3354 H   0  0  0  0  0  0  0  0  0  0  0  0
   -0.4111   18.2327    2.4586 H   0  0  0  0  0  0  0  0  0  0  0  0
    1.0597   18.7937    1.5933 H   0  0  0  0  0  0  0  0  0  0  0  0
   -0.4236   19.8068    1.5933 H   0  0  0  0  0  0  0  0  0  0  0  0
    2.8814   17.5199   -2.6200 H   0  0  0  0  0  0  0  0  0  0  0  0
    3.0148   16.3501   -3.9766 H   0  0  0  0  0  0  0  0  0  0  0  0
    1.7056   17.5801   -3.9766 H   0  0  0  0  0  0  0  0  0  0  0  0
   -0.1486   15.5059   -4.0683 H   0  0  0  0  0  0  0  0  0  0  0  0
    1.5381   14.8177   -4.4097 H   0  0  0  0  0  0  0  0  0  0  0  0
   -0.5848   13.6806   -2.5694 H   0  0  0  0  0  0  0  0  0  0  0  0
    0.0670   12.9856   -4.1051 H   0  0  0  0  0  0  0  0  0  0  0  0
    3.5552   12.5636   -2.8166 H   0  0  0  0  0  0  0  0  0  0  0  0
    2.4668   11.8223   -4.0382 H   0  0  0  0  0  0  0  0  0  0  0  0
    2.7398   13.5977   -4.0382 H   0  0  0  0  0  0  0  0  0  0  0  0
  1  2  1  0
  2  3  1  0
  3  4  1  0
  4  5  1  0
  5  6  1  0
  6  7  1  0
  7  8  1  0
  7  9  1  0
  2 10  1  0
 10 11  1  0
 11 12  1  0
 12 13  1  0
 13 14  1  1
 13 15  1  0
 15 16  1  0
 16 17  1  0
 17 18  2  0
 18 19  1  0
 19 20  1  0
 20 21  1  0
 21 22  1  0
 22 23  1  0
 22 24  1  0
 24 25  1  0
 24 26  1  0
 19 27  1  0
 27 28  1  6
 27 29  1  0
 29 30  1  0
 30 31  1  0
 31 32  1  6
  7  5  1  0
 31 10  1  0
 31 13  1  0
 27 15  1  0
 24 18  1  0
  1 33  1  0
  1 34  1  0
  1 35  1  0
  2 36  1  6
  3 37  1  0
  3 38  1  0
  4 39  1  0
  4 40  1  0
  5 41  1  1
  8 42  1  0
  8 43  1  0
  8 44  1  0
  9 45  1  0
  9 46  1  0
  9 47  1  0
 10 48  1  1
 11 49  1  0
 11 50  1  0
 12 51  1  0
 12 52  1  0
 14 53  1  0
 14 54  1  0
 14 55  1  0
 15 56  1  6
 16 57  1  0
 16 58  1  0
 17 59  1  0
 19 60  1  1
 20 61  1  0
 20 62  1  0
 21 63  1  0
 21 64  1  0
 22 65  1  1
 23 66  1  0
 25 67  1  0
 25 68  1  0
 25 69  1  0
 26 70  1  0
 26 71  1  0
 26 72  1  0
 28 73  1  0
 28 74  1  0
 28 75  1  0
 29 76  1  0
 29 77  1  0
 30 78  1  0
 30 79  1  0
 32 80  1  0
 32 81  1  0
 32 82  1  0
M  END
>  <meeko>  (12) 
{"is_sidechain": [false], "intermolecular_energy": 2.731, "internal_energy": -0.839}

$$$$
EPH_relaxed_0001_pdb2pqr_Repair_90_r2_0001_out
     RDKit          3D

 82 86  0  0  0  0  0  0  0  0999 V2000
   -0.2790   15.1110   -7.7070 C   0  0  0  0  0  0  0  0  0  0  0  0
    1.0830   15.1060   -7.0080 C   0  0  2  0  0  0  0  0  0  0  0  0
    2.2500   15.2090   -8.0100 C   0  0  0  0  0  0  0  0  0  0  0  0
    2.2670   16.5190   -8.8030 C   0  0  0  0  0  0  0  0  0  0  0  0
    1.8730   16.3060  -10.2330 C   0  0  2  0  0  0  0  0  0  0  0  0
    1.2050   15.0640  -10.4920 O   0  0  0  0  0  0  0  0  0  0  0  0
    2.4860   15.2370  -11.1190 C   0  0  0  0  0  0  0  0  0  0  0  0
    3.5450   14.3120  -10.6070 C   0  0  0  0  0  0  0  0  0  0  0  0
    2.4110   15.4100  -12.6040 C   0  0  0  0  0  0  0  0  0  0  0  0
    1.2300   13.8450   -6.1650 C   0  0  1  0  0  0  0  0  0  0  0  0
    2.6620   13.2500   -6.2250 C   0  0  0  0  0  0  0  0  0  0  0  0
    2.9570   12.6510   -4.8250 C   0  0  0  0  0  0  0  0  0  0  0  0
    1.5820   12.6230   -4.1160 C   0  0  1  0  0  0  0  0  0  0  0  0
    0.8790   11.3380   -4.6560 C   0  0  0  0  0  0  0  0  0  0  0  0
    1.6110   12.6520   -2.5530 C   0  0  2  0  0  0  0  0  0  0  0  0
    2.3020   11.4470   -1.8910 C   0  0  0  0  0  0  0  0  0  0  0  0
    1.4080   10.2940   -1.5740 C   0  0  0  0  0  0  0  0  0  0  0  0
    0.0630   10.3320   -1.5470 C   0  0  0  0  0  0  0  0  0  0  0  0
   -0.6930   11.6500   -1.7590 C   0  0  1  0  0  0  0  0  0  0  0  0
   -1.7990   11.7920   -0.6810 C   0  0  0  0  0  0  0  0  0  0  0  0
   -2.7320   10.5860   -0.6360 C   0  0  0  0  0  0  0  0  0  0  0  0
   -1.9510    9.3020   -0.3660 C   0  0  2  0  0  0  0  0  0  0  0  0
   -1.4150    9.3600    0.9600 O   0  0  0  0  0  0  0  0  0  0  0  0
   -0.8020    9.0570   -1.3840 C   0  0  0  0  0  0  0  0  0  0  0  0
   -1.4000    8.6960   -2.7660 C   0  0  0  0  0  0  0  0  0  0  0  0
   -0.0070    7.8090   -0.9150 C   0  0  0  0  0  0  0  0  0  0  0  0
    0.2080   12.9530   -1.8850 C   0  0  1  0  0  0  0  0  0  0  0  0
    0.5060   13.5330   -0.4680 C   0  0  0  0  0  0  0  0  0  0  0  0
   -0.5970   14.0620   -2.6590 C   0  0  0  0  0  0  0  0  0  0  0  0
   -0.4890   14.0540   -4.1960 C   0  0  0  0  0  0  0  0  0  0  0  0
    0.9740   13.9730   -4.6420 C   0  0  2  0  0  0  0  0  0  0  0  0
    1.7020   15.2630   -4.1320 C   0  0  0  0  0  0  0  0  0  0  0  0
   -1.0787   15.1139   -6.9517 H   0  0  0  0  0  0  0  0  0  0  0  0
   -0.3652   16.0095   -8.3358 H   0  0  0  0  0  0  0  0  0  0  0  0
   -0.3717   14.2132   -8.3358 H   0  0  0  0  0  0  0  0  0  0  0  0
    1.1254   15.9935   -6.3595 H   0  0  0  0  0  0  0  0  0  0  0  0
    3.1947   15.1284   -7.4523 H   0  0  0  0  0  0  0  0  0  0  0  0
    2.1214   14.3944   -8.7379 H   0  0  0  0  0  0  0  0  0  0  0  0
    1.5618   17.2251   -8.3402 H   0  0  0  0  0  0  0  0  0  0  0  0
    3.2922   16.9174   -8.7853 H   0  0  0  0  0  0  0  0  0  0  0  0
    1.7211   17.3860  -10.3766 H   0  0  0  0  0  0  0  0  0  0  0  0
    3.5372   14.3188   -9.5070 H   0  0  0  0  0  0  0  0  0  0  0  0
    3.3473   13.2922  -10.9688 H   0  0  0  0  0  0  0  0  0  0  0  0
    4.5290   14.6451  -10.9688 H   0  0  0  0  0  0  0  0  0  0  0  0
    1.9834   16.3963  -12.8371 H   0  0  0  0  0  0  0  0  0  0  0  0
    3.4213   15.3376  -13.0331 H   0  0  0  0  0  0  0  0  0  0  0  0
    1.7732   14.6232  -13.0331 H   0  0  0  0  0  0  0  0  0  0  0  0
    0.4491   13.2229   -6.6268 H   0  0  0  0  0  0  0  0  0  0  0  0
    2.7134   12.4633   -6.9921 H   0  0  0  0  0  0  0  0  0  0  0  0
    3.3999   14.0225   -6.4874 H   0  0  0  0  0  0  0  0  0  0  0  0
    3.3680   11.6347   -4.9160 H   0  0  0  0  0  0  0  0  0  0  0  0
    3.7021   13.2382   -4.2681 H   0  0  0  0  0  0  0  0  0  0  0  0
    0.5417   10.7215   -3.8098 H   0  0  0  0  0  0  0  0  0  0  0  0
    0.0120   11.6246   -5.2694 H   0  0  0  0  0  0  0  0  0  0  0  0
    1.5879   10.7625   -5.2694 H   0  0  0  0  0  0  0  0  0  0  0  0
    2.2565   13.5179   -2.3443 H   0  0  0  0  0  0  0  0  0  0  0  0
    3.0886   11.0900   -2.5720 H   0  0  0  0  0  0  0  0  0  0  0  0
    2.6858   11.8088   -0.9257 H   0  0  0  0  0  0  0  0  0  0  0  0
    1.8893    9.3322   -1.3430 H   0  0  0  0  0  0  0  0  0  0  0  0
   -1.1516   11.5807   -2.7564 H   0  0  0  0  0  0  0  0  0  0  0  0
   -1.3199   11.9038    0.3028 H   0  0  0  0  0  0  0  0  0  0  0  0
   -2.4051   12.6729   -0.9393 H   0  0  0  0  0  0  0  0  0  0  0  0
   -3.4716   10.7327    0.1649 H   0  0  0  0  0  0  0  0  0  0  0  0
   -3.2337   10.4936   -1.6105 H   0  0  0  0  0  0  0  0  0  0  0  0
   -2.6509    8.4606   -0.4761 H   0  0  0  0  0  0  0  0  0  0  0  0
   -0.9140   10.1900    1.0390 H   0  0  0  0  0  0  0  0  0  0  0  0
   -2.3340    8.1322   -2.6254 H   0  0  0  0  0  0  0  0  0  0  0  0
   -1.6096    9.6186   -3.3272 H   0  0  0  0  0  0  0  0  0  0  0  0
   -0.6812    8.0808   -3.3272 H   0  0  0  0  0  0  0  0  0  0  0  0
    0.0124    7.7785    0.1844 H   0  0  0  0  0  0  0  0  0  0  0  0
   -0.4925    6.8995   -1.2985 H   0  0  0  0  0  0  0  0  0  0  0  0
    1.0225    7.8646   -1.2985 H   0  0  0  0  0  0  0  0  0  0  0  0
    0.1455   12.8314    0.2986 H   0  0  0  0  0  0  0  0  0  0  0  0
    1.5902   13.6779   -0.3517 H   0  0  0  0  0  0  0  0  0  0  0  0
   -0.0075   14.4988   -0.3517 H   0  0  0  0  0  0  0  0  0  0  0  0
   -1.6594   13.9441   -2.3995 H   0  0  0  0  0  0  0  0  0  0  0  0
   -0.1484   15.0157   -2.3440 H   0  0  0  0  0  0  0  0  0  0  0  0
   -1.0342   13.1839   -4.5906 H   0  0  0  0  0  0  0  0  0  0  0  0
   -0.9226   14.9879   -4.5831 H   0  0  0  0  0  0  0  0  0  0  0  0
    1.7065   15.2709   -3.0320 H   0  0  0  0  0  0  0  0  0  0  0  0
    2.7375   15.2705   -4.5029 H   0  0  0  0  0  0  0  0  0  0  0  0
    1.1732   16.1534   -4.5029 H   0  0  0  0  0  0  0  0  0  0  0  0
  1  2  1  0
  2  3  1  0
  3  4  1  0
  4  5  1  0
  5  6  1  0
  6  7  1  0
  7  8  1  0
  7  9  1  0
  2 10  1  0
 10 11  1  0
 11 12  1  0
 12 13  1  0
 13 14  1  1
 13 15  1  0
 15 16  1  0
 16 17  1  0
 17 18  2  0
 18 19  1  0
 19 20  1  0
 20 21  1  0
 21 22  1  0
 22 23  1  0
 22 24  1  0
 24 25  1  0
 24 26  1  0
 19 27  1  0
 27 28  1  1
 27 29  1  0
 29 30  1  0
 30 31  1  0
 31 32  1  1
  7  5  1  0
 31 10  1  0
 31 13  1  0
 27 15  1  0
 24 18  1  0
  1 33  1  0
  1 34  1  0
  1 35  1  0
  2 36  1  1
  3 37  1  0
  3 38  1  0
  4 39  1  0
  4 40  1  0
  5 41  1  6
  8 42  1  0
  8 43  1  0
  8 44  1  0
  9 45  1  0
  9 46  1  0
  9 47  1  0
 10 48  1  6
 11 49  1  0
 11 50  1  0
 12 51  1  0
 12 52  1  0
 14 53  1  0
 14 54  1  0
 14 55  1  0
 15 56  1  6
 16 57  1  0
 16 58  1  0
 17 59  1  0
 19 60  1  6
 20 61  1  0
 20 62  1  0
 21 63  1  0
 21 64  1  0
 22 65  1  1
 23 66  1  0
 25 67  1  0
 25 68  1  0
 25 69  1  0
 26 70  1  0
 26 71  1  0
 26 72  1  0
 28 73  1  0
 28 74  1  0
 28 75  1  0
 29 76  1  0
 29 77  1  0
 30 78  1  0
 30 79  1  0
 32 80  1  0
 32 81  1  0
 32 82  1  0
M  END
>  <meeko>  (13) 
{"is_sidechain": [false], "intermolecular_energy": 2.731, "internal_energy": -0.839}

$$$$
EPH_relaxed_0001_pdb2pqr_Repair_90_r2_0001_out
     RDKit          3D

 82 86  0  0  0  0  0  0  0  0999 V2000
    2.8620   11.5150   -5.5580 C   0  0  0  0  0  0  0  0  0  0  0  0
    2.0190   11.1990   -4.3200 C   0  0  2  0  0  0  0  0  0  0  0  0
    0.9410   10.1350   -4.6070 C   0  0  0  0  0  0  0  0  0  0  0  0
   -0.1320   10.0360   -3.5190 C   0  0  0  0  0  0  0  0  0  0  0  0
    0.2780    9.1010   -2.4210 C   0  0  2  0  0  0  0  0  0  0  0  0
   -0.6430    8.0310   -2.1710 O   0  0  0  0  0  0  0  0  0  0  0  0
   -0.4680    8.9790   -1.1050 C   0  0  0  0  0  0  0  0  0  0  0  0
   -1.6840    9.8030   -0.8170 C   0  0  0  0  0  0  0  0  0  0  0  0
    0.2590    8.4250    0.0810 C   0  0  0  0  0  0  0  0  0  0  0  0
    1.3660   12.4740   -3.7970 C   0  0  1  0  0  0  0  0  0  0  0  0
   -0.1750   12.3470   -3.6700 C   0  0  0  0  0  0  0  0  0  0  0  0
   -0.5920   13.1770   -2.4280 C   0  0  0  0  0  0  0  0  0  0  0  0
    0.6610   14.0140   -2.0810 C   0  0  1  0  0  0  0  0  0  0  0  0
    0.6180   15.2270   -3.0620 C   0  0  0  0  0  0  0  0  0  0  0  0
    0.7910   14.4790   -0.5940 C   0  0  2  0  0  0  0  0  0  0  0  0
   -0.3270   15.4160   -0.1030 C   0  0  0  0  0  0  0  0  0  0  0  0
   -0.0640   16.8740   -0.2880 C   0  0  0  0  0  0  0  0  0  0  0  0
    1.1340   17.4240   -0.5610 C   0  0  0  0  0  0  0  0  0  0  0  0
    2.4020   16.5630   -0.6150 C   0  0  1  0  0  0  0  0  0  0  0  0
    3.5350   17.2610    0.1830 C   0  0  0  0  0  0  0  0  0  0  0  0
    3.7820   18.6930   -0.2810 C   0  0  0  0  0  0  0  0  0  0  0  0
    2.5130   19.5320   -0.1580 C   0  0  2  0  0  0  0  0  0  0  0  0
    2.1900   19.6800    1.2290 O   0  0  0  0  0  0  0  0  0  0  0  0
    1.2990   18.9230   -0.9140 C   0  0  0  0  0  0  0  0  0  0  0  0
    1.5260   19.0400   -2.4420 C   0  0  0  0  0  0  0  0  0  0  0  0
    0.0520   19.7900   -0.5930 C   0  0  0  0  0  0  0  0  0  0  0  0
    2.2220   15.0370   -0.2120 C   0  0  1  0  0  0  0  0  0  0  0  0
    2.3650   14.8740    1.3330 C   0  0  0  0  0  0  0  0  0  0  0  0
    3.3850   14.1940   -0.8570 C   0  0  0  0  0  0  0  0  0  0  0  0
    3.1480   13.6610   -2.2830 C   0  0  0  0  0  0  0  0  0  0  0  0
    1.7890   12.9630   -2.3890 C   0  0  2  0  0  0  0  0  0  0  0  0
    1.8110   11.7250   -1.4290 C   0  0  0  0  0  0  0  0  0  0  0  0
    3.8493   11.8851   -5.2446 H   0  0  0  0  0  0  0  0  0  0  0  0
    2.9865   10.6025   -6.1595 H   0  0  0  0  0  0  0  0  0  0  0  0
    2.3560   12.2845   -6.1595 H   0  0  0  0  0  0  0  0  0  0  0  0
    2.6946   10.7863   -3.5563 H   0  0  0  0  0  0  0  0  0  0  0  0
    0.4489   10.3870   -5.5580 H   0  0  0  0  0  0  0  0  0  0  0  0
    1.4521    9.1616   -4.6436 H   0  0  0  0  0  0  0  0  0  0  0  0
   -0.3003   11.0357   -3.0920 H   0  0  0  0  0  0  0  0  0  0  0  0
   -1.0516    9.6442   -3.9782 H   0  0  0  0  0  0  0  0  0  0  0  0
    1.3419    9.2545   -2.6547 H   0  0  0  0  0  0  0  0  0  0  0  0
   -1.8167    9.8929    0.2713 H   0  0  0  0  0  0  0  0  0  0  0  0
   -1.5606   10.8043   -1.2553 H   0  0  0  0  0  0  0  0  0  0  0  0
   -2.5683    9.3173   -1.2553 H   0  0  0  0  0  0  0  0  0  0  0  0
   -0.2163    8.7872    1.0045 H   0  0  0  0  0  0  0  0  0  0  0  0
    0.2193    7.3260    0.0549 H   0  0  0  0  0  0  0  0  0  0  0  0
    1.3081    8.7548    0.0549 H   0  0  0  0  0  0  0  0  0  0  0  0
    1.7109   13.1853   -4.5619 H   0  0  0  0  0  0  0  0  0  0  0  0
   -0.6633   12.7440   -4.5722 H   0  0  0  0  0  0  0  0  0  0  0  0
   -0.4767   11.2948   -3.5611 H   0  0  0  0  0  0  0  0  0  0  0  0
   -1.4430   13.8320   -2.6663 H   0  0  0  0  0  0  0  0  0  0  0  0
   -0.9148   12.5415   -1.5902 H   0  0  0  0  0  0  0  0  0  0  0  0
    0.5848   16.1635   -2.4859 H   0  0  0  0  0  0  0  0  0  0  0  0
    1.5170   15.2181   -3.6958 H   0  0  0  0  0  0  0  0  0  0  0  0
   -0.2781   15.1544   -3.6958 H   0  0  0  0  0  0  0  0  0  0  0  0
    0.6569   13.5381   -0.0402 H   0  0  0  0  0  0  0  0  0  0  0  0
   -1.2468   15.1642   -0.6513 H   0  0  0  0  0  0  0  0  0  0  0  0
   -0.4035   15.2558    0.9826 H   0  0  0  0  0  0  0  0  0  0  0  0
   -0.9215   17.5564   -0.1932 H   0  0  0  0  0  0  0  0  0  0  0  0
    2.6796   16.4961   -1.6773 H   0  0  0  0  0  0  0  0  0  0  0  0
    3.2574   17.2783    1.2473 H   0  0  0  0  0  0  0  0  0  0  0  0
    4.4610   16.6916    0.0148 H   0  0  0  0  0  0  0  0  0  0  0  0
    4.5718   19.1415    0.3396 H   0  0  0  0  0  0  0  0  0  0  0  0
    4.0885   18.6722   -1.3372 H   0  0  0  0  0  0  0  0  0  0  0  0
    2.7167   20.5068   -0.6253 H   0  0  0  0  0  0  0  0  0  0  0  0
    1.2520   19.4510    1.3380 H   0  0  0  0  0  0  0  0  0  0  0  0
    2.4890   19.5363   -2.6327 H   0  0  0  0  0  0  0  0  0  0  0  0
    1.5366   18.0350   -2.8891 H   0  0  0  0  0  0  0  0  0  0  0  0
    0.7136   19.6317   -2.8891 H   0  0  0  0  0  0  0  0  0  0  0  0
   -0.0665   19.8724    0.4975 H   0  0  0  0  0  0  0  0  0  0  0  0
    0.1821   20.7934   -1.0245 H   0  0  0  0  0  0  0  0  0  0  0  0
   -0.8433   19.3186   -1.0245 H   0  0  0  0  0  0  0  0  0  0  0  0
    1.7213   15.6077    1.8402 H   0  0  0  0  0  0  0  0  0  0  0  0
    2.0621   13.8574    1.6240 H   0  0  0  0  0  0  0  0  0  0  0  0
    3.4124   15.0420    1.6240 H   0  0  0  0  0  0  0  0  0  0  0  0
    4.2818   14.8305   -0.8843 H   0  0  0  0  0  0  0  0  0  0  0  0
    3.4751   13.2976   -0.2258 H   0  0  0  0  0  0  0  0  0  0  0  0
    3.1764   14.5024   -2.9909 H   0  0  0  0  0  0  0  0  0  0  0  0
    3.9363   12.9313   -2.5200 H   0  0  0  0  0  0  0  0  0  0  0  0
    1.8049   12.0706   -0.3847 H   0  0  0  0  0  0  0  0  0  0  0  0
    0.9238   11.1016   -1.6141 H   0  0  0  0  0  0  0  0  0  0  0  0
    2.7198   11.1336   -1.6141 H   0  0  0  0  0  0  0  0  0  0  0  0
  1  2  1  0
  2  3  1  0
  3  4  1  0
  4  5  1  0
  5  6  1  0
  6  7  1  0
  7  8  1  0
  7  9  1  0
  2 10  1  0
 10 11  1  0
 11 12  1  0
 12 13  1  0
 13 14  1  6
 13 15  1  0
 15 16  1  0
 16 17  1  0
 17 18  2  0
 18 19  1  0
 19 20  1  0
 20 21  1  0
 21 22  1  0
 22 23  1  0
 22 24  1  0
 24 25  1  0
 24 26  1  0
 19 27  1  0
 27 28  1  1
 27 29  1  0
 29 30  1  0
 30 31  1  0
 31 32  1  1
  7  5  1  0
 31 10  1  0
 31 13  1  0
 27 15  1  0
 24 18  1  0
  1 33  1  0
  1 34  1  0
  1 35  1  0
  2 36  1  1
  3 37  1  0
  3 38  1  0
  4 39  1  0
  4 40  1  0
  5 41  1  1
  8 42  1  0
  8 43  1  0
  8 44  1  0
  9 45  1  0
  9 46  1  0
  9 47  1  0
 10 48  1  6
 11 49  1  0
 11 50  1  0
 12 51  1  0
 12 52  1  0
 14 53  1  0
 14 54  1  0
 14 55  1  0
 15 56  1  1
 16 57  1  0
 16 58  1  0
 17 59  1  0
 19 60  1  6
 20 61  1  0
 20 62  1  0
 21 63  1  0
 21 64  1  0
 22 65  1  6
 23 66  1  0
 25 67  1  0
 25 68  1  0
 25 69  1  0
 26 70  1  0
 26 71  1  0
 26 72  1  0
 28 73  1  0
 28 74  1  0
 28 75  1  0
 29 76  1  0
 29 77  1  0
 30 78  1  0
 30 79  1  0
 32 80  1  0
 32 81  1  0
 32 82  1  0
M  END
>  <meeko>  (14) 
{"is_sidechain": [false], "intermolecular_energy": 2.731, "internal_energy": -0.839}

$$$$
EPH_relaxed_0001_pdb2pqr_Repair_90_r2_0001_out
     RDKit          3D

 82 86  0  0  0  0  0  0  0  0999 V2000
   -2.1950    9.8260   -0.3410 C   0  0  0  0  0  0  0  0  0  0  0  0
   -1.0110   10.3150   -1.1820 C   0  0  2  0  0  0  0  0  0  0  0  0
    0.0970    9.2490   -1.2990 C   0  0  0  0  0  0  0  0  0  0  0  0
    0.7590    9.1980   -2.6790 C   0  0  0  0  0  0  0  0  0  0  0  0
    2.2480    9.3310   -2.5840 C   0  0  2  0  0  0  0  0  0  0  0  0
    2.7020   10.4880   -1.8680 O   0  0  0  0  0  0  0  0  0  0  0  0
    3.0350   10.4360   -3.2650 C   0  0  0  0  0  0  0  0  0  0  0  0
    2.3550   11.4820   -4.0920 C   0  0  0  0  0  0  0  0  0  0  0  0
    4.4920   10.2180   -3.5300 C   0  0  0  0  0  0  0  0  0  0  0  0
   -0.4420   11.5950   -0.5820 C   0  0  1  0  0  0  0  0  0  0  0  0
    0.7170   11.3240    0.4150 C   0  0  0  0  0  0  0  0  0  0  0  0
    1.7230   12.4930    0.2600 C   0  0  0  0  0  0  0  0  0  0  0  0
    0.9610   13.5570   -0.5650 C   0  0  1  0  0  0  0  0  0  0  0  0
    0.0610   14.3010    0.4710 C   0  0  0  0  0  0  0  0  0  0  0  0
    1.8410   14.5540   -1.3870 C   0  0  2  0  0  0  0  0  0  0  0  0
    2.7670   15.4510   -0.5480 C   0  0  0  0  0  0  0  0  0  0  0  0
    2.1800   16.7560   -0.1250 C   0  0  0  0  0  0  0  0  0  0  0  0
    1.0690   17.3170   -0.6390 C   0  0  0  0  0  0  0  0  0  0  0  0
    0.3360   16.6730   -1.8220 C   0  0  1  0  0  0  0  0  0  0  0  0
    0.0030   17.7580   -2.8790 C   0  0  0  0  0  0  0  0  0  0  0  0
   -0.7670   18.9340   -2.2860 C   0  0  0  0  0  0  0  0  0  0  0  0
    0.0190   19.5850   -1.1510 C   0  0  2  0  0  0  0  0  0  0  0  0
    1.1950   20.1940   -1.6950 O   0  0  0  0  0  0  0  0  0  0  0  0
    0.4200   18.5850   -0.0310 C   0  0  0  0  0  0  0  0  0  0  0  0
   -0.8420   18.1550    0.7580 C   0  0  0  0  0  0  0  0  0  0  0  0
    1.3270   19.3380    0.9790 C   0  0  0  0  0  0  0  0  0  0  0  0
    1.0370   15.3960   -2.4590 C   0  0  1  0  0  0  0  0  0  0  0  0
    2.0680   15.8390   -3.5420 C   0  0  0  0  0  0  0  0  0  0  0  0
   -0.0480   14.5330   -3.2060 C   0  0  0  0  0  0  0  0  0  0  0  0
   -0.7990   13.4830   -2.3670 C   0  0  0  0  0  0  0  0  0  0  0  0
    0.1790   12.6240   -1.5600 C   0  0  2  0  0  0  0  0  0  0  0  0
    1.0830   11.8460   -2.5770 C   0  0  0  0  0  0  0  0  0  0  0  0
   -1.9522    9.9263    0.7272 H   0  0  0  0  0  0  0  0  0  0  0  0
   -3.0842   10.4305   -0.5732 H   0  0  0  0  0  0  0  0  0  0  0  0
   -2.3985    8.7702   -0.5732 H   0  0  0  0  0  0  0  0  0  0  0  0
   -1.3850   10.5146   -2.1970 H   0  0  0  0  0  0  0  0  0  0  0  0
    0.8718    9.4698   -0.5501 H   0  0  0  0  0  0  0  0  0  0  0  0
   -0.3791    8.2711   -1.1345 H   0  0  0  0  0  0  0  0  0  0  0  0
    0.5166    8.2366   -3.1554 H   0  0  0  0  0  0  0  0  0  0  0  0
    0.3766   10.0403   -3.2743 H   0  0  0  0  0  0  0  0  0  0  0  0
    2.3683    8.2376   -2.5743 H   0  0  0  0  0  0  0  0  0  0  0  0
    1.8761   12.2186   -3.4302 H   0  0  0  0  0  0  0  0  0  0  0  0
    3.0976   11.9876   -4.7268 H   0  0  0  0  0  0  0  0  0  0  0  0
    1.5916   11.0085   -4.7268 H   0  0  0  0  0  0  0  0  0  0  0  0
    5.0305   10.1374   -2.5742 H   0  0  0  0  0  0  0  0  0  0  0  0
    4.6252    9.2899   -4.1053 H   0  0  0  0  0  0  0  0  0  0  0  0
    4.8910   11.0664   -4.1053 H   0  0  0  0  0  0  0  0  0  0  0  0
   -1.3556   12.0087   -0.1301 H   0  0  0  0  0  0  0  0  0  0  0  0
    0.3310   11.2905    1.4445 H   0  0  0  0  0  0  0  0  0  0  0  0
    1.1994   10.3576    0.2065 H   0  0  0  0  0  0  0  0  0  0  0  0
    2.0064   12.8945    1.2441 H   0  0  0  0  0  0  0  0  0  0  0  0
    2.6572   12.1775   -0.2276 H   0  0  0  0  0  0  0  0  0  0  0  0
    0.3801   14.0372    1.4901 H   0  0  0  0  0  0  0  0  0  0  0  0
    0.1566   15.3873    0.3265 H   0  0  0  0  0  0  0  0  0  0  0  0
   -0.9879   14.0028    0.3265 H   0  0  0  0  0  0  0  0  0  0  0  0
    2.5052   13.8776   -1.9449 H   0  0  0  0  0  0  0  0  0  0  0  0
    3.0482   14.8952    0.3586 H   0  0  0  0  0  0  0  0  0  0  0  0
    3.6204   15.6977   -1.1967 H   0  0  0  0  0  0  0  0  0  0  0  0
    2.6985   17.3061    0.6741 H   0  0  0  0  0  0  0  0  0  0  0  0
   -0.5948   16.2548   -1.4113 H   0  0  0  0  0  0  0  0  0  0  0  0
    0.9438   18.1328   -3.3084 H   0  0  0  0  0  0  0  0  0  0  0  0
   -0.6345   17.2934   -3.6457 H   0  0  0  0  0  0  0  0  0  0  0  0
   -0.9466   19.6805   -3.0737 H   0  0  0  0  0  0  0  0  0  0  0  0
   -1.7207   18.5617   -1.8837 H   0  0  0  0  0  0  0  0  0  0  0  0
   -0.6368   20.3339   -0.6829 H   0  0  0  0  0  0  0  0  0  0  0  0
    1.4860   20.8800   -1.0710 H   0  0  0  0  0  0  0  0  0  0  0  0
   -0.6407   18.2236    1.8373 H   0  0  0  0  0  0  0  0  0  0  0  0
   -1.6803   18.8182    0.4985 H   0  0  0  0  0  0  0  0  0  0  0  0
   -1.1010   17.1179    0.4985 H   0  0  0  0  0  0  0  0  0  0  0  0
    1.0221   19.0848    2.0051 H   0  0  0  0  0  0  0  0  0  0  0  0
    2.3745   19.0403    0.8238 H   0  0  0  0  0  0  0  0  0  0  0  0
    1.2271   20.4224    0.8238 H   0  0  0  0  0  0  0  0  0  0  0  0
    2.9721   16.2275   -3.0504 H   0  0  0  0  0  0  0  0  0  0  0  0
    2.3341   14.9758   -4.1697 H   0  0  0  0  0  0  0  0  0  0  0  0
    1.6250   16.6262   -4.1697 H   0  0  0  0  0  0  0  0  0  0  0  0
   -0.7961   15.2250   -3.6201 H   0  0  0  0  0  0  0  0  0  0  0  0
    0.5111   13.9550   -3.9565 H   0  0  0  0  0  0  0  0  0  0  0  0
   -1.4820   13.9971   -1.6748 H   0  0  0  0  0  0  0  0  0  0  0  0
   -1.3619   12.8276   -3.0478 H   0  0  0  0  0  0  0  0  0  0  0  0
    1.8045   11.2251   -2.0258 H   0  0  0  0  0  0  0  0  0  0  0  0
    0.4536   11.2027   -3.2095 H   0  0  0  0  0  0  0  0  0  0  0  0
    1.6253   12.5642   -3.2095 H   0  0  0  0  0  0  0  0  0  0  0  0
  1  2  1  0
  2  3  1  0
  3  4  1  0
  4  5  1  0
  5  6  1  0
  6  7  1  0
  7  8  1  0
  7  9  1  0
  2 10  1  0
 10 11  1  0
 11 12  1  0
 12 13  1  0
 13 14  1  1
 13 15  1  0
 15 16  1  0
 16 17  1  0
 17 18  2  0
 18 19  1  0
 19 20  1  0
 20 21  1  0
 21 22  1  0
 22 23  1  0
 22 24  1  0
 24 25  1  0
 24 26  1  0
 19 27  1  0
 27 28  1  6
 27 29  1  0
 29 30  1  0
 30 31  1  0
 31 32  1  6
  7  5  1  0
 31 10  1  0
 31 13  1  0
 27 15  1  0
 24 18  1  0
  1 33  1  0
  1 34  1  0
  1 35  1  0
  2 36  1  6
  3 37  1  0
  3 38  1  0
  4 39  1  0
  4 40  1  0
  5 41  1  1
  8 42  1  0
  8 43  1  0
  8 44  1  0
  9 45  1  0
  9 46  1  0
  9 47  1  0
 10 48  1  1
 11 49  1  0
 11 50  1  0
 12 51  1  0
 12 52  1  0
 14 53  1  0
 14 54  1  0
 14 55  1  0
 15 56  1  6
 16 57  1  0
 16 58  1  0
 17 59  1  0
 19 60  1  1
 20 61  1  0
 20 62  1  0
 21 63  1  0
 21 64  1  0
 22 65  1  1
 23 66  1  0
 25 67  1  0
 25 68  1  0
 25 69  1  0
 26 70  1  0
 26 71  1  0
 26 72  1  0
 28 73  1  0
 28 74  1  0
 28 75  1  0
 29 76  1  0
 29 77  1  0
 30 78  1  0
 30 79  1  0
 32 80  1  0
 32 81  1  0
 32 82  1  0
M  END
>  <meeko>  (15) 
{"is_sidechain": [false], "intermolecular_energy": 2.731, "internal_energy": -0.839}

$$$$
EPH_relaxed_0001_pdb2pqr_Repair_90_r2_0001_out
     RDKit          3D

 82 86  0  0  0  0  0  0  0  0999 V2000
   -1.7140   14.8350    0.4810 C   0  0  0  0  0  0  0  0  0  0  0  0
   -0.3680   15.5340    0.2650 C   0  0  2  0  0  0  0  0  0  0  0  0
   -0.4190   16.5470   -0.8960 C   0  0  0  0  0  0  0  0  0  0  0  0
   -0.0360   17.9720   -0.4880 C   0  0  0  0  0  0  0  0  0  0  0  0
    1.3940   18.0550   -0.0450 C   0  0  2  0  0  0  0  0  0  0  0  0
    2.0590   19.2760   -0.3970 O   0  0  0  0  0  0  0  0  0  0  0  0
    2.5670   18.0780   -1.0070 C   0  0  0  0  0  0  0  0  0  0  0  0
    2.3630   18.0160   -2.4880 C   0  0  0  0  0  0  0  0  0  0  0  0
    3.9150   17.6690   -0.5010 C   0  0  0  0  0  0  0  0  0  0  0  0
    0.7190   14.4980    0.0040 C   0  0  1  0  0  0  0  0  0  0  0  0
    0.8460   13.4630    1.1540 C   0  0  0  0  0  0  0  0  0  0  0  0
    1.2170   12.1080    0.4970 C   0  0  0  0  0  0  0  0  0  0  0  0
    1.6150   12.4730   -0.9520 C   0  0  1  0  0  0  0  0  0  0  0  0
    3.0910   12.9720   -0.8490 C   0  0  0  0  0  0  0  0  0  0  0  0
    1.4620   11.3390   -2.0170 C   0  0  2  0  0  0  0  0  0  0  0  0
    2.3410   10.0990   -1.7810 C   0  0  0  0  0  0  0  0  0  0  0  0
    3.6860   10.1380   -2.4270 C   0  0  0  0  0  0  0  0  0  0  0  0
    4.0640   10.9930   -3.3960 C   0  0  0  0  0  0  0  0  0  0  0  0
    3.0630   11.9820   -4.0080 C   0  0  1  0  0  0  0  0  0  0  0  0
    3.1890   11.9550   -5.5540 C   0  0  0  0  0  0  0  0  0  0  0  0
    4.6170   12.2010   -6.0300 C   0  0  0  0  0  0  0  0  0  0  0  0
    5.5730   11.1630   -5.4460 C   0  0  2  0  0  0  0  0  0  0  0  0
    5.2530    9.8810   -5.9960 O   0  0  0  0  0  0  0  0  0  0  0  0
    5.5270   11.0920   -3.8940 C   0  0  0  0  0  0  0  0  0  0  0  0
    6.1580   12.3740   -3.2960 C   0  0  0  0  0  0  0  0  0  0  0  0
    6.4300    9.9130   -3.4430 C   0  0  0  0  0  0  0  0  0  0  0  0
    1.5590   11.8400   -3.5150 C   0  0  1  0  0  0  0  0  0  0  0  0
    0.8110   10.7850   -4.3870 C   0  0  0  0  0  0  0  0  0  0  0  0
    0.8140   13.2090   -3.7380 C   0  0  0  0  0  0  0  0  0  0  0  0
    0.9030   14.2420   -2.5990 C   0  0  0  0  0  0  0  0  0  0  0  0
    0.5620   13.6020   -1.2500 C   0  0  2  0  0  0  0  0  0  0  0  0
   -0.9240   13.1110   -1.3160 C   0  0  0  0  0  0  0  0  0  0  0  0
   -1.9064   14.7351    1.5594 H   0  0  0  0  0  0  0  0  0  0  0  0
   -2.5150   15.4311    0.0193 H   0  0  0  0  0  0  0  0  0  0  0  0
   -1.6871   13.8369    0.0193 H   0  0  0  0  0  0  0  0  0  0  0  0
   -0.1356   16.0948    1.1823 H   0  0  0  0  0  0  0  0  0  0  0  0
    0.2760   16.2118   -1.6799 H   0  0  0  0  0  0  0  0  0  0  0  0
   -1.4614   16.5824   -1.2456 H   0  0  0  0  0  0  0  0  0  0  0  0
   -0.1822   18.6410   -1.3488 H   0  0  0  0  0  0  0  0  0  0  0  0
   -0.6750   18.2712    0.3559 H   0  0  0  0  0  0  0  0  0  0  0  0
    1.1801   17.4420    0.8430 H   0  0  0  0  0  0  0  0  0  0  0  0
    1.3309   17.7023   -2.7031 H   0  0  0  0  0  0  0  0  0  0  0  0
    2.5429   19.0094   -2.9248 H   0  0  0  0  0  0  0  0  0  0  0  0
    3.0652   17.2907   -2.9248 H   0  0  0  0  0  0  0  0  0  0  0  0
    3.9097   17.6706    0.5990 H   0  0  0  0  0  0  0  0  0  0  0  0
    4.1522   16.6585   -0.8651 H   0  0  0  0  0  0  0  0  0  0  0  0
    4.6737   18.3774   -0.8651 H   0  0  0  0  0  0  0  0  0  0  0  0
    1.5846   15.1659   -0.1172 H   0  0  0  0  0  0  0  0  0  0  0  0
    1.6342   13.7719    1.8564 H   0  0  0  0  0  0  0  0  0  0  0  0
   -0.0941   13.3836    1.7197 H   0  0  0  0  0  0  0  0  0  0  0  0
    2.0602   11.6385    1.0248 H   0  0  0  0  0  0  0  0  0  0  0  0
    0.3876   11.3863    0.5325 H   0  0  0  0  0  0  0  0  0  0  0  0
    3.3728   13.0673    0.2100 H   0  0  0  0  0  0  0  0  0  0  0  0
    3.7576   12.2493   -1.3422 H   0  0  0  0  0  0  0  0  0  0  0  0
    3.1824   13.9510   -1.3422 H   0  0  0  0  0  0  0  0  0  0  0  0
    0.4261   11.0046   -1.8584 H   0  0  0  0  0  0  0  0  0  0  0  0
    2.4880    9.9881   -0.6965 H   0  0  0  0  0  0  0  0  0  0  0  0
    1.8066    9.2553   -2.2420 H   0  0  0  0  0  0  0  0  0  0  0  0
    4.4315    9.4063   -2.0823 H   0  0  0  0  0  0  0  0  0  0  0  0
    3.3444   12.9752   -3.6280 H   0  0  0  0  0  0  0  0  0  0  0  0
    2.8613   10.9697   -5.9171 H   0  0  0  0  0  0  0  0  0  0  0  0
    2.5602   12.7642   -5.9539 H   0  0  0  0  0  0  0  0  0  0  0  0
    4.6461   12.1399   -7.1279 H   0  0  0  0  0  0  0  0  0  0  0  0
    4.9329   13.1990   -5.6920 H   0  0  0  0  0  0  0  0  0  0  0  0
    6.5951   11.4673   -5.7155 H   0  0  0  0  0  0  0  0  0  0  0  0
    4.7410    9.3940   -5.3280 H   0  0  0  0  0  0  0  0  0  0  0  0
    6.1306   12.3182   -2.1978 H   0  0  0  0  0  0  0  0  0  0  0  0
    7.2016   12.4605   -3.6328 H   0  0  0  0  0  0  0  0  0  0  0  0
    5.5900   13.2537   -3.6328 H   0  0  0  0  0  0  0  0  0  0  0  0
    6.4601    9.8737   -2.3441 H   0  0  0  0  0  0  0  0  0  0  0  0
    6.0219    8.9687   -3.8326 H   0  0  0  0  0  0  0  0  0  0  0  0
    7.4480   10.0610   -3.8326 H   0  0  0  0  0  0  0  0  0  0  0  0
    0.2998   10.0640   -3.7321 H   0  0  0  0  0  0  0  0  0  0  0  0
    0.0702   11.2930   -5.0219 H   0  0  0  0  0  0  0  0  0  0  0  0
    1.5355   10.2540   -5.0219 H   0  0  0  0  0  0  0  0  0  0  0  0
    1.2348   13.6734   -4.6420 H   0  0  0  0  0  0  0  0  0  0  0  0
   -0.2524   12.9483   -3.8072 H   0  0  0  0  0  0  0  0  0  0  0  0
    1.9257   14.6449   -2.5578 H   0  0  0  0  0  0  0  0  0  0  0  0
    0.1798   15.0465   -2.7981 H   0  0  0  0  0  0  0  0  0  0  0  0
   -1.3133   12.9824   -0.2953 H   0  0  0  0  0  0  0  0  0  0  0  0
   -1.5329   13.8557   -1.8495 H   0  0  0  0  0  0  0  0  0  0  0  0
   -0.9693   12.1501   -1.8495 H   0  0  0  0  0  0  0  0  0  0  0  0
  1  2  1  0
  2  3  1  0
  3  4  1  0
  4  5  1  0
  5  6  1  0
  6  7  1  0
  7  8  1  0
  7  9  1  0
  2 10  1  0
 10 11  1  0
 11 12  1  0
 12 13  1  0
 13 14  1  1
 13 15  1  0
 15 16  1  0
 16 17  1  0
 17 18  2  0
 18 19  1  0
 19 20  1  0
 20 21  1  0
 21 22  1  0
 22 23  1  0
 22 24  1  0
 24 25  1  0
 24 26  1  0
 19 27  1  0
 27 28  1  6
 27 29  1  0
 29 30  1  0
 30 31  1  0
 31 32  1  6
  7  5  1  0
 31 10  1  0
 31 13  1  0
 27 15  1  0
 24 18  1  0
  1 33  1  0
  1 34  1  0
  1 35  1  0
  2 36  1  1
  3 37  1  0
  3 38  1  0
  4 39  1  0
  4 40  1  0
  5 41  1  1
  8 42  1  0
  8 43  1  0
  8 44  1  0
  9 45  1  0
  9 46  1  0
  9 47  1  0
 10 48  1  6
 11 49  1  0
 11 50  1  0
 12 51  1  0
 12 52  1  0
 14 53  1  0
 14 54  1  0
 14 55  1  0
 15 56  1  6
 16 57  1  0
 16 58  1  0
 17 59  1  0
 19 60  1  1
 20 61  1  0
 20 62  1  0
 21 63  1  0
 21 64  1  0
 22 65  1  1
 23 66  1  0
 25 67  1  0
 25 68  1  0
 25 69  1  0
 26 70  1  0
 26 71  1  0
 26 72  1  0
 28 73  1  0
 28 74  1  0
 28 75  1  0
 29 76  1  0
 29 77  1  0
 30 78  1  0
 30 79  1  0
 32 80  1  0
 32 81  1  0
 32 82  1  0
M  END
>  <meeko>  (16) 
{"is_sidechain": [false], "intermolecular_energy": 2.731, "internal_energy": -0.839}

$$$$
EPH_relaxed_0001_pdb2pqr_Repair_90_r2_0001_out
     RDKit          3D

 82 86  0  0  0  0  0  0  0  0999 V2000
    2.6270   16.1750   -7.4500 C   0  0  0  0  0  0  0  0  0  0  0  0
    1.4090   15.2590   -7.2980 C   0  0  2  0  0  0  0  0  0  0  0  0
    0.1910   15.7760   -8.0880 C   0  0  0  0  0  0  0  0  0  0  0  0
    0.5510   16.3850   -9.4460 C   0  0  0  0  0  0  0  0  0  0  0  0
    1.9460   16.0260   -9.8620 C   0  0  2  0  0  0  0  0  0  0  0  0
    2.3500   16.5630  -11.1280 O   0  0  0  0  0  0  0  0  0  0  0  0
    2.2620   15.1310  -11.0450 C   0  0  0  0  0  0  0  0  0  0  0  0
    1.1760   14.5390  -11.8870 C   0  0  0  0  0  0  0  0  0  0  0  0
    3.5900   14.4420  -11.0870 C   0  0  0  0  0  0  0  0  0  0  0  0
    1.0500   15.1120   -5.8240 C   0  0  1  0  0  0  0  0  0  0  0  0
   -0.2500   15.8720   -5.4470 C   0  0  0  0  0  0  0  0  0  0  0  0
   -0.9650   15.0250   -4.3640 C   0  0  0  0  0  0  0  0  0  0  0  0
    0.0930   13.9900   -3.9150 C   0  0  1  0  0  0  0  0  0  0  0  0
    0.9970   14.7570   -2.8990 C   0  0  0  0  0  0  0  0  0  0  0  0
   -0.4560   12.6580   -3.3090 C   0  0  2  0  0  0  0  0  0  0  0  0
   -1.2690   12.8170   -2.0130 C   0  0  0  0  0  0  0  0  0  0  0  0
   -0.4780   12.7380   -0.7500 C   0  0  0  0  0  0  0  0  0  0  0  0
    0.7770   12.2660   -0.6410 C   0  0  0  0  0  0  0  0  0  0  0  0
    1.4970   11.6560   -1.8510 C   0  0  1  0  0  0  0  0  0  0  0  0
    2.1720   10.3230   -1.4340 C   0  0  0  0  0  0  0  0  0  0  0  0
    3.0930   10.4860   -0.2290 C   0  0  0  0  0  0  0  0  0  0  0  0
    2.3290   11.0400    0.9710 C   0  0  2  0  0  0  0  0  0  0  0  0
    1.3790   10.0610    1.4040 O   0  0  0  0  0  0  0  0  0  0  0  0
    1.5980   12.3780    0.6670 C   0  0  0  0  0  0  0  0  0  0  0  0
    2.6390   13.5110    0.4920 C   0  0  0  0  0  0  0  0  0  0  0  0
    0.7530   12.7540    1.9140 C   0  0  0  0  0  0  0  0  0  0  0  0
    0.6280   11.5120   -3.1740 C   0  0  1  0  0  0  0  0  0  0  0  0
   -0.1520   10.1620   -3.1550 C   0  0  0  0  0  0  0  0  0  0  0  0
    1.5920   11.4510   -4.4180 C   0  0  0  0  0  0  0  0  0  0  0  0
    2.0030   12.7960   -5.0460 C   0  0  0  0  0  0  0  0  0  0  0  0
    0.7780   13.6810   -5.2970 C   0  0  2  0  0  0  0  0  0  0  0  0
   -0.1390   12.9460   -6.3330 C   0  0  0  0  0  0  0  0  0  0  0  0
    3.0009   16.4562   -6.4544 H   0  0  0  0  0  0  0  0  0  0  0  0
    3.4173   15.6456   -8.0024 H   0  0  0  0  0  0  0  0  0  0  0  0
    2.3376   17.0812   -8.0024 H   0  0  0  0  0  0  0  0  0  0  0  0
    1.6794   14.2775   -7.7145 H   0  0  0  0  0  0  0  0  0  0  0  0
   -0.4965   14.9340   -8.2564 H   0  0  0  0  0  0  0  0  0  0  0  0
   -0.2651   16.5769   -7.4875 H   0  0  0  0  0  0  0  0  0  0  0  0
   -0.1542   16.0108  -10.2028 H   0  0  0  0  0  0  0  0  0  0  0  0
    0.4902   17.4798   -9.3580 H   0  0  0  0  0  0  0  0  0  0  0  0
    2.2790   16.0078   -8.8138 H   0  0  0  0  0  0  0  0  0  0  0  0
    0.3975   14.1146  -11.2360 H   0  0  0  0  0  0  0  0  0  0  0  0
    0.7362   15.3222  -12.5220 H   0  0  0  0  0  0  0  0  0  0  0  0
    1.5960   13.7450  -12.5220 H   0  0  0  0  0  0  0  0  0  0  0  0
    3.9412   14.2598  -10.0606 H   0  0  0  0  0  0  0  0  0  0  0  0
    3.4888   13.4827  -11.6156 H   0  0  0  0  0  0  0  0  0  0  0  0
    4.3161   15.0771  -11.6156 H   0  0  0  0  0  0  0  0  0  0  0  0
    1.9690   15.5113   -5.3701 H   0  0  0  0  0  0  0  0  0  0  0  0
   -0.0048   16.8675   -5.0485 H   0  0  0  0  0  0  0  0  0  0  0  0
   -0.8944   16.0131   -6.3272 H   0  0  0  0  0  0  0  0  0  0  0  0
   -1.2733   15.6569   -3.5180 H   0  0  0  0  0  0  0  0  0  0  0  0
   -1.8796   14.5474   -4.7452 H   0  0  0  0  0  0  0  0  0  0  0  0
    0.6947   14.5005   -1.8729 H   0  0  0  0  0  0  0  0  0  0  0  0
    2.0477   14.4706   -3.0541 H   0  0  0  0  0  0  0  0  0  0  0  0
    0.8855   15.8403   -3.0541 H   0  0  0  0  0  0  0  0  0  0  0  0
   -1.1748   12.3297   -4.0742 H   0  0  0  0  0  0  0  0  0  0  0  0
   -1.7660   13.7979   -2.0419 H   0  0  0  0  0  0  0  0  0  0  0  0
   -1.9689   11.9687   -1.9871 H   0  0  0  0  0  0  0  0  0  0  0  0
   -0.9625   13.0963    0.1703 H   0  0  0  0  0  0  0  0  0  0  0  0
    2.2644   12.3858   -2.1483 H   0  0  0  0  0  0  0  0  0  0  0  0
    1.3876    9.5941   -1.1823 H   0  0  0  0  0  0  0  0  0  0  0  0
    2.7861    9.9806   -2.2799 H   0  0  0  0  0  0  0  0  0  0  0  0
    3.5168    9.5059    0.0353 H   0  0  0  0  0  0  0  0  0  0  0  0
    3.8936   11.1930   -0.4922 H   0  0  0  0  0  0  0  0  0  0  0  0
    3.0647   11.2563    1.7596 H   0  0  0  0  0  0  0  0  0  0  0  0
    1.0380    9.6120    0.6130 H   0  0  0  0  0  0  0  0  0  0  0  0
    2.9648   13.8656    1.4810 H   0  0  0  0  0  0  0  0  0  0  0  0
    3.5072   13.1285   -0.0647 H   0  0  0  0  0  0  0  0  0  0  0  0
    2.1845   14.3438   -0.0647 H   0  0  0  0  0  0  0  0  0  0  0  0
    1.3145   12.5042    2.8263 H   0  0  0  0  0  0  0  0  0  0  0  0
    0.5380   13.8327    1.8996 H   0  0  0  0  0  0  0  0  0  0  0  0
   -0.1922   12.1915    1.8996 H   0  0  0  0  0  0  0  0  0  0  0  0
   -0.3291    9.8555   -2.1135 H   0  0  0  0  0  0  0  0  0  0  0  0
   -1.1163   10.2884   -3.6690 H   0  0  0  0  0  0  0  0  0  0  0  0
    0.4391    9.3897   -3.6690 H   0  0  0  0  0  0  0  0  0  0  0  0
    2.5115   10.9370   -4.1013 H   0  0  0  0  0  0  0  0  0  0  0  0
    1.0190   10.9317   -5.2003 H   0  0  0  0  0  0  0  0  0  0  0  0
    2.6896   13.3173   -4.3628 H   0  0  0  0  0  0  0  0  0  0  0  0
    2.4955   12.5974   -6.0093 H   0  0  0  0  0  0  0  0  0  0  0  0
   -0.8887   12.3451   -5.7975 H   0  0  0  0  0  0  0  0  0  0  0  0
   -0.6478   13.6892   -6.9645 H   0  0  0  0  0  0  0  0  0  0  0  0
    0.4757   12.2876   -6.9645 H   0  0  0  0  0  0  0  0  0  0  0  0
  1  2  1  0
  2  3  1  0
  3  4  1  0
  4  5  1  0
  5  6  1  0
  6  7  1  0
  7  8  1  0
  7  9  1  0
  2 10  1  0
 10 11  1  0
 11 12  1  0
 12 13  1  0
 13 14  1  1
 13 15  1  0
 15 16  1  0
 16 17  1  0
 17 18  2  0
 18 19  1  0
 19 20  1  0
 20 21  1  0
 21 22  1  0
 22 23  1  0
 22 24  1  0
 24 25  1  0
 24 26  1  0
 19 27  1  0
 27 28  1  1
 27 29  1  0
 29 30  1  0
 30 31  1  0
 31 32  1  6
  7  5  1  0
 31 10  1  0
 31 13  1  0
 27 15  1  0
 24 18  1  0
  1 33  1  0
  1 34  1  0
  1 35  1  0
  2 36  1  6
  3 37  1  0
  3 38  1  0
  4 39  1  0
  4 40  1  0
  5 41  1  1
  8 42  1  0
  8 43  1  0
  8 44  1  0
  9 45  1  0
  9 46  1  0
  9 47  1  0
 10 48  1  1
 11 49  1  0
 11 50  1  0
 12 51  1  0
 12 52  1  0
 14 53  1  0
 14 54  1  0
 14 55  1  0
 15 56  1  6
 16 57  1  0
 16 58  1  0
 17 59  1  0
 19 60  1  6
 20 61  1  0
 20 62  1  0
 21 63  1  0
 21 64  1  0
 22 65  1  1
 23 66  1  0
 25 67  1  0
 25 68  1  0
 25 69  1  0
 26 70  1  0
 26 71  1  0
 26 72  1  0
 28 73  1  0
 28 74  1  0
 28 75  1  0
 29 76  1  0
 29 77  1  0
 30 78  1  0
 30 79  1  0
 32 80  1  0
 32 81  1  0
 32 82  1  0
M  END
>  <meeko>  (17) 
{"is_sidechain": [false], "intermolecular_energy": 2.731, "internal_energy": -0.839}

$$$$
EPH_relaxed_0001_pdb2pqr_Repair_90_r2_0001_out
     RDKit          3D

 82 86  0  0  0  0  0  0  0  0999 V2000
   -0.4090    7.6060   -0.2950 C   0  0  0  0  0  0  0  0  0  0  0  0
   -1.6000    8.4860   -0.6850 C   0  0  2  0  0  0  0  0  0  0  0  0
   -2.2500    8.0300   -2.0070 C   0  0  0  0  0  0  0  0  0  0  0  0
   -3.7100    7.5940   -1.8570 C   0  0  0  0  0  0  0  0  0  0  0  0
   -4.1510    6.7310   -3.0000 C   0  0  2  0  0  0  0  0  0  0  0  0
   -4.6270    7.4500   -4.1450 O   0  0  0  0  0  0  0  0  0  0  0  0
   -5.5920    6.6310   -3.4650 C   0  0  0  0  0  0  0  0  0  0  0  0
   -6.6840    7.4040   -2.7950 C   0  0  0  0  0  0  0  0  0  0  0  0
   -6.0100    5.4220   -4.2430 C   0  0  0  0  0  0  0  0  0  0  0  0
   -1.1570    9.9400   -0.7960 C   0  0  1  0  0  0  0  0  0  0  0  0
   -0.6620   10.5190    0.5560 C   0  0  0  0  0  0  0  0  0  0  0  0
    0.4890   11.5030    0.2260 C   0  0  0  0  0  0  0  0  0  0  0  0
    0.3990   11.7110   -1.3040 C   0  0  1  0  0  0  0  0  0  0  0  0
   -0.7310   12.7690   -1.4990 C   0  0  0  0  0  0  0  0  0  0  0  0
    1.7200   12.1370   -2.0220 C   0  0  2  0  0  0  0  0  0  0  0  0
    2.2940   13.4950   -1.5810 C   0  0  0  0  0  0  0  0  0  0  0  0
    1.8180   14.6740   -2.3650 C   0  0  0  0  0  0  0  0  0  0  0  0
    1.1910   14.6200   -3.5550 C   0  0  0  0  0  0  0  0  0  0  0  0
    0.9910   13.2830   -4.2800 C   0  0  1  0  0  0  0  0  0  0  0  0
    1.3830   13.4390   -5.7720 C   0  0  0  0  0  0  0  0  0  0  0  0
    0.6480   14.5890   -6.4540 C   0  0  0  0  0  0  0  0  0  0  0  0
    0.9190   15.9100   -5.7390 C   0  0  2  0  0  0  0  0  0  0  0  0
    2.2990   16.2500   -5.9060 O   0  0  0  0  0  0  0  0  0  0  0  0
    0.5700   15.8700   -4.2250 C   0  0  0  0  0  0  0  0  0  0  0  0
   -0.9670   15.8030   -4.0470 C   0  0  0  0  0  0  0  0  0  0  0  0
    1.0220   17.2150   -3.5950 C   0  0  0  0  0  0  0  0  0  0  0  0
    1.6690   12.0170   -3.5990 C   0  0  1  0  0  0  0  0  0  0  0  0
    3.1440   11.8790   -4.0840 C   0  0  0  0  0  0  0  0  0  0  0  0
    0.9210   10.7150   -4.0760 C   0  0  0  0  0  0  0  0  0  0  0  0
   -0.3060   10.2790   -3.2540 C   0  0  0  0  0  0  0  0  0  0  0  0
    0.0170   10.2540   -1.7570 C   0  0  2  0  0  0  0  0  0  0  0  0
    1.1360    9.1820   -1.5260 C   0  0  0  0  0  0  0  0  0  0  0  0
   -0.3363    7.5523    0.8013 H   0  0  0  0  0  0  0  0  0  0  0  0
   -0.5513    6.5945   -0.7031 H   0  0  0  0  0  0  0  0  0  0  0  0
    0.5161    8.0392   -0.7031 H   0  0  0  0  0  0  0  0  0  0  0  0
   -2.3579    8.3880    0.1062 H   0  0  0  0  0  0  0  0  0  0  0  0
   -2.2089    8.8661   -2.7207 H   0  0  0  0  0  0  0  0  0  0  0  0
   -1.6867    7.1520   -2.3560 H   0  0  0  0  0  0  0  0  0  0  0  0
   -3.8185    7.0277   -0.9202 H   0  0  0  0  0  0  0  0  0  0  0  0
   -4.3382    8.4969   -1.8468 H   0  0  0  0  0  0  0  0  0  0  0  0
   -3.4043    5.9660   -2.7410 H   0  0  0  0  0  0  0  0  0  0  0  0
   -6.5726    7.3251   -1.7035 H   0  0  0  0  0  0  0  0  0  0  0  0
   -6.6222    8.4606   -3.0945 H   0  0  0  0  0  0  0  0  0  0  0  0
   -7.6600    6.9945   -3.0945 H   0  0  0  0  0  0  0  0  0  0  0  0
   -6.2885    4.6166   -3.5474 H   0  0  0  0  0  0  0  0  0  0  0  0
   -6.8732    5.6741   -4.8766 H   0  0  0  0  0  0  0  0  0  0  0  0
   -5.1755    5.0871   -4.8766 H   0  0  0  0  0  0  0  0  0  0  0  0
   -2.0863   10.3872   -1.1788 H   0  0  0  0  0  0  0  0  0  0  0  0
   -1.4809   11.0502    1.0632 H   0  0  0  0  0  0  0  0  0  0  0  0
   -0.3170    9.7179    1.2262 H   0  0  0  0  0  0  0  0  0  0  0  0
    0.3486   12.4565    0.7563 H   0  0  0  0  0  0  0  0  0  0  0  0
    1.4705   11.1157    0.5370 H   0  0  0  0  0  0  0  0  0  0  0  0
   -1.0912   13.1062   -0.5159 H   0  0  0  0  0  0  0  0  0  0  0  0
   -0.3354   13.6290   -2.0593 H   0  0  0  0  0  0  0  0  0  0  0  0
   -1.5631   12.3177   -2.0593 H   0  0  0  0  0  0  0  0  0  0  0  0
    2.4350   11.3802   -1.6669 H   0  0  0  0  0  0  0  0  0  0  0  0
    2.0196   13.6540   -0.5277 H   0  0  0  0  0  0  0  0  0  0  0  0
    3.3794   13.4357   -1.7495 H   0  0  0  0  0  0  0  0  0  0  0  0
    1.9947   15.6703   -1.9336 H   0  0  0  0  0  0  0  0  0  0  0  0
   -0.0811   13.0504   -4.1990 H   0  0  0  0  0  0  0  0  0  0  0  0
    2.4652   13.6261   -5.8343 H   0  0  0  0  0  0  0  0  0  0  0  0
    1.1017   12.5100   -6.2895 H   0  0  0  0  0  0  0  0  0  0  0  0
    0.9902   14.6671   -7.4965 H   0  0  0  0  0  0  0  0  0  0  0  0
   -0.4324   14.3856   -6.4181 H   0  0  0  0  0  0  0  0  0  0  0  0
    0.2651   16.6701   -6.1914 H   0  0  0  0  0  0  0  0  0  0  0  0
    2.8080   15.4210   -5.9070 H   0  0  0  0  0  0  0  0  0  0  0  0
   -1.2118   15.7923   -2.9746 H   0  0  0  0  0  0  0  0  0  0  0  0
   -1.4295   16.6818   -4.5200 H   0  0  0  0  0  0  0  0  0  0  0  0
   -1.3513   14.8872   -4.5200 H   0  0  0  0  0  0  0  0  0  0  0  0
    0.9947   17.1337   -2.4983 H   0  0  0  0  0  0  0  0  0  0  0  0
    2.0471   17.4460   -3.9201 H   0  0  0  0  0  0  0  0  0  0  0  0
    0.3444   18.0182   -3.9201 H   0  0  0  0  0  0  0  0  0  0  0  0
    3.8122   11.8165   -3.2125 H   0  0  0  0  0  0  0  0  0  0  0  0
    3.2467   10.9673   -4.6909 H   0  0  0  0  0  0  0  0  0  0  0  0
    3.4140   12.7558   -4.6909 H   0  0  0  0  0  0  0  0  0  0  0  0
    0.5861   10.8835   -5.1101 H   0  0  0  0  0  0  0  0  0  0  0  0
    1.6522    9.9022   -3.9551 H   0  0  0  0  0  0  0  0  0  0  0  0
   -1.1287   10.9869   -3.4327 H   0  0  0  0  0  0  0  0  0  0  0  0
   -0.5953    9.2650   -3.5671 H   0  0  0  0  0  0  0  0  0  0  0  0
    1.2875    9.0369   -0.4462 H   0  0  0  0  0  0  0  0  0  0  0  0
    0.8318    8.2297   -1.9848 H   0  0  0  0  0  0  0  0  0  0  0  0
    2.0744    9.5268   -1.9848 H   0  0  0  0  0  0  0  0  0  0  0  0
  1  2  1  0
  2  3  1  0
  3  4  1  0
  4  5  1  0
  5  6  1  0
  6  7  1  0
  7  8  1  0
  7  9  1  0
  2 10  1  0
 10 11  1  0
 11 12  1  0
 12 13  1  0
 13 14  1  1
 13 15  1  0
 15 16  1  0
 16 17  1  0
 17 18  2  0
 18 19  1  0
 19 20  1  0
 20 21  1  0
 21 22  1  0
 22 23  1  0
 22 24  1  0
 24 25  1  0
 24 26  1  0
 19 27  1  0
 27 28  1  6
 27 29  1  0
 29 30  1  0
 30 31  1  0
 31 32  1  6
  7  5  1  0
 31 10  1  0
 31 13  1  0
 27 15  1  0
 24 18  1  0
  1 33  1  0
  1 34  1  0
  1 35  1  0
  2 36  1  1
  3 37  1  0
  3 38  1  0
  4 39  1  0
  4 40  1  0
  5 41  1  6
  8 42  1  0
  8 43  1  0
  8 44  1  0
  9 45  1  0
  9 46  1  0
  9 47  1  0
 10 48  1  6
 11 49  1  0
 11 50  1  0
 12 51  1  0
 12 52  1  0
 14 53  1  0
 14 54  1  0
 14 55  1  0
 15 56  1  1
 16 57  1  0
 16 58  1  0
 17 59  1  0
 19 60  1  6
 20 61  1  0
 20 62  1  0
 21 63  1  0
 21 64  1  0
 22 65  1  6
 23 66  1  0
 25 67  1  0
 25 68  1  0
 25 69  1  0
 26 70  1  0
 26 71  1  0
 26 72  1  0
 28 73  1  0
 28 74  1  0
 28 75  1  0
 29 76  1  0
 29 77  1  0
 30 78  1  0
 30 79  1  0
 32 80  1  0
 32 81  1  0
 32 82  1  0
M  END
>  <meeko>  (18) 
{"is_sidechain": [false], "intermolecular_energy": 2.731, "internal_energy": -0.839}

$$$$
EPH_relaxed_0001_pdb2pqr_Repair_90_r2_0001_out
     RDKit          3D

 82 86  0  0  0  0  0  0  0  0999 V2000
   -1.6880    6.7910   -3.0730 C   0  0  0  0  0  0  0  0  0  0  0  0
   -2.9210    7.3770   -2.3780 C   0  0  2  0  0  0  0  0  0  0  0  0
   -4.1280    7.4850   -3.3310 C   0  0  0  0  0  0  0  0  0  0  0  0
   -5.4130    6.8700   -2.7700 C   0  0  0  0  0  0  0  0  0  0  0  0
   -6.4790    7.9040   -2.5660 C   0  0  2  0  0  0  0  0  0  0  0  0
   -7.3640    7.6420   -1.4690 O   0  0  0  0  0  0  0  0  0  0  0  0
   -7.9570    7.6340   -2.7780 C   0  0  0  0  0  0  0  0  0  0  0  0
   -8.4500    6.2910   -3.2140 C   0  0  0  0  0  0  0  0  0  0  0  0
   -8.8660    8.7950   -3.0350 C   0  0  0  0  0  0  0  0  0  0  0  0
   -2.5890    8.7470   -1.7990 C   0  0  1  0  0  0  0  0  0  0  0  0
   -3.4130    9.0720   -0.5250 C   0  0  0  0  0  0  0  0  0  0  0  0
   -2.4890    9.8990    0.4060 C   0  0  0  0  0  0  0  0  0  0  0  0
   -1.2950   10.3030   -0.4890 C   0  0  1  0  0  0  0  0  0  0  0  0
   -1.7990   11.5410   -1.2960 C   0  0  0  0  0  0  0  0  0  0  0  0
    0.0510   10.6050    0.2490 C   0  0  2  0  0  0  0  0  0  0  0  0
    0.0080   11.7930    1.2250 C   0  0  0  0  0  0  0  0  0  0  0  0
    0.3600   13.1170    0.6340 C   0  0  0  0  0  0  0  0  0  0  0  0
    0.9700   13.3080   -0.5500 C   0  0  0  0  0  0  0  0  0  0  0  0
    1.4600   12.1170   -1.3850 C   0  0  1  0  0  0  0  0  0  0  0  0
    2.9040   12.3920   -1.8820 C   0  0  0  0  0  0  0  0  0  0  0  0
    3.0230   13.7160   -2.6290 C   0  0  0  0  0  0  0  0  0  0  0  0
    2.5820   14.8820   -1.7470 C   0  0  2  0  0  0  0  0  0  0  0  0
    3.5120   15.0210   -0.6690 O   0  0  0  0  0  0  0  0  0  0  0  0
    1.1450   14.7120   -1.1800 C   0  0  0  0  0  0  0  0  0  0  0  0
    0.1120   14.8630   -2.3240 C   0  0  0  0  0  0  0  0  0  0  0  0
    0.8780   15.8830   -0.1970 C   0  0  0  0  0  0  0  0  0  0  0  0
    1.3090   10.6870   -0.7070 C   0  0  1  0  0  0  0  0  0  0  0  0
    2.5590   10.3820    0.1750 C   0  0  0  0  0  0  0  0  0  0  0  0
    1.2800    9.5860   -1.8320 C   0  0  0  0  0  0  0  0  0  0  0  0
   -0.0960    9.2480   -2.4370 C   0  0  0  0  0  0  0  0  0  0  0  0
   -1.1300    8.9900   -1.3380 C   0  0  2  0  0  0  0  0  0  0  0  0
   -0.6610    7.7370   -0.5230 C   0  0  0  0  0  0  0  0  0  0  0  0
   -0.9679    6.4488   -2.3151 H   0  0  0  0  0  0  0  0  0  0  0  0
   -1.9909    5.9405   -3.7015 H   0  0  0  0  0  0  0  0  0  0  0  0
   -1.2198    7.5629   -3.7015 H   0  0  0  0  0  0  0  0  0  0  0  0
   -3.2022    6.6894   -1.5668 H   0  0  0  0  0  0  0  0  0  0  0  0
   -4.3137    8.5495   -3.5368 H   0  0  0  0  0  0  0  0  0  0  0  0
   -3.8715    6.9201   -4.2393 H   0  0  0  0  0  0  0  0  0  0  0  0
   -5.7826    6.1112   -3.4754 H   0  0  0  0  0  0  0  0  0  0  0  0
   -5.1801    6.4201   -1.7936 H   0  0  0  0  0  0  0  0  0  0  0  0
   -5.8136    8.6980   -2.9359 H   0  0  0  0  0  0  0  0  0  0  0  0
   -8.6751    5.6779   -2.3288 H   0  0  0  0  0  0  0  0  0  0  0  0
   -9.3619    6.4132   -3.8169 H   0  0  0  0  0  0  0  0  0  0  0  0
   -7.6756    5.7941   -3.8169 H   0  0  0  0  0  0  0  0  0  0  0  0
   -9.1985    9.2196   -2.0763 H   0  0  0  0  0  0  0  0  0  0  0  0
   -8.3266    9.5630   -3.6088 H   0  0  0  0  0  0  0  0  0  0  0  0
   -9.7410    8.4556   -3.6088 H   0  0  0  0  0  0  0  0  0  0  0  0
   -2.8169    9.3765   -2.6719 H   0  0  0  0  0  0  0  0  0  0  0  0
   -4.3056    9.6575   -0.7903 H   0  0  0  0  0  0  0  0  0  0  0  0
   -3.7523    8.1511   -0.0283 H   0  0  0  0  0  0  0  0  0  0  0  0
   -3.0128   10.7908    0.7806 H   0  0  0  0  0  0  0  0  0  0  0  0
   -2.1723    9.3297    1.2924 H   0  0  0  0  0  0  0  0  0  0  0  0
   -2.1195   12.3282   -0.5977 H   0  0  0  0  0  0  0  0  0  0  0  0
   -0.9844   11.9222   -1.9294 H   0  0  0  0  0  0  0  0  0  0  0  0
   -2.6482   11.2448   -1.9294 H   0  0  0  0  0  0  0  0  0  0  0  0
    0.1831    9.7101    0.8749 H   0  0  0  0  0  0  0  0  0  0  0  0
   -1.0120   11.8625    1.6310 H   0  0  0  0  0  0  0  0  0  0  0  0
    0.7732   11.5875    1.9881 H   0  0  0  0  0  0  0  0  0  0  0  0
    0.0986   14.0132    1.2157 H   0  0  0  0  0  0  0  0  0  0  0  0
    0.7773   12.0460   -2.2446 H   0  0  0  0  0  0  0  0  0  0  0  0
    3.5776   12.4158   -1.0127 H   0  0  0  0  0  0  0  0  0  0  0  0
    3.1749   11.5880   -2.5822 H   0  0  0  0  0  0  0  0  0  0  0  0
    4.0705   13.8674   -2.9286 H   0  0  0  0  0  0  0  0  0  0  0  0
    2.3711   13.6794   -3.5143 H   0  0  0  0  0  0  0  0  0  0  0  0
    2.5654   15.7842   -2.3760 H   0  0  0  0  0  0  0  0  0  0  0  0
    3.0740   15.5310    0.0330 H   0  0  0  0  0  0  0  0  0  0  0  0
   -0.8906   15.0096   -1.8958 H   0  0  0  0  0  0  0  0  0  0  0  0
    0.3763   15.7320   -2.9444 H   0  0  0  0  0  0  0  0  0  0  0  0
    0.1165   13.9546   -2.9444 H   0  0  0  0  0  0  0  0  0  0  0  0
    0.9609   15.5192    0.8378 H   0  0  0  0  0  0  0  0  0  0  0  0
    1.6176   16.6795   -0.3660 H   0  0  0  0  0  0  0  0  0  0  0  0
   -0.1338   16.2802   -0.3660 H   0  0  0  0  0  0  0  0  0  0  0  0
    2.2831   10.4493    1.2377 H   0  0  0  0  0  0  0  0  0  0  0  0
    2.9247    9.3683   -0.0454 H   0  0  0  0  0  0  0  0  0  0  0  0
    3.3505   11.1134   -0.0454 H   0  0  0  0  0  0  0  0  0  0  0  0
    1.9284    9.9300   -2.6513 H   0  0  0  0  0  0  0  0  0  0  0  0
    1.6128    8.6610   -1.3385 H   0  0  0  0  0  0  0  0  0  0  0  0
   -0.4332   10.0915   -3.0573 H   0  0  0  0  0  0  0  0  0  0  0  0
    0.0030    8.3372   -3.0459 H   0  0  0  0  0  0  0  0  0  0  0  0
   -0.7404    7.9490    0.5534 H   0  0  0  0  0  0  0  0  0  0  0  0
   -1.2978    6.8762   -0.7751 H   0  0  0  0  0  0  0  0  0  0  0  0
    0.3845    7.5059   -0.7751 H   0  0  0  0  0  0  0  0  0  0  0  0
  1  2  1  0
  2  3  1  0
  3  4  1  0
  4  5  1  0
  5  6  1  0
  6  7  1  0
  7  8  1  0
  7  9  1  0
  2 10  1  0
 10 11  1  0
 11 12  1  0
 12 13  1  0
 13 14  1  6
 13 15  1  0
 15 16  1  0
 16 17  1  0
 17 18  2  0
 18 19  1  0
 19 20  1  0
 20 21  1  0
 21 22  1  0
 22 23  1  0
 22 24  1  0
 24 25  1  0
 24 26  1  0
 19 27  1  0
 27 28  1  1
 27 29  1  0
 29 30  1  0
 30 31  1  0
 31 32  1  1
  7  5  1  0
 31 10  1  0
 31 13  1  0
 27 15  1  0
 24 18  1  0
  1 33  1  0
  1 34  1  0
  1 35  1  0
  2 36  1  1
  3 37  1  0
  3 38  1  0
  4 39  1  0
  4 40  1  0
  5 41  1  1
  8 42  1  0
  8 43  1  0
  8 44  1  0
  9 45  1  0
  9 46  1  0
  9 47  1  0
 10 48  1  6
 11 49  1  0
 11 50  1  0
 12 51  1  0
 12 52  1  0
 14 53  1  0
 14 54  1  0
 14 55  1  0
 15 56  1  1
 16 57  1  0
 16 58  1  0
 17 59  1  0
 19 60  1  6
 20 61  1  0
 20 62  1  0
 21 63  1  0
 21 64  1  0
 22 65  1  6
 23 66  1  0
 25 67  1  0
 25 68  1  0
 25 69  1  0
 26 70  1  0
 26 71  1  0
 26 72  1  0
 28 73  1  0
 28 74  1  0
 28 75  1  0
 29 76  1  0
 29 77  1  0
 30 78  1  0
 30 79  1  0
 32 80  1  0
 32 81  1  0
 32 82  1  0
M  END
>  <meeko>  (19) 
{"is_sidechain": [false], "intermolecular_energy": 2.731, "internal_energy": -0.839}

$$$$
